CSD_code = ABAJOF | q = 0 | S = 0 | Stoichiometry = C11H15I2N3OPt | MND = 4
 OpenBabel04212201593D

 33 34  0  0  0  0  0  0  0  0999 V2000
    0.0394   10.3489   12.0916 C   0  0  0  0  0  0  0  0  0  0  0  0
    1.5621   11.9646   11.9784 C   0  0  0  0  0  0  0  0  0  0  0  0
    1.9747   12.9410   12.1252 H   0  0  0  0  0  0  0  0  0  0  0  0
    2.0852   10.8622   11.3934 C   0  0  0  0  0  0  0  0  0  0  0  0
    3.0405   10.7016   10.9388 H   0  0  0  0  0  0  0  0  0  0  0  0
   -0.6113   12.5057   13.0778 C   0  0  0  0  0  0  0  0  0  0  0  0
   -1.0584   13.2090   12.3717 H   0  0  0  0  0  0  0  0  0  0  0  0
   -0.0962   13.0575   13.8637 H   0  0  0  0  0  0  0  0  0  0  0  0
   -1.4064   11.8989   13.5256 H   0  0  0  0  0  0  0  0  0  0  0  0
    1.3154    8.5256   11.0016 C   0  0  0  0  0  0  0  0  0  0  0  0
    1.3725    7.8372   11.8519 H   0  0  0  0  0  0  0  0  0  0  0  0
    2.2515    8.4640   10.4439 H   0  0  0  0  0  0  0  0  0  0  0  0
    0.1692    8.0887   10.0842 C   0  0  0  0  0  0  0  0  0  0  0  0
   -0.7606    7.9935   10.6853 H   0  0  0  0  0  0  0  0  0  0  0  0
    0.0062    8.8530    9.3109 H   0  0  0  0  0  0  0  0  0  0  0  0
   -3.6090    7.2303   12.5816 C   0  0  0  0  0  3  0  0  0  0  0  0
   -2.7861    6.7112   12.1006 H   0  0  0  0  0  0  0  0  0  0  0  0
   -4.7901    6.5720   12.8673 C   0  0  0  0  0  0  0  0  0  0  0  0
   -4.9040    5.5337   12.6001 H   0  0  0  0  0  0  0  0  0  0  0  0
   -5.8077    7.2673   13.5020 C   0  0  0  0  0  0  0  0  0  0  0  0
   -6.7408    6.7820   13.7430 H   0  0  0  0  0  0  0  0  0  0  0  0
   -5.5979    8.5998   13.8219 C   0  0  0  0  0  0  0  0  0  0  0  0
   -6.3575    9.1825   14.3177 H   0  0  0  0  0  0  0  0  0  0  0  0
   -4.3895    9.1829   13.4916 C   0  0  0  0  0  0  0  0  0  0  0  0
   -4.1948   10.2267   13.7178 H   0  0  0  0  0  0  0  0  0  0  0  0
    0.3065   11.6278   12.4039 N   0  0  0  0  0  0  0  0  0  0  0  0
    1.1388    9.8757   11.4727 N   0  0  0  0  0  0  0  0  0  0  0  0
   -3.4140    8.5115   12.8840 N   0  0  0  0  0  0  0  0  0  0  0  0
    0.5294    6.8562    9.5150 O   0  0  0  0  0  0  0  0  0  0  0  0
   -0.1566    6.5802    8.8985 H   0  0  0  0  0  0  0  0  0  0  0  0
   -0.5670    8.2381   14.5355 I   0  0  0  0  0  0  0  0  0  0  0  0
   -2.8155   10.6928   10.4626 I   0  0  0  0  0  0  0  0  0  0  0  0
   -1.6842    9.4228   12.4755 Pt  0  0  0  0  0  0  0  0  0  0  0  0
  1 26  1  0  0  0  0
  1 33  2  0  0  0  0
  2  3  1  0  0  0  0
  2 26  1  0  0  0  0
  4 27  1  0  0  0  0
  4  2  2  0  0  0  0
  5  4  1  0  0  0  0
  6  9  1  0  0  0  0
  6  8  1  0  0  0  0
  7  6  1  0  0  0  0
 10 27  1  0  0  0  0
 10 11  1  0  0  0  0
 12 10  1  0  0  0  0
 13 14  1  0  0  0  0
 13 10  1  0  0  0  0
 15 13  1  0  0  0  0
 16 18  1  0  0  0  0
 16 28  1  0  0  0  0
 17 16  1  0  0  0  0
 18 20  2  0  0  0  0
 19 18  1  0  0  0  0
 20 21  1  0  0  0  0
 20 22  1  0  0  0  0
 22 23  1  0  0  0  0
 24 25  1  0  0  0  0
 24 22  2  0  0  0  0
 26  6  1  0  0  0  0
 27  1  1  0  0  0  0
 28 24  1  0  0  0  0
 29 13  1  0  0  0  0
 30 29  1  0  0  0  0
 32 33  1  0  0  0  0
 33 28  1  0  0  0  0
 33 31  1  0  0  0  0
M  END
$$$$
