CSD_code = ABAJIZ | q = 0 | S = 0 | Stoichiometry = C12H15I2N3Pt | MND = 4
 OpenBabel04212201593D

 33 34  0  0  0  0  0  0  0  0999 V2000
   11.1681    3.8201    2.5511 C   0  0  0  0  0  0  0  0  0  0  0  0
   11.9101    5.8094    1.9011 C   0  0  0  0  0  0  0  0  0  0  0  0
   11.9654    6.6902    1.2955 H   0  0  0  0  0  0  0  0  0  0  0  0
   12.6167    5.4441    2.9963 C   0  0  0  0  0  0  0  0  0  0  0  0
   13.3984    5.9467    3.5268 H   0  0  0  0  0  0  0  0  0  0  0  0
   10.0743    4.7606    0.5645 C   0  0  0  0  0  0  0  0  0  0  0  0
    9.4970    3.8325    0.6514 H   0  0  0  0  0  0  0  0  0  0  0  0
   10.5872    4.7715   -0.3987 H   0  0  0  0  0  0  0  0  0  0  0  0
    9.3938    5.6113    0.6240 H   0  0  0  0  0  0  0  0  0  0  0  0
   12.5961    3.4609    4.5257 C   0  0  0  0  0  0  0  0  0  0  0  0
   13.6745    3.2895    4.4561 H   0  0  0  0  0  0  0  0  0  0  0  0
   12.0771    2.4869    4.4812 H   0  0  0  0  0  0  0  0  0  0  0  0
   12.2440    4.1641    5.8026 C   0  0  0  0  0  0  0  0  0  0  0  0
   11.1995    4.4246    5.9055 H   0  0  0  0  0  0  0  0  0  0  0  0
   13.1179    4.4554    6.7462 C   0  0  0  0  0  0  0  0  0  0  0  0
   14.1611    4.1975    6.6560 H   0  0  0  0  0  0  0  0  0  0  0  0
   12.8253    4.9519    7.6547 H   0  0  0  0  0  0  0  0  0  0  0  0
    9.4684   -0.5232    3.6650 C   0  0  0  0  0  3  0  0  0  0  0  0
   10.3079   -0.2923    4.3142 H   0  0  0  0  0  0  0  0  0  0  0  0
    8.7894   -1.7214    3.7784 C   0  0  0  0  0  0  0  0  0  0  0  0
    9.0908   -2.4419    4.5218 H   0  0  0  0  0  0  0  0  0  0  0  0
    7.7263   -1.9711    2.9242 C   0  0  0  0  0  0  0  0  0  0  0  0
    7.1749   -2.8966    2.9859 H   0  0  0  0  0  0  0  0  0  0  0  0
    7.3875   -1.0053    1.9890 C   0  0  0  0  0  0  0  0  0  0  0  0
    6.5687   -1.1536    1.3033 H   0  0  0  0  0  0  0  0  0  0  0  0
    8.1193    0.1660    1.9456 C   0  0  0  0  0  0  0  0  0  0  0  0
    7.8825    0.9474    1.2295 H   0  0  0  0  0  0  0  0  0  0  0  0
   11.0235    4.7977    1.6427 N   0  0  0  0  0  0  0  0  0  0  0  0
   12.1484    4.2159    3.3784 N   0  0  0  0  0  0  0  0  0  0  0  0
    9.1386    0.4010    2.7671 N   0  0  0  0  0  0  0  0  0  0  0  0
   11.9030    0.9858    1.0600 I   0  0  0  0  0  0  0  0  0  0  0  0
    8.4096    3.2562    4.2478 I   0  0  0  0  0  0  0  0  0  0  0  0
   10.1529    2.1130    2.6577 Pt  0  0  0  0  0  0  0  0  0  0  0  0
  1 33  2  0  0  0  0
  1 29  1  0  0  0  0
  2  4  2  0  0  0  0
  3  2  1  0  0  0  0
  4 29  1  0  0  0  0
  4  5  1  0  0  0  0
  6  9  1  0  0  0  0
  6  7  1  0  0  0  0
  6 28  1  0  0  0  0
  8  6  1  0  0  0  0
 10 13  1  0  0  0  0
 11 10  1  0  0  0  0
 12 10  1  0  0  0  0
 13 14  1  0  0  0  0
 13 15  2  0  0  0  0
 15 17  1  0  0  0  0
 16 15  1  0  0  0  0
 18 20  1  0  0  0  0
 18 19  1  0  0  0  0
 20 21  1  0  0  0  0
 22 23  1  0  0  0  0
 22 20  2  0  0  0  0
 24 22  1  0  0  0  0
 25 24  1  0  0  0  0
 26 24  2  0  0  0  0
 26 30  1  0  0  0  0
 27 26  1  0  0  0  0
 28  2  1  0  0  0  0
 28  1  1  0  0  0  0
 29 10  1  0  0  0  0
 30 18  1  0  0  0  0
 31 33  1  0  0  0  0
 33 30  1  0  0  0  0
 33 32  1  0  0  0  0
M  END
$$$$
