CSD_code = ABAKAS | q = 0 | S = 0 | Stoichiometry = C11H12I2N4Pt | MND = 4
 OpenBabel04212201593D

 30 31  0  0  0  0  0  0  0  0999 V2000
    0.0480    7.8738    6.9921 C   0  0  0  0  0  0  0  0  0  0  0  0
   -1.9123    8.5152    6.1476 C   0  0  0  0  0  0  0  0  0  0  0  0
   -2.8808    8.3970    5.7075 H   0  0  0  0  0  0  0  0  0  0  0  0
   -1.2210    9.6268    6.4894 C   0  0  0  0  0  0  0  0  0  0  0  0
   -1.4818   10.6614    6.4068 H   0  0  0  0  0  0  0  0  0  0  0  0
   -1.4460    6.0530    6.2937 C   0  0  0  0  0  0  0  0  0  0  0  0
   -2.1815    5.7360    7.0464 H   0  0  0  0  0  0  0  0  0  0  0  0
   -0.5211    5.4666    6.4384 H   0  0  0  0  0  0  0  0  0  0  0  0
   -1.9780    5.7940    4.9738 C   0  0  0  0  0  0  0  0  0  0  0  0
    1.0252   10.0678    7.4943 C   0  0  0  0  0  0  0  0  0  0  0  0
    1.7800    9.4412    7.9829 H   0  0  0  0  0  0  0  0  0  0  0  0
    0.6296   10.7825    8.2160 H   0  0  0  0  0  0  0  0  0  0  0  0
    1.4933   10.6055    6.6676 H   0  0  0  0  0  0  0  0  0  0  0  0
    3.0683    4.2901    8.0627 C   0  0  0  0  0  3  0  0  0  0  0  0
    2.2474    3.8843    7.4789 H   0  0  0  0  0  0  0  0  0  0  0  0
    4.0896    3.4763    8.5148 C   0  0  0  0  0  0  0  0  0  0  0  0
    4.0764    2.4220    8.2897 H   0  0  0  0  0  0  0  0  0  0  0  0
    5.1172    4.0415    9.2541 C   0  0  0  0  0  0  0  0  0  0  0  0
    5.9298    3.4347    9.6222 H   0  0  0  0  0  0  0  0  0  0  0  0
    5.0779    5.4037    9.5099 C   0  0  0  0  0  0  0  0  0  0  0  0
    5.8543    5.8885   10.0797 H   0  0  0  0  0  0  0  0  0  0  0  0
    4.0184    6.1431    9.0199 C   0  0  0  0  0  0  0  0  0  0  0  0
    3.9511    7.2123    9.1996 H   0  0  0  0  0  0  0  0  0  0  0  0
   -1.1137    7.4467    6.4636 N   0  0  0  0  0  0  0  0  0  0  0  0
   -0.0236    9.2125    7.0097 N   0  0  0  0  0  0  0  0  0  0  0  0
   -2.4124    5.6090    3.9347 N   0  0  0  0  0  0  0  0  0  0  0  0
    3.0347    5.5959    8.3117 N   0  0  0  0  0  0  0  0  0  0  0  0
    2.8413    7.1359    5.4053 I   0  0  0  0  0  0  0  0  0  0  0  0
    0.2047    6.2847    9.8627 I   0  0  0  0  0  0  0  0  0  0  0  0
    1.5397    6.7315    7.6457 Pt  0  0  0  0  0  0  0  0  0  0  0  0
  1 25  1  0  0  0  0
  1 30  2  0  0  0  0
  2 24  1  0  0  0  0
  2  4  2  0  0  0  0
  3  2  1  0  0  0  0
  4 25  1  0  0  0  0
  5  4  1  0  0  0  0
  6  8  1  0  0  0  0
  6 24  1  0  0  0  0
  6  7  1  0  0  0  0
  9  6  1  0  0  0  0
 10 11  1  0  0  0  0
 10 12  1  0  0  0  0
 13 10  1  0  0  0  0
 14 27  1  0  0  0  0
 14 16  1  0  0  0  0
 15 14  1  0  0  0  0
 16 18  2  0  0  0  0
 17 16  1  0  0  0  0
 18 20  1  0  0  0  0
 18 19  1  0  0  0  0
 20 21  1  0  0  0  0
 22 23  1  0  0  0  0
 22 20  2  0  0  0  0
 24  1  1  0  0  0  0
 25 10  1  0  0  0  0
 26  9  3  0  0  0  0
 27 22  1  0  0  0  0
 28 30  1  0  0  0  0
 30 27  1  0  0  0  0
 30 29  1  0  0  0  0
M  END
$$$$
