CSD_code = ABAKOG | q = 0 | S = 0 | Stoichiometry = C15H23I2N3O2Pt | MND = 4
 OpenBabel04212201593D

 46 47  0  0  0  0  0  0  0  0999 V2000
    3.4209    1.1678    2.2279 C   0  0  0  0  0  0  0  0  0  0  0  0
    3.2633   -0.7859    3.2766 C   0  0  0  0  0  0  0  0  0  0  0  0
    3.5341   -1.5558    3.9690 H   0  0  0  0  0  0  0  0  0  0  0  0
    2.2460   -0.7134    2.3870 C   0  0  0  0  0  0  0  0  0  0  0  0
    1.4672   -1.4072    2.1494 H   0  0  0  0  0  0  0  0  0  0  0  0
    5.1377    0.7257    3.9340 C   0  0  0  0  0  0  0  0  0  0  0  0
    5.3001    1.8062    3.8546 H   0  0  0  0  0  0  0  0  0  0  0  0
    6.0179    0.2061    3.5483 H   0  0  0  0  0  0  0  0  0  0  0  0
    4.9909    0.4630    4.9812 H   0  0  0  0  0  0  0  0  0  0  0  0
    1.4857    0.9731    0.7181 C   0  0  0  0  0  0  0  0  0  0  0  0
    1.3802    2.0588    0.8076 H   0  0  0  0  0  0  0  0  0  0  0  0
    0.5028    0.5105    0.8147 H   0  0  0  0  0  0  0  0  0  0  0  0
    2.0293    0.6352   -0.6914 C   0  0  0  0  0  0  0  0  0  0  0  0
    3.1286    0.4773   -0.6408 H   0  0  0  0  0  0  0  0  0  0  0  0
    1.1434   -2.3465   -2.6213 C   0  0  0  0  0  0  0  0  0  0  0  0
    1.3307   -3.0648   -1.8279 H   0  0  0  0  0  0  0  0  0  0  0  0
    1.4844   -2.7605   -3.5658 H   0  0  0  0  0  0  0  0  0  0  0  0
    0.0747   -2.1605   -2.6764 H   0  0  0  0  0  0  0  0  0  0  0  0
    1.8771   -1.0489   -2.3350 C   0  0  0  0  0  0  0  0  0  0  0  0
    2.9613   -1.2224   -2.2570 H   0  0  0  0  0  0  0  0  0  0  0  0
    1.6976   -0.3179   -3.1319 H   0  0  0  0  0  0  0  0  0  0  0  0
    2.7590    2.6825   -1.6215 C   0  0  0  0  0  0  0  0  0  0  0  0
    3.6770    2.2782   -2.0729 H   0  0  0  0  0  0  0  0  0  0  0  0
    3.0033    3.0022   -0.5855 H   0  0  0  0  0  0  0  0  0  0  0  0
    2.2390    3.8598   -2.4266 C   0  0  0  0  0  0  0  0  0  0  0  0
    1.9608    3.5252   -3.4221 H   0  0  0  0  0  0  0  0  0  0  0  0
    3.0101    4.6213   -2.5106 H   0  0  0  0  0  0  0  0  0  0  0  0
    1.3588    4.2823   -1.9486 H   0  0  0  0  0  0  0  0  0  0  0  0
    4.2561    5.6492    0.4920 C   0  0  0  0  0  3  0  0  0  0  0  0
    3.3026    5.3425    0.0780 H   0  0  0  0  0  0  0  0  0  0  0  0
    4.7638    6.9079    0.2302 C   0  0  0  0  0  0  0  0  0  0  0  0
    4.2141    7.5853   -0.4034 H   0  0  0  0  0  0  0  0  0  0  0  0
    5.9725    7.2765    0.7997 C   0  0  0  0  0  0  0  0  0  0  0  0
    6.3939    8.2533    0.6191 H   0  0  0  0  0  0  0  0  0  0  0  0
    6.6248    6.3608    1.6106 C   0  0  0  0  0  0  0  0  0  0  0  0
    7.5649    6.5997    2.0816 H   0  0  0  0  0  0  0  0  0  0  0  0
    6.0528    5.1188    1.8095 C   0  0  0  0  0  0  0  0  0  0  0  0
    6.5463    4.3768    2.4291 H   0  0  0  0  0  0  0  0  0  0  0  0
    3.9708    0.3809    3.1679 N   0  0  0  0  0  0  0  0  0  0  0  0
    2.3513    0.4982    1.7590 N   0  0  0  0  0  0  0  0  0  0  0  0
    4.8914    4.7668    1.2603 N   0  0  0  0  0  0  0  0  0  0  0  0
    1.3994   -0.5281   -1.1000 O   0  0  0  0  0  0  0  0  0  0  0  0
    1.7611    1.6796   -1.5906 O   0  0  0  0  0  0  0  0  0  0  0  0
    6.0538    1.7814    0.3351 I   0  0  0  0  0  0  0  0  0  0  0  0
    2.3016    4.1081    3.2017 I   0  0  0  0  0  0  0  0  0  0  0  0
    4.1331    2.9595    1.7058 Pt  0  0  0  0  0  0  0  0  0  0  0  0
  1 39  1  0  0  0  0
  2  3  1  0  0  0  0
  4  2  2  0  0  0  0
  5  4  1  0  0  0  0
  6  9  1  0  0  0  0
  7  6  1  0  0  0  0
  8  6  1  0  0  0  0
 10 11  1  0  0  0  0
 10 12  1  0  0  0  0
 10 40  1  0  0  0  0
 13 14  1  0  0  0  0
 13 10  1  0  0  0  0
 15 19  1  0  0  0  0
 15 16  1  0  0  0  0
 17 15  1  0  0  0  0
 18 15  1  0  0  0  0
 19 20  1  0  0  0  0
 19 42  1  0  0  0  0
 21 19  1  0  0  0  0
 22 43  1  0  0  0  0
 22 24  1  0  0  0  0
 23 22  1  0  0  0  0
 25 28  1  0  0  0  0
 25 22  1  0  0  0  0
 26 25  1  0  0  0  0
 27 25  1  0  0  0  0
 29 41  1  0  0  0  0
 30 29  1  0  0  0  0
 31 29  1  0  0  0  0
 31 33  2  0  0  0  0
 32 31  1  0  0  0  0
 33 35  1  0  0  0  0
 34 33  1  0  0  0  0
 35 37  2  0  0  0  0
 35 36  1  0  0  0  0
 37 38  1  0  0  0  0
 39  2  1  0  0  0  0
 39  6  1  0  0  0  0
 40  1  1  0  0  0  0
 40  4  1  0  0  0  0
 41 46  1  0  0  0  0
 41 37  1  0  0  0  0
 42 13  1  0  0  0  0
 43 13  1  0  0  0  0
 44 46  1  0  0  0  0
 46  1  2  0  0  0  0
 46 45  1  0  0  0  0
M  END
$$$$
