CSD_code = ABANUN | q = 0 | S = 0 | Stoichiometry = C8H11AuI3P | MND = 4
 OpenBabel04212201593D

 24 24  0  0  0  0  0  0  0  0999 V2000
   11.8952    6.8839    2.9561 Au  0  0  0  0  0  0  0  0  0  0  0  0
   12.5819    4.9280    4.5556 I   0  0  0  0  0  0  0  0  0  0  0  0
   12.8363    5.6343    0.8498 I   0  0  0  0  0  0  0  0  0  0  0  0
   10.8432    8.2344    4.9307 I   0  0  0  0  0  0  0  0  0  0  0  0
   11.3977    8.5872    1.4555 P   0  0  0  0  0  4  0  0  0  0  0  0
   10.1903    8.0862    0.1992 C   0  0  0  0  0  0  0  0  0  0  0  0
   10.0208    8.9272   -0.4774 H   0  0  0  0  0  0  0  0  0  0  0  0
    9.2558    7.8426    0.7124 H   0  0  0  0  0  0  0  0  0  0  0  0
   10.5332    7.2139   -0.3571 H   0  0  0  0  0  0  0  0  0  0  0  0
   10.6751   10.1417    2.0620 C   0  0  0  0  0  0  0  0  0  0  0  0
   10.5813   10.8155    1.2066 H   0  0  0  0  0  0  0  0  0  0  0  0
   11.3182   10.5952    2.8167 H   0  0  0  0  0  0  0  0  0  0  0  0
    9.6942    9.9500    2.5000 H   0  0  0  0  0  0  0  0  0  0  0  0
   12.9080    9.1412    0.6446 C   0  0  0  0  0  0  0  0  0  0  0  0
   13.1336    9.0082   -0.7200 C   0  0  0  0  0  0  0  0  0  0  0  0
   12.3829    8.5714   -1.3618 H   0  0  0  0  0  0  0  0  0  0  0  0
   14.3428    9.4243   -1.2471 C   0  0  0  0  0  0  0  0  0  0  0  0
   14.5244    9.3210   -2.3059 H   0  0  0  0  0  0  0  0  0  0  0  0
   15.3213    9.9553   -0.4223 C   0  0  0  0  0  0  0  0  0  0  0  0
   16.2660   10.2668   -0.8408 H   0  0  0  0  0  0  0  0  0  0  0  0
   15.0993   10.0756    0.9409 C   0  0  0  0  0  0  0  0  0  0  0  0
   15.8663   10.4779    1.5852 H   0  0  0  0  0  0  0  0  0  0  0  0
   13.8948    9.6653    1.4777 C   0  0  0  0  0  0  0  0  0  0  0  0
   13.7174    9.7398    2.5452 H   0  0  0  0  0  0  0  0  0  0  0  0
  1  2  1  0  0  0  0
  1  4  1  0  0  0  0
  3  1  1  0  0  0  0
  5 10  1  0  0  0  0
  5  1  1  0  0  0  0
  6  8  1  0  0  0  0
  6  5  1  0  0  0  0
  7  6  1  0  0  0  0
  9  6  1  0  0  0  0
 10 13  1  0  0  0  0
 10 12  1  0  0  0  0
 11 10  1  0  0  0  0
 14  5  1  0  0  0  0
 14 23  1  0  0  0  0
 15 14  2  0  0  0  0
 16 15  1  0  0  0  0
 17 15  1  0  0  0  0
 17 19  2  0  0  0  0
 18 17  1  0  0  0  0
 19 21  1  0  0  0  0
 20 19  1  0  0  0  0
 21 23  2  0  0  0  0
 21 22  1  0  0  0  0
 23 24  1  0  0  0  0
M  END
$$$$
