CSD_code = ABAPOJ | q = 0 | S = 0 | Stoichiometry = C21H21AuIP | MND = 2
 OpenBabel04212201593D

 45 47  0  0  0  0  0  0  0  0999 V2000
    1.6333    2.2699    2.1148 Au  0  0  0  0  0  0  0  0  0  0  0  0
    2.6731    4.0259    0.5667 I   0  0  0  0  0  0  0  0  0  0  0  0
    0.7059    0.7076    3.4812 P   0  0  0  0  0  4  0  0  0  0  0  0
    1.5112   -0.9235    3.4371 C   0  0  0  0  0  0  0  0  0  0  0  0
    1.8067   -1.5107    2.1986 C   0  0  0  0  0  0  0  0  0  0  0  0
    2.4828   -2.7233    2.1849 C   0  0  0  0  0  0  0  0  0  0  0  0
    2.7161   -3.1820    1.2348 H   0  0  0  0  0  0  0  0  0  0  0  0
    2.8610   -3.3494    3.3594 C   0  0  0  0  0  0  0  0  0  0  0  0
    3.3871   -4.2914    3.3220 H   0  0  0  0  0  0  0  0  0  0  0  0
    2.5607   -2.7681    4.5794 C   0  0  0  0  0  0  0  0  0  0  0  0
    2.8457   -3.2531    5.5008 H   0  0  0  0  0  0  0  0  0  0  0  0
    1.8929   -1.5590    4.6169 C   0  0  0  0  0  0  0  0  0  0  0  0
    1.6597   -1.1054    5.5703 H   0  0  0  0  0  0  0  0  0  0  0  0
    1.4102   -0.8606    0.9116 C   0  0  0  0  0  0  0  0  0  0  0  0
    2.1106   -0.0603    0.6604 H   0  0  0  0  0  0  0  0  0  0  0  0
    0.4117   -0.4266    0.9802 H   0  0  0  0  0  0  0  0  0  0  0  0
    1.4201   -1.5807    0.0965 H   0  0  0  0  0  0  0  0  0  0  0  0
   -1.0412    0.3342    3.1360 C   0  0  0  0  0  0  0  0  0  0  0  0
   -1.9461    1.3909    2.9612 C   0  0  0  0  0  0  0  0  0  0  0  0
   -3.2617    1.0892    2.6362 C   0  0  0  0  0  0  0  0  0  0  0  0
   -3.9658    1.8973    2.4993 H   0  0  0  0  0  0  0  0  0  0  0  0
   -3.6830   -0.2200    2.4850 C   0  0  0  0  0  0  0  0  0  0  0  0
   -4.7113   -0.4285    2.2304 H   0  0  0  0  0  0  0  0  0  0  0  0
   -2.7863   -1.2593    2.6648 C   0  0  0  0  0  0  0  0  0  0  0  0
   -3.1086   -2.2840    2.5558 H   0  0  0  0  0  0  0  0  0  0  0  0
   -1.4709   -0.9825    2.9852 C   0  0  0  0  0  0  0  0  0  0  0  0
   -0.7711   -1.7947    3.1256 H   0  0  0  0  0  0  0  0  0  0  0  0
   -1.5215    2.8161    3.1184 C   0  0  0  0  0  0  0  0  0  0  0  0
   -2.3841    3.4617    3.2664 H   0  0  0  0  0  0  0  0  0  0  0  0
   -0.9980    3.1558    2.2212 H   0  0  0  0  0  0  0  0  0  0  0  0
   -0.8478    2.9353    3.9683 H   0  0  0  0  0  0  0  0  0  0  0  0
    0.7069    1.1348    5.2501 C   0  0  0  0  0  0  0  0  0  0  0  0
    1.8822    1.6236    5.8378 C   0  0  0  0  0  0  0  0  0  0  0  0
    1.8473    2.0016    7.1733 C   0  0  0  0  0  0  0  0  0  0  0  0
    2.7485    2.3799    7.6342 H   0  0  0  0  0  0  0  0  0  0  0  0
    0.6858    1.9027    7.9186 C   0  0  0  0  0  0  0  0  0  0  0  0
    0.6843    2.2034    8.9555 H   0  0  0  0  0  0  0  0  0  0  0  0
   -0.4703    1.4143    7.3342 C   0  0  0  0  0  0  0  0  0  0  0  0
   -1.3794    1.3275    7.9101 H   0  0  0  0  0  0  0  0  0  0  0  0
   -0.4598    1.0362    6.0053 C   0  0  0  0  0  0  0  0  0  0  0  0
   -1.3634    0.6555    5.5496 H   0  0  0  0  0  0  0  0  0  0  0  0
    3.1535    1.7409    5.0590 C   0  0  0  0  0  0  0  0  0  0  0  0
    3.2991    0.8761    4.4101 H   0  0  0  0  0  0  0  0  0  0  0  0
    4.0087    1.8221    5.7261 H   0  0  0  0  0  0  0  0  0  0  0  0
    3.1314    2.6353    4.4315 H   0  0  0  0  0  0  0  0  0  0  0  0
  1  3  1  0  0  0  0
  2  1  1  0  0  0  0
  3 32  1  0  0  0  0
  4  3  1  0  0  0  0
  4 12  1  0  0  0  0
  5  4  2  0  0  0  0
  6  5  1  0  0  0  0
  6  8  2  0  0  0  0
  7  6  1  0  0  0  0
  8 10  1  0  0  0  0
  9  8  1  0  0  0  0
 10 12  2  0  0  0  0
 10 11  1  0  0  0  0
 12 13  1  0  0  0  0
 14 16  1  0  0  0  0
 14  5  1  0  0  0  0
 15 14  1  0  0  0  0
 17 14  1  0  0  0  0
 18  3  1  0  0  0  0
 19 28  1  0  0  0  0
 19 18  2  0  0  0  0
 20 19  1  0  0  0  0
 21 20  1  0  0  0  0
 22 20  2  0  0  0  0
 22 24  1  0  0  0  0
 23 22  1  0  0  0  0
 24 26  2  0  0  0  0
 25 24  1  0  0  0  0
 26 27  1  0  0  0  0
 26 18  1  0  0  0  0
 28 29  1  0  0  0  0
 28 31  1  0  0  0  0
 30 28  1  0  0  0  0
 32 33  2  0  0  0  0
 32 40  1  0  0  0  0
 33 34  1  0  0  0  0
 34 35  1  0  0  0  0
 34 36  2  0  0  0  0
 36 37  1  0  0  0  0
 38 39  1  0  0  0  0
 38 36  1  0  0  0  0
 40 38  2  0  0  0  0
 41 40  1  0  0  0  0
 42 44  1  0  0  0  0
 42 33  1  0  0  0  0
 43 42  1  0  0  0  0
 45 42  1  0  0  0  0
M  END
$$$$
