CSD_code = ABAPAV | q = 0 | S = 0 | Stoichiometry = C9H21AuIP | MND = 2
 OpenBabel04212201593D

 33 32  0  0  0  0  0  0  0  0999 V2000
   -2.1139  -10.9927   -4.0408 Au  0  0  0  0  0  0  0  0  0  0  0  0
   -4.2083  -11.3017   -3.2399 P   0  0  0  0  0  4  0  0  0  0  0  0
    0.2329  -10.6502   -5.0075 I   0  0  0  0  0  0  0  0  0  0  0  0
   -4.4908  -10.8535   -1.4490 C   0  0  0  0  0  0  0  0  0  0  0  0
   -4.3344  -11.7950   -0.9043 H   0  0  0  0  0  0  0  0  0  0  0  0
   -3.3996   -9.8762   -1.0120 C   0  0  0  0  0  0  0  0  0  0  0  0
   -3.4814   -9.6705    0.0539 H   0  0  0  0  0  0  0  0  0  0  0  0
   -3.4783   -8.9315   -1.5473 H   0  0  0  0  0  0  0  0  0  0  0  0
   -2.4110  -10.2927   -1.2038 H   0  0  0  0  0  0  0  0  0  0  0  0
   -5.8776  -10.3171   -1.1039 C   0  0  0  0  0  0  0  0  0  0  0  0
   -5.9567  -10.2082   -0.0231 H   0  0  0  0  0  0  0  0  0  0  0  0
   -6.6663  -10.9901   -1.4311 H   0  0  0  0  0  0  0  0  0  0  0  0
   -6.0462   -9.3393   -1.5485 H   0  0  0  0  0  0  0  0  0  0  0  0
   -4.7287  -13.0815   -3.3643 C   0  0  0  0  0  0  0  0  0  0  0  0
   -4.6724  -13.2950   -4.4409 H   0  0  0  0  0  0  0  0  0  0  0  0
   -6.1343  -13.3964   -2.8642 C   0  0  0  0  0  0  0  0  0  0  0  0
   -6.3751  -14.4342   -3.0900 H   0  0  0  0  0  0  0  0  0  0  0  0
   -6.8804  -12.7665   -3.3448 H   0  0  0  0  0  0  0  0  0  0  0  0
   -6.2023  -13.2660   -1.7863 H   0  0  0  0  0  0  0  0  0  0  0  0
   -3.6806  -13.9472   -2.6671 C   0  0  0  0  0  0  0  0  0  0  0  0
   -3.8616  -14.9991   -2.8789 H   0  0  0  0  0  0  0  0  0  0  0  0
   -3.7072  -13.8136   -1.5868 H   0  0  0  0  0  0  0  0  0  0  0  0
   -2.6791  -13.6967   -3.0188 H   0  0  0  0  0  0  0  0  0  0  0  0
   -5.4591  -10.3608   -4.2379 C   0  0  0  0  0  0  0  0  0  0  0  0
   -6.4437  -10.4245   -3.7618 H   0  0  0  0  0  0  0  0  0  0  0  0
   -5.0086   -8.9023   -4.2972 C   0  0  0  0  0  0  0  0  0  0  0  0
   -5.7070   -8.3146   -4.8905 H   0  0  0  0  0  0  0  0  0  0  0  0
   -4.0246   -8.8315   -4.7616 H   0  0  0  0  0  0  0  0  0  0  0  0
   -4.9487   -8.4573   -3.3059 H   0  0  0  0  0  0  0  0  0  0  0  0
   -5.5239  -10.9441   -5.6475 C   0  0  0  0  0  0  0  0  0  0  0  0
   -6.0870  -10.2777   -6.2986 H   0  0  0  0  0  0  0  0  0  0  0  0
   -6.0100  -11.9171   -5.6617 H   0  0  0  0  0  0  0  0  0  0  0  0
   -4.5200  -11.0488   -6.0622 H   0  0  0  0  0  0  0  0  0  0  0  0
  1  2  1  0  0  0  0
  2  4  1  0  0  0  0
  3  1  1  0  0  0  0
  4 10  1  0  0  0  0
  4  6  1  0  0  0  0
  4  5  1  0  0  0  0
  6  7  1  0  0  0  0
  8  6  1  0  0  0  0
  9  6  1  0  0  0  0
 10 11  1  0  0  0  0
 12 10  1  0  0  0  0
 13 10  1  0  0  0  0
 14  2  1  0  0  0  0
 14 16  1  0  0  0  0
 14 20  1  0  0  0  0
 15 14  1  0  0  0  0
 16 19  1  0  0  0  0
 17 16  1  0  0  0  0
 18 16  1  0  0  0  0
 20 22  1  0  0  0  0
 21 20  1  0  0  0  0
 23 20  1  0  0  0  0
 24 25  1  0  0  0  0
 24  2  1  0  0  0  0
 26 24  1  0  0  0  0
 26 29  1  0  0  0  0
 27 26  1  0  0  0  0
 28 26  1  0  0  0  0
 30 24  1  0  0  0  0
 31 30  1  0  0  0  0
 32 30  1  0  0  0  0
 33 30  1  0  0  0  0
M  END
$$$$
