CSD_code = ABAQUQ | q = 1 | S = 0 | Stoichiometry = C30H24AuI2P2(1+) | MND = 4
 OpenBabel04212201593D

 59 64  0  0  0  0  0  0  0  0999 V2000
   -0.3792    2.7356    3.8765 Au  0  0  0  0  0  0  0  0  0  0  0  0
   -1.1225    0.4855    2.7642 I   0  0  0  0  0  0  0  0  0  0  0  0
   -1.5169    2.4856    6.2160 I   0  0  0  0  0  0  0  0  0  0  0  0
    0.5999    4.6720    4.6279 P   0  0  0  0  0  4  0  0  0  0  0  0
    0.5880    3.1493    1.8434 P   0  0  0  0  0  4  0  0  0  0  0  0
    2.0600    2.1822    1.5200 C   0  0  0  0  0  0  0  0  0  0  0  0
    1.0295    5.5791    3.1261 C   0  0  0  0  0  0  0  0  0  0  0  0
   -0.5374    3.1211    0.4437 C   0  0  0  0  0  0  0  0  0  0  0  0
    2.1572    4.3507    5.4752 C   0  0  0  0  0  0  0  0  0  0  0  0
   -0.4087    5.7880    5.6031 C   0  0  0  0  0  0  0  0  0  0  0  0
    1.1125    4.8853    1.9201 C   0  0  0  0  0  0  0  0  0  0  0  0
   -2.7622    3.4969   -0.3704 C   0  0  0  0  0  0  0  0  0  0  0  0
   -3.7947    3.7539   -0.1908 H   0  0  0  0  0  0  0  0  0  0  0  0
    1.9819    0.9575    0.8544 C   0  0  0  0  0  0  0  0  0  0  0  0
    1.0368    0.5992    0.4709 H   0  0  0  0  0  0  0  0  0  0  0  0
    3.2708    2.6254    2.0571 C   0  0  0  0  0  0  0  0  0  0  0  0
    3.3173    3.5669    2.5908 H   0  0  0  0  0  0  0  0  0  0  0  0
   -0.0976    2.8181   -0.8428 C   0  0  0  0  0  0  0  0  0  0  0  0
    0.9358    2.5546   -1.0234 H   0  0  0  0  0  0  0  0  0  0  0  0
    3.1288    0.2012    0.7019 C   0  0  0  0  0  0  0  0  0  0  0  0
    3.0756   -0.7444    0.1852 H   0  0  0  0  0  0  0  0  0  0  0  0
   -2.3318    3.1797   -1.6508 C   0  0  0  0  0  0  0  0  0  0  0  0
   -3.0352    3.1875   -2.4687 H   0  0  0  0  0  0  0  0  0  0  0  0
   -1.0065    2.8477   -1.8852 C   0  0  0  0  0  0  0  0  0  0  0  0
   -0.6774    2.6026   -2.8835 H   0  0  0  0  0  0  0  0  0  0  0  0
    4.4065    1.8561    1.8971 C   0  0  0  0  0  0  0  0  0  0  0  0
    5.3456    2.1973    2.3054 H   0  0  0  0  0  0  0  0  0  0  0  0
    4.3362    0.6476    1.2190 C   0  0  0  0  0  0  0  0  0  0  0  0
    5.2256    0.0486    1.0995 H   0  0  0  0  0  0  0  0  0  0  0  0
   -1.8665    3.4706    0.6797 C   0  0  0  0  0  0  0  0  0  0  0  0
   -2.1948    3.7020    1.6884 H   0  0  0  0  0  0  0  0  0  0  0  0
    1.8505    6.8865    0.8257 C   0  0  0  0  0  0  0  0  0  0  0  0
    2.1703    7.3985   -0.0686 H   0  0  0  0  0  0  0  0  0  0  0  0
    1.3436    6.9351    3.1773 C   0  0  0  0  0  0  0  0  0  0  0  0
    1.2649    7.4671    4.1164 H   0  0  0  0  0  0  0  0  0  0  0  0
    1.7488    7.5825    2.0235 C   0  0  0  0  0  0  0  0  0  0  0  0
    1.9871    8.6343    2.0576 H   0  0  0  0  0  0  0  0  0  0  0  0
    4.5347    3.7958    6.7820 C   0  0  0  0  0  0  0  0  0  0  0  0
    5.4622    3.5794    7.2887 H   0  0  0  0  0  0  0  0  0  0  0  0
    1.5285    5.5422    0.7659 C   0  0  0  0  0  0  0  0  0  0  0  0
    1.5882    4.9995   -0.1679 H   0  0  0  0  0  0  0  0  0  0  0  0
   -0.1156    6.0837    6.9312 C   0  0  0  0  0  0  0  0  0  0  0  0
    0.7686    5.6766    7.4013 H   0  0  0  0  0  0  0  0  0  0  0  0
   -1.5587    6.2888    4.9892 C   0  0  0  0  0  0  0  0  0  0  0  0
   -1.7754    6.0331    3.9573 H   0  0  0  0  0  0  0  0  0  0  0  0
   -0.9760    6.9054    7.6368 C   0  0  0  0  0  0  0  0  0  0  0  0
   -0.7596    7.1425    8.6669 H   0  0  0  0  0  0  0  0  0  0  0  0
    3.3494    4.9124    5.0161 C   0  0  0  0  0  0  0  0  0  0  0  0
    3.3537    5.5743    4.1603 H   0  0  0  0  0  0  0  0  0  0  0  0
    2.1600    3.5071    6.5878 C   0  0  0  0  0  0  0  0  0  0  0  0
    1.2401    3.0690    6.9492 H   0  0  0  0  0  0  0  0  0  0  0  0
   -2.4074    7.1053    5.7083 C   0  0  0  0  0  0  0  0  0  0  0  0
   -3.2997    7.4965    5.2444 H   0  0  0  0  0  0  0  0  0  0  0  0
   -2.1158    7.4103    7.0309 C   0  0  0  0  0  0  0  0  0  0  0  0
   -2.7871    8.0404    7.5933 H   0  0  0  0  0  0  0  0  0  0  0  0
    3.3500    3.2381    7.2378 C   0  0  0  0  0  0  0  0  0  0  0  0
    3.3489    2.5890    8.0996 H   0  0  0  0  0  0  0  0  0  0  0  0
    4.5311    4.6325    5.6766 C   0  0  0  0  0  0  0  0  0  0  0  0
    5.4523    5.0721    5.3251 H   0  0  0  0  0  0  0  0  0  0  0  0
  1  4  1  0  0  0  0
  1  3  1  0  0  0  0
  2  1  1  0  0  0  0
  4  9  1  0  0  0  0
  4 10  1  0  0  0  0
  5 11  1  0  0  0  0
  5  1  1  0  0  0  0
  6  5  1  0  0  0  0
  6 16  1  0  0  0  0
  7 34  1  0  0  0  0
  7  4  1  0  0  0  0
  8 30  1  0  0  0  0
  8  5  1  0  0  0  0
  9 50  1  0  0  0  0
 10 42  1  0  0  0  0
 11  7  2  0  0  0  0
 12 13  1  0  0  0  0
 12 30  2  0  0  0  0
 14  6  2  0  0  0  0
 15 14  1  0  0  0  0
 16 17  1  0  0  0  0
 18  8  2  0  0  0  0
 19 18  1  0  0  0  0
 20 14  1  0  0  0  0
 20 28  2  0  0  0  0
 21 20  1  0  0  0  0
 22 12  1  0  0  0  0
 23 22  1  0  0  0  0
 24 22  2  0  0  0  0
 24 18  1  0  0  0  0
 25 24  1  0  0  0  0
 26 16  2  0  0  0  0
 26 27  1  0  0  0  0
 28 26  1  0  0  0  0
 29 28  1  0  0  0  0
 30 31  1  0  0  0  0
 32 36  1  0  0  0  0
 33 32  1  0  0  0  0
 34 35  1  0  0  0  0
 36 37  1  0  0  0  0
 36 34  2  0  0  0  0
 38 56  1  0  0  0  0
 38 39  1  0  0  0  0
 40 32  2  0  0  0  0
 40 11  1  0  0  0  0
 41 40  1  0  0  0  0
 42 43  1  0  0  0  0
 42 46  2  0  0  0  0
 44 10  2  0  0  0  0
 44 52  1  0  0  0  0
 45 44  1  0  0  0  0
 46 47  1  0  0  0  0
 48  9  2  0  0  0  0
 48 58  1  0  0  0  0
 49 48  1  0  0  0  0
 50 51  1  0  0  0  0
 50 56  2  0  0  0  0
 52 54  2  0  0  0  0
 53 52  1  0  0  0  0
 54 55  1  0  0  0  0
 54 46  1  0  0  0  0
 56 57  1  0  0  0  0
 58 38  2  0  0  0  0
 59 58  1  0  0  0  0
M  END
$$$$
