CSD_code = ABAQIE | q = 0 | S = 0 | Stoichiometry = C14H15AuBr3P | MND = 4
 OpenBabel04212201593D

 34 35  0  0  0  0  0  0  0  0999 V2000
    8.7141    7.0546    1.9223 Au  0  0  0  0  0  0  0  0  0  0  0  0
    8.6621    9.0504    0.5351 Br  0  0  0  0  0  0  0  0  0  0  0  0
    8.9894    5.1439    3.4187 Br  0  0  0  0  0  0  0  0  0  0  0  0
    6.5886    6.2531    1.0221 Br  0  0  0  0  0  0  0  0  0  0  0  0
   10.7283    7.7266    2.8783 P   0  0  2  0  0  4  0  0  0  0  0  0
   12.0569    6.5374    2.5597 C   0  0  0  0  0  0  0  0  0  0  0  0
   12.9803    6.9026    3.0146 H   0  0  0  0  0  0  0  0  0  0  0  0
   11.7864    5.5609    2.9628 H   0  0  0  0  0  0  0  0  0  0  0  0
   12.1900    6.4597    1.4777 H   0  0  0  0  0  0  0  0  0  0  0  0
   10.5011    7.8904    4.6555 C   0  0  0  0  0  0  0  0  0  0  0  0
   11.2766    7.2173    5.5907 C   0  0  0  0  0  0  0  0  0  0  0  0
   12.0693    6.5569    5.2741 H   0  0  0  0  0  0  0  0  0  0  0  0
   11.0137    7.3957    6.9371 C   0  0  0  0  0  0  0  0  0  0  0  0
   11.6126    6.8761    7.6696 H   0  0  0  0  0  0  0  0  0  0  0  0
    9.9837    8.2264    7.3472 C   0  0  0  0  0  0  0  0  0  0  0  0
    9.7815    8.3531    8.3998 H   0  0  0  0  0  0  0  0  0  0  0  0
    9.2025    8.8884    6.4122 C   0  0  0  0  0  0  0  0  0  0  0  0
    8.3926    9.5266    6.7316 H   0  0  0  0  0  0  0  0  0  0  0  0
    9.4576    8.7194    5.0658 C   0  0  0  0  0  0  0  0  0  0  0  0
    8.8483    9.2240    4.3232 H   0  0  0  0  0  0  0  0  0  0  0  0
   11.4206    9.3443    2.3438 C   0  0  0  0  0  0  0  0  0  0  0  0
   10.6614   10.1082    2.5389 H   0  0  0  0  0  0  0  0  0  0  0  0
   11.5813    9.2901    1.2622 H   0  0  0  0  0  0  0  0  0  0  0  0
   12.6911    9.6159    3.0913 C   0  0  0  0  0  0  0  0  0  0  0  0
   13.9217    9.2951    2.5283 C   0  0  0  0  0  0  0  0  0  0  0  0
   13.9617    8.8779    1.5317 H   0  0  0  0  0  0  0  0  0  0  0  0
   15.0945    9.5285    3.2245 C   0  0  0  0  0  0  0  0  0  0  0  0
   16.0434    9.2808    2.7731 H   0  0  0  0  0  0  0  0  0  0  0  0
   15.0500   10.0789    4.4943 C   0  0  0  0  0  0  0  0  0  0  0  0
   15.9643   10.2559    5.0397 H   0  0  0  0  0  0  0  0  0  0  0  0
   13.8292   10.4106    5.0576 C   0  0  0  0  0  0  0  0  0  0  0  0
   13.7884   10.8514    6.0421 H   0  0  0  0  0  0  0  0  0  0  0  0
   12.6563   10.1823    4.3606 C   0  0  0  0  0  0  0  0  0  0  0  0
   11.7083   10.4576    4.7998 H   0  0  0  0  0  0  0  0  0  0  0  0
  1  5  1  0  0  0  0
  1  3  1  0  0  0  0
  2  1  1  0  0  0  0
  4  1  1  0  0  0  0
  5 21  1  6  0  0  0
  5 10  1  0  0  0  0
  6  5  1  0  0  0  0
  6  8  1  0  0  0  0
  6  7  1  0  0  0  0
  9  6  1  0  0  0  0
 10 19  2  0  0  0  0
 10 11  1  0  0  0  0
 11 13  2  0  0  0  0
 12 11  1  0  0  0  0
 13 15  1  0  0  0  0
 13 14  1  0  0  0  0
 15 16  1  0  0  0  0
 17 18  1  0  0  0  0
 17 15  2  0  0  0  0
 19 17  1  0  0  0  0
 20 19  1  0  0  0  0
 21 22  1  0  0  0  0
 21 24  1  0  0  0  0
 23 21  1  0  0  0  0
 24 33  1  0  0  0  0
 25 24  2  0  0  0  0
 25 27  1  0  0  0  0
 26 25  1  0  0  0  0
 27 29  2  0  0  0  0
 28 27  1  0  0  0  0
 29 30  1  0  0  0  0
 29 31  1  0  0  0  0
 31 32  1  0  0  0  0
 33 34  1  0  0  0  0
 33 31  2  0  0  0  0
M  END
$$$$
