CSD_code = ABAXUX | q = 0 | S = 0 | Stoichiometry = C20H24BBrN6Pd | MND = 6
 OpenBabel04212201593D

 53 59  0  0  1  0  0  0  0  0999 V2000
    2.8698    2.1220    1.7201 Pd  0  0  0  0  0  0  0  0  0  0  0  0
    0.6479    1.6503    2.4714 Br  0  0  0  0  0  0  0  0  0  0  0  0
    4.8927    2.4154    1.2696 N   0  0  1  0  0  0  0  0  0  0  0  0
    5.7969    2.1082    2.2056 N   0  0  0  0  0  0  0  0  0  0  0  0
    3.5891    0.1684    2.5874 N   0  0  1  0  0  0  0  0  0  0  0  0
    4.6853    0.2052    3.3525 N   0  0  0  0  0  0  0  0  0  0  0  0
    3.3938    2.9114    3.7689 N   0  0  2  0  0  0  0  0  0  0  0  0
    4.5332    2.4882    4.3239 N   0  0  0  0  0  0  0  0  0  0  0  0
    2.4922    1.2880   -0.1404 C   0  0  0  0  0  0  0  0  0  0  0  0
    1.8746    2.1035   -1.2814 C   0  0  0  0  0  0  0  0  0  0  0  0
    2.0330    1.2123   -2.5311 C   0  0  0  0  0  0  0  0  0  0  0  0
    0.3655    2.3238   -1.0870 C   0  0  0  0  0  0  0  0  0  0  0  0
    2.5678    3.4506   -1.4537 C   0  0  0  0  0  0  0  0  0  0  0  0
    3.0040    3.8802   -2.7013 C   0  0  0  0  0  0  0  0  0  0  0  0
    3.6713    5.0818   -2.8722 C   0  0  0  0  0  0  0  0  0  0  0  0
    3.9267    5.8876   -1.7792 C   0  0  0  0  0  0  0  0  0  0  0  0
    3.4891    5.4871   -0.5324 C   0  0  0  0  0  0  0  0  0  0  0  0
    2.7943    4.2904   -0.3454 C   0  0  0  0  0  0  0  0  0  0  0  0
    2.3088    3.9853    1.0178 C   0  0  0  0  0  0  0  0  0  0  0  0
    5.5444    2.8232    0.1880 C   0  0  0  0  0  3  0  0  0  0  0  0
    6.9148    2.7899    0.4293 C   0  0  0  0  0  0  0  0  0  0  0  0
    7.0268    2.3277    1.7238 C   0  0  0  0  0  0  0  0  0  0  0  0
    3.1152   -1.0685    2.6148 C   0  0  0  0  0  3  0  0  0  0  0  0
    3.9296   -1.8659    3.4180 C   0  0  0  0  0  0  0  0  0  0  0  0
    4.9149   -1.0120    3.8668 C   0  0  0  0  0  0  0  0  0  0  0  0
    2.7764    3.6886    4.6467 C   0  0  0  0  0  3  0  0  0  0  0  0
    3.5396    3.7789    5.8106 C   0  0  0  0  0  0  0  0  0  0  0  0
    4.6477    2.9974    5.5596 C   0  0  0  0  0  0  0  0  0  0  0  0
    5.4600    1.5116    3.5896 B   0  0  2  0  0  0  0  0  0  0  0  0
    3.4813    0.9251   -0.4597 H   0  0  0  0  0  0  0  0  0  0  0  0
    1.8492    0.4183    0.0508 H   0  0  0  0  0  0  0  0  0  0  0  0
    1.6389    0.2208   -2.3181 H   0  0  0  0  0  0  0  0  0  0  0  0
    1.4697    1.6161   -3.3686 H   0  0  0  0  0  0  0  0  0  0  0  0
    3.0776    1.1088   -2.8168 H   0  0  0  0  0  0  0  0  0  0  0  0
    0.1360    2.8166   -0.1495 H   0  0  0  0  0  0  0  0  0  0  0  0
   -0.0255    2.9319   -1.9003 H   0  0  0  0  0  0  0  0  0  0  0  0
   -0.1509    1.3668   -1.0890 H   0  0  0  0  0  0  0  0  0  0  0  0
    2.8304    3.2745   -3.5750 H   0  0  0  0  0  0  0  0  0  0  0  0
    3.9957    5.3783   -3.8586 H   0  0  0  0  0  0  0  0  0  0  0  0
    4.4573    6.8208   -1.8951 H   0  0  0  0  0  0  0  0  0  0  0  0
    3.6740    6.1220    0.3230 H   0  0  0  0  0  0  0  0  0  0  0  0
    1.2165    4.0529    1.0634 H   0  0  0  0  0  0  0  0  0  0  0  0
    2.7285    4.7011    1.7402 H   0  0  0  0  0  0  0  0  0  0  0  0
    5.0299    3.1217   -0.7042 H   0  0  0  0  0  0  0  0  0  0  0  0
    7.7012    3.0620   -0.2431 H   0  0  0  0  0  0  0  0  0  0  0  0
    7.8952    2.1435    2.3225 H   0  0  0  0  0  0  0  0  0  0  0  0
    2.2224   -1.3334    2.0789 H   0  0  0  0  0  0  0  0  0  0  0  0
    3.8118   -2.9065    3.6382 H   0  0  0  0  0  0  0  0  0  0  0  0
    5.7511   -1.1908    4.5117 H   0  0  0  0  0  0  0  0  0  0  0  0
    1.8252    4.1345    4.4195 H   0  0  0  0  0  0  0  0  0  0  0  0
    3.3120    4.3290    6.6998 H   0  0  0  0  0  0  0  0  0  0  0  0
    5.4962    2.7736    6.1736 H   0  0  0  0  0  0  0  0  0  0  0  0
    6.4481    1.3141    4.2076 H   0  0  0  0  0  0  0  0  0  0  0  0
  1  2  1  0  0  0  0
  1  5  1  0  0  0  0
  1  7  1  0  0  0  0
  3 20  1  6  0  0  0
  3  1  1  0  0  0  0
  3  4  1  0  0  0  0
  4 29  1  0  0  0  0
  5 23  1  1  0  0  0
  5  6  1  0  0  0  0
  6 29  1  0  0  0  0
  6 25  1  0  0  0  0
  7  8  1  0  0  0  0
  7 26  1  1  0  0  0
  8 28  1  0  0  0  0
  9 31  1  0  0  0  0
  9  1  1  0  0  0  0
 10 12  1  0  0  0  0
 10  9  1  0  0  0  0
 11 32  1  0  0  0  0
 11 10  1  0  0  0  0
 12 35  1  0  0  0  0
 13 10  1  0  0  0  0
 13 18  1  0  0  0  0
 14 13  2  0  0  0  0
 15 14  1  0  0  0  0
 15 16  2  0  0  0  0
 16 17  1  0  0  0  0
 17 18  2  0  0  0  0
 17 41  1  0  0  0  0
 18 19  1  0  0  0  0
 19 42  1  0  0  0  0
 19  1  1  0  0  0  0
 19 43  1  0  0  0  0
 20 21  1  0  0  0  0
 21 22  2  0  0  0  0
 22  4  1  0  0  0  0
 22 46  1  0  0  0  0
 23 24  1  0  0  0  0
 24 48  1  0  0  0  0
 24 25  2  0  0  0  0
 25 49  1  0  0  0  0
 26 27  1  0  0  0  0
 27 51  1  0  0  0  0
 28 27  2  0  0  0  0
 28 52  1  0  0  0  0
 29 53  1  1  0  0  0
 29  8  1  0  0  0  0
 30  9  1  0  0  0  0
 33 11  1  0  0  0  0
 34 11  1  0  0  0  0
 36 12  1  0  0  0  0
 37 12  1  0  0  0  0
 38 14  1  0  0  0  0
 39 15  1  0  0  0  0
 40 16  1  0  0  0  0
 44 20  1  0  0  0  0
 45 21  1  0  0  0  0
 47 23  1  0  0  0  0
 50 26  1  0  0  0  0
M  END
$$$$
