CSD_code = ABEJEW | q = 0 | S = 0 | Stoichiometry = C43H32F6IP2Rh | MND = 5
 OpenBabel04212201593D

 85 92  0  0  0  0  0  0  0  0999 V2000
   11.4517    2.3731    2.9660 Rh  0  0  0  0  0  0  0  0  0  0  0  0
   11.5911    1.7069    0.4135 I   0  0  0  0  0  0  0  0  0  0  0  0
    9.1907    2.3862    3.0669 P   0  0  0  0  0  4  0  0  0  0  0  0
   13.6559    2.0690    3.3418 P   0  0  1  0  0  4  0  0  0  0  0  0
    8.8442    1.8623    4.8049 C   0  0  0  0  0  0  0  0  0  0  0  0
   11.3546    2.1453    4.9808 C   0  0  0  0  0  0  0  0  0  0  0  0
   10.1339    1.8280    5.5877 C   0  0  0  0  0  0  0  0  0  0  0  0
   10.0900    1.5095    6.9471 C   0  0  0  0  0  0  0  0  0  0  0  0
   11.2666    1.5151    7.6782 C   0  0  0  0  0  0  0  0  0  0  0  0
   12.4849    1.8488    7.1066 C   0  0  0  0  0  0  0  0  0  0  0  0
   12.5251    2.1699    5.7507 C   0  0  0  0  0  0  0  0  0  0  0  0
    8.7875    1.1897    7.6144 C   0  0  0  0  0  0  0  0  0  0  0  0
   13.7261    1.8714    7.9486 C   0  0  0  0  0  0  0  0  0  0  0  0
   10.0372    5.1766    4.6876 C   0  0  0  0  0  0  0  0  0  0  0  0
    9.2549    6.2211    5.1190 C   0  0  0  0  0  0  0  0  0  0  0  0
    9.3566    7.4955    4.5626 C   0  0  0  0  0  0  0  0  0  0  0  0
   10.3168    7.6948    3.5704 C   0  0  0  0  0  0  0  0  0  0  0  0
   11.1165    6.6722    3.1204 C   0  0  0  0  0  0  0  0  0  0  0  0
    8.2686    6.0161    6.2311 C   0  0  0  0  0  0  0  0  0  0  0  0
    8.7267    6.4645    7.4144 F   0  0  0  0  0  0  0  0  0  0  0  0
    7.1054    6.6507    6.0158 F   0  0  0  0  0  0  0  0  0  0  0  0
    7.9510    4.7232    6.4286 F   0  0  0  0  0  0  0  0  0  0  0  0
   10.4221    9.0534    2.9376 C   0  0  0  0  0  0  0  0  0  0  0  0
    9.5414    9.1979    1.9253 F   0  0  0  0  0  0  0  0  0  0  0  0
   11.6319    9.2995    2.4146 F   0  0  0  0  0  0  0  0  0  0  0  0
   10.1671   10.0516    3.7959 F   0  0  0  0  0  0  0  0  0  0  0  0
    8.1868    3.8569    2.7136 C   0  0  0  0  0  0  0  0  0  0  0  0
    6.9984    4.1386    3.3774 C   0  0  0  0  0  0  0  0  0  0  0  0
    6.3139    5.3069    3.0943 C   0  0  0  0  0  0  0  0  0  0  0  0
    6.8029    6.1901    2.1456 C   0  0  0  0  0  0  0  0  0  0  0  0
    7.9651    5.8926    1.4521 C   0  0  0  0  0  0  0  0  0  0  0  0
    8.6542    4.7282    1.7329 C   0  0  0  0  0  0  0  0  0  0  0  0
    8.3741    1.0827    2.0960 C   0  0  0  0  0  0  0  0  0  0  0  0
    7.4643    1.3582    1.0834 C   0  0  0  0  0  0  0  0  0  0  0  0
    6.9423    0.3215    0.3296 C   0  0  0  0  0  0  0  0  0  0  0  0
    7.3326   -0.9844    0.5711 C   0  0  0  0  0  0  0  0  0  0  0  0
    8.2521   -1.2620    1.5710 C   0  0  0  0  0  0  0  0  0  0  0  0
    8.7739   -0.2325    2.3275 C   0  0  0  0  0  0  0  0  0  0  0  0
   14.0046    0.2920    3.4759 C   0  0  0  0  0  0  0  0  0  0  0  0
   12.9276   -0.5854    3.4245 C   0  0  0  0  0  0  0  0  0  0  0  0
   13.1280   -1.9450    3.5683 C   0  0  0  0  0  0  0  0  0  0  0  0
   14.4106   -2.4305    3.7636 C   0  0  0  0  0  0  0  0  0  0  0  0
   15.4883   -1.5594    3.8151 C   0  0  0  0  0  0  0  0  0  0  0  0
   15.2908   -0.1986    3.6729 C   0  0  0  0  0  0  0  0  0  0  0  0
   15.0774    2.7188    2.4377 C   0  0  0  0  0  0  0  0  0  0  0  0
   15.8151    3.8183    2.9102 C   0  0  0  0  0  0  0  0  0  0  0  0
   16.8712    4.2919    2.1471 C   0  0  0  0  0  3  0  0  0  0  0  0
   17.0254    3.6100    1.0412 C   0  0  0  0  0  3  0  0  0  0  0  0
   16.4236    2.6022    0.4997 C   0  0  0  0  0  3  0  0  0  0  0  0
   15.3607    2.0913    1.2058 C   0  0  0  0  0  0  0  0  0  0  0  0
    8.1426    2.5548    5.2774 H   0  0  0  0  0  0  0  0  0  0  0  0
    8.3705    0.8737    4.7902 H   0  0  0  0  0  0  0  0  0  0  0  0
   11.2306    1.2687    8.7296 H   0  0  0  0  0  0  0  0  0  0  0  0
    8.9485    0.9272    8.6567 H   0  0  0  0  0  0  0  0  0  0  0  0
    8.2871    0.3564    7.1214 H   0  0  0  0  0  0  0  0  0  0  0  0
    8.1207    2.0512    7.5760 H   0  0  0  0  0  0  0  0  0  0  0  0
   13.4834    1.6497    8.9846 H   0  0  0  0  0  0  0  0  0  0  0  0
   14.2029    2.8501    7.9094 H   0  0  0  0  0  0  0  0  0  0  0  0
   14.4444    1.1278    7.6014 H   0  0  0  0  0  0  0  0  0  0  0  0
   14.7019    2.1544    5.5547 H   0  0  0  0  0  0  0  0  0  0  0  0
   13.8914    3.6872    5.1272 H   0  0  0  0  0  0  0  0  0  0  0  0
   15.5722    4.2909    3.8495 H   0  0  0  0  0  0  0  0  0  0  0  0
   12.4870    4.6251    2.3498 H   0  0  0  0  0  0  0  0  0  0  0  0
    9.9667    4.2131    5.1651 H   0  0  0  0  0  0  0  0  0  0  0  0
    8.7250    8.3017    4.8961 H   0  0  0  0  0  0  0  0  0  0  0  0
   11.8419    6.8582    2.3426 H   0  0  0  0  0  0  0  0  0  0  0  0
    6.6025    3.4525    4.1125 H   0  0  0  0  0  0  0  0  0  0  0  0
    5.3995    5.5321    3.6223 H   0  0  0  0  0  0  0  0  0  0  0  0
    6.2747    7.1089    1.9417 H   0  0  0  0  0  0  0  0  0  0  0  0
    8.3367    6.5735    0.7017 H   0  0  0  0  0  0  0  0  0  0  0  0
    9.5651    4.4882    1.1990 H   0  0  0  0  0  0  0  0  0  0  0  0
    7.1709    2.3789    0.8837 H   0  0  0  0  0  0  0  0  0  0  0  0
    6.2348    0.5376   -0.4567 H   0  0  0  0  0  0  0  0  0  0  0  0
    6.9293   -1.7881   -0.0260 H   0  0  0  0  0  0  0  0  0  0  0  0
    8.5674   -2.2793    1.7508 H   0  0  0  0  0  0  0  0  0  0  0  0
    9.5053   -0.4430    3.1021 H   0  0  0  0  0  0  0  0  0  0  0  0
   11.9229   -0.1895    3.2573 H   0  0  0  0  0  0  0  0  0  0  0  0
   12.2911   -2.6260    3.5219 H   0  0  0  0  0  0  0  0  0  0  0  0
   14.5728   -3.4925    3.8711 H   0  0  0  0  0  0  0  0  0  0  0  0
   16.4863   -1.9444    3.9638 H   0  0  0  0  0  0  0  0  0  0  0  0
   16.1282    0.4858    3.7027 H   0  0  0  0  0  0  0  0  0  0  0  0
   14.7616    1.2685    0.8431 H   0  0  0  0  0  0  0  0  0  0  0  0
   10.9746    5.3517    3.6347 C   0  0  0  0  0  0  0  0  0  0  0  0
   11.7130    4.3213    3.0666 C   0  0  0  0  0  3  0  0  0  0  0  0
   13.8142    2.5939    5.0932 C   0  0  0  0  0  0  0  0  0  0  0  0
  1 84  1  0  0  0  0
  1  3  1  0  0  0  0
  1  4  1  0  0  0  0
  1  6  1  0  0  0  0
  2  1  1  0  0  0  0
  3  5  1  0  0  0  0
  4 45  1  6  0  0  0
  4 39  1  0  0  0  0
  4 85  1  0  0  0  0
  5 51  1  0  0  0  0
  5  7  1  0  0  0  0
  6  7  2  0  0  0  0
  6 11  1  0  0  0  0
  7  8  1  0  0  0  0
  8 12  1  0  0  0  0
  8  9  2  0  0  0  0
  9 53  1  0  0  0  0
 10  9  1  0  0  0  0
 10 13  1  0  0  0  0
 11 10  2  0  0  0  0
 12 54  1  0  0  0  0
 13 57  1  0  0  0  0
 14 15  1  0  0  0  0
 14 64  1  0  0  0  0
 15 19  1  0  0  0  0
 16 65  1  0  0  0  0
 16 15  2  0  0  0  0
 17 16  1  0  0  0  0
 18 17  2  0  0  0  0
 18 83  1  0  0  0  0
 19 22  1  0  0  0  0
 19 20  1  0  0  0  0
 21 19  1  0  0  0  0
 23 17  1  0  0  0  0
 23 26  1  0  0  0  0
 24 23  1  0  0  0  0
 25 23  1  0  0  0  0
 27  3  1  0  0  0  0
 27 28  1  0  0  0  0
 28 67  1  0  0  0  0
 29 28  2  0  0  0  0
 29 68  1  0  0  0  0
 30 29  1  0  0  0  0
 31 32  1  0  0  0  0
 31 30  2  0  0  0  0
 32 27  2  0  0  0  0
 33 38  1  0  0  0  0
 33  3  1  0  0  0  0
 34 33  2  0  0  0  0
 35 36  2  0  0  0  0
 35 34  1  0  0  0  0
 36 37  1  0  0  0  0
 37 75  1  0  0  0  0
 37 38  2  0  0  0  0
 38 76  1  0  0  0  0
 39 44  1  0  0  0  0
 40 39  2  0  0  0  0
 40 41  1  0  0  0  0
 41 42  2  0  0  0  0
 42 43  1  0  0  0  0
 42 79  1  0  0  0  0
 43 80  1  0  0  0  0
 44 81  1  0  0  0  0
 44 43  2  0  0  0  0
 45 46  1  0  0  0  0
 46 62  1  0  0  0  0
 47 46  2  0  0  0  0
 48 47  1  0  0  0  0
 49 48  2  0  0  0  0
 49 50  1  0  0  0  0
 50 45  2  0  0  0  0
 52  5  1  0  0  0  0
 55 12  1  0  0  0  0
 56 12  1  0  0  0  0
 58 13  1  0  0  0  0
 59 13  1  0  0  0  0
 63 84  1  0  0  0  0
 66 18  1  0  0  0  0
 69 30  1  0  0  0  0
 70 31  1  0  0  0  0
 71 32  1  0  0  0  0
 72 34  1  0  0  0  0
 73 35  1  0  0  0  0
 74 36  1  0  0  0  0
 77 40  1  0  0  0  0
 78 41  1  0  0  0  0
 82 50  1  0  0  0  0
 83 14  2  0  0  0  0
 84 83  1  0  0  0  0
 85 61  1  0  0  0  0
 85 60  1  0  0  0  0
 85 11  1  0  0  0  0
M  END
$$$$
