CSD_code = ABEPAA | q = 1 | S = 0 | Stoichiometry = C20H38ClN2NiP2(1+) | MND = 4
 OpenBabel04212201593D

 64 65  0  0  0  0  0  0  0  0999 V2000
    6.5210   26.1241    4.8111 Ni  0  0  0  0  0  0  0  0  0  0  0  0
    6.3956   24.4648    6.0293 Cl  0  0  0  0  0  0  0  0  0  0  0  0
    7.5263   24.7222    3.4427 P   0  0  0  0  0  4  0  0  0  0  0  0
    5.2011   27.0687    6.3096 P   0  0  0  0  0  4  0  0  0  0  0  0
    7.8161   28.3822    3.5880 N   0  0  0  0  0  0  0  0  0  0  0  0
    5.8276   28.0960    2.7816 N   0  0  0  0  0  0  0  0  0  0  0  0
    4.9062   27.7147    2.6305 H   0  0  0  0  0  0  0  0  0  0  0  0
    6.7137   27.6165    3.6806 C   0  0  0  0  0  0  0  0  0  0  0  0
    7.6418   29.3627    2.6321 C   0  0  0  0  0  0  0  0  0  0  0  0
    6.3533   29.1768    2.1070 C   0  0  0  0  0  0  0  0  0  0  0  0
    5.8503   30.0000    1.1120 C   0  0  0  0  0  0  0  0  0  0  0  0
    4.8608   29.8573    0.7085 H   0  0  0  0  0  0  0  0  0  0  0  0
    6.6771   31.0119    0.6633 C   0  0  0  0  0  0  0  0  0  0  0  0
    6.3260   31.6763   -0.1099 H   0  0  0  0  0  0  0  0  0  0  0  0
    7.9576   31.1989    1.1858 C   0  0  0  0  0  0  0  0  0  0  0  0
    8.5654   32.0035    0.8039 H   0  0  0  0  0  0  0  0  0  0  0  0
    8.4654   30.3823    2.1777 C   0  0  0  0  0  0  0  0  0  0  0  0
    9.4545   30.5329    2.5786 H   0  0  0  0  0  0  0  0  0  0  0  0
    8.9972   28.2161    4.3915 C   0  0  0  0  0  0  0  0  0  0  0  0
    8.8684   27.3226    5.0115 H   0  0  0  0  0  0  0  0  0  0  0  0
    9.1479   29.0827    5.0377 H   0  0  0  0  0  0  0  0  0  0  0  0
    9.8770   28.0953    3.7583 H   0  0  0  0  0  0  0  0  0  0  0  0
    8.8140   23.5625    4.0454 C   0  0  0  0  0  0  0  0  0  0  0  0
    8.3739   22.9814    4.8583 H   0  0  0  0  0  0  0  0  0  0  0  0
    9.0554   22.8810    3.2262 H   0  0  0  0  0  0  0  0  0  0  0  0
   10.0546   24.2944    4.5423 C   0  0  0  0  0  0  0  0  0  0  0  0
   10.5013   24.8990    3.7552 H   0  0  0  0  0  0  0  0  0  0  0  0
   10.7987   23.5811    4.8876 H   0  0  0  0  0  0  0  0  0  0  0  0
    9.7977   24.9439    5.3782 H   0  0  0  0  0  0  0  0  0  0  0  0
    8.2200   25.4022    1.8601 C   0  0  0  0  0  0  0  0  0  0  0  0
    7.3817   25.8774    1.3409 H   0  0  0  0  0  0  0  0  0  0  0  0
    8.9263   26.1945    2.1206 H   0  0  0  0  0  0  0  0  0  0  0  0
    8.8994   24.3992    0.9374 C   0  0  0  0  0  0  0  0  0  0  0  0
    9.8214   24.0223    1.3713 H   0  0  0  0  0  0  0  0  0  0  0  0
    9.1496   24.8865   -0.0030 H   0  0  0  0  0  0  0  0  0  0  0  0
    8.2515   23.5559    0.7119 H   0  0  0  0  0  0  0  0  0  0  0  0
    6.1783   23.6062    2.8754 C   0  0  0  0  0  0  0  0  0  0  0  0
    6.4833   23.0825    1.9676 H   0  0  0  0  0  0  0  0  0  0  0  0
    6.0150   22.8687    3.6645 H   0  0  0  0  0  0  0  0  0  0  0  0
    4.9039   24.4126    2.6444 C   0  0  0  0  0  0  0  0  0  0  0  0
    4.6962   25.0295    3.5319 H   0  0  0  0  0  0  0  0  0  0  0  0
    4.0529   23.7561    2.4807 H   0  0  0  0  0  0  0  0  0  0  0  0
    5.0054   25.0635    1.7773 H   0  0  0  0  0  0  0  0  0  0  0  0
    5.9577   27.0442    7.9870 C   0  0  0  0  0  0  0  0  0  0  0  0
    5.4820   27.8124    8.6012 H   0  0  0  0  0  0  0  0  0  0  0  0
    5.7481   26.0620    8.4178 H   0  0  0  0  0  0  0  0  0  0  0  0
    7.4668   27.2546    7.9173 C   0  0  0  0  0  0  0  0  0  0  0  0
    7.9068   26.5238    7.2336 H   0  0  0  0  0  0  0  0  0  0  0  0
    7.9162   27.1135    8.8972 H   0  0  0  0  0  0  0  0  0  0  0  0
    7.7148   28.2535    7.5663 H   0  0  0  0  0  0  0  0  0  0  0  0
    4.5992   28.8089    6.1133 C   0  0  0  0  0  0  0  0  0  0  0  0
    4.0692   28.8621    5.1575 H   0  0  0  0  0  0  0  0  0  0  0  0
    3.8749   28.9997    6.9077 H   0  0  0  0  0  0  0  0  0  0  0  0
    5.6935   29.8653    6.1652 C   0  0  0  0  0  0  0  0  0  0  0  0
    6.1254   29.9254    7.1607 H   0  0  0  0  0  0  0  0  0  0  0  0
    5.2808   30.8418    5.9203 H   0  0  0  0  0  0  0  0  0  0  0  0
    6.4874   29.6451    5.4556 H   0  0  0  0  0  0  0  0  0  0  0  0
    3.6089   26.1542    6.5007 C   0  0  0  0  0  0  0  0  0  0  0  0
    3.0629   26.2566    5.5570 H   0  0  0  0  0  0  0  0  0  0  0  0
    3.8712   25.0998    6.6198 H   0  0  0  0  0  0  0  0  0  0  0  0
    2.7248   26.5932    7.6625 C   0  0  0  0  0  0  0  0  0  0  0  0
    3.2628   26.5560    8.6058 H   0  0  0  0  0  0  0  0  0  0  0  0
    1.8765   25.9161    7.7351 H   0  0  0  0  0  0  0  0  0  0  0  0
    2.3326   27.5966    7.5202 H   0  0  0  0  0  0  0  0  0  0  0  0
  1  2  1  0  0  0  0
  1  4  1  0  0  0  0
  3 23  1  0  0  0  0
  3  1  1  0  0  0  0
  4 58  1  0  0  0  0
  4 44  1  0  0  0  0
  5  8  1  0  0  0  0
  5 19  1  0  0  0  0
  6  8  1  0  0  0  0
  7  6  1  0  0  0  0
  8  1  2  0  0  0  0
  9  5  1  0  0  0  0
 10  9  2  0  0  0  0
 10  6  1  0  0  0  0
 11 10  1  0  0  0  0
 12 11  1  0  0  0  0
 13 11  2  0  0  0  0
 13 15  1  0  0  0  0
 14 13  1  0  0  0  0
 15 17  2  0  0  0  0
 16 15  1  0  0  0  0
 17 18  1  0  0  0  0
 17  9  1  0  0  0  0
 19 20  1  0  0  0  0
 19 21  1  0  0  0  0
 22 19  1  0  0  0  0
 23 26  1  0  0  0  0
 23 24  1  0  0  0  0
 25 23  1  0  0  0  0
 26 28  1  0  0  0  0
 26 29  1  0  0  0  0
 27 26  1  0  0  0  0
 30 32  1  0  0  0  0
 30  3  1  0  0  0  0
 31 30  1  0  0  0  0
 33 34  1  0  0  0  0
 33 30  1  0  0  0  0
 35 33  1  0  0  0  0
 36 33  1  0  0  0  0
 37  3  1  0  0  0  0
 37 39  1  0  0  0  0
 38 37  1  0  0  0  0
 40 37  1  0  0  0  0
 40 41  1  0  0  0  0
 42 40  1  0  0  0  0
 43 40  1  0  0  0  0
 44 46  1  0  0  0  0
 44 45  1  0  0  0  0
 47 44  1  0  0  0  0
 47 49  1  0  0  0  0
 48 47  1  0  0  0  0
 50 47  1  0  0  0  0
 51 54  1  0  0  0  0
 51  4  1  0  0  0  0
 51 53  1  0  0  0  0
 52 51  1  0  0  0  0
 54 55  1  0  0  0  0
 56 54  1  0  0  0  0
 57 54  1  0  0  0  0
 58 60  1  0  0  0  0
 58 61  1  0  0  0  0
 59 58  1  0  0  0  0
 61 63  1  0  0  0  0
 61 62  1  0  0  0  0
 64 61  1  0  0  0  0
M  END
$$$$
