CSD_code = ABEPEE | q = 1 | S = 0 | Stoichiometry = C20H38ClN2NiP2(1+) | MND = 4
 OpenBabel04212201593D

 64 65  0  0  0  0  0  0  0  0999 V2000
    7.4789   10.7031    5.2233 Ni  0  0  0  0  0  0  0  0  0  0  0  0
    8.2176    9.0517    4.2500 Cl  0  0  0  0  0  0  0  0  0  0  0  0
    9.6079   11.2387    5.3361 P   0  0  0  0  0  4  0  0  0  0  0  0
    5.4597    9.8289    4.9796 P   0  0  0  0  0  4  0  0  0  0  0  0
    6.5696   13.4071    5.5352 N   0  0  0  0  0  0  0  0  0  0  0  0
    6.6577   12.4083    7.4534 N   0  0  0  0  0  0  0  0  0  0  0  0
    6.7998   11.6936    8.1507 H   0  0  0  0  0  0  0  0  0  0  0  0
    6.8729   12.2410    6.1309 C   0  0  0  0  0  0  0  0  0  0  0  0
    6.1576   14.3335    6.4716 C   0  0  0  0  0  0  0  0  0  0  0  0
    6.2142   13.6868    7.7165 C   0  0  0  0  0  0  0  0  0  0  0  0
    5.8629   14.3379    8.8883 C   0  0  0  0  0  0  0  0  0  0  0  0
    5.9058   13.8415    9.8444 H   0  0  0  0  0  0  0  0  0  0  0  0
    5.4551   15.6531    8.7723 C   0  0  0  0  0  0  0  0  0  0  0  0
    5.1730   16.1975    9.6593 H   0  0  0  0  0  0  0  0  0  0  0  0
    5.3985   16.2972    7.5357 C   0  0  0  0  0  0  0  0  0  0  0  0
    5.0740   17.3248    7.4962 H   0  0  0  0  0  0  0  0  0  0  0  0
    5.7469   15.6540    6.3637 C   0  0  0  0  0  0  0  0  0  0  0  0
    5.7009   16.1570    5.4114 H   0  0  0  0  0  0  0  0  0  0  0  0
    6.6635   13.6489    4.1209 C   0  0  0  0  0  0  0  0  0  0  0  0
    7.0125   12.7298    3.6369 H   0  0  0  0  0  0  0  0  0  0  0  0
    7.3684   14.4561    3.9148 H   0  0  0  0  0  0  0  0  0  0  0  0
    5.6899   13.9252    3.7132 H   0  0  0  0  0  0  0  0  0  0  0  0
   10.0210   12.9092    6.0352 C   0  0  0  0  0  0  0  0  0  0  0  0
    9.4714   13.6536    5.4529 H   0  0  0  0  0  0  0  0  0  0  0  0
    9.6086   12.9269    7.0487 H   0  0  0  0  0  0  0  0  0  0  0  0
   11.4975   13.2804    6.0710 C   0  0  0  0  0  0  0  0  0  0  0  0
   12.0907   12.5237    6.5782 H   0  0  0  0  0  0  0  0  0  0  0  0
   11.6209   14.2167    6.6117 H   0  0  0  0  0  0  0  0  0  0  0  0
   11.8956   13.4210    5.0700 H   0  0  0  0  0  0  0  0  0  0  0  0
   10.3767   10.0648    6.5226 C   0  0  0  0  0  0  0  0  0  0  0  0
   10.5023    9.1143    5.9987 H   0  0  0  0  0  0  0  0  0  0  0  0
   11.3609   10.4285    6.8235 H   0  0  0  0  0  0  0  0  0  0  0  0
    9.4624    9.8789    7.7292 C   0  0  0  0  0  0  0  0  0  0  0  0
    9.4345   10.7781    8.3423 H   0  0  0  0  0  0  0  0  0  0  0  0
    9.8000    9.0527    8.3500 H   0  0  0  0  0  0  0  0  0  0  0  0
    8.4443    9.6561    7.3810 H   0  0  0  0  0  0  0  0  0  0  0  0
   10.6661   11.0976    3.8444 C   0  0  0  0  0  0  0  0  0  0  0  0
   11.6894   11.3469    4.1339 H   0  0  0  0  0  0  0  0  0  0  0  0
   10.6421   10.0536    3.5254 H   0  0  0  0  0  0  0  0  0  0  0  0
   10.1723   11.9965    2.7175 C   0  0  0  0  0  0  0  0  0  0  0  0
    9.1555   11.7202    2.4392 H   0  0  0  0  0  0  0  0  0  0  0  0
   10.8041   11.8840    1.8401 H   0  0  0  0  0  0  0  0  0  0  0  0
   10.1807   13.0440    3.0126 H   0  0  0  0  0  0  0  0  0  0  0  0
    4.0473   11.0020    5.2448 C   0  0  0  0  0  0  0  0  0  0  0  0
    4.1394   11.3723    6.2709 H   0  0  0  0  0  0  0  0  0  0  0  0
    4.2098   11.8535    4.5781 H   0  0  0  0  0  0  0  0  0  0  0  0
    2.6452   10.4475    5.0284 C   0  0  0  0  0  0  0  0  0  0  0  0
    2.4959   10.1299    4.0003 H   0  0  0  0  0  0  0  0  0  0  0  0
    1.9152   11.2254    5.2433 H   0  0  0  0  0  0  0  0  0  0  0  0
    2.4415    9.6089    5.6883 H   0  0  0  0  0  0  0  0  0  0  0  0
    5.1427    9.1156    3.3168 C   0  0  0  0  0  0  0  0  0  0  0  0
    5.7909    8.2434    3.2084 H   0  0  0  0  0  0  0  0  0  0  0  0
    4.1038    8.7815    3.2738 H   0  0  0  0  0  0  0  0  0  0  0  0
    5.4488   10.1232    2.2160 C   0  0  0  0  0  0  0  0  0  0  0  0
    4.7839   10.9831    2.2698 H   0  0  0  0  0  0  0  0  0  0  0  0
    5.3343    9.6638    1.2376 H   0  0  0  0  0  0  0  0  0  0  0  0
    6.4799   10.4688    2.3095 H   0  0  0  0  0  0  0  0  0  0  0  0
    5.0236    8.4478    6.1185 C   0  0  0  0  0  0  0  0  0  0  0  0
    4.7941    8.8911    7.0925 H   0  0  0  0  0  0  0  0  0  0  0  0
    4.1138    7.9844    5.7273 H   0  0  0  0  0  0  0  0  0  0  0  0
    6.1176    7.3985    6.2658 C   0  0  0  0  0  0  0  0  0  0  0  0
    6.3408    6.9296    5.3110 H   0  0  0  0  0  0  0  0  0  0  0  0
    5.7998    6.6251    6.9612 H   0  0  0  0  0  0  0  0  0  0  0  0
    7.0351    7.8450    6.6453 H   0  0  0  0  0  0  0  0  0  0  0  0
  1  3  1  0  0  0  0
  1  8  2  0  0  0  0
  2  1  1  0  0  0  0
  3 23  1  0  0  0  0
  3 30  1  0  0  0  0
  4  1  1  0  0  0  0
  4 44  1  0  0  0  0
  4 58  1  0  0  0  0
  5  8  1  0  0  0  0
  5  9  1  0  0  0  0
  6 10  1  0  0  0  0
  6  7  1  0  0  0  0
  8  6  1  0  0  0  0
  9 10  1  0  0  0  0
 10 11  2  0  0  0  0
 11 12  1  0  0  0  0
 13 11  1  0  0  0  0
 13 14  1  0  0  0  0
 15 13  2  0  0  0  0
 16 15  1  0  0  0  0
 17  9  2  0  0  0  0
 17 15  1  0  0  0  0
 18 17  1  0  0  0  0
 19  5  1  0  0  0  0
 20 19  1  0  0  0  0
 21 19  1  0  0  0  0
 22 19  1  0  0  0  0
 23 26  1  0  0  0  0
 23 25  1  0  0  0  0
 24 23  1  0  0  0  0
 26 27  1  0  0  0  0
 26 28  1  0  0  0  0
 29 26  1  0  0  0  0
 30 32  1  0  0  0  0
 30 33  1  0  0  0  0
 31 30  1  0  0  0  0
 33 34  1  0  0  0  0
 33 35  1  0  0  0  0
 36 33  1  0  0  0  0
 37 38  1  0  0  0  0
 37  3  1  0  0  0  0
 39 37  1  0  0  0  0
 40 43  1  0  0  0  0
 40 37  1  0  0  0  0
 41 40  1  0  0  0  0
 42 40  1  0  0  0  0
 44 45  1  0  0  0  0
 46 44  1  0  0  0  0
 47 49  1  0  0  0  0
 47 44  1  0  0  0  0
 47 50  1  0  0  0  0
 48 47  1  0  0  0  0
 51  4  1  0  0  0  0
 52 51  1  0  0  0  0
 53 51  1  0  0  0  0
 54 55  1  0  0  0  0
 54 57  1  0  0  0  0
 54 51  1  0  0  0  0
 56 54  1  0  0  0  0
 58 61  1  0  0  0  0
 58 59  1  0  0  0  0
 60 58  1  0  0  0  0
 61 64  1  0  0  0  0
 61 63  1  0  0  0  0
 62 61  1  0  0  0  0
M  END
$$$$
