CSD_code = ABERIK | q = 0 | S = 0 | Stoichiometry = C25H32Cl3N3Ti | MND = 6
 OpenBabel04212201593D

 64 67  0  0  1  0  0  0  0  0999 V2000
    3.7052   -0.8230    5.5325 C   0  0  2  0  0  3  0  0  0  0  0  0
    4.2273   -2.0377    6.0173 C   0  0  0  0  0  0  0  0  0  0  0  0
    4.4745   -2.1287    7.0640 H   0  0  0  0  0  0  0  0  0  0  0  0
    4.4110   -3.0645    5.1218 C   0  0  0  0  0  0  0  0  0  0  0  0
    4.8085   -4.0117    5.4566 H   0  0  0  0  0  0  0  0  0  0  0  0
    4.0859   -2.8809    3.7798 C   0  0  0  0  0  0  0  0  0  0  0  0
    4.2205   -3.6738    3.0615 H   0  0  0  0  0  0  0  0  0  0  0  0
    3.5836   -1.6557    3.3624 C   0  0  0  0  0  0  0  0  0  0  0  0
    3.2344   -1.4249    1.9401 C   0  0  0  0  0  0  0  0  0  0  0  0
    4.2177   -0.9903    1.0492 C   0  0  0  0  0  0  0  0  0  0  0  0
    3.8701   -0.7755   -0.2765 C   0  0  0  0  0  0  0  0  0  0  0  0
    4.6257   -0.4360   -0.9706 H   0  0  0  0  0  0  0  0  0  0  0  0
    2.5756   -0.9880   -0.7291 C   0  0  0  0  0  0  0  0  0  0  0  0
    1.6190   -1.4344    0.1714 C   0  0  0  0  0  0  0  0  0  0  0  0
    0.6099   -1.6128   -0.1720 H   0  0  0  0  0  0  0  0  0  0  0  0
    1.9293   -1.6601    1.5045 C   0  0  0  0  0  0  0  0  0  0  0  0
    0.8900   -2.1458    2.4671 C   0  0  0  0  0  0  0  0  0  0  0  0
   -0.0491   -2.3403    1.9554 H   0  0  0  0  0  0  0  0  0  0  0  0
    0.7152   -1.4013    3.2452 H   0  0  0  0  0  0  0  0  0  0  0  0
    1.2193   -3.0626    2.9550 H   0  0  0  0  0  0  0  0  0  0  0  0
    2.2258   -0.7685   -2.1697 C   0  0  0  0  0  0  0  0  0  0  0  0
    2.4045   -1.6812   -2.7388 H   0  0  0  0  0  0  0  0  0  0  0  0
    2.8369    0.0206   -2.6016 H   0  0  0  0  0  0  0  0  0  0  0  0
    1.1765   -0.5049   -2.2787 H   0  0  0  0  0  0  0  0  0  0  0  0
    5.6167   -0.7491    1.5275 C   0  0  0  0  0  0  0  0  0  0  0  0
    6.2648   -0.4719    0.7003 H   0  0  0  0  0  0  0  0  0  0  0  0
    6.0192   -1.6417    2.0044 H   0  0  0  0  0  0  0  0  0  0  0  0
    5.6312    0.0547    2.2648 H   0  0  0  0  0  0  0  0  0  0  0  0
    2.1500    1.8785    1.8348 C   0  0  0  0  0  0  0  0  0  0  0  0
    3.1102    1.3783    1.6876 H   0  0  0  0  0  0  0  0  0  0  0  0
    1.9416    2.5049    0.9567 H   0  0  0  0  0  0  0  0  0  0  0  0
    1.3622    1.1251    1.9180 H   0  0  0  0  0  0  0  0  0  0  0  0
    0.9668    3.4747    3.1998 C   0  0  0  0  0  0  0  0  0  0  0  0
    1.0314    4.0893    4.0993 H   0  0  0  0  0  0  0  0  0  0  0  0
    0.1066    2.8090    3.2902 H   0  0  0  0  0  0  0  0  0  0  0  0
    0.8202    4.1266    2.3287 H   0  0  0  0  0  0  0  0  0  0  0  0
    3.6193    0.3934    7.6186 C   0  0  0  0  0  0  0  0  0  0  0  0
    2.6565   -0.1625    8.4697 C   0  0  0  0  0  0  0  0  0  0  0  0
    2.8202   -0.0291    9.8403 C   0  0  0  0  0  0  0  0  0  0  0  0
    2.0759   -0.4542   10.4989 H   0  0  0  0  0  0  0  0  0  0  0  0
    3.9066    0.6422   10.3809 C   0  0  0  0  0  0  0  0  0  0  0  0
    4.8465    1.1914    9.5181 C   0  0  0  0  0  0  0  0  0  0  0  0
    5.6946    1.7216    9.9278 H   0  0  0  0  0  0  0  0  0  0  0  0
    4.7224    1.0790    8.1435 C   0  0  0  0  0  0  0  0  0  0  0  0
    5.7310    1.6872    7.2176 C   0  0  0  0  0  0  0  0  0  0  0  0
    6.5991    2.0394    7.7692 H   0  0  0  0  0  0  0  0  0  0  0  0
    5.2859    2.5370    6.6912 H   0  0  0  0  0  0  0  0  0  0  0  0
    6.0567    0.9639    6.4671 H   0  0  0  0  0  0  0  0  0  0  0  0
    4.0781    0.7728   11.8643 C   0  0  0  0  0  0  0  0  0  0  0  0
    4.9206    0.1686   12.2008 H   0  0  0  0  0  0  0  0  0  0  0  0
    3.1862    0.4423   12.3901 H   0  0  0  0  0  0  0  0  0  0  0  0
    4.2818    1.8073   12.1346 H   0  0  0  0  0  0  0  0  0  0  0  0
    1.4616   -0.8630    7.8964 C   0  0  0  0  0  0  0  0  0  0  0  0
    0.7704   -1.1499    8.6847 H   0  0  0  0  0  0  0  0  0  0  0  0
    1.7576   -1.7600    7.3494 H   0  0  0  0  0  0  0  0  0  0  0  0
    0.9429   -0.2044    7.1960 H   0  0  0  0  0  0  0  0  0  0  0  0
    3.3958   -0.6520    4.2201 N   0  0  0  0  0  0  0  0  0  0  0  0
    3.4633    0.3008    6.2217 N   0  0  0  0  0  0  0  0  0  0  0  0
    2.1871    2.6747    3.0633 N   0  0  0  0  0  4  0  0  0  0  0  0
    2.5941    3.1255    6.0336 Cl  0  0  0  0  0  0  0  0  0  0  0  0
    0.7548    0.6570    4.7162 Cl  0  0  0  0  0  0  0  0  0  0  0  0
    4.8855    1.9010    3.8793 Cl  0  0  0  0  0  0  0  0  0  0  0  0
    2.8738    1.3614    4.7603 Ti  0  0  0  0  0  0  0  0  0  0  0  0
    2.9727    3.3315    2.9856 H   0  0  0  0  0  0  0  0  0  0  0  0
  1  2  1  6  0  0  0
  1 58  1  0  0  0  0
  2  3  1  0  0  0  0
  4  5  1  0  0  0  0
  4  2  2  0  0  0  0
  6  4  1  0  0  0  0
  7  6  1  0  0  0  0
  8  6  2  0  0  0  0
  8 57  1  0  0  0  0
  9  8  1  0  0  0  0
 10 25  1  0  0  0  0
 10  9  2  0  0  0  0
 11 10  1  0  0  0  0
 12 11  1  0  0  0  0
 13 11  2  0  0  0  0
 13 14  1  0  0  0  0
 14 16  2  0  0  0  0
 15 14  1  0  0  0  0
 16  9  1  0  0  0  0
 16 17  1  0  0  0  0
 17 20  1  0  0  0  0
 17 19  1  0  0  0  0
 18 17  1  0  0  0  0
 21 13  1  0  0  0  0
 22 21  1  0  0  0  0
 23 21  1  0  0  0  0
 24 21  1  0  0  0  0
 25 27  1  0  0  0  0
 25 28  1  0  0  0  0
 26 25  1  0  0  0  0
 29 32  1  0  0  0  0
 29 59  1  0  0  0  0
 30 29  1  0  0  0  0
 31 29  1  0  0  0  0
 33 35  1  0  0  0  0
 33 34  1  0  0  0  0
 36 33  1  0  0  0  0
 37 44  2  0  0  0  0
 37 38  1  0  0  0  0
 38 39  2  0  0  0  0
 39 41  1  0  0  0  0
 39 40  1  0  0  0  0
 41 49  1  0  0  0  0
 42 43  1  0  0  0  0
 42 41  2  0  0  0  0
 44 42  1  0  0  0  0
 45 46  1  0  0  0  0
 45 44  1  0  0  0  0
 47 45  1  0  0  0  0
 48 45  1  0  0  0  0
 49 52  1  0  0  0  0
 49 50  1  0  0  0  0
 49 51  1  0  0  0  0
 53 38  1  0  0  0  0
 53 54  1  0  0  0  0
 55 53  1  0  0  0  0
 56 53  1  0  0  0  0
 57 63  1  0  0  0  0
 57  1  1  0  0  0  0
 58 37  1  0  0  0  0
 59 33  1  0  0  0  0
 59 63  1  0  0  0  0
 61 63  1  0  0  0  0
 62 63  1  0  0  0  0
 63 60  1  0  0  0  0
 63 58  1  0  0  0  0
 64 59  1  0  0  0  0
M  END
$$$$
