CSD_code = ABEXUA | q = 0 | S = 0 | Stoichiometry = C22H32Cl2OSiZr | MND = 12
 OpenBabel04212201593D

 59 61  0  0  1  0  0  0  0  0999 V2000
    6.8619  -12.7451   -1.7328 Zr  0  0  0  0  0  0  0  0  0  0  0  0
    8.5683  -13.2003   -3.2543 Cl  0  0  0  0  0  0  0  0  0  0  0  0
    8.3559  -11.3877   -0.5256 Cl  0  0  0  0  0  0  0  0  0  0  0  0
    6.7945  -16.2367   -2.8665 Si  0  0  0  0  0  0  0  0  0  0  0  0
    5.8265  -17.5435   -2.7431 O   0  0  0  0  0  0  0  0  0  0  0  0
    7.0653  -13.8977    0.5491 C   0  0  0  0  0  0  0  0  0  0  0  0
    7.6475  -14.6898   -0.4596 C   0  0  0  0  0  3  0  0  0  0  0  0
    6.6267  -15.0951   -1.3689 C   0  0  1  0  0  0  0  0  0  0  0  0
    5.4121  -14.5158   -0.8993 C   0  0  0  0  0  3  0  0  0  0  0  0
    5.6877  -13.7728    0.2708 C   0  0  0  0  0  0  0  0  0  0  0  0
    5.5710  -10.6135   -1.6821 C   0  0  0  0  0  0  0  0  0  0  0  0
    4.6134  -11.6407   -1.8131 C   0  0  0  0  0  3  0  0  0  0  0  0
    4.8097  -12.2671   -3.0676 C   0  0  0  0  0  0  0  0  0  0  0  0
    5.8808  -11.6093   -3.7183 C   0  0  0  0  0  0  0  0  0  0  0  0
    6.3545  -10.5932   -2.8599 C   0  0  0  0  0  0  0  0  0  0  0  0
    8.6234  -16.7199   -3.0939 C   0  0  0  0  0  0  0  0  0  0  0  0
    6.0286  -15.3245   -4.3553 C   0  0  0  0  0  0  0  0  0  0  0  0
    6.0678  -18.7930   -2.1579 C   0  0  2  0  0  0  0  0  0  0  0  0
    5.5465  -19.9442   -3.0443 C   0  0  2  0  0  0  0  0  0  0  0  0
    4.0527  -19.6884   -3.3053 C   0  0  0  0  0  0  0  0  0  0  0  0
    3.3814  -20.0809   -1.9761 C   0  0  0  0  0  0  0  0  0  0  0  0
    4.5793  -20.3381   -1.0562 C   0  0  2  0  0  0  0  0  0  0  0  0
    5.3506  -19.0225   -0.7908 C   0  0  0  0  0  0  0  0  0  0  0  0
    5.5045  -21.0817   -2.0208 C   0  0  0  0  0  0  0  0  0  0  0  0
    6.3754  -20.1584   -4.2948 C   0  0  0  0  0  0  0  0  0  0  0  0
    6.3770  -19.2166    0.3281 C   0  0  0  0  0  0  0  0  0  0  0  0
    4.4485  -17.8553   -0.3960 C   0  0  0  0  0  0  0  0  0  0  0  0
    7.5719  -13.5090    1.4237 H   0  0  0  0  0  0  0  0  0  0  0  0
    8.6827  -15.0135   -0.4904 H   0  0  0  0  0  0  0  0  0  0  0  0
    4.4264  -14.7386   -1.2909 H   0  0  0  0  0  0  0  0  0  0  0  0
    4.9573  -13.3059    0.9211 H   0  0  0  0  0  0  0  0  0  0  0  0
    5.6353   -9.9000   -0.8691 H   0  0  0  0  0  0  0  0  0  0  0  0
    3.7849  -11.8218   -1.1394 H   0  0  0  0  0  0  0  0  0  0  0  0
    4.1466  -12.9931   -3.5208 H   0  0  0  0  0  0  0  0  0  0  0  0
    6.2042  -11.7709   -4.7405 H   0  0  0  0  0  0  0  0  0  0  0  0
    7.1270   -9.8699   -3.0958 H   0  0  0  0  0  0  0  0  0  0  0  0
    8.7333  -17.4195   -3.9174 H   0  0  0  0  0  0  0  0  0  0  0  0
    9.0257  -17.1978   -2.2044 H   0  0  0  0  0  0  0  0  0  0  0  0
    9.2381  -15.8529   -3.3107 H   0  0  0  0  0  0  0  0  0  0  0  0
    6.2400  -15.8384   -5.2871 H   0  0  0  0  0  0  0  0  0  0  0  0
    6.4407  -14.3196   -4.4303 H   0  0  0  0  0  0  0  0  0  0  0  0
    4.9479  -15.2585   -4.2659 H   0  0  0  0  0  0  0  0  0  0  0  0
    7.1478  -18.9142   -2.0252 H   0  0  0  0  0  0  0  0  0  0  0  0
    3.6964  -20.3033   -4.1316 H   0  0  0  0  0  0  0  0  0  0  0  0
    3.8913  -18.6433   -3.5619 H   0  0  0  0  0  0  0  0  0  0  0  0
    2.8080  -21.0026   -2.0883 H   0  0  0  0  0  0  0  0  0  0  0  0
    2.7067  -19.3185   -1.5970 H   0  0  0  0  0  0  0  0  0  0  0  0
    4.3180  -20.8650   -0.1391 H   0  0  0  0  0  0  0  0  0  0  0  0
    6.4832  -21.3179   -1.6094 H   0  0  0  0  0  0  0  0  0  0  0  0
    5.0552  -21.9892   -2.4199 H   0  0  0  0  0  0  0  0  0  0  0  0
    6.3565  -19.2594   -4.9066 H   0  0  0  0  0  0  0  0  0  0  0  0
    5.9810  -20.9881   -4.8773 H   0  0  0  0  0  0  0  0  0  0  0  0
    7.4084  -20.3790   -4.0336 H   0  0  0  0  0  0  0  0  0  0  0  0
    5.8689  -19.3610    1.2793 H   0  0  0  0  0  0  0  0  0  0  0  0
    7.0105  -18.3356    0.4088 H   0  0  0  0  0  0  0  0  0  0  0  0
    7.0107  -20.0807    0.1460 H   0  0  0  0  0  0  0  0  0  0  0  0
    3.8748  -17.4960   -1.2432 H   0  0  0  0  0  0  0  0  0  0  0  0
    5.0547  -17.0311   -0.0289 H   0  0  0  0  0  0  0  0  0  0  0  0
    3.7684  -18.1643    0.3949 H   0  0  0  0  0  0  0  0  0  0  0  0
  1  3  1  0  0  0  0
  2  1  1  0  0  0  0
  4  5  1  0  0  0  0
  4  8  1  0  0  0  0
  5 18  1  0  0  0  0
  6 28  1  0  0  0  0
  7  6  1  0  0  0  0
  8  1  1  6  0  0  0
  8  9  1  0  0  0  0
  8  7  1  0  0  0  0
  9 10  1  0  0  0  0
 10  6  2  0  0  0  0
 10 31  1  0  0  0  0
 11 32  1  0  0  0  0
 12 11  1  0  0  0  0
 12 33  1  0  0  0  0
 13 12  1  0  0  0  0
 14 13  2  0  0  0  0
 14 15  1  0  0  0  0
 15 11  2  0  0  0  0
 16  4  1  0  0  0  0
 16 38  1  0  0  0  0
 17 42  1  0  0  0  0
 17  4  1  0  0  0  0
 18 43  1  1  0  0  0
 18 23  1  0  0  0  0
 19 25  1  6  0  0  0
 19 18  1  0  0  0  0
 19 24  1  0  0  0  0
 20 19  1  0  0  0  0
 20 21  1  0  0  0  0
 21 47  1  0  0  0  0
 21 22  1  0  0  0  0
 22 23  1  0  0  0  0
 22 48  1  1  0  0  0
 23 27  1  0  0  0  0
 23 26  1  0  0  0  0
 24 49  1  0  0  0  0
 24 22  1  0  0  0  0
 25 53  1  0  0  0  0
 26 55  1  0  0  0  0
 26 54  1  0  0  0  0
 27 58  1  0  0  0  0
 27 59  1  0  0  0  0
 29  7  1  0  0  0  0
 30  9  1  0  0  0  0
 34 13  1  0  0  0  0
 35 14  1  0  0  0  0
 36 15  1  0  0  0  0
 37 16  1  0  0  0  0
 39 16  1  0  0  0  0
 40 17  1  0  0  0  0
 41 17  1  0  0  0  0
 44 20  1  0  0  0  0
 45 20  1  0  0  0  0
 46 21  1  0  0  0  0
 50 24  1  0  0  0  0
 51 25  1  0  0  0  0
 52 25  1  0  0  0  0
 56 26  1  0  0  0  0
 57 27  1  0  0  0  0
M  END
$$$$
