CSD_code = ABICIX | q = 0 | S = 0 | Stoichiometry = C24H52Cl3NOsP2 | MND = 6
 OpenBabel04212201593D

 83 83  0  0  0  0  0  0  0  0999 V2000
   19.1004    5.7028    3.5653 Os  0  0  0  0  0  0  0  0  0  0  0  0
   20.0400    5.4409    2.0712 N   0  0  0  0  0  2  0  0  0  0  0  0
   20.7129    5.4948    1.0239 C   0  0  0  0  0  3  0  0  0  0  0  0
   20.5257    6.5895   -0.0064 C   0  0  0  0  0  0  0  0  0  0  0  0
   21.8692    7.1914   -0.4099 C   0  0  0  0  0  0  0  0  0  0  0  0
   22.8199    6.1035   -0.8970 C   0  0  0  0  0  0  0  0  0  0  0  0
   23.0490    5.0772    0.2071 C   0  0  0  0  0  0  0  0  0  0  0  0
   21.7314    4.4406    0.6472 C   0  0  0  0  0  0  0  0  0  0  0  0
   20.9055    7.0499    4.5914 P   0  0  0  0  0  4  0  0  0  0  0  0
   20.7967    8.9000    4.3390 C   0  0  0  0  0  0  0  0  0  0  0  0
   20.9007    9.2774    2.8634 C   0  0  0  0  0  0  0  0  0  0  0  0
   19.5167    9.4883    4.9273 C   0  0  0  0  0  0  0  0  0  0  0  0
   21.0557    6.9712    6.4616 C   0  0  0  0  0  0  0  0  0  0  0  0
   22.3081    7.6304    7.0363 C   0  0  0  0  0  0  0  0  0  0  0  0
   20.9170    5.5675    7.0446 C   0  0  0  0  0  0  0  0  0  0  0  0
   22.5660    6.6365    3.8186 C   0  0  0  0  0  0  0  0  0  0  0  0
   22.9840    5.2116    4.1748 C   0  0  0  0  0  0  0  0  0  0  0  0
   23.7399    7.5910    4.0341 C   0  0  0  0  0  0  0  0  0  0  0  0
   17.1767    4.2946    2.8235 P   0  0  0  0  0  4  0  0  0  0  0  0
   17.6739    2.5261    2.4332 C   0  0  0  0  0  0  0  0  0  0  0  0
   18.9423    2.4503    1.5889 C   0  0  0  0  0  0  0  0  0  0  0  0
   16.5966    1.6363    1.8201 C   0  0  0  0  0  0  0  0  0  0  0  0
   16.2354    5.0108    1.3697 C   0  0  0  0  0  0  0  0  0  0  0  0
   17.1296    5.0699    0.1348 C   0  0  0  0  0  0  0  0  0  0  0  0
   14.8827    4.4023    1.0059 C   0  0  0  0  0  0  0  0  0  0  0  0
   15.8037    4.0029    4.0604 C   0  0  0  0  0  0  0  0  0  0  0  0
   16.3131    3.3624    5.3496 C   0  0  0  0  0  0  0  0  0  0  0  0
   15.0250    5.2793    4.3775 C   0  0  0  0  0  0  0  0  0  0  0  0
   18.0061    6.3646    5.4546 Cl  0  0  0  0  0  0  0  0  0  0  0  0
   18.0113    7.5369    2.4852 Cl  0  0  0  0  0  0  0  0  0  0  0  0
   19.8166    3.7359    4.6142 Cl  0  0  0  0  0  0  0  0  0  0  0  0
   19.8576    7.3519    0.3956 H   0  0  0  0  0  0  0  0  0  0  0  0
   20.0546    6.1445   -0.8878 H   0  0  0  0  0  0  0  0  0  0  0  0
   21.7060    7.9312   -1.1957 H   0  0  0  0  0  0  0  0  0  0  0  0
   22.3127    7.7073    0.4439 H   0  0  0  0  0  0  0  0  0  0  0  0
   23.7727    6.5468   -1.1930 H   0  0  0  0  0  0  0  0  0  0  0  0
   22.3932    5.6103   -1.7735 H   0  0  0  0  0  0  0  0  0  0  0  0
   23.7230    4.2921   -0.1418 H   0  0  0  0  0  0  0  0  0  0  0  0
   23.5223    5.5659    1.0608 H   0  0  0  0  0  0  0  0  0  0  0  0
   21.3186    3.8565   -0.1803 H   0  0  0  0  0  0  0  0  0  0  0  0
   21.8951    3.7725    1.4931 H   0  0  0  0  0  0  0  0  0  0  0  0
   21.6536    9.3254    4.8771 H   0  0  0  0  0  0  0  0  0  0  0  0
   21.8183    8.9135    2.4091 H   0  0  0  0  0  0  0  0  0  0  0  0
   20.8811   10.3619    2.7642 H   0  0  0  0  0  0  0  0  0  0  0  0
   20.0523    8.8747    2.3174 H   0  0  0  0  0  0  0  0  0  0  0  0
   19.4434    9.3235    5.9995 H   0  0  0  0  0  0  0  0  0  0  0  0
   18.6428    9.0555    4.4473 H   0  0  0  0  0  0  0  0  0  0  0  0
   19.4980   10.5629    4.7510 H   0  0  0  0  0  0  0  0  0  0  0  0
   20.1803    7.5434    6.7929 H   0  0  0  0  0  0  0  0  0  0  0  0
   22.5154    8.6025    6.5973 H   0  0  0  0  0  0  0  0  0  0  0  0
   23.1755    6.9879    6.9071 H   0  0  0  0  0  0  0  0  0  0  0  0
   22.1653    7.7759    8.1067 H   0  0  0  0  0  0  0  0  0  0  0  0
   19.9559    5.1319    6.7896 H   0  0  0  0  0  0  0  0  0  0  0  0
   20.9768    5.6254    8.1310 H   0  0  0  0  0  0  0  0  0  0  0  0
   21.6977    4.8993    6.6931 H   0  0  0  0  0  0  0  0  0  0  0  0
   22.3135    6.6526    2.7494 H   0  0  0  0  0  0  0  0  0  0  0  0
   22.1414    4.5271    4.0950 H   0  0  0  0  0  0  0  0  0  0  0  0
   23.3716    5.1656    5.1897 H   0  0  0  0  0  0  0  0  0  0  0  0
   23.7713    4.8701    3.5034 H   0  0  0  0  0  0  0  0  0  0  0  0
   23.4819    8.6264    3.8332 H   0  0  0  0  0  0  0  0  0  0  0  0
   24.5429    7.3113    3.3513 H   0  0  0  0  0  0  0  0  0  0  0  0
   24.1324    7.5225    5.0431 H   0  0  0  0  0  0  0  0  0  0  0  0
   17.9295    2.1294    3.4229 H   0  0  0  0  0  0  0  0  0  0  0  0
   19.7380    3.0207    2.0601 H   0  0  0  0  0  0  0  0  0  0  0  0
   18.7817    2.8332    0.5850 H   0  0  0  0  0  0  0  0  0  0  0  0
   19.2665    1.4133    1.5128 H   0  0  0  0  0  0  0  0  0  0  0  0
   16.4532    1.8695    0.7680 H   0  0  0  0  0  0  0  0  0  0  0  0
   15.6431    1.7164    2.3346 H   0  0  0  0  0  0  0  0  0  0  0  0
   16.9205    0.5979    1.8848 H   0  0  0  0  0  0  0  0  0  0  0  0
   16.0658    6.0454    1.6952 H   0  0  0  0  0  0  0  0  0  0  0  0
   18.1177    5.4289    0.4104 H   0  0  0  0  0  0  0  0  0  0  0  0
   16.7074    5.7571   -0.5964 H   0  0  0  0  0  0  0  0  0  0  0  0
   17.2193    4.0915   -0.3323 H   0  0  0  0  0  0  0  0  0  0  0  0
   14.2100    4.3320    1.8548 H   0  0  0  0  0  0  0  0  0  0  0  0
   14.9889    3.4162    0.5651 H   0  0  0  0  0  0  0  0  0  0  0  0
   14.4103    5.0458    0.2639 H   0  0  0  0  0  0  0  0  0  0  0  0
   15.1255    3.2928    3.5686 H   0  0  0  0  0  0  0  0  0  0  0  0
   16.7630    2.3886    5.1712 H   0  0  0  0  0  0  0  0  0  0  0  0
   15.4821    3.2288    6.0408 H   0  0  0  0  0  0  0  0  0  0  0  0
   17.0496    4.0002    5.8319 H   0  0  0  0  0  0  0  0  0  0  0  0
   14.6440    5.7643    3.4826 H   0  0  0  0  0  0  0  0  0  0  0  0
   15.6537    5.9895    4.9058 H   0  0  0  0  0  0  0  0  0  0  0  0
   14.1792    5.0359    5.0198 H   0  0  0  0  0  0  0  0  0  0  0  0
  1  9  1  0  0  0  0
  1 31  1  0  0  0  0
  1 29  1  0  0  0  0
  2  1  1  0  0  0  0
  3  2  1  0  0  0  0
  4 32  1  0  0  0  0
  4  3  1  0  0  0  0
  5  4  1  0  0  0  0
  5 35  1  0  0  0  0
  6  5  1  0  0  0  0
  6  7  1  0  0  0  0
  7  8  1  0  0  0  0
  7 39  1  0  0  0  0
  8  3  1  0  0  0  0
  8 41  1  0  0  0  0
  9 13  1  0  0  0  0
 10  9  1  0  0  0  0
 10 42  1  0  0  0  0
 10 12  1  0  0  0  0
 11 10  1  0  0  0  0
 12 46  1  0  0  0  0
 13 49  1  0  0  0  0
 13 14  1  0  0  0  0
 13 15  1  0  0  0  0
 14 52  1  0  0  0  0
 15 54  1  0  0  0  0
 16 18  1  0  0  0  0
 16 17  1  0  0  0  0
 16  9  1  0  0  0  0
 17 58  1  0  0  0  0
 18 62  1  0  0  0  0
 19  1  1  0  0  0  0
 19 26  1  0  0  0  0
 20 19  1  0  0  0  0
 20 63  1  0  0  0  0
 21 64  1  0  0  0  0
 21 20  1  0  0  0  0
 22 69  1  0  0  0  0
 22 68  1  0  0  0  0
 22 20  1  0  0  0  0
 23 70  1  0  0  0  0
 23 19  1  0  0  0  0
 24 71  1  0  0  0  0
 24 23  1  0  0  0  0
 25 23  1  0  0  0  0
 25 74  1  0  0  0  0
 26 28  1  0  0  0  0
 26 27  1  0  0  0  0
 27 80  1  0  0  0  0
 27 79  1  0  0  0  0
 28 82  1  0  0  0  0
 28 83  1  0  0  0  0
 30  1  1  0  0  0  0
 33  4  1  0  0  0  0
 34  5  1  0  0  0  0
 36  6  1  0  0  0  0
 37  6  1  0  0  0  0
 38  7  1  0  0  0  0
 40  8  1  0  0  0  0
 43 11  1  0  0  0  0
 44 11  1  0  0  0  0
 45 11  1  0  0  0  0
 47 12  1  0  0  0  0
 48 12  1  0  0  0  0
 50 14  1  0  0  0  0
 51 14  1  0  0  0  0
 53 15  1  0  0  0  0
 55 15  1  0  0  0  0
 56 16  1  0  0  0  0
 57 17  1  0  0  0  0
 59 17  1  0  0  0  0
 60 18  1  0  0  0  0
 61 18  1  0  0  0  0
 65 21  1  0  0  0  0
 66 21  1  0  0  0  0
 67 22  1  0  0  0  0
 72 24  1  0  0  0  0
 73 24  1  0  0  0  0
 75 25  1  0  0  0  0
 76 25  1  0  0  0  0
 77 26  1  0  0  0  0
 78 27  1  0  0  0  0
 81 28  1  0  0  0  0
M  END
$$$$
