CSD_code = ABIKUS | q = 0 | S = 0 | Stoichiometry = C6H14Cl2MoO2S2 | MND = 6
 OpenBabel04212201593D

 27 27  0  0  0  0  0  0  0  0999 V2000
    3.0683    2.8903    8.5291 Mo  0  0  0  0  0  0  0  0  0  0  0  0
    1.3514    2.2026    9.8353 Cl  0  0  0  0  0  0  0  0  0  0  0  0
    2.1152    0.5230    7.0253 S   0  0  1  0  0  3  0  0  0  0  0  0
    3.0296   -0.8773    7.7712 C   0  0  0  0  0  0  0  0  0  0  0  0
    2.5442   -1.7921    7.4279 H   0  0  0  0  0  0  0  0  0  0  0  0
    4.0228   -0.8127    7.3235 H   0  0  0  0  0  0  0  0  0  0  0  0
    0.3802    0.1415    7.4852 C   0  0  0  0  0  0  0  0  0  0  0  0
    0.1419   -0.8286    7.0482 H   0  0  0  0  0  0  0  0  0  0  0  0
    0.3101    0.1084    8.5716 H   0  0  0  0  0  0  0  0  0  0  0  0
    2.2336    3.7247    7.3928 O   0  0  0  0  0  1  0  0  0  0  0  0
   -0.5022    1.2409    6.9269 C   0  0  0  0  0  0  0  0  0  0  0  0
   -1.5351    1.0717    7.2206 H   0  0  0  0  0  0  0  0  0  0  0  0
   -0.4427    1.2684    5.8415 H   0  0  0  0  0  0  0  0  0  0  0  0
   -0.1836    2.2083    7.3168 H   0  0  0  0  0  0  0  0  0  0  0  0
    4.7860    2.2029    7.2237 Cl  0  0  0  0  0  0  0  0  0  0  0  0
    3.1070   -0.8773    9.2874 C   0  0  0  0  0  0  0  0  0  0  0  0
    4.0214    0.5230   10.0333 S   0  0  1  0  0  3  0  0  0  0  0  0
    3.9031    3.7242    9.6659 O   0  0  0  0  0  1  0  0  0  0  0  0
    5.7565    0.1416    9.5735 C   0  0  0  0  0  0  0  0  0  0  0  0
    5.9947   -0.8285   10.0106 H   0  0  0  0  0  0  0  0  0  0  0  0
    5.8265    0.1084    8.4871 H   0  0  0  0  0  0  0  0  0  0  0  0
    6.6388    1.2410   10.1318 C   0  0  0  0  0  0  0  0  0  0  0  0
    7.6717    1.0718    9.8382 H   0  0  0  0  0  0  0  0  0  0  0  0
    6.5793    1.2685   11.2172 H   0  0  0  0  0  0  0  0  0  0  0  0
    6.3202    2.2084    9.7418 H   0  0  0  0  0  0  0  0  0  0  0  0
    3.5925   -1.7921    9.6307 H   0  0  0  0  0  0  0  0  0  0  0  0
    2.1138   -0.8127    9.7350 H   0  0  0  0  0  0  0  0  0  0  0  0
  1 18  1  0  0  0  0
  1  2  1  0  0  0  0
  1 17  1  0  0  0  0
  3  7  1  1  0  0  0
  3  4  1  0  0  0  0
  3  1  1  0  0  0  0
  4 16  1  0  0  0  0
  5  4  1  0  0  0  0
  6  4  1  0  0  0  0
  7  9  1  0  0  0  0
  8  7  1  0  0  0  0
 10  1  1  0  0  0  0
 11 12  1  0  0  0  0
 11 14  1  0  0  0  0
 11  7  1  0  0  0  0
 13 11  1  0  0  0  0
 15  1  1  0  0  0  0
 16 26  1  0  0  0  0
 16 27  1  0  0  0  0
 16 17  1  0  0  0  0
 17 19  1  6  0  0  0
 19 20  1  0  0  0  0
 19 22  1  0  0  0  0
 21 19  1  0  0  0  0
 22 24  1  0  0  0  0
 23 22  1  0  0  0  0
 25 22  1  0  0  0  0
M  END
$$$$
