CSD_code = ABIQOR | q = 0 | S = 0 | Stoichiometry = C27H50Cl2N4Ti | MND = 6
 OpenBabel04212201593D

 84 87  0  0  1  0  0  0  0  0999 V2000
    0.2552    1.0741    3.9986 Ti  0  0  0  0  0  0  0  0  0  0  0  0
    0.0299    2.7092    4.3830 N   0  0  0  0  0  2  0  0  0  0  0  0
    2.2576    0.8607    3.0671 N   0  0  2  0  0  4  0  0  0  0  0  0
    1.9204    0.3666    5.3069 N   0  0  2  0  0  4  0  0  0  0  0  0
    1.0738   -1.0932    3.6713 N   0  0  1  0  0  4  0  0  0  0  0  0
    2.0051   -0.5330    2.7021 C   0  0  0  0  0  0  0  0  0  0  0  0
    2.9170    0.8453    4.3644 C   0  0  0  0  0  0  0  0  0  0  0  0
    1.6769   -1.0381    4.9937 C   0  0  0  0  0  0  0  0  0  0  0  0
   -0.5383    3.9048    4.5890 C   0  0  0  0  0  0  0  0  0  0  0  0
   -1.0700    4.2602    5.8627 C   0  0  0  0  0  0  0  0  0  0  0  0
   -1.5597    5.5333    6.0794 C   0  0  0  0  0  0  0  0  0  0  0  0
   -1.5637    6.4873    5.0777 C   0  0  0  0  0  0  0  0  0  0  0  0
   -1.1300    6.1319    3.8133 C   0  0  0  0  0  0  0  0  0  0  0  0
   -0.6319    4.8713    3.5463 C   0  0  0  0  0  0  0  0  0  0  0  0
    2.9709    1.6742    2.0449 C   0  0  0  0  0  0  0  0  0  0  0  0
    3.0522    3.1156    2.5710 C   0  0  0  0  0  0  0  0  0  0  0  0
    4.3922    1.1557    1.7686 C   0  0  0  0  0  0  0  0  0  0  0  0
    2.1779    1.6567    0.7334 C   0  0  0  0  0  0  0  0  0  0  0  0
    2.2284    0.6634    6.7308 C   0  0  0  0  0  0  0  0  0  0  0  0
    2.3204    2.1891    6.8829 C   0  0  0  0  0  0  0  0  0  0  0  0
    3.5515    0.0266    7.1866 C   0  0  0  0  0  0  0  0  0  0  0  0
    1.0912    0.1308    7.6116 C   0  0  0  0  0  0  0  0  0  0  0  0
    0.5319   -2.4274    3.2866 C   0  0  0  0  0  0  0  0  0  0  0  0
    1.6423   -3.3999    2.8523 C   0  0  0  0  0  0  0  0  0  0  0  0
   -0.4697   -2.2476    2.1425 C   0  0  0  0  0  0  0  0  0  0  0  0
   -0.2337   -3.0549    4.4589 C   0  0  0  0  0  0  0  0  0  0  0  0
   -1.2029    3.2067    6.9362 C   0  0  0  0  0  0  0  0  0  0  0  0
   -2.6650    2.7544    7.0069 C   0  0  0  0  0  0  0  0  0  0  0  0
   -0.7198    3.6808    8.3074 C   0  0  0  0  0  0  0  0  0  0  0  0
   -0.2908    4.4835    2.1271 C   0  0  0  0  0  0  0  0  0  0  0  0
   -1.5877    4.3005    1.3329 C   0  0  0  0  0  0  0  0  0  0  0  0
    0.6223    5.4979    1.4364 C   0  0  0  0  0  0  0  0  0  0  0  0
   -0.8658    0.9808    2.0684 Cl  0  0  0  0  0  0  0  0  0  0  0  0
   -1.3904    0.1065    5.1700 Cl  0  0  0  0  0  0  0  0  0  0  0  0
    2.9650   -1.0997    2.6938 H   0  0  0  0  0  0  0  0  0  0  0  0
    1.5468   -0.5684    1.7135 H   0  0  0  0  0  0  0  0  0  0  0  0
    3.2283    1.8536    4.6336 H   0  0  0  0  0  0  0  0  0  0  0  0
    3.8067    0.1728    4.3509 H   0  0  0  0  0  0  0  0  0  0  0  0
    0.9751   -1.4418    5.7199 H   0  0  0  0  0  0  0  0  0  0  0  0
    2.6315   -1.6164    5.0284 H   0  0  0  0  0  0  0  0  0  0  0  0
   -1.9591    5.7887    7.0503 H   0  0  0  0  0  0  0  0  0  0  0  0
   -1.9356    7.4831    5.2702 H   0  0  0  0  0  0  0  0  0  0  0  0
   -1.1933    6.8557    3.0135 H   0  0  0  0  0  0  0  0  0  0  0  0
    3.1389    3.8089    1.7404 H   0  0  0  0  0  0  0  0  0  0  0  0
    3.9204    3.2664    3.2104 H   0  0  0  0  0  0  0  0  0  0  0  0
    2.1449    3.3568    3.1289 H   0  0  0  0  0  0  0  0  0  0  0  0
    4.8549    1.7952    1.0214 H   0  0  0  0  0  0  0  0  0  0  0  0
    5.0166    1.1813    2.6595 H   0  0  0  0  0  0  0  0  0  0  0  0
    4.3809    0.1415    1.3753 H   0  0  0  0  0  0  0  0  0  0  0  0
    2.5100    2.4692    0.0934 H   0  0  0  0  0  0  0  0  0  0  0  0
    1.1128    1.7791    0.9283 H   0  0  0  0  0  0  0  0  0  0  0  0
    2.3301    0.7296    0.1843 H   0  0  0  0  0  0  0  0  0  0  0  0
    2.1319    2.4704    7.9141 H   0  0  0  0  0  0  0  0  0  0  0  0
    3.3078    2.5652    6.6206 H   0  0  0  0  0  0  0  0  0  0  0  0
    1.5707    2.6680    6.2487 H   0  0  0  0  0  0  0  0  0  0  0  0
    3.7160    0.2745    8.2319 H   0  0  0  0  0  0  0  0  0  0  0  0
    3.5243   -1.0577    7.1026 H   0  0  0  0  0  0  0  0  0  0  0  0
    4.3998    0.4025    6.6181 H   0  0  0  0  0  0  0  0  0  0  0  0
    1.1102    0.6278    8.5772 H   0  0  0  0  0  0  0  0  0  0  0  0
    1.1916   -0.9372    7.7945 H   0  0  0  0  0  0  0  0  0  0  0  0
    0.1248    0.3189    7.1440 H   0  0  0  0  0  0  0  0  0  0  0  0
    1.2139   -4.3908    2.7276 H   0  0  0  0  0  0  0  0  0  0  0  0
    2.4277   -3.4717    3.6033 H   0  0  0  0  0  0  0  0  0  0  0  0
    2.0863   -3.1106    1.9022 H   0  0  0  0  0  0  0  0  0  0  0  0
   -0.8944   -3.2122    1.8762 H   0  0  0  0  0  0  0  0  0  0  0  0
   -1.2764   -1.5899    2.4592 H   0  0  0  0  0  0  0  0  0  0  0  0
   -0.0186   -1.8250    1.2485 H   0  0  0  0  0  0  0  0  0  0  0  0
   -0.8293   -3.8836    4.0852 H   0  0  0  0  0  0  0  0  0  0  0  0
    0.4349   -3.4517    5.2208 H   0  0  0  0  0  0  0  0  0  0  0  0
   -0.9118   -2.3279    4.9027 H   0  0  0  0  0  0  0  0  0  0  0  0
   -0.6063    2.3410    6.6234 H   0  0  0  0  0  0  0  0  0  0  0  0
   -2.7825    1.9617    7.7433 H   0  0  0  0  0  0  0  0  0  0  0  0
   -3.3130    3.5863    7.2759 H   0  0  0  0  0  0  0  0  0  0  0  0
   -2.9761    2.3724    6.0362 H   0  0  0  0  0  0  0  0  0  0  0  0
   -0.6753    2.8411    8.9987 H   0  0  0  0  0  0  0  0  0  0  0  0
   -1.4002    4.4192    8.7242 H   0  0  0  0  0  0  0  0  0  0  0  0
    0.2679    4.1313    8.2347 H   0  0  0  0  0  0  0  0  0  0  0  0
    0.2108    3.5087    2.1618 H   0  0  0  0  0  0  0  0  0  0  0  0
   -1.3671    3.9869    0.3144 H   0  0  0  0  0  0  0  0  0  0  0  0
   -2.1560    5.2278    1.3019 H   0  0  0  0  0  0  0  0  0  0  0  0
   -2.1992    3.5338    1.8042 H   0  0  0  0  0  0  0  0  0  0  0  0
    0.9784    5.0966    0.4892 H   0  0  0  0  0  0  0  0  0  0  0  0
    0.0865    6.4203    1.2267 H   0  0  0  0  0  0  0  0  0  0  0  0
    1.4787    5.7376    2.0632 H   0  0  0  0  0  0  0  0  0  0  0  0
  1  2  1  0  0  0  0
  1 34  1  0  0  0  0
  1  4  1  0  0  0  0
  2  9  1  0  0  0  0
  3 15  1  6  0  0  0
  3  1  1  0  0  0  0
  3  7  1  0  0  0  0
  4 19  1  1  0  0  0
  5 23  1  6  0  0  0
  5  1  1  0  0  0  0
  5  8  1  0  0  0  0
  6  3  1  0  0  0  0
  6  5  1  0  0  0  0
  7 37  1  0  0  0  0
  7  4  1  0  0  0  0
  8 40  1  0  0  0  0
  8  4  1  0  0  0  0
  8 39  1  0  0  0  0
  9 10  1  0  0  0  0
 10 11  2  0  0  0  0
 10 27  1  0  0  0  0
 11 41  1  0  0  0  0
 12 42  1  0  0  0  0
 12 11  1  0  0  0  0
 13 12  2  0  0  0  0
 14 13  1  0  0  0  0
 14  9  2  0  0  0  0
 15 16  1  0  0  0  0
 16 46  1  0  0  0  0
 16 45  1  0  0  0  0
 17 15  1  0  0  0  0
 17 48  1  0  0  0  0
 18 51  1  0  0  0  0
 18 15  1  0  0  0  0
 19 20  1  0  0  0  0
 19 21  1  0  0  0  0
 19 22  1  0  0  0  0
 20 53  1  0  0  0  0
 21 56  1  0  0  0  0
 22 60  1  0  0  0  0
 22 59  1  0  0  0  0
 23 26  1  0  0  0  0
 24 23  1  0  0  0  0
 24 63  1  0  0  0  0
 25 66  1  0  0  0  0
 25 23  1  0  0  0  0
 26 70  1  0  0  0  0
 26 69  1  0  0  0  0
 27 28  1  0  0  0  0
 27 29  1  0  0  0  0
 28 73  1  0  0  0  0
 28 72  1  0  0  0  0
 29 76  1  0  0  0  0
 29 75  1  0  0  0  0
 30 78  1  0  0  0  0
 30 14  1  0  0  0  0
 31 81  1  0  0  0  0
 31 30  1  0  0  0  0
 32 84  1  0  0  0  0
 32 30  1  0  0  0  0
 33  1  1  0  0  0  0
 35  6  1  0  0  0  0
 36  6  1  0  0  0  0
 38  7  1  0  0  0  0
 43 13  1  0  0  0  0
 44 16  1  0  0  0  0
 47 17  1  0  0  0  0
 49 17  1  0  0  0  0
 50 18  1  0  0  0  0
 52 18  1  0  0  0  0
 54 20  1  0  0  0  0
 55 20  1  0  0  0  0
 57 21  1  0  0  0  0
 58 21  1  0  0  0  0
 61 22  1  0  0  0  0
 62 24  1  0  0  0  0
 64 24  1  0  0  0  0
 65 25  1  0  0  0  0
 67 25  1  0  0  0  0
 68 26  1  0  0  0  0
 71 27  1  0  0  0  0
 74 28  1  0  0  0  0
 77 29  1  0  0  0  0
 79 31  1  0  0  0  0
 80 31  1  0  0  0  0
 82 32  1  0  0  0  0
 83 32  1  0  0  0  0
M  END
$$$$
