CSD_code = ABIWUE | q = 0 | S = 0 | Stoichiometry = C13H9Cl2F3N2Pd | MND = 4
 OpenBabel04212201593D

 30 32  0  0  0  0  0  0  0  0999 V2000
    3.4602    4.9315    2.1096 Pd  0  0  0  0  0  0  0  0  0  0  0  0
    1.6405    6.0476    1.5798 Cl  0  0  0  0  0  0  0  0  0  0  0  0
    4.4525    6.8345    2.7215 Cl  0  0  0  0  0  0  0  0  0  0  0  0
    2.7838    3.1450    1.4066 N   0  0  0  0  0  0  0  0  0  0  0  0
    3.7207    2.1702    1.5238 C   0  0  0  0  0  0  0  0  0  0  0  0
    3.4951    0.8815    1.0282 C   0  0  0  0  0  0  0  0  0  0  0  0
    2.2942    0.6027    0.4095 C   0  0  0  0  0  0  0  0  0  0  0  0
    1.3437    1.6145    0.2986 C   0  0  0  0  0  0  0  0  0  0  0  0
    1.6288    2.8688    0.8099 C   0  0  0  0  0  0  0  0  0  0  0  0
    4.9008    2.5650    2.2345 C   0  0  0  0  0  0  0  0  0  0  0  0
    4.9686    3.8007    2.6202 N   0  0  0  0  0  0  0  0  0  0  0  0
    5.9693    4.2873    3.4644 C   0  0  0  0  0  0  0  0  0  0  0  0
    5.6838    4.4707    4.8256 C   0  0  0  0  0  0  0  0  0  0  0  0
    6.6266    5.0409    5.6672 C   0  0  0  0  0  0  0  0  0  0  0  0
    7.8578    5.4215    5.1636 C   0  0  0  0  0  0  0  0  0  0  0  0
    8.1495    5.2287    3.8233 C   0  0  0  0  0  0  0  0  0  0  0  0
    7.2162    4.6623    2.9755 C   0  0  0  0  0  0  0  0  0  0  0  0
    4.3471    4.0303    5.3479 C   0  0  0  0  0  0  0  0  0  0  0  0
    3.2924    4.6802    4.7810 F   0  0  0  0  0  0  0  0  0  0  0  0
    4.2128    4.1765    6.6639 F   0  0  0  0  0  0  0  0  0  0  0  0
    4.1122    2.7211    5.0856 F   0  0  0  0  0  0  0  0  0  0  0  0
    4.2607    0.1297    1.1376 H   0  0  0  0  0  0  0  0  0  0  0  0
    2.0947   -0.3831    0.0186 H   0  0  0  0  0  0  0  0  0  0  0  0
    0.3943    1.4320   -0.1775 H   0  0  0  0  0  0  0  0  0  0  0  0
    0.9226    3.6896    0.7482 H   0  0  0  0  0  0  0  0  0  0  0  0
    5.6630    1.8375    2.5011 H   0  0  0  0  0  0  0  0  0  0  0  0
    6.3888    5.1873    6.7091 H   0  0  0  0  0  0  0  0  0  0  0  0
    8.5851    5.8750    5.8177 H   0  0  0  0  0  0  0  0  0  0  0  0
    9.1086    5.5287    3.4305 H   0  0  0  0  0  0  0  0  0  0  0  0
    7.4231    4.5376    1.9232 H   0  0  0  0  0  0  0  0  0  0  0  0
  1 11  1  0  0  0  0
  1  3  1  0  0  0  0
  2  1  1  0  0  0  0
  4  5  1  0  0  0  0
  4  1  1  0  0  0  0
  5 10  2  0  0  0  0
  6 22  1  0  0  0  0
  6  5  1  0  0  0  0
  7  6  2  0  0  0  0
  8  7  1  0  0  0  0
  8  9  2  0  0  0  0
  9  4  1  0  0  0  0
 10 26  1  0  0  0  0
 10 11  1  0  0  0  0
 11 12  1  0  0  0  0
 12 13  1  0  0  0  0
 13 18  1  0  0  0  0
 13 14  2  0  0  0  0
 14 27  1  0  0  0  0
 15 14  1  0  0  0  0
 15 28  1  0  0  0  0
 16 15  2  0  0  0  0
 17 12  2  0  0  0  0
 17 16  1  0  0  0  0
 18 20  1  0  0  0  0
 19 18  1  0  0  0  0
 21 18  1  0  0  0  0
 23  7  1  0  0  0  0
 24  8  1  0  0  0  0
 25  9  1  0  0  0  0
 29 16  1  0  0  0  0
 30 17  1  0  0  0  0
M  END
$$$$
