CSD_code = ABIZIW | q = 0 | S = 0 | Stoichiometry = C15H10CdClI2N3 | MND = 5
 OpenBabel04212201593D

 32 36  0  0  1  0  0  0  0  0999 V2000
   10.0362   -0.5856   12.1453 C   0  0  0  0  0  3  0  0  0  0  0  0
    9.8763    0.0568   13.0040 H   0  0  0  0  0  0  0  0  0  0  0  0
   10.8766   -1.6867   12.2248 C   0  0  0  0  0  0  0  0  0  0  0  0
   11.3898   -1.9152   13.1447 H   0  0  0  0  0  0  0  0  0  0  0  0
   11.0292   -2.4795   11.0992 C   0  0  0  0  0  0  0  0  0  0  0  0
   11.6649   -3.3520   11.1208 H   0  0  0  0  0  0  0  0  0  0  0  0
   10.3497   -2.1389    9.9413 C   0  0  0  0  0  0  0  0  0  0  0  0
   10.4328   -2.7513    9.0579 H   0  0  0  0  0  0  0  0  0  0  0  0
    9.5369   -1.0076    9.9467 C   0  0  0  0  0  0  0  0  0  0  0  0
    8.7862   -0.5697    8.7531 C   0  0  2  0  0  3  0  0  0  0  0  0
    9.2222   -0.8502    7.4598 C   0  0  0  0  0  0  0  0  0  0  0  0
   10.1323   -1.3967    7.2783 H   0  0  0  0  0  0  0  0  0  0  0  0
    8.4789   -0.3528    6.3992 C   0  0  0  0  0  0  0  0  0  0  0  0
    7.3352    0.3928    6.6451 C   0  0  0  0  0  0  0  0  0  0  0  0
    6.7753    0.8158    5.8281 H   0  0  0  0  0  0  0  0  0  0  0  0
    6.9744    0.6208    7.9715 C   0  0  0  0  0  0  0  0  0  0  0  0
    5.8015    1.4394    8.3380 C   0  0  1  0  0  3  0  0  0  0  0  0
    4.6996    1.5800    7.4974 C   0  0  0  0  0  0  0  0  0  0  0  0
    4.6628    1.0683    6.5491 H   0  0  0  0  0  0  0  0  0  0  0  0
    3.6386    2.3682    7.9115 C   0  0  0  0  0  0  0  0  0  0  0  0
    2.7732    2.4927    7.2781 H   0  0  0  0  0  0  0  0  0  0  0  0
    3.7055    2.9874    9.1488 C   0  0  0  0  0  0  0  0  0  0  0  0
    2.9019    3.6096    9.5081 H   0  0  0  0  0  0  0  0  0  0  0  0
    4.8363    2.7835    9.9266 C   0  0  0  0  0  0  0  0  0  0  0  0
    4.9284    3.2384   10.9064 H   0  0  0  0  0  0  0  0  0  0  0  0
    9.3859   -0.2569   11.0413 N   0  0  0  0  0  0  0  0  0  0  0  0
    7.6889    0.1436    8.9862 N   0  0  0  0  0  0  0  0  0  0  0  0
    5.8521    2.0329    9.5338 N   0  0  0  0  0  0  0  0  0  0  0  0
    8.9842   -0.6447    4.7835 Cl  0  0  0  0  0  0  0  0  0  0  0  0
    7.9651    1.7645   10.8082 Cd  0  0  0  0  0  0  0  0  0  0  0  0
    6.9514    1.8286   13.2878 I   0  0  0  0  0  0  0  0  0  0  0  0
    9.5966    3.2716    9.2708 I   0  0  0  0  0  0  0  0  0  0  0  0
  1  3  1  0  0  0  0
  1  2  1  0  0  0  0
  3  4  1  0  0  0  0
  5  6  1  0  0  0  0
  5  3  2  0  0  0  0
  7  9  2  0  0  0  0
  7  5  1  0  0  0  0
  8  7  1  0  0  0  0
  9 26  1  0  0  0  0
 10 11  1  6  0  0  0
 10 27  1  0  0  0  0
 10  9  1  0  0  0  0
 12 11  1  0  0  0  0
 13 14  1  0  0  0  0
 13 11  2  0  0  0  0
 14 16  2  0  0  0  0
 15 14  1  0  0  0  0
 16 17  1  0  0  0  0
 16 27  1  0  0  0  0
 17 18  1  1  0  0  0
 17 28  1  0  0  0  0
 18 20  2  0  0  0  0
 19 18  1  0  0  0  0
 20 22  1  0  0  0  0
 21 20  1  0  0  0  0
 22 23  1  0  0  0  0
 22 24  2  0  0  0  0
 24 25  1  0  0  0  0
 26  1  1  0  0  0  0
 27 30  1  0  0  0  0
 28 24  1  0  0  0  0
 28 30  1  0  0  0  0
 29 13  1  0  0  0  0
 30 26  1  0  0  0  0
 30 31  1  0  0  0  0
 32 30  1  0  0  0  0
M  END
$$$$
