CSD_code = ABOCEZ | q = 0 | S = 0 | Stoichiometry = C46H38Cl2N4P2Ru | MND = 6
 OpenBabel04212201593D

 93101  0  0  0  0  0  0  0  0999 V2000
    0.8476    3.1084   18.6712 Ru  0  0  0  0  0  0  0  0  0  0  0  0
    0.9961    5.3328   17.8006 Cl  0  0  0  0  0  0  0  0  0  0  0  0
   -1.5466    3.1867   18.6312 Cl  0  0  0  0  0  0  0  0  0  0  0  0
    0.4057    2.2597   16.5418 P   0  0  0  0  0  4  0  0  0  0  0  0
    1.0270    4.2944   20.6737 P   0  0  0  0  0  4  0  0  0  0  0  0
    1.1148    1.4327   19.5298 N   0  0  0  0  0  0  0  0  0  0  0  0
    2.8211    2.8943   18.4399 N   0  0  0  0  0  0  0  0  0  0  0  0
    4.4371    1.1544   18.6465 N   0  0  0  0  0  0  0  0  0  0  0  0
    2.3017    0.8988   19.4584 N   0  0  0  0  0  2  0  0  0  0  0  0
    0.4469    3.5156   22.2164 C   0  0  0  0  0  0  0  0  0  0  0  0
   -0.8685    3.0569   22.1830 C   0  0  0  0  0  0  0  0  0  0  0  0
   -1.4362    3.1423   21.2646 H   0  0  0  0  0  0  0  0  0  0  0  0
   -1.4360    2.4974   23.3108 C   0  0  0  0  0  0  0  0  0  0  0  0
   -2.4547    2.1413   23.2793 H   0  0  0  0  0  0  0  0  0  0  0  0
   -0.6964    2.3942   24.4782 C   0  0  0  0  0  0  0  0  0  0  0  0
   -1.1357    1.9516   25.3601 H   0  0  0  0  0  0  0  0  0  0  0  0
    0.6037    2.8681   24.5190 C   0  0  0  0  0  0  0  0  0  0  0  0
    1.1758    2.8012   25.4332 H   0  0  0  0  0  0  0  0  0  0  0  0
    1.1773    3.4361   23.3946 C   0  0  0  0  0  0  0  0  0  0  0  0
    2.1879    3.8168   23.4406 H   0  0  0  0  0  0  0  0  0  0  0  0
    0.2254    5.9062   20.9239 C   0  0  0  0  0  0  0  0  0  0  0  0
   -0.9151    6.2529   20.2118 C   0  0  0  0  0  0  0  0  0  0  0  0
   -1.3047    5.5843   19.4569 H   0  0  0  0  0  0  0  0  0  0  0  0
   -1.5438    7.4588   20.4690 C   0  0  0  0  0  0  0  0  0  0  0  0
   -2.4252    7.7317   19.9080 H   0  0  0  0  0  0  0  0  0  0  0  0
   -1.0460    8.3113   21.4391 C   0  0  0  0  0  0  0  0  0  0  0  0
   -1.5347    9.2548   21.6341 H   0  0  0  0  0  0  0  0  0  0  0  0
    0.0775    7.9532   22.1685 C   0  0  0  0  0  0  0  0  0  0  0  0
    0.4600    8.6129   22.9340 H   0  0  0  0  0  0  0  0  0  0  0  0
    0.7101    6.7507   21.9200 C   0  0  0  0  0  0  0  0  0  0  0  0
    1.5821    6.4646   22.4933 H   0  0  0  0  0  0  0  0  0  0  0  0
    2.8004    4.6057   20.9016 C   0  0  0  0  0  0  0  0  0  0  0  0
    3.3817    5.7906   20.4604 C   0  0  0  0  0  0  0  0  0  0  0  0
    2.7517    6.5908   20.0973 H   0  0  0  0  0  0  0  0  0  0  0  0
    4.7588    5.9297   20.4705 C   0  0  0  0  0  0  0  0  0  0  0  0
    5.2056    6.8525   20.1305 H   0  0  0  0  0  0  0  0  0  0  0  0
    5.5630    4.8878   20.9013 C   0  0  0  0  0  0  0  0  0  0  0  0
    6.6373    4.9985   20.9046 H   0  0  0  0  0  0  0  0  0  0  0  0
    4.9908    3.6941   21.3140 C   0  0  0  0  0  0  0  0  0  0  0  0
    5.6160    2.8714   21.6292 H   0  0  0  0  0  0  0  0  0  0  0  0
    3.6168    3.5488   21.3059 C   0  0  0  0  0  0  0  0  0  0  0  0
    3.1681    2.6078   21.6014 H   0  0  0  0  0  0  0  0  0  0  0  0
    3.2098    1.6415   18.8193 C   0  0  0  0  0  0  0  0  0  0  0  0
    3.7445    3.6946   17.9248 C   0  0  0  0  0  3  0  0  0  0  0  0
    3.4256    4.6936   17.6556 H   0  0  0  0  0  0  0  0  0  0  0  0
    5.0463    3.2652   17.7485 C   0  0  0  0  0  0  0  0  0  0  0  0
    5.7921    3.9182   17.3296 H   0  0  0  0  0  0  0  0  0  0  0  0
    5.3349    1.9532   18.1165 C   0  0  0  0  0  0  0  0  0  0  0  0
    6.3204    1.5278   17.9835 H   0  0  0  0  0  0  0  0  0  0  0  0
    1.9172    2.0414   15.5432 C   0  0  0  0  0  0  0  0  0  0  0  0
    2.5534    3.2387   15.2141 C   0  0  0  0  0  0  0  0  0  0  0  0
    2.1006    4.1747   15.5207 H   0  0  0  0  0  0  0  0  0  0  0  0
    3.7372    3.2275   14.5033 C   0  0  0  0  0  0  0  0  0  0  0  0
    4.2238    4.1585   14.2519 H   0  0  0  0  0  0  0  0  0  0  0  0
    4.2993    2.0204   14.1177 C   0  0  0  0  0  0  0  0  0  0  0  0
    5.2295    2.0070   13.5690 H   0  0  0  0  0  0  0  0  0  0  0  0
    3.6627    0.8311   14.4283 C   0  0  0  0  0  0  0  0  0  0  0  0
    4.0924   -0.1098   14.1165 H   0  0  0  0  0  0  0  0  0  0  0  0
    2.4728    0.8357   15.1368 C   0  0  0  0  0  0  0  0  0  0  0  0
    1.9778   -0.0991   15.3560 H   0  0  0  0  0  0  0  0  0  0  0  0
   -0.6108    3.1202   15.3011 C   0  0  0  0  0  0  0  0  0  0  0  0
   -0.6957    2.5257   14.0415 C   0  0  0  0  0  0  0  0  0  0  0  0
   -0.1757    1.5951   13.8519 H   0  0  0  0  0  0  0  0  0  0  0  0
   -1.4437    3.1214   13.0465 C   0  0  0  0  0  0  0  0  0  0  0  0
   -1.5104    2.6572   12.0730 H   0  0  0  0  0  0  0  0  0  0  0  0
   -2.1065    4.3144   13.2970 C   0  0  0  0  0  0  0  0  0  0  0  0
   -2.6908    4.7788   12.5160 H   0  0  0  0  0  0  0  0  0  0  0  0
   -2.0170    4.9076   14.5435 C   0  0  0  0  0  0  0  0  0  0  0  0
   -2.5293    5.8378   14.7393 H   0  0  0  0  0  0  0  0  0  0  0  0
   -1.2707    4.3149   15.5488 C   0  0  0  0  0  0  0  0  0  0  0  0
   -1.2027    4.7838   16.5191 H   0  0  0  0  0  0  0  0  0  0  0  0
   -0.3841    0.6263   16.6562 C   0  0  0  0  0  0  0  0  0  0  0  0
    0.3212   -0.4453   17.2044 C   0  0  0  0  0  0  0  0  0  0  0  0
    1.3546   -0.3256   17.5041 H   0  0  0  0  0  0  0  0  0  0  0  0
   -0.3040   -1.6638   17.3926 C   0  0  0  0  0  0  0  0  0  0  0  0
    0.2507   -2.4883   17.8155 H   0  0  0  0  0  0  0  0  0  0  0  0
   -1.6386   -1.8209   17.0549 C   0  0  0  0  0  0  0  0  0  0  0  0
   -2.1256   -2.7724   17.2093 H   0  0  0  0  0  0  0  0  0  0  0  0
   -2.3499   -0.7528   16.5347 C   0  0  0  0  0  0  0  0  0  0  0  0
   -3.3954   -0.8660   16.2879 H   0  0  0  0  0  0  0  0  0  0  0  0
   -1.7299    0.4683   16.3375 C   0  0  0  0  0  0  0  0  0  0  0  0
   -2.2930    1.3072   15.9543 H   0  0  0  0  0  0  0  0  0  0  0  0
    0.2923    0.7337   20.4240 C   0  0  0  0  0  0  0  0  0  0  0  0
   -1.0419    0.4599   20.1322 C   0  0  0  0  0  0  0  0  0  0  0  0
   -1.4703    0.7818   19.1974 H   0  0  0  0  0  0  0  0  0  0  0  0
   -1.8127   -0.2388   21.0412 C   0  0  0  0  0  0  0  0  0  0  0  0
   -2.8444   -0.4499   20.8036 H   0  0  0  0  0  0  0  0  0  0  0  0
   -1.2730   -0.6673   22.2424 C   0  0  0  0  0  0  0  0  0  0  0  0
   -1.8851   -1.2043   22.9518 H   0  0  0  0  0  0  0  0  0  0  0  0
    0.0594   -0.4141   22.5280 C   0  0  0  0  0  0  0  0  0  0  0  0
    0.4899   -0.7523   23.4587 H   0  0  0  0  0  0  0  0  0  0  0  0
    0.8430    0.2676   21.6214 C   0  0  0  0  0  0  0  0  0  0  0  0
    1.8858    0.4600   21.8249 H   0  0  0  0  0  0  0  0  0  0  0  0
  1  6  1  0  0  0  0
  1  5  1  0  0  0  0
  2  1  1  0  0  0  0
  3  1  1  0  0  0  0
  4 72  1  0  0  0  0
  4  1  1  0  0  0  0
  5 32  1  0  0  0  0
  5 21  1  0  0  0  0
  5 10  1  0  0  0  0
  6 83  1  0  0  0  0
  7  1  1  0  0  0  0
  7 43  1  0  0  0  0
  8 43  2  0  0  0  0
  9  6  1  0  0  0  0
 10 19  1  0  0  0  0
 11 10  2  0  0  0  0
 11 13  1  0  0  0  0
 12 11  1  0  0  0  0
 13 15  2  0  0  0  0
 14 13  1  0  0  0  0
 15 17  1  0  0  0  0
 15 16  1  0  0  0  0
 17 18  1  0  0  0  0
 19 20  1  0  0  0  0
 19 17  2  0  0  0  0
 21 30  1  0  0  0  0
 22 24  1  0  0  0  0
 22 21  2  0  0  0  0
 23 22  1  0  0  0  0
 24 26  2  0  0  0  0
 25 24  1  0  0  0  0
 26 27  1  0  0  0  0
 26 28  1  0  0  0  0
 28 29  1  0  0  0  0
 30 28  2  0  0  0  0
 30 31  1  0  0  0  0
 32 41  1  0  0  0  0
 33 35  1  0  0  0  0
 33 32  2  0  0  0  0
 34 33  1  0  0  0  0
 35 37  2  0  0  0  0
 36 35  1  0  0  0  0
 37 38  1  0  0  0  0
 37 39  1  0  0  0  0
 39 40  1  0  0  0  0
 41 39  2  0  0  0  0
 41 42  1  0  0  0  0
 43  9  1  0  0  0  0
 44  7  1  0  0  0  0
 45 44  1  0  0  0  0
 46 44  1  0  0  0  0
 46 48  2  0  0  0  0
 47 46  1  0  0  0  0
 48  8  1  0  0  0  0
 49 48  1  0  0  0  0
 50  4  1  0  0  0  0
 51 52  1  0  0  0  0
 51 50  1  0  0  0  0
 53 51  2  0  0  0  0
 54 53  1  0  0  0  0
 55 57  2  0  0  0  0
 55 53  1  0  0  0  0
 56 55  1  0  0  0  0
 57 59  1  0  0  0  0
 58 57  1  0  0  0  0
 59 60  1  0  0  0  0
 59 50  2  0  0  0  0
 61 70  1  0  0  0  0
 61  4  1  0  0  0  0
 62 61  2  0  0  0  0
 63 62  1  0  0  0  0
 64 66  2  0  0  0  0
 64 62  1  0  0  0  0
 65 64  1  0  0  0  0
 66 68  1  0  0  0  0
 67 66  1  0  0  0  0
 68 69  1  0  0  0  0
 68 70  2  0  0  0  0
 70 71  1  0  0  0  0
 72 73  1  0  0  0  0
 73 75  2  0  0  0  0
 73 74  1  0  0  0  0
 75 76  1  0  0  0  0
 77 78  1  0  0  0  0
 77 75  1  0  0  0  0
 79 77  2  0  0  0  0
 80 79  1  0  0  0  0
 81 79  1  0  0  0  0
 81 72  2  0  0  0  0
 82 81  1  0  0  0  0
 83 92  1  0  0  0  0
 84 83  2  0  0  0  0
 84 86  1  0  0  0  0
 85 84  1  0  0  0  0
 86 88  2  0  0  0  0
 87 86  1  0  0  0  0
 88 90  1  0  0  0  0
 88 89  1  0  0  0  0
 90 91  1  0  0  0  0
 92 93  1  0  0  0  0
 92 90  2  0  0  0  0
M  END
$$$$
