CSD_code = ABOLOV | q = 0 | S = 0 | Stoichiometry = C21H30ClF3O3SSiTi | MND = 12
 OpenBabel04212201593D

 61 63  0  0  1  0  0  0  0  0999 V2000
    8.6171    1.6393    1.1033 C   0  0  1  0  0  0  0  0  0  0  0  0
    9.2918    2.4094    2.0964 C   0  0  0  0  0  0  0  0  0  0  0  0
   10.2181    3.2494    1.4463 C   0  0  0  0  0  0  0  0  0  0  0  0
   10.1236    3.0163    0.0524 C   0  0  2  0  0  3  0  0  0  0  0  0
    9.1796    1.9632   -0.1744 C   0  0  2  0  0  3  0  0  0  0  0  0
    7.7350    0.4755    1.4525 C   0  0  0  0  0  0  0  0  0  0  0  0
    8.2792   -0.2020    2.1133 H   0  0  0  0  0  0  0  0  0  0  0  0
    7.4470   -0.0800    0.5675 H   0  0  0  0  0  0  0  0  0  0  0  0
    6.8413    0.8140    1.9788 H   0  0  0  0  0  0  0  0  0  0  0  0
    9.1673    2.2569    3.5787 C   0  0  0  0  0  0  0  0  0  0  0  0
   10.0525    1.7522    3.9724 H   0  0  0  0  0  0  0  0  0  0  0  0
    8.2845    1.6789    3.8401 H   0  0  0  0  0  0  0  0  0  0  0  0
    9.0947    3.2360    4.0530 H   0  0  0  0  0  0  0  0  0  0  0  0
   11.2282    4.1174    2.1267 C   0  0  0  0  0  0  0  0  0  0  0  0
   10.8045    4.5669    3.0227 H   0  0  0  0  0  0  0  0  0  0  0  0
   11.5739    4.9139    1.4711 H   0  0  0  0  0  0  0  0  0  0  0  0
   12.0907    3.5140    2.4213 H   0  0  0  0  0  0  0  0  0  0  0  0
   11.1197    3.5857   -0.9122 C   0  0  0  0  0  0  0  0  0  0  0  0
   11.0862    4.6760   -0.9135 H   0  0  0  0  0  0  0  0  0  0  0  0
   10.9568    3.2203   -1.9187 H   0  0  0  0  0  0  0  0  0  0  0  0
   12.1251    3.2895   -0.6045 H   0  0  0  0  0  0  0  0  0  0  0  0
    7.4913   -0.0792   -2.1158 C   0  0  0  0  0  0  0  0  0  0  0  0
    6.9218   -0.0468   -3.0394 H   0  0  0  0  0  0  0  0  0  0  0  0
    6.8200   -0.4170   -1.3371 H   0  0  0  0  0  0  0  0  0  0  0  0
    8.2545   -0.8416   -2.2354 H   0  0  0  0  0  0  0  0  0  0  0  0
    9.4477    1.6073   -3.4135 C   0  0  0  0  0  0  0  0  0  0  0  0
   10.1431    0.7759   -3.3509 H   0  0  0  0  0  0  0  0  0  0  0  0
   10.0307    2.4983   -3.6069 H   0  0  0  0  0  0  0  0  0  0  0  0
    8.8228    1.4391   -4.2849 H   0  0  0  0  0  0  0  0  0  0  0  0
    6.1055    3.1308   -0.6363 C   0  0  2  0  0  0  0  0  0  0  0  0
    5.7796    4.4872   -0.3372 C   0  0  0  0  0  0  0  0  0  0  0  0
    6.7234    5.3162   -0.9751 C   0  0  0  0  0  0  0  0  0  0  0  0
    7.6408    4.4897   -1.6691 C   0  0  1  0  0  3  0  0  0  0  0  0
    7.2278    3.1260   -1.5290 C   0  0  1  0  0  3  0  0  0  0  0  0
    5.1781    1.9944   -0.3166 C   0  0  0  0  0  0  0  0  0  0  0  0
    4.9978    1.9411    0.7579 H   0  0  0  0  0  0  0  0  0  0  0  0
    5.5762    1.0476   -0.6616 H   0  0  0  0  0  0  0  0  0  0  0  0
    4.2197    2.1604   -0.8130 H   0  0  0  0  0  0  0  0  0  0  0  0
    4.5685    4.9759    0.3910 C   0  0  0  0  0  0  0  0  0  0  0  0
    4.8487    5.7383    1.1185 H   0  0  0  0  0  0  0  0  0  0  0  0
    4.0701    4.1636    0.9138 H   0  0  0  0  0  0  0  0  0  0  0  0
    3.8689    5.4231   -0.3186 H   0  0  0  0  0  0  0  0  0  0  0  0
    6.6691    6.8097   -1.0283 C   0  0  0  0  0  0  0  0  0  0  0  0
    5.9675    7.1236   -1.8055 H   0  0  0  0  0  0  0  0  0  0  0  0
    7.6447    7.2353   -1.2535 H   0  0  0  0  0  0  0  0  0  0  0  0
    6.3271    7.2134   -0.0772 H   0  0  0  0  0  0  0  0  0  0  0  0
    8.6432    5.0579   -2.6278 C   0  0  0  0  0  0  0  0  0  0  0  0
    8.1221    5.6617   -3.3740 H   0  0  0  0  0  0  0  0  0  0  0  0
    9.1864    4.2788   -3.1485 H   0  0  0  0  0  0  0  0  0  0  0  0
    9.3509    5.7106   -2.1151 H   0  0  0  0  0  0  0  0  0  0  0  0
    9.2402    7.6485    1.9948 C   0  0  0  0  0  0  0  0  0  0  0  0
    6.6095    3.6159    2.3614 Cl  0  0  0  0  0  0  0  0  0  0  0  0
    8.9406    8.2514    0.8379 F   0  0  0  0  0  0  0  0  0  0  0  0
   10.5346    7.3123    1.9374 F   0  0  0  0  0  0  0  0  0  0  0  0
    9.0929    8.5417    2.9714 F   0  0  0  0  0  0  0  0  0  0  0  0
    8.6622    5.4349    0.9444 O   0  0  0  0  0  0  0  0  0  0  0  0
    8.6747    5.4842    3.3807 O   0  0  0  0  0  1  0  0  0  0  0  0
    6.8472    6.5614    2.1170 O   0  0  0  0  0  1  0  0  0  0  0  0
    8.1928    6.0969    2.1874 S   0  0  0  0  0  0  0  0  0  0  0  0
    8.3422    1.6196   -1.8455 Si  0  0  0  0  0  0  0  0  0  0  0  0
    7.9268    3.7506    0.5786 Ti  0  0  1  0  0  0  0  0  0  0  0  0
  1  6  1  1  0  0  0
  1  2  1  0  0  0  0
  2 10  1  0  0  0  0
  3  2  2  0  0  0  0
  3 14  1  0  0  0  0
  4 18  1  1  0  0  0
  4  3  1  0  0  0  0
  5 60  1  6  0  0  0
  5  4  1  0  0  0  0
  5  1  1  0  0  0  0
  6  9  1  0  0  0  0
  6  7  1  0  0  0  0
  8  6  1  0  0  0  0
 10 12  1  0  0  0  0
 10 11  1  0  0  0  0
 10 13  1  0  0  0  0
 14 17  1  0  0  0  0
 14 15  1  0  0  0  0
 16 14  1  0  0  0  0
 18 21  1  0  0  0  0
 19 18  1  0  0  0  0
 20 18  1  0  0  0  0
 22 60  1  0  0  0  0
 22 24  1  0  0  0  0
 23 22  1  0  0  0  0
 25 22  1  0  0  0  0
 26 27  1  0  0  0  0
 26 60  1  0  0  0  0
 28 26  1  0  0  0  0
 29 26  1  0  0  0  0
 30 31  1  0  0  0  0
 30 35  1  1  0  0  0
 30 61  1  0  0  0  0
 31 39  1  0  0  0  0
 32 31  2  0  0  0  0
 33 47  1  6  0  0  0
 33 34  1  0  0  0  0
 33 32  1  0  0  0  0
 34 60  1  1  0  0  0
 34 30  1  0  0  0  0
 35 36  1  0  0  0  0
 37 35  1  0  0  0  0
 38 35  1  0  0  0  0
 39 41  1  0  0  0  0
 39 40  1  0  0  0  0
 42 39  1  0  0  0  0
 43 32  1  0  0  0  0
 43 46  1  0  0  0  0
 44 43  1  0  0  0  0
 45 43  1  0  0  0  0
 47 50  1  0  0  0  0
 48 47  1  0  0  0  0
 49 47  1  0  0  0  0
 51 59  1  0  0  0  0
 51 55  1  0  0  0  0
 53 51  1  0  0  0  0
 54 51  1  0  0  0  0
 56 59  1  0  0  0  0
 58 59  1  0  0  0  0
 59 57  1  0  0  0  0
 61 56  1  0  0  0  0
 61  1  1  0  0  0  0
 61 52  1  1  0  0  0
M  END
$$$$
