CSD_code = ABOMAI | q = 1 | S = 0 | Stoichiometry = C20H18ClN4NiO(1+) | MND = 6
 OpenBabel04212201593D

 45 49  0  0  1  0  0  0  0  0999 V2000
    4.7056    2.6649    8.0747 Ni  0  0  0  0  0  0  0  0  0  0  0  0
    6.2846    2.7459    9.5270 Cl  0  0  0  0  0  0  0  0  0  0  0  0
    3.4970    1.5316    9.8518 O   0  0  0  0  0  0  0  0  0  0  0  0
    3.1191    2.4269    6.9342 N   0  0  0  0  0  0  0  0  0  0  0  0
    3.8938    4.2586    8.6302 N   0  0  0  0  0  0  0  0  0  0  0  0
    5.9354    3.5906    6.4825 N   0  0  0  0  0  0  0  0  0  0  0  0
    5.5476    1.1485    7.4838 N   0  0  0  0  0  0  0  0  0  0  0  0
    2.7750    4.5455    7.9380 C   0  0  0  0  0  0  0  0  0  0  0  0
    2.1112    5.7585    8.1107 C   0  0  0  0  0  0  0  0  0  0  0  0
    1.2224    5.9813    7.5446 H   0  0  0  0  0  0  0  0  0  0  0  0
    2.6017    6.6857    9.0136 C   0  0  0  0  0  0  0  0  0  0  0  0
    2.0979    7.6287    9.1571 H   0  0  0  0  0  0  0  0  0  0  0  0
    3.7476    6.3722    9.7249 C   0  0  0  0  0  0  0  0  0  0  0  0
    4.1671    7.0562   10.4441 H   0  0  0  0  0  0  0  0  0  0  0  0
    4.3601    5.1498    9.4986 C   0  0  0  0  0  0  0  0  0  0  0  0
    5.2568    4.8744   10.0395 H   0  0  0  0  0  0  0  0  0  0  0  0
    2.3204    3.5039    7.0114 C   0  0  0  0  0  0  0  0  0  0  0  0
    1.1481    3.5947    6.2623 C   0  0  0  0  0  0  0  0  0  0  0  0
    0.5117    4.4604    6.3362 H   0  0  0  0  0  0  0  0  0  0  0  0
    0.7977    2.5546    5.4204 C   0  0  0  0  0  0  0  0  0  0  0  0
   -0.1070    2.6054    4.8352 H   0  0  0  0  0  0  0  0  0  0  0  0
    1.6305    1.4497    5.3491 C   0  0  0  0  0  0  0  0  0  0  0  0
    1.3976    0.6138    4.7101 H   0  0  0  0  0  0  0  0  0  0  0  0
    2.7784    1.4336    6.1244 C   0  0  0  0  0  0  0  0  0  0  0  0
    3.4390    0.5783    6.0870 H   0  0  0  0  0  0  0  0  0  0  0  0
    6.5627    1.3046    6.6213 C   0  0  2  0  0  3  0  0  0  0  0  0
    7.2487    0.1992    6.1219 C   0  0  0  0  0  0  0  0  0  0  0  0
    8.0425    0.3343    5.4060 H   0  0  0  0  0  0  0  0  0  0  0  0
    6.8982   -1.0702    6.5444 C   0  0  0  0  0  0  0  0  0  0  0  0
    7.4279   -1.9346    6.1759 H   0  0  0  0  0  0  0  0  0  0  0  0
    5.8583   -1.2073    7.4513 C   0  0  0  0  0  0  0  0  0  0  0  0
    5.5571   -2.1753    7.8164 H   0  0  0  0  0  0  0  0  0  0  0  0
    5.2053   -0.0682    7.8904 C   0  0  0  0  0  0  0  0  0  0  0  0
    4.3873   -0.1321    8.5969 H   0  0  0  0  0  0  0  0  0  0  0  0
    6.9021    2.6878    6.2493 C   0  0  2  0  0  3  0  0  0  0  0  0
    8.1433    3.0497    5.7335 C   0  0  0  0  0  0  0  0  0  0  0  0
    8.9192    2.3151    5.5943 H   0  0  0  0  0  0  0  0  0  0  0  0
    8.3830    4.3808    5.4362 C   0  0  0  0  0  0  0  0  0  0  0  0
    9.3400    4.6885    5.0444 H   0  0  0  0  0  0  0  0  0  0  0  0
    7.3757    5.3060    5.6558 C   0  0  0  0  0  0  0  0  0  0  0  0
    7.5180    6.3507    5.4321 H   0  0  0  0  0  0  0  0  0  0  0  0
    6.1731    4.8591    6.1813 C   0  0  0  0  0  0  0  0  0  0  0  0
    5.3629    5.5537    6.3668 H   0  0  0  0  0  0  0  0  0  0  0  0
    2.7865    1.9811   10.3172 H   0  0  0  0  0  0  0  0  0  0  0  0
    4.2570    1.5207   10.4533 H   0  0  0  0  0  0  0  0  0  0  0  0
  1  5  1  0  0  0  0
  1  2  1  0  0  0  0
  3 44  1  0  0  0  0
  3 45  1  0  0  0  0
  4 17  1  0  0  0  0
  4  1  1  0  0  0  0
  5 15  1  0  0  0  0
  6  1  1  0  0  0  0
  7 33  1  0  0  0  0
  7  1  1  0  0  0  0
  8  9  1  0  0  0  0
  8  5  1  0  0  0  0
  9 11  2  0  0  0  0
 10  9  1  0  0  0  0
 11 12  1  0  0  0  0
 11 13  1  0  0  0  0
 13 14  1  0  0  0  0
 15 13  2  0  0  0  0
 15 16  1  0  0  0  0
 17  8  2  0  0  0  0
 18 19  1  0  0  0  0
 18 17  1  0  0  0  0
 20 18  2  0  0  0  0
 21 20  1  0  0  0  0
 22 20  1  0  0  0  0
 22 24  2  0  0  0  0
 23 22  1  0  0  0  0
 24  4  1  0  0  0  0
 25 24  1  0  0  0  0
 26 27  1  1  0  0  0
 26  7  1  0  0  0  0
 27 29  2  0  0  0  0
 28 27  1  0  0  0  0
 29 31  1  0  0  0  0
 30 29  1  0  0  0  0
 31 32  1  0  0  0  0
 31 33  2  0  0  0  0
 33 34  1  0  0  0  0
 35 36  1  1  0  0  0
 35  6  1  0  0  0  0
 35 26  1  0  0  0  0
 37 36  1  0  0  0  0
 38 40  1  0  0  0  0
 38 36  2  0  0  0  0
 39 38  1  0  0  0  0
 40 42  2  0  0  0  0
 41 40  1  0  0  0  0
 42 43  1  0  0  0  0
 42  6  1  0  0  0  0
M  END
$$$$
