CSD_code = ABOQUE | q = 0 | S = 0 | Stoichiometry = C11H12ClF3N2Pt | MND = 4
 OpenBabel04212201593D

 30 32  0  0  0  0  0  0  0  0999 V2000
    3.1190    0.8968    3.6533 Pt  0  0  2  0  0  0  0  0  0  0  0  0
    4.1699    2.7576    4.2192 Cl  0  0  0  0  0  0  0  0  0  0  0  0
    4.5807    0.4157    2.0902 N   0  0  0  0  0  4  0  0  0  0  0  0
    2.2816   -0.7371    3.0379 N   0  0  0  0  0  0  0  0  0  0  0  0
    5.9833    0.6492    2.4257 C   0  0  0  0  0  0  0  0  0  0  0  0
    6.1229    1.7056    2.6501 H   0  0  0  0  0  0  0  0  0  0  0  0
    6.6428    0.3614    1.5976 H   0  0  0  0  0  0  0  0  0  0  0  0
    6.2534    0.0778    3.3134 H   0  0  0  0  0  0  0  0  0  0  0  0
    4.2243    1.2209    0.9233 C   0  0  0  0  0  0  0  0  0  0  0  0
    4.3934    2.2723    1.1551 H   0  0  0  0  0  0  0  0  0  0  0  0
    3.1712    1.0907    0.6723 H   0  0  0  0  0  0  0  0  0  0  0  0
    4.8338    0.9459    0.0521 H   0  0  0  0  0  0  0  0  0  0  0  0
    4.3556   -1.0184    1.8419 C   0  0  0  0  0  0  0  0  0  0  0  0
    4.8669   -1.5754    2.6324 H   0  0  0  0  0  0  0  0  0  0  0  0
    4.7858   -1.3175    0.8746 H   0  0  0  0  0  0  0  0  0  0  0  0
    2.8649   -1.3848    1.8919 C   0  0  0  0  0  0  0  0  0  0  0  0
    2.3539   -1.0324    0.9868 H   0  0  0  0  0  0  0  0  0  0  0  0
    2.7457   -2.4745    1.9371 H   0  0  0  0  0  0  0  0  0  0  0  0
    1.2278   -1.1487    3.6554 C   0  0  0  0  0  0  0  0  0  0  0  0
    0.6995   -2.0568    3.3797 H   0  0  0  0  0  0  0  0  0  0  0  0
    0.7872   -0.3048    4.7308 C   0  0  0  0  0  0  0  0  0  0  0  0
   -0.3305   -0.5673    5.5221 C   0  0  0  0  0  0  0  0  0  0  0  0
   -0.7201    0.2842    6.5329 C   0  0  0  0  0  0  0  0  0  0  0  0
   -1.5835    0.0780    7.1430 H   0  0  0  0  0  0  0  0  0  0  0  0
    0.0382    1.4248    6.7422 C   0  0  0  0  0  0  0  0  0  0  0  0
    1.1605    1.7106    5.9641 C   0  0  0  0  0  0  0  0  0  0  0  0
    1.5732    0.8650    4.9427 C   0  0  0  0  0  0  0  0  0  0  0  0
   -1.0517   -1.6845    5.2916 F   0  0  0  0  0  0  0  0  0  0  0  0
   -0.3263    2.2665    7.7212 F   0  0  0  0  0  0  0  0  0  0  0  0
    1.8318    2.8387    6.2372 F   0  0  0  0  0  0  0  0  0  0  0  0
  1  2  1  6  0  0  0
  1 27  2  0  0  0  0
  3  5  1  0  0  0  0
  3  1  1  0  0  0  0
  4  1  1  0  0  0  0
  4 19  1  0  0  0  0
  5  6  1  0  0  0  0
  5  8  1  0  0  0  0
  7  5  1  0  0  0  0
  9 10  1  0  0  0  0
  9  3  1  0  0  0  0
 11  9  1  0  0  0  0
 12  9  1  0  0  0  0
 13 16  1  0  0  0  0
 13  3  1  0  0  0  0
 13 14  1  0  0  0  0
 15 13  1  0  0  0  0
 16 18  1  0  0  0  0
 16  4  1  0  0  0  0
 17 16  1  0  0  0  0
 19 21  2  0  0  0  0
 20 19  1  0  0  0  0
 21 27  1  0  0  0  0
 21 22  1  0  0  0  0
 22 23  2  0  0  0  0
 23 25  1  0  0  0  0
 23 24  1  0  0  0  0
 25 29  1  0  0  0  0
 26 30  1  0  0  0  0
 26 25  2  0  0  0  0
 27 26  1  0  0  0  0
 28 22  1  0  0  0  0
M  END
$$$$
