CSD_code = ABOZOH | q = 0 | S = 0 | Stoichiometry = C12H18Cl2N4Zn | MND = 4
 OpenBabel04212201593D

 37 39  0  0  1  0  0  0  0  0999 V2000
    8.3169   -1.8357    3.1371 Zn  0  0  0  0  0  0  0  0  0  0  0  0
    6.1316   -1.3790    2.8775 Cl  0  0  0  0  0  0  0  0  0  0  0  0
    9.4188   -3.5345    2.3193 Cl  0  0  0  0  0  0  0  0  0  0  0  0
    8.9739   -0.0078    2.3119 N   0  0  1  0  0  0  0  0  0  0  0  0
    8.8852    0.2359    1.0091 C   0  0  1  0  0  3  0  0  0  0  0  0
    8.9651   -0.8377   -0.0083 C   0  0  0  0  0  0  0  0  0  0  0  0
    9.6875   -1.5942    0.2896 H   0  0  0  0  0  0  0  0  0  0  0  0
    9.2402   -0.4238   -0.9750 H   0  0  0  0  0  0  0  0  0  0  0  0
    7.9933   -1.3238   -0.1015 H   0  0  0  0  0  0  0  0  0  0  0  0
    8.6918    1.6081    0.8075 C   0  0  0  0  0  0  0  0  0  0  0  0
    8.5832    2.1112   -0.1309 H   0  0  0  0  0  0  0  0  0  0  0  0
    8.6554    2.1750    2.0641 C   0  0  0  0  0  0  0  0  0  0  0  0
    8.4611    3.5911    2.4654 C   0  0  0  0  0  0  0  0  0  0  0  0
    7.5944    3.6928    3.1175 H   0  0  0  0  0  0  0  0  0  0  0  0
    8.2981    4.1951    1.5778 H   0  0  0  0  0  0  0  0  0  0  0  0
    9.3372    3.9764    2.9874 H   0  0  0  0  0  0  0  0  0  0  0  0
    8.8349    1.1687    2.9456 N   0  0  0  0  0  0  0  0  0  0  0  0
    8.9009    1.2403    4.3772 C   0  0  0  0  0  0  0  0  0  0  0  0
    9.7895    0.6881    4.7025 H   0  0  0  0  0  0  0  0  0  0  0  0
    9.0200    2.2878    4.6560 H   0  0  0  0  0  0  0  0  0  0  0  0
    7.6547    0.6291    5.0585 C   0  0  0  0  0  0  0  0  0  0  0  0
    6.9324    0.3210    4.2900 H   0  0  0  0  0  0  0  0  0  0  0  0
    7.1801    1.3491    5.7236 H   0  0  0  0  0  0  0  0  0  0  0  0
    8.0034   -0.5313    5.8286 N   0  0  2  0  0  0  0  0  0  0  0  0
    7.9476   -0.7031    7.1642 C   0  0  1  0  0  3  0  0  0  0  0  0
    7.4470    0.3313    8.1045 C   0  0  0  0  0  0  0  0  0  0  0  0
    8.0277    1.2500    8.0243 H   0  0  0  0  0  0  0  0  0  0  0  0
    7.5266   -0.0401    9.1220 H   0  0  0  0  0  0  0  0  0  0  0  0
    6.4016    0.5627    7.9027 H   0  0  0  0  0  0  0  0  0  0  0  0
    8.4225   -1.9738    7.4191 C   0  0  0  0  0  0  0  0  0  0  0  0
    8.5150   -2.4488    8.3738 H   0  0  0  0  0  0  0  0  0  0  0  0
    8.7533   -2.5196    6.1726 C   0  0  0  0  0  0  0  0  0  0  0  0
    9.2968   -3.8676    5.8838 C   0  0  0  0  0  0  0  0  0  0  0  0
    9.7426   -3.8959    4.8933 H   0  0  0  0  0  0  0  0  0  0  0  0
    8.4934   -4.6032    5.9156 H   0  0  0  0  0  0  0  0  0  0  0  0
   10.0390   -4.1424    6.6298 H   0  0  0  0  0  0  0  0  0  0  0  0
    8.4956   -1.6249    5.2244 N   0  0  0  0  0  0  0  0  0  0  0  0
  1 37  1  0  0  0  0
  2  1  1  0  0  0  0
  3  1  1  0  0  0  0
  4 17  1  1  0  0  0
  4  1  1  0  0  0  0
  5  6  1  1  0  0  0
  5  4  1  0  0  0  0
  6  7  1  0  0  0  0
  8  6  1  0  0  0  0
  9  6  1  0  0  0  0
 10  5  1  0  0  0  0
 10 12  2  0  0  0  0
 11 10  1  0  0  0  0
 12 13  1  0  0  0  0
 12 17  1  0  0  0  0
 13 16  1  0  0  0  0
 13 14  1  0  0  0  0
 15 13  1  0  0  0  0
 17 18  1  0  0  0  0
 18 20  1  0  0  0  0
 18 19  1  0  0  0  0
 18 21  1  0  0  0  0
 21 23  1  0  0  0  0
 22 21  1  0  0  0  0
 24 21  1  1  0  0  0
 24 25  1  0  0  0  0
 25 30  1  0  0  0  0
 25 26  1  6  0  0  0
 26 28  1  0  0  0  0
 27 26  1  0  0  0  0
 29 26  1  0  0  0  0
 30 31  1  0  0  0  0
 32 30  2  0  0  0  0
 33 35  1  0  0  0  0
 33 32  1  0  0  0  0
 33 36  1  0  0  0  0
 34 33  1  0  0  0  0
 37 24  1  0  0  0  0
 37 32  1  0  0  0  0
M  END
$$$$
