CSD_code = ABUFIM | q = 0 | S = 0 | Stoichiometry = C22H15BrO4PRe | MND = 6
 OpenBabel04212201593D

 44 47  0  0  0  0  0  0  0  0999 V2000
   30.2134   -3.2468    6.3896 Re  0  0  0  0  0  0  0  0  0  0  0  0
   28.5011   -2.8983    8.2602 Br  0  0  0  0  0  0  0  0  0  0  0  0
   30.9602   -1.0407    7.0570 P   0  0  0  0  0  4  0  0  0  0  0  0
   28.8678   -1.8734    5.2170 O   0  0  0  0  0  0  0  0  0  0  0  0
   32.0527   -4.9889    8.1624 O   0  0  0  0  0  1  0  0  0  0  0  0
   32.0544   -3.4389    3.9190 O   0  0  0  0  0  1  0  0  0  0  0  0
   28.4392   -5.6263    5.5106 O   0  0  0  0  0  1  0  0  0  0  0  0
   29.5601    0.1011    7.3468 C   0  0  0  0  0  0  0  0  0  0  0  0
   29.5863    0.9769    8.4234 C   0  0  0  0  0  0  0  0  0  0  0  0
   28.5556    1.8793    8.6290 C   0  0  0  0  0  0  0  0  0  0  0  0
   27.4887    1.9379    7.7461 C   0  0  0  0  0  0  0  0  0  0  0  0
   27.4458    1.0752    6.6698 C   0  0  0  0  0  0  0  0  0  0  0  0
   28.4608    0.1371    6.4644 C   0  0  0  0  0  0  0  0  0  0  0  0
   28.2851   -0.8165    5.3799 C   0  0  0  0  0  3  0  0  0  0  0  0
   31.9920   -0.8416    8.5398 C   0  0  0  0  0  0  0  0  0  0  0  0
   31.8369   -1.7492    9.5832 C   0  0  0  0  0  0  0  0  0  0  0  0
   32.6122   -1.6337   10.7226 C   0  0  0  0  0  0  0  0  0  0  0  0
   33.5486   -0.6184   10.8237 C   0  0  0  0  0  0  0  0  0  0  0  0
   33.7071    0.2862    9.7853 C   0  0  0  0  0  0  0  0  0  0  0  0
   32.9333    0.1798    8.6449 C   0  0  0  0  0  0  0  0  0  0  0  0
   31.9221   -0.1404    5.7974 C   0  0  0  0  0  0  0  0  0  0  0  0
   31.5106    1.0329    5.1786 C   0  0  0  0  0  0  0  0  0  0  0  0
   32.2995    1.6019    4.1925 C   0  0  0  0  0  0  0  0  0  0  0  0
   33.4927    1.0067    3.8217 C   0  0  0  0  0  0  0  0  0  0  0  0
   33.9069   -0.1647    4.4385 C   0  0  0  0  0  0  0  0  0  0  0  0
   33.1227   -0.7390    5.4183 C   0  0  0  0  0  0  0  0  0  0  0  0
   31.3713   -4.3620    7.4837 C   0  0  0  0  0  2  0  0  0  0  0  0
   31.3909   -3.3702    4.8497 C   0  0  0  0  0  2  0  0  0  0  0  0
   29.1434   -4.7854    5.8186 C   0  0  0  0  0  2  0  0  0  0  0  0
   30.4127    0.9437    9.1182 H   0  0  0  0  0  0  0  0  0  0  0  0
   28.5894    2.5395    9.4825 H   0  0  0  0  0  0  0  0  0  0  0  0
   26.6906    2.6471    7.9028 H   0  0  0  0  0  0  0  0  0  0  0  0
   26.6095    1.0987    5.9859 H   0  0  0  0  0  0  0  0  0  0  0  0
   27.4935   -0.5470    4.6592 H   0  0  0  0  0  0  0  0  0  0  0  0
   31.1060   -2.5424    9.5084 H   0  0  0  0  0  0  0  0  0  0  0  0
   32.4863   -2.3404   11.5285 H   0  0  0  0  0  0  0  0  0  0  0  0
   34.1583   -0.5311   11.7106 H   0  0  0  0  0  0  0  0  0  0  0  0
   34.4378    1.0780    9.8632 H   0  0  0  0  0  0  0  0  0  0  0  0
   33.0598    0.8863    7.8357 H   0  0  0  0  0  0  0  0  0  0  0  0
   30.5817    1.5091    5.4640 H   0  0  0  0  0  0  0  0  0  0  0  0
   31.9768    2.5142    3.7124 H   0  0  0  0  0  0  0  0  0  0  0  0
   34.1000    1.4535    3.0490 H   0  0  0  0  0  0  0  0  0  0  0  0
   34.8359   -0.6319    4.1488 H   0  0  0  0  0  0  0  0  0  0  0  0
   33.4280   -1.6585    5.9047 H   0  0  0  0  0  0  0  0  0  0  0  0
  1  3  1  0  0  0  0
  1 27  1  0  0  0  0
  1  2  1  0  0  0  0
  3  8  1  0  0  0  0
  3 15  1  0  0  0  0
  4 14  1  0  0  0  0
  4  1  1  0  0  0  0
  6 28  1  0  0  0  0
  7 29  1  0  0  0  0
  8  9  1  0  0  0  0
  9 10  2  0  0  0  0
  9 30  1  0  0  0  0
 10 31  1  0  0  0  0
 11 32  1  0  0  0  0
 11 10  1  0  0  0  0
 12 11  2  0  0  0  0
 13 12  1  0  0  0  0
 13  8  2  0  0  0  0
 14 13  1  0  0  0  0
 15 20  2  0  0  0  0
 15 16  1  0  0  0  0
 16 17  2  0  0  0  0
 17 18  1  0  0  0  0
 17 36  1  0  0  0  0
 18 37  1  0  0  0  0
 19 38  1  0  0  0  0
 19 18  2  0  0  0  0
 20 19  1  0  0  0  0
 21  3  1  0  0  0  0
 22 40  1  0  0  0  0
 22 21  2  0  0  0  0
 23 22  1  0  0  0  0
 24 23  2  0  0  0  0
 24 25  1  0  0  0  0
 25 26  2  0  0  0  0
 26 21  1  0  0  0  0
 26 44  1  0  0  0  0
 27  5  1  0  0  0  0
 28  1  1  0  0  0  0
 29  1  1  0  0  0  0
 33 12  1  0  0  0  0
 34 14  1  0  0  0  0
 35 16  1  0  0  0  0
 39 20  1  0  0  0  0
 41 23  1  0  0  0  0
 42 24  1  0  0  0  0
 43 25  1  0  0  0  0
M  END
$$$$
