CSD_code = ABUXIF | q = 0 | S = 0 | Stoichiometry = C16H28Cl2N2Zn | MND = 4
 OpenBabel04212201593D

 49 53  0  0  1  0  0  0  0  0999 V2000
   -0.1060   -0.1783   -3.0302 Zn  0  0  0  0  0  0  0  0  0  0  0  0
   -0.3640   -1.8091   -4.5313 Cl  0  0  0  0  0  0  0  0  0  0  0  0
    1.2405   -0.4468   -1.2797 Cl  0  0  0  0  0  0  0  0  0  0  0  0
   -0.5574    1.7441   -3.9052 N   0  0  2  0  0  4  0  0  0  0  0  0
    0.5707    2.2525   -4.7219 C   0  0  1  0  0  0  0  0  0  0  0  0
    0.2772    3.2354   -5.1326 H   0  0  0  0  0  0  0  0  0  0  0  0
    1.8016    2.4442   -3.8363 C   0  0  0  0  0  0  0  0  0  0  0  0
    2.6294    2.8003   -4.4513 H   0  0  0  0  0  0  0  0  0  0  0  0
    2.0881    1.4775   -3.4124 H   0  0  0  0  0  0  0  0  0  0  0  0
    1.5249    3.4293   -2.7100 C   0  0  0  0  0  0  0  0  0  0  0  0
    1.3355    4.4235   -3.1252 H   0  0  0  0  0  0  0  0  0  0  0  0
    2.3901    3.4981   -2.0509 H   0  0  0  0  0  0  0  0  0  0  0  0
    0.3099    2.9479   -1.9306 C   0  0  0  0  0  0  0  0  0  0  0  0
    0.0370    3.6746   -1.1634 H   0  0  0  0  0  0  0  0  0  0  0  0
    0.5574    2.0075   -1.4398 H   0  0  0  0  0  0  0  0  0  0  0  0
   -0.8730    2.7542   -2.8755 C   0  0  2  0  0  0  0  0  0  0  0  0
   -1.0488    3.7156   -3.3937 H   0  0  0  0  0  0  0  0  0  0  0  0
   -2.1694    2.4433   -2.1119 C   0  0  1  0  0  0  0  0  0  0  0  0
   -2.3089    3.2571   -1.3911 H   0  0  0  0  0  0  0  0  0  0  0  0
   -3.3183    2.4286   -3.1113 C   0  0  0  0  0  0  0  0  0  0  0  0
   -3.3447    3.3596   -3.6818 H   0  0  0  0  0  0  0  0  0  0  0  0
   -4.2783    2.3271   -2.6065 H   0  0  0  0  0  0  0  0  0  0  0  0
   -3.0422    1.2505   -4.0359 C   0  0  1  0  0  0  0  0  0  0  0  0
   -3.8187    1.1853   -4.8058 H   0  0  0  0  0  0  0  0  0  0  0  0
   -1.7239    1.5021   -4.7739 C   0  0  0  0  0  0  0  0  0  0  0  0
   -1.5059    0.6311   -5.3915 H   0  0  0  0  0  0  0  0  0  0  0  0
   -1.8686    2.3750   -5.4284 H   0  0  0  0  0  0  0  0  0  0  0  0
   -3.0684   -0.0722   -3.2559 C   0  0  2  0  0  0  0  0  0  0  0  0
   -2.7559   -0.8743   -3.9353 H   0  0  0  0  0  0  0  0  0  0  0  0
   -4.4886   -0.4065   -2.7763 C   0  0  0  0  0  0  0  0  0  0  0  0
   -5.1428   -0.4615   -3.6482 H   0  0  0  0  0  0  0  0  0  0  0  0
   -4.8755    0.3736   -2.1195 H   0  0  0  0  0  0  0  0  0  0  0  0
   -4.5025   -1.7318   -2.0235 C   0  0  0  0  0  0  0  0  0  0  0  0
   -4.1902   -2.5365   -2.6922 H   0  0  0  0  0  0  0  0  0  0  0  0
   -5.5114   -1.9553   -1.6719 H   0  0  0  0  0  0  0  0  0  0  0  0
   -3.5313   -1.6389   -0.8535 C   0  0  0  0  0  0  0  0  0  0  0  0
   -3.4741   -2.5916   -0.3257 H   0  0  0  0  0  0  0  0  0  0  0  0
   -3.8752   -0.8872   -0.1402 H   0  0  0  0  0  0  0  0  0  0  0  0
   -2.1420   -1.2951   -1.3822 C   0  0  0  0  0  0  0  0  0  0  0  0
   -1.8143   -2.1107   -2.0344 H   0  0  0  0  0  0  0  0  0  0  0  0
   -1.4286   -1.2118   -0.5594 H   0  0  0  0  0  0  0  0  0  0  0  0
   -2.0744   -0.0514   -2.1698 N   0  0  1  0  0  4  0  0  0  0  0  0
   -2.1877    1.1349   -1.3173 C   0  0  0  0  0  0  0  0  0  0  0  0
   -3.1193    1.1157   -0.7373 H   0  0  0  0  0  0  0  0  0  0  0  0
   -1.3545    1.1128   -0.6117 H   0  0  0  0  0  0  0  0  0  0  0  0
    0.9211    1.3294   -5.8846 C   0  0  0  0  0  0  0  0  0  0  0  0
    1.0611    0.3081   -5.5366 H   0  0  0  0  0  0  0  0  0  0  0  0
    1.8525    1.6640   -6.3348 H   0  0  0  0  0  0  0  0  0  0  0  0
    0.1587    1.3327   -6.6581 H   0  0  0  0  0  0  0  0  0  0  0  0
  1 42  1  0  0  0  0
  1  3  1  0  0  0  0
  2  1  1  0  0  0  0
  4 25  1  6  0  0  0
  4  1  1  0  0  0  0
  4 16  1  0  0  0  0
  5  6  1  6  0  0  0
  5  4  1  0  0  0  0
  5  7  1  0  0  0  0
  7  9  1  0  0  0  0
  7 10  1  0  0  0  0
  8  7  1  0  0  0  0
 10 12  1  0  0  0  0
 10 13  1  0  0  0  0
 11 10  1  0  0  0  0
 13 15  1  0  0  0  0
 13 14  1  0  0  0  0
 16 17  1  6  0  0  0
 16 18  1  0  0  0  0
 16 13  1  0  0  0  0
 18 19  1  1  0  0  0
 18 43  1  0  0  0  0
 20 22  1  0  0  0  0
 20 18  1  0  0  0  0
 21 20  1  0  0  0  0
 23 24  1  6  0  0  0
 23 28  1  0  0  0  0
 23 20  1  0  0  0  0
 25 23  1  0  0  0  0
 26 25  1  0  0  0  0
 27 25  1  0  0  0  0
 28 29  1  6  0  0  0
 28 30  1  0  0  0  0
 28 42  1  0  0  0  0
 30 32  1  0  0  0  0
 30 33  1  0  0  0  0
 31 30  1  0  0  0  0
 33 35  1  0  0  0  0
 33 36  1  0  0  0  0
 34 33  1  0  0  0  0
 36 37  1  0  0  0  0
 36 38  1  0  0  0  0
 39 36  1  0  0  0  0
 39 41  1  0  0  0  0
 40 39  1  0  0  0  0
 42 39  1  1  0  0  0
 42 43  1  0  0  0  0
 43 44  1  0  0  0  0
 43 45  1  0  0  0  0
 46 47  1  0  0  0  0
 46  5  1  0  0  0  0
 48 46  1  0  0  0  0
 49 46  1  0  0  0  0
M  END
$$$$
