CSD_code = ACAQAW | q = 0 | S = 0 | Stoichiometry = C2H8I2N4O2Zn | MND = 4
 OpenBabel04212201593D

 19 18  0  0  0  0  0  0  0  0999 V2000
    6.3424    3.8478    9.0560 Zn  0  0  0  0  0  0  0  0  0  0  0  0
    8.2294    3.3925    7.4662 I   0  0  0  0  0  0  0  0  0  0  0  0
    4.4645    5.4090    9.6084 I   0  0  0  0  0  0  0  0  0  0  0  0
    7.0825    3.0752   10.8106 O   0  0  0  0  0  0  0  0  0  0  0  0
    5.2282    2.0099    8.5677 O   0  0  0  0  0  0  0  0  0  0  0  0
    7.7140    2.0208   10.9278 C   0  0  0  0  0  0  0  0  0  0  0  0
    4.1265    1.7269    8.0836 C   0  0  0  0  0  0  0  0  0  0  0  0
    7.4209    0.9288   10.2053 N   0  0  0  0  0  4  0  0  0  0  0  0
    8.7032    1.9176   11.8409 N   0  0  0  0  0  0  0  0  0  0  0  0
    4.0315    0.7750    7.1263 N   0  0  0  0  0  4  0  0  0  0  0  0
    2.9840    2.2776    8.5190 N   0  0  0  0  0  0  0  0  0  0  0  0
    6.7133    1.0276    9.4901 H   0  0  0  0  0  0  0  0  0  0  0  0
    8.0040    0.1121   10.2063 H   0  0  0  0  0  0  0  0  0  0  0  0
    9.2828    1.1018   11.9127 H   0  0  0  0  0  0  0  0  0  0  0  0
    8.9587    2.7405   12.3580 H   0  0  0  0  0  0  0  0  0  0  0  0
    3.1722    0.6057    6.6363 H   0  0  0  0  0  0  0  0  0  0  0  0
    4.8834    0.4303    6.7175 H   0  0  0  0  0  0  0  0  0  0  0  0
    2.1068    2.1114    8.0593 H   0  0  0  0  0  0  0  0  0  0  0  0
    3.0403    3.0586    9.1594 H   0  0  0  0  0  0  0  0  0  0  0  0
  1  3  1  0  0  0  0
  1  4  1  0  0  0  0
  2  1  1  0  0  0  0
  4  6  1  0  0  0  0
  5  1  1  0  0  0  0
  6  9  1  0  0  0  0
  7 11  1  0  0  0  0
  7  5  1  0  0  0  0
  8 13  1  0  0  0  0
  8  6  2  0  0  0  0
  9 14  1  0  0  0  0
  9 15  1  0  0  0  0
 10  7  2  0  0  0  0
 11 19  1  0  0  0  0
 12  8  1  0  0  0  0
 16 10  1  0  0  0  0
 17 10  1  0  0  0  0
 18 11  1  0  0  0  0
M  END
$$$$
