CSD_code = ACATUT | q = 0 | S = 0 | Stoichiometry = C6H8Cl4N4Pt | MND = 6
 OpenBabel04212201593D

 23 24  0  0  0  0  0  0  0  0999 V2000
   13.7218    4.2779    6.0471 Pt  0  0  0  0  0  0  0  0  0  0  0  0
   13.1282    2.8596    4.3237 Cl  0  0  0  0  0  0  0  0  0  0  0  0
   12.0184    3.3363    7.4608 Cl  0  0  0  0  0  0  0  0  0  0  0  0
   15.3163    5.2884    4.6381 Cl  0  0  0  0  0  0  0  0  0  0  0  0
   15.2607    2.7596    6.8323 Cl  0  0  0  0  0  0  0  0  0  0  0  0
   12.3161    5.6664    5.3065 N   0  0  0  0  0  0  0  0  0  0  0  0
   11.7109    5.4282    4.1496 N   0  0  0  0  0  0  0  0  0  0  0  0
   11.9168    4.5309    3.6917 H   0  0  0  0  0  0  0  0  0  0  0  0
   14.3091    5.4459    7.6610 N   0  0  0  0  0  0  0  0  0  0  0  0
   13.9321    5.0767    8.8815 N   0  0  0  0  0  0  0  0  0  0  0  0
   13.2244    4.3351    8.9516 H   0  0  0  0  0  0  0  0  0  0  0  0
   10.9087    6.4417    3.8144 C   0  0  0  0  0  3  0  0  0  0  0  0
   10.3297    6.4369    2.9132 H   0  0  0  0  0  0  0  0  0  0  0  0
   11.0072    7.3884    4.8154 C   0  0  0  0  0  0  0  0  0  0  0  0
   10.5038    8.3301    4.8773 H   0  0  0  0  0  0  0  0  0  0  0  0
   11.9098    6.8529    5.7334 C   0  0  0  0  0  0  0  0  0  0  0  0
   12.2642    7.2708    6.6547 H   0  0  0  0  0  0  0  0  0  0  0  0
   15.2039    6.4143    7.7899 C   0  0  0  0  0  3  0  0  0  0  0  0
   15.6637    6.8622    6.9307 H   0  0  0  0  0  0  0  0  0  0  0  0
   15.3946    6.6821    9.1451 C   0  0  0  0  0  0  0  0  0  0  0  0
   16.0516    7.4098    9.5729 H   0  0  0  0  0  0  0  0  0  0  0  0
   14.5620    5.8025    9.8092 C   0  0  0  0  0  0  0  0  0  0  0  0
   14.3928    5.6586   10.8569 H   0  0  0  0  0  0  0  0  0  0  0  0
  1  5  1  0  0  0  0
  1  3  1  0  0  0  0
  1  9  1  0  0  0  0
  2  1  1  0  0  0  0
  4  1  1  0  0  0  0
  6 16  1  0  0  0  0
  6  1  1  0  0  0  0
  7  6  1  0  0  0  0
  8  7  1  0  0  0  0
  9 18  1  0  0  0  0
  9 10  1  0  0  0  0
 10 11  1  0  0  0  0
 10 22  1  0  0  0  0
 12  7  1  0  0  0  0
 12 14  1  0  0  0  0
 13 12  1  0  0  0  0
 14 15  1  0  0  0  0
 14 16  2  0  0  0  0
 16 17  1  0  0  0  0
 18 20  1  0  0  0  0
 19 18  1  0  0  0  0
 20 21  1  0  0  0  0
 20 22  2  0  0  0  0
 22 23  1  0  0  0  0
M  END
$$$$
