CSD_code = ACAWOR | q = 0 | S = 0 | Stoichiometry = C26H28Br2N4Pd | MND = 4
 OpenBabel04212201593D

 61 64  0  0  0  0  0  0  0  0999 V2000
   10.5855   -0.0002   -0.0000 Pd  0  0  0  0  0  0  0  0  0  0  0  0
   11.2915    1.6754    1.6216 Br  0  0  0  0  0  0  0  0  0  0  0  0
    8.7098    0.6489    0.1446 C   0  0  0  0  0  0  0  0  0  0  0  0
    6.8598    1.8475   -0.1819 C   0  0  0  0  0  0  0  0  0  0  0  0
    6.6302    0.9569    0.8832 C   0  0  0  0  0  0  0  0  0  0  0  0
    5.4154    0.9280    1.5478 C   0  0  0  0  0  0  0  0  0  0  0  0
    4.4422    1.8094    1.1158 C   0  0  0  0  0  0  0  0  0  0  0  0
    4.6696    2.6916    0.0612 C   0  0  0  0  0  0  0  0  0  0  0  0
    5.8796    2.7294   -0.6059 C   0  0  0  0  0  0  0  0  0  0  0  0
    8.8415    2.2920   -1.6788 C   0  0  0  0  0  0  0  0  0  0  0  0
    9.3300    3.6424   -1.2398 C   0  0  0  0  0  0  0  0  0  0  0  0
    9.1037    4.7585   -1.9038 C   0  0  0  0  0  0  0  0  0  0  0  0
    8.0413   -0.8002    2.0151 C   0  0  0  0  0  0  0  0  0  0  0  0
    8.2555   -0.2213    3.3835 C   0  0  0  0  0  0  0  0  0  0  0  0
    7.6170   -0.6297    4.4622 C   0  0  0  0  0  0  0  0  0  0  0  0
    8.1485    1.6117   -0.6075 N   0  0  0  0  0  0  0  0  0  0  0  0
    7.7943    0.2369    1.0386 N   0  0  0  0  0  0  0  0  0  0  0  0
    5.2406    0.2534    2.3707 H   0  0  0  0  0  0  0  0  0  0  0  0
    3.4823    1.8179    1.6089 H   0  0  0  0  0  0  0  0  0  0  0  0
    3.8807    3.3640   -0.2392 H   0  0  0  0  0  0  0  0  0  0  0  0
    6.0561    3.4202   -1.4148 H   0  0  0  0  0  0  0  0  0  0  0  0
    8.1789    2.3739   -2.5456 H   0  0  0  0  0  0  0  0  0  0  0  0
    9.7089    1.6559   -1.9540 H   0  0  0  0  0  0  0  0  0  0  0  0
    9.8989    3.6429   -0.3185 H   0  0  0  0  0  0  0  0  0  0  0  0
    7.2069   -1.5085    2.0129 H   0  0  0  0  0  0  0  0  0  0  0  0
    8.9597   -1.3330    1.6889 H   0  0  0  0  0  0  0  0  0  0  0  0
    8.9901    0.5724    3.4318 H   0  0  0  0  0  0  0  0  0  0  0  0
    6.8868   -1.4230    4.4264 H   0  0  0  0  0  0  0  0  0  0  0  0
    7.8063   -0.1984    5.4294 H   0  0  0  0  0  0  0  0  0  0  0  0
    9.4811    5.7063   -1.5622 H   0  0  0  0  0  0  0  0  0  0  0  0
    8.5426    4.7703   -2.8250 H   0  0  0  0  0  0  0  0  0  0  0  0
    9.8796   -1.6754   -1.6227 Br  0  0  0  0  0  0  0  0  0  0  0  0
   12.4615   -0.6486   -0.1442 C   0  0  0  0  0  3  0  0  0  0  0  0
   13.0228   -1.6114    0.6078 N   0  0  0  0  0  0  0  0  0  0  0  0
   14.3114   -1.8474    0.1820 C   0  0  0  0  0  0  0  0  0  0  0  0
   14.5410   -0.9570   -0.8831 C   0  0  0  0  0  0  0  0  0  0  0  0
   15.7557   -0.9283   -1.5479 C   0  0  0  0  0  0  0  0  0  0  0  0
   16.7287   -1.8099   -1.1161 C   0  0  0  0  0  0  0  0  0  0  0  0
   16.5014   -2.6920   -0.0613 C   0  0  0  0  0  0  0  0  0  0  0  0
   15.2915   -2.7295    0.6060 C   0  0  0  0  0  0  0  0  0  0  0  0
   15.1150   -3.4201    1.4151 H   0  0  0  0  0  0  0  0  0  0  0  0
   17.2902   -3.3645    0.2391 H   0  0  0  0  0  0  0  0  0  0  0  0
   17.6886   -1.8187   -1.6093 H   0  0  0  0  0  0  0  0  0  0  0  0
   15.9304   -0.2539   -2.3709 H   0  0  0  0  0  0  0  0  0  0  0  0
   13.3769   -0.2368   -1.0385 N   0  0  0  0  0  0  0  0  0  0  0  0
   13.1297    0.8001   -2.0151 C   0  0  0  0  0  0  0  0  0  0  0  0
   12.9156    0.2211   -3.3835 C   0  0  0  0  0  0  0  0  0  0  0  0
   13.5540    0.6296   -4.4622 C   0  0  0  0  0  0  0  0  0  0  0  0
   14.2840    1.4231   -4.4265 H   0  0  0  0  0  0  0  0  0  0  0  0
   13.3648    0.1984   -5.4294 H   0  0  0  0  0  0  0  0  0  0  0  0
   12.1811   -0.5726   -3.4318 H   0  0  0  0  0  0  0  0  0  0  0  0
   13.9639    1.5086   -2.0129 H   0  0  0  0  0  0  0  0  0  0  0  0
   12.2112    1.3327   -1.6889 H   0  0  0  0  0  0  0  0  0  0  0  0
   12.3297   -2.2917    1.6791 C   0  0  0  0  0  0  0  0  0  0  0  0
   11.8408   -3.6419    1.2399 C   0  0  0  0  0  0  0  0  0  0  0  0
   12.0668   -4.7581    1.9039 C   0  0  0  0  0  0  0  0  0  0  0  0
   11.6890   -5.7058    1.5621 H   0  0  0  0  0  0  0  0  0  0  0  0
   12.6280   -4.7703    2.8249 H   0  0  0  0  0  0  0  0  0  0  0  0
   11.2721   -3.6421    0.3185 H   0  0  0  0  0  0  0  0  0  0  0  0
   12.9923   -2.3738    2.5458 H   0  0  0  0  0  0  0  0  0  0  0  0
   11.4624   -1.6554    1.9543 H   0  0  0  0  0  0  0  0  0  0  0  0
  1  3  2  0  0  0  0
  1  2  1  0  0  0  0
  3 17  1  0  0  0  0
  4  5  1  0  0  0  0
  5 17  1  0  0  0  0
  5  6  2  0  0  0  0
  6 18  1  0  0  0  0
  7  6  1  0  0  0  0
  7 19  1  0  0  0  0
  8  7  2  0  0  0  0
  9  4  2  0  0  0  0
  9  8  1  0  0  0  0
 10 11  1  0  0  0  0
 10 16  1  0  0  0  0
 11 24  1  0  0  0  0
 12 30  1  0  0  0  0
 12 11  2  0  0  0  0
 13 14  1  0  0  0  0
 14 27  1  0  0  0  0
 14 15  2  0  0  0  0
 15 29  1  0  0  0  0
 16  4  1  0  0  0  0
 16  3  1  0  0  0  0
 17 13  1  0  0  0  0
 20  8  1  0  0  0  0
 21  9  1  0  0  0  0
 22 10  1  0  0  0  0
 23 10  1  0  0  0  0
 25 13  1  0  0  0  0
 26 13  1  0  0  0  0
 28 15  1  0  0  0  0
 31 12  1  0  0  0  0
 32  1  1  0  0  0  0
 33  1  1  0  0  0  0
 33 34  1  0  0  0  0
 34 54  1  0  0  0  0
 35 40  1  0  0  0  0
 35 34  1  0  0  0  0
 36 35  2  0  0  0  0
 37 38  2  0  0  0  0
 37 36  1  0  0  0  0
 38 39  1  0  0  0  0
 39 42  1  0  0  0  0
 39 40  2  0  0  0  0
 40 41  1  0  0  0  0
 43 38  1  0  0  0  0
 44 37  1  0  0  0  0
 45 36  1  0  0  0  0
 45 33  1  0  0  0  0
 46 52  1  0  0  0  0
 46 53  1  0  0  0  0
 46 45  1  0  0  0  0
 47 46  1  0  0  0  0
 48 49  1  0  0  0  0
 48 47  2  0  0  0  0
 50 48  1  0  0  0  0
 51 47  1  0  0  0  0
 54 61  1  0  0  0  0
 54 60  1  0  0  0  0
 55 54  1  0  0  0  0
 55 56  2  0  0  0  0
 56 58  1  0  0  0  0
 57 56  1  0  0  0  0
 59 55  1  0  0  0  0
M  END
$$$$
