CSD_code = ACDIPT | q = 0 | S = 0 | Stoichiometry = C10H14I2O4Pt | MND = 6
 OpenBabel04212201593D

 31 32  0  0  1  0  0  0  0  0999 V2000
    2.2039    0.9513    1.6528 C   0  0  1  0  0  3  0  0  0  0  0  0
    0.1200    0.3631    2.8909 C   0  0  0  0  0  0  0  0  0  0  0  0
    1.4411    0.8075    2.8129 C   0  0  0  0  0  0  0  0  0  0  0  0
    3.6204    1.4440    1.8071 C   0  0  0  0  0  0  0  0  0  0  0  0
   -0.5091    0.2910    4.2591 C   0  0  0  0  0  0  0  0  0  0  0  0
    1.9204    1.0661    3.7434 H   0  0  0  0  0  0  0  0  0  0  0  0
    4.0496    1.6337    0.8270 H   0  0  0  0  0  0  0  0  0  0  0  0
    3.6384    2.3535    2.4021 H   0  0  0  0  0  0  0  0  0  0  0  0
    4.2107    0.6839    2.3156 H   0  0  0  0  0  0  0  0  0  0  0  0
   -1.5422   -0.0331    4.1688 H   0  0  0  0  0  0  0  0  0  0  0  0
    0.0411   -0.4163    4.8760 H   0  0  0  0  0  0  0  0  0  0  0  0
   -0.4715    1.2685    4.7341 H   0  0  0  0  0  0  0  0  0  0  0  0
   -0.8956    2.4890   -0.2888 I   0  0  0  0  0  0  0  0  0  0  0  0
    1.8460    0.7077    0.4664 O   0  0  0  0  0  0  0  0  0  0  0  0
   -0.6265    0.0062    1.9368 O   0  0  0  0  0  0  0  0  0  0  0  0
   -0.0026   -0.0007    0.0016 Pt  0  0  0  0  0  0  0  0  0  0  0  0
    0.8735   -2.4961    0.3023 I   0  0  0  0  0  0  0  0  0  0  0  0
   -1.8504   -0.7079   -0.4678 O   0  0  0  0  0  0  0  0  0  0  0  0
    0.6251   -0.0051   -1.9326 O   0  0  0  0  0  0  0  0  0  0  0  0
   -2.2045   -0.9514   -1.6554 C   0  0  2  0  0  3  0  0  0  0  0  0
   -0.1183   -0.3616   -2.8891 C   0  0  0  0  0  0  0  0  0  0  0  0
   -1.4394   -0.8066   -2.8139 C   0  0  0  0  0  0  0  0  0  0  0  0
   -3.6202   -1.4450   -1.8134 C   0  0  0  0  0  0  0  0  0  0  0  0
    0.5140   -0.2890   -4.2558 C   0  0  0  0  0  0  0  0  0  0  0  0
   -1.9167   -1.0652   -3.7455 H   0  0  0  0  0  0  0  0  0  0  0  0
   -4.0519   -1.6338   -0.8342 H   0  0  0  0  0  0  0  0  0  0  0  0
   -3.6357   -2.3552   -2.4073 H   0  0  0  0  0  0  0  0  0  0  0  0
   -4.2094   -0.6858   -2.3246 H   0  0  0  0  0  0  0  0  0  0  0  0
    1.5466    0.0361   -4.1633 H   0  0  0  0  0  0  0  0  0  0  0  0
   -0.0353    0.4176   -4.8742 H   0  0  0  0  0  0  0  0  0  0  0  0
    0.4786   -1.2666   -4.7309 H   0  0  0  0  0  0  0  0  0  0  0  0
  1  4  1  1  0  0  0
  1  3  1  0  0  0  0
  2  5  1  0  0  0  0
  3  2  2  0  0  0  0
  3  6  1  0  0  0  0
  4  9  1  0  0  0  0
  4  8  1  0  0  0  0
  5 12  1  0  0  0  0
  5 11  1  0  0  0  0
  7  4  1  0  0  0  0
 10  5  1  0  0  0  0
 13 16  1  0  0  0  0
 14  1  1  0  0  0  0
 15  2  1  0  0  0  0
 16 17  1  0  0  0  0
 16 14  1  0  0  0  0
 16 15  1  0  0  0  0
 18 16  1  0  0  0  0
 19 16  1  0  0  0  0
 20 23  1  6  0  0  0
 20 18  1  0  0  0  0
 21 22  2  0  0  0  0
 21 19  1  0  0  0  0
 22 20  1  0  0  0  0
 23 26  1  0  0  0  0
 24 29  1  0  0  0  0
 24 21  1  0  0  0  0
 25 22  1  0  0  0  0
 27 23  1  0  0  0  0
 28 23  1  0  0  0  0
 30 24  1  0  0  0  0
 31 24  1  0  0  0  0
M  END
$$$$
