CSD_code = ACESOQ | q = 0 | S = 0 | Stoichiometry = C5H15ClW | MND = 6
 OpenBabel04212201593D

 22 21  0  0  0  0  0  0  0  0999 V2000
   -1.8669    7.9974    5.5771 W   0  0  0  0  0  0  0  0  0  0  0  0
   -3.8663    7.9965    6.7583 Cl  0  0  0  0  0  0  0  0  0  0  0  0
   -1.3097    6.4441    7.0448 C   0  0  0  0  0  0  0  0  0  0  0  0
   -1.6266    6.7180    8.0591 H   0  0  0  0  0  0  0  0  0  0  0  0
   -0.2289    6.2378    7.1024 H   0  0  0  0  0  0  0  0  0  0  0  0
   -1.8056    5.4839    6.8305 H   0  0  0  0  0  0  0  0  0  0  0  0
   -0.6439    6.6121    4.3473 C   0  0  0  0  0  0  0  0  0  0  0  0
   -1.0543    5.5913    4.4172 H   0  0  0  0  0  0  0  0  0  0  0  0
    0.4032    6.5404    4.6805 H   0  0  0  0  0  0  0  0  0  0  0  0
   -0.5880    6.8259    3.2763 H   0  0  0  0  0  0  0  0  0  0  0  0
   -3.3190    7.9963    3.9164 C   0  0  0  0  0  0  0  0  0  0  0  0
   -2.9051    7.9965    2.9017 H   0  0  0  0  0  0  0  0  0  0  0  0
   -3.9777    8.8814    3.9870 H   0  0  0  0  0  0  0  0  0  0  0  0
   -1.3094    9.5493    7.0456 C   0  0  0  0  0  0  0  0  0  0  0  0
   -1.6263    9.2750    8.0598 H   0  0  0  0  0  0  0  0  0  0  0  0
   -0.2284    9.7556    7.1026 H   0  0  0  0  0  0  0  0  0  0  0  0
   -1.8057   10.5092    6.8308 H   0  0  0  0  0  0  0  0  0  0  0  0
   -0.6436    9.3810    4.3466 C   0  0  0  0  0  0  0  0  0  0  0  0
   -1.0546   10.4016    4.4173 H   0  0  0  0  0  0  0  0  0  0  0  0
    0.4034    9.4528    4.6802 H   0  0  0  0  0  0  0  0  0  0  0  0
   -0.5879    9.1675    3.2755 H   0  0  0  0  0  0  0  0  0  0  0  0
   -3.9780    7.1113    3.9867 H   0  0  0  0  0  0  0  0  0  0  0  0
  1  2  1  0  0  0  0
  1  3  1  0  0  0  0
  1 14  1  0  0  0  0
  3  5  1  0  0  0  0
  3  4  1  0  0  0  0
  6  3  1  0  0  0  0
  7  8  1  0  0  0  0
  7  9  1  0  0  0  0
  7  1  1  0  0  0  0
 10  7  1  0  0  0  0
 11 22  1  0  0  0  0
 11 13  1  0  0  0  0
 11  1  1  0  0  0  0
 12 11  1  0  0  0  0
 14 16  1  0  0  0  0
 14 15  1  0  0  0  0
 17 14  1  0  0  0  0
 18 19  1  0  0  0  0
 18 20  1  0  0  0  0
 18  1  1  0  0  0  0
 21 18  1  0  0  0  0
M  END
$$$$
