CSD_code = ACIDAS | q = 1 | S = 0 | Stoichiometry = C20H18ClN8Ru(1+) | MND = 6
 OpenBabel04212201593D

 48 55  0  0  1  0  0  0  0  0999 V2000
    7.3070    4.7412    7.6421 Ru  0  0  0  0  0  0  0  0  0  0  0  0
    8.8635    4.8623    8.9569 N   0  0  0  0  0  0  0  0  0  0  0  0
    9.7731    3.8692    8.9718 N   0  0  1  0  0  0  0  0  0  0  0  0
    7.1863    2.8351    8.3625 N   0  0  0  0  0  0  0  0  0  0  0  0
    8.3167    2.1092    8.4569 N   0  0  2  0  0  0  0  0  0  0  0  0
    8.6382    4.0325    6.3039 N   0  0  0  0  0  0  0  0  0  0  0  0
    9.5583    3.1448    6.7300 N   0  0  1  0  0  0  0  0  0  0  0  0
    7.3141    6.6194    7.0235 N   0  0  0  0  0  0  0  0  0  0  0  0
    5.7229    4.6963    6.4594 N   0  0  0  0  0  0  0  0  0  0  0  0
    5.8476    5.4597    9.3109 Cl  0  0  0  0  0  0  0  0  0  0  0  0
   10.6665    4.0514    9.9795 C   0  0  0  0  0  3  0  0  0  0  0  0
   11.4674    3.3632   10.1569 H   0  0  0  0  0  0  0  0  0  0  0  0
   10.3158    5.2129   10.6148 C   0  0  0  0  0  0  0  0  0  0  0  0
   10.8019    5.6667   11.4525 H   0  0  0  0  0  0  0  0  0  0  0  0
    9.1769    5.6815    9.9407 C   0  0  0  0  0  0  0  0  0  0  0  0
    8.5807    6.5514   10.1431 H   0  0  0  0  0  0  0  0  0  0  0  0
    8.0725    0.9163    9.0603 C   0  0  0  0  0  3  0  0  0  0  0  0
    8.8487    0.1985    9.2299 H   0  0  0  0  0  0  0  0  0  0  0  0
    6.7330    0.8826    9.3437 C   0  0  0  0  0  0  0  0  0  0  0  0
    6.1891    0.0916    9.8154 H   0  0  0  0  0  0  0  0  0  0  0  0
    6.2216    2.1096    8.8920 C   0  0  0  0  0  0  0  0  0  0  0  0
    5.2178    2.4867    8.9491 H   0  0  0  0  0  0  0  0  0  0  0  0
   10.3757    2.7672    5.7092 C   0  0  0  0  0  3  0  0  0  0  0  0
   11.1716    2.0657    5.8504 H   0  0  0  0  0  0  0  0  0  0  0  0
    9.9553    3.4427    4.5947 C   0  0  0  0  0  0  0  0  0  0  0  0
   10.3683    3.3895    3.6096 H   0  0  0  0  0  0  0  0  0  0  0  0
    8.8668    4.2214    5.0155 C   0  0  0  0  0  0  0  0  0  0  0  0
    8.2583    4.8944    4.4409 H   0  0  0  0  0  0  0  0  0  0  0  0
    9.5753    2.7272    8.1099 C   0  0  1  0  0  0  0  0  0  0  0  0
   10.3903    2.0086    8.2611 H   0  0  0  0  0  0  0  0  0  0  0  0
    8.2525    7.5365    7.2467 C   0  0  0  0  0  3  0  0  0  0  0  0
    9.2066    7.1729    7.6092 H   0  0  0  0  0  0  0  0  0  0  0  0
    8.0508    8.8878    7.0400 C   0  0  0  0  0  0  0  0  0  0  0  0
    8.8427    9.5897    7.2442 H   0  0  0  0  0  0  0  0  0  0  0  0
    6.8110    9.3169    6.5834 C   0  0  0  0  0  0  0  0  0  0  0  0
    6.6104   10.3655    6.4337 H   0  0  0  0  0  0  0  0  0  0  0  0
    5.8404    8.3697    6.3177 C   0  0  0  0  0  0  0  0  0  0  0  0
    4.8728    8.6729    5.9544 H   0  0  0  0  0  0  0  0  0  0  0  0
    6.1174    7.0215    6.5386 C   0  0  0  0  0  0  0  0  0  0  0  0
    5.2088    5.9232    6.2163 C   0  0  1  0  0  3  0  0  0  0  0  0
    3.9467    6.0807    5.6457 C   0  0  0  0  0  0  0  0  0  0  0  0
    3.5437    7.0661    5.4821 H   0  0  0  0  0  0  0  0  0  0  0  0
    3.2087    4.9628    5.3059 C   0  0  0  0  0  0  0  0  0  0  0  0
    2.2243    5.0640    4.8781 H   0  0  0  0  0  0  0  0  0  0  0  0
    3.7654    3.7084    5.5209 C   0  0  0  0  0  0  0  0  0  0  0  0
    3.2328    2.8097    5.2560 H   0  0  0  0  0  0  0  0  0  0  0  0
    5.0173    3.6264    6.1000 C   0  0  0  0  0  0  0  0  0  0  0  0
    5.4741    2.6618    6.2863 H   0  0  0  0  0  0  0  0  0  0  0  0
  1  4  1  0  0  0  0
  1  2  1  0  0  0  0
  1 10  1  0  0  0  0
  2  3  1  0  0  0  0
  2 15  1  0  0  0  0
  3 11  1  1  0  0  0
  4  5  1  0  0  0  0
  4 21  1  0  0  0  0
  5 17  1  1  0  0  0
  6  7  1  0  0  0  0
  6  1  1  0  0  0  0
  7 23  1  1  0  0  0
  7 29  1  0  0  0  0
  8 31  1  0  0  0  0
  8  1  1  0  0  0  0
  9  1  1  0  0  0  0
 11 12  1  0  0  0  0
 11 13  1  0  0  0  0
 13 14  1  0  0  0  0
 15 16  1  0  0  0  0
 15 13  2  0  0  0  0
 17 18  1  0  0  0  0
 17 19  1  0  0  0  0
 19 20  1  0  0  0  0
 21 22  1  0  0  0  0
 21 19  2  0  0  0  0
 23 24  1  0  0  0  0
 25 27  2  0  0  0  0
 25 23  1  0  0  0  0
 26 25  1  0  0  0  0
 27  6  1  0  0  0  0
 28 27  1  0  0  0  0
 29 30  1  1  0  0  0
 29  5  1  0  0  0  0
 29  3  1  0  0  0  0
 31 32  1  0  0  0  0
 33 34  1  0  0  0  0
 33 31  1  0  0  0  0
 35 33  2  0  0  0  0
 36 35  1  0  0  0  0
 37 39  2  0  0  0  0
 37 35  1  0  0  0  0
 38 37  1  0  0  0  0
 39  8  1  0  0  0  0
 40 41  1  6  0  0  0
 40  9  1  0  0  0  0
 40 39  1  0  0  0  0
 42 41  1  0  0  0  0
 43 45  1  0  0  0  0
 43 41  2  0  0  0  0
 44 43  1  0  0  0  0
 45 47  2  0  0  0  0
 46 45  1  0  0  0  0
 47 48  1  0  0  0  0
 47  9  1  0  0  0  0
M  END
$$$$
