CSD_code = ACIFEY | q = 0 | S = 0 | Stoichiometry = C24H32Br2N4Zn | MND = 4
 OpenBabel04212201593D

 63 68  0  0  1  0  0  0  0  0999 V2000
    2.6662    7.1856   11.2993 Zn  0  0  0  0  0  0  0  0  0  0  0  0
    1.1904    5.5783   11.4023 N   0  0  0  0  0  0  0  0  0  0  0  0
    0.2339    5.4599   10.4615 C   0  0  0  0  0  3  0  0  0  0  0  0
    0.2475    6.1864    9.6623 H   0  0  0  0  0  0  0  0  0  0  0  0
   -0.7290    4.4734   10.5168 C   0  0  0  0  0  0  0  0  0  0  0  0
   -1.4882    4.3932    9.7530 H   0  0  0  0  0  0  0  0  0  0  0  0
   -0.7935    3.5746   11.5045 N   0  0  0  0  0  0  0  0  0  0  0  0
    0.1469    3.6822   12.4088 C   0  0  0  0  0  0  0  0  0  0  0  0
    1.1509    4.6761   12.3611 C   0  0  0  0  0  0  0  0  0  0  0  0
    1.9793    4.5009   13.5854 C   0  0  1  0  0  0  0  0  0  0  0  0
    2.9634    4.9567   13.5836 H   0  0  0  0  0  0  0  0  0  0  0  0
    1.0468    4.9970   14.7155 C   0  0  0  0  0  0  0  0  0  0  0  0
    0.6508    5.9862   14.4901 H   0  0  0  0  0  0  0  0  0  0  0  0
    1.6041    5.0765   15.6458 H   0  0  0  0  0  0  0  0  0  0  0  0
   -0.0495    3.9183   14.7701 C   0  0  0  0  0  0  0  0  0  0  0  0
   -0.0891    3.4223   15.7383 H   0  0  0  0  0  0  0  0  0  0  0  0
   -1.0405    4.3227   14.5643 H   0  0  0  0  0  0  0  0  0  0  0  0
    0.3657    2.9025   13.6713 C   0  0  2  0  0  0  0  0  0  0  0  0
    1.9210    2.9624   13.7533 C   0  0  0  0  0  0  0  0  0  0  0  0
    2.5208    2.4587   15.0598 C   0  0  0  0  0  0  0  0  0  0  0  0
    3.5863    2.6783   15.0772 H   0  0  0  0  0  0  0  0  0  0  0  0
    2.3964    1.3805   15.1308 H   0  0  0  0  0  0  0  0  0  0  0  0
    2.0691    2.9121   15.9341 H   0  0  0  0  0  0  0  0  0  0  0  0
    2.6124    2.2297   12.6033 C   0  0  0  0  0  0  0  0  0  0  0  0
    3.6681    2.4972   12.5746 H   0  0  0  0  0  0  0  0  0  0  0  0
    2.1692    2.4752   11.6404 H   0  0  0  0  0  0  0  0  0  0  0  0
    2.5409    1.1535   12.7425 H   0  0  0  0  0  0  0  0  0  0  0  0
   -0.3207    1.5576   13.7500 C   0  0  0  0  0  0  0  0  0  0  0  0
   -1.3941    1.6879   13.6392 H   0  0  0  0  0  0  0  0  0  0  0  0
   -0.1204    1.0837   14.7077 H   0  0  0  0  0  0  0  0  0  0  0  0
    0.0265    0.9062   12.9521 H   0  0  0  0  0  0  0  0  0  0  0  0
    4.2686    5.7864   10.8028 N   0  0  0  0  0  0  0  0  0  0  0  0
    5.2289    5.4947   11.7010 C   0  0  0  0  0  3  0  0  0  0  0  0
    5.1585    5.9831   12.6619 H   0  0  0  0  0  0  0  0  0  0  0  0
    6.2642    4.6303   11.4110 C   0  0  0  0  0  0  0  0  0  0  0  0
    7.0243    4.4062   12.1447 H   0  0  0  0  0  0  0  0  0  0  0  0
    6.4011    4.0321   10.2232 N   0  0  0  0  0  0  0  0  0  0  0  0
    5.4589    4.3067    9.3569 C   0  0  0  0  0  0  0  0  0  0  0  0
    4.3802    5.1750    9.6416 C   0  0  0  0  0  0  0  0  0  0  0  0
    3.5728    5.2711    8.3947 C   0  0  1  0  0  0  0  0  0  0  0  0
    2.5560    5.6352    8.4929 H   0  0  0  0  0  0  0  0  0  0  0  0
    4.4684    6.1191    7.4611 C   0  0  0  0  0  0  0  0  0  0  0  0
    3.9109    6.4018    6.5713 H   0  0  0  0  0  0  0  0  0  0  0  0
    4.7841    7.0391    7.9512 H   0  0  0  0  0  0  0  0  0  0  0  0
    5.6467    5.1792    7.1500 C   0  0  0  0  0  0  0  0  0  0  0  0
    6.6017    5.5865    7.4820 H   0  0  0  0  0  0  0  0  0  0  0  0
    5.7306    4.9647    6.0861 H   0  0  0  0  0  0  0  0  0  0  0  0
    5.3073    3.8784    7.9276 C   0  0  2  0  0  0  0  0  0  0  0  0
    3.7526    3.8423    7.8248 C   0  0  0  0  0  0  0  0  0  0  0  0
    3.2003    3.6635    6.4165 C   0  0  0  0  0  0  0  0  0  0  0  0
    2.1219    3.8069    6.4298 H   0  0  0  0  0  0  0  0  0  0  0  0
    3.4032    2.6538    6.0666 H   0  0  0  0  0  0  0  0  0  0  0  0
    3.6243    4.3620    5.7050 H   0  0  0  0  0  0  0  0  0  0  0  0
    3.1150    2.7799    8.7204 C   0  0  0  0  0  0  0  0  0  0  0  0
    2.0416    2.9508    8.7919 H   0  0  0  0  0  0  0  0  0  0  0  0
    3.5326    2.7919    9.7251 H   0  0  0  0  0  0  0  0  0  0  0  0
    3.2716    1.7884    8.3023 H   0  0  0  0  0  0  0  0  0  0  0  0
    6.0974    2.6584    7.5112 C   0  0  0  0  0  0  0  0  0  0  0  0
    5.7971    1.7929    8.0964 H   0  0  0  0  0  0  0  0  0  0  0  0
    7.1566    2.8329    7.6819 H   0  0  0  0  0  0  0  0  0  0  0  0
    5.9409    2.4455    6.4567 H   0  0  0  0  0  0  0  0  0  0  0  0
    2.0731    8.3613    9.3414 Br  0  0  0  0  0  0  0  0  0  0  0  0
    3.1762    7.8560   13.5038 Br  0  0  0  0  0  0  0  0  0  0  0  0
  1  2  1  0  0  0  0
  1 63  1  0  0  0  0
  2  9  1  0  0  0  0
  3  5  1  0  0  0  0
  3  2  1  0  0  0  0
  4  3  1  0  0  0  0
  5  7  2  0  0  0  0
  6  5  1  0  0  0  0
  7  8  1  0  0  0  0
  8 18  1  0  0  0  0
  9  8  2  0  0  0  0
  9 10  1  0  0  0  0
 10 11  1  6  0  0  0
 10 19  1  0  0  0  0
 10 12  1  0  0  0  0
 12 15  1  0  0  0  0
 12 14  1  0  0  0  0
 13 12  1  0  0  0  0
 15 16  1  0  0  0  0
 17 15  1  0  0  0  0
 18 28  1  1  0  0  0
 18 19  1  0  0  0  0
 18 15  1  0  0  0  0
 19 20  1  0  0  0  0
 20 21  1  0  0  0  0
 20 22  1  0  0  0  0
 20 23  1  0  0  0  0
 24 27  1  0  0  0  0
 24 19  1  0  0  0  0
 25 24  1  0  0  0  0
 26 24  1  0  0  0  0
 28 30  1  0  0  0  0
 29 28  1  0  0  0  0
 31 28  1  0  0  0  0
 32  1  1  0  0  0  0
 32 33  1  0  0  0  0
 33 34  1  0  0  0  0
 35 33  1  0  0  0  0
 35 36  1  0  0  0  0
 37 35  2  0  0  0  0
 38 39  2  0  0  0  0
 38 37  1  0  0  0  0
 39 32  1  0  0  0  0
 40 41  1  1  0  0  0
 40 39  1  0  0  0  0
 42 44  1  0  0  0  0
 42 40  1  0  0  0  0
 43 42  1  0  0  0  0
 45 42  1  0  0  0  0
 45 46  1  0  0  0  0
 45 48  1  0  0  0  0
 47 45  1  0  0  0  0
 48 58  1  6  0  0  0
 48 38  1  0  0  0  0
 49 48  1  0  0  0  0
 49 40  1  0  0  0  0
 49 54  1  0  0  0  0
 50 51  1  0  0  0  0
 50 49  1  0  0  0  0
 52 50  1  0  0  0  0
 53 50  1  0  0  0  0
 54 55  1  0  0  0  0
 54 56  1  0  0  0  0
 57 54  1  0  0  0  0
 58 60  1  0  0  0  0
 58 59  1  0  0  0  0
 61 58  1  0  0  0  0
 62  1  1  0  0  0  0
M  END
$$$$
