CSD_code = ACITUB | q = 0 | S = 0 | Stoichiometry = C14H16Cl2N4O2Pd | MND = 4
 OpenBabel04212201593D

 39 40  0  0  0  0  0  0  0  0999 V2000
    2.0279   -0.0001    0.0001 Pd  0  0  0  0  0  0  0  0  0  0  0  0
   -0.2035    0.5106    0.0277 Cl  0  0  0  0  0  0  0  0  0  0  0  0
    1.8486   -1.0665    1.5968 N   0  0  0  0  0  0  0  0  0  0  0  0
    2.4014   -0.6658    2.7376 C   0  0  0  0  0  3  0  0  0  0  0  0
    2.8418    0.3303    2.7614 H   0  0  0  0  0  0  0  0  0  0  0  0
    2.4451   -1.4737    3.8676 C   0  0  0  0  0  0  0  0  0  0  0  0
    1.8527   -2.7321    3.8064 C   0  0  0  0  0  0  0  0  0  0  0  0
    1.8357   -3.3800    4.6703 H   0  0  0  0  0  0  0  0  0  0  0  0
    1.2535   -3.1275    2.6202 C   0  0  0  0  0  0  0  0  0  0  0  0
    0.7739   -4.0898    2.5367 H   0  0  0  0  0  0  0  0  0  0  0  0
    1.2796   -2.2709    1.5337 C   0  0  0  0  0  0  0  0  0  0  0  0
    0.8248   -2.5425    0.5817 H   0  0  0  0  0  0  0  0  0  0  0  0
    3.0972   -0.9252    5.1033 C   0  0  0  0  0  0  0  0  0  0  0  0
    2.9775    0.2361    5.4292 O   0  0  0  0  0  0  0  0  0  0  0  0
    3.8101   -1.8351    5.8025 N   0  0  0  0  0  0  0  0  0  0  0  0
    3.9569   -2.7552    5.4194 H   0  0  0  0  0  0  0  0  0  0  0  0
    4.5547   -1.4793    6.9861 C   0  0  0  0  0  0  0  0  0  0  0  0
    4.2770   -2.1277    7.8183 H   0  0  0  0  0  0  0  0  0  0  0  0
    4.3067   -0.4476    7.2295 H   0  0  0  0  0  0  0  0  0  0  0  0
    5.6292   -1.5598    6.8107 H   0  0  0  0  0  0  0  0  0  0  0  0
    4.2586   -0.5112   -0.0279 Cl  0  0  0  0  0  0  0  0  0  0  0  0
    2.2071    1.0660   -1.5967 N   0  0  0  0  0  0  0  0  0  0  0  0
    1.6543    0.6656   -2.7377 C   0  0  0  0  0  3  0  0  0  0  0  0
    1.2136   -0.3304   -2.7617 H   0  0  0  0  0  0  0  0  0  0  0  0
    1.6106    1.4736   -3.8676 C   0  0  0  0  0  0  0  0  0  0  0  0
    2.2033    2.7319   -3.8062 C   0  0  0  0  0  0  0  0  0  0  0  0
    2.2205    3.3800   -4.6700 H   0  0  0  0  0  0  0  0  0  0  0  0
    2.8024    3.1271   -2.6199 C   0  0  0  0  0  0  0  0  0  0  0  0
    3.2822    4.0892   -2.5362 H   0  0  0  0  0  0  0  0  0  0  0  0
    2.7761    2.2704   -1.5335 C   0  0  0  0  0  0  0  0  0  0  0  0
    3.2309    2.5418   -0.5814 H   0  0  0  0  0  0  0  0  0  0  0  0
    0.9585    0.9254   -5.1034 C   0  0  0  0  0  0  0  0  0  0  0  0
    1.0780   -0.2359   -5.4294 O   0  0  0  0  0  0  0  0  0  0  0  0
    0.2457    1.8355   -5.8025 N   0  0  0  0  0  0  0  0  0  0  0  0
    0.0990    2.7556   -5.4192 H   0  0  0  0  0  0  0  0  0  0  0  0
   -0.4987    1.4801   -6.9862 C   0  0  0  0  0  0  0  0  0  0  0  0
   -0.2213    2.1287   -7.8182 H   0  0  0  0  0  0  0  0  0  0  0  0
   -0.2505    0.4486   -7.2301 H   0  0  0  0  0  0  0  0  0  0  0  0
   -1.5731    1.5601   -6.8110 H   0  0  0  0  0  0  0  0  0  0  0  0
  1  2  1  0  0  0  0
  1  3  1  0  0  0  0
  3  4  1  0  0  0  0
  4  5  1  0  0  0  0
  4  6  1  0  0  0  0
  6 13  1  0  0  0  0
  7  6  2  0  0  0  0
  7  8  1  0  0  0  0
  9  7  1  0  0  0  0
 10  9  1  0  0  0  0
 11  3  1  0  0  0  0
 11  9  2  0  0  0  0
 12 11  1  0  0  0  0
 13 14  2  0  0  0  0
 13 15  1  0  0  0  0
 15 17  1  0  0  0  0
 16 15  1  0  0  0  0
 17 19  1  0  0  0  0
 17 18  1  0  0  0  0
 20 17  1  0  0  0  0
 21  1  1  0  0  0  0
 22 30  1  0  0  0  0
 22  1  1  0  0  0  0
 23 22  1  0  0  0  0
 24 23  1  0  0  0  0
 25 26  2  0  0  0  0
 25 23  1  0  0  0  0
 26 28  1  0  0  0  0
 27 26  1  0  0  0  0
 28 29  1  0  0  0  0
 28 30  2  0  0  0  0
 30 31  1  0  0  0  0
 32 25  1  0  0  0  0
 33 32  2  0  0  0  0
 34 35  1  0  0  0  0
 34 32  1  0  0  0  0
 36 39  1  0  0  0  0
 36 34  1  0  0  0  0
 37 36  1  0  0  0  0
 38 36  1  0  0  0  0
M  END
$$$$
