CSD_code = ACIVOA | q = 0 | S = 0 | Stoichiometry = C30H40Cl2N4Pd | MND = 4
 OpenBabel04212201593D

 77 80  0  0  0  0  0  0  0  0999 V2000
    0.0514   12.9897   10.1899 Pd  0  0  0  0  0  0  0  0  0  0  0  0
    1.4222   12.9787   11.9833 Cl  0  0  0  0  0  0  0  0  0  0  0  0
   -1.3898   13.0019    8.4011 Cl  0  0  0  0  0  0  0  0  0  0  0  0
    2.3644   11.9116    8.7036 N   0  0  0  0  0  0  0  0  0  0  0  0
   -1.6047   12.9904   11.4433 N   0  0  0  0  0  0  0  0  0  0  0  0
   -2.8326   12.9927   10.9245 N   0  0  0  0  0  0  0  0  0  0  0  0
   -2.9086   12.9959    9.8997 H   0  0  0  0  0  0  0  0  0  0  0  0
    1.6511   12.9884    9.0765 C   0  0  0  0  0  0  0  0  0  0  0  0
    3.5262   12.3113    8.0955 C   0  0  0  0  0  0  0  0  0  0  0  0
    4.2479   11.6134    7.7243 H   0  0  0  0  0  0  0  0  0  0  0  0
    1.8989   10.5697    8.8608 C   0  0  0  0  0  0  0  0  0  0  0  0
    2.3263    9.8162    9.9587 C   0  0  0  0  0  0  0  0  0  0  0  0
    1.8499    8.5164   10.0781 C   0  0  0  0  0  0  0  0  0  0  0  0
    2.1629    7.9093   10.9120 H   0  0  0  0  0  0  0  0  0  0  0  0
    0.9843    7.9879    9.1415 C   0  0  0  0  0  0  0  0  0  0  0  0
    0.6195    6.9776    9.2554 H   0  0  0  0  0  0  0  0  0  0  0  0
    0.5969    8.7381    8.0476 C   0  0  0  0  0  0  0  0  0  0  0  0
   -0.0603    8.3016    7.3135 H   0  0  0  0  0  0  0  0  0  0  0  0
    1.0474   10.0404    7.8809 C   0  0  0  0  0  0  0  0  0  0  0  0
    3.3338   10.3557   10.9457 C   0  0  0  0  0  0  0  0  0  0  0  0
    3.3487   11.4469   10.8798 H   0  0  0  0  0  0  0  0  0  0  0  0
    2.9803    9.9992   12.3889 C   0  0  0  0  0  0  0  0  0  0  0  0
    1.9544   10.2868   12.5997 H   0  0  0  0  0  0  0  0  0  0  0  0
    3.6284   10.5496   13.0658 H   0  0  0  0  0  0  0  0  0  0  0  0
    3.1036    8.9372   12.5851 H   0  0  0  0  0  0  0  0  0  0  0  0
    4.7240    9.8193   10.5893 C   0  0  0  0  0  0  0  0  0  0  0  0
    4.7371    8.7328   10.6469 H   0  0  0  0  0  0  0  0  0  0  0  0
    5.4629   10.2119   11.2836 H   0  0  0  0  0  0  0  0  0  0  0  0
    5.0106   10.1099    9.5808 H   0  0  0  0  0  0  0  0  0  0  0  0
    0.7078   10.8229    6.6325 C   0  0  0  0  0  0  0  0  0  0  0  0
    0.7557   11.8913    6.8625 H   0  0  0  0  0  0  0  0  0  0  0  0
    1.7491   10.5118    5.5517 C   0  0  0  0  0  0  0  0  0  0  0  0
    2.7505   10.7823    5.8795 H   0  0  0  0  0  0  0  0  0  0  0  0
    1.5227   11.0682    4.6450 H   0  0  0  0  0  0  0  0  0  0  0  0
    1.7402    9.4492    5.3176 H   0  0  0  0  0  0  0  0  0  0  0  0
   -0.6980   10.5402    6.1067 C   0  0  0  0  0  0  0  0  0  0  0  0
   -0.7771    9.5397    5.6887 H   0  0  0  0  0  0  0  0  0  0  0  0
   -0.9395   11.2534    5.3219 H   0  0  0  0  0  0  0  0  0  0  0  0
   -1.4273   10.6576    6.9031 H   0  0  0  0  0  0  0  0  0  0  0  0
   -1.7442   12.9880   12.7614 C   0  0  0  0  0  3  0  0  0  0  0  0
   -0.8898   12.9859   13.4124 H   0  0  0  0  0  0  0  0  0  0  0  0
   -3.7658   12.9914   11.8852 C   0  0  0  0  0  0  0  0  0  0  0  0
   -4.8126   12.9928   11.6585 H   0  0  0  0  0  0  0  0  0  0  0  0
   -3.1016   12.9884   13.0928 C   0  0  0  0  0  0  0  0  0  0  0  0
   -3.5281   12.9867   14.0742 H   0  0  0  0  0  0  0  0  0  0  0  0
    2.3636   14.0649    8.7009 N   0  0  0  0  0  0  0  0  0  0  0  0
    3.5258   13.6646    8.0941 C   0  0  0  0  0  0  0  0  0  0  0  0
    4.2473   14.3621    7.7216 H   0  0  0  0  0  0  0  0  0  0  0  0
    1.8975   15.4068    8.8563 C   0  0  0  0  0  0  0  0  0  0  0  0
    2.3184   16.1586    9.9578 C   0  0  0  0  0  0  0  0  0  0  0  0
    1.8418   17.4585   10.0760 C   0  0  0  0  0  0  0  0  0  0  0  0
    2.1500   18.0644   10.9126 H   0  0  0  0  0  0  0  0  0  0  0  0
    0.9822   17.9886    9.1348 C   0  0  0  0  0  0  0  0  0  0  0  0
    0.6171   18.9988    9.2479 H   0  0  0  0  0  0  0  0  0  0  0  0
    0.6012   17.2399    8.0376 C   0  0  0  0  0  0  0  0  0  0  0  0
   -0.0514   17.6776    7.3001 H   0  0  0  0  0  0  0  0  0  0  0  0
    1.0522   15.9377    7.8719 C   0  0  0  0  0  0  0  0  0  0  0  0
    3.3202   15.6173   10.9497 C   0  0  0  0  0  0  0  0  0  0  0  0
    3.3350   14.5262   10.8827 H   0  0  0  0  0  0  0  0  0  0  0  0
    2.9589   15.9722   12.3913 C   0  0  0  0  0  0  0  0  0  0  0  0
    1.9315   15.6853   12.5959 H   0  0  0  0  0  0  0  0  0  0  0  0
    3.6027   15.4202   13.0710 H   0  0  0  0  0  0  0  0  0  0  0  0
    3.0821   17.0339   12.5896 H   0  0  0  0  0  0  0  0  0  0  0  0
    4.7125   16.1533   10.6009 C   0  0  0  0  0  0  0  0  0  0  0  0
    4.7259   17.2398   10.6594 H   0  0  0  0  0  0  0  0  0  0  0  0
    5.4476   15.7597   11.2987 H   0  0  0  0  0  0  0  0  0  0  0  0
    5.0041   15.8631    9.5937 H   0  0  0  0  0  0  0  0  0  0  0  0
    0.7193   15.1568    6.6208 C   0  0  0  0  0  0  0  0  0  0  0  0
    0.7678   14.0880    6.8492 H   0  0  0  0  0  0  0  0  0  0  0  0
    1.7647   15.4710    5.5449 C   0  0  0  0  0  0  0  0  0  0  0  0
    2.7651   15.2015    5.8764 H   0  0  0  0  0  0  0  0  0  0  0  0
    1.5430   14.9156    4.6363 H   0  0  0  0  0  0  0  0  0  0  0  0
    1.7552   16.5339    5.3124 H   0  0  0  0  0  0  0  0  0  0  0  0
   -0.6846   15.4387    6.0892 C   0  0  0  0  0  0  0  0  0  0  0  0
   -0.7630   16.4399    5.6728 H   0  0  0  0  0  0  0  0  0  0  0  0
   -0.9216   14.7267    5.3018 H   0  0  0  0  0  0  0  0  0  0  0  0
   -1.4174   15.3189    6.8821 H   0  0  0  0  0  0  0  0  0  0  0  0
  1  5  1  0  0  0  0
  1  2  1  0  0  0  0
  3  1  1  0  0  0  0
  4 11  1  0  0  0  0
  4  8  1  0  0  0  0
  5 40  1  0  0  0  0
  6  5  1  0  0  0  0
  6 42  1  0  0  0  0
  7  6  1  0  0  0  0
  8  1  2  0  0  0  0
  9  4  1  0  0  0  0
 10  9  1  0  0  0  0
 11 12  1  0  0  0  0
 12 13  2  0  0  0  0
 12 20  1  0  0  0  0
 13 14  1  0  0  0  0
 15 16  1  0  0  0  0
 15 13  1  0  0  0  0
 17 15  2  0  0  0  0
 18 17  1  0  0  0  0
 19 17  1  0  0  0  0
 19 11  2  0  0  0  0
 20 22  1  0  0  0  0
 21 20  1  0  0  0  0
 22 25  1  0  0  0  0
 22 23  1  0  0  0  0
 22 24  1  0  0  0  0
 26 27  1  0  0  0  0
 26 20  1  0  0  0  0
 26 28  1  0  0  0  0
 29 26  1  0  0  0  0
 30 31  1  0  0  0  0
 30 19  1  0  0  0  0
 32 33  1  0  0  0  0
 32 30  1  0  0  0  0
 34 32  1  0  0  0  0
 35 32  1  0  0  0  0
 36 30  1  0  0  0  0
 36 39  1  0  0  0  0
 37 36  1  0  0  0  0
 38 36  1  0  0  0  0
 40 44  1  0  0  0  0
 40 41  1  0  0  0  0
 42 44  2  0  0  0  0
 43 42  1  0  0  0  0
 44 45  1  0  0  0  0
 46 49  1  0  0  0  0
 46  8  1  0  0  0  0
 47  9  2  0  0  0  0
 47 46  1  0  0  0  0
 48 47  1  0  0  0  0
 49 50  1  0  0  0  0
 50 51  2  0  0  0  0
 50 58  1  0  0  0  0
 51 52  1  0  0  0  0
 53 54  1  0  0  0  0
 53 51  1  0  0  0  0
 55 53  2  0  0  0  0
 56 55  1  0  0  0  0
 57 55  1  0  0  0  0
 57 49  2  0  0  0  0
 58 60  1  0  0  0  0
 59 58  1  0  0  0  0
 60 63  1  0  0  0  0
 60 61  1  0  0  0  0
 60 62  1  0  0  0  0
 64 65  1  0  0  0  0
 64 58  1  0  0  0  0
 64 66  1  0  0  0  0
 67 64  1  0  0  0  0
 68 69  1  0  0  0  0
 68 57  1  0  0  0  0
 70 71  1  0  0  0  0
 70 68  1  0  0  0  0
 72 70  1  0  0  0  0
 73 70  1  0  0  0  0
 74 68  1  0  0  0  0
 74 77  1  0  0  0  0
 75 74  1  0  0  0  0
 76 74  1  0  0  0  0
M  END
$$$$
