CSD_code = ACOJEK | q = 0 | S = 0 | Stoichiometry = C13H10ClN2O5Re | MND = 6
 OpenBabel04212201593D

 32 33  0  0  0  0  0  0  0  0999 V2000
    7.8256    8.4535    0.7700 Re  0  0  0  0  0  0  0  0  0  0  0  0
    9.7402    9.7629    1.2148 Cl  0  0  0  0  0  0  0  0  0  0  0  0
    5.4476   11.7930    5.6798 O   0  0  0  0  0  0  0  0  0  0  0  0
    6.1154   11.9877    6.3503 H   0  0  0  0  0  0  0  0  0  0  0  0
   10.4508    4.9196    5.3574 O   0  0  0  0  0  0  0  0  0  0  0  0
   11.4012    4.8027    5.2274 H   0  0  0  0  0  0  0  0  0  0  0  0
    9.3481    7.0248   -1.5049 O   0  0  0  0  0  1  0  0  0  0  0  0
    6.8697   10.7217   -1.0950 O   0  0  0  0  0  1  0  0  0  0  0  0
    5.2846    6.7119    0.5280 O   0  0  0  0  0  1  0  0  0  0  0  0
    6.9560    9.5483    2.5509 N   0  0  0  0  0  0  0  0  0  0  0  0
    8.6993    7.0824    2.2982 N   0  0  0  0  0  0  0  0  0  0  0  0
    5.9665   11.0618    4.6805 C   0  0  0  0  0  0  0  0  0  0  0  0
    5.1523   10.7119    3.6006 C   0  0  0  0  0  0  0  0  0  0  0  0
    4.1253   11.0356    3.5796 H   0  0  0  0  0  0  0  0  0  0  0  0
    5.6861    9.9648    2.5751 C   0  0  0  0  0  3  0  0  0  0  0  0
    5.0705    9.6866    1.7295 H   0  0  0  0  0  0  0  0  0  0  0  0
    7.7295    9.8795    3.5816 C   0  0  0  0  0  0  0  0  0  0  0  0
    8.7651    9.5673    3.5365 H   0  0  0  0  0  0  0  0  0  0  0  0
    7.2869   10.6223    4.6581 C   0  0  0  0  0  0  0  0  0  0  0  0
    7.9666   10.8638    5.4626 H   0  0  0  0  0  0  0  0  0  0  0  0
    9.9110    5.6204    4.3471 C   0  0  0  0  0  0  0  0  0  0  0  0
    8.5376    5.8726    4.3532 C   0  0  0  0  0  0  0  0  0  0  0  0
    7.9287    5.4990    5.1595 H   0  0  0  0  0  0  0  0  0  0  0  0
    7.9879    6.5940    3.3167 C   0  0  0  0  0  3  0  0  0  0  0  0
    6.9220    6.7842    3.3022 H   0  0  0  0  0  0  0  0  0  0  0  0
   10.0081    6.8332    2.2878 C   0  0  0  0  0  0  0  0  0  0  0  0
   10.5755    7.2397    1.4616 H   0  0  0  0  0  0  0  0  0  0  0  0
   10.6507    6.1149    3.2759 C   0  0  0  0  0  0  0  0  0  0  0  0
   11.7156    5.9448    3.2121 H   0  0  0  0  0  0  0  0  0  0  0  0
    8.7405    7.5375   -0.6798 C   0  0  0  0  0  2  0  0  0  0  0  0
    7.1877    9.8443   -0.4318 C   0  0  0  0  0  2  0  0  0  0  0  0
    6.2337    7.3605    0.6040 C   0  0  0  0  0  2  0  0  0  0  0  0
  1  2  1  0  0  0  0
  1 11  1  0  0  0  0
  1 10  1  0  0  0  0
  3  4  1  0  0  0  0
  6  5  1  0  0  0  0
  7 30  1  0  0  0  0
  8 31  1  0  0  0  0
  9 32  1  0  0  0  0
 10 15  1  0  0  0  0
 10 17  1  0  0  0  0
 11 24  1  0  0  0  0
 12  3  1  0  0  0  0
 13 12  2  0  0  0  0
 14 13  1  0  0  0  0
 15 13  1  0  0  0  0
 16 15  1  0  0  0  0
 17 19  2  0  0  0  0
 18 17  1  0  0  0  0
 19 12  1  0  0  0  0
 19 20  1  0  0  0  0
 21 22  2  0  0  0  0
 21  5  1  0  0  0  0
 22 23  1  0  0  0  0
 24 22  1  0  0  0  0
 25 24  1  0  0  0  0
 26 11  1  0  0  0  0
 26 28  2  0  0  0  0
 27 26  1  0  0  0  0
 28 21  1  0  0  0  0
 29 28  1  0  0  0  0
 30  1  1  0  0  0  0
 31  1  1  0  0  0  0
 32  1  1  0  0  0  0
M  END
$$$$
