CSD_code = ACONEO | q = 0 | S = 0 | Stoichiometry = C20H22Br2HgN2O4 | MND = 4
 OpenBabel04212201593D

 51 50  0  0  0  0  0  0  0  0999 V2000
    6.1021   -0.4233    9.6322 Hg  0  0  0  0  0  0  0  0  0  0  0  0
    8.2965   -0.8887    8.6527 Br  0  0  0  0  0  0  0  0  0  0  0  0
    4.1510    5.9471    3.7525 O   0  0  0  0  0  0  0  0  0  0  0  0
    2.2514    4.3384    3.3310 O   0  0  0  0  0  0  0  0  0  0  0  0
    3.3188    5.5715    3.3325 H   0  0  0  0  0  0  0  0  0  0  0  0
    5.3475    1.2499    7.9428 N   0  0  0  0  0  0  0  0  0  0  0  0
    5.8056    5.5321    5.3825 C   0  0  0  0  0  0  0  0  0  0  0  0
    6.6809    5.2243    4.8116 H   0  0  0  0  0  0  0  0  0  0  0  0
    5.8687    5.1039    6.3781 H   0  0  0  0  0  0  0  0  0  0  0  0
    5.8156    6.6180    5.4393 H   0  0  0  0  0  0  0  0  0  0  0  0
    4.5646    5.0977    4.6685 C   0  0  0  0  0  0  0  0  0  0  0  0
    3.9010    3.9298    4.9489 C   0  0  0  0  0  0  0  0  0  0  0  0
    2.7098    3.5853    4.1913 C   0  0  0  0  0  0  0  0  0  0  0  0
    2.0625    2.2546    4.4608 C   0  0  0  0  0  0  0  0  0  0  0  0
    1.5025    2.2985    5.3930 H   0  0  0  0  0  0  0  0  0  0  0  0
    2.8077    1.4677    4.5478 H   0  0  0  0  0  0  0  0  0  0  0  0
    1.3703    2.0268    3.6541 H   0  0  0  0  0  0  0  0  0  0  0  0
    4.4023    3.0103    5.9861 C   0  0  0  0  0  0  0  0  0  0  0  0
    5.6268    2.3584    5.8488 C   0  0  0  0  0  0  0  0  0  0  0  0
    6.2337    2.5114    4.9706 H   0  0  0  0  0  0  0  0  0  0  0  0
    6.0537    1.4977    6.8407 C   0  0  0  0  0  0  0  0  0  0  0  0
    7.0003    0.9815    6.7496 H   0  0  0  0  0  0  0  0  0  0  0  0
    4.1796    1.8750    8.0851 C   0  0  0  0  0  0  0  0  0  0  0  0
    3.6265    1.6586    8.9897 H   0  0  0  0  0  0  0  0  0  0  0  0
    3.6744    2.7532    7.1471 C   0  0  0  0  0  0  0  0  0  0  0  0
    2.7293    3.2421    7.3237 H   0  0  0  0  0  0  0  0  0  0  0  0
    3.9086   -0.8918   10.6120 Br  0  0  0  0  0  0  0  0  0  0  0  0
    8.0512    5.9458   15.5149 O   0  0  0  0  0  0  0  0  0  0  0  0
    9.9519    4.3368   15.9334 O   0  0  0  0  0  0  0  0  0  0  0  0
    8.8836    5.5703   15.9343 H   0  0  0  0  0  0  0  0  0  0  0  0
    6.8546    1.2511   11.3213 N   0  0  0  0  0  0  0  0  0  0  0  0
    6.3960    5.5321   13.8852 C   0  0  0  0  0  0  0  0  0  0  0  0
    5.5211    5.2255   14.4574 H   0  0  0  0  0  0  0  0  0  0  0  0
    6.3315    5.1033   12.8900 H   0  0  0  0  0  0  0  0  0  0  0  0
    6.3868    6.6179   13.8278 H   0  0  0  0  0  0  0  0  0  0  0  0
    7.6375    5.0972   14.5981 C   0  0  0  0  0  0  0  0  0  0  0  0
    8.3012    3.9298   14.3162 C   0  0  0  0  0  0  0  0  0  0  0  0
    9.4929    3.5845   15.0728 C   0  0  0  0  0  0  0  0  0  0  0  0
   10.1402    2.2543   14.8011 C   0  0  0  0  0  0  0  0  0  0  0  0
   10.6988    2.2990   13.8681 H   0  0  0  0  0  0  0  0  0  0  0  0
    9.3951    1.4673   14.7146 H   0  0  0  0  0  0  0  0  0  0  0  0
   10.8337    2.0260   15.6066 H   0  0  0  0  0  0  0  0  0  0  0  0
    7.7996    3.0110   13.2785 C   0  0  0  0  0  0  0  0  0  0  0  0
    6.5754    2.3585   13.4159 C   0  0  0  0  0  0  0  0  0  0  0  0
    5.9690    2.5107   14.2945 H   0  0  0  0  0  0  0  0  0  0  0  0
    6.1486    1.4980   12.4238 C   0  0  0  0  0  0  0  0  0  0  0  0
    5.2025    0.9809   12.5151 H   0  0  0  0  0  0  0  0  0  0  0  0
    8.0219    1.8772   11.1787 C   0  0  0  0  0  0  0  0  0  0  0  0
    8.5747    1.6615   10.2738 H   0  0  0  0  0  0  0  0  0  0  0  0
    8.5270    2.7551   12.1169 C   0  0  0  0  0  0  0  0  0  0  0  0
    9.4717    3.2447   11.9401 H   0  0  0  0  0  0  0  0  0  0  0  0
  1 27  1  0  0  0  0
  2  1  1  0  0  0  0
  3 11  1  0  0  0  0
  4 13  2  0  0  0  0
  5  3  1  0  0  0  0
  6 23  1  0  0  0  0
  7 10  1  0  0  0  0
  7  9  1  0  0  0  0
  8  7  1  0  0  0  0
 11 12  2  0  0  0  0
 11  7  1  0  0  0  0
 12 18  1  0  0  0  0
 13 14  1  0  0  0  0
 13 12  1  0  0  0  0
 14 16  1  0  0  0  0
 14 15  1  0  0  0  0
 17 14  1  0  0  0  0
 18 25  1  0  0  0  0
 19 18  2  0  0  0  0
 19 21  1  0  0  0  0
 20 19  1  0  0  0  0
 21  6  2  0  0  0  0
 22 21  1  0  0  0  0
 23 24  1  0  0  0  0
 25 26  1  0  0  0  0
 25 23  2  0  0  0  0
 28 30  1  0  0  0  0
 31 46  1  0  0  0  0
 32 33  1  0  0  0  0
 32 36  1  0  0  0  0
 34 32  1  0  0  0  0
 35 32  1  0  0  0  0
 36 28  1  0  0  0  0
 37 36  2  0  0  0  0
 37 38  1  0  0  0  0
 38 29  2  0  0  0  0
 39 38  1  0  0  0  0
 39 42  1  0  0  0  0
 40 39  1  0  0  0  0
 41 39  1  0  0  0  0
 43 44  1  0  0  0  0
 43 37  1  0  0  0  0
 44 45  1  0  0  0  0
 46 47  1  0  0  0  0
 46 44  2  0  0  0  0
 48 31  2  0  0  0  0
 48 50  1  0  0  0  0
 49 48  1  0  0  0  0
 50 43  2  0  0  0  0
 51 50  1  0  0  0  0
M  END
$$$$
