CSD_code = ACOSOA | q = 0 | S = 0 | Stoichiometry = C32H44Cl2N2P2Ru | MND = 6
 OpenBabel04212201593D

 83 89  0  0  1  0  0  0  0  0999 V2000
    7.1776   -0.2076    0.0397 Ru  0  0  0  0  0  0  0  0  0  0  0  0
    8.5393   -1.7599    1.2455 Cl  0  0  0  0  0  0  0  0  0  0  0  0
    5.4867    1.3700   -0.5987 Cl  0  0  0  0  0  0  0  0  0  0  0  0
    8.7231    0.8604   -1.2278 P   0  0  2  0  0  4  0  0  0  0  0  0
    6.9327   -1.5847   -1.7430 P   0  0  1  0  0  4  0  0  0  0  0  0
    7.4478    0.9774    1.8249 N   0  0  0  0  0  4  0  0  0  0  0  0
    8.2093    0.4823    2.3026 H   0  0  0  0  0  0  0  0  0  0  0  0
    7.7216    1.9527    1.7015 H   0  0  0  0  0  0  0  0  0  0  0  0
    5.5843   -1.0006    1.2527 N   0  0  0  0  0  4  0  0  0  0  0  0
    4.7530   -0.5588    0.8470 H   0  0  0  0  0  0  0  0  0  0  0  0
    5.4688   -2.0137    1.2205 H   0  0  0  0  0  0  0  0  0  0  0  0
    8.7340    0.1502   -2.9109 C   0  0  0  0  0  0  0  0  0  0  0  0
    7.8415   -0.8946   -3.1775 C   0  0  0  0  0  0  0  0  0  0  0  0
    7.7560   -1.3982   -4.4721 C   0  0  0  0  0  0  0  0  0  0  0  0
    7.0672   -2.1962   -4.7059 H   0  0  0  0  0  0  0  0  0  0  0  0
    8.5481   -0.8848   -5.4835 C   0  0  0  0  0  0  0  0  0  0  0  0
    8.4683   -1.2843   -6.4841 H   0  0  0  0  0  0  0  0  0  0  0  0
    9.4464    0.1336   -5.2129 C   0  0  0  0  0  0  0  0  0  0  0  0
   10.0709    0.5298   -6.0005 H   0  0  0  0  0  0  0  0  0  0  0  0
    9.5349    0.6500   -3.9333 C   0  0  0  0  0  0  0  0  0  0  0  0
   10.2338    1.4496   -3.7337 H   0  0  0  0  0  0  0  0  0  0  0  0
    6.2276    0.9052    2.6325 C   0  0  1  0  0  0  0  0  0  0  0  0
    5.4649    1.5149    2.1286 H   0  0  0  0  0  0  0  0  0  0  0  0
    5.7495   -0.5667    2.6416 C   0  0  1  0  0  0  0  0  0  0  0  0
    6.5410   -1.1845    3.0875 H   0  0  0  0  0  0  0  0  0  0  0  0
   11.0596    0.1973    0.2443 C   0  0  0  0  0  0  0  0  0  0  0  0
   10.9333   -0.8466   -0.0327 H   0  0  0  0  0  0  0  0  0  0  0  0
   10.5127    0.3613    1.1708 H   0  0  0  0  0  0  0  0  0  0  0  0
   12.1173    0.3832    0.4279 H   0  0  0  0  0  0  0  0  0  0  0  0
   10.5428    1.1102   -0.8555 C   0  0  2  0  0  0  0  0  0  0  0  0
   11.0965    0.8983   -1.7772 H   0  0  0  0  0  0  0  0  0  0  0  0
   10.6743    2.5952   -0.5101 C   0  0  0  0  0  0  0  0  0  0  0  0
   10.3056    2.7650    0.5057 H   0  0  0  0  0  0  0  0  0  0  0  0
   11.7178    2.9143   -0.5474 H   0  0  0  0  0  0  0  0  0  0  0  0
    9.8109    3.3666   -1.4997 C   0  0  0  0  0  0  0  0  0  0  0  0
   10.2605    3.3290   -2.4938 H   0  0  0  0  0  0  0  0  0  0  0  0
    9.7200    4.4176   -1.2178 H   0  0  0  0  0  0  0  0  0  0  0  0
    8.4392    2.6900   -1.5166 C   0  0  1  0  0  0  0  0  0  0  0  0
    7.8766    3.0076   -0.6260 H   0  0  0  0  0  0  0  0  0  0  0  0
    7.5923    3.0244   -2.7362 C   0  0  0  0  0  0  0  0  0  0  0  0
    6.6449    2.4919   -2.6844 H   0  0  0  0  0  0  0  0  0  0  0  0
    8.0942    2.7486   -3.6608 H   0  0  0  0  0  0  0  0  0  0  0  0
    7.3842    4.0932   -2.7591 H   0  0  0  0  0  0  0  0  0  0  0  0
    9.1603   -3.3288   -1.8531 C   0  0  0  0  0  0  0  0  0  0  0  0
    9.6431   -2.6140   -1.1878 H   0  0  0  0  0  0  0  0  0  0  0  0
    9.4067   -3.0684   -2.8812 H   0  0  0  0  0  0  0  0  0  0  0  0
    9.5552   -4.3203   -1.6381 H   0  0  0  0  0  0  0  0  0  0  0  0
    7.6579   -3.2963   -1.6217 C   0  0  2  0  0  0  0  0  0  0  0  0
    7.4624   -3.5989   -0.5835 H   0  0  0  0  0  0  0  0  0  0  0  0
    6.8431   -4.1794   -2.5632 C   0  0  0  0  0  0  0  0  0  0  0  0
    7.1912   -4.0515   -3.5892 H   0  0  0  0  0  0  0  0  0  0  0  0
    6.9605   -5.2334   -2.3030 H   0  0  0  0  0  0  0  0  0  0  0  0
    5.3888   -3.7399   -2.4304 C   0  0  0  0  0  0  0  0  0  0  0  0
    5.0076   -4.0728   -1.4613 H   0  0  0  0  0  0  0  0  0  0  0  0
    4.7620   -4.1846   -3.2058 H   0  0  0  0  0  0  0  0  0  0  0  0
    5.3304   -2.2075   -2.4922 C   0  0  1  0  0  0  0  0  0  0  0  0
    5.3222   -1.8684   -3.5333 H   0  0  0  0  0  0  0  0  0  0  0  0
    4.0920   -1.6394   -1.8075 C   0  0  0  0  0  0  0  0  0  0  0  0
    4.1830   -0.5595   -1.7013 H   0  0  0  0  0  0  0  0  0  0  0  0
    3.9585   -2.0836   -0.8218 H   0  0  0  0  0  0  0  0  0  0  0  0
    3.2010   -1.8551   -2.3954 H   0  0  0  0  0  0  0  0  0  0  0  0
    6.4133    1.3862    4.0524 C   0  0  0  0  0  0  0  0  0  0  0  0
    7.4530    0.8993    4.8361 C   0  0  0  0  0  0  0  0  0  0  0  0
    8.1555    0.1838    4.4306 H   0  0  0  0  0  0  0  0  0  0  0  0
    7.5930    1.3135    6.1483 C   0  0  0  0  0  0  0  0  0  0  0  0
    8.4048    0.9288    6.7478 H   0  0  0  0  0  0  0  0  0  0  0  0
    6.6929    2.2130    6.6933 C   0  0  0  0  0  0  0  0  0  0  0  0
    6.8013    2.5331    7.7188 H   0  0  0  0  0  0  0  0  0  0  0  0
    5.6524    2.6983    5.9201 C   0  0  0  0  0  0  0  0  0  0  0  0
    4.9456    3.3981    6.3405 H   0  0  0  0  0  0  0  0  0  0  0  0
    5.5145    2.2876    4.6064 C   0  0  0  0  0  0  0  0  0  0  0  0
    4.6999    2.6647    4.0052 H   0  0  0  0  0  0  0  0  0  0  0  0
    4.4852   -0.6810    3.4609 C   0  0  0  0  0  0  0  0  0  0  0  0
    4.5123   -1.2922    4.7069 C   0  0  0  0  0  0  0  0  0  0  0  0
    5.4374   -1.7129    5.0741 H   0  0  0  0  0  0  0  0  0  0  0  0
    3.3674   -1.3594    5.4804 C   0  0  0  0  0  0  0  0  0  0  0  0
    3.4014   -1.8355    6.4490 H   0  0  0  0  0  0  0  0  0  0  0  0
    2.1823   -0.8174    5.0141 C   0  0  0  0  0  0  0  0  0  0  0  0
    1.2882   -0.8693    5.6172 H   0  0  0  0  0  0  0  0  0  0  0  0
    2.1474   -0.2056    3.7726 C   0  0  0  0  0  0  0  0  0  0  0  0
    1.2263    0.2221    3.4052 H   0  0  0  0  0  0  0  0  0  0  0  0
    3.2928   -0.1342    3.0007 C   0  0  0  0  0  0  0  0  0  0  0  0
    3.2525    0.3617    2.0403 H   0  0  0  0  0  0  0  0  0  0  0  0
  1  2  1  0  0  0  0
  1  9  1  0  0  0  0
  1  6  1  0  0  0  0
  3  1  1  0  0  0  0
  4 12  1  6  0  0  0
  4 30  1  0  0  0  0
  4  1  1  0  0  0  0
  5 13  1  6  0  0  0
  5 48  1  0  0  0  0
  5  1  1  0  0  0  0
  6  7  1  0  0  0  0
  6 22  1  0  0  0  0
  8  6  1  0  0  0  0
  9 24  1  0  0  0  0
 10  9  1  0  0  0  0
 11  9  1  0  0  0  0
 13 12  1  0  0  0  0
 14 13  2  0  0  0  0
 15 14  1  0  0  0  0
 16 18  2  0  0  0  0
 16 14  1  0  0  0  0
 17 16  1  0  0  0  0
 18 20  1  0  0  0  0
 19 18  1  0  0  0  0
 20 21  1  0  0  0  0
 20 12  2  0  0  0  0
 22 23  1  6  0  0  0
 22 24  1  0  0  0  0
 22 62  1  0  0  0  0
 24 25  1  1  0  0  0
 24 73  1  0  0  0  0
 26 29  1  0  0  0  0
 26 28  1  0  0  0  0
 27 26  1  0  0  0  0
 30 31  1  6  0  0  0
 30 32  1  0  0  0  0
 30 26  1  0  0  0  0
 32 33  1  0  0  0  0
 34 32  1  0  0  0  0
 35 37  1  0  0  0  0
 35 32  1  0  0  0  0
 36 35  1  0  0  0  0
 38 35  1  0  0  0  0
 38  4  1  0  0  0  0
 38 39  1  1  0  0  0
 40 41  1  0  0  0  0
 40 38  1  0  0  0  0
 42 40  1  0  0  0  0
 43 40  1  0  0  0  0
 44 47  1  0  0  0  0
 44 48  1  0  0  0  0
 44 45  1  0  0  0  0
 46 44  1  0  0  0  0
 48 49  1  1  0  0  0
 50 53  1  0  0  0  0
 50 52  1  0  0  0  0
 50 48  1  0  0  0  0
 51 50  1  0  0  0  0
 53 54  1  0  0  0  0
 55 53  1  0  0  0  0
 56 57  1  6  0  0  0
 56 53  1  0  0  0  0
 56 58  1  0  0  0  0
 56  5  1  0  0  0  0
 58 59  1  0  0  0  0
 58 60  1  0  0  0  0
 61 58  1  0  0  0  0
 62 71  2  0  0  0  0
 62 63  1  0  0  0  0
 63 65  2  0  0  0  0
 64 63  1  0  0  0  0
 65 67  1  0  0  0  0
 65 66  1  0  0  0  0
 67 68  1  0  0  0  0
 69 70  1  0  0  0  0
 69 67  2  0  0  0  0
 71 69  1  0  0  0  0
 72 71  1  0  0  0  0
 73 74  1  0  0  0  0
 74 75  1  0  0  0  0
 74 76  2  0  0  0  0
 76 77  1  0  0  0  0
 78 76  1  0  0  0  0
 78 79  1  0  0  0  0
 80 78  2  0  0  0  0
 81 80  1  0  0  0  0
 82 73  2  0  0  0  0
 82 80  1  0  0  0  0
 83 82  1  0  0  0  0
M  END
$$$$
