CSD_code = ACOSEQ | q = 0 | S = 0 | Stoichiometry = C38H38Cl2N2P2Ru | MND = 6
 OpenBabel04212201593D

 83 89  0  0  1  0  0  0  0  0999 V2000
    3.5953    0.7341    0.0468 Ru  0  0  0  0  0  0  0  0  0  0  0  0
    3.6382    0.0936   -2.2741 Cl  0  0  0  0  0  0  0  0  0  0  0  0
    3.6695    1.1750    2.4059 Cl  0  0  0  0  0  0  0  0  0  0  0  0
    3.8971    2.9887   -0.3406 P   0  0  0  0  0  4  0  0  0  0  0  0
    1.3859    1.1896   -0.4255 P   0  0  0  0  0  4  0  0  0  0  0  0
    3.1540   -1.1979    0.4769 N   0  0  0  0  0  0  0  0  0  0  0  0
    5.5698    0.2750    0.1911 N   0  0  0  0  0  0  0  0  0  0  0  0
    2.2451    3.7271   -0.8250 C   0  0  2  0  0  0  0  0  0  0  0  0
    1.7175    3.9076    0.1234 H   0  0  0  0  0  0  0  0  0  0  0  0
    1.4519    2.6513   -1.5839 C   0  0  2  0  0  0  0  0  0  0  0  0
    2.0405    2.3168   -2.4491 H   0  0  0  0  0  0  0  0  0  0  0  0
    2.3776    5.0443   -1.5824 C   0  0  0  0  0  0  0  0  0  0  0  0
    3.0654    5.7107   -1.0635 H   0  0  0  0  0  0  0  0  0  0  0  0
    1.4123    5.5417   -1.6557 H   0  0  0  0  0  0  0  0  0  0  0  0
    2.7609    4.8764   -2.5869 H   0  0  0  0  0  0  0  0  0  0  0  0
    0.0836    3.1352   -2.0490 C   0  0  0  0  0  0  0  0  0  0  0  0
   -0.5101    2.2997   -2.4162 H   0  0  0  0  0  0  0  0  0  0  0  0
    0.1916    3.8530   -2.8599 H   0  0  0  0  0  0  0  0  0  0  0  0
   -0.4583    3.6109   -1.2331 H   0  0  0  0  0  0  0  0  0  0  0  0
    4.9991    3.7103   -1.6140 C   0  0  0  0  0  0  0  0  0  0  0  0
    4.9950    3.1379   -2.8847 C   0  0  0  0  0  0  0  0  0  0  0  0
    4.3902    2.2613   -3.0746 H   0  0  0  0  0  0  0  0  0  0  0  0
    5.7794    3.6664   -3.8936 C   0  0  0  0  0  0  0  0  0  0  0  0
    5.7689    3.2121   -4.8735 H   0  0  0  0  0  0  0  0  0  0  0  0
    6.5775    4.7713   -3.6470 C   0  0  0  0  0  0  0  0  0  0  0  0
    7.1919    5.1841   -4.4337 H   0  0  0  0  0  0  0  0  0  0  0  0
    6.5871    5.3438   -2.3862 C   0  0  0  0  0  0  0  0  0  0  0  0
    7.2076    6.2061   -2.1887 H   0  0  0  0  0  0  0  0  0  0  0  0
    5.8026    4.8208   -1.3738 C   0  0  0  0  0  0  0  0  0  0  0  0
    5.8179    5.2795   -0.3956 H   0  0  0  0  0  0  0  0  0  0  0  0
    4.4189    3.9294    1.1273 C   0  0  0  0  0  0  0  0  0  0  0  0
    3.6655    4.8704    1.8144 C   0  0  0  0  0  0  0  0  0  0  0  0
    2.6804    5.1516    1.4727 H   0  0  0  0  0  0  0  0  0  0  0  0
    4.1727    5.4581    2.9622 C   0  0  0  0  0  0  0  0  0  0  0  0
    3.5785    6.1879    3.4936 H   0  0  0  0  0  0  0  0  0  0  0  0
    5.4249    5.1105    3.4348 C   0  0  0  0  0  0  0  0  0  0  0  0
    5.8099    5.5659    4.3354 H   0  0  0  0  0  0  0  0  0  0  0  0
    6.1816    4.1673    2.7559 C   0  0  0  0  0  0  0  0  0  0  0  0
    7.1559    3.8839    3.1270 H   0  0  0  0  0  0  0  0  0  0  0  0
    5.6800    3.5813    1.6127 C   0  0  0  0  0  0  0  0  0  0  0  0
    6.2572    2.8325    1.0806 H   0  0  0  0  0  0  0  0  0  0  0  0
    0.1340    1.7799    0.7653 C   0  0  0  0  0  0  0  0  0  0  0  0
    0.5793    2.4140    1.9214 C   0  0  0  0  0  0  0  0  0  0  0  0
    1.6398    2.4537    2.1335 H   0  0  0  0  0  0  0  0  0  0  0  0
   -0.3281    2.9570    2.8145 C   0  0  0  0  0  0  0  0  0  0  0  0
    0.0295    3.4442    3.7097 H   0  0  0  0  0  0  0  0  0  0  0  0
   -1.6864    2.8688    2.5624 C   0  0  0  0  0  0  0  0  0  0  0  0
   -2.3969    3.2905    3.2586 H   0  0  0  0  0  0  0  0  0  0  0  0
   -2.1361    2.2307    1.4168 C   0  0  0  0  0  0  0  0  0  0  0  0
   -3.1963    2.1567    1.2203 H   0  0  0  0  0  0  0  0  0  0  0  0
   -1.2343    1.6902    0.5193 C   0  0  0  0  0  0  0  0  0  0  0  0
   -1.5944    1.1934   -0.3706 H   0  0  0  0  0  0  0  0  0  0  0  0
    0.4806   -0.1167   -1.3073 C   0  0  0  0  0  0  0  0  0  0  0  0
    0.5282   -0.2711   -2.6891 C   0  0  0  0  0  0  0  0  0  0  0  0
    1.0522    0.4475   -3.2996 H   0  0  0  0  0  0  0  0  0  0  0  0
   -0.0736   -1.3653   -3.2853 C   0  0  0  0  0  0  0  0  0  0  0  0
   -0.0296   -1.4788   -4.3587 H   0  0  0  0  0  0  0  0  0  0  0  0
   -0.7184   -2.3180   -2.5150 C   0  0  0  0  0  0  0  0  0  0  0  0
   -1.1791   -3.1746   -2.9851 H   0  0  0  0  0  0  0  0  0  0  0  0
   -0.7686   -2.1718   -1.1381 C   0  0  0  0  0  0  0  0  0  0  0  0
   -1.2701   -2.9119   -0.5308 H   0  0  0  0  0  0  0  0  0  0  0  0
   -0.1726   -1.0794   -0.5380 C   0  0  0  0  0  0  0  0  0  0  0  0
   -0.2188   -0.9599    0.5367 H   0  0  0  0  0  0  0  0  0  0  0  0
    2.2675   -1.4691    1.4386 C   0  0  0  0  0  3  0  0  0  0  0  0
    1.8588   -0.6150    1.9672 H   0  0  0  0  0  0  0  0  0  0  0  0
    1.9044   -2.7563    1.7841 C   0  0  0  0  0  0  0  0  0  0  0  0
    1.1882   -2.9134    2.5753 H   0  0  0  0  0  0  0  0  0  0  0  0
    2.4641   -3.8249    1.1004 C   0  0  0  0  0  0  0  0  0  0  0  0
    2.1937   -4.8423    1.3379 H   0  0  0  0  0  0  0  0  0  0  0  0
    3.3848   -3.5451    0.1035 C   0  0  0  0  0  0  0  0  0  0  0  0
    3.8546   -4.3350   -0.4614 H   0  0  0  0  0  0  0  0  0  0  0  0
    3.7062   -2.2285   -0.1683 C   0  0  0  0  0  0  0  0  0  0  0  0
    4.4198   -1.9947   -0.9504 H   0  0  0  0  0  0  0  0  0  0  0  0
    6.4250    0.6357   -0.7703 C   0  0  0  0  0  3  0  0  0  0  0  0
    6.0244    1.2375   -1.5759 H   0  0  0  0  0  0  0  0  0  0  0  0
    7.7553    0.2633   -0.7754 C   0  0  0  0  0  0  0  0  0  0  0  0
    8.3933    0.5864   -1.5828 H   0  0  0  0  0  0  0  0  0  0  0  0
    8.2443   -0.5182    0.2607 C   0  0  0  0  0  0  0  0  0  0  0  0
    9.2781   -0.8264    0.2870 H   0  0  0  0  0  0  0  0  0  0  0  0
    7.3615   -0.8879    1.2631 C   0  0  0  0  0  0  0  0  0  0  0  0
    7.6847   -1.4903    2.0976 H   0  0  0  0  0  0  0  0  0  0  0  0
    6.0435   -0.4769    1.1903 C   0  0  0  0  0  0  0  0  0  0  0  0
    5.3478   -0.7380    1.9795 H   0  0  0  0  0  0  0  0  0  0  0  0
  1  7  1  0  0  0  0
  1  6  1  0  0  0  0
  1  3  1  0  0  0  0
  2  1  1  0  0  0  0
  4  1  1  0  0  0  0
  4 31  1  0  0  0  0
  5  1  1  0  0  0  0
  5 42  1  0  0  0  0
  6 64  1  0  0  0  0
  7 82  1  0  0  0  0
  8  4  1  0  0  0  0
  8  9  1  1  0  0  0
 10 11  1  6  0  0  0
 10  8  1  0  0  0  0
 10  5  1  0  0  0  0
 12 13  1  0  0  0  0
 12  8  1  0  0  0  0
 14 12  1  0  0  0  0
 15 12  1  0  0  0  0
 16 10  1  0  0  0  0
 16 19  1  0  0  0  0
 17 16  1  0  0  0  0
 18 16  1  0  0  0  0
 20 29  1  0  0  0  0
 20  4  1  0  0  0  0
 21 20  2  0  0  0  0
 22 21  1  0  0  0  0
 23 25  2  0  0  0  0
 23 21  1  0  0  0  0
 24 23  1  0  0  0  0
 25 27  1  0  0  0  0
 26 25  1  0  0  0  0
 27 28  1  0  0  0  0
 27 29  2  0  0  0  0
 29 30  1  0  0  0  0
 31 40  2  0  0  0  0
 31 32  1  0  0  0  0
 32 34  2  0  0  0  0
 33 32  1  0  0  0  0
 34 36  1  0  0  0  0
 34 35  1  0  0  0  0
 36 37  1  0  0  0  0
 38 39  1  0  0  0  0
 38 36  2  0  0  0  0
 40 38  1  0  0  0  0
 41 40  1  0  0  0  0
 42 43  1  0  0  0  0
 43 44  1  0  0  0  0
 43 45  2  0  0  0  0
 45 46  1  0  0  0  0
 47 45  1  0  0  0  0
 47 48  1  0  0  0  0
 49 47  2  0  0  0  0
 50 49  1  0  0  0  0
 51 42  2  0  0  0  0
 51 49  1  0  0  0  0
 52 51  1  0  0  0  0
 53 62  1  0  0  0  0
 53  5  1  0  0  0  0
 54 53  2  0  0  0  0
 55 54  1  0  0  0  0
 56 54  1  0  0  0  0
 56 58  2  0  0  0  0
 57 56  1  0  0  0  0
 58 60  1  0  0  0  0
 59 58  1  0  0  0  0
 60 62  2  0  0  0  0
 60 61  1  0  0  0  0
 62 63  1  0  0  0  0
 64 66  1  0  0  0  0
 64 65  1  0  0  0  0
 66 67  1  0  0  0  0
 68 69  1  0  0  0  0
 68 66  2  0  0  0  0
 70 68  1  0  0  0  0
 71 70  1  0  0  0  0
 72 70  2  0  0  0  0
 72  6  1  0  0  0  0
 73 72  1  0  0  0  0
 74  7  1  0  0  0  0
 75 74  1  0  0  0  0
 76 74  1  0  0  0  0
 76 78  2  0  0  0  0
 77 76  1  0  0  0  0
 78 79  1  0  0  0  0
 78 80  1  0  0  0  0
 80 81  1  0  0  0  0
 82 80  2  0  0  0  0
 82 83  1  0  0  0  0
M  END
$$$$
