CSD_code = ACOSAP | q = 0 | S = 0 | Stoichiometry = C27H33ClN2Pd | MND = 4
 OpenBabel04212201593D

 64 68  0  0  0  0  0  0  0  0999 V2000
   -4.0121    6.8403    9.9481 Pd  0  0  1  0  0  0  0  0  0  0  0  0
   -5.9764    6.6329   10.9783 Cl  0  0  0  0  0  0  0  0  0  0  0  0
   -2.8683    7.2157   11.8789 N   0  0  0  0  0  4  0  0  0  0  0  0
   -3.3641    6.4476   12.3355 H   0  0  0  0  0  0  0  0  0  0  0  0
   -2.2704    6.9677    9.1730 N   0  0  0  0  0  0  0  0  0  0  0  0
   -2.9954    8.3524   12.7436 C   0  0  0  0  0  0  0  0  0  0  0  0
   -2.8850    9.6578   12.2424 C   0  0  0  0  0  0  0  0  0  0  0  0
   -3.0944   10.7280   13.1007 C   0  0  0  0  0  0  0  0  0  0  0  0
   -3.0285   11.7352   12.7223 H   0  0  0  0  0  0  0  0  0  0  0  0
   -3.4101   10.5276   14.4287 C   0  0  0  0  0  0  0  0  0  0  0  0
   -3.5801   11.3719   15.0799 H   0  0  0  0  0  0  0  0  0  0  0  0
   -3.5241    9.2419   14.9169 C   0  0  0  0  0  0  0  0  0  0  0  0
   -3.7882    9.0966   15.9516 H   0  0  0  0  0  0  0  0  0  0  0  0
   -3.3090    8.1425   14.0982 C   0  0  0  0  0  0  0  0  0  0  0  0
   -1.5231    6.7230   11.4652 C   0  0  0  0  0  0  0  0  0  0  0  0
   -0.4385    7.2201   12.4220 C   0  0  0  0  0  0  0  0  0  0  0  0
   -0.7329    7.0194   13.4496 H   0  0  0  0  0  0  0  0  0  0  0  0
   -0.2903    8.2923   12.3155 H   0  0  0  0  0  0  0  0  0  0  0  0
    0.5023    6.7090   12.2354 H   0  0  0  0  0  0  0  0  0  0  0  0
   -1.5901    5.1832   11.4821 C   0  0  0  0  0  0  0  0  0  0  0  0
   -1.6869    4.8106   12.5008 H   0  0  0  0  0  0  0  0  0  0  0  0
   -0.6889    4.7559   11.0461 H   0  0  0  0  0  0  0  0  0  0  0  0
   -2.4565    4.8439   10.8903 H   0  0  0  0  0  0  0  0  0  0  0  0
   -1.2326    7.0834   10.0037 C   0  0  0  0  0  0  0  0  0  0  0  0
    0.0248    7.4052    9.5173 C   0  0  0  0  0  0  0  0  0  0  0  0
    0.8741    7.4962   10.1724 H   0  0  0  0  0  0  0  0  0  0  0  0
    0.1598    7.6399    8.1557 C   0  0  0  0  0  0  0  0  0  0  0  0
    1.1196    7.9274    7.7536 H   0  0  0  0  0  0  0  0  0  0  0  0
   -0.9267    7.4997    7.3118 C   0  0  0  0  0  0  0  0  0  0  0  0
   -0.7996    7.6977    6.2650 H   0  0  0  0  0  0  0  0  0  0  0  0
   -2.1675    7.1315    7.8378 C   0  0  0  0  0  0  0  0  0  0  0  0
   -3.4385    6.8914    7.1514 C   0  0  0  0  0  0  0  0  0  0  0  0
   -4.5279    6.6742    8.0384 C   0  0  0  0  0  0  0  0  0  0  0  0
   -5.7969    6.4369    7.5367 C   0  0  0  0  0  0  0  0  0  0  0  0
   -6.6275    6.2799    8.2124 H   0  0  0  0  0  0  0  0  0  0  0  0
   -6.0031    6.3931    6.1673 C   0  0  0  0  0  0  0  0  0  0  0  0
   -6.9914    6.2067    5.7725 H   0  0  0  0  0  0  0  0  0  0  0  0
   -4.9394    6.5755    5.3032 C   0  0  0  0  0  0  0  0  0  0  0  0
   -5.1109    6.5225    4.2371 H   0  0  0  0  0  0  0  0  0  0  0  0
   -3.6519    6.8205    5.7625 C   0  0  0  0  0  0  0  0  0  0  0  0
   -3.4883    6.7505   14.6715 C   0  0  0  0  0  0  0  0  0  0  0  0
   -2.8747    6.0355   14.1109 H   0  0  0  0  0  0  0  0  0  0  0  0
   -4.9600    6.3404   14.5429 C   0  0  0  0  0  0  0  0  0  0  0  0
   -5.5820    7.0048   15.1381 H   0  0  0  0  0  0  0  0  0  0  0  0
   -5.1025    5.3221   14.8993 H   0  0  0  0  0  0  0  0  0  0  0  0
   -5.3070    6.3994   13.5119 H   0  0  0  0  0  0  0  0  0  0  0  0
   -3.0292    6.6371   16.1279 C   0  0  0  0  0  0  0  0  0  0  0  0
   -2.0407    7.0742   16.2589 H   0  0  0  0  0  0  0  0  0  0  0  0
   -2.9832    5.5880   16.4139 H   0  0  0  0  0  0  0  0  0  0  0  0
   -3.7210    7.1312   16.8041 H   0  0  0  0  0  0  0  0  0  0  0  0
   -2.6378    9.9256   10.7746 C   0  0  0  0  0  0  0  0  0  0  0  0
   -2.0936    9.0807   10.3507 H   0  0  0  0  0  0  0  0  0  0  0  0
   -3.9872   10.0462   10.0507 C   0  0  0  0  0  0  0  0  0  0  0  0
   -4.5903    9.1282   10.1843 H   0  0  0  0  0  0  0  0  0  0  0  0
   -3.8289   10.2116    8.9846 H   0  0  0  0  0  0  0  0  0  0  0  0
   -4.5557   10.8819   10.4536 H   0  0  0  0  0  0  0  0  0  0  0  0
   -1.7805   11.1661   10.5156 C   0  0  0  0  0  0  0  0  0  0  0  0
   -2.3347   12.0823   10.7008 H   0  0  0  0  0  0  0  0  0  0  0  0
   -1.4622   11.1763    9.4748 H   0  0  0  0  0  0  0  0  0  0  0  0
   -0.8930   11.1621   11.1457 H   0  0  0  0  0  0  0  0  0  0  0  0
   -2.5696    6.9739    4.7336 C   0  0  0  0  0  0  0  0  0  0  0  0
   -2.9648    6.7394    3.7475 H   0  0  0  0  0  0  0  0  0  0  0  0
   -1.7393    6.2985    4.9331 H   0  0  0  0  0  0  0  0  0  0  0  0
   -2.1987    7.9983    4.7051 H   0  0  0  0  0  0  0  0  0  0  0  0
  1  2  1  1  0  0  0
  1  3  1  0  0  0  0
  3  4  1  0  0  0  0
  3  6  1  0  0  0  0
  5  1  1  0  0  0  0
  5 24  1  0  0  0  0
  6 14  1  0  0  0  0
  7  6  2  0  0  0  0
  7  8  1  0  0  0  0
  8 10  2  0  0  0  0
  9  8  1  0  0  0  0
 10 12  1  0  0  0  0
 10 11  1  0  0  0  0
 12 13  1  0  0  0  0
 14 41  1  0  0  0  0
 14 12  2  0  0  0  0
 15 20  1  0  0  0  0
 15  3  1  0  0  0  0
 15 16  1  0  0  0  0
 16 17  1  0  0  0  0
 18 16  1  0  0  0  0
 19 16  1  0  0  0  0
 20 21  1  0  0  0  0
 22 20  1  0  0  0  0
 23 20  1  0  0  0  0
 24 15  1  0  0  0  0
 25 24  2  0  0  0  0
 25 26  1  0  0  0  0
 27 25  1  0  0  0  0
 28 27  1  0  0  0  0
 29 31  1  0  0  0  0
 29 27  2  0  0  0  0
 30 29  1  0  0  0  0
 31  5  1  0  0  0  0
 32 31  2  0  0  0  0
 32 33  1  0  0  0  0
 33  1  2  0  0  0  0
 34 33  1  0  0  0  0
 34 35  1  0  0  0  0
 36 34  2  0  0  0  0
 37 36  1  0  0  0  0
 38 40  2  0  0  0  0
 38 36  1  0  0  0  0
 39 38  1  0  0  0  0
 40 32  1  0  0  0  0
 41 47  1  0  0  0  0
 42 41  1  0  0  0  0
 43 41  1  0  0  0  0
 43 45  1  0  0  0  0
 43 44  1  0  0  0  0
 46 43  1  0  0  0  0
 47 48  1  0  0  0  0
 47 49  1  0  0  0  0
 47 50  1  0  0  0  0
 51  7  1  0  0  0  0
 52 51  1  0  0  0  0
 53 54  1  0  0  0  0
 53 56  1  0  0  0  0
 53 51  1  0  0  0  0
 55 53  1  0  0  0  0
 57 58  1  0  0  0  0
 57 51  1  0  0  0  0
 57 60  1  0  0  0  0
 59 57  1  0  0  0  0
 61 63  1  0  0  0  0
 61 40  1  0  0  0  0
 62 61  1  0  0  0  0
 64 61  1  0  0  0  0
M  END
$$$$
