CSD_code = ACOZOJ | q = 0 | S = 0 | Stoichiometry = C22H22Cl2N10Zn | MND = 4
 OpenBabel04212201593D

 57 62  0  0  1  0  0  0  0  0999 V2000
    3.8706   11.5378    5.3858 Zn  0  0  0  0  0  0  0  0  0  0  0  0
    2.0439   12.9935    8.0974 C   0  0  0  0  0  0  0  0  0  0  0  0
    1.8602   12.0901    7.5201 H   0  0  0  0  0  0  0  0  0  0  0  0
    1.1526   13.6181    8.0431 H   0  0  0  0  0  0  0  0  0  0  0  0
    2.2227   12.7408    9.1425 H   0  0  0  0  0  0  0  0  0  0  0  0
    7.5186    9.3881    8.9832 C   0  0  0  0  0  0  0  0  0  0  0  0
    7.4523    8.4644    9.5673 H   0  0  0  0  0  0  0  0  0  0  0  0
    8.3538    9.3304    8.2771 H   0  0  0  0  0  0  0  0  0  0  0  0
    6.4437   10.5148   13.3082 C   0  0  0  0  0  0  0  0  0  0  0  0
    5.8778    9.9770   14.0533 H   0  0  0  0  0  0  0  0  0  0  0  0
    5.8175   15.1515   13.1853 C   0  0  0  0  0  0  0  0  0  0  0  0
    5.8474   14.5547   14.0812 H   0  0  0  0  0  0  0  0  0  0  0  0
    6.9743   11.7690   13.6403 C   0  0  0  0  0  0  0  0  0  0  0  0
    6.8070   12.1479   14.6369 H   0  0  0  0  0  0  0  0  0  0  0  0
    7.6982   12.5145   12.7408 C   0  0  0  0  0  0  0  0  0  0  0  0
    8.1155   13.4766   12.9864 H   0  0  0  0  0  0  0  0  0  0  0  0
    6.6866   16.1928   12.9628 C   0  0  0  0  0  0  0  0  0  0  0  0
    7.4385   16.4274   13.7012 H   0  0  0  0  0  0  0  0  0  0  0  0
    7.2315   11.0313    6.4530 C   0  0  0  0  0  0  0  0  0  0  0  0
    6.8368   11.5409    5.5768 H   0  0  0  0  0  0  0  0  0  0  0  0
    7.9760   10.3076    6.1225 H   0  0  0  0  0  0  0  0  0  0  0  0
    7.7225   11.7477    7.1120 H   0  0  0  0  0  0  0  0  0  0  0  0
    5.6852   16.7526   10.8202 C   0  0  0  0  0  0  0  0  0  0  0  0
    5.6394   17.3651    9.9330 H   0  0  0  0  0  0  0  0  0  0  0  0
    6.6275   16.9726   11.7990 C   0  0  0  0  0  0  0  0  0  0  0  0
    7.3400   17.7735   11.6739 H   0  0  0  0  0  0  0  0  0  0  0  0
    4.7579   15.2362    7.2271 C   0  0  0  0  0  0  0  0  0  0  0  0
    5.3065   16.1396    7.3936 H   0  0  0  0  0  0  0  0  0  0  0  0
    6.6269    9.9494   12.0668 C   0  0  0  0  0  0  0  0  0  0  0  0
    6.2224    8.9794   11.8225 H   0  0  0  0  0  0  0  0  0  0  0  0
    4.8670   14.8962   12.1983 C   0  0  0  0  0  0  0  0  0  0  0  0
    4.9124   14.2440    6.3159 C   0  0  0  0  0  0  0  0  0  0  0  0
    5.6285   14.1320    5.5278 H   0  0  0  0  0  0  0  0  0  0  0  0
    7.8852   11.9681   11.4724 C   0  0  0  0  0  0  0  0  0  0  0  0
    5.0506    9.1128    8.6249 C   0  0  0  0  0  0  0  0  0  0  0  0
    4.9097    8.4752    9.4723 H   0  0  0  0  0  0  0  0  0  0  0  0
    4.7992   15.7059   11.0382 C   0  0  0  0  0  0  0  0  0  0  0  0
    3.2076   13.7017    7.5270 C   0  0  2  0  0  3  0  0  0  0  0  0
    3.1522   15.6261    9.1135 C   0  0  0  0  0  0  0  0  0  0  0  0
    3.3648   16.6913    8.9755 H   0  0  0  0  0  0  0  0  0  0  0  0
    2.0709   15.4637    9.1803 H   0  0  0  0  0  0  0  0  0  0  0  0
    7.3602   10.6924   11.1515 C   0  0  0  0  0  0  0  0  0  0  0  0
    4.1746    9.6105    7.7175 C   0  0  0  0  0  0  0  0  0  0  0  0
    3.1153    9.4792    7.6316 H   0  0  0  0  0  0  0  0  0  0  0  0
    6.1248   10.3490    7.1531 C   0  0  1  0  0  3  0  0  0  0  0  0
    5.2515   11.9475    3.7136 Cl  0  0  0  0  0  0  0  0  0  0  0  0
    1.8040   10.7618    5.4238 Cl  0  0  0  0  0  0  0  0  0  0  0  0
    3.8730   13.9657   12.1073 N   0  0  0  0  0  0  0  0  0  0  0  0
    8.5432   12.4302   10.3698 N   0  0  0  0  0  0  0  0  0  0  0  0
    3.2287   14.1512   11.0388 N   0  0  0  0  0  0  0  0  0  0  0  0
    8.4691   11.5681    9.4520 N   0  0  0  0  0  0  0  0  0  0  0  0
    3.7352   15.1948   10.3519 N   0  0  0  0  0  0  0  0  0  0  0  0
    4.8558   10.3741    6.8141 N   0  0  0  0  0  0  0  0  0  0  0  0
    3.6682   14.8918    7.9908 N   0  0  0  0  0  0  0  0  0  0  0  0
    7.7755   10.4889    9.8664 N   0  0  0  0  0  0  0  0  0  0  0  0
    6.2911    9.5776    8.2583 N   0  0  0  0  0  0  0  0  0  0  0  0
    3.9442   13.3023    6.5151 N   0  0  0  0  0  0  0  0  0  0  0  0
  1 47  1  0  0  0  0
  1 57  1  0  0  0  0
  1 53  1  0  0  0  0
  2  5  1  0  0  0  0
  3  2  1  0  0  0  0
  4  2  1  0  0  0  0
  6  7  1  0  0  0  0
  6 55  1  0  0  0  0
  8  6  1  0  0  0  0
  9 13  1  0  0  0  0
  9 10  1  0  0  0  0
 11 12  1  0  0  0  0
 13 14  1  0  0  0  0
 15 16  1  0  0  0  0
 15 13  2  0  0  0  0
 17 11  1  0  0  0  0
 17 18  1  0  0  0  0
 19 22  1  0  0  0  0
 20 19  1  0  0  0  0
 21 19  1  0  0  0  0
 23 37  2  0  0  0  0
 23 25  1  0  0  0  0
 24 23  1  0  0  0  0
 25 17  2  0  0  0  0
 26 25  1  0  0  0  0
 27 28  1  0  0  0  0
 27 54  1  0  0  0  0
 29  9  2  0  0  0  0
 30 29  1  0  0  0  0
 31 11  2  0  0  0  0
 32 57  1  0  0  0  0
 32 27  2  0  0  0  0
 33 32  1  0  0  0  0
 34 15  1  0  0  0  0
 35 36  1  0  0  0  0
 37 31  1  0  0  0  0
 38 54  1  0  0  0  0
 38  2  1  6  0  0  0
 39 41  1  0  0  0  0
 39 52  1  0  0  0  0
 40 39  1  0  0  0  0
 42 34  2  0  0  0  0
 42 29  1  0  0  0  0
 43 35  2  0  0  0  0
 44 43  1  0  0  0  0
 45 19  1  6  0  0  0
 45 56  1  0  0  0  0
 46  1  1  0  0  0  0
 48 31  1  0  0  0  0
 49 34  1  0  0  0  0
 50 48  2  0  0  0  0
 51 55  1  0  0  0  0
 51 49  2  0  0  0  0
 52 37  1  0  0  0  0
 52 50  1  0  0  0  0
 53 45  1  0  0  0  0
 53 43  1  0  0  0  0
 54 39  1  0  0  0  0
 55 42  1  0  0  0  0
 56 35  1  0  0  0  0
 56  6  1  0  0  0  0
 57 38  1  0  0  0  0
M  END
$$$$
