CSD_code = ACOZIE | q = 1 | S = 0 | Stoichiometry = C12H28Cl2CoN4(1+) | MND = 6
 OpenBabel04212201593D

 47 50  0  0  1  0  0  0  0  0999 V2000
    4.1295   12.2831    1.6366 Co  0  0  0  0  0  0  0  0  0  0  0  0
    3.2616   10.4214    1.8030 N   0  0  0  0  0  4  0  0  0  0  0  0
    3.8677    9.6239    1.6109 H   0  0  0  0  0  0  0  0  0  0  0  0
    2.8959   10.2958    2.7453 H   0  0  0  0  0  0  0  0  0  0  0  0
    2.1236   10.3860    0.8616 C   0  0  1  0  0  0  0  0  0  0  0  0
    1.3130   10.9619    1.3182 H   0  0  0  0  0  0  0  0  0  0  0  0
    3.0684   12.4207   -0.0031 N   0  0  0  0  0  4  0  0  0  0  0  0
    2.2707   13.0048    0.2718 H   0  0  0  0  0  0  0  0  0  0  0  0
    3.5106   12.9075   -0.7850 H   0  0  0  0  0  0  0  0  0  0  0  0
    2.5562   11.1056   -0.4183 C   0  0  2  0  0  0  0  0  0  0  0  0
    3.3772   10.5492   -0.8876 H   0  0  0  0  0  0  0  0  0  0  0  0
    1.3835   11.1917   -1.3946 C   0  0  0  0  0  0  0  0  0  0  0  0
    1.6921   11.6961   -2.3116 H   0  0  0  0  0  0  0  0  0  0  0  0
    0.5767   11.7710   -0.9415 H   0  0  0  0  0  0  0  0  0  0  0  0
    0.8819    9.7840   -1.7165 C   0  0  0  0  0  0  0  0  0  0  0  0
    0.0286    9.8498   -2.3903 H   0  0  0  0  0  0  0  0  0  0  0  0
    1.6675    9.2255   -2.2296 H   0  0  0  0  0  0  0  0  0  0  0  0
    0.4745    9.0457   -0.4446 C   0  0  0  0  0  0  0  0  0  0  0  0
    0.1479    8.0368   -0.6943 H   0  0  0  0  0  0  0  0  0  0  0  0
   -0.3647    9.5616    0.0241 H   0  0  0  0  0  0  0  0  0  0  0  0
    1.6386    8.9742    0.5436 C   0  0  0  0  0  0  0  0  0  0  0  0
    1.3176    8.4718    1.4574 H   0  0  0  0  0  0  0  0  0  0  0  0
    2.4544    8.3943    0.1029 H   0  0  0  0  0  0  0  0  0  0  0  0
    5.8341   11.5585    0.7313 N   0  0  0  0  0  4  0  0  0  0  0  0
    5.7996   10.5873    0.4214 H   0  0  0  0  0  0  0  0  0  0  0  0
    6.0573   12.1226   -0.0871 H   0  0  0  0  0  0  0  0  0  0  0  0
    6.9382   11.7037    1.7021 C   0  0  1  0  0  0  0  0  0  0  0  0
    7.2195   12.7610    1.7097 H   0  0  0  0  0  0  0  0  0  0  0  0
    5.1861   12.1696    3.2808 N   0  0  0  0  0  4  0  0  0  0  0  0
    5.4812   13.1384    3.4469 H   0  0  0  0  0  0  0  0  0  0  0  0
    4.6785   11.8874    4.1213 H   0  0  0  0  0  0  0  0  0  0  0  0
    6.3900   11.3471    3.0861 C   0  0  2  0  0  0  0  0  0  0  0  0
    6.0910   10.2915    3.0977 H   0  0  0  0  0  0  0  0  0  0  0  0
    7.4610   11.5792    4.1514 C   0  0  0  0  0  0  0  0  0  0  0  0
    7.0752   11.3167    5.1377 H   0  0  0  0  0  0  0  0  0  0  0  0
    7.7373   12.6353    4.1630 H   0  0  0  0  0  0  0  0  0  0  0  0
    8.6931   10.7332    3.8306 C   0  0  0  0  0  0  0  0  0  0  0  0
    8.4321    9.6742    3.8838 H   0  0  0  0  0  0  0  0  0  0  0  0
    9.4648   10.9217    4.5758 H   0  0  0  0  0  0  0  0  0  0  0  0
    9.2320   11.0598    2.4408 C   0  0  0  0  0  0  0  0  0  0  0  0
   10.0917   10.4272    2.2223 H   0  0  0  0  0  0  0  0  0  0  0  0
    9.5664   12.0979    2.4137 H   0  0  0  0  0  0  0  0  0  0  0  0
    8.1584   10.8475    1.3735 C   0  0  0  0  0  0  0  0  0  0  0  0
    8.5537   11.1164    0.3928 H   0  0  0  0  0  0  0  0  0  0  0  0
    7.8732    9.7919    1.3496 H   0  0  0  0  0  0  0  0  0  0  0  0
    4.9159   14.2579    1.2907 Cl  0  0  0  0  0  0  0  0  0  0  0  0
    2.4589   13.0459    2.7616 Cl  0  0  0  0  0  0  0  0  0  0  0  0
  1  2  1  0  0  0  0
  1 47  1  0  0  0  0
  1 29  1  0  0  0  0
  2  4  1  0  0  0  0
  3  2  1  0  0  0  0
  5  6  1  1  0  0  0
  5  2  1  0  0  0  0
  7  8  1  0  0  0  0
  7  1  1  0  0  0  0
  9  7  1  0  0  0  0
 10 11  1  6  0  0  0
 10  7  1  0  0  0  0
 10  5  1  0  0  0  0
 12 14  1  0  0  0  0
 12 10  1  0  0  0  0
 13 12  1  0  0  0  0
 15 12  1  0  0  0  0
 15 18  1  0  0  0  0
 16 15  1  0  0  0  0
 17 15  1  0  0  0  0
 18 20  1  0  0  0  0
 18 21  1  0  0  0  0
 19 18  1  0  0  0  0
 21  5  1  0  0  0  0
 21 22  1  0  0  0  0
 23 21  1  0  0  0  0
 24  1  1  0  0  0  0
 24 27  1  0  0  0  0
 25 24  1  0  0  0  0
 26 24  1  0  0  0  0
 27 28  1  1  0  0  0
 27 32  1  0  0  0  0
 29 30  1  0  0  0  0
 29 31  1  0  0  0  0
 32 33  1  1  0  0  0
 32 29  1  0  0  0  0
 32 34  1  0  0  0  0
 34 36  1  0  0  0  0
 34 35  1  0  0  0  0
 37 38  1  0  0  0  0
 37 34  1  0  0  0  0
 37 39  1  0  0  0  0
 40 37  1  0  0  0  0
 41 40  1  0  0  0  0
 42 40  1  0  0  0  0
 43 27  1  0  0  0  0
 43 40  1  0  0  0  0
 44 43  1  0  0  0  0
 45 43  1  0  0  0  0
 46  1  1  0  0  0  0
M  END
$$$$
