CSD_code = ACPIPR | q = 0 | S = 0 | Stoichiometry = C28H37Cl3NOP2Re | MND = 6
 OpenBabel04212201593D

 73 75  0  0  0  0  0  0  0  0999 V2000
    3.9171    2.0652    4.5223 Cl  0  0  0  0  0  0  0  0  0  0  0  0
    1.0168    3.3706    5.1124 Cl  0  0  0  0  0  0  0  0  0  0  0  0
    3.6880    2.1128    1.2979 Cl  0  0  0  0  0  0  0  0  0  0  0  0
   -3.0929    4.9436   -1.2524 C   0  0  0  0  0  0  0  0  0  0  0  0
   -0.3390    0.6237    2.4480 C   0  0  0  0  0  0  0  0  0  0  0  0
    2.4805    5.9691    1.8288 C   0  0  0  0  0  0  0  0  0  0  0  0
    0.0846    3.7035    1.3335 C   0  0  0  0  0  0  0  0  0  0  0  0
    1.0000   -0.1235    4.8987 C   0  0  0  0  0  0  0  0  0  0  0  0
    2.1828   -0.8145    2.3010 C   0  0  0  0  0  0  0  0  0  0  0  0
    5.0807    5.0114    2.6402 C   0  0  0  0  0  0  0  0  0  0  0  0
    3.1872    6.0159    4.6489 C   0  0  0  0  0  0  0  0  0  0  0  0
   -4.1042    5.9459   -0.7500 C   0  0  0  0  0  0  0  0  0  0  0  0
   -1.2766    1.4379    3.0828 C   0  0  0  0  0  0  0  0  0  0  0  0
    2.5634    5.4737    0.5275 C   0  0  0  0  0  0  0  0  0  0  0  0
   -0.8733    4.6289    1.7999 C   0  0  0  0  0  0  0  0  0  0  0  0
    0.2218   -1.4319    4.9235 C   0  0  0  0  0  0  0  0  0  0  0  0
    3.5268   -1.1543    2.9343 C   0  0  0  0  0  0  0  0  0  0  0  0
    5.6609    6.4080    2.4647 C   0  0  0  0  0  0  0  0  0  0  0  0
    3.9744    5.4117    5.8056 C   0  0  0  0  0  0  0  0  0  0  0  0
   -2.5090    1.6642    2.5016 C   0  0  0  0  0  0  0  0  0  0  0  0
    1.8661    6.0842   -0.4965 C   0  0  0  0  0  0  0  0  0  0  0  0
   -1.8951    5.0419    0.9821 C   0  0  0  0  0  0  0  0  0  0  0  0
   -2.8139    1.0942    1.2757 C   0  0  0  0  0  0  0  0  0  0  0  0
    1.0703    7.1876   -0.2319 C   0  0  0  0  0  0  0  0  0  0  0  0
   -2.0082    4.5517   -0.3228 C   0  0  0  0  0  0  0  0  0  0  0  0
   -1.8837    0.2924    0.6378 C   0  0  0  0  0  0  0  0  0  0  0  0
    0.9796    7.6791    1.0586 C   0  0  0  0  0  0  0  0  0  0  0  0
   -1.0535    3.6374   -0.7855 C   0  0  0  0  0  0  0  0  0  0  0  0
   -0.6484    0.0573    1.2170 C   0  0  0  0  0  0  0  0  0  0  0  0
    1.6777    7.0730    2.0895 C   0  0  0  0  0  0  0  0  0  0  0  0
   -0.0225    3.2172    0.0131 C   0  0  0  0  0  0  0  0  0  0  0  0
   -4.8286    6.1458   -1.5354 H   0  0  0  0  0  0  0  0  0  0  0  0
   -1.0208    1.9147    4.0191 H   0  0  0  0  0  0  0  0  0  0  0  0
   -3.2289    2.2967    2.9992 H   0  0  0  0  0  0  0  0  0  0  0  0
   -3.7715    1.2817    0.8134 H   0  0  0  0  0  0  0  0  0  0  0  0
    0.0722   -0.5585    0.7011 H   0  0  0  0  0  0  0  0  0  0  0  0
   -2.1164   -0.1450   -0.3217 H   0  0  0  0  0  0  0  0  0  0  0  0
    1.9734   -0.2312    5.3872 H   0  0  0  0  0  0  0  0  0  0  0  0
    0.7949   -2.2437    4.4809 H   0  0  0  0  0  0  0  0  0  0  0  0
   -4.6206    5.5512    0.1221 H   0  0  0  0  0  0  0  0  0  0  0  0
    3.1553    4.5897    0.3319 H   0  0  0  0  0  0  0  0  0  0  0  0
    1.9312    5.6925   -1.5003 H   0  0  0  0  0  0  0  0  0  0  0  0
    0.5167    7.6584   -1.0305 H   0  0  0  0  0  0  0  0  0  0  0  0
    0.3566    8.5364    1.2681 H   0  0  0  0  0  0  0  0  0  0  0  0
    1.5861    7.4595    3.0929 H   0  0  0  0  0  0  0  0  0  0  0  0
    0.4576    0.6629    5.4322 H   0  0  0  0  0  0  0  0  0  0  0  0
    1.5295   -1.6912    2.2560 H   0  0  0  0  0  0  0  0  0  0  0  0
    2.3501   -0.4384    1.2872 H   0  0  0  0  0  0  0  0  0  0  0  0
   -0.0099   -1.7043    5.9513 H   0  0  0  0  0  0  0  0  0  0  0  0
    3.4080   -1.5413    3.9448 H   0  0  0  0  0  0  0  0  0  0  0  0
    4.0413   -1.9051    2.3378 H   0  0  0  0  0  0  0  0  0  0  0  0
    4.1567   -0.2673    2.9703 H   0  0  0  0  0  0  0  0  0  0  0  0
   -3.6081    6.8731   -0.4727 H   0  0  0  0  0  0  0  0  0  0  0  0
   -0.7757    4.9877    2.8128 H   0  0  0  0  0  0  0  0  0  0  0  0
   -2.6143    5.7484    1.3656 H   0  0  0  0  0  0  0  0  0  0  0  0
   -1.1539    3.2719   -1.7970 H   0  0  0  0  0  0  0  0  0  0  0  0
    0.7221    2.5176   -0.3329 H   0  0  0  0  0  0  0  0  0  0  0  0
    5.6292    4.4458    3.3998 H   0  0  0  0  0  0  0  0  0  0  0  0
    5.1443    4.4431    1.7073 H   0  0  0  0  0  0  0  0  0  0  0  0
   -0.7140   -1.3300    4.3762 H   0  0  0  0  0  0  0  0  0  0  0  0
    5.7038    6.9427    3.4111 H   0  0  0  0  0  0  0  0  0  0  0  0
    6.6727    6.3400    2.0702 H   0  0  0  0  0  0  0  0  0  0  0  0
    5.0586    6.9867    1.7661 H   0  0  0  0  0  0  0  0  0  0  0  0
    3.5297    7.0299    4.4206 H   0  0  0  0  0  0  0  0  0  0  0  0
    2.1261    6.0452    4.9144 H   0  0  0  0  0  0  0  0  0  0  0  0
    5.0376    5.3520    5.5792 H   0  0  0  0  0  0  0  0  0  0  0  0
    3.8475    6.0174    6.7008 H   0  0  0  0  0  0  0  0  0  0  0  0
    3.6059    4.4111    6.0241 H   0  0  0  0  0  0  0  0  0  0  0  0
    1.0614    3.2964    2.1247 N   0  0  0  0  0  2  0  0  0  0  0  0
   -3.1678    4.4757   -2.3686 O   0  0  0  0  0  0  0  0  0  0  0  0
    1.3064    0.5189    3.2070 P   0  0  0  0  0  4  0  0  0  0  0  0
    3.3102    5.0039    3.1232 P   0  0  0  0  0  4  0  0  0  0  0  0
    2.3435    2.7454    3.1949 Re  0  0  0  0  0  0  0  0  0  0  0  0
  3 73  1  0  0  0  0
  4 12  1  0  0  0  0
  4 25  1  0  0  0  0
  5 13  1  0  0  0  0
  5 71  1  0  0  0  0
  6 30  1  0  0  0  0
  6 72  1  0  0  0  0
  7 15  1  0  0  0  0
  7 69  1  0  0  0  0
  8 16  1  0  0  0  0
  8 38  1  0  0  0  0
  8 46  1  0  0  0  0
  9 17  1  0  0  0  0
  9 71  1  0  0  0  0
 10 72  1  0  0  0  0
 10 58  1  0  0  0  0
 11 65  1  0  0  0  0
 11 19  1  0  0  0  0
 12 53  1  0  0  0  0
 12 40  1  0  0  0  0
 13 33  1  0  0  0  0
 14  6  2  0  0  0  0
 15 54  1  0  0  0  0
 16 49  1  0  0  0  0
 17 52  1  0  0  0  0
 17 50  1  0  0  0  0
 18 10  1  0  0  0  0
 18 61  1  0  0  0  0
 19 68  1  0  0  0  0
 19 67  1  0  0  0  0
 20 34  1  0  0  0  0
 20 13  2  0  0  0  0
 21 24  2  0  0  0  0
 21 14  1  0  0  0  0
 22 55  1  0  0  0  0
 22 15  2  0  0  0  0
 23 20  1  0  0  0  0
 24 27  1  0  0  0  0
 25 22  1  0  0  0  0
 26 29  1  0  0  0  0
 26 23  2  0  0  0  0
 27 44  1  0  0  0  0
 27 30  2  0  0  0  0
 28 25  2  0  0  0  0
 28 31  1  0  0  0  0
 29  5  2  0  0  0  0
 30 45  1  0  0  0  0
 31  7  2  0  0  0  0
 32 12  1  0  0  0  0
 35 23  1  0  0  0  0
 36 29  1  0  0  0  0
 37 26  1  0  0  0  0
 39 16  1  0  0  0  0
 41 14  1  0  0  0  0
 42 21  1  0  0  0  0
 43 24  1  0  0  0  0
 47  9  1  0  0  0  0
 48  9  1  0  0  0  0
 51 17  1  0  0  0  0
 56 28  1  0  0  0  0
 57 31  1  0  0  0  0
 59 10  1  0  0  0  0
 60 16  1  0  0  0  0
 62 18  1  0  0  0  0
 63 18  1  0  0  0  0
 64 11  1  0  0  0  0
 66 19  1  0  0  0  0
 69 73  1  0  0  0  0
 70  4  2  0  0  0  0
 71  8  1  0  0  0  0
 72 73  1  0  0  0  0
 72 11  1  0  0  0  0
 73 71  1  0  0  0  0
 73  1  1  0  0  0  0
 73  2  1  0  0  0  0
M  END
$$$$
