CSD_code = ACPYZN | q = 0 | S = 0 | Stoichiometry = C14H14Cl2N2O2Zn | MND = 4
 OpenBabel04212201593D

 35 36  0  0  0  0  0  0  0  0999 V2000
    6.4964    7.1021    1.4298 Zn  0  0  0  0  0  0  0  0  0  0  0  0
    5.5432    5.3039    2.2682 Cl  0  0  0  0  0  0  0  0  0  0  0  0
    7.2122    9.0932    2.0834 Cl  0  0  0  0  0  0  0  0  0  0  0  0
    8.2428    6.3034    0.4664 N   0  0  0  0  0  0  0  0  0  0  0  0
    9.2800    7.0931    0.2096 C   0  0  0  0  0  3  0  0  0  0  0  0
   10.4841    6.6147   -0.2763 C   0  0  0  0  0  0  0  0  0  0  0  0
    8.3583    4.9979    0.2451 C   0  0  0  0  0  0  0  0  0  0  0  0
   11.8673    4.6121   -1.0448 C   0  0  0  0  0  0  0  0  0  0  0  0
   13.1315    5.4152   -0.9186 C   0  0  0  0  0  0  0  0  0  0  0  0
   11.8325    3.5114   -1.5367 O   0  0  0  0  0  0  0  0  0  0  0  0
   10.6173    5.2488   -0.5144 C   0  0  0  0  0  0  0  0  0  0  0  0
    9.5193    4.4319   -0.2478 C   0  0  0  0  0  0  0  0  0  0  0  0
    5.1779    7.6205   -0.1859 N   0  0  0  0  0  0  0  0  0  0  0  0
    4.2733    6.7516   -0.6265 C   0  0  0  0  0  3  0  0  0  0  0  0
    3.3111    7.0949   -1.5577 C   0  0  0  0  0  0  0  0  0  0  0  0
    3.2717    8.3990   -2.0498 C   0  0  0  0  0  0  0  0  0  0  0  0
    4.2249    9.2996   -1.5805 C   0  0  0  0  0  0  0  0  0  0  0  0
    5.1562    8.8635   -0.6543 C   0  0  0  0  0  0  0  0  0  0  0  0
    2.2126    8.7502   -3.0522 C   0  0  0  0  0  0  0  0  0  0  0  0
    1.9405   10.2148   -3.2517 C   0  0  0  0  0  0  0  0  0  0  0  0
    1.6213    7.8838   -3.6472 O   0  0  0  0  0  0  0  0  0  0  0  0
    9.1334    8.1436    0.4195 H   0  0  0  0  0  0  0  0  0  0  0  0
   11.2897    7.3045   -0.4676 H   0  0  0  0  0  0  0  0  0  0  0  0
    9.5925    3.3700   -0.4243 H   0  0  0  0  0  0  0  0  0  0  0  0
    7.4906    4.3993    0.4843 H   0  0  0  0  0  0  0  0  0  0  0  0
   13.0980    6.2563   -1.6091 H   0  0  0  0  0  0  0  0  0  0  0  0
   13.2416    5.8009    0.0920 H   0  0  0  0  0  0  0  0  0  0  0  0
   13.9835    4.7898   -1.1718 H   0  0  0  0  0  0  0  0  0  0  0  0
    4.3264    5.7586   -0.2029 H   0  0  0  0  0  0  0  0  0  0  0  0
    2.5868    6.3746   -1.9053 H   0  0  0  0  0  0  0  0  0  0  0  0
    4.2582   10.3206   -1.9240 H   0  0  0  0  0  0  0  0  0  0  0  0
    5.9077    9.5296   -0.2534 H   0  0  0  0  0  0  0  0  0  0  0  0
    1.0544   10.3367   -3.8692 H   0  0  0  0  0  0  0  0  0  0  0  0
    1.7964   10.7113   -2.2951 H   0  0  0  0  0  0  0  0  0  0  0  0
    2.7864   10.6767   -3.7582 H   0  0  0  0  0  0  0  0  0  0  0  0
  1  3  1  0  0  0  0
  1  2  1  0  0  0  0
  4  1  1  0  0  0  0
  5 22  1  0  0  0  0
  5  4  1  0  0  0  0
  6  5  1  0  0  0  0
  7  4  1  0  0  0  0
  7 25  1  0  0  0  0
  8  9  1  0  0  0  0
  8 11  1  0  0  0  0
  9 27  1  0  0  0  0
 10  8  2  0  0  0  0
 11  6  2  0  0  0  0
 11 12  1  0  0  0  0
 12  7  2  0  0  0  0
 13  1  1  0  0  0  0
 14 29  1  0  0  0  0
 14 13  1  0  0  0  0
 15 14  1  0  0  0  0
 16 17  1  0  0  0  0
 16 15  2  0  0  0  0
 17 18  2  0  0  0  0
 18 32  1  0  0  0  0
 18 13  1  0  0  0  0
 19 16  1  0  0  0  0
 20 19  1  0  0  0  0
 20 34  1  0  0  0  0
 21 19  2  0  0  0  0
 23  6  1  0  0  0  0
 24 12  1  0  0  0  0
 26  9  1  0  0  0  0
 28  9  1  0  0  0  0
 30 15  1  0  0  0  0
 31 17  1  0  0  0  0
 33 20  1  0  0  0  0
 35 20  1  0  0  0  0
M  END
$$$$
