CSD_code = ACUCAF | q = 0 | S = 0 | Stoichiometry = C13H9Br2HgN3 | MND = 4
 OpenBabel04212201593D

 28 30  0  0  0  0  0  0  0  0999 V2000
    3.0603    7.8206    5.5221 C   0  0  0  0  0  0  0  0  0  0  0  0
    3.2273    6.9663    6.1649 H   0  0  0  0  0  0  0  0  0  0  0  0
    3.6338    7.7721    4.3351 N   0  0  0  0  0  0  0  0  0  0  0  0
    2.6929    4.4404    2.9393 Br  0  0  0  0  0  0  0  0  0  0  0  0
    7.0354    6.0126    4.2380 Br  0  0  0  0  0  0  0  0  0  0  0  0
    4.8396    5.5253    3.3015 Hg  0  0  0  0  0  0  0  0  0  0  0  0
    4.6214    7.4626    1.9322 N   0  0  0  0  0  0  0  0  0  0  0  0
    5.7273    5.9473    0.6721 N   0  0  0  0  0  0  0  0  0  0  0  0
    3.4719    8.7990    3.4917 C   0  0  0  0  0  0  0  0  0  0  0  0
    5.2791    7.2105    0.7966 C   0  0  0  0  0  0  0  0  0  0  0  0
    4.1516    8.6626    2.1913 C   0  0  0  0  0  0  0  0  0  0  0  0
    2.2840    8.8913    5.9475 C   0  0  0  0  0  0  0  0  0  0  0  0
    1.8372    8.8848    6.9286 H   0  0  0  0  0  0  0  0  0  0  0  0
    2.0984    9.9514    5.0777 C   0  0  0  0  0  0  0  0  0  0  0  0
    1.4936   10.8001    5.3610 H   0  0  0  0  0  0  0  0  0  0  0  0
    2.7005    9.9082    3.8304 C   0  0  0  0  0  0  0  0  0  0  0  0
    2.5547   10.7172    3.1331 H   0  0  0  0  0  0  0  0  0  0  0  0
    4.3223    9.7233    1.2717 C   0  0  0  0  0  0  0  0  0  0  0  0
    3.9506   10.7083    1.5016 H   0  0  0  0  0  0  0  0  0  0  0  0
    5.4905    8.2099   -0.1866 C   0  0  0  0  0  0  0  0  0  0  0  0
    4.9827    9.4949    0.0947 C   0  0  0  0  0  0  0  0  0  0  0  0
    5.1303   10.2896   -0.6229 H   0  0  0  0  0  0  0  0  0  0  0  0
    6.2020    7.8340   -1.3432 C   0  0  0  0  0  3  0  0  0  0  0  0
    6.3865    8.5647   -2.1177 H   0  0  0  0  0  0  0  0  0  0  0  0
    6.3871    5.6325   -0.4095 C   0  0  0  0  0  0  0  0  0  0  0  0
    6.7396    4.6120   -0.4741 H   0  0  0  0  0  0  0  0  0  0  0  0
    6.6487    6.5437   -1.4510 C   0  0  0  0  0  0  0  0  0  0  0  0
    7.2001    6.2137   -2.3169 H   0  0  0  0  0  0  0  0  0  0  0  0
  1 12  1  0  0  0  0
  1  2  1  0  0  0  0
  3  1  2  0  0  0  0
  4  6  1  0  0  0  0
  6  5  1  0  0  0  0
  7 11  1  0  0  0  0
  7  6  1  0  0  0  0
  8 10  2  0  0  0  0
  9 16  2  0  0  0  0
  9  3  1  0  0  0  0
 10  7  1  0  0  0  0
 11  9  1  0  0  0  0
 12 13  1  0  0  0  0
 14 15  1  0  0  0  0
 14 12  2  0  0  0  0
 16 14  1  0  0  0  0
 17 16  1  0  0  0  0
 18 19  1  0  0  0  0
 18 11  2  0  0  0  0
 20 21  2  0  0  0  0
 20 10  1  0  0  0  0
 21 18  1  0  0  0  0
 22 21  1  0  0  0  0
 23 20  1  0  0  0  0
 24 23  1  0  0  0  0
 25  8  1  0  0  0  0
 26 25  1  0  0  0  0
 27 23  1  0  0  0  0
 27 25  2  0  0  0  0
 28 27  1  0  0  0  0
M  END
$$$$
