CSD_code = ACUSIA | q = 0 | S = 0 | Stoichiometry = C27H23ClN2O2PReS2 | MND = 6
 OpenBabel04212201593D

 59 64  0  0  0  0  0  0  0  0999 V2000
   11.4563    0.8563    8.0787 Re  0  0  0  0  0  0  0  0  0  0  0  0
   12.8193    2.3753    8.8197 Cl  0  0  0  0  0  0  0  0  0  0  0  0
   10.9369    0.2169   10.4233 S   0  0  0  0  0  0  0  0  0  0  0  0
   12.3917   -1.7676   12.0000 S   0  0  0  0  0  0  0  0  0  0  0  0
    9.8038    2.6599    7.8098 P   0  0  0  0  0  4  0  0  0  0  0  0
   10.4127   -0.2992    7.5218 O   0  0  0  0  0  1  0  0  0  0  0  0
   12.2692    1.2641    6.0736 O   0  0  0  0  0  0  0  0  0  0  0  0
   13.0310   -0.5206    8.3948 N   0  0  0  0  0  0  0  0  0  0  0  0
   13.1173   -1.1634    9.5764 N   0  0  0  0  0  0  0  0  0  0  0  0
   13.2985    0.6740    5.5703 C   0  0  0  0  0  0  0  0  0  0  0  0
   13.6466    1.0543    4.2484 C   0  0  0  0  0  0  0  0  0  0  0  0
   13.0124    1.7888    3.7746 H   0  0  0  0  0  0  0  0  0  0  0  0
   14.7258    0.5264    3.5945 C   0  0  0  0  0  0  0  0  0  0  0  0
   14.9540    0.8478    2.5887 H   0  0  0  0  0  0  0  0  0  0  0  0
   15.5340   -0.4250    4.2222 C   0  0  0  0  0  0  0  0  0  0  0  0
   16.3862   -0.8399    3.7069 H   0  0  0  0  0  0  0  0  0  0  0  0
   15.2291   -0.8224    5.4954 C   0  0  0  0  0  0  0  0  0  0  0  0
   15.8485   -1.5594    5.9872 H   0  0  0  0  0  0  0  0  0  0  0  0
   14.1253   -0.3043    6.2090 C   0  0  0  0  0  0  0  0  0  0  0  0
   13.9439   -0.8184    7.5213 C   0  0  0  0  0  3  0  0  0  0  0  0
   14.6720   -1.5619    7.8442 H   0  0  0  0  0  0  0  0  0  0  0  0
   12.2544   -0.9124   10.4957 C   0  0  0  0  0  0  0  0  0  0  0  0
   13.8218   -2.8346   11.6567 C   0  0  0  0  0  0  0  0  0  0  0  0
   13.9774   -3.4364   12.5456 H   0  0  0  0  0  0  0  0  0  0  0  0
   14.6873   -2.2132   11.4548 H   0  0  0  0  0  0  0  0  0  0  0  0
   13.5957   -3.4606   10.8005 H   0  0  0  0  0  0  0  0  0  0  0  0
    8.7616    2.8502    9.2790 C   0  0  0  0  0  0  0  0  0  0  0  0
    7.3958    2.5953    9.2694 C   0  0  0  0  0  0  0  0  0  0  0  0
    6.9064    2.3114    8.3489 H   0  0  0  0  0  0  0  0  0  0  0  0
    6.6709    2.6999   10.4442 C   0  0  0  0  0  0  0  0  0  0  0  0
    5.6093    2.5014   10.4369 H   0  0  0  0  0  0  0  0  0  0  0  0
    7.3026    3.0473   11.6263 C   0  0  0  0  0  0  0  0  0  0  0  0
    6.7327    3.1217   12.5405 H   0  0  0  0  0  0  0  0  0  0  0  0
    8.6683    3.2874   11.6415 C   0  0  0  0  0  0  0  0  0  0  0  0
    9.1634    3.5440   12.5659 H   0  0  0  0  0  0  0  0  0  0  0  0
    9.3982    3.1850   10.4741 C   0  0  0  0  0  0  0  0  0  0  0  0
   10.4677    3.3515   10.4781 H   0  0  0  0  0  0  0  0  0  0  0  0
    8.6631    2.5025    6.4054 C   0  0  0  0  0  0  0  0  0  0  0  0
    7.8370    3.5713    6.0643 C   0  0  0  0  0  0  0  0  0  0  0  0
    7.8718    4.4845    6.6431 H   0  0  0  0  0  0  0  0  0  0  0  0
    6.9772    3.4568    4.9884 C   0  0  0  0  0  0  0  0  0  0  0  0
    6.3337    4.2831    4.7239 H   0  0  0  0  0  0  0  0  0  0  0  0
    6.9424    2.2846    4.2480 C   0  0  0  0  0  0  0  0  0  0  0  0
    6.2703    2.2011    3.4066 H   0  0  0  0  0  0  0  0  0  0  0  0
    7.7685    1.2244    4.5829 C   0  0  0  0  0  0  0  0  0  0  0  0
    7.7422    0.3140    4.0031 H   0  0  0  0  0  0  0  0  0  0  0  0
    8.6312    1.3304    5.6605 C   0  0  0  0  0  0  0  0  0  0  0  0
    9.2853    0.5123    5.9370 H   0  0  0  0  0  0  0  0  0  0  0  0
   10.5257    4.2988    7.5145 C   0  0  0  0  0  0  0  0  0  0  0  0
   11.4836    4.3810    6.5061 C   0  0  0  0  0  0  0  0  0  0  0  0
   11.7721    3.4792    5.9817 H   0  0  0  0  0  0  0  0  0  0  0  0
   12.0653    5.5974    6.2049 C   0  0  0  0  0  0  0  0  0  0  0  0
   12.8138    5.6602    5.4288 H   0  0  0  0  0  0  0  0  0  0  0  0
   11.6932    6.7352    6.9045 C   0  0  0  0  0  0  0  0  0  0  0  0
   12.1515    7.6853    6.6729 H   0  0  0  0  0  0  0  0  0  0  0  0
   10.7384    6.6547    7.9042 C   0  0  0  0  0  0  0  0  0  0  0  0
   10.4506    7.5415    8.4499 H   0  0  0  0  0  0  0  0  0  0  0  0
   10.1511    5.4396    8.2134 C   0  0  0  0  0  0  0  0  0  0  0  0
    9.4100    5.3787    8.9981 H   0  0  0  0  0  0  0  0  0  0  0  0
  1  8  1  0  0  0  0
  1  2  1  0  0  0  0
  1  3  1  0  0  0  0
  3 22  1  0  0  0  0
  5  1  1  0  0  0  0
  5 27  1  0  0  0  0
  6  1  1  0  0  0  0
  7  1  1  0  0  0  0
  8  9  1  0  0  0  0
  9 22  2  0  0  0  0
 10  7  1  0  0  0  0
 10 19  1  0  0  0  0
 11 10  2  0  0  0  0
 12 11  1  0  0  0  0
 13 15  2  0  0  0  0
 13 11  1  0  0  0  0
 14 13  1  0  0  0  0
 15 17  1  0  0  0  0
 16 15  1  0  0  0  0
 17 18  1  0  0  0  0
 17 19  2  0  0  0  0
 19 20  1  0  0  0  0
 20 21  1  0  0  0  0
 20  8  1  0  0  0  0
 22  4  1  0  0  0  0
 23  4  1  0  0  0  0
 23 24  1  0  0  0  0
 25 23  1  0  0  0  0
 26 23  1  0  0  0  0
 27 36  1  0  0  0  0
 28 27  2  0  0  0  0
 28 30  1  0  0  0  0
 29 28  1  0  0  0  0
 30 32  2  0  0  0  0
 31 30  1  0  0  0  0
 32 34  1  0  0  0  0
 32 33  1  0  0  0  0
 34 35  1  0  0  0  0
 36 37  1  0  0  0  0
 36 34  2  0  0  0  0
 38  5  1  0  0  0  0
 39 38  1  0  0  0  0
 39 40  1  0  0  0  0
 41 39  2  0  0  0  0
 42 41  1  0  0  0  0
 43 45  2  0  0  0  0
 43 41  1  0  0  0  0
 44 43  1  0  0  0  0
 45 47  1  0  0  0  0
 46 45  1  0  0  0  0
 47 48  1  0  0  0  0
 47 38  2  0  0  0  0
 49  5  1  0  0  0  0
 49 58  1  0  0  0  0
 50 49  2  0  0  0  0
 51 50  1  0  0  0  0
 52 50  1  0  0  0  0
 52 54  2  0  0  0  0
 53 52  1  0  0  0  0
 54 56  1  0  0  0  0
 55 54  1  0  0  0  0
 56 58  2  0  0  0  0
 56 57  1  0  0  0  0
 58 59  1  0  0  0  0
M  END
$$$$
