CSD_code = ACUSUP | q = 0 | S = 0 | Stoichiometry = C10H10Cl2N4Pd | MND = 4
 OpenBabel04212201593D

 27 29  0  0  0  0  0  0  0  0999 V2000
    2.4876    0.5524    9.1220 Pd  0  0  0  0  0  0  0  0  0  0  0  0
    1.4437   -0.6702   10.6546 Cl  0  0  0  0  0  0  0  0  0  0  0  0
    3.7844    1.4054   10.7105 Cl  0  0  0  0  0  0  0  0  0  0  0  0
    5.9197    4.0281    6.8738 N   0  0  0  0  0  0  0  0  0  0  0  0
    6.4558    4.3504    6.0878 H   0  0  0  0  0  0  0  0  0  0  0  0
    3.3577    1.5847    7.6296 N   0  0  0  0  0  0  0  0  0  0  0  0
    1.3920   -0.1465    7.5850 N   0  0  0  0  0  0  0  0  0  0  0  0
   -1.3579   -2.3334    6.7118 N   0  0  0  0  0  0  0  0  0  0  0  0
   -1.4887   -2.7766    7.6040 H   0  0  0  0  0  0  0  0  0  0  0  0
    0.4003   -1.0182    7.6741 C   0  0  0  0  0  0  0  0  0  0  0  0
    0.1613   -1.3686    8.6727 H   0  0  0  0  0  0  0  0  0  0  0  0
    0.0651   -0.9788    5.3053 C   0  0  0  0  0  0  0  0  0  0  0  0
   -0.4521   -1.3057    4.4157 H   0  0  0  0  0  0  0  0  0  0  0  0
    1.0953   -0.0696    5.2245 C   0  0  0  0  0  0  0  0  0  0  0  0
    1.3878    0.3187    4.2627 H   0  0  0  0  0  0  0  0  0  0  0  0
   -0.3123   -1.4783    6.5597 C   0  0  0  0  0  0  0  0  0  0  0  0
    4.3505    2.4495    7.7627 C   0  0  0  0  0  0  0  0  0  0  0  0
    4.6989    2.6240    8.7752 H   0  0  0  0  0  0  0  0  0  0  0  0
    3.3917    1.9280    5.2745 C   0  0  0  0  0  0  0  0  0  0  0  0
    2.9973    1.7055    4.2966 H   0  0  0  0  0  0  0  0  0  0  0  0
    4.9357    3.1111    6.6759 C   0  0  0  0  0  0  0  0  0  0  0  0
    4.4281    2.8250    5.4010 C   0  0  0  0  0  0  0  0  0  0  0  0
    4.8484    3.3072    4.5311 H   0  0  0  0  0  0  0  0  0  0  0  0
    1.7598    0.3466    6.3811 C   0  0  0  0  0  0  0  0  0  0  0  0
    2.8561    1.3062    6.4054 C   0  0  0  0  0  0  0  0  0  0  0  0
    6.3478    4.0807    7.7815 H   0  0  0  0  0  0  0  0  0  0  0  0
   -1.7350   -2.7963    5.9033 H   0  0  0  0  0  0  0  0  0  0  0  0
  1  2  1  0  0  0  0
  1  3  1  0  0  0  0
  4 26  1  0  0  0  0
  5  4  1  0  0  0  0
  6 17  1  0  0  0  0
  6  1  1  0  0  0  0
  7 10  1  0  0  0  0
  7  1  1  0  0  0  0
  8  9  1  0  0  0  0
 10 11  1  0  0  0  0
 12 16  1  0  0  0  0
 13 12  1  0  0  0  0
 14 12  2  0  0  0  0
 14 24  1  0  0  0  0
 15 14  1  0  0  0  0
 16  8  1  0  0  0  0
 16 10  2  0  0  0  0
 17 18  1  0  0  0  0
 19 22  2  0  0  0  0
 19 25  1  0  0  0  0
 20 19  1  0  0  0  0
 21  4  1  0  0  0  0
 21 17  2  0  0  0  0
 22 21  1  0  0  0  0
 23 22  1  0  0  0  0
 24 25  2  0  0  0  0
 24  7  1  0  0  0  0
 25  6  1  0  0  0  0
 27  8  1  0  0  0  0
M  END
$$$$
