CSD_code = ACUSAS | q = 0 | S = 0 | Stoichiometry = C18H22Cl2NO2PPdS | MND = 4
 OpenBabel04212201593D

 48 50  0  0  1  0  0  0  0  0999 V2000
   -0.0008   10.8141    2.4264 Pd  0  0  0  0  0  0  0  0  0  0  0  0
    2.1780   10.6039    1.9153 Cl  0  0  0  0  0  0  0  0  0  0  0  0
   -0.2138   12.6005    1.0486 Cl  0  0  0  0  0  0  0  0  0  0  0  0
    0.2217    8.9261    3.6321 P   0  0  0  0  0  4  0  0  0  0  0  0
   -0.7161    8.8642    5.0347 N   0  0  0  0  0  0  0  0  0  0  0  0
   -0.3559    8.2856    5.7918 H   0  0  0  0  0  0  0  0  0  0  0  0
   -1.2439   10.1146    5.5490 C   0  0  2  0  0  0  0  0  0  0  0  0
   -0.7712   10.9783    5.0343 H   0  0  0  0  0  0  0  0  0  0  0  0
   -0.9142   10.2399    7.0291 C   0  0  0  0  0  0  0  0  0  0  0  0
   -0.2937    9.4050    7.6376 O   0  0  0  0  0  0  0  0  0  0  0  0
   -1.3859   11.3624    7.5516 O   0  0  0  0  0  0  0  0  0  0  0  0
   -1.1124   11.5825    8.9327 C   0  0  0  0  0  0  0  0  0  0  0  0
   -1.6294   12.4998    9.2001 H   0  0  0  0  0  0  0  0  0  0  0  0
   -0.0379   11.6884    9.0909 H   0  0  0  0  0  0  0  0  0  0  0  0
   -1.4773   10.7441    9.5285 H   0  0  0  0  0  0  0  0  0  0  0  0
   -2.7623   10.1996    5.3106 C   0  0  0  0  0  0  0  0  0  0  0  0
   -3.2634    9.4274    5.8991 H   0  0  0  0  0  0  0  0  0  0  0  0
   -3.1144   11.1778    5.6384 H   0  0  0  0  0  0  0  0  0  0  0  0
   -3.0945    9.9815    3.8424 C   0  0  0  0  0  0  0  0  0  0  0  0
   -4.1684   10.0773    3.6820 H   0  0  0  0  0  0  0  0  0  0  0  0
   -2.7591    8.9953    3.5167 H   0  0  0  0  0  0  0  0  0  0  0  0
   -2.2925   11.2462    2.7697 S   0  0  2  0  0  3  0  0  0  0  0  0
   -2.8866   10.6232    1.1739 C   0  0  0  0  0  0  0  0  0  0  0  0
   -2.3636   11.2004    0.4121 H   0  0  0  0  0  0  0  0  0  0  0  0
   -3.9581   10.7957    1.1078 H   0  0  0  0  0  0  0  0  0  0  0  0
   -2.6602    9.5621    1.0789 H   0  0  0  0  0  0  0  0  0  0  0  0
    1.7958    8.1400    4.0732 C   0  0  0  0  0  0  0  0  0  0  0  0
    2.3295    8.2887    5.3488 C   0  0  0  0  0  0  0  0  0  0  0  0
    1.7922    8.8387    6.1099 H   0  0  0  0  0  0  0  0  0  0  0  0
    3.5622    7.7355    5.6471 C   0  0  0  0  0  0  0  0  0  0  0  0
    3.9739    7.8496    6.6391 H   0  0  0  0  0  0  0  0  0  0  0  0
    4.2699    7.0488    4.6752 C   0  0  0  0  0  0  0  0  0  0  0  0
    5.2346    6.6241    4.9100 H   0  0  0  0  0  0  0  0  0  0  0  0
    3.7470    6.9165    3.3983 C   0  0  0  0  0  0  0  0  0  0  0  0
    4.3053    6.3925    2.6370 H   0  0  0  0  0  0  0  0  0  0  0  0
    2.5156    7.4632    3.0932 C   0  0  0  0  0  0  0  0  0  0  0  0
    2.1107    7.3805    2.0948 H   0  0  0  0  0  0  0  0  0  0  0  0
   -0.5425    7.6626    2.5546 C   0  0  0  0  0  0  0  0  0  0  0  0
   -0.5613    7.9160    1.1835 C   0  0  0  0  0  0  0  0  0  0  0  0
   -0.1044    8.8380    0.7985 H   0  0  0  0  0  0  0  0  0  0  0  0
   -1.1379    7.0012    0.3191 C   0  0  0  0  0  0  0  0  0  0  0  0
   -1.1482    7.1936   -0.7435 H   0  0  0  0  0  0  0  0  0  0  0  0
   -1.7053    5.8398    0.8205 C   0  0  0  0  0  0  0  0  0  0  0  0
   -2.1588    5.1284    0.1466 H   0  0  0  0  0  0  0  0  0  0  0  0
   -1.6923    5.5887    2.1837 C   0  0  0  0  0  0  0  0  0  0  0  0
   -2.1351    4.6821    2.5690 H   0  0  0  0  0  0  0  0  0  0  0  0
   -1.1092    6.4951    3.0515 C   0  0  0  0  0  0  0  0  0  0  0  0
   -1.0935    6.3088    4.1156 H   0  0  0  0  0  0  0  0  0  0  0  0
  1 22  1  0  0  0  0
  1  4  1  0  0  0  0
  2  1  1  0  0  0  0
  3  1  1  0  0  0  0
  4 27  1  0  0  0  0
  4  5  1  0  0  0  0
  5  7  1  0  0  0  0
  5  6  1  0  0  0  0
  7  8  1  6  0  0  0
  7  9  1  0  0  0  0
  9 11  1  0  0  0  0
  9 10  2  0  0  0  0
 11 12  1  0  0  0  0
 12 14  1  0  0  0  0
 12 13  1  0  0  0  0
 12 15  1  0  0  0  0
 16  7  1  0  0  0  0
 16 18  1  0  0  0  0
 16 17  1  0  0  0  0
 19 16  1  0  0  0  0
 20 19  1  0  0  0  0
 21 19  1  0  0  0  0
 22 23  1  6  0  0  0
 22 19  1  0  0  0  0
 24 23  1  0  0  0  0
 25 23  1  0  0  0  0
 26 23  1  0  0  0  0
 27 28  1  0  0  0  0
 28 30  2  0  0  0  0
 28 29  1  0  0  0  0
 30 31  1  0  0  0  0
 32 33  1  0  0  0  0
 32 30  1  0  0  0  0
 34 32  2  0  0  0  0
 35 34  1  0  0  0  0
 36 34  1  0  0  0  0
 36 27  2  0  0  0  0
 37 36  1  0  0  0  0
 38 47  1  0  0  0  0
 38  4  1  0  0  0  0
 39 38  2  0  0  0  0
 40 39  1  0  0  0  0
 41 43  2  0  0  0  0
 41 39  1  0  0  0  0
 42 41  1  0  0  0  0
 43 45  1  0  0  0  0
 44 43  1  0  0  0  0
 45 46  1  0  0  0  0
 45 47  2  0  0  0  0
 47 48  1  0  0  0  0
M  END
$$$$
