CSD_code = ACUXAX | q = 0 | S = 0 | Stoichiometry = C6H12I2PtS3 | MND = 4
 OpenBabel04212201593D

 24 25  0  0  0  0  0  0  0  0999 V2000
    6.5437   11.2152    1.6297 Pt  0  0  0  0  0  0  0  0  0  0  0  0
    4.6309   12.8669    2.2239 I   0  0  0  0  0  0  0  0  0  0  0  0
    7.9034   12.9424    0.2483 I   0  0  0  0  0  0  0  0  0  0  0  0
    8.1052   11.2245    4.1707 S   0  0  0  0  0  0  0  0  0  0  0  0
    9.2994    9.9461    3.5939 C   0  0  0  0  0  0  0  0  0  0  0  0
   10.2478   10.1929    4.0749 H   0  0  0  0  0  0  0  0  0  0  0  0
    8.9725    8.9750    3.9617 H   0  0  0  0  0  0  0  0  0  0  0  0
    9.5323    9.9284    2.0949 C   0  0  0  0  0  0  0  0  0  0  0  0
   10.2610    9.1540    1.8458 H   0  0  0  0  0  0  0  0  0  0  0  0
    9.9170   10.8944    1.7614 H   0  0  0  0  0  0  0  0  0  0  0  0
    8.1037    9.6451    0.9973 S   0  0  1  0  0  3  0  0  0  0  0  0
    7.4341    8.0222    1.5373 C   0  0  0  0  0  0  0  0  0  0  0  0
    6.8988    7.6743    0.6518 H   0  0  0  0  0  0  0  0  0  0  0  0
    8.2865    7.3645    1.7126 H   0  0  0  0  0  0  0  0  0  0  0  0
    6.5020    8.0473    2.7347 C   0  0  0  0  0  0  0  0  0  0  0  0
    7.0469    8.0171    3.6748 H   0  0  0  0  0  0  0  0  0  0  0  0
    5.8287    7.1887    2.6988 H   0  0  0  0  0  0  0  0  0  0  0  0
    5.4115    9.5368    2.7696 S   0  0  1  0  0  3  0  0  0  0  0  0
    5.5293   10.0398    4.5207 C   0  0  0  0  0  0  0  0  0  0  0  0
    4.9775   10.9814    4.5431 H   0  0  0  0  0  0  0  0  0  0  0  0
    4.9739    9.2925    5.0916 H   0  0  0  0  0  0  0  0  0  0  0  0
    6.9083   10.2248    5.1374 C   0  0  0  0  0  0  0  0  0  0  0  0
    7.3888    9.2754    5.3729 H   0  0  0  0  0  0  0  0  0  0  0  0
    6.7766   10.7725    6.0717 H   0  0  0  0  0  0  0  0  0  0  0  0
  1  2  1  0  0  0  0
  1 18  1  0  0  0  0
  3  1  1  0  0  0  0
  4 22  1  0  0  0  0
  5  7  1  0  0  0  0
  5  6  1  0  0  0  0
  5  4  1  0  0  0  0
  8  5  1  0  0  0  0
  9  8  1  0  0  0  0
 10  8  1  0  0  0  0
 11 12  1  1  0  0  0
 11  1  1  0  0  0  0
 11  8  1  0  0  0  0
 12 14  1  0  0  0  0
 12 15  1  0  0  0  0
 13 12  1  0  0  0  0
 15 16  1  0  0  0  0
 17 15  1  0  0  0  0
 18 15  1  1  0  0  0
 18 19  1  0  0  0  0
 19 20  1  0  0  0  0
 19 21  1  0  0  0  0
 19 22  1  0  0  0  0
 22 23  1  0  0  0  0
 22 24  1  0  0  0  0
M  END
$$$$
