CSD_code = ADAKAT | q = 0 | S = 0 | Stoichiometry = C30H42AgB2ClN4 | MND = 3
 OpenBabel04212201593D

 80 82  0  0  1  0  0  0  0  0999 V2000
    3.5763    0.4043    1.4206 B   0  0  0  0  0  0  0  0  0  0  0  0
    3.7869    1.6321    2.4538 B   0  0  1  0  0  0  0  0  0  0  0  0
    2.1990    0.1391    3.2898 Ag  0  0  0  0  0  0  0  0  0  0  0  0
    0.5915   -0.8108    4.7568 Cl  0  0  0  0  0 15  0  0  0  0  0  0
    4.9938    1.6736    3.4396 C   0  0  2  0  0  3  0  0  0  0  0  0
    5.8016    2.7610    3.6409 N   0  0  0  0  0  0  0  0  0  0  0  0
    6.8059    2.4495    4.5146 C   0  0  0  0  0  0  0  0  0  0  0  0
    7.5521    3.1595    4.8063 H   0  0  0  0  0  0  0  0  0  0  0  0
    6.6375    1.1602    4.8763 C   0  0  0  0  0  0  0  0  0  0  0  0
    7.2081    0.5470    5.5427 H   0  0  0  0  0  0  0  0  0  0  0  0
    5.5302    0.6883    4.2230 N   0  0  0  0  0  0  0  0  0  0  0  0
    5.6863    4.0502    3.0224 C   0  0  0  0  0  0  0  0  0  0  0  0
    5.6288    3.9477    1.9404 H   0  0  0  0  0  0  0  0  0  0  0  0
    6.5629    4.6426    3.2801 H   0  0  0  0  0  0  0  0  0  0  0  0
    4.7904    4.5702    3.3635 H   0  0  0  0  0  0  0  0  0  0  0  0
    5.0261   -0.6285    4.4787 C   0  0  0  0  0  0  0  0  0  0  0  0
    3.9251   -0.6343    4.3675 H   0  0  0  0  0  0  0  0  0  0  0  0
    5.2848   -0.9185    5.4969 H   0  0  0  0  0  0  0  0  0  0  0  0
    5.4410   -1.3574    3.7823 H   0  0  0  0  0  0  0  0  0  0  0  0
    2.6723    0.5425    0.1582 C   0  0  2  0  0  3  0  0  0  0  0  0
    3.0287    0.1497   -1.1046 N   0  0  0  0  0  0  0  0  0  0  0  0
    2.0439    0.4719   -1.9964 C   0  0  0  0  0  0  0  0  0  0  0  0
    2.1242    0.2549   -3.0417 H   0  0  0  0  0  0  0  0  0  0  0  0
    1.0532    1.0694   -1.3015 C   0  0  0  0  0  0  0  0  0  0  0  0
    0.1140    1.4620   -1.6323 H   0  0  0  0  0  0  0  0  0  0  0  0
    1.4353    1.1092    0.0132 N   0  0  0  0  0  0  0  0  0  0  0  0
    4.2569   -0.4769   -1.5012 C   0  0  0  0  0  0  0  0  0  0  0  0
    5.1081    0.0875   -1.1254 H   0  0  0  0  0  0  0  0  0  0  0  0
    4.2990   -0.5082   -2.5890 H   0  0  0  0  0  0  0  0  0  0  0  0
    4.3227   -1.4936   -1.1112 H   0  0  0  0  0  0  0  0  0  0  0  0
    0.5468    1.5960    1.0265 C   0  0  0  0  0  0  0  0  0  0  0  0
    0.7302    1.0555    1.9745 H   0  0  0  0  0  0  0  0  0  0  0  0
   -0.4824    1.4261    0.7107 H   0  0  0  0  0  0  0  0  0  0  0  0
    0.6942    2.6606    1.2092 H   0  0  0  0  0  0  0  0  0  0  0  0
    3.0410    3.0552    2.2767 C   0  0  0  0  0  0  0  0  0  0  0  0
    3.0437    3.7743    1.0669 C   0  0  0  0  0  0  0  0  0  0  0  0
    2.2668    4.9234    0.9046 C   0  0  0  0  0  0  0  0  0  0  0  0
    1.4750    5.3609    1.9523 C   0  0  0  0  0  0  0  0  0  0  0  0
    0.8501    6.2335    1.8177 H   0  0  0  0  0  0  0  0  0  0  0  0
    1.4820    4.7107    3.1753 C   0  0  0  0  0  0  0  0  0  0  0  0
    2.2850    3.5810    3.3440 C   0  0  0  0  0  0  0  0  0  0  0  0
    3.9102    3.3771   -0.0975 C   0  0  0  0  0  0  0  0  0  0  0  0
    3.3064    3.1700   -0.9810 H   0  0  0  0  0  0  0  0  0  0  0  0
    4.4923    2.4933    0.1337 H   0  0  0  0  0  0  0  0  0  0  0  0
    4.5880    4.1925   -0.3573 H   0  0  0  0  0  0  0  0  0  0  0  0
    2.2613    5.6854   -0.3887 C   0  0  0  0  0  0  0  0  0  0  0  0
    3.2539    6.0750   -0.6159 H   0  0  0  0  0  0  0  0  0  0  0  0
    1.5711    6.5240   -0.3325 H   0  0  0  0  0  0  0  0  0  0  0  0
    1.9595    5.0465   -1.2190 H   0  0  0  0  0  0  0  0  0  0  0  0
    0.6110    5.2301    4.2824 C   0  0  0  0  0  0  0  0  0  0  0  0
   -0.0122    4.4354    4.6891 H   0  0  0  0  0  0  0  0  0  0  0  0
   -0.0361    6.0227    3.9131 H   0  0  0  0  0  0  0  0  0  0  0  0
    1.2104    5.6383    5.0973 H   0  0  0  0  0  0  0  0  0  0  0  0
    2.2940    2.9357    4.7041 C   0  0  0  0  0  0  0  0  0  0  0  0
    2.2346    3.6883    5.4873 H   0  0  0  0  0  0  0  0  0  0  0  0
    3.1984    2.3539    4.8679 H   0  0  0  0  0  0  0  0  0  0  0  0
    1.4304    2.2721    4.8241 H   0  0  0  0  0  0  0  0  0  0  0  0
    4.5676   -0.8717    1.3764 C   0  0  0  0  0  0  0  0  0  0  0  0
    4.0327   -2.1708    1.4920 C   0  0  0  0  0  0  0  0  0  0  0  0
    4.8611   -3.2847    1.6410 C   0  0  0  0  0  0  0  0  0  0  0  0
    6.2357   -3.1151    1.6132 C   0  0  0  0  0  0  0  0  0  0  0  0
    6.8798   -3.9758    1.7329 H   0  0  0  0  0  0  0  0  0  0  0  0
    6.7994   -1.8661    1.4185 C   0  0  0  0  0  0  0  0  0  0  0  0
    5.9678   -0.7500    1.3038 C   0  0  0  0  0  0  0  0  0  0  0  0
    2.5457   -2.4059    1.4827 C   0  0  0  0  0  0  0  0  0  0  0  0
    2.1519   -2.4413    2.5053 H   0  0  0  0  0  0  0  0  0  0  0  0
    2.3078   -3.3563    1.0110 H   0  0  0  0  0  0  0  0  0  0  0  0
    2.0195   -1.6232    0.9408 H   0  0  0  0  0  0  0  0  0  0  0  0
    4.3017   -4.6626    1.8491 C   0  0  0  0  0  0  0  0  0  0  0  0
    3.5808   -4.6683    2.6650 H   0  0  0  0  0  0  0  0  0  0  0  0
    5.1004   -5.3612    2.0888 H   0  0  0  0  0  0  0  0  0  0  0  0
    3.7984   -5.0238    0.9512 H   0  0  0  0  0  0  0  0  0  0  0  0
    8.2933   -1.7364    1.3507 C   0  0  0  0  0  0  0  0  0  0  0  0
    8.7658   -2.7048    1.4983 H   0  0  0  0  0  0  0  0  0  0  0  0
    8.6628   -1.0532    2.1159 H   0  0  0  0  0  0  0  0  0  0  0  0
    8.6072   -1.3477    0.3817 H   0  0  0  0  0  0  0  0  0  0  0  0
    6.6440    0.5711    1.0545 C   0  0  0  0  0  0  0  0  0  0  0  0
    7.3220    0.8227    1.8701 H   0  0  0  0  0  0  0  0  0  0  0  0
    5.9172    1.3683    0.9558 H   0  0  0  0  0  0  0  0  0  0  0  0
    7.2439    0.5207    0.1439 H   0  0  0  0  0  0  0  0  0  0  0  0
  1  2  1  0  0  0  0
  2  3  1  1  0  0  0
  5  2  1  6  0  0  0
  5  6  1  0  0  0  0
  5 11  1  0  0  0  0
  6  7  1  0  0  0  0
  7  8  1  0  0  0  0
  7  9  2  0  0  0  0
  9 10  1  0  0  0  0
 11 16  1  0  0  0  0
 11  9  1  0  0  0  0
 12 14  1  0  0  0  0
 12 15  1  0  0  0  0
 12  6  1  0  0  0  0
 13 12  1  0  0  0  0
 16 18  1  0  0  0  0
 17 16  1  0  0  0  0
 19 16  1  0  0  0  0
 20  1  1  6  0  0  0
 21 20  1  0  0  0  0
 22 24  2  0  0  0  0
 22 21  1  0  0  0  0
 23 22  1  0  0  0  0
 24 26  1  0  0  0  0
 25 24  1  0  0  0  0
 26 20  1  0  0  0  0
 26 31  1  0  0  0  0
 27 28  1  0  0  0  0
 27 30  1  0  0  0  0
 27 21  1  0  0  0  0
 29 27  1  0  0  0  0
 31 34  1  0  0  0  0
 31 32  1  0  0  0  0
 33 31  1  0  0  0  0
 35  2  1  0  0  0  0
 35 41  1  0  0  0  0
 36 35  2  0  0  0  0
 37 36  1  0  0  0  0
 37 38  2  0  0  0  0
 38 40  1  0  0  0  0
 39 38  1  0  0  0  0
 40 41  2  0  0  0  0
 40 50  1  0  0  0  0
 41 54  1  0  0  0  0
 42 44  1  0  0  0  0
 42 36  1  0  0  0  0
 43 42  1  0  0  0  0
 45 42  1  0  0  0  0
 46 48  1  0  0  0  0
 46 37  1  0  0  0  0
 47 46  1  0  0  0  0
 49 46  1  0  0  0  0
 50 51  1  0  0  0  0
 50 53  1  0  0  0  0
 52 50  1  0  0  0  0
 54 57  1  0  0  0  0
 54 56  1  0  0  0  0
 54 55  1  0  0  0  0
 58  1  1  0  0  0  0
 58 59  1  0  0  0  0
 59 60  2  0  0  0  0
 60 69  1  0  0  0  0
 61 60  1  0  0  0  0
 61 62  1  0  0  0  0
 63 61  2  0  0  0  0
 64 58  2  0  0  0  0
 64 63  1  0  0  0  0
 65 59  1  0  0  0  0
 65 66  1  0  0  0  0
 67 65  1  0  0  0  0
 68 65  1  0  0  0  0
 69 71  1  0  0  0  0
 69 70  1  0  0  0  0
 72 69  1  0  0  0  0
 73 63  1  0  0  0  0
 73 74  1  0  0  0  0
 73 75  1  0  0  0  0
 76 73  1  0  0  0  0
 77 64  1  0  0  0  0
 77 78  1  0  0  0  0
 79 77  1  0  0  0  0
 80 77  1  0  0  0  0
M  END
$$$$
