CSD_code = ADAMAT | q = 0 | S = 0 | Stoichiometry = C24H24Cl2HfP2 | MND = 12
 OpenBabel04212201593D

 53 56  0  0  1  0  0  0  0  0999 V2000
   -1.6754    7.1636   11.2800 Hf  0  0  0  0  0  0  0  0  0  0  0  0
   -3.7534    7.8577   10.4984 Cl  0  0  0  0  0  0  0  0  0  0  0  0
   -1.0244    9.3680   11.6069 Cl  0  0  0  0  0  0  0  0  0  0  0  0
   -1.4593    5.2470    9.4816 P   0  0  0  0  0  0  0  0  0  0  0  0
   -0.9622    6.2045   13.5808 P   0  0  0  0  0  0  0  0  0  0  0  0
   -0.9474    6.8846    8.9560 C   0  0  2  0  0  0  0  0  0  0  0  0
    0.2592    7.2975    9.5625 C   0  0  0  0  0  0  0  0  0  0  0  0
    0.7273    6.3544   10.5125 C   0  0  0  0  0  0  0  0  0  0  0  0
   -0.0888    5.2240   10.5980 C   0  0  0  0  0  0  0  0  0  0  0  0
    0.1590    4.3627   11.2056 H   0  0  0  0  0  0  0  0  0  0  0  0
    1.0727    8.4865    9.1349 C   0  0  0  0  0  0  0  0  0  0  0  0
    2.1164    8.1926    9.0254 H   0  0  0  0  0  0  0  0  0  0  0  0
    1.0256    9.2917    9.8690 H   0  0  0  0  0  0  0  0  0  0  0  0
    0.7179    8.8676    8.1800 H   0  0  0  0  0  0  0  0  0  0  0  0
    1.9925    6.5343   11.2991 C   0  0  0  0  0  0  0  0  0  0  0  0
    2.0507    7.5421   11.7104 H   0  0  0  0  0  0  0  0  0  0  0  0
    2.8633    6.3839   10.6591 H   0  0  0  0  0  0  0  0  0  0  0  0
    2.0417    5.8152   12.1145 H   0  0  0  0  0  0  0  0  0  0  0  0
   -1.7163    7.6338    7.9589 C   0  0  0  0  0  0  0  0  0  0  0  0
   -2.2953    6.9640    6.8823 C   0  0  0  0  0  0  0  0  0  0  0  0
   -2.1419    5.8963    6.7899 H   0  0  0  0  0  0  0  0  0  0  0  0
   -3.0452    7.6509    5.9476 C   0  0  0  0  0  0  0  0  0  0  0  0
   -3.4876    7.1193    5.1182 H   0  0  0  0  0  0  0  0  0  0  0  0
   -3.2320    9.0173    6.0767 C   0  0  0  0  0  0  0  0  0  0  0  0
   -3.8207    9.5545    5.3483 H   0  0  0  0  0  0  0  0  0  0  0  0
   -2.6726    9.6909    7.1503 C   0  0  0  0  0  0  0  0  0  0  0  0
   -2.8316   10.7529    7.2642 H   0  0  0  0  0  0  0  0  0  0  0  0
   -1.9213    9.0096    8.0895 C   0  0  0  0  0  0  0  0  0  0  0  0
   -1.5180    9.5401    8.9429 H   0  0  0  0  0  0  0  0  0  0  0  0
   -1.9588    7.5854   14.1172 C   0  0  0  0  0  0  0  0  0  0  0  0
   -3.3113    7.4375   13.7982 C   0  0  0  0  0  0  0  0  0  0  0  0
   -3.5874    6.2253   13.1211 C   0  0  0  0  0  0  0  0  0  0  0  0
   -2.4337    5.4824   12.8444 C   0  0  1  0  0  0  0  0  0  0  0  0
   -2.4648    4.4659   12.4629 H   0  0  0  0  0  0  0  0  0  0  0  0
   -4.3826    8.4539   14.0578 C   0  0  0  0  0  0  0  0  0  0  0  0
   -5.0398    8.5215   13.1916 H   0  0  0  0  0  0  0  0  0  0  0  0
   -3.9495    9.4343   14.2396 H   0  0  0  0  0  0  0  0  0  0  0  0
   -4.9907    8.1718   14.9185 H   0  0  0  0  0  0  0  0  0  0  0  0
   -4.9683    5.7593   12.7754 C   0  0  0  0  0  0  0  0  0  0  0  0
   -5.4528    6.4499   12.0857 H   0  0  0  0  0  0  0  0  0  0  0  0
   -5.5782    5.7028   13.6770 H   0  0  0  0  0  0  0  0  0  0  0  0
   -4.9348    4.7752   12.3124 H   0  0  0  0  0  0  0  0  0  0  0  0
   -1.3360    8.6377   14.9202 C   0  0  0  0  0  0  0  0  0  0  0  0
   -0.0147    9.0095   14.6646 C   0  0  0  0  0  0  0  0  0  0  0  0
    0.5189    8.5298   13.8513 H   0  0  0  0  0  0  0  0  0  0  0  0
    0.6089    9.9834   15.4168 C   0  0  0  0  0  0  0  0  0  0  0  0
    1.6276   10.2649   15.1937 H   0  0  0  0  0  0  0  0  0  0  0  0
   -0.0700   10.6005   16.4553 C   0  0  0  0  0  0  0  0  0  0  0  0
    0.4137   11.3679   17.0411 H   0  0  0  0  0  0  0  0  0  0  0  0
   -1.3667   10.2141   16.7465 C   0  0  0  0  0  0  0  0  0  0  0  0
   -1.8939   10.6709   17.5716 H   0  0  0  0  0  0  0  0  0  0  0  0
   -1.9944    9.2395   15.9927 C   0  0  0  0  0  0  0  0  0  0  0  0
   -2.9886    8.9189   16.2600 H   0  0  0  0  0  0  0  0  0  0  0  0
  1  3  1  0  0  0  0
  1 33  1  0  0  0  0
  2  1  1  0  0  0  0
  4  9  2  0  0  0  0
  5 30  2  0  0  0  0
  6  4  1  0  0  0  0
  6  7  1  0  0  0  0
  6  1  1  1  0  0  0
  7  8  2  0  0  0  0
  8  9  1  0  0  0  0
  8 15  1  0  0  0  0
  9 10  1  0  0  0  0
 11  7  1  0  0  0  0
 11 13  1  0  0  0  0
 12 11  1  0  0  0  0
 14 11  1  0  0  0  0
 15 16  1  0  0  0  0
 15 18  1  0  0  0  0
 17 15  1  0  0  0  0
 19 28  1  0  0  0  0
 19  6  1  0  0  0  0
 20 19  2  0  0  0  0
 21 20  1  0  0  0  0
 22 24  2  0  0  0  0
 22 20  1  0  0  0  0
 23 22  1  0  0  0  0
 24 26  1  0  0  0  0
 25 24  1  0  0  0  0
 26 27  1  0  0  0  0
 26 28  2  0  0  0  0
 28 29  1  0  0  0  0
 30 43  1  0  0  0  0
 31 35  1  0  0  0  0
 31 30  1  0  0  0  0
 32 31  2  0  0  0  0
 33 34  1  6  0  0  0
 33 32  1  0  0  0  0
 33  5  1  0  0  0  0
 35 37  1  0  0  0  0
 35 38  1  0  0  0  0
 36 35  1  0  0  0  0
 39 32  1  0  0  0  0
 39 41  1  0  0  0  0
 40 39  1  0  0  0  0
 42 39  1  0  0  0  0
 43 52  1  0  0  0  0
 44 43  2  0  0  0  0
 44 46  1  0  0  0  0
 45 44  1  0  0  0  0
 46 48  2  0  0  0  0
 47 46  1  0  0  0  0
 48 50  1  0  0  0  0
 48 49  1  0  0  0  0
 50 51  1  0  0  0  0
 52 53  1  0  0  0  0
 52 50  2  0  0  0  0
M  END
$$$$
