CSD_code = ADEBAN | q = 0 | S = 0 | Stoichiometry = C14H18Cl2N2Pd | MND = 4
 OpenBabel04212201593D

 37 38  0  0  0  0  0  0  0  0999 V2000
    2.0646    7.7505    4.1306 Pd  0  0  0  0  0  0  0  0  0  0  0  0
    3.5773    9.1447    3.0767 Cl  0  0  0  0  0  0  0  0  0  0  0  0
    0.6448    7.8436    2.6448 N   0  0  0  0  0  4  0  0  0  0  0  0
   -0.2519    7.8322    3.1468 H   0  0  0  0  0  0  0  0  0  0  0  0
    0.6579    8.9763    1.7125 C   0  0  0  0  0  0  0  0  0  0  0  0
   -0.1527    8.8852    0.9806 H   0  0  0  0  0  0  0  0  0  0  0  0
    1.6120    9.0063    1.1860 H   0  0  0  0  0  0  0  0  0  0  0  0
    0.5407    9.9075    2.2694 H   0  0  0  0  0  0  0  0  0  0  0  0
    0.8014    6.5737    1.9860 C   0  0  0  0  0  0  0  0  0  0  0  0
    2.2236    4.9623    0.9139 C   0  0  0  0  0  0  0  0  0  0  0  0
    3.2023    4.6600    0.5726 H   0  0  0  0  0  0  0  0  0  0  0  0
    2.0653    6.1861    1.5398 C   0  0  0  0  0  0  0  0  0  0  0  0
    2.9184    6.8486    1.6841 H   0  0  0  0  0  0  0  0  0  0  0  0
   -0.2878    5.7326    1.8013 C   0  0  0  0  0  0  0  0  0  0  0  0
   -1.2629    6.0239    2.1665 H   0  0  0  0  0  0  0  0  0  0  0  0
   -0.1157    4.5062    1.1816 C   0  0  0  0  0  0  0  0  0  0  0  0
   -0.9634    3.8503    1.0528 H   0  0  0  0  0  0  0  0  0  0  0  0
    1.1359    4.1219    0.7339 C   0  0  0  0  0  0  0  0  0  0  0  0
    1.2668    3.1644    0.2531 H   0  0  0  0  0  0  0  0  0  0  0  0
    0.5520    6.3561    5.1845 Cl  0  0  0  0  0  0  0  0  0  0  0  0
    3.4847    7.6573    5.6163 N   0  0  0  0  0  4  0  0  0  0  0  0
    4.3813    7.6686    5.1143 H   0  0  0  0  0  0  0  0  0  0  0  0
    3.4714    6.5247    6.5487 C   0  0  0  0  0  0  0  0  0  0  0  0
    4.2820    6.6158    7.2805 H   0  0  0  0  0  0  0  0  0  0  0  0
    2.5173    6.4949    7.0752 H   0  0  0  0  0  0  0  0  0  0  0  0
    3.5885    5.5935    5.9918 H   0  0  0  0  0  0  0  0  0  0  0  0
    3.3282    8.9273    6.2751 C   0  0  0  0  0  0  0  0  0  0  0  0
    1.9061   10.5391    7.3467 C   0  0  0  0  0  0  0  0  0  0  0  0
    0.9274   10.8417    7.6876 H   0  0  0  0  0  0  0  0  0  0  0  0
    2.0643    9.3152    6.7209 C   0  0  0  0  0  0  0  0  0  0  0  0
    1.2111    8.6529    6.5764 H   0  0  0  0  0  0  0  0  0  0  0  0
    4.4176    9.7681    6.4601 C   0  0  0  0  0  0  0  0  0  0  0  0
    5.3927    9.4765    6.0952 H   0  0  0  0  0  0  0  0  0  0  0  0
    4.2456   10.9946    7.0797 C   0  0  0  0  0  0  0  0  0  0  0  0
    5.0933   11.6503    7.2088 H   0  0  0  0  0  0  0  0  0  0  0  0
    2.9940   11.3792    7.5269 C   0  0  0  0  0  0  0  0  0  0  0  0
    2.8631   12.3368    8.0076 H   0  0  0  0  0  0  0  0  0  0  0  0
  1 20  1  0  0  0  0
  1 21  1  0  0  0  0
  2  1  1  0  0  0  0
  3  4  1  0  0  0  0
  3  1  1  0  0  0  0
  5  8  1  0  0  0  0
  5  3  1  0  0  0  0
  6  5  1  0  0  0  0
  7  5  1  0  0  0  0
  9  3  1  0  0  0  0
 10 12  1  0  0  0  0
 11 10  1  0  0  0  0
 12 13  1  0  0  0  0
 12  9  2  0  0  0  0
 14  9  1  0  0  0  0
 14 15  1  0  0  0  0
 16 14  2  0  0  0  0
 17 16  1  0  0  0  0
 18 10  2  0  0  0  0
 18 16  1  0  0  0  0
 19 18  1  0  0  0  0
 21 27  1  0  0  0  0
 21 23  1  0  0  0  0
 22 21  1  0  0  0  0
 23 25  1  0  0  0  0
 23 24  1  0  0  0  0
 26 23  1  0  0  0  0
 27 32  2  0  0  0  0
 27 30  1  0  0  0  0
 28 36  1  0  0  0  0
 28 29  1  0  0  0  0
 30 28  2  0  0  0  0
 31 30  1  0  0  0  0
 32 34  1  0  0  0  0
 33 32  1  0  0  0  0
 34 35  1  0  0  0  0
 34 36  2  0  0  0  0
 36 37  1  0  0  0  0
M  END
$$$$
