CSD_code = ADEBET | q = 0 | S = 0 | Stoichiometry = C16H21ClN2Pd | MND = 4
 OpenBabel04212201593D

 41 43  0  0  0  0  0  0  0  0999 V2000
    1.5790    5.0772    4.4250 Pd  0  0  2  0  0  0  0  0  0  0  0  0
    3.8953    5.5044    4.2430 Cl  0  0  0  0  0  0  0  0  0  0  0  0
    1.7339    3.4304    3.2109 N   0  0  0  0  0  4  0  0  0  0  0  0
    1.4752    6.6062    5.6063 N   0  0  0  0  0  0  0  0  0  0  0  0
    2.7334    3.2085    3.2669 H   0  0  0  0  0  0  0  0  0  0  0  0
   -1.3976    4.9307    5.3071 C   0  0  0  0  0  0  0  0  0  0  0  0
   -1.3999    5.9852    5.5631 H   0  0  0  0  0  0  0  0  0  0  0  0
   -0.2572    4.3451    4.7705 C   0  0  0  0  0  0  0  0  0  0  0  0
   -0.0631    3.8464    1.5489 C   0  0  0  0  0  0  0  0  0  0  0  0
   -0.4542    4.6436    2.1841 H   0  0  0  0  0  0  0  0  0  0  0  0
   -0.6081    2.9326    1.7672 H   0  0  0  0  0  0  0  0  0  0  0  0
   -0.2413    4.1084    0.5087 H   0  0  0  0  0  0  0  0  0  0  0  0
    2.0007    2.5522    0.9140 C   0  0  0  0  0  0  0  0  0  0  0  0
    1.8277    2.7652   -0.1374 H   0  0  0  0  0  0  0  0  0  0  0  0
    1.5238    1.6022    1.1449 H   0  0  0  0  0  0  0  0  0  0  0  0
    3.0734    2.4492    1.0676 H   0  0  0  0  0  0  0  0  0  0  0  0
    2.0497    8.7492    7.2668 C   0  0  0  0  0  0  0  0  0  0  0  0
    2.2806    9.5829    7.9120 H   0  0  0  0  0  0  0  0  0  0  0  0
    1.6417    6.4228    6.9177 C   0  0  0  0  0  3  0  0  0  0  0  0
    1.5401    5.4009    7.2804 H   0  0  0  0  0  0  0  0  0  0  0  0
    2.1338    5.0041    1.4090 C   0  0  0  0  0  0  0  0  0  0  0  0
    1.7220    5.8257    2.0217 H   0  0  0  0  0  0  0  0  0  0  0  0
    1.9727    5.2357    0.3587 H   0  0  0  0  0  0  0  0  0  0  0  0
    3.2059    4.9442    1.5943 H   0  0  0  0  0  0  0  0  0  0  0  0
    0.9465    2.3714    3.8707 C   0  0  0  0  0  0  0  0  0  0  0  0
    0.7190    1.5423    3.1883 H   0  0  0  0  0  0  0  0  0  0  0  0
    1.5532    1.9650    4.6926 H   0  0  0  0  0  0  0  0  0  0  0  0
   -1.4632    2.2370    4.6599 C   0  0  0  0  0  0  0  0  0  0  0  0
   -1.4851    1.1854    4.4045 H   0  0  0  0  0  0  0  0  0  0  0  0
    1.4405    3.6867    1.7801 C   0  0  0  0  0  0  0  0  0  0  0  0
    1.5870    7.8384    5.1099 C   0  0  0  0  0  0  0  0  0  0  0  0
    1.4544    7.9417    4.0350 H   0  0  0  0  0  0  0  0  0  0  0  0
   -2.5853    2.8432    5.2011 C   0  0  0  0  0  0  0  0  0  0  0  0
   -3.4833    2.2662    5.3687 H   0  0  0  0  0  0  0  0  0  0  0  0
   -0.3127    2.9786    4.4493 C   0  0  0  0  0  0  0  0  0  0  0  0
    1.9322    7.4655    7.7789 C   0  0  0  0  0  0  0  0  0  0  0  0
    2.0704    7.2727    8.8313 H   0  0  0  0  0  0  0  0  0  0  0  0
    1.8697    8.9347    5.9039 C   0  0  0  0  0  0  0  0  0  0  0  0
    1.9582    9.9136    5.4597 H   0  0  0  0  0  0  0  0  0  0  0  0
   -2.5512    4.1878    5.5209 C   0  0  0  0  0  0  0  0  0  0  0  0
   -3.4264    4.6641    5.9407 H   0  0  0  0  0  0  0  0  0  0  0  0
  1  2  1  1  0  0  0
  1  8  1  0  0  0  0
  1  4  1  0  0  0  0
  3  5  1  0  0  0  0
  3 25  1  0  0  0  0
  3  1  1  0  0  0  0
  4 19  1  0  0  0  0
  6 40  1  0  0  0  0
  6  7  1  0  0  0  0
  8  6  2  0  0  0  0
  9 11  1  0  0  0  0
  9 30  1  0  0  0  0
  9 10  1  0  0  0  0
 12  9  1  0  0  0  0
 13 16  1  0  0  0  0
 13 15  1  0  0  0  0
 13 30  1  0  0  0  0
 14 13  1  0  0  0  0
 17 36  2  0  0  0  0
 17 18  1  0  0  0  0
 19 20  1  0  0  0  0
 19 36  1  0  0  0  0
 21 24  1  0  0  0  0
 21 30  1  0  0  0  0
 21 22  1  0  0  0  0
 23 21  1  0  0  0  0
 25 35  1  0  0  0  0
 25 27  1  0  0  0  0
 26 25  1  0  0  0  0
 28 33  1  0  0  0  0
 29 28  1  0  0  0  0
 30  3  1  0  0  0  0
 31  4  1  0  0  0  0
 31 38  2  0  0  0  0
 32 31  1  0  0  0  0
 33 34  1  0  0  0  0
 33 40  2  0  0  0  0
 35 28  2  0  0  0  0
 35  8  1  0  0  0  0
 36 37  1  0  0  0  0
 38 17  1  0  0  0  0
 39 38  1  0  0  0  0
 40 41  1  0  0  0  0
M  END
$$$$
