CSD_code = ADESOR | q = 0 | S = 0 | Stoichiometry = C6H18Cl6N2PSi2Ta | MND = 6
 OpenBabel04212201593D

 36 36  0  0  0  0  0  0  0  0999 V2000
   -1.4287    3.9959    8.8389 Ta  0  0  0  0  0  0  0  0  0  0  0  0
   -2.6724    1.7055    9.2597 P   0  0  0  0  0  4  0  0  0  0  0  0
   -2.7903    4.7054   10.6174 Cl  0  0  0  0  0  0  0  0  0  0  0  0
   -1.9784    5.8057    7.6456 Cl  0  0  0  0  0  0  0  0  0  0  0  0
   -0.1603    3.1309    7.1016 Cl  0  0  0  0  0  0  0  0  0  0  0  0
    0.3667    4.9276    9.7937 Cl  0  0  0  0  0  0  0  0  0  0  0  0
   -2.5822   -0.0728    8.4332 Cl  0  0  0  0  0  0  0  0  0  0  0  0
   -4.4442    3.1172    7.2454 Si  0  0  0  0  0  0  0  0  0  0  0  0
   -0.2475    1.5439   11.0734 Si  0  0  0  0  0  0  0  0  0  0  0  0
   -3.0046    2.8592    8.2177 N   0  0  0  0  0  0  0  0  0  0  0  0
   -0.8482   -0.2217   11.4638 C   0  0  0  0  0  0  0  0  0  0  0  0
   -1.2675    2.2089    9.8078 N   0  0  0  0  0  0  0  0  0  0  0  0
   -0.4703    2.7119   12.5611 C   0  0  0  0  0  0  0  0  0  0  0  0
   -4.0287    1.5435   10.6771 Cl  0  0  0  0  0  0  0  0  0  0  0  0
   -5.3695    4.5514    8.0903 C   0  0  0  0  0  0  0  0  0  0  0  0
    1.4896    1.5554   10.2978 C   0  0  0  0  0  0  0  0  0  0  0  0
   -3.7504    3.5165    5.5197 C   0  0  0  0  0  0  0  0  0  0  0  0
   -5.4691    1.5109    7.2523 C   0  0  0  0  0  0  0  0  0  0  0  0
   -1.8997   -0.2454   11.7373 H   0  0  0  0  0  0  0  0  0  0  0  0
   -0.2837   -0.6249   12.2972 H   0  0  0  0  0  0  0  0  0  0  0  0
   -0.7092   -0.8927   10.6213 H   0  0  0  0  0  0  0  0  0  0  0  0
   -1.4933    2.7045   12.9310 H   0  0  0  0  0  0  0  0  0  0  0  0
   -0.2349    3.7365   12.2813 H   0  0  0  0  0  0  0  0  0  0  0  0
    0.1825    2.4307   13.3804 H   0  0  0  0  0  0  0  0  0  0  0  0
   -5.7012    4.2846    9.0915 H   0  0  0  0  0  0  0  0  0  0  0  0
   -6.2422    4.8455    7.5172 H   0  0  0  0  0  0  0  0  0  0  0  0
   -4.7222    5.4205    8.1849 H   0  0  0  0  0  0  0  0  0  0  0  0
    1.5494    0.8937    9.4372 H   0  0  0  0  0  0  0  0  0  0  0  0
    2.2364    1.2374   11.0165 H   0  0  0  0  0  0  0  0  0  0  0  0
    1.7522    2.5544    9.9591 H   0  0  0  0  0  0  0  0  0  0  0  0
   -3.2101    2.6720    5.0990 H   0  0  0  0  0  0  0  0  0  0  0  0
   -3.0590    4.3540    5.5679 H   0  0  0  0  0  0  0  0  0  0  0  0
   -4.5478    3.7785    4.8334 H   0  0  0  0  0  0  0  0  0  0  0  0
   -5.7175    1.1876    8.2597 H   0  0  0  0  0  0  0  0  0  0  0  0
   -4.9469    0.6950    6.7612 H   0  0  0  0  0  0  0  0  0  0  0  0
   -6.4005    1.6682    6.7198 H   0  0  0  0  0  0  0  0  0  0  0  0
  1  6  1  0  0  0  0
  1 12  1  0  0  0  0
  1  3  1  0  0  0  0
  2 12  1  0  0  0  0
  2 14  1  0  0  0  0
  4  1  1  0  0  0  0
  5  1  1  0  0  0  0
  7  2  1  0  0  0  0
  8 18  1  0  0  0  0
  8 15  1  0  0  0  0
  8 10  1  0  0  0  0
  9 11  1  0  0  0  0
  9 13  1  0  0  0  0
 10  1  1  0  0  0  0
 10  2  1  0  0  0  0
 11 19  1  0  0  0  0
 11 20  1  0  0  0  0
 12  9  1  0  0  0  0
 13 22  1  0  0  0  0
 13 24  1  0  0  0  0
 15 27  1  0  0  0  0
 15 25  1  0  0  0  0
 16 29  1  0  0  0  0
 16  9  1  0  0  0  0
 17 32  1  0  0  0  0
 17  8  1  0  0  0  0
 18 34  1  0  0  0  0
 21 11  1  0  0  0  0
 23 13  1  0  0  0  0
 26 15  1  0  0  0  0
 28 16  1  0  0  0  0
 30 16  1  0  0  0  0
 31 17  1  0  0  0  0
 33 17  1  0  0  0  0
 35 18  1  0  0  0  0
 36 18  1  0  0  0  0
M  END
$$$$
