CSD_code = ADEXEM | q = 0 | S = 0 | Stoichiometry = C26H48ClO2Si5Y | MND = 12
 OpenBabel04212201593D

 83 86  0  0  1  0  0  0  0  0999 V2000
   11.0476    4.4655    5.5670 Y   0  0  0  0  0  0  0  0  0  0  0  0
   12.7369    4.4655    3.8006 Cl  0  0  0  0  0  0  0  0  0  0  0  0
   10.8366    4.4655    9.0834 Si  0  0  0  0  0  0  0  0  0  0  0  0
    7.9415    2.9004    7.2421 Si  0  0  0  0  0  0  0  0  0  0  0  0
   12.9730    0.9293    4.9620 Si  0  0  0  0  0  0  0  0  0  0  0  0
    7.6148    4.4655    7.6216 O   0  0  0  0  0  0  0  0  0  0  0  0
    9.5126    4.4655    3.5155 O   0  0  0  0  0  0  0  0  0  0  0  0
    9.4226    4.4655   10.3492 C   0  0  0  0  0  0  0  0  0  0  0  0
   12.4723    4.4655   10.0715 C   0  0  0  0  0  0  0  0  0  0  0  0
   10.8664    3.0922    7.7796 C   0  0  1  0  0  3  0  0  0  0  0  0
    9.7785    2.7136    6.9185 C   0  0  2  0  0  0  0  0  0  0  0  0
   10.3458    2.0181    5.8142 C   0  0  0  0  0  3  0  0  0  0  0  0
   11.7618    1.9712    5.9546 C   0  0  0  0  0  0  0  0  0  0  0  0
   12.0611    2.6663    7.1562 C   0  0  0  0  0  0  0  0  0  0  0  0
    9.4025    5.5928    2.6347 C   0  0  0  0  0  0  0  0  0  0  0  0
   10.2113    5.2338    1.3841 C   0  0  0  0  0  0  0  0  0  0  0  0
    7.3025    1.8585    8.6972 C   0  0  0  0  0  0  0  0  0  0  0  0
    6.9817    2.4986    5.6417 C   0  0  0  0  0  0  0  0  0  0  0  0
   14.7353    1.6344    5.1520 C   0  0  0  0  0  0  0  0  0  0  0  0
   12.4893    0.8885    3.1128 C   0  0  0  0  0  0  0  0  0  0  0  0
   12.9222   -0.8577    5.6408 C   0  0  0  0  0  0  0  0  0  0  0  0
    8.4544    4.4655    9.8695 H   0  0  0  0  0  0  0  0  0  0  0  0
    9.4879    3.5907   10.9874 H   0  0  0  0  0  0  0  0  0  0  0  0
   13.3451    4.4655    9.4287 H   0  0  0  0  0  0  0  0  0  0  0  0
   12.5333    3.5902   10.7090 H   0  0  0  0  0  0  0  0  0  0  0  0
    9.7776    1.4230    5.1102 H   0  0  0  0  0  0  0  0  0  0  0  0
   13.0507    2.7415    7.5898 H   0  0  0  0  0  0  0  0  0  0  0  0
    8.3418    5.7389    2.3845 H   0  0  0  0  0  0  0  0  0  0  0  0
    9.7856    6.4728    3.1502 H   0  0  0  0  0  0  0  0  0  0  0  0
    9.7606    5.6550    0.4884 H   0  0  0  0  0  0  0  0  0  0  0  0
   11.2294    5.6056    1.4772 H   0  0  0  0  0  0  0  0  0  0  0  0
    6.3072    2.1742    8.9920 H   0  0  0  0  0  0  0  0  0  0  0  0
    7.2541    0.8096    8.4257 H   0  0  0  0  0  0  0  0  0  0  0  0
    7.9493    1.9447    9.5628 H   0  0  0  0  0  0  0  0  0  0  0  0
    5.9238    2.7046    5.7681 H   0  0  0  0  0  0  0  0  0  0  0  0
    7.3367    3.1007    4.8097 H   0  0  0  0  0  0  0  0  0  0  0  0
    7.0814    1.4540    5.3673 H   0  0  0  0  0  0  0  0  0  0  0  0
   14.7757    2.6676    4.8202 H   0  0  0  0  0  0  0  0  0  0  0  0
   15.4471    1.0701    4.5579 H   0  0  0  0  0  0  0  0  0  0  0  0
   15.0709    1.5993    6.1841 H   0  0  0  0  0  0  0  0  0  0  0  0
   13.1448    0.2240    2.5590 H   0  0  0  0  0  0  0  0  0  0  0  0
   12.5802    1.8780    2.6769 H   0  0  0  0  0  0  0  0  0  0  0  0
   11.4715    0.5389    2.9628 H   0  0  0  0  0  0  0  0  0  0  0  0
   13.6296   -1.4911    5.1160 H   0  0  0  0  0  0  0  0  0  0  0  0
   11.9368   -1.2979    5.5271 H   0  0  0  0  0  0  0  0  0  0  0  0
   13.1722   -0.8857    6.6961 H   0  0  0  0  0  0  0  0  0  0  0  0
   10.2113    3.6972    1.3841 C   0  0  0  0  0  0  0  0  0  0  0  0
    9.4025    3.3382    2.6347 C   0  0  0  0  0  0  0  0  0  0  0  0
    8.3418    3.1921    2.3845 H   0  0  0  0  0  0  0  0  0  0  0  0
    9.7856    2.4582    3.1502 H   0  0  0  0  0  0  0  0  0  0  0  0
    9.7606    3.2760    0.4884 H   0  0  0  0  0  0  0  0  0  0  0  0
   11.2294    3.3254    1.4772 H   0  0  0  0  0  0  0  0  0  0  0  0
    9.4879    5.3403   10.9874 H   0  0  0  0  0  0  0  0  0  0  0  0
   12.5333    5.3408   10.7090 H   0  0  0  0  0  0  0  0  0  0  0  0
   10.8664    5.8388    7.7796 C   0  0  2  0  0  3  0  0  0  0  0  0
    7.9415    6.0306    7.2421 Si  0  0  0  0  0  0  0  0  0  0  0  0
    9.7785    6.2174    6.9185 C   0  0  2  0  0  0  0  0  0  0  0  0
   10.3458    6.9129    5.8142 C   0  0  0  0  0  3  0  0  0  0  0  0
   12.0611    6.2647    7.1562 C   0  0  0  0  0  0  0  0  0  0  0  0
   11.7618    6.9598    5.9546 C   0  0  0  0  0  0  0  0  0  0  0  0
   12.9730    8.0017    4.9620 Si  0  0  0  0  0  0  0  0  0  0  0  0
   14.7353    7.2966    5.1520 C   0  0  0  0  0  0  0  0  0  0  0  0
   14.7757    6.2634    4.8202 H   0  0  0  0  0  0  0  0  0  0  0  0
   15.4471    7.8609    4.5579 H   0  0  0  0  0  0  0  0  0  0  0  0
   15.0709    7.3317    6.1841 H   0  0  0  0  0  0  0  0  0  0  0  0
   12.4893    8.0426    3.1128 C   0  0  0  0  0  0  0  0  0  0  0  0
   13.1448    8.7070    2.5590 H   0  0  0  0  0  0  0  0  0  0  0  0
   12.5802    7.0531    2.6769 H   0  0  0  0  0  0  0  0  0  0  0  0
   11.4715    8.3921    2.9628 H   0  0  0  0  0  0  0  0  0  0  0  0
   12.9222    9.7887    5.6408 C   0  0  0  0  0  0  0  0  0  0  0  0
   13.6296   10.4221    5.1160 H   0  0  0  0  0  0  0  0  0  0  0  0
   11.9368   10.2289    5.5271 H   0  0  0  0  0  0  0  0  0  0  0  0
   13.1722    9.8167    6.6961 H   0  0  0  0  0  0  0  0  0  0  0  0
    9.7776    7.5080    5.1102 H   0  0  0  0  0  0  0  0  0  0  0  0
   13.0507    6.1895    7.5898 H   0  0  0  0  0  0  0  0  0  0  0  0
    7.3025    7.0725    8.6972 C   0  0  0  0  0  0  0  0  0  0  0  0
    6.3072    6.7568    8.9920 H   0  0  0  0  0  0  0  0  0  0  0  0
    7.2541    8.1214    8.4257 H   0  0  0  0  0  0  0  0  0  0  0  0
    7.9493    6.9863    9.5628 H   0  0  0  0  0  0  0  0  0  0  0  0
    6.9817    6.4324    5.6417 C   0  0  0  0  0  0  0  0  0  0  0  0
    5.9238    6.2264    5.7681 H   0  0  0  0  0  0  0  0  0  0  0  0
    7.3367    5.8303    4.8097 H   0  0  0  0  0  0  0  0  0  0  0  0
    7.0814    7.4770    5.3673 H   0  0  0  0  0  0  0  0  0  0  0  0
  1 57  1  0  0  0  0
  1 11  1  0  0  0  0
  2  1  1  0  0  0  0
  3  9  1  0  0  0  0
  3  8  1  0  0  0  0
  4  6  1  0  0  0  0
  4 17  1  0  0  0  0
  5 19  1  0  0  0  0
  5 21  1  0  0  0  0
  5 13  1  0  0  0  0
  8 53  1  0  0  0  0
  8 23  1  0  0  0  0
  9 25  1  0  0  0  0
  9 54  1  0  0  0  0
 10 14  1  6  0  0  0
 10  3  1  0  0  0  0
 11 12  1  6  0  0  0
 11  4  1  0  0  0  0
 11 10  1  0  0  0  0
 12 13  1  0  0  0  0
 13 14  2  0  0  0  0
 14 27  1  0  0  0  0
 15 29  1  0  0  0  0
 15  7  1  0  0  0  0
 16 47  1  0  0  0  0
 16 31  1  0  0  0  0
 16 15  1  0  0  0  0
 17 32  1  0  0  0  0
 17 34  1  0  0  0  0
 18 35  1  0  0  0  0
 18  4  1  0  0  0  0
 19 40  1  0  0  0  0
 20  5  1  0  0  0  0
 21 46  1  0  0  0  0
 22  8  1  0  0  0  0
 24  9  1  0  0  0  0
 26 12  1  0  0  0  0
 28 15  1  0  0  0  0
 30 16  1  0  0  0  0
 33 17  1  0  0  0  0
 36 18  1  0  0  0  0
 37 18  1  0  0  0  0
 38 19  1  0  0  0  0
 39 19  1  0  0  0  0
 41 20  1  0  0  0  0
 42 20  1  0  0  0  0
 43 20  1  0  0  0  0
 44 21  1  0  0  0  0
 45 21  1  0  0  0  0
 47 52  1  0  0  0  0
 47 48  1  0  0  0  0
 48 50  1  0  0  0  0
 48  7  1  0  0  0  0
 49 48  1  0  0  0  0
 51 47  1  0  0  0  0
 55 59  1  6  0  0  0
 55  3  1  0  0  0  0
 56  6  1  0  0  0  0
 56 76  1  0  0  0  0
 57 58  1  6  0  0  0
 57 56  1  0  0  0  0
 57 55  1  0  0  0  0
 58 60  1  0  0  0  0
 59 75  1  0  0  0  0
 60 59  2  0  0  0  0
 61 62  1  0  0  0  0
 61 70  1  0  0  0  0
 61 60  1  0  0  0  0
 62 65  1  0  0  0  0
 63 62  1  0  0  0  0
 64 62  1  0  0  0  0
 66 61  1  0  0  0  0
 67 66  1  0  0  0  0
 68 66  1  0  0  0  0
 69 66  1  0  0  0  0
 70 73  1  0  0  0  0
 71 70  1  0  0  0  0
 72 70  1  0  0  0  0
 74 58  1  0  0  0  0
 76 77  1  0  0  0  0
 76 79  1  0  0  0  0
 78 76  1  0  0  0  0
 80 81  1  0  0  0  0
 80 56  1  0  0  0  0
 82 80  1  0  0  0  0
 83 80  1  0  0  0  0
M  END
$$$$
