CSD_code = ADEYIR | q = 0 | S = 0 | Stoichiometry = C22H42Cl3NPTa | MND = 9
 OpenBabel04212201593D

 70 70  0  0  1  0  0  0  0  0999 V2000
    6.0412    9.4577    3.5995 Ta  0  0  0  0  0  0  0  0  0  0  0  0
    5.6353    8.6750    1.5314 Cl  0  0  0  0  0  0  0  0  0  0  0  0
    4.0130   10.6086    3.4011 Cl  0  0  0  0  0  0  0  0  0  0  0  0
    6.3476    7.2383    4.2490 Cl  0  0  0  0  0  0  0  0  0  0  0  0
    6.0338   10.3412    6.8831 P   0  0  0  0  0  4  0  0  0  0  0  0
    6.2703   10.0666    5.3440 N   0  0  0  0  0  2  0  0  0  0  0  0
    8.6354    9.6232    0.7058 C   0  0  0  0  0  0  0  0  0  0  0  0
    7.8794   10.8449    0.4559 C   0  0  0  0  0  0  0  0  0  0  0  0
    7.5174   11.3897    1.6416 C   0  0  0  0  0  0  0  0  0  0  0  0
    8.0147   10.5246    2.7460 C   0  0  2  0  0  0  0  0  0  0  0  0
    8.7269    9.4255    2.0417 C   0  0  0  0  0  0  0  0  0  0  0  0
    9.1682    8.7633   -0.3890 C   0  0  0  0  0  0  0  0  0  0  0  0
    7.5788   11.3234   -0.9238 C   0  0  0  0  0  0  0  0  0  0  0  0
    6.7843   12.6694    1.8986 C   0  0  0  0  0  0  0  0  0  0  0  0
    8.8731   11.2473    3.7710 C   0  0  0  0  0  0  0  0  0  0  0  0
    9.4414    8.3256    2.7643 C   0  0  0  0  0  0  0  0  0  0  0  0
    5.3820   12.1376    7.0740 C   0  0  0  0  0  0  0  0  0  0  0  0
    5.4659   12.7020    8.4891 C   0  0  0  0  0  0  0  0  0  0  0  0
    3.9279   12.1755    6.6031 C   0  0  0  0  0  0  0  0  0  0  0  0
    6.1666   13.0098    6.0931 C   0  0  0  0  0  0  0  0  0  0  0  0
    4.7556    9.0668    7.5357 C   0  0  0  0  0  0  0  0  0  0  0  0
    3.6475    8.8822    6.4974 C   0  0  0  0  0  0  0  0  0  0  0  0
    4.1495    9.4548    8.8838 C   0  0  0  0  0  0  0  0  0  0  0  0
    5.4444    7.7071    7.6603 C   0  0  0  0  0  0  0  0  0  0  0  0
    7.7102   10.1083    7.7960 C   0  0  0  0  0  0  0  0  0  0  0  0
    8.3860    8.8811    7.1761 C   0  0  0  0  0  0  0  0  0  0  0  0
    8.5927   11.3181    7.4871 C   0  0  0  0  0  0  0  0  0  0  0  0
    7.6102    9.9628    9.3118 C   0  0  0  0  0  0  0  0  0  0  0  0
    8.3487    8.3796   -0.9978 H   0  0  0  0  0  0  0  0  0  0  0  0
    9.7261    7.9220    0.0133 H   0  0  0  0  0  0  0  0  0  0  0  0
    9.8255    9.3385   -1.0413 H   0  0  0  0  0  0  0  0  0  0  0  0
    8.5017   11.4687   -1.4853 H   0  0  0  0  0  0  0  0  0  0  0  0
    7.0311   12.2619   -0.9082 H   0  0  0  0  0  0  0  0  0  0  0  0
    6.9799   10.5818   -1.4535 H   0  0  0  0  0  0  0  0  0  0  0  0
    6.3252   13.0416    0.9865 H   0  0  0  0  0  0  0  0  0  0  0  0
    7.4689   13.4348    2.2695 H   0  0  0  0  0  0  0  0  0  0  0  0
    5.9976   12.5247    2.6410 H   0  0  0  0  0  0  0  0  0  0  0  0
    8.3132   12.0477    4.2477 H   0  0  0  0  0  0  0  0  0  0  0  0
    9.7370   11.6855    3.2676 H   0  0  0  0  0  0  0  0  0  0  0  0
    9.2350   10.5528    4.5252 H   0  0  0  0  0  0  0  0  0  0  0  0
    9.2758    7.3685    2.2720 H   0  0  0  0  0  0  0  0  0  0  0  0
    9.0853    8.2424    3.7909 H   0  0  0  0  0  0  0  0  0  0  0  0
   10.5173    8.5111    2.7829 H   0  0  0  0  0  0  0  0  0  0  0  0
    6.4918   12.8152    8.8265 H   0  0  0  0  0  0  0  0  0  0  0  0
    4.9314   12.0805    9.2011 H   0  0  0  0  0  0  0  0  0  0  0  0
    5.0078   13.6909    8.4990 H   0  0  0  0  0  0  0  0  0  0  0  0
    3.8466   11.7401    5.6091 H   0  0  0  0  0  0  0  0  0  0  0  0
    3.6007   13.2134    6.5422 H   0  0  0  0  0  0  0  0  0  0  0  0
    3.2578   11.6677    7.2893 H   0  0  0  0  0  0  0  0  0  0  0  0
    6.2109   12.5031    5.1298 H   0  0  0  0  0  0  0  0  0  0  0  0
    7.1719   13.2286    6.4347 H   0  0  0  0  0  0  0  0  0  0  0  0
    5.6496   13.9585    5.9578 H   0  0  0  0  0  0  0  0  0  0  0  0
    3.1310    9.8006    6.2493 H   0  0  0  0  0  0  0  0  0  0  0  0
    2.9149    8.1775    6.8900 H   0  0  0  0  0  0  0  0  0  0  0  0
    4.0597    8.4633    5.5806 H   0  0  0  0  0  0  0  0  0  0  0  0
    3.4804   10.3057    8.7981 H   0  0  0  0  0  0  0  0  0  0  0  0
    4.9142    9.6830    9.6200 H   0  0  0  0  0  0  0  0  0  0  0  0
    3.5644    8.6157    9.2599 H   0  0  0  0  0  0  0  0  0  0  0  0
    6.1128    7.6566    8.5137 H   0  0  0  0  0  0  0  0  0  0  0  0
    5.9887    7.4775    6.7474 H   0  0  0  0  0  0  0  0  0  0  0  0
    4.6848    6.9382    7.7982 H   0  0  0  0  0  0  0  0  0  0  0  0
    8.0791    7.9574    7.6527 H   0  0  0  0  0  0  0  0  0  0  0  0
    9.4670    8.9601    7.2796 H   0  0  0  0  0  0  0  0  0  0  0  0
    8.1414    8.8198    6.1154 H   0  0  0  0  0  0  0  0  0  0  0  0
    8.6065   11.5081    6.4198 H   0  0  0  0  0  0  0  0  0  0  0  0
    9.6131   11.1133    7.8110 H   0  0  0  0  0  0  0  0  0  0  0  0
    8.2622   12.2087    8.0130 H   0  0  0  0  0  0  0  0  0  0  0  0
    7.0896    9.0572    9.6059 H   0  0  0  0  0  0  0  0  0  0  0  0
    7.1109   10.8151    9.7642 H   0  0  0  0  0  0  0  0  0  0  0  0
    8.6180    9.9085    9.7237 H   0  0  0  0  0  0  0  0  0  0  0  0
  1  4  1  0  0  0  0
  1  6  1  0  0  0  0
  2  1  1  0  0  0  0
  3  1  1  0  0  0  0
  5 17  1  0  0  0  0
  5 21  1  0  0  0  0
  5 25  1  0  0  0  0
  6  5  1  0  0  0  0
  7 11  2  0  0  0  0
  8  7  1  0  0  0  0
  8  9  2  0  0  0  0
  9 14  1  0  0  0  0
  9 10  1  0  0  0  0
 10  1  1  0  0  0  0
 10 15  1  1  0  0  0
 11 10  1  0  0  0  0
 11 16  1  0  0  0  0
 12 30  1  0  0  0  0
 12  7  1  0  0  0  0
 13 33  1  0  0  0  0
 13  8  1  0  0  0  0
 14 36  1  0  0  0  0
 14 37  1  0  0  0  0
 15 38  1  0  0  0  0
 15 40  1  0  0  0  0
 16 43  1  0  0  0  0
 16 42  1  0  0  0  0
 17 18  1  0  0  0  0
 18 46  1  0  0  0  0
 18 44  1  0  0  0  0
 18 45  1  0  0  0  0
 19 17  1  0  0  0  0
 19 49  1  0  0  0  0
 20 51  1  0  0  0  0
 20 17  1  0  0  0  0
 21 24  1  0  0  0  0
 21 23  1  0  0  0  0
 22 54  1  0  0  0  0
 22 21  1  0  0  0  0
 23 58  1  0  0  0  0
 23 57  1  0  0  0  0
 24 61  1  0  0  0  0
 24 59  1  0  0  0  0
 25 28  1  0  0  0  0
 26 63  1  0  0  0  0
 26 62  1  0  0  0  0
 26 25  1  0  0  0  0
 27 25  1  0  0  0  0
 27 66  1  0  0  0  0
 27 67  1  0  0  0  0
 28 68  1  0  0  0  0
 28 70  1  0  0  0  0
 28 69  1  0  0  0  0
 29 12  1  0  0  0  0
 31 12  1  0  0  0  0
 32 13  1  0  0  0  0
 34 13  1  0  0  0  0
 35 14  1  0  0  0  0
 39 15  1  0  0  0  0
 41 16  1  0  0  0  0
 47 19  1  0  0  0  0
 48 19  1  0  0  0  0
 50 20  1  0  0  0  0
 52 20  1  0  0  0  0
 53 22  1  0  0  0  0
 55 22  1  0  0  0  0
 56 23  1  0  0  0  0
 60 24  1  0  0  0  0
 64 26  1  0  0  0  0
 65 27  1  0  0  0  0
M  END
$$$$
