CSD_code = ADEYUD | q = 0 | S = 0 | Stoichiometry = C29H49Cl2NPTa | MND = 9
 OpenBabel04212201593D

 83 84  0  0  1  0  0  0  0  0999 V2000
    1.7971    2.3220    3.1124 Ta  0  0  0  0  0  0  0  0  0  0  0  0
    1.7263    3.3810    5.2041 Cl  0  0  0  0  0  0  0  0  0  0  0  0
    1.3530    2.0581    0.8264 Cl  0  0  0  0  0  0  0  0  0  0  0  0
    4.6236    4.1232    2.3631 P   0  0  0  0  0  4  0  0  0  0  0  0
    3.4544    3.1403    2.7307 N   0  0  0  0  0  2  0  0  0  0  0  0
    1.0536   -0.5182    2.8246 C   0  0  0  0  0  0  0  0  0  0  0  0
    2.0518   -0.0036    3.7647 C   0  0  2  0  0  0  0  0  0  0  0  0
    1.3447    0.1494    5.0394 C   0  0  0  0  0  0  0  0  0  0  0  0
    0.0110   -0.0860    4.8189 C   0  0  0  0  0  0  0  0  0  0  0  0
   -0.1692   -0.4998    3.4469 C   0  0  0  0  0  0  0  0  0  0  0  0
    1.3799   -1.0600    1.4688 C   0  0  0  0  0  0  0  0  0  0  0  0
    3.4814   -0.4895    3.7211 C   0  0  0  0  0  0  0  0  0  0  0  0
    2.0225    0.4143    6.3467 C   0  0  0  0  0  0  0  0  0  0  0  0
   -1.1105    0.0129    5.7984 C   0  0  0  0  0  0  0  0  0  0  0  0
   -1.4954   -0.8703    2.8716 C   0  0  0  0  0  0  0  0  0  0  0  0
    5.7607    3.1706    1.1397 C   0  0  0  0  0  0  0  0  0  0  0  0
    4.8709    2.4403    0.1310 C   0  0  0  0  0  0  0  0  0  0  0  0
    6.4703    2.0867    1.9523 C   0  0  0  0  0  0  0  0  0  0  0  0
    6.7909    4.0281    0.4132 C   0  0  0  0  0  0  0  0  0  0  0  0
    5.5547    4.5499    3.9878 C   0  0  0  0  0  0  0  0  0  0  0  0
    5.5953    3.2872    4.8508 C   0  0  0  0  0  0  0  0  0  0  0  0
    6.9561    5.1174    3.7839 C   0  0  0  0  0  0  0  0  0  0  0  0
    4.7063    5.5637    4.7556 C   0  0  0  0  0  0  0  0  0  0  0  0
    3.8867    5.6994    1.5506 C   0  0  0  0  0  0  0  0  0  0  0  0
    4.8775    6.8467    1.3750 C   0  0  0  0  0  0  0  0  0  0  0  0
    2.6860    6.1616    2.3786 C   0  0  0  0  0  0  0  0  0  0  0  0
    3.3449    5.2679    0.1880 C   0  0  0  0  0  0  0  0  0  0  0  0
   -0.4406    3.0377    3.0867 C   0  0  0  0  0  0  0  0  0  0  0  0
   -0.5942    4.4453    2.7068 C   0  0  0  0  0  0  0  0  0  0  0  0
   -0.6251    5.4568    3.6736 C   0  0  0  0  0  0  0  0  0  0  0  0
   -0.7317    6.7848    3.3107 C   0  0  0  0  0  0  0  0  0  0  0  0
   -0.8142    7.1410    1.9742 C   0  0  0  0  0  0  0  0  0  0  0  0
   -0.7853    6.1527    1.0026 C   0  0  0  0  0  0  0  0  0  0  0  0
   -0.6795    4.8239    1.3616 C   0  0  0  0  0  0  0  0  0  0  0  0
    1.5787   -2.1323    1.5344 H   0  0  0  0  0  0  0  0  0  0  0  0
    2.2596   -0.5748    1.0500 H   0  0  0  0  0  0  0  0  0  0  0  0
    0.5548   -0.9113    0.7753 H   0  0  0  0  0  0  0  0  0  0  0  0
    3.5245   -1.5380    4.0235 H   0  0  0  0  0  0  0  0  0  0  0  0
    4.1130    0.0823    4.4009 H   0  0  0  0  0  0  0  0  0  0  0  0
    3.8912   -0.4132    2.7140 H   0  0  0  0  0  0  0  0  0  0  0  0
    2.2901   -0.5303    6.8258 H   0  0  0  0  0  0  0  0  0  0  0  0
    1.3715    0.9639    7.0232 H   0  0  0  0  0  0  0  0  0  0  0  0
    2.9316    0.9977    6.2103 H   0  0  0  0  0  0  0  0  0  0  0  0
   -1.5019   -0.9781    6.0321 H   0  0  0  0  0  0  0  0  0  0  0  0
   -1.9301    0.6017    5.3857 H   0  0  0  0  0  0  0  0  0  0  0  0
   -0.7814    0.4785    6.7238 H   0  0  0  0  0  0  0  0  0  0  0  0
   -1.8832   -1.7682    3.3548 H   0  0  0  0  0  0  0  0  0  0  0  0
   -1.4195   -1.0603    1.8040 H   0  0  0  0  0  0  0  0  0  0  0  0
   -2.2200   -0.0709    3.0312 H   0  0  0  0  0  0  0  0  0  0  0  0
    5.4269    1.6171   -0.3161 H   0  0  0  0  0  0  0  0  0  0  0  0
    4.5373    3.0814   -0.6762 H   0  0  0  0  0  0  0  0  0  0  0  0
    3.9945    2.0309    0.6308 H   0  0  0  0  0  0  0  0  0  0  0  0
    6.9528    1.3807    1.2765 H   0  0  0  0  0  0  0  0  0  0  0  0
    5.7410    1.5426    2.5491 H   0  0  0  0  0  0  0  0  0  0  0  0
    7.2424    2.4961    2.5964 H   0  0  0  0  0  0  0  0  0  0  0  0
    7.4511    3.3773   -0.1603 H   0  0  0  0  0  0  0  0  0  0  0  0
    7.4022    4.6008    1.1046 H   0  0  0  0  0  0  0  0  0  0  0  0
    6.3187    4.7122   -0.2863 H   0  0  0  0  0  0  0  0  0  0  0  0
    5.8670    3.5569    5.8703 H   0  0  0  0  0  0  0  0  0  0  0  0
    6.3147    2.5560    4.5007 H   0  0  0  0  0  0  0  0  0  0  0  0
    4.6041    2.8348    4.8710 H   0  0  0  0  0  0  0  0  0  0  0  0
    7.3520    5.4359    4.7483 H   0  0  0  0  0  0  0  0  0  0  0  0
    6.9436    5.9817    3.1255 H   0  0  0  0  0  0  0  0  0  0  0  0
    7.6416    4.3793    3.3771 H   0  0  0  0  0  0  0  0  0  0  0  0
    5.0982    5.6664    5.7674 H   0  0  0  0  0  0  0  0  0  0  0  0
    3.6789    5.2137    4.8286 H   0  0  0  0  0  0  0  0  0  0  0  0
    4.7327    6.5473    4.2976 H   0  0  0  0  0  0  0  0  0  0  0  0
    4.3839    7.6544    0.8350 H   0  0  0  0  0  0  0  0  0  0  0  0
    5.7507    6.5457    0.8039 H   0  0  0  0  0  0  0  0  0  0  0  0
    5.2081    7.2447    2.3302 H   0  0  0  0  0  0  0  0  0  0  0  0
    2.0204    6.7545    1.7539 H   0  0  0  0  0  0  0  0  0  0  0  0
    2.9693    6.7773    3.2242 H   0  0  0  0  0  0  0  0  0  0  0  0
    2.1171    5.3052    2.7406 H   0  0  0  0  0  0  0  0  0  0  0  0
    2.7071    6.0535   -0.2151 H   0  0  0  0  0  0  0  0  0  0  0  0
    2.7414    4.3672    0.2931 H   0  0  0  0  0  0  0  0  0  0  0  0
    4.1430    5.0974   -0.5284 H   0  0  0  0  0  0  0  0  0  0  0  0
   -0.9470    2.3801    2.3769 H   0  0  0  0  0  0  0  0  0  0  0  0
   -0.8220    2.8581    4.0945 H   0  0  0  0  0  0  0  0  0  0  0  0
   -0.5645    5.1883    4.7191 H   0  0  0  0  0  0  0  0  0  0  0  0
   -0.7582    7.5488    4.0748 H   0  0  0  0  0  0  0  0  0  0  0  0
   -0.9067    8.1800    1.6919 H   0  0  0  0  0  0  0  0  0  0  0  0
   -0.8544    6.4213   -0.0425 H   0  0  0  0  0  0  0  0  0  0  0  0
   -0.6632    4.0599    0.5969 H   0  0  0  0  0  0  0  0  0  0  0  0
  1  7  1  0  0  0  0
  1  2  1  0  0  0  0
  3  1  1  0  0  0  0
  4  5  1  0  0  0  0
  4 20  1  0  0  0  0
  5  1  1  0  0  0  0
  6 10  2  0  0  0  0
  6  7  1  0  0  0  0
  7 12  1  1  0  0  0
  7  8  1  0  0  0  0
  8 13  1  0  0  0  0
  9  8  2  0  0  0  0
  9 14  1  0  0  0  0
 10  9  1  0  0  0  0
 11 35  1  0  0  0  0
 11  6  1  0  0  0  0
 12 38  1  0  0  0  0
 12 39  1  0  0  0  0
 13 41  1  0  0  0  0
 13 42  1  0  0  0  0
 14 44  1  0  0  0  0
 14 46  1  0  0  0  0
 15 49  1  0  0  0  0
 15 47  1  0  0  0  0
 15 10  1  0  0  0  0
 16 18  1  0  0  0  0
 16  4  1  0  0  0  0
 17 52  1  0  0  0  0
 17 16  1  0  0  0  0
 18 54  1  0  0  0  0
 18 55  1  0  0  0  0
 19 57  1  0  0  0  0
 19 16  1  0  0  0  0
 20 23  1  0  0  0  0
 20 21  1  0  0  0  0
 21 61  1  0  0  0  0
 21 59  1  0  0  0  0
 22 20  1  0  0  0  0
 22 62  1  0  0  0  0
 23 66  1  0  0  0  0
 23 65  1  0  0  0  0
 24  4  1  0  0  0  0
 24 26  1  0  0  0  0
 25 24  1  0  0  0  0
 25 70  1  0  0  0  0
 26 73  1  0  0  0  0
 26 72  1  0  0  0  0
 27 75  1  0  0  0  0
 27 24  1  0  0  0  0
 28  1  1  0  0  0  0
 28 78  1  0  0  0  0
 29 28  1  0  0  0  0
 29 30  1  0  0  0  0
 30 79  1  0  0  0  0
 31 30  2  0  0  0  0
 31 80  1  0  0  0  0
 32 31  1  0  0  0  0
 33 34  1  0  0  0  0
 33 32  2  0  0  0  0
 34 29  2  0  0  0  0
 36 11  1  0  0  0  0
 37 11  1  0  0  0  0
 40 12  1  0  0  0  0
 43 13  1  0  0  0  0
 45 14  1  0  0  0  0
 48 15  1  0  0  0  0
 50 17  1  0  0  0  0
 51 17  1  0  0  0  0
 53 18  1  0  0  0  0
 56 19  1  0  0  0  0
 58 19  1  0  0  0  0
 60 21  1  0  0  0  0
 63 22  1  0  0  0  0
 64 22  1  0  0  0  0
 67 23  1  0  0  0  0
 68 25  1  0  0  0  0
 69 25  1  0  0  0  0
 71 26  1  0  0  0  0
 74 27  1  0  0  0  0
 76 27  1  0  0  0  0
 77 28  1  0  0  0  0
 81 32  1  0  0  0  0
 82 33  1  0  0  0  0
 83 34  1  0  0  0  0
M  END
$$$$
