CSD_code = ADEZIS | q = 0 | S = 0 | Stoichiometry = C24H46ClNPTa | MND = 9
 OpenBabel04212201593D

 74 72  0  0  1  0  0  0  0  0999 V2000
    2.0915    5.6220    6.9130 Ta  0  0  0  0  0  0  0  0  0  0  0  0
   -0.1070    6.2987    7.5409 Cl  0  0  0  0  0 15  0  0  0  0  0  0
    2.5241    4.1299    9.9820 P   0  0  0  0  0  4  0  0  0  0  0  0
    2.3898    4.7571    8.5533 N   0  0  0  0  0  2  0  0  0  0  0  0
    3.1605    5.1238    4.3275 C   0  0  0  0  0  0  0  0  0  0  0  0
    2.2678    6.1579    3.9449 C   0  0  0  0  0  0  0  0  0  0  0  0
    0.9726    5.7962    4.3338 C   0  0  0  0  0  0  0  0  0  0  0  0
    1.0418    4.5393    5.0088 C   0  0  0  0  0  0  0  0  0  0  0  0
    2.4186    4.1110    4.9765 C   0  0  1  0  0  3  0  0  0  0  0  0
    4.6135    5.0312    3.9835 C   0  0  0  0  0  0  0  0  0  0  0  0
    2.6737    7.3929    3.2009 C   0  0  0  0  0  0  0  0  0  0  0  0
   -0.3068    6.5267    4.0761 C   0  0  0  0  0  0  0  0  0  0  0  0
   -0.1506    3.6582    5.2570 C   0  0  0  0  0  0  0  0  0  0  0  0
    2.9209    2.7202    5.2401 C   0  0  0  0  0  0  0  0  0  0  0  0
    4.4000    3.8506   10.3028 C   0  0  0  0  0  0  0  0  0  0  0  0
    4.7316    2.9081   11.4546 C   0  0  0  0  0  0  0  0  0  0  0  0
    5.0015    5.2283   10.5799 C   0  0  0  0  0  0  0  0  0  0  0  0
    5.0293    3.3612    8.9965 C   0  0  0  0  0  0  0  0  0  0  0  0
    1.5687    2.4591    9.9696 C   0  0  0  0  0  0  0  0  0  0  0  0
    1.3302    1.8320   11.3394 C   0  0  0  0  0  0  0  0  0  0  0  0
    2.3932    1.5007    9.1100 C   0  0  0  0  0  0  0  0  0  0  0  0
    0.2413    2.6835    9.2392 C   0  0  0  0  0  0  0  0  0  0  0  0
    1.7675    5.3331   11.2731 C   0  0  0  0  0  0  0  0  0  0  0  0
    2.1356    5.0255   12.7217 C   0  0  0  0  0  0  0  0  0  0  0  0
    2.1771    6.7583   10.8994 C   0  0  0  0  0  0  0  0  0  0  0  0
    0.2506    5.2641   11.1000 C   0  0  0  0  0  0  0  0  0  0  0  0
    2.7122    7.7629    6.9856 C   0  0  0  0  0  3  0  0  0  0  0  0
    3.8960    6.9174    6.8583 C   0  0  0  0  0  0  0  0  0  0  0  0
    5.0163    6.0031    3.7061 H   0  0  0  0  0  0  0  0  0  0  0  0
    4.7565    4.3560    3.1363 H   0  0  0  0  0  0  0  0  0  0  0  0
    5.1923    4.6414    4.8213 H   0  0  0  0  0  0  0  0  0  0  0  0
    3.5452    7.8625    3.6610 H   0  0  0  0  0  0  0  0  0  0  0  0
    1.8672    8.1232    3.1828 H   0  0  0  0  0  0  0  0  0  0  0  0
    2.9336    7.1486    2.1683 H   0  0  0  0  0  0  0  0  0  0  0  0
   -0.8559    6.6790    5.0066 H   0  0  0  0  0  0  0  0  0  0  0  0
   -0.9435    5.9484    3.4032 H   0  0  0  0  0  0  0  0  0  0  0  0
   -0.1262    7.4986    3.6222 H   0  0  0  0  0  0  0  0  0  0  0  0
    0.1043    2.8100    5.8928 H   0  0  0  0  0  0  0  0  0  0  0  0
   -0.5375    3.2690    4.3119 H   0  0  0  0  0  0  0  0  0  0  0  0
   -0.9501    4.2205    5.7403 H   0  0  0  0  0  0  0  0  0  0  0  0
    2.2516    2.1756    5.9047 H   0  0  0  0  0  0  0  0  0  0  0  0
    3.9154    2.7389    5.6869 H   0  0  0  0  0  0  0  0  0  0  0  0
    2.9881    2.1632    4.3023 H   0  0  0  0  0  0  0  0  0  0  0  0
    4.2444    3.2163   12.3752 H   0  0  0  0  0  0  0  0  0  0  0  0
    5.8086    2.9199   11.6235 H   0  0  0  0  0  0  0  0  0  0  0  0
    4.4461    1.8828   11.2361 H   0  0  0  0  0  0  0  0  0  0  0  0
    4.7352    5.5982   11.5650 H   0  0  0  0  0  0  0  0  0  0  0  0
    4.6664    5.9304    9.8190 H   0  0  0  0  0  0  0  0  0  0  0  0
    6.0890    5.1688   10.5379 H   0  0  0  0  0  0  0  0  0  0  0  0
    4.8720    2.3024    8.8248 H   0  0  0  0  0  0  0  0  0  0  0  0
    6.1046    3.5322    9.0244 H   0  0  0  0  0  0  0  0  0  0  0  0
    4.6125    3.9265    8.1622 H   0  0  0  0  0  0  0  0  0  0  0  0
    0.6550    2.4289   11.9457 H   0  0  0  0  0  0  0  0  0  0  0  0
    2.2591    1.6943   11.8856 H   0  0  0  0  0  0  0  0  0  0  0  0
    0.8710    0.8525   11.2036 H   0  0  0  0  0  0  0  0  0  0  0  0
    3.2862    1.1593    9.6247 H   0  0  0  0  0  0  0  0  0  0  0  0
    2.6716    1.9927    8.1805 H   0  0  0  0  0  0  0  0  0  0  0  0
    1.8006    0.6178    8.8696 H   0  0  0  0  0  0  0  0  0  0  0  0
   -0.5439    3.0333    9.8996 H   0  0  0  0  0  0  0  0  0  0  0  0
   -0.0989    1.7474    8.7976 H   0  0  0  0  0  0  0  0  0  0  0  0
    0.3705    3.4137    8.4397 H   0  0  0  0  0  0  0  0  0  0  0  0
    1.8958    4.0002   12.9885 H   0  0  0  0  0  0  0  0  0  0  0  0
    1.5657    5.6850   13.3762 H   0  0  0  0  0  0  0  0  0  0  0  0
    3.1896    5.1991   12.9202 H   0  0  0  0  0  0  0  0  0  0  0  0
    2.0725    6.8966    9.8233 H   0  0  0  0  0  0  0  0  0  0  0  0
    3.1915    7.0004   11.1948 H   0  0  0  0  0  0  0  0  0  0  0  0
    1.5130    7.4628   11.3977 H   0  0  0  0  0  0  0  0  0  0  0  0
   -0.0097    5.3935   10.0511 H   0  0  0  0  0  0  0  0  0  0  0  0
   -0.2136    6.0739   11.6618 H   0  0  0  0  0  0  0  0  0  0  0  0
   -0.1619    4.3332   11.4753 H   0  0  0  0  0  0  0  0  0  0  0  0
    2.4334    8.3474    6.1110 H   0  0  0  0  0  0  0  0  0  0  0  0
    2.6234    8.3539    7.8959 H   0  0  0  0  0  0  0  0  0  0  0  0
    4.5794    6.9550    7.7060 H   0  0  0  0  0  0  0  0  0  0  0  0
    4.4488    7.0118    5.9283 H   0  0  0  0  0  0  0  0  0  0  0  0
  1  4  1  0  0  0  0
  3 15  1  0  0  0  0
  3 23  1  0  0  0  0
  4  3  1  0  0  0  0
  5  9  1  0  0  0  0
  6  5  2  0  0  0  0
  6  7  1  0  0  0  0
  7  8  2  0  0  0  0
  8 13  1  0  0  0  0
  9  8  1  0  0  0  0
  9 14  1  6  0  0  0
 10  5  1  0  0  0  0
 10 31  1  0  0  0  0
 11 32  1  0  0  0  0
 11  6  1  0  0  0  0
 12  7  1  0  0  0  0
 12 35  1  0  0  0  0
 13 40  1  0  0  0  0
 13 38  1  0  0  0  0
 14 42  1  0  0  0  0
 14 41  1  0  0  0  0
 15 17  1  0  0  0  0
 15 16  1  0  0  0  0
 16 45  1  0  0  0  0
 16 44  1  0  0  0  0
 17 47  1  0  0  0  0
 18 51  1  0  0  0  0
 18 15  1  0  0  0  0
 19  3  1  0  0  0  0
 19 20  1  0  0  0  0
 20 54  1  0  0  0  0
 20 53  1  0  0  0  0
 21 56  1  0  0  0  0
 21 19  1  0  0  0  0
 22 59  1  0  0  0  0
 22 19  1  0  0  0  0
 23 24  1  0  0  0  0
 24 64  1  0  0  0  0
 24 62  1  0  0  0  0
 24 63  1  0  0  0  0
 25 66  1  0  0  0  0
 25 23  1  0  0  0  0
 25 67  1  0  0  0  0
 26 23  1  0  0  0  0
 26 70  1  0  0  0  0
 26 69  1  0  0  0  0
 27 72  1  0  0  0  0
 28  1  1  0  0  0  0
 28 27  1  0  0  0  0
 28 73  1  0  0  0  0
 29 10  1  0  0  0  0
 30 10  1  0  0  0  0
 33 11  1  0  0  0  0
 34 11  1  0  0  0  0
 36 12  1  0  0  0  0
 37 12  1  0  0  0  0
 39 13  1  0  0  0  0
 43 14  1  0  0  0  0
 46 16  1  0  0  0  0
 48 17  1  0  0  0  0
 49 17  1  0  0  0  0
 50 18  1  0  0  0  0
 52 18  1  0  0  0  0
 55 20  1  0  0  0  0
 57 21  1  0  0  0  0
 58 21  1  0  0  0  0
 60 22  1  0  0  0  0
 61 22  1  0  0  0  0
 65 25  1  0  0  0  0
 68 26  1  0  0  0  0
 71 27  1  0  0  0  0
 74 28  1  0  0  0  0
M  END
$$$$
