CSD_code = ADEZUE | q = 0 | S = 0 | Stoichiometry = C11H17Cl2ReS3 | MND = 9
 OpenBabel04212201593D

 34 35  0  0  1  0  0  0  0  0999 V2000
    1.5776    5.8482   11.2125 Re  0  0  0  0  0  0  0  0  0  0  0  0
    1.8134    8.2294   10.9266 S   0  0  0  0  0  0  0  0  0  0  0  0
    2.2189    8.5140   12.9001 S   0  0  0  0  0  0  0  0  0  0  0  0
    1.9945    6.5421   13.3906 S   0  0  0  0  0  0  0  0  0  0  0  0
    1.3894    3.7078   11.8473 Cl  0  0  0  0  0  0  0  0  0  0  0  0
    2.9323    5.4994    9.5390 Cl  0  0  0  0  0  0  0  0  0  0  0  0
   -0.6554    6.1148   11.0710 C   0  0  2  0  0  0  0  0  0  0  0  0
   -1.3168    4.9996   11.8055 C   0  0  0  0  0  0  0  0  0  0  0  0
   -1.5999    3.9969   10.9260 C   0  0  0  0  0  0  0  0  0  0  0  0
   -1.1541    4.3882    9.6057 C   0  0  0  0  0  0  0  0  0  0  0  0
   -0.6161    5.6542    9.6563 C   0  0  0  0  0  0  0  0  0  0  0  0
   -0.2959    6.5243    8.4755 C   0  0  0  0  0  0  0  0  0  0  0  0
   -1.5779    7.0368    7.8137 C   0  0  0  0  0  0  0  0  0  0  0  0
   -1.2259    7.4845   11.3829 C   0  0  0  0  0  0  0  0  0  0  0  0
   -1.5831    5.0607   13.2688 C   0  0  0  0  0  0  0  0  0  0  0  0
   -2.2183    2.6736   11.2096 C   0  0  0  0  0  0  0  0  0  0  0  0
   -1.2888    3.5089    8.4156 C   0  0  0  0  0  0  0  0  0  0  0  0
    0.2819    5.9571    7.7431 H   0  0  0  0  0  0  0  0  0  0  0  0
    0.3144    7.3748    8.7880 H   0  0  0  0  0  0  0  0  0  0  0  0
   -1.3318    7.6514    6.9514 H   0  0  0  0  0  0  0  0  0  0  0  0
   -2.1550    7.6361    8.5123 H   0  0  0  0  0  0  0  0  0  0  0  0
   -2.1956    6.2057    7.4838 H   0  0  0  0  0  0  0  0  0  0  0  0
   -2.3084    7.4507   11.2581 H   0  0  0  0  0  0  0  0  0  0  0  0
   -0.8233    8.2419   10.7157 H   0  0  0  0  0  0  0  0  0  0  0  0
   -1.0145    7.7704   12.4121 H   0  0  0  0  0  0  0  0  0  0  0  0
   -2.4319    5.7147   13.4743 H   0  0  0  0  0  0  0  0  0  0  0  0
   -0.7148    5.4613   13.7925 H   0  0  0  0  0  0  0  0  0  0  0  0
   -1.8003    4.0747   13.6685 H   0  0  0  0  0  0  0  0  0  0  0  0
   -2.9969    2.4524   10.4815 H   0  0  0  0  0  0  0  0  0  0  0  0
   -2.6507    2.6460   12.2052 H   0  0  0  0  0  0  0  0  0  0  0  0
   -1.4607    1.8925   11.1407 H   0  0  0  0  0  0  0  0  0  0  0  0
   -2.3405    3.3735    8.1605 H   0  0  0  0  0  0  0  0  0  0  0  0
   -0.8743    2.5253    8.6333 H   0  0  0  0  0  0  0  0  0  0  0  0
   -0.7726    3.9270    7.5566 H   0  0  0  0  0  0  0  0  0  0  0  0
  1  5  1  0  0  0  0
  1  4  1  0  0  0  0
  2  1  1  0  0  0  0
  2  3  1  0  0  0  0
  3  4  1  0  0  0  0
  6  1  1  0  0  0  0
  7  1  1  0  0  0  0
  7 14  1  1  0  0  0
  7  8  1  0  0  0  0
  8 15  1  0  0  0  0
  9 16  1  0  0  0  0
  9  8  2  0  0  0  0
 10 11  2  0  0  0  0
 10  9  1  0  0  0  0
 11  7  1  0  0  0  0
 12 19  1  0  0  0  0
 12 11  1  0  0  0  0
 13 12  1  0  0  0  0
 13 21  1  0  0  0  0
 14 25  1  0  0  0  0
 15 26  1  0  0  0  0
 15 28  1  0  0  0  0
 15 27  1  0  0  0  0
 16 30  1  0  0  0  0
 17 33  1  0  0  0  0
 17 10  1  0  0  0  0
 18 12  1  0  0  0  0
 20 13  1  0  0  0  0
 22 13  1  0  0  0  0
 23 14  1  0  0  0  0
 24 14  1  0  0  0  0
 29 16  1  0  0  0  0
 31 16  1  0  0  0  0
 32 17  1  0  0  0  0
 34 17  1  0  0  0  0
M  END
$$$$
