CSD_code = ADIFID | q = 0 | S = 0 | Stoichiometry = C28H26Cl2N2NiO2 | MND = 4
 OpenBabel04212201593D

 61 64  0  0  0  0  0  0  0  0999 V2000
    7.0337    4.4827    3.8106 Ni  0  0  0  0  0  0  0  0  0  0  0  0
    7.6161    5.9361    2.4293 Cl  0  0  0  0  0  0  0  0  0  0  0  0
    7.2368    3.1048    2.4112 O   0  0  0  0  0  0  0  0  0  0  0  0
    5.9713    4.1061    0.3715 N   0  0  0  0  0  4  0  0  0  0  0  0
    6.1006    3.8575    1.3707 H   0  0  0  0  0  0  0  0  0  0  0  0
    8.1972    2.8296    1.6196 C   0  0  0  0  0  0  0  0  0  0  0  0
    9.4102    2.2621    2.0952 C   0  0  0  0  0  0  0  0  0  0  0  0
    9.4950    2.1165    3.1622 H   0  0  0  0  0  0  0  0  0  0  0  0
   10.4151    1.9000    1.2474 C   0  0  0  0  0  0  0  0  0  0  0  0
   11.3200    1.4589    1.6407 H   0  0  0  0  0  0  0  0  0  0  0  0
   10.2936    2.0915   -0.1402 C   0  0  0  0  0  0  0  0  0  0  0  0
   11.1003    1.7963   -0.7931 H   0  0  0  0  0  0  0  0  0  0  0  0
    9.1617    2.6601   -0.6455 C   0  0  0  0  0  0  0  0  0  0  0  0
    9.0603    2.8262   -1.7089 H   0  0  0  0  0  0  0  0  0  0  0  0
    8.0935    3.0534    0.1942 C   0  0  0  0  0  0  0  0  0  0  0  0
    7.0006    3.7404   -0.3537 C   0  0  0  0  0  0  0  0  0  0  0  0
    7.0240    3.9902   -1.4085 H   0  0  0  0  0  0  0  0  0  0  0  0
    4.8863    4.9079    0.0532 C   0  0  0  0  0  0  0  0  0  0  0  0
    4.7402    5.5058   -1.1978 C   0  0  0  0  0  0  0  0  0  0  0  0
    5.4857    5.3524   -1.9621 H   0  0  0  0  0  0  0  0  0  0  0  0
    3.6527    6.3131   -1.4639 C   0  0  0  0  0  0  0  0  0  0  0  0
    3.5521    6.7740   -2.4346 H   0  0  0  0  0  0  0  0  0  0  0  0
    2.7021    6.5372   -0.4821 C   0  0  0  0  0  0  0  0  0  0  0  0
    1.8546    7.1746   -0.6829 H   0  0  0  0  0  0  0  0  0  0  0  0
    2.8417    5.9433    0.7601 C   0  0  0  0  0  0  0  0  0  0  0  0
    2.0984    6.1233    1.5227 H   0  0  0  0  0  0  0  0  0  0  0  0
    3.9185    5.1195    1.0522 C   0  0  0  0  0  0  0  0  0  0  0  0
    4.0331    4.4738    2.3961 C   0  0  0  0  0  0  0  0  0  0  0  0
    4.0849    3.3883    2.3060 H   0  0  0  0  0  0  0  0  0  0  0  0
    3.1776    4.7284    3.0163 H   0  0  0  0  0  0  0  0  0  0  0  0
    4.9383    4.8232    2.9301 H   0  0  0  0  0  0  0  0  0  0  0  0
    6.4387    5.9325    5.1907 Cl  0  0  0  0  0  0  0  0  0  0  0  0
    6.8440    3.1076    5.2124 O   0  0  0  0  0  0  0  0  0  0  0  0
    8.1163    4.1071    7.2496 N   0  0  0  0  0  4  0  0  0  0  0  0
    7.9825    3.8661    6.2493 H   0  0  0  0  0  0  0  0  0  0  0  0
    5.8879    2.8276    6.0073 C   0  0  0  0  0  0  0  0  0  0  0  0
    4.6722    2.2627    5.5353 C   0  0  0  0  0  0  0  0  0  0  0  0
    4.5811    2.1242    4.4677 H   0  0  0  0  0  0  0  0  0  0  0  0
    3.6725    1.8951    6.3868 C   0  0  0  0  0  0  0  0  0  0  0  0
    2.7653    1.4565    5.9961 H   0  0  0  0  0  0  0  0  0  0  0  0
    3.8025    2.0773    7.7749 C   0  0  0  0  0  0  0  0  0  0  0  0
    2.9998    1.7775    8.4307 H   0  0  0  0  0  0  0  0  0  0  0  0
    4.9368    2.6436    8.2770 C   0  0  0  0  0  0  0  0  0  0  0  0
    5.0443    2.8036    9.3408 H   0  0  0  0  0  0  0  0  0  0  0  0
    5.9995    3.0438    7.4333 C   0  0  0  0  0  0  0  0  0  0  0  0
    7.0933    3.7309    7.9786 C   0  0  0  0  0  0  0  0  0  0  0  0
    7.0757    3.9731    9.0353 H   0  0  0  0  0  0  0  0  0  0  0  0
    9.2006    4.9096    7.5690 C   0  0  0  0  0  0  0  0  0  0  0  0
    9.3553    5.4911    8.8267 C   0  0  0  0  0  0  0  0  0  0  0  0
    8.6175    5.3239    9.5956 H   0  0  0  0  0  0  0  0  0  0  0  0
   10.4421    6.2987    9.0947 C   0  0  0  0  0  0  0  0  0  0  0  0
   10.5494    6.7463   10.0710 H   0  0  0  0  0  0  0  0  0  0  0  0
   11.3833    6.5401    8.1079 C   0  0  0  0  0  0  0  0  0  0  0  0
   12.2300    7.1780    8.3102 H   0  0  0  0  0  0  0  0  0  0  0  0
   11.2353    5.9625    6.8590 C   0  0  0  0  0  0  0  0  0  0  0  0
   11.9713    6.1557    6.0926 H   0  0  0  0  0  0  0  0  0  0  0  0
   10.1593    5.1382    6.5648 C   0  0  0  0  0  0  0  0  0  0  0  0
   10.0372    4.5089    5.2139 C   0  0  0  0  0  0  0  0  0  0  0  0
    9.9944    3.4220    5.2906 H   0  0  0  0  0  0  0  0  0  0  0  0
   10.8854    4.7774    4.5894 H   0  0  0  0  0  0  0  0  0  0  0  0
    9.1250    4.8580    4.6921 H   0  0  0  0  0  0  0  0  0  0  0  0
  1 32  1  0  0  0  0
  1 33  1  0  0  0  0
  2  1  1  0  0  0  0
  3  1  1  0  0  0  0
  4  5  1  0  0  0  0
  6  7  1  0  0  0  0
  6  3  1  0  0  0  0
  7  8  1  0  0  0  0
  9 10  1  0  0  0  0
  9  7  2  0  0  0  0
 11  9  1  0  0  0  0
 12 11  1  0  0  0  0
 13 11  2  0  0  0  0
 13 15  1  0  0  0  0
 14 13  1  0  0  0  0
 15  6  2  0  0  0  0
 16 15  1  0  0  0  0
 16  4  2  0  0  0  0
 17 16  1  0  0  0  0
 18  4  1  0  0  0  0
 18 27  1  0  0  0  0
 19 18  2  0  0  0  0
 20 19  1  0  0  0  0
 21 19  1  0  0  0  0
 21 23  2  0  0  0  0
 22 21  1  0  0  0  0
 23 25  1  0  0  0  0
 24 23  1  0  0  0  0
 25 27  2  0  0  0  0
 25 26  1  0  0  0  0
 27 28  1  0  0  0  0
 28 31  1  0  0  0  0
 28 30  1  0  0  0  0
 29 28  1  0  0  0  0
 33 36  1  0  0  0  0
 34 48  1  0  0  0  0
 34 46  2  0  0  0  0
 35 34  1  0  0  0  0
 36 45  1  0  0  0  0
 37 36  2  0  0  0  0
 37 39  1  0  0  0  0
 38 37  1  0  0  0  0
 39 41  2  0  0  0  0
 40 39  1  0  0  0  0
 41 43  1  0  0  0  0
 41 42  1  0  0  0  0
 43 44  1  0  0  0  0
 45 46  1  0  0  0  0
 45 43  2  0  0  0  0
 46 47  1  0  0  0  0
 48 49  1  0  0  0  0
 49 51  2  0  0  0  0
 49 50  1  0  0  0  0
 51 52  1  0  0  0  0
 53 54  1  0  0  0  0
 53 51  1  0  0  0  0
 55 53  2  0  0  0  0
 56 55  1  0  0  0  0
 57 55  1  0  0  0  0
 57 48  2  0  0  0  0
 58 59  1  0  0  0  0
 58 57  1  0  0  0  0
 60 58  1  0  0  0  0
 61 58  1  0  0  0  0
M  END
$$$$
