CSD_code = ADIRIP | q = 0 | S = 0 | Stoichiometry = C29H38ClNO4PRh | MND = 4
 OpenBabel04212201593D

 75 79  0  0  1  0  0  0  0  0999 V2000
   15.4581   -5.1739    7.2430 Rh  0  0  1  0  0  0  0  0  0  0  0  0
   16.9066   -6.0679    5.7386 P   0  0  0  0  0  4  0  0  0  0  0  0
   13.4029   -4.6846    8.1826 Cl  0  0  0  0  0  0  0  0  0  0  0  0
   16.1139   -6.0315    4.3106 O   0  0  0  0  0  0  0  0  0  0  0  0
   15.9887   -6.9848    9.5367 O   0  0  0  0  0  1  0  0  0  0  0  0
   15.7920   -6.3138    8.6271 C   0  0  0  0  0  2  0  0  0  0  0  0
   14.3702   -4.3583    4.5539 C   0  0  0  0  0  0  0  0  0  0  0  0
   14.7367   -3.7947    3.6855 H   0  0  0  0  0  0  0  0  0  0  0  0
   13.2784   -4.2627    4.5962 H   0  0  0  0  0  0  0  0  0  0  0  0
   15.4548   -1.7590    7.0820 C   0  0  2  0  0  0  0  0  0  0  0  0
   18.3078   -5.4905    5.2063 O   0  0  0  0  0  0  0  0  0  0  0  0
   14.9173   -2.5588    5.9233 C   0  0  2  0  0  3  0  0  0  0  0  0
   14.7168   -5.8332    4.3576 C   0  0  0  0  0  0  0  0  0  0  0  0
   14.2649   -6.4208    5.1707 H   0  0  0  0  0  0  0  0  0  0  0  0
   14.3203   -6.1844    3.4009 H   0  0  0  0  0  0  0  0  0  0  0  0
   17.3453   -7.6216    5.8089 O   0  0  0  0  0  0  0  0  0  0  0  0
   14.2615   -1.5749    4.9911 C   0  0  0  0  0  0  0  0  0  0  0  0
   13.2116   -1.8301    4.8293 H   0  0  0  0  0  0  0  0  0  0  0  0
   14.7483   -1.5601    4.0131 H   0  0  0  0  0  0  0  0  0  0  0  0
   14.4377   -0.2536    5.7442 C   0  0  1  0  0  0  0  0  0  0  0  0
   14.3044    0.6302    5.1216 H   0  0  0  0  0  0  0  0  0  0  0  0
   13.4963   -0.3195    6.9534 C   0  0  0  0  0  0  0  0  0  0  0  0
   13.4140    0.6503    7.4425 H   0  0  0  0  0  0  0  0  0  0  0  0
   12.4921   -0.6211    6.6568 H   0  0  0  0  0  0  0  0  0  0  0  0
   14.1706   -1.3661    7.8570 C   0  0  0  0  0  0  0  0  0  0  0  0
   13.5464   -2.2419    8.0310 H   0  0  0  0  0  0  0  0  0  0  0  0
   14.4414   -0.9558    8.8285 H   0  0  0  0  0  0  0  0  0  0  0  0
   15.8332   -0.4291    6.3752 C   0  0  0  0  0  0  0  0  0  0  0  0
   16.9544   -0.5940    5.3473 C   0  0  0  0  0  0  0  0  0  0  0  0
   16.9222    0.2202    4.6254 H   0  0  0  0  0  0  0  0  0  0  0  0
   16.8920   -1.5377    4.8129 H   0  0  0  0  0  0  0  0  0  0  0  0
   17.9221   -0.5670    5.8426 H   0  0  0  0  0  0  0  0  0  0  0  0
   16.2383    0.6976    7.3206 C   0  0  0  0  0  0  0  0  0  0  0  0
   16.3830    1.6135    6.7506 H   0  0  0  0  0  0  0  0  0  0  0  0
   17.1783    0.4502    7.8087 H   0  0  0  0  0  0  0  0  0  0  0  0
   15.4984    0.8900    8.0884 H   0  0  0  0  0  0  0  0  0  0  0  0
   16.5180   -2.4340    7.9204 C   0  0  0  0  0  0  0  0  0  0  0  0
   16.1809   -3.4751    8.1470 H   0  0  0  0  0  0  0  0  0  0  0  0
   16.6646   -1.9020    8.8564 H   0  0  0  0  0  0  0  0  0  0  0  0
   17.4640   -2.4735    7.3825 H   0  0  0  0  0  0  0  0  0  0  0  0
   18.9704   -4.3744    5.6657 C   0  0  0  0  0  0  0  0  0  0  0  0
   19.2326   -3.3605    4.7416 C   0  0  0  0  0  0  0  0  0  0  0  0
   19.9700   -2.2596    5.1519 C   0  0  0  0  0  0  0  0  0  0  0  0
   20.1835   -1.4740    4.4421 H   0  0  0  0  0  0  0  0  0  0  0  0
   20.4283   -2.1635    6.4538 C   0  0  0  0  0  0  0  0  0  0  0  0
   20.9998   -1.3014    6.7633 H   0  0  0  0  0  0  0  0  0  0  0  0
   20.1574   -3.1747    7.3560 C   0  0  0  0  0  0  0  0  0  0  0  0
   20.5161   -3.1023    8.3718 H   0  0  0  0  0  0  0  0  0  0  0  0
   19.4289   -4.2981    6.9802 C   0  0  0  0  0  0  0  0  0  0  0  0
   18.7338   -3.4884    3.3350 C   0  0  0  0  0  0  0  0  0  0  0  0
   18.7441   -2.5245    2.8321 H   0  0  0  0  0  0  0  0  0  0  0  0
   17.7236   -3.8949    3.3245 H   0  0  0  0  0  0  0  0  0  0  0  0
   19.3673   -4.1779    2.7768 H   0  0  0  0  0  0  0  0  0  0  0  0
   19.1540   -5.3876    7.9690 C   0  0  0  0  0  0  0  0  0  0  0  0
   18.9718   -6.3368    7.4677 H   0  0  0  0  0  0  0  0  0  0  0  0
   18.2725   -5.1434    8.5662 H   0  0  0  0  0  0  0  0  0  0  0  0
   19.9974   -5.5023    8.6466 H   0  0  0  0  0  0  0  0  0  0  0  0
   16.7739   -8.6281    5.0391 C   0  0  0  0  0  0  0  0  0  0  0  0
   17.3425   -8.9292    3.8023 C   0  0  0  0  0  0  0  0  0  0  0  0
   16.7948   -9.9652    3.0582 C   0  0  0  0  0  0  0  0  0  0  0  0
   17.2266  -10.2093    2.0986 H   0  0  0  0  0  0  0  0  0  0  0  0
   15.7083  -10.6782    3.5295 C   0  0  0  0  0  0  0  0  0  0  0  0
   15.2904  -11.4800    2.9394 H   0  0  0  0  0  0  0  0  0  0  0  0
   15.1571  -10.3641    4.7579 C   0  0  0  0  0  0  0  0  0  0  0  0
   14.3091  -10.9213    5.1274 H   0  0  0  0  0  0  0  0  0  0  0  0
   15.6781   -9.3353    5.5320 C   0  0  0  0  0  0  0  0  0  0  0  0
   18.5094   -8.1383    3.3036 C   0  0  0  0  0  0  0  0  0  0  0  0
   18.8585   -8.5234    2.3491 H   0  0  0  0  0  0  0  0  0  0  0  0
   19.3252   -8.1729    4.0242 H   0  0  0  0  0  0  0  0  0  0  0  0
   18.2226   -7.0941    3.1860 H   0  0  0  0  0  0  0  0  0  0  0  0
   15.0882   -8.9981    6.8645 C   0  0  0  0  0  0  0  0  0  0  0  0
   14.7296   -7.9627    6.8867 H   0  0  0  0  0  0  0  0  0  0  0  0
   15.8420   -9.0953    7.6442 H   0  0  0  0  0  0  0  0  0  0  0  0
   14.2551   -9.6558    7.0956 H   0  0  0  0  0  0  0  0  0  0  0  0
   14.9577   -3.8239    5.7690 N   0  0  1  0  0  0  0  0  0  0  0  0
  1  3  1  6  0  0  0
  1  6  1  0  0  0  0
  2 16  1  0  0  0  0
  2  1  1  0  0  0  0
  4 13  1  0  0  0  0
  4  2  1  0  0  0  0
  6  5  1  0  0  0  0
  7  9  1  0  0  0  0
  8  7  1  0  0  0  0
 10 25  1  0  0  0  0
 10 37  1  1  0  0  0
 11 41  1  0  0  0  0
 11  2  1  0  0  0  0
 12 17  1  1  0  0  0
 12 10  1  0  0  0  0
 13  7  1  0  0  0  0
 13 14  1  0  0  0  0
 15 13  1  0  0  0  0
 17 20  1  0  0  0  0
 18 17  1  0  0  0  0
 19 17  1  0  0  0  0
 20 21  1  6  0  0  0
 20 28  1  0  0  0  0
 20 22  1  0  0  0  0
 22 23  1  0  0  0  0
 22 25  1  0  0  0  0
 24 22  1  0  0  0  0
 25 26  1  0  0  0  0
 25 27  1  0  0  0  0
 28 10  1  0  0  0  0
 28 33  1  0  0  0  0
 29 32  1  0  0  0  0
 29 28  1  0  0  0  0
 30 29  1  0  0  0  0
 31 29  1  0  0  0  0
 33 35  1  0  0  0  0
 33 36  1  0  0  0  0
 34 33  1  0  0  0  0
 37 38  1  0  0  0  0
 37 39  1  0  0  0  0
 40 37  1  0  0  0  0
 41 49  1  0  0  0  0
 42 43  1  0  0  0  0
 42 41  2  0  0  0  0
 43 45  2  0  0  0  0
 44 43  1  0  0  0  0
 45 46  1  0  0  0  0
 45 47  1  0  0  0  0
 47 48  1  0  0  0  0
 49 47  2  0  0  0  0
 49 54  1  0  0  0  0
 50 42  1  0  0  0  0
 51 50  1  0  0  0  0
 52 50  1  0  0  0  0
 53 50  1  0  0  0  0
 54 56  1  0  0  0  0
 54 57  1  0  0  0  0
 55 54  1  0  0  0  0
 58 66  1  0  0  0  0
 58 16  1  0  0  0  0
 59 58  2  0  0  0  0
 60 62  2  0  0  0  0
 60 59  1  0  0  0  0
 61 60  1  0  0  0  0
 62 64  1  0  0  0  0
 63 62  1  0  0  0  0
 64 65  1  0  0  0  0
 64 66  2  0  0  0  0
 66 71  1  0  0  0  0
 67 59  1  0  0  0  0
 67 69  1  0  0  0  0
 68 67  1  0  0  0  0
 70 67  1  0  0  0  0
 71 72  1  0  0  0  0
 71 74  1  0  0  0  0
 71 73  1  0  0  0  0
 75  7  1  1  0  0  0
 75 12  1  0  0  0  0
 75  1  1  0  0  0  0
M  END
$$$$
