CSD_code = ADIXER | q = 0 | S = 0 | Stoichiometry = C22H52FNP2RuSi2 | MND = 4
 OpenBabel04212201593D

 81 82  0  0  1  0  0  0  0  0999 V2000
    5.7123    0.3188   13.7452 Ru  0  0  1  0  0  0  0  0  0  0  0  0
    5.1495   -1.7424   12.8650 P   0  0  0  0  0  4  0  0  0  0  0  0
    6.3248    2.3362   14.6905 P   0  0  0  0  0  4  0  0  0  0  0  0
    7.1460   -2.3492   15.0723 Si  0  0  0  0  0  0  0  0  0  0  0  0
    7.5316    0.2191   16.5039 Si  0  0  0  0  0  0  0  0  0  0  0  0
    4.6114    1.2480   12.3734 F   0  0  0  0  0  0  0  0  0  0  0  0
    6.8463   -0.6463   15.1696 N   0  0  1  0  0  0  0  0  0  0  0  0
    8.9194   -2.7638   14.4718 C   0  0  0  0  0  0  0  0  0  0  0  0
    9.5887   -2.7957   15.3236 H   0  0  0  0  0  0  0  0  0  0  0  0
    9.3077   -2.0254   13.7788 H   0  0  0  0  0  0  0  0  0  0  0  0
    8.9654   -3.7357   13.9899 H   0  0  0  0  0  0  0  0  0  0  0  0
    6.9203   -3.2739   16.7294 C   0  0  0  0  0  0  0  0  0  0  0  0
    7.7068   -2.9977   17.4212 H   0  0  0  0  0  0  0  0  0  0  0  0
    6.9772   -4.3477   16.5829 H   0  0  0  0  0  0  0  0  0  0  0  0
    5.9712   -3.0521   17.2052 H   0  0  0  0  0  0  0  0  0  0  0  0
    5.8314   -3.0922   13.8931 C   0  0  0  0  0  0  0  0  0  0  0  0
    6.2186   -3.9015   13.2794 H   0  0  0  0  0  0  0  0  0  0  0  0
    5.0281   -3.4983   14.5028 H   0  0  0  0  0  0  0  0  0  0  0  0
    3.2848   -2.0550   12.9287 C   0  0  0  0  0  0  0  0  0  0  0  0
    2.8410   -3.5150   12.8642 C   0  0  0  0  0  0  0  0  0  0  0  0
    1.7527   -3.5600   12.9090 H   0  0  0  0  0  0  0  0  0  0  0  0
    3.2297   -4.0991   13.6946 H   0  0  0  0  0  0  0  0  0  0  0  0
    3.1591   -3.9841   11.9372 H   0  0  0  0  0  0  0  0  0  0  0  0
    2.5790   -1.2567   11.8340 C   0  0  0  0  0  0  0  0  0  0  0  0
    1.5153   -1.1755   12.0583 H   0  0  0  0  0  0  0  0  0  0  0  0
    2.6790   -1.7441   10.8668 H   0  0  0  0  0  0  0  0  0  0  0  0
    2.9922   -0.2519   11.7725 H   0  0  0  0  0  0  0  0  0  0  0  0
    2.9187   -1.4436   14.2887 C   0  0  0  0  0  0  0  0  0  0  0  0
    1.8449   -1.4975   14.4647 H   0  0  0  0  0  0  0  0  0  0  0  0
    3.2226   -0.3840   14.3046 H   0  0  0  0  0  0  0  0  0  0  0  0
    3.4292   -1.9590   15.1038 H   0  0  0  0  0  0  0  0  0  0  0  0
    5.8933   -2.0622   11.1620 C   0  0  0  0  0  0  0  0  0  0  0  0
    5.5239   -0.9087   10.2288 C   0  0  0  0  0  0  0  0  0  0  0  0
    6.1464   -0.9375    9.3344 H   0  0  0  0  0  0  0  0  0  0  0  0
    5.6891    0.0457   10.7314 H   0  0  0  0  0  0  0  0  0  0  0  0
    4.4856   -0.9546    9.9165 H   0  0  0  0  0  0  0  0  0  0  0  0
    7.3995   -1.9719   11.4299 C   0  0  0  0  0  0  0  0  0  0  0  0
    7.9495   -1.8611   10.4960 H   0  0  0  0  0  0  0  0  0  0  0  0
    7.7690   -2.8560   11.9409 H   0  0  0  0  0  0  0  0  0  0  0  0
    7.6013   -1.0937   12.0594 H   0  0  0  0  0  0  0  0  0  0  0  0
    5.5323   -3.3975   10.5208 C   0  0  0  0  0  0  0  0  0  0  0  0
    6.1588   -3.5638    9.6443 H   0  0  0  0  0  0  0  0  0  0  0  0
    4.4947   -3.4034   10.1947 H   0  0  0  0  0  0  0  0  0  0  0  0
    5.6861   -4.2291   11.2060 H   0  0  0  0  0  0  0  0  0  0  0  0
    6.5892   -0.0726   18.1484 C   0  0  0  0  0  0  0  0  0  0  0  0
    5.5276   -0.2354   17.9970 H   0  0  0  0  0  0  0  0  0  0  0  0
    6.7081    0.7602   18.8348 H   0  0  0  0  0  0  0  0  0  0  0  0
    6.9876   -0.9528   18.6393 H   0  0  0  0  0  0  0  0  0  0  0  0
    9.3578   -0.2184   16.8577 C   0  0  0  0  0  0  0  0  0  0  0  0
    9.4311   -1.2261   17.2484 H   0  0  0  0  0  0  0  0  0  0  0  0
    9.7779    0.4510   17.6014 H   0  0  0  0  0  0  0  0  0  0  0  0
    9.9794   -0.1637   15.9707 H   0  0  0  0  0  0  0  0  0  0  0  0
    7.5357    2.0771   16.0363 C   0  0  0  0  0  0  0  0  0  0  0  0
    7.3331    2.7290   16.8823 H   0  0  0  0  0  0  0  0  0  0  0  0
    8.5253    2.3250   15.6608 H   0  0  0  0  0  0  0  0  0  0  0  0
    7.2700    3.4271   13.4671 C   0  0  0  0  0  0  0  0  0  0  0  0
    6.3040    4.0483   12.4598 C   0  0  0  0  0  0  0  0  0  0  0  0
    6.8522    4.4010   11.5860 H   0  0  0  0  0  0  0  0  0  0  0  0
    5.7815    4.8993   12.8907 H   0  0  0  0  0  0  0  0  0  0  0  0
    5.5749    3.3107   12.1300 H   0  0  0  0  0  0  0  0  0  0  0  0
    8.1488    4.5189   14.0739 C   0  0  0  0  0  0  0  0  0  0  0  0
    8.6342    5.0742   13.2711 H   0  0  0  0  0  0  0  0  0  0  0  0
    8.9292    4.1105   14.7112 H   0  0  0  0  0  0  0  0  0  0  0  0
    7.5602    5.2197   14.6595 H   0  0  0  0  0  0  0  0  0  0  0  0
    8.1334    2.3893   12.7357 C   0  0  0  0  0  0  0  0  0  0  0  0
    8.7175    2.8560   11.9433 H   0  0  0  0  0  0  0  0  0  0  0  0
    7.4788    1.6258   12.2839 H   0  0  0  0  0  0  0  0  0  0  0  0
    8.8186    1.8904   13.4228 H   0  0  0  0  0  0  0  0  0  0  0  0
    4.9041    3.2390   15.5399 C   0  0  0  0  0  0  0  0  0  0  0  0
    5.2511    4.5890   16.1577 C   0  0  0  0  0  0  0  0  0  0  0  0
    4.4255    4.9279   16.7835 H   0  0  0  0  0  0  0  0  0  0  0  0
    5.4138    5.3382   15.3862 H   0  0  0  0  0  0  0  0  0  0  0  0
    6.1423    4.5315   16.7798 H   0  0  0  0  0  0  0  0  0  0  0  0
    4.4664    2.2395   16.6160 C   0  0  0  0  0  0  0  0  0  0  0  0
    3.4834    2.5017   17.0061 H   0  0  0  0  0  0  0  0  0  0  0  0
    5.1666    2.2119   17.4455 H   0  0  0  0  0  0  0  0  0  0  0  0
    4.4088    1.2352   16.1726 H   0  0  0  0  0  0  0  0  0  0  0  0
    3.7444    3.3891   14.5549 C   0  0  0  0  0  0  0  0  0  0  0  0
    2.8353    3.6682   15.0878 H   0  0  0  0  0  0  0  0  0  0  0  0
    3.5651    2.4429   14.0421 H   0  0  0  0  0  0  0  0  0  0  0  0
    3.9420    4.1504   13.8070 H   0  0  0  0  0  0  0  0  0  0  0  0
  1  6  1  1  0  0  0
  1  3  1  0  0  0  0
  1  7  1  0  0  0  0
  2 19  1  0  0  0  0
  2  1  1  0  0  0  0
  2 16  1  0  0  0  0
  3 69  1  0  0  0  0
  3 53  1  0  0  0  0
  4 12  1  0  0  0  0
  5 49  1  0  0  0  0
  5 45  1  0  0  0  0
  7  4  1  6  0  0  0
  7  5  1  0  0  0  0
  8  4  1  0  0  0  0
  8  9  1  0  0  0  0
 10  8  1  0  0  0  0
 11  8  1  0  0  0  0
 12 15  1  0  0  0  0
 12 13  1  0  0  0  0
 14 12  1  0  0  0  0
 16 18  1  0  0  0  0
 16  4  1  0  0  0  0
 17 16  1  0  0  0  0
 19 28  1  0  0  0  0
 20 21  1  0  0  0  0
 20 19  1  0  0  0  0
 20 22  1  0  0  0  0
 23 20  1  0  0  0  0
 24 25  1  0  0  0  0
 24 19  1  0  0  0  0
 26 24  1  0  0  0  0
 27 24  1  0  0  0  0
 28 30  1  0  0  0  0
 28 29  1  0  0  0  0
 28 31  1  0  0  0  0
 32 37  1  0  0  0  0
 32  2  1  0  0  0  0
 33 35  1  0  0  0  0
 33 32  1  0  0  0  0
 34 33  1  0  0  0  0
 36 33  1  0  0  0  0
 37 39  1  0  0  0  0
 37 40  1  0  0  0  0
 38 37  1  0  0  0  0
 41 32  1  0  0  0  0
 41 44  1  0  0  0  0
 42 41  1  0  0  0  0
 43 41  1  0  0  0  0
 45 48  1  0  0  0  0
 45 47  1  0  0  0  0
 46 45  1  0  0  0  0
 49 50  1  0  0  0  0
 49 51  1  0  0  0  0
 52 49  1  0  0  0  0
 53  5  1  0  0  0  0
 53 54  1  0  0  0  0
 55 53  1  0  0  0  0
 56 61  1  0  0  0  0
 56  3  1  0  0  0  0
 57 59  1  0  0  0  0
 57 56  1  0  0  0  0
 58 57  1  0  0  0  0
 60 57  1  0  0  0  0
 61 64  1  0  0  0  0
 61 63  1  0  0  0  0
 62 61  1  0  0  0  0
 65 68  1  0  0  0  0
 65 56  1  0  0  0  0
 66 65  1  0  0  0  0
 67 65  1  0  0  0  0
 69 70  1  0  0  0  0
 69 74  1  0  0  0  0
 70 73  1  0  0  0  0
 70 71  1  0  0  0  0
 72 70  1  0  0  0  0
 74 75  1  0  0  0  0
 74 76  1  0  0  0  0
 77 74  1  0  0  0  0
 78 79  1  0  0  0  0
 78 69  1  0  0  0  0
 80 78  1  0  0  0  0
 81 78  1  0  0  0  0
M  END
$$$$
