CSD_code = ADIYOD | q = 0 | S = 0 | Stoichiometry = C12H36Cl2O12P4Ru | MND = 6
 OpenBabel04212201593D

 67 66  0  0  0  0  0  0  0  0999 V2000
   13.7631   15.4694   14.7265 Ru  0  0  0  0  0  0  0  0  0  0  0  0
   15.4464   15.7775   16.3797 Cl  0  0  0  0  0  0  0  0  0  0  0  0
   12.0808   15.1583   13.0731 Cl  0  0  0  0  0  0  0  0  0  0  0  0
   12.3906   14.4828   16.2469 P   0  0  0  0  0  4  0  0  0  0  0  0
   14.6773   13.4456   14.2364 P   0  0  0  0  0  4  0  0  0  0  0  0
   15.0756   16.4445   13.1458 P   0  0  0  0  0  4  0  0  0  0  0  0
   12.9116   17.5047   15.2760 P   0  0  0  0  0  4  0  0  0  0  0  0
   10.8448   14.8219   16.5679 O   0  0  0  0  0  0  0  0  0  0  0  0
   12.8110   14.1304   17.7497 O   0  0  0  0  0  0  0  0  0  0  0  0
   12.3248   12.9702   15.6751 O   0  0  0  0  0  0  0  0  0  0  0  0
   15.0677   12.2518   15.2509 O   0  0  0  0  0  0  0  0  0  0  0  0
   14.2012   12.5065   13.0315 O   0  0  0  0  0  0  0  0  0  0  0  0
   16.1070   13.8877   13.6204 O   0  0  0  0  0  0  0  0  0  0  0  0
   16.4880   17.1341   13.4445 O   0  0  0  0  0  0  0  0  0  0  0  0
   15.4535   15.8899   11.6771 O   0  0  0  0  0  0  0  0  0  0  0  0
   14.2355   17.7903   12.8260 O   0  0  0  0  0  0  0  0  0  0  0  0
   13.6909   18.9125   15.4084 O   0  0  0  0  0  0  0  0  0  0  0  0
   11.5542   18.1083   14.6815 O   0  0  0  0  0  0  0  0  0  0  0  0
   12.3894   17.2296   16.7830 O   0  0  0  0  0  0  0  0  0  0  0  0
    9.9269   15.2576   15.5770 C   0  0  0  0  0  0  0  0  0  0  0  0
    8.9426   15.2374   16.0463 H   0  0  0  0  0  0  0  0  0  0  0  0
    9.9407   14.5996   14.7070 H   0  0  0  0  0  0  0  0  0  0  0  0
   10.1654   16.2716   15.2548 H   0  0  0  0  0  0  0  0  0  0  0  0
   13.0724   15.0883   18.7632 C   0  0  0  0  0  0  0  0  0  0  0  0
   13.3397   14.5163   19.6522 H   0  0  0  0  0  0  0  0  0  0  0  0
   12.1843   15.6887   18.9571 H   0  0  0  0  0  0  0  0  0  0  0  0
   13.9039   15.7318   18.4725 H   0  0  0  0  0  0  0  0  0  0  0  0
   11.5717   11.9571   16.3348 C   0  0  0  0  0  0  0  0  0  0  0  0
   10.9740   11.4379   15.5838 H   0  0  0  0  0  0  0  0  0  0  0  0
   10.9171   12.3951   17.0890 H   0  0  0  0  0  0  0  0  0  0  0  0
   12.2579   11.2563   16.8124 H   0  0  0  0  0  0  0  0  0  0  0  0
   15.5419   12.4815   16.5688 C   0  0  0  0  0  0  0  0  0  0  0  0
   15.8729   11.5127   16.9445 H   0  0  0  0  0  0  0  0  0  0  0  0
   14.7433   12.8728   17.1996 H   0  0  0  0  0  0  0  0  0  0  0  0
   16.3724   13.1889   16.5735 H   0  0  0  0  0  0  0  0  0  0  0  0
   12.9495   11.8415   12.9686 C   0  0  0  0  0  0  0  0  0  0  0  0
   12.9444   11.3050   12.0193 H   0  0  0  0  0  0  0  0  0  0  0  0
   12.1332   12.5648   12.9899 H   0  0  0  0  0  0  0  0  0  0  0  0
   12.8496   11.1398   13.7959 H   0  0  0  0  0  0  0  0  0  0  0  0
   17.0451   12.9250   13.1491 C   0  0  0  0  0  0  0  0  0  0  0  0
   18.0183   13.1596   13.5833 H   0  0  0  0  0  0  0  0  0  0  0  0
   17.1000   12.9851   12.0613 H   0  0  0  0  0  0  0  0  0  0  0  0
   16.7432   11.9192   13.4423 H   0  0  0  0  0  0  0  0  0  0  0  0
   17.6604   16.4402   13.8411 C   0  0  0  0  0  0  0  0  0  0  0  0
   18.4297   17.2026   13.9670 H   0  0  0  0  0  0  0  0  0  0  0  0
   17.9601   15.7291   13.0721 H   0  0  0  0  0  0  0  0  0  0  0  0
   17.4937   15.9220   14.7864 H   0  0  0  0  0  0  0  0  0  0  0  0
   14.5573   15.1238   10.8869 C   0  0  0  0  0  0  0  0  0  0  0  0
   15.0156   15.0442    9.9006 H   0  0  0  0  0  0  0  0  0  0  0  0
   13.5833   15.6090   10.8095 H   0  0  0  0  0  0  0  0  0  0  0  0
   14.4224   14.1308   11.3164 H   0  0  0  0  0  0  0  0  0  0  0  0
   14.6969   18.7480   11.8781 C   0  0  0  0  0  0  0  0  0  0  0  0
   13.8659   18.9958   11.2158 H   0  0  0  0  0  0  0  0  0  0  0  0
   15.5249   18.3432   11.2954 H   0  0  0  0  0  0  0  0  0  0  0  0
   15.0288   19.6421   12.4075 H   0  0  0  0  0  0  0  0  0  0  0  0
   15.0287   19.0156   15.8712 C   0  0  0  0  0  0  0  0  0  0  0  0
   15.2181   20.0800   16.0148 H   0  0  0  0  0  0  0  0  0  0  0  0
   15.7208   18.6102   15.1327 H   0  0  0  0  0  0  0  0  0  0  0  0
   15.1650   18.4805   16.8121 H   0  0  0  0  0  0  0  0  0  0  0  0
   11.3659   18.5054   13.3324 C   0  0  0  0  0  0  0  0  0  0  0  0
   10.3359   18.8575   13.2666 H   0  0  0  0  0  0  0  0  0  0  0  0
   11.5110   17.6568   12.6626 H   0  0  0  0  0  0  0  0  0  0  0  0
   12.0537   19.3092   13.0727 H   0  0  0  0  0  0  0  0  0  0  0  0
   11.7498   18.2476   17.5467 C   0  0  0  0  0  0  0  0  0  0  0  0
   12.2059   18.2631   18.5378 H   0  0  0  0  0  0  0  0  0  0  0  0
   10.6871   18.0160   17.6307 H   0  0  0  0  0  0  0  0  0  0  0  0
   11.8725   19.2201   17.0689 H   0  0  0  0  0  0  0  0  0  0  0  0
  1  7  1  0  0  0  0
  1  4  1  0  0  0  0
  1  2  1  0  0  0  0
  3  1  1  0  0  0  0
  4  8  1  0  0  0  0
  4  9  1  0  0  0  0
  5  1  1  0  0  0  0
  5 11  1  0  0  0  0
  6 14  1  0  0  0  0
  6  1  1  0  0  0  0
  7 17  1  0  0  0  0
  7 19  1  0  0  0  0
  9 24  1  0  0  0  0
 10  4  1  0  0  0  0
 10 28  1  0  0  0  0
 11 32  1  0  0  0  0
 12  5  1  0  0  0  0
 13  5  1  0  0  0  0
 14 44  1  0  0  0  0
 15  6  1  0  0  0  0
 16  6  1  0  0  0  0
 17 56  1  0  0  0  0
 18  7  1  0  0  0  0
 19 64  1  0  0  0  0
 20 21  1  0  0  0  0
 20  8  1  0  0  0  0
 22 20  1  0  0  0  0
 23 20  1  0  0  0  0
 24 26  1  0  0  0  0
 24 25  1  0  0  0  0
 27 24  1  0  0  0  0
 28 31  1  0  0  0  0
 28 30  1  0  0  0  0
 29 28  1  0  0  0  0
 32 35  1  0  0  0  0
 32 33  1  0  0  0  0
 32 34  1  0  0  0  0
 36 38  1  0  0  0  0
 36 12  1  0  0  0  0
 36 39  1  0  0  0  0
 37 36  1  0  0  0  0
 40 43  1  0  0  0  0
 40 41  1  0  0  0  0
 40 13  1  0  0  0  0
 42 40  1  0  0  0  0
 44 45  1  0  0  0  0
 44 47  1  0  0  0  0
 46 44  1  0  0  0  0
 48 51  1  0  0  0  0
 48 15  1  0  0  0  0
 49 48  1  0  0  0  0
 50 48  1  0  0  0  0
 52 55  1  0  0  0  0
 52 16  1  0  0  0  0
 53 52  1  0  0  0  0
 54 52  1  0  0  0  0
 56 57  1  0  0  0  0
 56 59  1  0  0  0  0
 58 56  1  0  0  0  0
 60 18  1  0  0  0  0
 61 60  1  0  0  0  0
 62 60  1  0  0  0  0
 63 60  1  0  0  0  0
 64 66  1  0  0  0  0
 64 65  1  0  0  0  0
 67 64  1  0  0  0  0
M  END
$$$$
