CSD_code = ADOKIO | q = 0 | S = 0 | Stoichiometry = C14H18Br2HgN2 | MND = 4
 OpenBabel04212201593D

 37 38  0  0  0  0  0  0  0  0999 V2000
    1.7337    3.4059    3.2090 Hg  0  0  0  0  0  0  0  0  0  0  0  0
   -0.1947    4.8397    3.6826 Br  0  0  0  0  0  0  0  0  0  0  0  0
    4.1105    2.8404    3.0457 Br  0  0  0  0  0  0  0  0  0  0  0  0
    0.9227    1.3274    4.2757 N   0  0  0  0  0  0  0  0  0  0  0  0
    1.7271    0.2805    4.4339 C   0  0  0  0  0  3  0  0  0  0  0  0
    2.7502    0.4043    4.1034 H   0  0  0  0  0  0  0  0  0  0  0  0
    1.3128   -0.9206    4.9951 C   0  0  0  0  0  0  0  0  0  0  0  0
   -0.0121   -1.0137    5.4025 C   0  0  0  0  0  0  0  0  0  0  0  0
   -0.3775   -1.9297    5.8464 H   0  0  0  0  0  0  0  0  0  0  0  0
   -0.8673    0.0695    5.2436 C   0  0  0  0  0  0  0  0  0  0  0  0
   -0.3423    1.2208    4.6715 C   0  0  0  0  0  0  0  0  0  0  0  0
   -0.9660    2.0941    4.5316 H   0  0  0  0  0  0  0  0  0  0  0  0
    2.2674   -2.0565    5.1725 C   0  0  0  0  0  0  0  0  0  0  0  0
    2.6295   -2.0762    6.2004 H   0  0  0  0  0  0  0  0  0  0  0  0
    3.1246   -1.9482    4.5136 H   0  0  0  0  0  0  0  0  0  0  0  0
    1.7772   -3.0067    4.9718 H   0  0  0  0  0  0  0  0  0  0  0  0
   -2.3025    0.0009    5.6545 C   0  0  0  0  0  0  0  0  0  0  0  0
   -2.8816   -0.5198    4.8916 H   0  0  0  0  0  0  0  0  0  0  0  0
   -2.7172    0.9980    5.7755 H   0  0  0  0  0  0  0  0  0  0  0  0
   -2.4092   -0.5469    6.5881 H   0  0  0  0  0  0  0  0  0  0  0  0
    0.9764    2.4746    1.0439 N   0  0  0  0  0  0  0  0  0  0  0  0
    1.8025    1.7662    0.2799 C   0  0  0  0  0  3  0  0  0  0  0  0
    2.8110    1.6384    0.6510 H   0  0  0  0  0  0  0  0  0  0  0  0
    1.4277    1.2111   -0.9366 C   0  0  0  0  0  0  0  0  0  0  0  0
    0.1193    1.4147   -1.3571 C   0  0  0  0  0  0  0  0  0  0  0  0
   -0.2153    1.0026   -2.2994 H   0  0  0  0  0  0  0  0  0  0  0  0
   -0.7587    2.1502   -0.5706 C   0  0  0  0  0  0  0  0  0  0  0  0
   -0.2727    2.6591    0.6264 C   0  0  0  0  0  0  0  0  0  0  0  0
   -0.9148    3.2438    1.2721 H   0  0  0  0  0  0  0  0  0  0  0  0
    2.4020    0.4402   -1.7671 C   0  0  0  0  0  0  0  0  0  0  0  0
    1.9626   -0.4979   -2.1005 H   0  0  0  0  0  0  0  0  0  0  0  0
    3.3080    0.2301   -1.2056 H   0  0  0  0  0  0  0  0  0  0  0  0
    2.6713    1.0156   -2.6524 H   0  0  0  0  0  0  0  0  0  0  0  0
   -2.1738    2.3820   -0.9919 C   0  0  0  0  0  0  0  0  0  0  0  0
   -2.2086    2.7676   -2.0092 H   0  0  0  0  0  0  0  0  0  0  0  0
   -2.6636    3.0897   -0.3289 H   0  0  0  0  0  0  0  0  0  0  0  0
   -2.7288    1.4445   -0.9718 H   0  0  0  0  0  0  0  0  0  0  0  0
  1  2  1  0  0  0  0
  1  4  1  0  0  0  0
  3  1  1  0  0  0  0
  4  5  1  0  0  0  0
  4 11  1  0  0  0  0
  5  7  1  0  0  0  0
  6  5  1  0  0  0  0
  7 13  1  0  0  0  0
  7  8  2  0  0  0  0
  8  9  1  0  0  0  0
 10  8  1  0  0  0  0
 10 17  1  0  0  0  0
 11 10  2  0  0  0  0
 12 11  1  0  0  0  0
 13 14  1  0  0  0  0
 15 13  1  0  0  0  0
 16 13  1  0  0  0  0
 17 19  1  0  0  0  0
 17 20  1  0  0  0  0
 18 17  1  0  0  0  0
 21  1  1  0  0  0  0
 22 23  1  0  0  0  0
 22 21  1  0  0  0  0
 24 22  1  0  0  0  0
 25 24  2  0  0  0  0
 25 27  1  0  0  0  0
 26 25  1  0  0  0  0
 27 28  2  0  0  0  0
 28 21  1  0  0  0  0
 28 29  1  0  0  0  0
 30 32  1  0  0  0  0
 30 24  1  0  0  0  0
 31 30  1  0  0  0  0
 33 30  1  0  0  0  0
 34 37  1  0  0  0  0
 34 27  1  0  0  0  0
 34 36  1  0  0  0  0
 35 34  1  0  0  0  0
M  END
$$$$
