CSD_code = ADOLEL | q = 0 | S = 0 | Stoichiometry = C14H18HgI2N2 | MND = 4
 OpenBabel04212201593D

 37 36  0  0  0  0  0  0  0  0999 V2000
    1.6373    3.5263    3.2086 Hg  0  0  0  0  0  0  0  0  0  0  0  0
   -0.3739    5.1330    3.7049 I   0  0  0  0  0  0  0  0  0  0  0  0
    4.2221    3.0958    3.1389 I   0  0  0  0  0  0  0  0  0  0  0  0
    0.8134    1.3891    4.2353 N   0  0  0  0  0  0  0  0  0  0  0  0
    1.6322    0.3573    4.4111 C   0  0  0  0  0  0  0  0  0  0  0  0
    2.6512    0.4852    4.0701 H   0  0  0  0  0  0  0  0  0  0  0  0
    1.2421   -0.8362    5.0042 C   0  0  0  0  0  0  0  0  0  0  0  0
   -0.0774   -0.9391    5.4260 C   0  0  0  0  0  0  0  0  0  0  0  0
   -0.4243   -1.8482    5.8980 H   0  0  0  0  0  0  0  0  0  0  0  0
   -0.9505    0.1260    5.2454 C   0  0  0  0  0  0  0  0  0  0  0  0
   -0.4464    1.2701    4.6408 C   0  0  0  0  0  0  0  0  0  0  0  0
   -1.0879    2.1273    4.4838 H   0  0  0  0  0  0  0  0  0  0  0  0
    2.2162   -1.9519    5.2030 C   0  0  0  0  0  0  0  0  0  0  0  0
    2.5714   -1.9508    6.2336 H   0  0  0  0  0  0  0  0  0  0  0  0
    3.0761   -1.8379    4.5483 H   0  0  0  0  0  0  0  0  0  0  0  0
    1.7448   -2.9136    5.0125 H   0  0  0  0  0  0  0  0  0  0  0  0
   -2.3812    0.0470    5.6702 C   0  0  0  0  0  0  0  0  0  0  0  0
   -2.9635   -0.4813    4.9149 H   0  0  0  0  0  0  0  0  0  0  0  0
   -2.8041    1.0407    5.7921 H   0  0  0  0  0  0  0  0  0  0  0  0
   -2.4739   -0.4982    6.6068 H   0  0  0  0  0  0  0  0  0  0  0  0
    0.9099    2.4850    1.0460 N   0  0  0  0  0  0  0  0  0  0  0  0
    1.7490    1.7485    0.3255 C   0  0  0  0  0  0  0  0  0  0  0  0
    2.7482    1.6267    0.7227 H   0  0  0  0  0  0  0  0  0  0  0  0
    1.4030    1.1558   -0.8817 C   0  0  0  0  0  0  0  0  0  0  0  0
    0.1074    1.3530   -1.3424 C   0  0  0  0  0  0  0  0  0  0  0  0
   -0.2050    0.9139   -2.2800 H   0  0  0  0  0  0  0  0  0  0  0  0
   -0.7860    2.1164   -0.6015 C   0  0  0  0  0  0  0  0  0  0  0  0
   -0.3264    2.6592    0.5910 C   0  0  0  0  0  0  0  0  0  0  0  0
   -0.9847    3.2645    1.2002 H   0  0  0  0  0  0  0  0  0  0  0  0
    2.3939    0.3535   -1.6613 C   0  0  0  0  0  0  0  0  0  0  0  0
    1.9564   -0.5912   -1.9787 H   0  0  0  0  0  0  0  0  0  0  0  0
    3.2830    0.1533   -1.0696 H   0  0  0  0  0  0  0  0  0  0  0  0
    2.6921    0.9000   -2.5557 H   0  0  0  0  0  0  0  0  0  0  0  0
   -2.1885    2.3438   -1.0650 C   0  0  0  0  0  0  0  0  0  0  0  0
   -2.1946    2.7070   -2.0911 H   0  0  0  0  0  0  0  0  0  0  0  0
   -2.6933    3.0682   -0.4317 H   0  0  0  0  0  0  0  0  0  0  0  0
   -2.7480    1.4091   -1.0392 H   0  0  0  0  0  0  0  0  0  0  0  0
  1  2  1  0  0  0  0
  3  1  1  0  0  0  0
  4  5  2  0  0  0  0
  4 11  1  0  0  0  0
  5  7  1  0  0  0  0
  6  5  1  0  0  0  0
  7 13  1  0  0  0  0
  7  8  2  0  0  0  0
  8  9  1  0  0  0  0
 10  8  1  0  0  0  0
 10 17  1  0  0  0  0
 11 10  2  0  0  0  0
 12 11  1  0  0  0  0
 13 14  1  0  0  0  0
 15 13  1  0  0  0  0
 16 13  1  0  0  0  0
 17 19  1  0  0  0  0
 17 20  1  0  0  0  0
 18 17  1  0  0  0  0
 22 23  1  0  0  0  0
 22 21  2  0  0  0  0
 24 22  1  0  0  0  0
 25 24  2  0  0  0  0
 25 27  1  0  0  0  0
 26 25  1  0  0  0  0
 27 28  2  0  0  0  0
 28 21  1  0  0  0  0
 28 29  1  0  0  0  0
 30 32  1  0  0  0  0
 30 24  1  0  0  0  0
 31 30  1  0  0  0  0
 33 30  1  0  0  0  0
 34 37  1  0  0  0  0
 34 27  1  0  0  0  0
 34 36  1  0  0  0  0
 35 34  1  0  0  0  0
M  END
$$$$
