CSD_code = ADOLUA | q = 0 | S = 0 | Stoichiometry = C18H15AuBrPS | MND = 2
 OpenBabel04212201593D

 37 40  0  0  0  0  0  0  0  0999 V2000
    2.2763    1.4323    0.6945 Au  0  0  0  0  0  0  0  0  0  0  0  0
    3.8353    2.3718    2.2009 Br  0  0  0  0  0  0  0  0  0  0  0  0
    2.1117    2.0282   -1.9909 P   0  0  0  0  0  0  0  0  0  0  0  0
    0.9408    0.7035   -1.0820 S   0  0  0  0  0  0  0  0  0  0  0  0
    3.8815    1.6220   -2.0595 C   0  0  0  0  0  0  0  0  0  0  0  0
    4.7910    2.5512   -2.5531 C   0  0  0  0  0  0  0  0  0  0  0  0
    4.4493    3.5216   -2.8847 H   0  0  0  0  0  0  0  0  0  0  0  0
    6.1337    2.2262   -2.6018 C   0  0  0  0  0  0  0  0  0  0  0  0
    6.8461    2.9510   -2.9663 H   0  0  0  0  0  0  0  0  0  0  0  0
    6.5649    0.9793   -2.1774 C   0  0  0  0  0  0  0  0  0  0  0  0
    7.6161    0.7362   -2.2067 H   0  0  0  0  0  0  0  0  0  0  0  0
    5.6527    0.0436   -1.7171 C   0  0  0  0  0  0  0  0  0  0  0  0
    5.9880   -0.9304   -1.3950 H   0  0  0  0  0  0  0  0  0  0  0  0
    4.3086    0.3616   -1.6593 C   0  0  0  0  0  0  0  0  0  0  0  0
    3.5863   -0.3602   -1.2989 H   0  0  0  0  0  0  0  0  0  0  0  0
    1.8862    3.7365   -1.4223 C   0  0  0  0  0  0  0  0  0  0  0  0
    2.8424    4.4234   -0.6835 C   0  0  0  0  0  0  0  0  0  0  0  0
    3.8045    3.9767   -0.4741 H   0  0  0  0  0  0  0  0  0  0  0  0
    2.5439    5.6850   -0.2008 C   0  0  0  0  0  0  0  0  0  0  0  0
    3.2806    6.2162    0.3816 H   0  0  0  0  0  0  0  0  0  0  0  0
    1.3027    6.2507   -0.4463 C   0  0  0  0  0  0  0  0  0  0  0  0
    1.0737    7.2314   -0.0576 H   0  0  0  0  0  0  0  0  0  0  0  0
    0.3494    5.5602   -1.1793 C   0  0  0  0  0  0  0  0  0  0  0  0
   -0.6194    5.9997   -1.3639 H   0  0  0  0  0  0  0  0  0  0  0  0
    0.6372    4.2996   -1.6670 C   0  0  0  0  0  0  0  0  0  0  0  0
   -0.0970    3.7376   -2.2320 H   0  0  0  0  0  0  0  0  0  0  0  0
    1.6346    2.0659   -3.7465 C   0  0  0  0  0  0  0  0  0  0  0  0
    1.8982    3.1881   -4.5253 C   0  0  0  0  0  0  0  0  0  0  0  0
    2.3383    4.0683   -4.0762 H   0  0  0  0  0  0  0  0  0  0  0  0
    1.5732    3.1786   -5.8684 C   0  0  0  0  0  0  0  0  0  0  0  0
    1.7696    4.0511   -6.4736 H   0  0  0  0  0  0  0  0  0  0  0  0
    0.9938    2.0543   -6.4361 C   0  0  0  0  0  0  0  0  0  0  0  0
    0.7395    2.0532   -7.4854 H   0  0  0  0  0  0  0  0  0  0  0  0
    0.7366    0.9356   -5.6611 C   0  0  0  0  0  0  0  0  0  0  0  0
    0.2830    0.0614   -6.1033 H   0  0  0  0  0  0  0  0  0  0  0  0
    1.0594    0.9373   -4.3161 C   0  0  0  0  0  0  0  0  0  0  0  0
    0.8540    0.0739   -3.6980 H   0  0  0  0  0  0  0  0  0  0  0  0
  1  2  1  0  0  0  0
  3 16  1  0  0  0  0
  3  4  1  0  0  0  0
  3  1  1  0  0  0  0
  4  1  1  0  0  0  0
  5  3  1  0  0  0  0
  5 14  1  0  0  0  0
  6  5  2  0  0  0  0
  7  6  1  0  0  0  0
  8  6  1  0  0  0  0
  8 10  2  0  0  0  0
  9  8  1  0  0  0  0
 10 12  1  0  0  0  0
 11 10  1  0  0  0  0
 12 14  2  0  0  0  0
 12 13  1  0  0  0  0
 14 15  1  0  0  0  0
 16 17  1  0  0  0  0
 17 18  1  0  0  0  0
 17 19  2  0  0  0  0
 19 20  1  0  0  0  0
 21 19  1  0  0  0  0
 21 22  1  0  0  0  0
 23 21  2  0  0  0  0
 24 23  1  0  0  0  0
 25 16  2  0  0  0  0
 25 23  1  0  0  0  0
 26 25  1  0  0  0  0
 27  3  1  0  0  0  0
 28 29  1  0  0  0  0
 28 27  2  0  0  0  0
 30 28  1  0  0  0  0
 31 30  1  0  0  0  0
 32 30  2  0  0  0  0
 32 34  1  0  0  0  0
 33 32  1  0  0  0  0
 34 36  2  0  0  0  0
 35 34  1  0  0  0  0
 36 27  1  0  0  0  0
 36 37  1  0  0  0  0
M  END
$$$$
