CSD_code = ADUFUD | q = 0 | S = 0 | Stoichiometry = C10H9Cl2N3OZn | MND = 4
 OpenBabel04212201593D

 26 28  0  0  1  0  0  0  0  0999 V2000
    5.9937    3.4646    4.7190 C   0  0  0  0  0  0  0  0  0  0  0  0
    5.6568    3.1321    3.7543 H   0  0  0  0  0  0  0  0  0  0  0  0
    7.2936    7.0645    6.3185 Zn  0  0  0  0  0  0  0  0  0  0  0  0
    7.2105    4.9763    6.0689 N   0  0  0  0  0  0  0  0  0  0  0  0
    7.6248    6.6843    4.1372 N   0  0  0  0  0  0  0  0  0  0  0  0
    6.8283    4.5866    4.8788 C   0  0  0  0  0  0  0  0  0  0  0  0
    7.0420    4.8385    8.3059 O   0  0  0  0  0  0  0  0  0  0  0  0
    7.2685    5.4507    3.7726 C   0  0  1  0  0  3  0  0  0  0  0  0
    5.5612    2.8489    5.8632 C   0  0  0  0  0  3  0  0  0  0  0  0
    4.8891    2.0016    5.8309 H   0  0  0  0  0  0  0  0  0  0  0  0
    8.0900    7.2245    1.8737 C   0  0  0  0  0  0  0  0  0  0  0  0
    8.4202    7.9568    1.1549 H   0  0  0  0  0  0  0  0  0  0  0  0
    7.7270    5.9468    1.4812 C   0  0  0  0  0  0  0  0  0  0  0  0
    7.7701    5.6554    0.4424 H   0  0  0  0  0  0  0  0  0  0  0  0
    8.8222    8.5655    6.6916 Cl  0  0  0  0  0  0  0  0  0  0  0  0
    5.0553    7.1048    6.2881 Cl  0  0  0  0  0  0  0  0  0  0  0  0
    5.4226    2.7036    8.2929 C   0  0  0  0  0  0  0  0  0  0  0  0
    4.9311    1.7556    8.0885 H   0  0  0  0  0  0  0  0  0  0  0  0
    4.7184    3.3992    8.7537 H   0  0  0  0  0  0  0  0  0  0  0  0
    6.2504    2.5633    8.9889 H   0  0  0  0  0  0  0  0  0  0  0  0
    7.3083    5.0408    2.4435 C   0  0  0  0  0  0  0  0  0  0  0  0
    7.0375    4.0340    2.1685 H   0  0  0  0  0  0  0  0  0  0  0  0
    5.9321    3.2756    7.0712 N   0  0  0  0  0  0  0  0  0  0  0  0
    6.7625    4.4080    7.2169 C   0  0  0  0  0  0  0  0  0  0  0  0
    8.0232    7.5474    3.2235 C   0  0  0  0  0  0  0  0  0  0  0  0
    8.3026    8.5248    3.5912 H   0  0  0  0  0  0  0  0  0  0  0  0
  1  6  2  0  0  0  0
  1  9  1  0  0  0  0
  2  1  1  0  0  0  0
  3 15  1  0  0  0  0
  4  3  1  0  0  0  0
  4 24  1  0  0  0  0
  5  3  1  0  0  0  0
  6  4  1  0  0  0  0
  8 21  1  6  0  0  0
  8  5  1  0  0  0  0
  8  6  1  0  0  0  0
  9 23  1  0  0  0  0
 10  9  1  0  0  0  0
 11 25  2  0  0  0  0
 12 11  1  0  0  0  0
 13 11  1  0  0  0  0
 13 21  2  0  0  0  0
 14 13  1  0  0  0  0
 16  3  1  0  0  0  0
 17 19  1  0  0  0  0
 17 20  1  0  0  0  0
 18 17  1  0  0  0  0
 22 21  1  0  0  0  0
 23 24  1  0  0  0  0
 23 17  1  0  0  0  0
 24  7  2  0  0  0  0
 25 26  1  0  0  0  0
 25  5  1  0  0  0  0
M  END
$$$$
