CSD_code = ADUGIS | q = 0 | S = 0 | Stoichiometry = C48H41ClN4OP2Pt | MND = 4
 OpenBabel04212201593D

 98105  0  0  0  0  0  0  0  0999 V2000
    9.0991    3.4534   15.8217 Pt  0  0  0  0  0  0  0  0  0  0  0  0
    7.0901    4.3920   16.3549 P   0  0  0  0  0  4  0  0  0  0  0  0
   10.4093    3.9050   17.6752 P   0  0  0  0  0  4  0  0  0  0  0  0
   10.9682    2.3037   15.0166 Cl  0  0  0  0  0  0  0  0  0  0  0  0
    5.2321    3.5906   14.4638 C   0  0  0  0  0  0  0  0  0  0  0  0
    5.3915    2.6026   14.8768 H   0  0  0  0  0  0  0  0  0  0  0  0
    6.1533    3.2966   17.4719 C   0  0  0  0  0  0  0  0  0  0  0  0
    6.1814    6.3965   18.1447 C   0  0  0  0  0  0  0  0  0  0  0  0
    5.3758    5.7337   18.4249 H   0  0  0  0  0  0  0  0  0  0  0  0
    7.8082    0.6795   14.6876 C   0  0  0  0  0  0  0  0  0  0  0  0
    8.2176    0.8980   15.6678 H   0  0  0  0  0  0  0  0  0  0  0  0
    4.3971    3.7643   13.3777 C   0  0  0  0  0  0  0  0  0  0  0  0
    3.9083    2.9091   12.9356 H   0  0  0  0  0  0  0  0  0  0  0  0
   10.0309    7.2170   14.2881 O   0  0  0  0  0  0  0  0  0  0  0  0
    7.2687    1.4986   12.4946 N   0  0  0  0  0  0  0  0  0  0  0  0
    8.2661    8.0955   17.4571 C   0  0  0  0  0  0  0  0  0  0  0  0
    9.0797    8.7561   17.1968 H   0  0  0  0  0  0  0  0  0  0  0  0
    7.7671    1.6942   13.7164 C   0  0  0  0  0  0  0  0  0  0  0  0
    7.3143    8.5002   18.3786 C   0  0  0  0  0  0  0  0  0  0  0  0
    7.3826    9.4775   18.8335 H   0  0  0  0  0  0  0  0  0  0  0  0
    4.7751    3.3945   17.6420 C   0  0  0  0  0  0  0  0  0  0  0  0
    4.2125    4.1251   17.0763 H   0  0  0  0  0  0  0  0  0  0  0  0
    6.2068    1.4735   19.0453 C   0  0  0  0  0  0  0  0  0  0  0  0
    6.7652    0.7217   19.5836 H   0  0  0  0  0  0  0  0  0  0  0  0
    8.6138    5.0095   13.7080 N   0  0  0  0  0  2  0  0  0  0  0  0
    8.1791    6.8434   16.8787 C   0  0  0  0  0  0  0  0  0  0  0  0
    8.9103    6.5071   16.1539 H   0  0  0  0  0  0  0  0  0  0  0  0
    4.1243    2.5428   18.5163 C   0  0  0  0  0  0  0  0  0  0  0  0
    3.0546    2.6222   18.6453 H   0  0  0  0  0  0  0  0  0  0  0  0
    6.8590    2.3236   18.1711 C   0  0  0  0  0  0  0  0  0  0  0  0
    7.9298    2.2344   18.0125 H   0  0  0  0  0  0  0  0  0  0  0  0
    5.8803    4.6868   15.0294 C   0  0  0  0  0  0  0  0  0  0  0  0
   12.0350    4.4663   17.0916 C   0  0  0  0  0  0  0  0  0  0  0  0
    5.6831    5.9548   14.4957 C   0  0  0  0  0  0  0  0  0  0  0  0
    6.1994    6.8040   14.9207 H   0  0  0  0  0  0  0  0  0  0  0  0
    4.2007    5.0309   12.8503 C   0  0  0  0  0  0  0  0  0  0  0  0
    3.5545    5.1647   11.9957 H   0  0  0  0  0  0  0  0  0  0  0  0
    7.1309    5.9932   17.2144 C   0  0  0  0  0  0  0  0  0  0  0  0
    9.9868    5.1854   18.9086 C   0  0  0  0  0  0  0  0  0  0  0  0
   10.7085    6.3656   19.0380 C   0  0  0  0  0  0  0  0  0  0  0  0
   11.5648    6.5443   18.4033 H   0  0  0  0  0  0  0  0  0  0  0  0
    8.4972    6.1067   12.8767 C   0  0  0  0  0  0  0  0  0  0  0  0
    7.3331   -0.5680   14.3547 C   0  0  0  0  0  0  0  0  0  0  0  0
    7.3534   -1.3737   15.0753 H   0  0  0  0  0  0  0  0  0  0  0  0
    8.8785    4.9729   19.7250 C   0  0  0  0  0  0  0  0  0  0  0  0
    8.3080    4.0593   19.6206 H   0  0  0  0  0  0  0  0  0  0  0  0
    9.0649    8.4051   12.3976 C   0  0  0  0  0  0  0  0  0  0  0  0
    9.6055    9.3117   12.6216 H   0  0  0  0  0  0  0  0  0  0  0  0
    9.2133    7.2808   13.1949 C   0  0  0  0  0  0  0  0  0  0  0  0
    7.6634    6.1077   11.7571 C   0  0  0  0  0  0  0  0  0  0  0  0
    7.1305    5.1974   11.5286 H   0  0  0  0  0  0  0  0  0  0  0  0
   10.3393    7.3065   19.9831 C   0  0  0  0  0  0  0  0  0  0  0  0
   10.9107    8.2179   20.0834 H   0  0  0  0  0  0  0  0  0  0  0  0
    8.5129    5.9134   20.6672 C   0  0  0  0  0  0  0  0  0  0  0  0
    7.6554    5.7362   21.2997 H   0  0  0  0  0  0  0  0  0  0  0  0
    4.8396    6.1234   13.4124 C   0  0  0  0  0  0  0  0  0  0  0  0
    4.6940    7.1098   12.9975 H   0  0  0  0  0  0  0  0  0  0  0  0
   10.7804    2.4948   18.7678 C   0  0  0  0  0  0  0  0  0  0  0  0
    6.8198    0.2951   12.1964 C   0  0  0  0  0  0  0  0  0  0  0  0
    6.4317    0.1887   11.1909 H   0  0  0  0  0  0  0  0  0  0  0  0
    6.2773    7.6495   18.7230 C   0  0  0  0  0  0  0  0  0  0  0  0
    5.5393    7.9634   19.4470 H   0  0  0  0  0  0  0  0  0  0  0  0
    4.8375    1.5866   19.2221 C   0  0  0  0  0  0  0  0  0  0  0  0
    4.3230    0.9235   19.9018 H   0  0  0  0  0  0  0  0  0  0  0  0
    7.5260    7.2342   10.9725 C   0  0  0  0  0  0  0  0  0  0  0  0
    6.8752    7.2165   10.1109 H   0  0  0  0  0  0  0  0  0  0  0  0
   13.2203    4.2195   17.7720 C   0  0  0  0  0  0  0  0  0  0  0  0
   13.2104    3.6558   18.6946 H   0  0  0  0  0  0  0  0  0  0  0  0
    6.8247   -0.7751   13.0762 C   0  0  0  0  0  0  0  0  0  0  0  0
    6.4456   -1.7392   12.7757 H   0  0  0  0  0  0  0  0  0  0  0  0
   10.6759    1.2094   18.2456 C   0  0  0  0  0  0  0  0  0  0  0  0
   10.3956    1.0832   17.2084 H   0  0  0  0  0  0  0  0  0  0  0  0
   12.0512    5.1731   15.8921 C   0  0  0  0  0  0  0  0  0  0  0  0
   11.1222    5.3322   15.3525 H   0  0  0  0  0  0  0  0  0  0  0  0
   10.8041    8.3417   14.6151 C   0  0  0  0  0  0  0  0  0  0  0  0
   11.3736    8.0626   15.5014 H   0  0  0  0  0  0  0  0  0  0  0  0
   10.1776    9.2112   14.8442 H   0  0  0  0  0  0  0  0  0  0  0  0
   11.4982    8.6033   13.8093 H   0  0  0  0  0  0  0  0  0  0  0  0
    9.2451    7.0826   20.8002 C   0  0  0  0  0  0  0  0  0  0  0  0
    8.9609    7.8173   21.5388 H   0  0  0  0  0  0  0  0  0  0  0  0
   13.2497    5.6338   15.3812 C   0  0  0  0  0  0  0  0  0  0  0  0
   13.2645    6.1693   14.4433 H   0  0  0  0  0  0  0  0  0  0  0  0
   14.4166    4.6839   17.2529 C   0  0  0  0  0  0  0  0  0  0  0  0
   15.3408    4.4853   17.7762 H   0  0  0  0  0  0  0  0  0  0  0  0
   11.1705    2.6669   20.0935 C   0  0  0  0  0  0  0  0  0  0  0  0
   11.2512    3.6613   20.5107 H   0  0  0  0  0  0  0  0  0  0  0  0
   14.4326    5.3902   16.0616 C   0  0  0  0  0  0  0  0  0  0  0  0
   15.3710    5.7410   15.6568 H   0  0  0  0  0  0  0  0  0  0  0  0
   11.3433    0.2859   20.3551 C   0  0  0  0  0  0  0  0  0  0  0  0
   11.5631   -0.5711   20.9748 H   0  0  0  0  0  0  0  0  0  0  0  0
   11.4508    1.5641   20.8796 C   0  0  0  0  0  0  0  0  0  0  0  0
   11.7563    1.7031   21.9068 H   0  0  0  0  0  0  0  0  0  0  0  0
   10.9572    0.1104   19.0366 C   0  0  0  0  0  0  0  0  0  0  0  0
   10.8771   -0.8841   18.6231 H   0  0  0  0  0  0  0  0  0  0  0  0
    8.2239    8.3838   11.2954 C   0  0  0  0  0  0  0  0  0  0  0  0
    8.1231    9.2731   10.6907 H   0  0  0  0  0  0  0  0  0  0  0  0
    8.1740    3.9041   13.2283 N   0  0  0  0  0  2  0  0  0  0  0  0
    8.2191    2.9349   14.0598 N   0  0  0  0  0  0  0  0  0  0  0  0
  1  2  1  0  0  0  0
  1  3  1  0  0  0  0
  2 38  1  0  0  0  0
  2  7  1  0  0  0  0
  3 58  1  0  0  0  0
  3 39  1  0  0  0  0
  4  1  1  0  0  0  0
  5  6  1  0  0  0  0
  5 32  1  0  0  0  0
  7 21  2  0  0  0  0
  7 30  1  0  0  0  0
  8  9  1  0  0  0  0
  8 61  1  0  0  0  0
 10 11  1  0  0  0  0
 12  5  2  0  0  0  0
 13 12  1  0  0  0  0
 14 75  1  0  0  0  0
 15 18  1  0  0  0  0
 16 19  1  0  0  0  0
 17 16  1  0  0  0  0
 18 98  1  0  0  0  0
 18 10  2  0  0  0  0
 19 61  2  0  0  0  0
 19 20  1  0  0  0  0
 21 28  1  0  0  0  0
 22 21  1  0  0  0  0
 23 63  1  0  0  0  0
 23 24  1  0  0  0  0
 26 38  1  0  0  0  0
 26 16  2  0  0  0  0
 27 26  1  0  0  0  0
 28 29  1  0  0  0  0
 28 63  2  0  0  0  0
 30 23  2  0  0  0  0
 31 30  1  0  0  0  0
 32  2  1  0  0  0  0
 33  3  1  0  0  0  0
 33 67  1  0  0  0  0
 34 35  1  0  0  0  0
 34 32  2  0  0  0  0
 36 12  1  0  0  0  0
 36 56  2  0  0  0  0
 37 36  1  0  0  0  0
 38  8  2  0  0  0  0
 39 40  2  0  0  0  0
 39 45  1  0  0  0  0
 40 52  1  0  0  0  0
 41 40  1  0  0  0  0
 42 49  1  0  0  0  0
 42 25  1  0  0  0  0
 43 10  1  0  0  0  0
 43 44  1  0  0  0  0
 45 54  2  0  0  0  0
 46 45  1  0  0  0  0
 47 48  1  0  0  0  0
 47 49  2  0  0  0  0
 49 14  1  0  0  0  0
 50 42  2  0  0  0  0
 51 50  1  0  0  0  0
 52 53  1  0  0  0  0
 52 79  2  0  0  0  0
 54 79  1  0  0  0  0
 54 55  1  0  0  0  0
 56 34  1  0  0  0  0
 57 56  1  0  0  0  0
 58 85  1  0  0  0  0
 59 15  2  0  0  0  0
 59 69  1  0  0  0  0
 60 59  1  0  0  0  0
 61 62  1  0  0  0  0
 63 64  1  0  0  0  0
 65 95  2  0  0  0  0
 65 50  1  0  0  0  0
 66 65  1  0  0  0  0
 67 68  1  0  0  0  0
 69 43  2  0  0  0  0
 70 69  1  0  0  0  0
 71 58  2  0  0  0  0
 71 93  1  0  0  0  0
 72 71  1  0  0  0  0
 73 33  2  0  0  0  0
 74 73  1  0  0  0  0
 75 77  1  0  0  0  0
 75 76  1  0  0  0  0
 78 75  1  0  0  0  0
 79 80  1  0  0  0  0
 81 73  1  0  0  0  0
 81 87  2  0  0  0  0
 82 81  1  0  0  0  0
 83 67  2  0  0  0  0
 83 84  1  0  0  0  0
 85 86  1  0  0  0  0
 85 91  2  0  0  0  0
 87 83  1  0  0  0  0
 88 87  1  0  0  0  0
 89 91  1  0  0  0  0
 89 90  1  0  0  0  0
 91 92  1  0  0  0  0
 93 89  2  0  0  0  0
 94 93  1  0  0  0  0
 95 47  1  0  0  0  0
 96 95  1  0  0  0  0
 97 25  1  0  0  0  0
 97 98  1  0  0  0  0
 98  1  1  0  0  0  0
M  END
$$$$
