CSD_code = ADUGOY | q = 0 | S = 0 | Stoichiometry = C30H27ClF3N2PPdS2 | MND = 4
 OpenBabel04212201593D

 67 72  0  0  1  0  0  0  0  0999 V2000
    2.2719    9.8332    3.4687 Pd  0  0  1  0  0  0  0  0  0  0  0  0
    1.6231   11.9556    3.9034 Cl  0  0  0  0  0  0  0  0  0  0  0  0
    1.9789    9.9200    1.1839 S   0  0  0  0  0  0  0  0  0  0  0  0
    2.9346    7.7240    2.8205 S   0  0  0  0  0  0  0  0  0  0  0  0
    2.5639    9.7709    5.6799 P   0  0  0  0  0  4  0  0  0  0  0  0
    5.0611    5.0086    8.1371 F   0  0  0  0  0  0  0  0  0  0  0  0
    6.0458   14.3683    6.8963 F   0  0  0  0  0  0  0  0  0  0  0  0
   -2.7765    9.6138    8.1881 F   0  0  0  0  0  0  0  0  0  0  0  0
    3.2235    7.7979    0.1797 N   0  0  0  0  0  0  0  0  0  0  0  0
    2.5624    6.0030   -1.8851 N   0  0  0  0  0  0  0  0  0  0  0  0
    3.3758    8.3588    6.4966 C   0  0  0  0  0  0  0  0  0  0  0  0
    2.8071    7.1068    6.2680 C   0  0  0  0  0  0  0  0  0  0  0  0
    1.9248    7.0368    5.6430 H   0  0  0  0  0  0  0  0  0  0  0  0
    3.3666    5.9723    6.8187 C   0  0  0  0  0  0  0  0  0  0  0  0
    2.9439    4.9939    6.6537 H   0  0  0  0  0  0  0  0  0  0  0  0
    4.5066    6.1089    7.5947 C   0  0  0  0  0  0  0  0  0  0  0  0
    5.0954    7.3389    7.8283 C   0  0  0  0  0  0  0  0  0  0  0  0
    5.9859    7.3998    8.4341 H   0  0  0  0  0  0  0  0  0  0  0  0
    4.5247    8.4692    7.2707 C   0  0  0  0  0  0  0  0  0  0  0  0
    4.9734    9.4380    7.4373 H   0  0  0  0  0  0  0  0  0  0  0  0
    3.5648   11.1969    6.1807 C   0  0  0  0  0  0  0  0  0  0  0  0
    4.5877   11.5007    5.2801 C   0  0  0  0  0  0  0  0  0  0  0  0
    4.6906   10.8966    4.3718 H   0  0  0  0  0  0  0  0  0  0  0  0
    5.4324   12.5656    5.5146 C   0  0  0  0  0  0  0  0  0  0  0  0
    6.2260   12.8250    4.8320 H   0  0  0  0  0  0  0  0  0  0  0  0
    5.2275   13.3274    6.6548 C   0  0  0  0  0  0  0  0  0  0  0  0
    4.2069   13.0585    7.5488 C   0  0  0  0  0  0  0  0  0  0  0  0
    4.0715   13.6919    8.4113 H   0  0  0  0  0  0  0  0  0  0  0  0
    3.3695   11.9827    7.3073 C   0  0  0  0  0  0  0  0  0  0  0  0
    2.5544   11.7743    7.9829 H   0  0  0  0  0  0  0  0  0  0  0  0
    0.9504    9.7697    6.5092 C   0  0  0  0  0  0  0  0  0  0  0  0
    0.8144    9.7064    7.8932 C   0  0  0  0  0  0  0  0  0  0  0  0
    1.6932    9.6749    8.5215 H   0  0  0  0  0  0  0  0  0  0  0  0
   -0.4439    9.6615    8.4633 C   0  0  0  0  0  0  0  0  0  0  0  0
   -0.5776    9.6209    9.5329 H   0  0  0  0  0  0  0  0  0  0  0  0
   -1.5526    9.6606    7.6327 C   0  0  0  0  0  0  0  0  0  0  0  0
   -1.4417    9.6854    6.2525 C   0  0  0  0  0  0  0  0  0  0  0  0
   -2.3313    9.6659    5.6430 H   0  0  0  0  0  0  0  0  0  0  0  0
   -0.1792    9.7359    5.6929 C   0  0  0  0  0  0  0  0  0  0  0  0
   -0.0566    9.7565    4.6028 H   0  0  0  0  0  0  0  0  0  0  0  0
    2.7625    8.4158    1.2681 C   0  0  1  0  0  3  0  0  0  0  0  0
    3.7425    6.4499    0.1919 C   0  0  0  0  0  0  0  0  0  0  0  0
    3.8933    6.1242    1.2216 H   0  0  0  0  0  0  0  0  0  0  0  0
    4.6994    6.4432   -0.3381 H   0  0  0  0  0  0  0  0  0  0  0  0
    2.7574    5.5294   -0.5276 C   0  0  0  0  0  0  0  0  0  0  0  0
    3.1637    4.5172   -0.5643 H   0  0  0  0  0  0  0  0  0  0  0  0
    1.8069    5.5064    0.0371 H   0  0  0  0  0  0  0  0  0  0  0  0
    2.0105    7.3436   -1.8719 C   0  0  0  0  0  0  0  0  0  0  0  0
    1.0327    7.3834   -1.3579 H   0  0  0  0  0  0  0  0  0  0  0  0
    1.8738    7.6812   -2.9012 H   0  0  0  0  0  0  0  0  0  0  0  0
    2.9860    8.2823   -1.1602 C   0  0  0  0  0  0  0  0  0  0  0  0
    3.9398    8.2886   -1.6961 H   0  0  0  0  0  0  0  0  0  0  0  0
    2.5837    9.2949   -1.1181 H   0  0  0  0  0  0  0  0  0  0  0  0
    1.7663    5.0773   -2.6746 C   0  0  0  0  0  0  0  0  0  0  0  0
    1.5918    5.5447   -3.6497 H   0  0  0  0  0  0  0  0  0  0  0  0
    0.7821    4.8870   -2.2112 H   0  0  0  0  0  0  0  0  0  0  0  0
    2.4969    3.7780   -2.8818 C   0  0  0  0  0  0  0  0  0  0  0  0
    3.8283    3.7931   -3.2806 C   0  0  0  0  0  0  0  0  0  0  0  0
    4.3189    4.7440   -3.4228 H   0  0  0  0  0  0  0  0  0  0  0  0
    4.5133    2.6094   -3.4819 C   0  0  0  0  0  0  0  0  0  0  0  0
    5.5484    2.6317   -3.7898 H   0  0  0  0  0  0  0  0  0  0  0  0
    3.8731    1.3953   -3.2934 C   0  0  0  0  0  0  0  0  0  0  0  0
    4.4067    0.4702   -3.4534 H   0  0  0  0  0  0  0  0  0  0  0  0
    2.5472    1.3724   -2.8986 C   0  0  0  0  0  0  0  0  0  0  0  0
    2.0428    0.4291   -2.7490 H   0  0  0  0  0  0  0  0  0  0  0  0
    1.8639    2.5585   -2.6901 C   0  0  0  0  0  0  0  0  0  0  0  0
    0.8291    2.5351   -2.3781 H   0  0  0  0  0  0  0  0  0  0  0  0
  1  2  1  6  0  0  0
  1  5  1  0  0  0  0
  3 41  1  0  0  0  0
  3  1  1  0  0  0  0
  4  1  1  0  0  0  0
  5 21  1  0  0  0  0
  5 11  1  0  0  0  0
  5 31  1  0  0  0  0
  9 42  1  0  0  0  0
 10 48  1  0  0  0  0
 10 45  1  0  0  0  0
 11 19  1  0  0  0  0
 12 11  2  0  0  0  0
 12 14  1  0  0  0  0
 13 12  1  0  0  0  0
 14 16  2  0  0  0  0
 15 14  1  0  0  0  0
 16 17  1  0  0  0  0
 16  6  1  0  0  0  0
 17 18  1  0  0  0  0
 19 20  1  0  0  0  0
 19 17  2  0  0  0  0
 21 29  1  0  0  0  0
 22 24  1  0  0  0  0
 22 21  2  0  0  0  0
 23 22  1  0  0  0  0
 24 26  2  0  0  0  0
 25 24  1  0  0  0  0
 26  7  1  0  0  0  0
 26 27  1  0  0  0  0
 27 28  1  0  0  0  0
 29 27  2  0  0  0  0
 29 30  1  0  0  0  0
 31 32  1  0  0  0  0
 32 34  2  0  0  0  0
 32 33  1  0  0  0  0
 34 35  1  0  0  0  0
 36  8  1  0  0  0  0
 36 34  1  0  0  0  0
 37 36  2  0  0  0  0
 38 37  1  0  0  0  0
 39 37  1  0  0  0  0
 39 31  2  0  0  0  0
 40 39  1  0  0  0  0
 41  9  1  6  0  0  0
 41  4  1  0  0  0  0
 42 43  1  0  0  0  0
 44 42  1  0  0  0  0
 45 47  1  0  0  0  0
 45 42  1  0  0  0  0
 46 45  1  0  0  0  0
 48 49  1  0  0  0  0
 48 51  1  0  0  0  0
 50 48  1  0  0  0  0
 51 53  1  0  0  0  0
 51  9  1  0  0  0  0
 52 51  1  0  0  0  0
 54 56  1  0  0  0  0
 54 10  1  0  0  0  0
 55 54  1  0  0  0  0
 57 66  1  0  0  0  0
 57 54  1  0  0  0  0
 58 57  2  0  0  0  0
 59 58  1  0  0  0  0
 60 62  2  0  0  0  0
 60 58  1  0  0  0  0
 61 60  1  0  0  0  0
 62 64  1  0  0  0  0
 63 62  1  0  0  0  0
 64 65  1  0  0  0  0
 64 66  2  0  0  0  0
 66 67  1  0  0  0  0
M  END
$$$$
