CSD_code = ADUHIR | q = 0 | S = 0 | Stoichiometry = C20H30F2Hf | MND = 12
 OpenBabel04212201593D

 53 54  0  0  1  0  0  0  0  0999 V2000
    7.9907    2.7653    5.3939 Hf  0  0  0  0  0  0  0  0  0  0  0  0
    6.6753    4.1298    5.3693 F   0  0  0  0  0  0  0  0  0  0  0  0
    7.7118    2.4777    7.2465 F   0  0  0  0  0  0  0  0  0  0  0  0
    6.2431    1.1951    5.2234 C   0  0  1  0  0  0  0  0  0  0  0  0
    6.2171    1.8547    3.9660 C   0  0  0  0  0  0  0  0  0  0  0  0
    7.4041    1.5207    3.2634 C   0  0  0  0  0  0  0  0  0  0  0  0
    8.1676    0.6355    4.0811 C   0  0  0  0  0  0  0  0  0  0  0  0
    7.4577    0.4494    5.3050 C   0  0  0  0  0  0  0  0  0  0  0  0
    5.1646    1.2931    6.2662 C   0  0  0  0  0  0  0  0  0  0  0  0
    4.2075    0.9664    5.8572 H   0  0  0  0  0  0  0  0  0  0  0  0
    5.0596    2.3274    6.6039 H   0  0  0  0  0  0  0  0  0  0  0  0
    5.4028    0.6733    7.1269 H   0  0  0  0  0  0  0  0  0  0  0  0
    5.0562    2.6355    3.4194 C   0  0  0  0  0  0  0  0  0  0  0  0
    4.3128    1.9574    2.9938 H   0  0  0  0  0  0  0  0  0  0  0  0
    5.3788    3.3179    2.6357 H   0  0  0  0  0  0  0  0  0  0  0  0
    4.5763    3.2150    4.2054 H   0  0  0  0  0  0  0  0  0  0  0  0
    7.6089    1.7933    1.7977 C   0  0  0  0  0  0  0  0  0  0  0  0
    6.8658    1.2459    1.2139 H   0  0  0  0  0  0  0  0  0  0  0  0
    8.5918    1.4717    1.4660 H   0  0  0  0  0  0  0  0  0  0  0  0
    7.4907    2.8522    1.5649 H   0  0  0  0  0  0  0  0  0  0  0  0
    9.2626   -0.2722    3.5891 C   0  0  0  0  0  0  0  0  0  0  0  0
    8.8195   -1.1692    3.1489 H   0  0  0  0  0  0  0  0  0  0  0  0
    9.9171   -0.5921    4.3963 H   0  0  0  0  0  0  0  0  0  0  0  0
    9.8692    0.2003    2.8204 H   0  0  0  0  0  0  0  0  0  0  0  0
    7.8234   -0.5009    6.4149 C   0  0  0  0  0  0  0  0  0  0  0  0
    7.2031   -1.3985    6.3679 H   0  0  0  0  0  0  0  0  0  0  0  0
    7.6744   -0.0374    7.3903 H   0  0  0  0  0  0  0  0  0  0  0  0
    8.8638   -0.8111    6.3377 H   0  0  0  0  0  0  0  0  0  0  0  0
    9.3824    4.5805    5.9690 C   0  0  2  0  0  0  0  0  0  0  0  0
    9.3439    4.5266    4.5431 C   0  0  0  0  0  0  0  0  0  0  0  0
   10.0669    3.3676    4.1297 C   0  0  0  0  0  0  0  0  0  0  0  0
   10.5203    2.6944    5.3032 C   0  0  0  0  0  0  0  0  0  0  0  0
   10.1056    3.4492    6.4313 C   0  0  0  0  0  0  0  0  0  0  0  0
    8.7709    5.6293    6.8554 C   0  0  0  0  0  0  0  0  0  0  0  0
    9.5348    6.0930    7.4811 H   0  0  0  0  0  0  0  0  0  0  0  0
    8.0179    5.1796    7.5078 H   0  0  0  0  0  0  0  0  0  0  0  0
    8.2923    6.4042    6.2621 H   0  0  0  0  0  0  0  0  0  0  0  0
    8.7888    5.6013    3.6458 C   0  0  0  0  0  0  0  0  0  0  0  0
    9.4355    6.4811    3.6602 H   0  0  0  0  0  0  0  0  0  0  0  0
    7.7945    5.9069    3.9720 H   0  0  0  0  0  0  0  0  0  0  0  0
    8.7208    5.2550    2.6163 H   0  0  0  0  0  0  0  0  0  0  0  0
   10.6162    3.1592    2.7443 C   0  0  0  0  0  0  0  0  0  0  0  0
   11.5453    3.7246    2.6343 H   0  0  0  0  0  0  0  0  0  0  0  0
    9.9273    3.5080    1.9786 H   0  0  0  0  0  0  0  0  0  0  0  0
   10.8473    2.1146    2.5500 H   0  0  0  0  0  0  0  0  0  0  0  0
   11.5410    1.5907    5.3699 C   0  0  0  0  0  0  0  0  0  0  0  0
   12.4979    1.9936    5.7084 H   0  0  0  0  0  0  0  0  0  0  0  0
   11.7000    1.1356    4.3966 H   0  0  0  0  0  0  0  0  0  0  0  0
   11.2471    0.8128    6.0758 H   0  0  0  0  0  0  0  0  0  0  0  0
   10.4962    3.1911    7.8585 C   0  0  0  0  0  0  0  0  0  0  0  0
   11.3992    3.7524    8.1099 H   0  0  0  0  0  0  0  0  0  0  0  0
   10.6986    2.1347    8.0232 H   0  0  0  0  0  0  0  0  0  0  0  0
    9.7040    3.5001    8.5374 H   0  0  0  0  0  0  0  0  0  0  0  0
  1 29  1  0  0  0  0
  1  3  1  0  0  0  0
  2  1  1  0  0  0  0
  4  8  1  0  0  0  0
  4  1  1  0  0  0  0
  4  9  1  1  0  0  0
  5  4  1  0  0  0  0
  6  5  2  0  0  0  0
  6  7  1  0  0  0  0
  7  8  2  0  0  0  0
  8 25  1  0  0  0  0
  9 11  1  0  0  0  0
  9 12  1  0  0  0  0
 10  9  1  0  0  0  0
 13  5  1  0  0  0  0
 13 16  1  0  0  0  0
 14 13  1  0  0  0  0
 15 13  1  0  0  0  0
 17  6  1  0  0  0  0
 18 17  1  0  0  0  0
 19 17  1  0  0  0  0
 20 17  1  0  0  0  0
 21  7  1  0  0  0  0
 21 23  1  0  0  0  0
 22 21  1  0  0  0  0
 24 21  1  0  0  0  0
 25 27  1  0  0  0  0
 26 25  1  0  0  0  0
 28 25  1  0  0  0  0
 29 33  1  0  0  0  0
 29 34  1  1  0  0  0
 30 29  1  0  0  0  0
 31 30  2  0  0  0  0
 31 32  1  0  0  0  0
 32 46  1  0  0  0  0
 32 33  2  0  0  0  0
 33 50  1  0  0  0  0
 34 35  1  0  0  0  0
 34 36  1  0  0  0  0
 37 34  1  0  0  0  0
 38 39  1  0  0  0  0
 38 40  1  0  0  0  0
 38 30  1  0  0  0  0
 41 38  1  0  0  0  0
 42 31  1  0  0  0  0
 43 42  1  0  0  0  0
 44 42  1  0  0  0  0
 45 42  1  0  0  0  0
 46 47  1  0  0  0  0
 46 49  1  0  0  0  0
 48 46  1  0  0  0  0
 50 52  1  0  0  0  0
 50 51  1  0  0  0  0
 50 53  1  0  0  0  0
M  END
$$$$
