CSD_code = ADUHAL | q = 0 | S = 0 | Stoichiometry = C30H27Cl4N2PPdS2 | MND = 4
 OpenBabel04212201593D

 67 72  0  0  1  0  0  0  0  0999 V2000
    4.1668    2.5928    5.6375 Pd  0  0  1  0  0  0  0  0  0  0  0  0
    4.7453    3.2231    3.5439 Cl  0  0  0  0  0  0  0  0  0  0  0  0
   -0.3091    7.9496    3.5442 Cl  0  0  0  0  0  0  0  0  0  0  0  0
    3.2851   -1.5229   -0.1975 Cl  0  0  0  0  0  0  0  0  0  0  0  0
   -2.4918   -0.3739    8.0008 Cl  0  0  0  0  0  0  0  0  0  0  0  0
    3.7884    1.9415    7.8165 S   0  0  0  0  0  0  0  0  0  0  0  0
    6.2418    2.8976    6.5987 S   0  0  0  0  0  0  0  0  0  0  0  0
    2.1741    2.2772    4.6872 P   0  0  0  0  0  4  0  0  0  0  0  0
    6.1862    1.5834    8.9084 N   0  0  0  0  0  0  0  0  0  0  0  0
    7.2542    2.1669   11.4462 N   0  0  0  0  0  0  0  0  0  0  0  0
    1.4269    3.8808    4.2905 C   0  0  0  0  0  0  0  0  0  0  0  0
    2.1272    5.0208    4.6808 C   0  0  0  0  0  0  0  0  0  0  0  0
    3.1066    4.9122    5.1642 H   0  0  0  0  0  0  0  0  0  0  0  0
    1.5977    6.2766    4.4536 C   0  0  0  0  0  0  0  0  0  0  0  0
    2.1364    7.1645    4.7454 H   0  0  0  0  0  0  0  0  0  0  0  0
    0.3571    6.3873    3.8410 C   0  0  0  0  0  0  0  0  0  0  0  0
   -0.3656    5.2591    3.4770 C   0  0  0  0  0  0  0  0  0  0  0  0
   -1.3372    5.3672    3.0206 H   0  0  0  0  0  0  0  0  0  0  0  0
    0.1671    4.0059    3.7119 C   0  0  0  0  0  0  0  0  0  0  0  0
   -0.4024    3.1220    3.4613 H   0  0  0  0  0  0  0  0  0  0  0  0
    2.3899    1.2580    3.2048 C   0  0  0  0  0  0  0  0  0  0  0  0
    1.7452    1.4252    1.9882 C   0  0  0  0  0  0  0  0  0  0  0  0
    1.0448    2.2343    1.8489 H   0  0  0  0  0  0  0  0  0  0  0  0
    2.0250    0.5680    0.9377 C   0  0  0  0  0  0  0  0  0  0  0  0
    1.5369    0.6945   -0.0161 H   0  0  0  0  0  0  0  0  0  0  0  0
    2.9465   -0.4527    1.1121 C   0  0  0  0  0  0  0  0  0  0  0  0
    3.6122   -0.6206    2.3202 C   0  0  0  0  0  0  0  0  0  0  0  0
    4.3434   -1.4062    2.4289 H   0  0  0  0  0  0  0  0  0  0  0  0
    3.3345    0.2419    3.3599 C   0  0  0  0  0  0  0  0  0  0  0  0
    3.8707    0.1574    4.3122 H   0  0  0  0  0  0  0  0  0  0  0  0
    0.8059    1.4635    5.5724 C   0  0  0  0  0  0  0  0  0  0  0  0
    0.1884    0.2971    5.1377 C   0  0  0  0  0  0  0  0  0  0  0  0
    0.5016   -0.1691    4.2144 H   0  0  0  0  0  0  0  0  0  0  0  0
   -0.8286   -0.2694    5.8850 C   0  0  0  0  0  0  0  0  0  0  0  0
   -1.3144   -1.1734    5.5522 H   0  0  0  0  0  0  0  0  0  0  0  0
   -1.2211    0.3316    7.0712 C   0  0  0  0  0  0  0  0  0  0  0  0
   -0.6040    1.4902    7.5245 C   0  0  0  0  0  0  0  0  0  0  0  0
   -0.9149    1.9390    8.4547 H   0  0  0  0  0  0  0  0  0  0  0  0
    0.4099    2.0484    6.7738 C   0  0  0  0  0  0  0  0  0  0  0  0
    0.9159    2.9439    7.1146 H   0  0  0  0  0  0  0  0  0  0  0  0
    5.4900    2.0846    7.8871 C   0  0  1  0  0  3  0  0  0  0  0  0
    5.5716    1.0419   10.0981 C   0  0  0  0  0  0  0  0  0  0  0  0
    6.0281    0.0711   10.3122 H   0  0  0  0  0  0  0  0  0  0  0  0
    4.5016    0.9135    9.9314 H   0  0  0  0  0  0  0  0  0  0  0  0
    5.8248    1.9921   11.2681 C   0  0  0  0  0  0  0  0  0  0  0  0
    5.3182    2.9542   11.0672 H   0  0  0  0  0  0  0  0  0  0  0  0
    5.4080    1.5646   12.1817 H   0  0  0  0  0  0  0  0  0  0  0  0
    7.8403    2.7419   10.2512 C   0  0  0  0  0  0  0  0  0  0  0  0
    8.9142    2.8636   10.4061 H   0  0  0  0  0  0  0  0  0  0  0  0
    7.4070    3.7302   10.0120 H   0  0  0  0  0  0  0  0  0  0  0  0
    7.6054    1.7966    9.0722 C   0  0  0  0  0  0  0  0  0  0  0  0
    8.0216    2.2143    8.1550 H   0  0  0  0  0  0  0  0  0  0  0  0
    8.0749    0.8310    9.2820 H   0  0  0  0  0  0  0  0  0  0  0  0
    7.5620    2.9314   12.6440 C   0  0  0  0  0  0  0  0  0  0  0  0
    7.0714    3.9208   12.6341 H   0  0  0  0  0  0  0  0  0  0  0  0
    8.6449    3.0951   12.6589 H   0  0  0  0  0  0  0  0  0  0  0  0
    7.1670    2.1739   13.8829 C   0  0  0  0  0  0  0  0  0  0  0  0
    7.5301    0.8390   14.0178 C   0  0  0  0  0  0  0  0  0  0  0  0
    8.0825    0.3659   13.2203 H   0  0  0  0  0  0  0  0  0  0  0  0
    7.1803    0.1285   15.1509 C   0  0  0  0  0  0  0  0  0  0  0  0
    7.4655   -0.9091   15.2456 H   0  0  0  0  0  0  0  0  0  0  0  0
    6.4684    0.7462   16.1663 C   0  0  0  0  0  0  0  0  0  0  0  0
    6.1972    0.1926   17.0530 H   0  0  0  0  0  0  0  0  0  0  0  0
    6.1053    2.0754   16.0400 C   0  0  0  0  0  0  0  0  0  0  0  0
    5.5492    2.5623   16.8277 H   0  0  0  0  0  0  0  0  0  0  0  0
    6.4499    2.7844   14.9016 C   0  0  0  0  0  0  0  0  0  0  0  0
    6.1607    3.8217   14.8060 H   0  0  0  0  0  0  0  0  0  0  0  0
  1  2  1  6  0  0  0
  1  7  1  0  0  0  0
  1  6  1  0  0  0  0
  3 16  1  0  0  0  0
  4 26  1  0  0  0  0
  6 41  1  0  0  0  0
  7 41  1  0  0  0  0
  8 31  1  0  0  0  0
  8  1  1  0  0  0  0
  9 51  1  0  0  0  0
  9 42  1  0  0  0  0
 10 54  1  0  0  0  0
 11 12  1  0  0  0  0
 11  8  1  0  0  0  0
 12 13  1  0  0  0  0
 14 12  2  0  0  0  0
 14 15  1  0  0  0  0
 16 14  1  0  0  0  0
 17 19  1  0  0  0  0
 17 16  2  0  0  0  0
 18 17  1  0  0  0  0
 19 11  2  0  0  0  0
 20 19  1  0  0  0  0
 21 29  1  0  0  0  0
 21  8  1  0  0  0  0
 22 21  2  0  0  0  0
 23 22  1  0  0  0  0
 24 26  2  0  0  0  0
 24 22  1  0  0  0  0
 25 24  1  0  0  0  0
 26 27  1  0  0  0  0
 27 28  1  0  0  0  0
 27 29  2  0  0  0  0
 29 30  1  0  0  0  0
 31 39  1  0  0  0  0
 32 31  2  0  0  0  0
 32 34  1  0  0  0  0
 33 32  1  0  0  0  0
 34 36  2  0  0  0  0
 35 34  1  0  0  0  0
 36 37  1  0  0  0  0
 36  5  1  0  0  0  0
 37 38  1  0  0  0  0
 39 40  1  0  0  0  0
 39 37  2  0  0  0  0
 41  9  1  1  0  0  0
 42 43  1  0  0  0  0
 42 45  1  0  0  0  0
 44 42  1  0  0  0  0
 45 10  1  0  0  0  0
 45 47  1  0  0  0  0
 46 45  1  0  0  0  0
 48 49  1  0  0  0  0
 48 10  1  0  0  0  0
 50 48  1  0  0  0  0
 51 53  1  0  0  0  0
 51 48  1  0  0  0  0
 52 51  1  0  0  0  0
 54 56  1  0  0  0  0
 54 57  1  0  0  0  0
 55 54  1  0  0  0  0
 57 58  2  0  0  0  0
 57 66  1  0  0  0  0
 58 60  1  0  0  0  0
 59 58  1  0  0  0  0
 60 61  1  0  0  0  0
 60 62  2  0  0  0  0
 62 63  1  0  0  0  0
 64 62  1  0  0  0  0
 64 65  1  0  0  0  0
 66 64  2  0  0  0  0
 67 66  1  0  0  0  0
M  END
$$$$
