CSD_code = ADUKAM | q = 0 | S = 0 | Stoichiometry = C51H40ClN3OP2RuS | MND = 6
 OpenBabel04212201593D

100110  0  0  0  0  0  0  0  0999 V2000
    8.9822    3.9753   15.7073 Ru  0  0  0  0  0  0  0  0  0  0  0  0
   11.2452    3.6238   16.3496 Cl  0  0  0  0  0  0  0  0  0  0  0  0
    7.8557    2.2758   17.0601 S   0  0  0  0  0  0  0  0  0  0  0  0
    8.8501    5.5060   17.4297 P   0  0  0  0  0  4  0  0  0  0  0  0
    9.3760    2.4516   14.0161 P   0  0  0  0  0  4  0  0  0  0  0  0
    9.3987    5.5152   14.3764 O   0  0  0  0  0  0  0  0  0  0  0  0
    7.2279    4.3443   15.1003 N   0  0  0  0  0  0  0  0  0  0  0  0
    6.1645    3.6769   15.5135 N   0  0  0  0  0  0  0  0  0  0  0  0
    5.2524    2.0731   16.8457 N   0  0  0  0  0  0  0  0  0  0  0  0
    4.3748    2.2085   16.3753 H   0  0  0  0  0  0  0  0  0  0  0  0
    5.3926    1.2583   17.4163 H   0  0  0  0  0  0  0  0  0  0  0  0
    8.3276    5.9132   13.8312 C   0  0  0  0  0  0  0  0  0  0  0  0
    7.0777    5.3298   14.1848 C   0  0  0  0  0  0  0  0  0  0  0  0
    5.8576    5.8074   13.5764 C   0  0  0  0  0  0  0  0  0  0  0  0
    4.5970    5.3012   13.9266 C   0  0  0  0  0  0  0  0  0  0  0  0
    4.5433    4.5301   14.6750 H   0  0  0  0  0  0  0  0  0  0  0  0
    3.4435    5.7690   13.3431 C   0  0  0  0  0  0  0  0  0  0  0  0
    2.4880    5.3588   13.6362 H   0  0  0  0  0  0  0  0  0  0  0  0
    3.5085    6.7691   12.3820 C   0  0  0  0  0  0  0  0  0  0  0  0
    2.6067    7.1431   11.9197 H   0  0  0  0  0  0  0  0  0  0  0  0
    4.7323    7.2855   12.0242 C   0  0  0  0  0  0  0  0  0  0  0  0
    4.7570    8.0664   11.2813 H   0  0  0  0  0  0  0  0  0  0  0  0
    5.9270    6.8323   12.5966 C   0  0  0  0  0  0  0  0  0  0  0  0
    7.2053    7.3995   12.2045 C   0  0  0  0  0  0  0  0  0  0  0  0
    7.3429    8.3896   11.2217 C   0  0  0  0  0  0  0  0  0  0  0  0
    6.4760    8.7666   10.7030 H   0  0  0  0  0  0  0  0  0  0  0  0
    8.5743    8.9063   10.8858 C   0  0  0  0  0  0  0  0  0  0  0  0
    8.6416    9.6681   10.1226 H   0  0  0  0  0  0  0  0  0  0  0  0
    9.7306    8.4580   11.5179 C   0  0  0  0  0  0  0  0  0  0  0  0
   10.6915    8.8699   11.2490 H   0  0  0  0  0  0  0  0  0  0  0  0
    9.6322    7.4858   12.4823 C   0  0  0  0  0  0  0  0  0  0  0  0
   10.5033    7.1060   12.9943 H   0  0  0  0  0  0  0  0  0  0  0  0
    8.3851    6.9526   12.8277 C   0  0  0  0  0  0  0  0  0  0  0  0
    6.3408    2.7289   16.3968 C   0  0  0  0  0  0  0  0  0  0  0  0
    9.4792    5.1311   19.0949 C   0  0  0  0  0  0  0  0  0  0  0  0
    9.9278    3.8545   19.4092 C   0  0  0  0  0  0  0  0  0  0  0  0
    9.9281    3.0825   18.6517 H   0  0  0  0  0  0  0  0  0  0  0  0
   10.3851    3.5789   20.6861 C   0  0  0  0  0  0  0  0  0  0  0  0
   10.7361    2.5864   20.9260 H   0  0  0  0  0  0  0  0  0  0  0  0
   10.3965    4.5724   21.6497 C   0  0  0  0  0  0  0  0  0  0  0  0
   10.7570    4.3575   22.6452 H   0  0  0  0  0  0  0  0  0  0  0  0
    9.9491    5.8472   21.3379 C   0  0  0  0  0  0  0  0  0  0  0  0
    9.9598    6.6237   22.0892 H   0  0  0  0  0  0  0  0  0  0  0  0
    9.4917    6.1296   20.0654 C   0  0  0  0  0  0  0  0  0  0  0  0
    9.1473    7.1246   19.8209 H   0  0  0  0  0  0  0  0  0  0  0  0
    7.0939    5.8694   17.7298 C   0  0  0  0  0  0  0  0  0  0  0  0
    6.3932    5.1243   18.6737 C   0  0  0  0  0  0  0  0  0  0  0  0
    6.9323    4.4487   19.3251 H   0  0  0  0  0  0  0  0  0  0  0  0
    5.0180    5.2382   18.7653 C   0  0  0  0  0  0  0  0  0  0  0  0
    4.4802    4.6565   19.4999 H   0  0  0  0  0  0  0  0  0  0  0  0
    4.3315    6.0821   17.9082 C   0  0  0  0  0  0  0  0  0  0  0  0
    3.2562    6.1611   17.9729 H   0  0  0  0  0  0  0  0  0  0  0  0
    5.0222    6.8199   16.9601 C   0  0  0  0  0  0  0  0  0  0  0  0
    4.4884    7.4693   16.2814 H   0  0  0  0  0  0  0  0  0  0  0  0
    6.3965    6.7129   16.8660 C   0  0  0  0  0  0  0  0  0  0  0  0
    6.9339    7.2781   16.1147 H   0  0  0  0  0  0  0  0  0  0  0  0
    9.6123    7.1181   17.0726 C   0  0  0  0  0  0  0  0  0  0  0  0
    9.0524    8.3328   17.4579 C   0  0  0  0  0  0  0  0  0  0  0  0
    8.1121    8.3577   17.9924 H   0  0  0  0  0  0  0  0  0  0  0  0
    9.6959    9.5169   17.1455 C   0  0  0  0  0  0  0  0  0  0  0  0
    9.2561   10.4584   17.4425 H   0  0  0  0  0  0  0  0  0  0  0  0
   10.8957    9.4987   16.4535 C   0  0  0  0  0  0  0  0  0  0  0  0
   11.3883   10.4280   16.2066 H   0  0  0  0  0  0  0  0  0  0  0  0
   11.4627    8.2905   16.0828 C   0  0  0  0  0  0  0  0  0  0  0  0
   12.4026    8.2748   15.5506 H   0  0  0  0  0  0  0  0  0  0  0  0
   10.8274    7.1024   16.3928 C   0  0  0  0  0  0  0  0  0  0  0  0
   11.2650    6.1533   16.1110 H   0  0  0  0  0  0  0  0  0  0  0  0
   10.2866    3.1199   12.5905 C   0  0  0  0  0  0  0  0  0  0  0  0
   11.3550    3.9688   12.8679 C   0  0  0  0  0  0  0  0  0  0  0  0
   11.6044    4.1877   13.8981 H   0  0  0  0  0  0  0  0  0  0  0  0
   12.0844    4.5247   11.8332 C   0  0  0  0  0  0  0  0  0  0  0  0
   12.9088    5.1874   12.0520 H   0  0  0  0  0  0  0  0  0  0  0  0
   11.7590    4.2332   10.5188 C   0  0  0  0  0  0  0  0  0  0  0  0
   12.3236    4.6729    9.7094 H   0  0  0  0  0  0  0  0  0  0  0  0
   10.7104    3.3723   10.2402 C   0  0  0  0  0  0  0  0  0  0  0  0
   10.4616    3.1354    9.2155 H   0  0  0  0  0  0  0  0  0  0  0  0
    9.9741    2.8132   11.2693 C   0  0  0  0  0  0  0  0  0  0  0  0
    9.1536    2.1458   11.0411 H   0  0  0  0  0  0  0  0  0  0  0  0
    7.7712    1.9206   13.3434 C   0  0  0  0  0  0  0  0  0  0  0  0
    7.0558    2.7593   12.4896 C   0  0  0  0  0  0  0  0  0  0  0  0
    7.5252    3.6500   12.0911 H   0  0  0  0  0  0  0  0  0  0  0  0
    5.7471    2.4627   12.1601 C   0  0  0  0  0  0  0  0  0  0  0  0
    5.1970    3.1240   11.5066 H   0  0  0  0  0  0  0  0  0  0  0  0
    5.1388    1.3320   12.6811 C   0  0  0  0  0  0  0  0  0  0  0  0
    4.1131    1.1070   12.4279 H   0  0  0  0  0  0  0  0  0  0  0  0
    5.8432    0.4956   13.5312 C   0  0  0  0  0  0  0  0  0  0  0  0
    5.3693   -0.3849   13.9412 H   0  0  0  0  0  0  0  0  0  0  0  0
    7.1512    0.7911   13.8699 C   0  0  0  0  0  0  0  0  0  0  0  0
    7.6986    0.1542   14.5528 H   0  0  0  0  0  0  0  0  0  0  0  0
   10.2260    0.8737   14.3270 C   0  0  0  0  0  0  0  0  0  0  0  0
   10.5827    0.0612   13.2539 C   0  0  0  0  0  0  0  0  0  0  0  0
   10.3739    0.3800   12.2424 H   0  0  0  0  0  0  0  0  0  0  0  0
   11.2085   -1.1485   13.4847 C   0  0  0  0  0  0  0  0  0  0  0  0
   11.4869   -1.7767   12.6509 H   0  0  0  0  0  0  0  0  0  0  0  0
   11.4830   -1.5540   14.7819 C   0  0  0  0  0  0  0  0  0  0  0  0
   11.9771   -2.4986   14.9570 H   0  0  0  0  0  0  0  0  0  0  0  0
   11.1285   -0.7477   15.8497 C   0  0  0  0  0  0  0  0  0  0  0  0
   11.3441   -1.0602   16.8605 H   0  0  0  0  0  0  0  0  0  0  0  0
   10.5006    0.4651   15.6262 C   0  0  0  0  0  0  0  0  0  0  0  0
   10.2317    1.1013   16.4583 H   0  0  0  0  0  0  0  0  0  0  0  0
  1  2  1  0  0  0  0
  1  3  1  0  0  0  0
  1  4  1  0  0  0  0
  4 46  1  0  0  0  0
  4 35  1  0  0  0  0
  5 90  1  0  0  0  0
  5  1  1  0  0  0  0
  6  1  1  0  0  0  0
  7  8  1  0  0  0  0
  7  1  1  0  0  0  0
  8 34  2  0  0  0  0
  9 11  1  0  0  0  0
 10  9  1  0  0  0  0
 12 13  1  0  0  0  0
 12  6  1  0  0  0  0
 13  7  1  0  0  0  0
 14 15  1  0  0  0  0
 14 13  2  0  0  0  0
 15 16  1  0  0  0  0
 17 18  1  0  0  0  0
 17 15  2  0  0  0  0
 19 17  1  0  0  0  0
 20 19  1  0  0  0  0
 21 19  2  0  0  0  0
 21 23  1  0  0  0  0
 22 21  1  0  0  0  0
 23 14  1  0  0  0  0
 24 23  2  0  0  0  0
 24 33  1  0  0  0  0
 25 24  1  0  0  0  0
 26 25  1  0  0  0  0
 27 25  2  0  0  0  0
 27 29  1  0  0  0  0
 28 27  1  0  0  0  0
 29 31  2  0  0  0  0
 30 29  1  0  0  0  0
 31 33  1  0  0  0  0
 31 32  1  0  0  0  0
 33 12  2  0  0  0  0
 34  9  1  0  0  0  0
 34  3  1  0  0  0  0
 35 36  2  0  0  0  0
 35 44  1  0  0  0  0
 36 38  1  0  0  0  0
 37 36  1  0  0  0  0
 38 39  1  0  0  0  0
 38 40  2  0  0  0  0
 40 41  1  0  0  0  0
 42 40  1  0  0  0  0
 42 43  1  0  0  0  0
 44 42  2  0  0  0  0
 45 44  1  0  0  0  0
 46 47  1  0  0  0  0
 47 49  2  0  0  0  0
 47 48  1  0  0  0  0
 49 50  1  0  0  0  0
 51 52  1  0  0  0  0
 51 49  1  0  0  0  0
 53 51  2  0  0  0  0
 54 53  1  0  0  0  0
 55 53  1  0  0  0  0
 55 46  2  0  0  0  0
 56 55  1  0  0  0  0
 57  4  1  0  0  0  0
 57 58  1  0  0  0  0
 58 59  1  0  0  0  0
 60 61  1  0  0  0  0
 60 58  2  0  0  0  0
 62 60  1  0  0  0  0
 63 62  1  0  0  0  0
 64 66  1  0  0  0  0
 64 62  2  0  0  0  0
 65 64  1  0  0  0  0
 66 57  2  0  0  0  0
 67 66  1  0  0  0  0
 68 69  1  0  0  0  0
 68  5  1  0  0  0  0
 69 70  1  0  0  0  0
 71 72  1  0  0  0  0
 71 69  2  0  0  0  0
 73 71  1  0  0  0  0
 74 73  1  0  0  0  0
 75 73  2  0  0  0  0
 75 77  1  0  0  0  0
 76 75  1  0  0  0  0
 77 68  2  0  0  0  0
 78 77  1  0  0  0  0
 79 88  1  0  0  0  0
 79  5  1  0  0  0  0
 80 79  2  0  0  0  0
 81 80  1  0  0  0  0
 82 80  1  0  0  0  0
 82 84  2  0  0  0  0
 83 82  1  0  0  0  0
 84 86  1  0  0  0  0
 85 84  1  0  0  0  0
 86 88  2  0  0  0  0
 86 87  1  0  0  0  0
 88 89  1  0  0  0  0
 90 99  1  0  0  0  0
 91 93  1  0  0  0  0
 91 90  2  0  0  0  0
 92 91  1  0  0  0  0
 93 95  2  0  0  0  0
 94 93  1  0  0  0  0
 95 96  1  0  0  0  0
 95 97  1  0  0  0  0
 97 98  1  0  0  0  0
 99 97  2  0  0  0  0
 99100  1  0  0  0  0
M  END
$$$$
