CSD_code = ADUMET | q = 0 | S = 0 | Stoichiometry = C34H32BrFNPPt | MND = 6
 OpenBabel04212201593D

 71 76  0  0  0  0  0  0  0  0999 V2000
    4.4060   -0.3410   13.2150 C   0  0  0  0  0  0  0  0  0  0  0  0
    4.8449   -1.3138   13.4376 H   0  0  0  0  0  0  0  0  0  0  0  0
    5.1484    0.2430   12.6673 H   0  0  0  0  0  0  0  0  0  0  0  0
    3.5364   -0.4914   12.5681 H   0  0  0  0  0  0  0  0  0  0  0  0
    5.5145   -0.1121   15.8510 C   0  0  0  0  0  0  0  0  0  0  0  0
    5.6559    0.4231   16.7936 H   0  0  0  0  0  0  0  0  0  0  0  0
    6.3924    0.0573   15.2263 H   0  0  0  0  0  0  0  0  0  0  0  0
    5.4401   -1.1783   16.0657 H   0  0  0  0  0  0  0  0  0  0  0  0
    1.7032    1.9813   12.0903 C   0  0  0  0  0  0  0  0  0  0  0  0
    0.4681    2.0976   11.4567 C   0  0  0  0  0  0  0  0  0  0  0  0
   -0.4424    1.9122   12.0103 H   0  0  0  0  0  0  0  0  0  0  0  0
    0.4085    2.4462   10.1218 C   0  0  0  0  0  0  0  0  0  0  0  0
   -0.5507    2.5304    9.6319 H   0  0  0  0  0  0  0  0  0  0  0  0
    1.5749    2.6947    9.4136 C   0  0  0  0  0  0  0  0  0  0  0  0
    1.5227    2.9686    8.3702 H   0  0  0  0  0  0  0  0  0  0  0  0
    2.8017    2.6005   10.0466 C   0  0  0  0  0  0  0  0  0  0  0  0
    3.7112    2.8058    9.5025 H   0  0  0  0  0  0  0  0  0  0  0  0
    2.8686    2.2474   11.3837 C   0  0  0  0  0  0  0  0  0  0  0  0
    3.8268    2.1904   11.8775 H   0  0  0  0  0  0  0  0  0  0  0  0
    0.4806    0.3364   14.0816 C   0  0  0  0  0  0  0  0  0  0  0  0
   -0.1654    0.2007   15.3090 C   0  0  0  0  0  0  0  0  0  0  0  0
    0.0257    0.9148   16.0998 H   0  0  0  0  0  0  0  0  0  0  0  0
   -1.0447   -0.8429   15.5251 C   0  0  0  0  0  0  0  0  0  0  0  0
   -1.5474   -0.9321   16.4771 H   0  0  0  0  0  0  0  0  0  0  0  0
   -1.2730   -1.7764   14.5275 C   0  0  0  0  0  0  0  0  0  0  0  0
   -1.9581   -2.5931   14.6987 H   0  0  0  0  0  0  0  0  0  0  0  0
   -0.6132   -1.6649   13.3153 C   0  0  0  0  0  0  0  0  0  0  0  0
   -0.7791   -2.3982   12.5397 H   0  0  0  0  0  0  0  0  0  0  0  0
    0.2638   -0.6192   13.0937 C   0  0  0  0  0  0  0  0  0  0  0  0
    0.7831   -0.5402   12.1484 H   0  0  0  0  0  0  0  0  0  0  0  0
    0.9921    3.1549   14.4454 C   0  0  0  0  0  0  0  0  0  0  0  0
   -0.3624    3.2842   14.7339 C   0  0  0  0  0  0  0  0  0  0  0  0
   -1.0252    2.4345   14.6556 H   0  0  0  0  0  0  0  0  0  0  0  0
   -0.8722    4.5112   15.1215 C   0  0  0  0  0  0  0  0  0  0  0  0
   -1.9244    4.6007   15.3503 H   0  0  0  0  0  0  0  0  0  0  0  0
   -0.0443    5.6179   15.2145 C   0  0  0  0  0  0  0  0  0  0  0  0
   -0.4478    6.5698   15.5261 H   0  0  0  0  0  0  0  0  0  0  0  0
    1.2985    5.5013   14.8957 C   0  0  0  0  0  0  0  0  0  0  0  0
    1.9477    6.3623   14.9488 H   0  0  0  0  0  0  0  0  0  0  0  0
    1.8145    4.2785   14.5071 C   0  0  0  0  0  0  0  0  0  0  0  0
    2.8593    4.1974   14.2391 H   0  0  0  0  0  0  0  0  0  0  0  0
    2.7945   -0.9000   15.6964 C   0  0  0  0  0  0  0  0  0  0  0  0
    2.5280   -2.1506   15.1624 C   0  0  0  0  0  0  0  0  0  0  0  0
    2.8931   -2.4145   14.1817 H   0  0  0  0  0  0  0  0  0  0  0  0
    1.7838   -3.0847   15.8663 C   0  0  0  0  0  0  0  0  0  0  0  0
    1.5848   -4.0507   15.4267 H   0  0  0  0  0  0  0  0  0  0  0  0
    1.2913   -2.7982   17.1297 C   0  0  0  0  0  0  0  0  0  0  0  0
    0.7148   -3.5161   17.6909 H   0  0  0  0  0  0  0  0  0  0  0  0
    1.5512   -1.5567   17.6654 C   0  0  0  0  0  0  0  0  0  0  0  0
    2.2904   -0.5941   16.9749 C   0  0  0  0  0  0  0  0  0  0  0  0
    2.5221    0.7186   17.5260 C   0  0  0  0  0  3  0  0  0  0  0  0
    2.1367    0.9407   18.5215 H   0  0  0  0  0  0  0  0  0  0  0  0
    3.4359    2.9086   17.3404 C   0  0  0  0  0  0  0  0  0  0  0  0
    3.2776    3.6095   16.5128 H   0  0  0  0  0  0  0  0  0  0  0  0
    4.5055    2.9422   17.5829 H   0  0  0  0  0  0  0  0  0  0  0  0
    2.6091    3.3239   18.5259 C   0  0  0  0  0  0  0  0  0  0  0  0
    1.2789    3.6853   18.3427 C   0  0  0  0  0  0  0  0  0  0  0  0
    0.8583    3.6847   17.3469 H   0  0  0  0  0  0  0  0  0  0  0  0
    0.4973    4.0493   19.4237 C   0  0  0  0  0  0  0  0  0  0  0  0
   -0.5341    4.3303   19.2692 H   0  0  0  0  0  0  0  0  0  0  0  0
    1.0366    4.0549   20.6995 C   0  0  0  0  0  0  0  0  0  0  0  0
    0.4262    4.3390   21.5437 H   0  0  0  0  0  0  0  0  0  0  0  0
    2.3598    3.6961   20.8897 C   0  0  0  0  0  0  0  0  0  0  0  0
    2.7847    3.6994   21.8825 H   0  0  0  0  0  0  0  0  0  0  0  0
    3.1418    3.3289   19.8080 C   0  0  0  0  0  0  0  0  0  0  0  0
    4.1744    3.0476   19.9599 H   0  0  0  0  0  0  0  0  0  0  0  0
    3.1537    1.5850   16.8369 N   0  0  0  0  0  0  0  0  0  0  0  0
    1.0613   -1.2541   18.8895 F   0  0  0  0  0  0  0  0  0  0  0  0
    1.7721    1.6008   13.8760 P   0  0  0  0  0  4  0  0  0  0  0  0
    3.8252    0.6714   14.9331 Pt  0  0  0  0  0  0  0  0  0  0  0  0
    5.1690    2.7490   14.3167 Br  0  0  0  0  0  0  0  0  0  0  0  0
  1  2  1  0  0  0  0
  1 70  1  0  0  0  0
  3  1  1  0  0  0  0
  4  1  1  0  0  0  0
  5  8  1  0  0  0  0
  5  6  1  0  0  0  0
  7  5  1  0  0  0  0
  9 69  1  0  0  0  0
 10 11  1  0  0  0  0
 10  9  1  0  0  0  0
 12 10  2  0  0  0  0
 13 12  1  0  0  0  0
 14 16  2  0  0  0  0
 14 12  1  0  0  0  0
 15 14  1  0  0  0  0
 16 18  1  0  0  0  0
 17 16  1  0  0  0  0
 18 19  1  0  0  0  0
 18  9  2  0  0  0  0
 20 21  1  0  0  0  0
 21 23  2  0  0  0  0
 21 22  1  0  0  0  0
 23 24  1  0  0  0  0
 25 26  1  0  0  0  0
 25 23  1  0  0  0  0
 27 25  2  0  0  0  0
 28 27  1  0  0  0  0
 29 27  1  0  0  0  0
 29 20  2  0  0  0  0
 30 29  1  0  0  0  0
 31 40  2  0  0  0  0
 31 32  1  0  0  0  0
 32 34  2  0  0  0  0
 33 32  1  0  0  0  0
 34 36  1  0  0  0  0
 34 35  1  0  0  0  0
 36 37  1  0  0  0  0
 38 39  1  0  0  0  0
 38 36  2  0  0  0  0
 40 38  1  0  0  0  0
 41 40  1  0  0  0  0
 42 50  1  0  0  0  0
 43 42  2  0  0  0  0
 43 45  1  0  0  0  0
 44 43  1  0  0  0  0
 45 47  2  0  0  0  0
 46 45  1  0  0  0  0
 47 49  1  0  0  0  0
 47 48  1  0  0  0  0
 49 68  1  0  0  0  0
 50 51  1  0  0  0  0
 50 49  2  0  0  0  0
 51 52  1  0  0  0  0
 53 55  1  0  0  0  0
 53 56  1  0  0  0  0
 54 53  1  0  0  0  0
 56 65  1  0  0  0  0
 57 56  2  0  0  0  0
 57 59  1  0  0  0  0
 58 57  1  0  0  0  0
 59 61  2  0  0  0  0
 60 59  1  0  0  0  0
 61 63  1  0  0  0  0
 61 62  1  0  0  0  0
 63 64  1  0  0  0  0
 65 66  1  0  0  0  0
 65 63  2  0  0  0  0
 67 53  1  0  0  0  0
 67 51  1  0  0  0  0
 69 20  1  0  0  0  0
 69 31  1  0  0  0  0
 69 70  1  0  0  0  0
 70 42  1  0  0  0  0
 70  5  1  0  0  0  0
 70 67  1  0  0  0  0
 71 70  1  0  0  0  0
M  END
$$$$
