CSD_code = ADUNAQ | q = 0 | S = 0 | Stoichiometry = C20H35FNiP2 | MND = 4
 OpenBabel04212201593D

 59 61  0  0  0  0  0  0  0  0999 V2000
   -4.2277    6.8352   12.8976 Ni  0  0  0  0  0  0  0  0  0  0  0  0
   -6.3161    6.4320   12.7067 P   0  0  0  0  0  4  0  0  0  0  0  0
   -2.1027    6.8764   13.1067 P   0  0  0  0  0  4  0  0  0  0  0  0
   -4.4223    8.6380   12.9282 F   0  0  0  0  0  0  0  0  0  0  0  0
   -4.0212    4.9255   12.8579 C   0  0  0  0  0  0  0  0  0  0  0  0
   -5.1238    4.0675   13.0044 C   0  0  0  0  0  0  0  0  0  0  0  0
   -4.9690    2.6886   12.9662 C   0  0  0  0  0  0  0  0  0  0  0  0
   -5.8365    2.0517   13.0789 H   0  0  0  0  0  0  0  0  0  0  0  0
   -3.7188    2.1265   12.7882 C   0  0  0  0  0  0  0  0  0  0  0  0
   -3.6025    1.0528   12.7603 H   0  0  0  0  0  0  0  0  0  0  0  0
   -2.6180    2.9506   12.6470 C   0  0  0  0  0  0  0  0  0  0  0  0
   -1.6351    2.5196   12.5094 H   0  0  0  0  0  0  0  0  0  0  0  0
   -2.7610    4.3308   12.6786 C   0  0  0  0  0  0  0  0  0  0  0  0
   -1.5572    5.2204   12.5115 C   0  0  0  0  0  0  0  0  0  0  0  0
   -1.2949    5.2901   11.4509 H   0  0  0  0  0  0  0  0  0  0  0  0
   -0.6849    4.8455   13.0548 H   0  0  0  0  0  0  0  0  0  0  0  0
   -6.4870    4.6706   13.2200 C   0  0  0  0  0  0  0  0  0  0  0  0
   -6.7416    4.6308   14.2841 H   0  0  0  0  0  0  0  0  0  0  0  0
   -7.2679    4.1450   12.6628 H   0  0  0  0  0  0  0  0  0  0  0  0
   -6.9911    6.4424   10.9791 C   0  0  0  0  0  0  0  0  0  0  0  0
   -7.9684    5.9446   10.9624 H   0  0  0  0  0  0  0  0  0  0  0  0
   -6.0063    5.6697   10.1053 C   0  0  0  0  0  0  0  0  0  0  0  0
   -6.3137    5.6935    9.0607 H   0  0  0  0  0  0  0  0  0  0  0  0
   -5.9283    4.6304   10.4201 H   0  0  0  0  0  0  0  0  0  0  0  0
   -5.0159    6.1241   10.1878 H   0  0  0  0  0  0  0  0  0  0  0  0
   -7.1162    7.8861   10.5005 C   0  0  0  0  0  0  0  0  0  0  0  0
   -6.1998    8.4281   10.7335 H   0  0  0  0  0  0  0  0  0  0  0  0
   -7.9488    8.3933   10.9825 H   0  0  0  0  0  0  0  0  0  0  0  0
   -7.2750    7.9198    9.4236 H   0  0  0  0  0  0  0  0  0  0  0  0
   -7.5350    7.3866   13.7275 C   0  0  0  0  0  0  0  0  0  0  0  0
   -7.5591    8.3897   13.2875 H   0  0  0  0  0  0  0  0  0  0  0  0
   -8.9378    6.7921   13.7359 C   0  0  0  0  0  0  0  0  0  0  0  0
   -8.9333    5.7887   14.1569 H   0  0  0  0  0  0  0  0  0  0  0  0
   -9.3526    6.7442   12.7314 H   0  0  0  0  0  0  0  0  0  0  0  0
   -9.5972    7.4094   14.3445 H   0  0  0  0  0  0  0  0  0  0  0  0
   -6.9488    7.5102   15.1323 C   0  0  0  0  0  0  0  0  0  0  0  0
   -7.5353    8.1975   15.7393 H   0  0  0  0  0  0  0  0  0  0  0  0
   -5.9290    7.8925   15.0621 H   0  0  0  0  0  0  0  0  0  0  0  0
   -6.9240    6.5448   15.6363 H   0  0  0  0  0  0  0  0  0  0  0  0
   -1.4772    6.9335   14.8526 C   0  0  0  0  0  0  0  0  0  0  0  0
   -0.4187    6.6466   14.8747 H   0  0  0  0  0  0  0  0  0  0  0  0
   -2.2971    5.9315   15.6615 C   0  0  0  0  0  0  0  0  0  0  0  0
   -2.0208    5.9651   16.7146 H   0  0  0  0  0  0  0  0  0  0  0  0
   -2.1528    4.9158   15.2972 H   0  0  0  0  0  0  0  0  0  0  0  0
   -3.3585    6.1764   15.5715 H   0  0  0  0  0  0  0  0  0  0  0  0
   -1.6617    8.3452   15.4026 C   0  0  0  0  0  0  0  0  0  0  0  0
   -2.6655    8.6993   15.1680 H   0  0  0  0  0  0  0  0  0  0  0  0
   -0.9423    9.0368   14.9700 H   0  0  0  0  0  0  0  0  0  0  0  0
   -1.5343    8.3544   16.4842 H   0  0  0  0  0  0  0  0  0  0  0  0
   -1.0898    8.1183   12.1732 C   0  0  0  0  0  0  0  0  0  0  0  0
   -1.2879    9.0793   12.6606 H   0  0  0  0  0  0  0  0  0  0  0  0
   -1.6550    8.1915   10.7565 C   0  0  0  0  0  0  0  0  0  0  0  0
   -1.2164    9.0219   10.2061 H   0  0  0  0  0  0  0  0  0  0  0  0
   -2.7348    8.3411   10.8083 H   0  0  0  0  0  0  0  0  0  0  0  0
   -1.4574    7.2734   10.2044 H   0  0  0  0  0  0  0  0  0  0  0  0
    0.4067    7.8316   12.1852 C   0  0  0  0  0  0  0  0  0  0  0  0
    0.6229    6.8724   11.7189 H   0  0  0  0  0  0  0  0  0  0  0  0
    0.7991    7.8199   13.1996 H   0  0  0  0  0  0  0  0  0  0  0  0
    0.9351    8.6036   11.6274 H   0  0  0  0  0  0  0  0  0  0  0  0
  1  4  1  0  0  0  0
  1  3  1  0  0  0  0
  2  1  1  0  0  0  0
  2 17  1  0  0  0  0
  2 30  1  0  0  0  0
  3 40  1  0  0  0  0
  5  1  1  0  0  0  0
  5  6  1  0  0  0  0
  6 17  1  0  0  0  0
  7  6  2  0  0  0  0
  7  8  1  0  0  0  0
  9  7  1  0  0  0  0
 10  9  1  0  0  0  0
 11 13  1  0  0  0  0
 11  9  2  0  0  0  0
 12 11  1  0  0  0  0
 13  5  2  0  0  0  0
 14 13  1  0  0  0  0
 14 16  1  0  0  0  0
 14  3  1  0  0  0  0
 15 14  1  0  0  0  0
 17 18  1  0  0  0  0
 19 17  1  0  0  0  0
 20  2  1  0  0  0  0
 21 20  1  0  0  0  0
 22 25  1  0  0  0  0
 22 24  1  0  0  0  0
 22 20  1  0  0  0  0
 23 22  1  0  0  0  0
 26 27  1  0  0  0  0
 26 20  1  0  0  0  0
 26 28  1  0  0  0  0
 29 26  1  0  0  0  0
 30 32  1  0  0  0  0
 30 36  1  0  0  0  0
 31 30  1  0  0  0  0
 32 33  1  0  0  0  0
 32 35  1  0  0  0  0
 34 32  1  0  0  0  0
 36 39  1  0  0  0  0
 36 37  1  0  0  0  0
 38 36  1  0  0  0  0
 40 41  1  0  0  0  0
 40 46  1  0  0  0  0
 40 42  1  0  0  0  0
 42 43  1  0  0  0  0
 44 42  1  0  0  0  0
 45 42  1  0  0  0  0
 46 49  1  0  0  0  0
 47 46  1  0  0  0  0
 48 46  1  0  0  0  0
 50 56  1  0  0  0  0
 50 51  1  0  0  0  0
 50  3  1  0  0  0  0
 52 54  1  0  0  0  0
 52 50  1  0  0  0  0
 53 52  1  0  0  0  0
 55 52  1  0  0  0  0
 56 58  1  0  0  0  0
 57 56  1  0  0  0  0
 59 56  1  0  0  0  0
M  END
$$$$
