CSD_code = ADURAU | q = -1 | S = 0 | Stoichiometry = C9H5Cl4N2OOs(1-) | MND = 6
 OpenBabel04212201593D

 22 24  0  0  1  0  0  0  0  0999 V2000
    3.7171    2.9254    2.1215 C   0  0  0  0  0  0  0  0  0  0  0  0
    2.7954    2.8175    3.2286 C   0  0  0  0  0  0  0  0  0  0  0  0
    1.9420    3.9081    3.4506 C   0  0  0  0  0  0  0  0  0  0  0  0
    1.2419    3.8580    4.2696 H   0  0  0  0  0  0  0  0  0  0  0  0
    1.9917    5.0301    2.6407 C   0  0  0  0  0  0  0  0  0  0  0  0
    1.3217    5.8547    2.8379 H   0  0  0  0  0  0  0  0  0  0  0  0
    2.8766    5.1212    1.5876 C   0  0  2  0  0  3  0  0  0  0  0  0
    3.7659    4.0776    1.2914 C   0  0  0  0  0  0  0  0  0  0  0  0
    4.7087    4.0645    0.2431 C   0  0  0  0  0  0  0  0  0  0  0  0
    4.7807    4.9205   -0.4120 H   0  0  0  0  0  0  0  0  0  0  0  0
    5.5138    2.9689    0.0753 C   0  0  0  0  0  0  0  0  0  0  0  0
    6.2437    2.9306   -0.7181 H   0  0  0  0  0  0  0  0  0  0  0  0
    5.3947    1.8773    0.9432 C   0  0  0  0  0  0  0  0  0  0  0  0
    6.0117    0.9946    0.8451 H   0  0  0  0  0  0  0  0  0  0  0  0
    5.6401    1.3649    4.8630 Cl  0  0  0  0  0  0  0  0  0  0  0  0
    3.7430   -1.2559    4.9906 Cl  0  0  0  0  0  0  0  0  0  0  0  0
    2.5032   -0.5973    2.0773 Cl  0  0  0  0  0  0  0  0  0  0  0  0
    2.8915    6.5580    0.6072 Cl  0  0  0  0  0  0  0  0  0  0  0  0
    5.4751   -0.5958    2.5751 N   0  0  0  0  0  1  0  0  0  0  0  0
    4.5227    1.8702    1.9283 N   0  0  0  0  0  0  0  0  0  0  0  0
    2.8179    1.7559    3.9203 O   0  0  0  0  0  0  0  0  0  0  0  0
    4.2626    0.2140    3.3740 Os  0  0  0  0  0  0  0  0  0  0  0  0
  1  2  2  0  0  0  0
  2  3  1  0  0  0  0
  2 21  1  0  0  0  0
  3  4  1  0  0  0  0
  5  6  1  0  0  0  0
  5  3  2  0  0  0  0
  7 18  1  1  0  0  0
  7  5  1  0  0  0  0
  8  7  1  0  0  0  0
  8  1  1  0  0  0  0
  9  8  2  0  0  0  0
 10  9  1  0  0  0  0
 11  9  1  0  0  0  0
 11 13  2  0  0  0  0
 12 11  1  0  0  0  0
 13 20  1  0  0  0  0
 14 13  1  0  0  0  0
 17 22  1  0  0  0  0
 19 22  1  0  0  0  0
 20  1  1  0  0  0  0
 20 22  1  0  0  0  0
 22 21  1  0  0  0  0
 22 15  1  0  0  0  0
 22 16  1  0  0  0  0
M  END
$$$$
