CSD_code = AFAKAW | q = 0 | S = 0 | Stoichiometry = C23H29Cl2N3O3PtS2 | MND = 4
 OpenBabel04212201593D

 63 65  0  0  1  0  0  0  0  0999 V2000
   -1.7042   11.0192    9.0054 C   0  0  2  0  0  3  0  0  0  0  0  0
   -1.5505   12.3579    8.3629 C   0  0  0  0  0  0  0  0  0  0  0  0
   -1.7786   13.1550    9.0644 H   0  0  0  0  0  0  0  0  0  0  0  0
   -2.2256   12.4300    7.5087 H   0  0  0  0  0  0  0  0  0  0  0  0
   -0.5264   12.4770    7.9975 H   0  0  0  0  0  0  0  0  0  0  0  0
   -2.3211   10.8654   10.2373 C   0  0  0  0  0  0  0  0  0  0  0  0
   -2.7274   11.7287   10.7396 H   0  0  0  0  0  0  0  0  0  0  0  0
   -2.4029    9.6059   10.8095 C   0  0  0  0  0  0  0  0  0  0  0  0
   -2.8767    9.4705   11.7692 H   0  0  0  0  0  0  0  0  0  0  0  0
   -1.8570    8.5306   10.1370 C   0  0  0  0  0  0  0  0  0  0  0  0
   -1.8836    7.5311   10.5352 H   0  0  0  0  0  0  0  0  0  0  0  0
   -1.2814    8.7350    8.8902 C   0  0  0  0  0  0  0  0  0  0  0  0
    2.4762   10.5607    4.5202 C   0  0  0  0  0  0  0  0  0  0  0  0
    2.7980   10.6235    3.4872 H   0  0  0  0  0  0  0  0  0  0  0  0
    2.9307    9.7050    5.0076 H   0  0  0  0  0  0  0  0  0  0  0  0
    2.7120   11.4634    5.0712 H   0  0  0  0  0  0  0  0  0  0  0  0
   -0.6607    7.6010    8.1348 C   0  0  0  0  0  0  0  0  0  0  0  0
   -0.7395    7.7917    7.0456 H   0  0  0  0  0  0  0  0  0  0  0  0
    0.4124    7.5610    8.3874 H   0  0  0  0  0  0  0  0  0  0  0  0
   -0.3213    5.2025    8.4309 C   0  0  0  0  0  0  0  0  0  0  0  0
    0.1799    5.1585    7.4536 H   0  0  0  0  0  0  0  0  0  0  0  0
   -0.9292    4.3109    8.5821 H   0  0  0  0  0  0  0  0  0  0  0  0
    2.6097    6.4602   10.1820 C   0  0  0  0  0  0  0  0  0  0  0  0
    0.7124    5.3457    9.5171 C   0  0  0  0  0  0  0  0  0  0  0  0
    3.6530    7.4642    9.8147 C   0  0  0  0  0  0  0  0  0  0  0  0
    4.1035    7.9025   10.7010 H   0  0  0  0  0  0  0  0  0  0  0  0
    3.2129    8.2440    9.1973 H   0  0  0  0  0  0  0  0  0  0  0  0
    4.4352    6.9805    9.2303 H   0  0  0  0  0  0  0  0  0  0  0  0
   -2.5109    6.1870    6.0986 C   0  0  0  0  0  0  0  0  0  0  0  0
   -2.7776    7.3914    5.4733 C   0  0  0  0  0  0  0  0  0  0  0  0
   -3.2722    8.1699    6.0327 H   0  0  0  0  0  0  0  0  0  0  0  0
    0.6258    4.6572   10.7192 C   0  0  0  0  0  0  0  0  0  0  0  0
   -0.1816    3.9646   10.8953 H   0  0  0  0  0  0  0  0  0  0  0  0
    1.6019    4.8890   11.6765 C   0  0  0  0  0  0  0  0  0  0  0  0
    1.5747    4.3669   12.6223 H   0  0  0  0  0  0  0  0  0  0  0  0
    2.6077    5.8013   11.4092 C   0  0  0  0  0  0  0  0  0  0  0  0
    3.3786    6.0050   12.1367 H   0  0  0  0  0  0  0  0  0  0  0  0
   -2.4120    7.5628    4.1521 C   0  0  0  0  0  0  0  0  0  0  0  0
   -2.6037    8.5041    3.6617 H   0  0  0  0  0  0  0  0  0  0  0  0
   -1.5372    5.3306    4.0977 C   0  0  0  0  0  0  0  0  0  0  0  0
   -1.0543    4.5258    3.5625 H   0  0  0  0  0  0  0  0  0  0  0  0
   -1.3016    6.7882    2.0583 C   0  0  0  0  0  0  0  0  0  0  0  0
   -0.8830    5.8893    1.6137 H   0  0  0  0  0  0  0  0  0  0  0  0
   -0.5374    7.5647    2.0825 H   0  0  0  0  0  0  0  0  0  0  0  0
   -2.1218    7.1445    1.4380 H   0  0  0  0  0  0  0  0  0  0  0  0
   -1.7654    6.5440    3.4574 C   0  0  0  0  0  0  0  0  0  0  0  0
    0.2128   11.8293    3.6294 C   0  0  0  0  0  0  0  0  0  0  0  0
    0.6818   11.8039    2.6528 H   0  0  0  0  0  0  0  0  0  0  0  0
    0.5434   12.6842    4.2085 H   0  0  0  0  0  0  0  0  0  0  0  0
   -0.8682   11.8384    3.5327 H   0  0  0  0  0  0  0  0  0  0  0  0
   -1.9053    5.1476    5.4204 C   0  0  0  0  0  0  0  0  0  0  0  0
   -1.7379    4.2107    5.9282 H   0  0  0  0  0  0  0  0  0  0  0  0
   -1.2156    9.9570    8.3492 N   0  0  0  0  0  0  0  0  0  0  0  0
   -1.2338    6.3300    8.4980 N   0  0  0  0  0  0  0  0  0  0  0  0
    1.6810    6.2167    9.2675 N   0  0  0  0  0  0  0  0  0  0  0  0
   -3.5899    7.1549    8.3013 O   0  0  0  0  0  0  0  0  0  0  0  0
   -3.1443    4.7330    8.2347 O   0  0  0  0  0  0  0  0  0  0  0  0
    0.3925    9.1895    3.6802 O   0  0  0  0  0  1  0  0  0  0  0  0
   -2.7708    6.0657    7.8565 S   0  0  0  0  0  0  0  0  0  0  0  0
    0.6729   10.3238    4.5397 S   0  0  0  0  0  0  0  0  0  0  0  0
    1.7395    9.8732    7.5814 Cl  0  0  0  0  0  0  0  0  0  0  0  0
   -2.2829   10.7019    5.4822 Cl  0  0  0  0  0  0  0  0  0  0  0  0
   -0.3063   10.1781    6.5525 Pt  0  0  0  0  0  0  0  0  0  0  0  0
  1  2  1  1  0  0  0
  1  6  1  0  0  0  0
  2  3  1  0  0  0  0
  4  2  1  0  0  0  0
  5  2  1  0  0  0  0
  6  7  1  0  0  0  0
  6  8  2  0  0  0  0
  8  9  1  0  0  0  0
 10 11  1  0  0  0  0
 10  8  1  0  0  0  0
 12 10  2  0  0  0  0
 13 60  1  0  0  0  0
 13 15  1  0  0  0  0
 13 16  1  0  0  0  0
 14 13  1  0  0  0  0
 17 19  1  0  0  0  0
 17 54  1  0  0  0  0
 17 12  1  0  0  0  0
 18 17  1  0  0  0  0
 20 54  1  0  0  0  0
 20 22  1  0  0  0  0
 20 24  1  0  0  0  0
 21 20  1  0  0  0  0
 23 36  1  0  0  0  0
 24 32  2  0  0  0  0
 25 23  1  0  0  0  0
 25 26  1  0  0  0  0
 27 25  1  0  0  0  0
 28 25  1  0  0  0  0
 29 59  1  0  0  0  0
 30 31  1  0  0  0  0
 30 29  1  0  0  0  0
 32 33  1  0  0  0  0
 32 34  1  0  0  0  0
 34 35  1  0  0  0  0
 36 34  2  0  0  0  0
 36 37  1  0  0  0  0
 38 30  2  0  0  0  0
 39 38  1  0  0  0  0
 40 51  1  0  0  0  0
 41 40  1  0  0  0  0
 42 44  1  0  0  0  0
 42 46  1  0  0  0  0
 43 42  1  0  0  0  0
 45 42  1  0  0  0  0
 46 40  2  0  0  0  0
 46 38  1  0  0  0  0
 47 49  1  0  0  0  0
 47 60  1  0  0  0  0
 48 47  1  0  0  0  0
 50 47  1  0  0  0  0
 51 52  1  0  0  0  0
 51 29  2  0  0  0  0
 53 12  1  0  0  0  0
 53  1  1  0  0  0  0
 55 24  1  0  0  0  0
 55 23  2  0  0  0  0
 58 60  1  0  0  0  0
 59 57  2  0  0  0  0
 59 56  2  0  0  0  0
 59 54  1  0  0  0  0
 60 63  1  0  0  0  0
 62 63  1  0  0  0  0
 63 61  1  0  0  0  0
 63 53  1  0  0  0  0
M  END
$$$$
