CSD_code = AFAMEB | q = 0 | S = 0 | Stoichiometry = C25H20Cl2FN3Pd | MND = 4
 OpenBabel04212201593D

 52 56  0  0  1  0  0  0  0  0999 V2000
    5.4684    3.2504    3.0948 Pd  0  0  0  0  0  0  0  0  0  0  0  0
    7.5619    2.3588    2.7144 Cl  0  0  0  0  0  0  0  0  0  0  0  0
    3.4071    4.1257    3.5552 Cl  0  0  0  0  0  0  0  0  0  0  0  0
    6.9504    4.8445    6.6171 C   0  0  2  0  0  3  0  0  0  0  0  0
    5.1192    1.8681    5.8801 C   0  0  0  0  0  0  0  0  0  0  0  0
    6.8216    5.9862    5.8522 N   0  0  0  0  0  0  0  0  0  0  0  0
    7.4320    4.9183    7.9207 C   0  0  0  0  0  0  0  0  0  0  0  0
    7.5270    4.0230    8.5127 H   0  0  0  0  0  0  0  0  0  0  0  0
    6.1701    4.2443    4.6182 C   0  0  0  0  0  0  0  0  0  0  0  0
    5.9596    6.5091    3.5290 C   0  0  0  0  0  0  0  0  0  0  0  0
    3.9972    2.2997    6.5768 C   0  0  0  0  0  0  0  0  0  0  0  0
    4.1092    2.9835    7.4064 H   0  0  0  0  0  0  0  0  0  0  0  0
    4.8314    8.4594    2.6784 C   0  0  0  0  0  0  0  0  0  0  0  0
    4.2850    9.3730    2.8614 H   0  0  0  0  0  0  0  0  0  0  0  0
    6.5522    3.8049    5.8563 N   0  0  0  0  0  0  0  0  0  0  0  0
    5.0770    8.0475    1.3802 C   0  0  0  0  0  0  0  0  0  0  0  0
    4.7285    8.6413    0.5483 H   0  0  0  0  0  0  0  0  0  0  0  0
    7.2045    7.1928    6.3395 C   0  0  0  0  0  0  0  0  0  0  0  0
    7.1266    8.0335    5.6697 H   0  0  0  0  0  0  0  0  0  0  0  0
    6.3410    5.6217    4.6229 C   0  0  0  0  0  0  0  0  0  0  0  0
    7.6810    7.2907    7.6141 C   0  0  0  0  0  0  0  0  0  0  0  0
    7.9806    8.2526    7.9957 H   0  0  0  0  0  0  0  0  0  0  0  0
    5.2642    7.6962    3.7476 C   0  0  0  0  0  0  0  0  0  0  0  0
    5.0160    8.0026    4.7538 H   0  0  0  0  0  0  0  0  0  0  0  0
    7.7888    6.1480    8.4231 C   0  0  0  0  0  0  0  0  0  0  0  0
    8.1629    6.2353    9.4296 H   0  0  0  0  0  0  0  0  0  0  0  0
    6.2074    6.0973    2.2134 C   0  0  0  0  0  0  0  0  0  0  0  0
    6.7961    5.1954    2.0245 H   0  0  0  0  0  0  0  0  0  0  0  0
    4.9690    1.0014    4.7931 C   0  0  0  0  0  0  0  0  0  0  0  0
    5.8517    0.6141    4.2893 H   0  0  0  0  0  0  0  0  0  0  0  0
    5.7651    6.8662    1.1516 C   0  0  0  0  0  0  0  0  0  0  0  0
    5.9624    6.5445    0.1386 H   0  0  0  0  0  0  0  0  0  0  0  0
    6.4852    2.4070    6.2406 C   0  0  0  0  0  0  0  0  0  0  0  0
    6.6700    2.3253    7.3138 H   0  0  0  0  0  0  0  0  0  0  0  0
    7.2608    1.8633    5.6884 H   0  0  0  0  0  0  0  0  0  0  0  0
    2.7323    1.8758    6.2115 C   0  0  0  0  0  0  0  0  0  0  0  0
    1.8528    2.2151    6.7341 H   0  0  0  0  0  0  0  0  0  0  0  0
    3.7043    0.5573    4.4293 C   0  0  0  0  0  0  0  0  0  0  0  0
    3.5572   -0.1302    3.6096 H   0  0  0  0  0  0  0  0  0  0  0  0
    4.3018    3.2657    0.4886 C   0  0  0  0  0  3  0  0  0  0  0  0
    4.2072    4.3022    0.8064 H   0  0  0  0  0  0  0  0  0  0  0  0
    4.8988    1.1266    1.0544 C   0  0  0  0  0  0  0  0  0  0  0  0
    5.3221    0.4660    1.8022 H   0  0  0  0  0  0  0  0  0  0  0  0
    4.7815    2.4082    1.3898 N   0  0  0  0  0  0  0  0  0  0  0  0
    3.9175    2.8692   -0.7808 C   0  0  0  0  0  0  0  0  0  0  0  0
    3.5372    3.5972   -1.4801 H   0  0  0  0  0  0  0  0  0  0  0  0
    4.0277    1.5321   -1.1297 C   0  0  0  0  0  0  0  0  0  0  0  0
    3.7327    1.1902   -2.1105 H   0  0  0  0  0  0  0  0  0  0  0  0
    4.5291    0.6455   -0.1901 C   0  0  0  0  0  0  0  0  0  0  0  0
    4.6377   -0.4037   -0.4163 H   0  0  0  0  0  0  0  0  0  0  0  0
    2.6064    1.0143    5.1380 C   0  0  0  0  0  0  0  0  0  0  0  0
    1.3820    0.5748    4.7902 F   0  0  0  0  0  0  0  0  0  0  0  0
  1  3  1  0  0  0  0
  1  9  1  0  0  0  0
  2  1  1  0  0  0  0
  4  7  1  6  0  0  0
  5 33  1  0  0  0  0
  5 11  1  0  0  0  0
  6 18  1  0  0  0  0
  6  4  1  0  0  0  0
  7 25  2  0  0  0  0
  7  8  1  0  0  0  0
  9 20  2  0  0  0  0
  9 15  1  0  0  0  0
 10 23  1  0  0  0  0
 10 20  1  0  0  0  0
 11 12  1  0  0  0  0
 13 14  1  0  0  0  0
 13 23  2  0  0  0  0
 15 33  1  0  0  0  0
 15  4  1  0  0  0  0
 16 13  1  0  0  0  0
 17 16  1  0  0  0  0
 18 21  2  0  0  0  0
 19 18  1  0  0  0  0
 20  6  1  0  0  0  0
 21 22  1  0  0  0  0
 21 25  1  0  0  0  0
 23 24  1  0  0  0  0
 25 26  1  0  0  0  0
 27 10  2  0  0  0  0
 28 27  1  0  0  0  0
 29  5  2  0  0  0  0
 30 29  1  0  0  0  0
 31 16  2  0  0  0  0
 31 27  1  0  0  0  0
 32 31  1  0  0  0  0
 33 34  1  0  0  0  0
 35 33  1  0  0  0  0
 36 11  2  0  0  0  0
 36 37  1  0  0  0  0
 38 29  1  0  0  0  0
 38 51  2  0  0  0  0
 39 38  1  0  0  0  0
 40 41  1  0  0  0  0
 40 44  1  0  0  0  0
 42 44  1  0  0  0  0
 42 43  1  0  0  0  0
 44  1  1  0  0  0  0
 45 40  1  0  0  0  0
 46 45  1  0  0  0  0
 47 45  2  0  0  0  0
 47 49  1  0  0  0  0
 48 47  1  0  0  0  0
 49 42  2  0  0  0  0
 50 49  1  0  0  0  0
 51 36  1  0  0  0  0
 52 51  1  0  0  0  0
M  END
$$$$
