CSD_code = AFAMIF | q = 0 | S = 0 | Stoichiometry = C26H22Cl2FN3OPd | MND = 4
 OpenBabel04212201593D

 56 60  0  0  1  0  0  0  0  0999 V2000
    3.4028    1.8587    4.2321 C   0  0  0  0  0  0  0  0  0  0  0  0
    4.5412    1.5242    4.9522 C   0  0  0  0  0  0  0  0  0  0  0  0
    3.6397    3.3331    5.8856 C   0  0  2  0  0  3  0  0  0  0  0  0
    5.6112   -0.0542    3.3976 C   0  0  0  0  0  0  0  0  0  0  0  0
    5.3119    0.5900    2.5664 H   0  0  0  0  0  0  0  0  0  0  0  0
    6.2956   -1.2263    3.1254 C   0  0  0  0  0  0  0  0  0  0  0  0
    6.4744   -1.4984    2.0963 H   0  0  0  0  0  0  0  0  0  0  0  0
    6.7470   -2.0305    4.1679 C   0  0  0  0  0  0  0  0  0  0  0  0
    6.5016   -1.6355    5.4839 C   0  0  0  0  0  0  0  0  0  0  0  0
    6.8452   -2.2745    6.2819 H   0  0  0  0  0  0  0  0  0  0  0  0
    5.8150   -0.4727    5.7528 C   0  0  0  0  0  0  0  0  0  0  0  0
    5.5890   -0.2224    6.7789 H   0  0  0  0  0  0  0  0  0  0  0  0
    5.3620    0.3426    4.7145 C   0  0  0  0  0  0  0  0  0  0  0  0
    1.6589    3.6062    4.3699 C   0  0  0  0  0  0  0  0  0  0  0  0
    1.8768    4.1103    3.4209 H   0  0  0  0  0  0  0  0  0  0  0  0
    1.3388    4.3408    5.1122 H   0  0  0  0  0  0  0  0  0  0  0  0
    0.5986    2.5485    4.1615 C   0  0  0  0  0  0  0  0  0  0  0  0
    0.0439    1.8959    5.2558 C   0  0  0  0  0  0  0  0  0  0  0  0
    0.3426    2.1747    6.2564 H   0  0  0  0  0  0  0  0  0  0  0  0
   -0.8774    0.8794    5.0798 C   0  0  0  0  0  0  0  0  0  0  0  0
   -1.3035    0.3549    5.9196 H   0  0  0  0  0  0  0  0  0  0  0  0
   -1.2355    0.5247    3.7927 C   0  0  0  0  0  0  0  0  0  0  0  0
   -0.7082    1.1598    2.6815 C   0  0  0  0  0  0  0  0  0  0  0  0
   -1.0329    0.8609    1.6958 H   0  0  0  0  0  0  0  0  0  0  0  0
    0.2286    2.1683    2.8677 C   0  0  0  0  0  0  0  0  0  0  0  0
    0.6141    2.7217    2.0144 H   0  0  0  0  0  0  0  0  0  0  0  0
    2.9189   -1.4803    1.0388 C   0  0  0  0  0  3  0  0  0  0  0  0
    3.5174   -1.7540    1.9051 H   0  0  0  0  0  0  0  0  0  0  0  0
    2.8054   -2.3264   -0.0508 C   0  0  0  0  0  0  0  0  0  0  0  0
    3.3331   -3.2674   -0.0600 H   0  0  0  0  0  0  0  0  0  0  0  0
    2.0051   -1.9465   -1.1171 C   0  0  0  0  0  0  0  0  0  0  0  0
    1.8928   -2.5859   -1.9799 H   0  0  0  0  0  0  0  0  0  0  0  0
    1.3557   -0.7244   -1.0497 C   0  0  0  0  0  0  0  0  0  0  0  0
    0.7262   -0.3829   -1.8564 H   0  0  0  0  0  0  0  0  0  0  0  0
    1.5287    0.0652    0.0744 C   0  0  0  0  0  0  0  0  0  0  0  0
    1.0588    1.0392    0.1468 H   0  0  0  0  0  0  0  0  0  0  0  0
    3.5360    4.3794    6.7974 C   0  0  0  0  0  0  0  0  0  0  0  0
    2.7138    5.0728    6.7316 H   0  0  0  0  0  0  0  0  0  0  0  0
    4.5043    4.5087    7.7654 C   0  0  0  0  0  0  0  0  0  0  0  0
    4.4491    5.3075    8.4861 H   0  0  0  0  0  0  0  0  0  0  0  0
    5.5793    3.6051    7.8021 C   0  0  0  0  0  0  0  0  0  0  0  0
    6.3533    3.7176    8.5430 H   0  0  0  0  0  0  0  0  0  0  0  0
    5.6572    2.5858    6.8992 C   0  0  0  0  0  0  0  0  0  0  0  0
    6.4733    1.8829    6.8674 H   0  0  0  0  0  0  0  0  0  0  0  0
    7.6596   -3.6773    2.7135 C   0  0  0  0  0  0  0  0  0  0  0  0
    6.7204   -3.8563    2.1803 H   0  0  0  0  0  0  0  0  0  0  0  0
    8.1881   -4.6213    2.8363 H   0  0  0  0  0  0  0  0  0  0  0  0
    8.2823   -2.9883    2.1334 H   0  0  0  0  0  0  0  0  0  0  0  0
    2.0777   -0.7930    4.1408 Cl  0  0  0  0  0  0  0  0  0  0  0  0
    3.4251    2.5534    1.2958 Cl  0  0  0  0  0  0  0  0  0  0  0  0
   -2.1519   -0.4453    3.6104 F   0  0  0  0  0  0  0  0  0  0  0  0
    4.6852    2.4352    5.9644 N   0  0  0  0  0  0  0  0  0  0  0  0
    2.8775    2.9693    4.8343 N   0  0  0  0  0  0  0  0  0  0  0  0
    2.2885   -0.3071    1.1007 N   0  0  0  0  0  0  0  0  0  0  0  0
    7.4297   -3.1973    4.0155 O   0  0  0  0  0  0  0  0  0  0  0  0
    2.7565    0.8446    2.6964 Pd  0  0  0  0  0  0  0  0  0  0  0  0
  1 53  1  0  0  0  0
  1  2  2  0  0  0  0
  2 52  1  0  0  0  0
  3 52  1  0  0  0  0
  3 37  1  6  0  0  0
  4 13  1  0  0  0  0
  5  4  1  0  0  0  0
  6  4  2  0  0  0  0
  6  8  1  0  0  0  0
  7  6  1  0  0  0  0
  8  9  2  0  0  0  0
  9 11  1  0  0  0  0
  9 10  1  0  0  0  0
 11 12  1  0  0  0  0
 13  2  1  0  0  0  0
 13 11  2  0  0  0  0
 14 53  1  0  0  0  0
 14 16  1  0  0  0  0
 15 14  1  0  0  0  0
 17 14  1  0  0  0  0
 17 18  1  0  0  0  0
 18 19  1  0  0  0  0
 20 18  2  0  0  0  0
 20 21  1  0  0  0  0
 22 20  1  0  0  0  0
 23 25  1  0  0  0  0
 23 22  2  0  0  0  0
 24 23  1  0  0  0  0
 25 17  2  0  0  0  0
 26 25  1  0  0  0  0
 27 54  1  0  0  0  0
 27 28  1  0  0  0  0
 29 27  1  0  0  0  0
 30 29  1  0  0  0  0
 31 33  1  0  0  0  0
 31 29  2  0  0  0  0
 32 31  1  0  0  0  0
 33 35  2  0  0  0  0
 34 33  1  0  0  0  0
 35 36  1  0  0  0  0
 35 54  1  0  0  0  0
 37 39  2  0  0  0  0
 38 37  1  0  0  0  0
 39 41  1  0  0  0  0
 39 40  1  0  0  0  0
 41 42  1  0  0  0  0
 43 41  2  0  0  0  0
 44 43  1  0  0  0  0
 45 47  1  0  0  0  0
 45 55  1  0  0  0  0
 46 45  1  0  0  0  0
 48 45  1  0  0  0  0
 50 56  1  0  0  0  0
 51 22  1  0  0  0  0
 52 43  1  0  0  0  0
 53  3  1  0  0  0  0
 54 56  1  0  0  0  0
 55  8  1  0  0  0  0
 56 49  1  0  0  0  0
 56  1  1  0  0  0  0
M  END
$$$$
