CSD_code = AFAPEC | q = 0 | S = 0 | Stoichiometry = C6H11Cl3N2O4Pt | MND = 6
 OpenBabel04212201593D

 27 28  0  0  1  0  0  0  0  0999 V2000
    3.0536    0.4391    3.1704 Pt  0  0  0  0  0  0  0  0  0  0  0  0
    2.5825    2.3908    4.2716 Cl  0  0  0  0  0  0  0  0  0  0  0  0
    5.2803    0.9484    3.0683 Cl  0  0  0  0  0  0  0  0  0  0  0  0
    3.3829   -0.6918    5.1518 Cl  0  0  0  0  0  0  0  0  0  0  0  0
    2.5920    1.2474    1.3009 O   0  0  0  0  0  0  0  0  0  0  0  0
    0.9303    1.2543   -0.1510 O   0  0  0  0  0  0  0  0  0  0  0  0
    6.6343   -1.1588    0.9074 O   0  0  0  0  0  0  0  0  0  0  0  0
    5.7751   -2.3075    2.6281 O   0  0  0  0  0  0  0  0  0  0  0  0
    0.9891   -0.0833    3.1338 N   0  0  2  0  0  4  0  0  0  0  0  0
    3.2932   -1.4365    2.1024 N   0  0  0  0  0  4  0  0  0  0  0  0
    0.9453   -1.5121    2.7994 C   0  0  0  0  0  0  0  0  0  0  0  0
    1.9459   -1.8335    1.6860 C   0  0  0  0  0  0  0  0  0  0  0  0
    0.3773    0.8078    2.1447 C   0  0  0  0  0  0  0  0  0  0  0  0
    1.3619    1.1350    0.9715 C   0  0  0  0  0  0  0  0  0  0  0  0
    4.2751   -1.3696    1.0244 C   0  0  0  0  0  0  0  0  0  0  0  0
    5.6481   -1.6470    1.6326 C   0  0  0  0  0  0  0  0  0  0  0  0
    0.5716    0.0673    4.0528 H   0  0  0  0  0  0  0  0  0  0  0  0
    3.6689   -2.0846    2.8115 H   0  0  0  0  0  0  0  0  0  0  0  0
    1.2153   -2.0727    3.6999 H   0  0  0  0  0  0  0  0  0  0  0  0
   -0.0629   -1.8049    2.4810 H   0  0  0  0  0  0  0  0  0  0  0  0
    1.6860   -1.2786    0.7793 H   0  0  0  0  0  0  0  0  0  0  0  0
    1.9063   -2.9049    1.4546 H   0  0  0  0  0  0  0  0  0  0  0  0
   -0.5437    0.3866    1.7289 H   0  0  0  0  0  0  0  0  0  0  0  0
    0.1503    1.7655    2.6206 H   0  0  0  0  0  0  0  0  0  0  0  0
    4.0849   -2.1412    0.2665 H   0  0  0  0  0  0  0  0  0  0  0  0
    4.2639   -0.3887    0.5404 H   0  0  0  0  0  0  0  0  0  0  0  0
    7.4929   -1.3017    1.3377 H   0  0  0  0  0  0  0  0  0  0  0  0
  1  2  1  0  0  0  0
  1  4  1  0  0  0  0
  3  1  1  0  0  0  0
  5  1  1  0  0  0  0
  6 14  2  0  0  0  0
  7 27  1  0  0  0  0
  7 16  1  0  0  0  0
  9  1  1  0  0  0  0
  9 17  1  1  0  0  0
 10 18  1  0  0  0  0
 10  1  1  0  0  0  0
 11  9  1  0  0  0  0
 11 19  1  0  0  0  0
 12 10  1  0  0  0  0
 12 11  1  0  0  0  0
 13 24  1  0  0  0  0
 13  9  1  0  0  0  0
 14  5  1  0  0  0  0
 14 13  1  0  0  0  0
 15 16  1  0  0  0  0
 15 10  1  0  0  0  0
 16  8  2  0  0  0  0
 20 11  1  0  0  0  0
 21 12  1  0  0  0  0
 22 12  1  0  0  0  0
 23 13  1  0  0  0  0
 25 15  1  0  0  0  0
 26 15  1  0  0  0  0
M  END
$$$$
