CSD_code = AFAPOM | q = 0 | S = 0 | Stoichiometry = C6H10Cl2N2O4Pt | MND = 6
 OpenBabel04212201593D

 25 27  0  0  1  0  0  0  0  0999 V2000
   11.1082    1.3179    0.6052 Pt  0  0  0  0  0  0  0  0  0  0  0  0
    9.2822    0.0258    1.0508 Cl  0  0  0  0  0  0  0  0  0  0  0  0
   12.0529   -0.2721   -0.7310 Cl  0  0  0  0  0  0  0  0  0  0  0  0
   12.0071    0.6948    2.3090 O   0  0  0  0  0  0  0  0  0  0  0  0
   12.4268    1.3926    4.3607 O   0  0  0  0  0  0  0  0  0  0  0  0
   10.3029    2.2406   -1.0071 O   0  0  0  0  0  0  0  0  0  0  0  0
   10.6343    4.0005   -2.2979 O   0  0  0  0  0  0  0  0  0  0  0  0
   10.3717    2.8903    1.8692 N   0  0  2  0  0  4  0  0  0  0  0  0
   12.7416    2.6651    0.2419 N   0  0  2  0  0  4  0  0  0  0  0  0
   11.1656    4.0775    1.5242 C   0  0  0  0  0  0  0  0  0  0  0  0
   12.6318    3.7037    1.2754 C   0  0  0  0  0  0  0  0  0  0  0  0
   10.5525    2.3855    3.2336 C   0  0  0  0  0  0  0  0  0  0  0  0
   11.7771    1.4198    3.3454 C   0  0  0  0  0  0  0  0  0  0  0  0
   12.5458    3.1245   -1.1363 C   0  0  0  0  0  0  0  0  0  0  0  0
   11.0346    3.1555   -1.5365 C   0  0  0  0  0  0  0  0  0  0  0  0
    9.3840    3.0703    1.6891 H   0  0  0  0  0  0  0  0  0  0  0  0
   13.6371    2.1844    0.3284 H   0  0  0  0  0  0  0  0  0  0  0  0
   10.7422    4.5233    0.6190 H   0  0  0  0  0  0  0  0  0  0  0  0
   11.1180    4.8214    2.3295 H   0  0  0  0  0  0  0  0  0  0  0  0
   13.0737    3.3179    2.1991 H   0  0  0  0  0  0  0  0  0  0  0  0
   13.1847    4.6040    0.9787 H   0  0  0  0  0  0  0  0  0  0  0  0
   10.6741    3.1968    3.9585 H   0  0  0  0  0  0  0  0  0  0  0  0
    9.6795    1.7877    3.5102 H   0  0  0  0  0  0  0  0  0  0  0  0
   12.9766    4.1170   -1.3032 H   0  0  0  0  0  0  0  0  0  0  0  0
   13.0167    2.4118   -1.8191 H   0  0  0  0  0  0  0  0  0  0  0  0
  1  2  1  0  0  0  0
  1  8  1  0  0  0  0
  1  4  1  0  0  0  0
  3  1  1  0  0  0  0
  4 13  1  0  0  0  0
  6  1  1  0  0  0  0
  7 15  2  0  0  0  0
  8 16  1  6  0  0  0
  8 12  1  0  0  0  0
  9 17  1  1  0  0  0
  9  1  1  0  0  0  0
  9 11  1  0  0  0  0
 10  8  1  0  0  0  0
 10 19  1  0  0  0  0
 11 10  1  0  0  0  0
 11 20  1  0  0  0  0
 12 13  1  0  0  0  0
 12 23  1  0  0  0  0
 12 22  1  0  0  0  0
 13  5  2  0  0  0  0
 14  9  1  0  0  0  0
 15 14  1  0  0  0  0
 15  6  1  0  0  0  0
 18 10  1  0  0  0  0
 21 11  1  0  0  0  0
 24 14  1  0  0  0  0
 25 14  1  0  0  0  0
M  END
$$$$
