CSD_code = AFAPIG | q = 0 | S = 0 | Stoichiometry = C6H10Cl2N2O4Pt | MND = 6
 OpenBabel04212201593D

 25 27  0  0  1  0  0  0  0  0999 V2000
   -1.8679    8.3617   13.8072 Pt  0  0  0  0  0  0  0  0  0  0  0  0
   -1.1871    8.3869   15.9840 Cl  0  0  0  0  0  0  0  0  0  0  0  0
   -2.6034   10.5198   13.8888 Cl  0  0  0  0  0  0  0  0  0  0  0  0
   -3.6404    7.5367   14.3342 O   0  0  0  0  0  0  0  0  0  0  0  0
   -4.6721    5.5849   14.3297 O   0  0  0  0  0  0  0  0  0  0  0  0
   -0.0911    8.9604   13.0430 O   0  0  0  0  0  0  0  0  0  0  0  0
    0.9858    9.0504   11.1177 O   0  0  0  0  0  0  0  0  0  0  0  0
   -1.2678    6.3115   13.5875 N   0  0  2  0  0  4  0  0  0  0  0  0
   -2.4162    8.2011   11.7368 N   0  0  2  0  0  4  0  0  0  0  0  0
   -1.2375    6.0630   12.1397 C   0  0  0  0  0  0  0  0  0  0  0  0
   -2.4079    6.7625   11.4380 C   0  0  0  0  0  0  0  0  0  0  0  0
   -2.2701    5.5492   14.3378 C   0  0  0  0  0  0  0  0  0  0  0  0
   -3.6672    6.2512   14.3328 C   0  0  0  0  0  0  0  0  0  0  0  0
   -1.4144    8.9991   11.0238 C   0  0  0  0  0  0  0  0  0  0  0  0
   -0.0343    9.0046   11.7592 C   0  0  0  0  0  0  0  0  0  0  0  0
   -0.3406    6.1580   13.9840 H   0  0  0  0  0  0  0  0  0  0  0  0
   -3.3486    8.5823   11.5762 H   0  0  0  0  0  0  0  0  0  0  0  0
   -0.2917    6.4462   11.7447 H   0  0  0  0  0  0  0  0  0  0  0  0
   -1.2874    4.9868   11.9313 H   0  0  0  0  0  0  0  0  0  0  0  0
   -3.3527    6.3334   11.7853 H   0  0  0  0  0  0  0  0  0  0  0  0
   -2.3292    6.5929   10.3567 H   0  0  0  0  0  0  0  0  0  0  0  0
   -2.3835    4.5305   13.9531 H   0  0  0  0  0  0  0  0  0  0  0  0
   -1.9683    5.5027   15.3880 H   0  0  0  0  0  0  0  0  0  0  0  0
   -1.2667    8.6498    9.9967 H   0  0  0  0  0  0  0  0  0  0  0  0
   -1.7405   10.0428   11.0024 H   0  0  0  0  0  0  0  0  0  0  0  0
  1  3  1  0  0  0  0
  1  4  1  0  0  0  0
  1  2  1  0  0  0  0
  5 13  2  0  0  0  0
  6  1  1  0  0  0  0
  7 15  2  0  0  0  0
  8  1  1  0  0  0  0
  8 16  1  1  0  0  0
  8 12  1  0  0  0  0
  9 17  1  6  0  0  0
  9  1  1  0  0  0  0
 10  8  1  0  0  0  0
 11  9  1  0  0  0  0
 11 20  1  0  0  0  0
 11 10  1  0  0  0  0
 12 23  1  0  0  0  0
 13  4  1  0  0  0  0
 13 12  1  0  0  0  0
 14  9  1  0  0  0  0
 14 15  1  0  0  0  0
 15  6  1  0  0  0  0
 18 10  1  0  0  0  0
 19 10  1  0  0  0  0
 21 11  1  0  0  0  0
 22 12  1  0  0  0  0
 24 14  1  0  0  0  0
 25 14  1  0  0  0  0
M  END
$$$$
