CSD_code = AFELUU | q = 0 | S = 0 | Stoichiometry = C22H38Cl2N6S2Zn | MND = 4
 OpenBabel04212201593D

 71 74  0  0  1  0  0  0  0  0999 V2000
    6.7319    7.8682    3.9563 Zn  0  0  0  0  0  0  0  0  0  0  0  0
    4.6633    8.7134    3.5731 Cl  0  0  0  0  0  0  0  0  0  0  0  0
    8.2101    9.3754    4.7428 Cl  0  0  0  0  0  0  0  0  0  0  0  0
    6.3768    5.6112    4.9987 S   0  0  0  0  0  0  0  0  0  0  0  0
    7.4787    7.2678    1.5397 S   0  0  0  0  0  0  0  0  0  0  0  0
    5.0597    3.6072    3.9582 N   0  0  0  0  0  4  0  0  0  0  0  0
    4.3563    3.2296    3.3412 H   0  0  0  0  0  0  0  0  0  0  0  0
    5.5384    3.0432    4.6363 H   0  0  0  0  0  0  0  0  0  0  0  0
    4.5990    5.6342    3.0163 N   0  0  0  0  0  0  0  0  0  0  0  0
    4.6427    6.6634    3.0176 H   0  0  0  0  0  0  0  0  0  0  0  0
    3.7477    4.9817    2.1615 N   0  0  0  0  0  0  0  0  0  0  0  0
    8.9385    8.4140   -0.2925 N   0  0  0  0  0  4  0  0  0  0  0  0
    9.6129    9.1049   -0.5870 H   0  0  0  0  0  0  0  0  0  0  0  0
    8.6187    7.6793   -0.8958 H   0  0  0  0  0  0  0  0  0  0  0  0
    9.0552    9.4111    1.7550 N   0  0  0  0  0  0  0  0  0  0  0  0
    8.8069    9.4846    2.7557 H   0  0  0  0  0  0  0  0  0  0  0  0
    9.9364   10.2868    1.1746 N   0  0  0  0  0  0  0  0  0  0  0  0
    5.2674    4.9261    3.9199 C   0  0  0  0  0  0  0  0  0  0  0  0
    8.5572    8.4423    0.9893 C   0  0  0  0  0  0  0  0  0  0  0  0
    3.2529    5.6299    1.1901 C   0  0  0  0  0  0  0  0  0  0  0  0
    2.3305    4.9987    0.1834 C   0  0  1  0  0  0  0  0  0  0  0  0
    1.4301    6.2117   -0.1711 C   0  0  0  0  0  0  0  0  0  0  0  0
    2.6293    7.1236   -0.5088 C   0  0  1  0  0  0  0  0  0  0  0  0
    2.3800    8.1358   -0.8219 H   0  0  0  0  0  0  0  0  0  0  0  0
    3.4683    7.0552    0.7709 C   0  0  0  0  0  0  0  0  0  0  0  0
    4.5278    7.2588    0.5967 H   0  0  0  0  0  0  0  0  0  0  0  0
    3.1351    7.7606    1.5334 H   0  0  0  0  0  0  0  0  0  0  0  0
    3.3897    6.3122   -1.5666 C   0  0  0  0  0  0  0  0  0  0  0  0
    4.4376    6.6079   -1.6089 H   0  0  0  0  0  0  0  0  0  0  0  0
    2.9663    6.4578   -2.5597 H   0  0  0  0  0  0  0  0  0  0  0  0
    3.2190    4.8625   -1.0769 C   0  0  0  0  0  0  0  0  0  0  0  0
    4.1716    4.3961   -0.8263 H   0  0  0  0  0  0  0  0  0  0  0  0
    2.7251    4.2332   -1.8165 H   0  0  0  0  0  0  0  0  0  0  0  0
    1.6662    3.7113    0.6231 C   0  0  0  0  0  0  0  0  0  0  0  0
    2.4209    2.9527    0.8138 H   0  0  0  0  0  0  0  0  0  0  0  0
    0.9940    3.3487   -0.1507 H   0  0  0  0  0  0  0  0  0  0  0  0
    1.1008    3.8706    1.5372 H   0  0  0  0  0  0  0  0  0  0  0  0
    0.5987    6.7052    1.0139 C   0  0  0  0  0  0  0  0  0  0  0  0
    0.2382    7.7132    0.8193 H   0  0  0  0  0  0  0  0  0  0  0  0
    1.1636    6.7156    1.9409 H   0  0  0  0  0  0  0  0  0  0  0  0
   -0.2653    6.0598    1.1575 H   0  0  0  0  0  0  0  0  0  0  0  0
    0.4752    5.9837   -1.3397 C   0  0  0  0  0  0  0  0  0  0  0  0
   -0.3091    5.2873   -1.0507 H   0  0  0  0  0  0  0  0  0  0  0  0
    0.9696    5.5888   -2.2200 H   0  0  0  0  0  0  0  0  0  0  0  0
    0.0043    6.9271   -1.6088 H   0  0  0  0  0  0  0  0  0  0  0  0
   10.3931   11.2649    1.8387 C   0  0  0  0  0  0  0  0  0  0  0  0
   11.3982   12.2203    1.2512 C   0  0  1  0  0  0  0  0  0  0  0  0
   10.9693   13.5408    1.9429 C   0  0  0  0  0  0  0  0  0  0  0  0
   11.0422   12.9316    3.3599 C   0  0  1  0  0  0  0  0  0  0  0  0
   10.7866   13.6030    4.1774 H   0  0  0  0  0  0  0  0  0  0  0  0
   10.1247   11.7099    3.2469 C   0  0  0  0  0  0  0  0  0  0  0  0
   10.3586   10.9329    3.9763 H   0  0  0  0  0  0  0  0  0  0  0  0
    9.0725   11.9589    3.3910 H   0  0  0  0  0  0  0  0  0  0  0  0
   12.4751   12.3866    3.4245 C   0  0  0  0  0  0  0  0  0  0  0  0
   12.5610   11.5963    4.1693 H   0  0  0  0  0  0  0  0  0  0  0  0
   13.1859   13.1674    3.6918 H   0  0  0  0  0  0  0  0  0  0  0  0
   12.7079   11.8634    1.9951 C   0  0  0  0  0  0  0  0  0  0  0  0
   13.5562   12.3476    1.5124 H   0  0  0  0  0  0  0  0  0  0  0  0
   12.8830   10.7880    1.9711 H   0  0  0  0  0  0  0  0  0  0  0  0
   11.5114   12.2007   -0.2586 C   0  0  0  0  0  0  0  0  0  0  0  0
   12.2336   12.9412   -0.5933 H   0  0  0  0  0  0  0  0  0  0  0  0
   10.5479   12.4151   -0.7131 H   0  0  0  0  0  0  0  0  0  0  0  0
   11.8390   11.2190   -0.5914 H   0  0  0  0  0  0  0  0  0  0  0  0
    9.5659   13.9972    1.5407 C   0  0  0  0  0  0  0  0  0  0  0  0
    8.8653   13.1703    1.4733 H   0  0  0  0  0  0  0  0  0  0  0  0
    9.5970   14.4863    0.5693 H   0  0  0  0  0  0  0  0  0  0  0  0
    9.1865   14.7134    2.2667 H   0  0  0  0  0  0  0  0  0  0  0  0
   11.9154   14.7183    1.7241 C   0  0  0  0  0  0  0  0  0  0  0  0
   11.6151   15.5449    2.3649 H   0  0  0  0  0  0  0  0  0  0  0  0
   11.8590   15.0560    0.6913 H   0  0  0  0  0  0  0  0  0  0  0  0
   12.9490   14.4775    1.9444 H   0  0  0  0  0  0  0  0  0  0  0  0
  1  3  1  0  0  0  0
  1  4  1  0  0  0  0
  2  1  1  0  0  0  0
  5  1  1  0  0  0  0
  6  8  1  0  0  0  0
  7  6  1  0  0  0  0
  9 10  1  0  0  0  0
  9 18  1  0  0  0  0
 11  9  1  0  0  0  0
 12 19  2  0  0  0  0
 13 12  1  0  0  0  0
 14 12  1  0  0  0  0
 15 16  1  0  0  0  0
 17 15  1  0  0  0  0
 17 46  2  0  0  0  0
 18  6  2  0  0  0  0
 18  4  1  0  0  0  0
 19  5  1  0  0  0  0
 19 15  1  0  0  0  0
 20 11  2  0  0  0  0
 21 34  1  1  0  0  0
 21 20  1  0  0  0  0
 22 21  1  0  0  0  0
 22 38  1  0  0  0  0
 23 24  1  6  0  0  0
 23 22  1  0  0  0  0
 23 25  1  0  0  0  0
 25 20  1  0  0  0  0
 25 27  1  0  0  0  0
 26 25  1  0  0  0  0
 28 31  1  0  0  0  0
 28 23  1  0  0  0  0
 29 28  1  0  0  0  0
 30 28  1  0  0  0  0
 31 32  1  0  0  0  0
 31 21  1  0  0  0  0
 33 31  1  0  0  0  0
 34 35  1  0  0  0  0
 34 37  1  0  0  0  0
 36 34  1  0  0  0  0
 38 41  1  0  0  0  0
 38 40  1  0  0  0  0
 39 38  1  0  0  0  0
 42 43  1  0  0  0  0
 42 22  1  0  0  0  0
 44 42  1  0  0  0  0
 45 42  1  0  0  0  0
 46 51  1  0  0  0  0
 47 60  1  6  0  0  0
 47 46  1  0  0  0  0
 47 48  1  0  0  0  0
 47 57  1  0  0  0  0
 48 49  1  0  0  0  0
 49 54  1  0  0  0  0
 49 50  1  1  0  0  0
 51 49  1  0  0  0  0
 51 53  1  0  0  0  0
 51 52  1  0  0  0  0
 54 56  1  0  0  0  0
 54 55  1  0  0  0  0
 57 54  1  0  0  0  0
 58 57  1  0  0  0  0
 59 57  1  0  0  0  0
 61 60  1  0  0  0  0
 62 60  1  0  0  0  0
 63 60  1  0  0  0  0
 64 48  1  0  0  0  0
 64 67  1  0  0  0  0
 65 64  1  0  0  0  0
 66 64  1  0  0  0  0
 68 48  1  0  0  0  0
 68 71  1  0  0  0  0
 68 69  1  0  0  0  0
 70 68  1  0  0  0  0
M  END
$$$$
