CSD_code = AFIBID | q = 0 | S = 0 | Stoichiometry = C12H12Cl2N2O3Zn | MND = 5
 OpenBabel04212201593D

 32 34  0  0  1  0  0  0  0  0999 V2000
   10.1076    1.5918    2.5972 Zn  0  0  0  0  0  0  0  0  0  0  0  0
    9.0539    1.1339    0.6469 Cl  0  0  0  0  0  0  0  0  0  0  0  0
   10.3712   -0.6692    3.1849 O   0  0  0  0  0  0  0  0  0  0  0  0
    8.6645   -1.5585    1.8580 O   0  0  0  0  0  0  0  0  0  0  0  0
    8.6437   -0.7252    1.3155 H   0  0  0  0  0  0  0  0  0  0  0  0
    8.4657    0.9942    3.8424 N   0  0  0  0  0  0  0  0  0  0  0  0
    7.6444    1.8748    4.4002 C   0  0  0  0  0  3  0  0  0  0  0  0
    7.9859    2.9008    4.3984 H   0  0  0  0  0  0  0  0  0  0  0  0
    6.4275    1.5108    4.9497 C   0  0  0  0  0  0  0  0  0  0  0  0
    5.7861    2.2580    5.3886 H   0  0  0  0  0  0  0  0  0  0  0  0
    6.0555    0.1757    4.9127 C   0  0  0  0  0  0  0  0  0  0  0  0
    5.1092   -0.1458    5.3208 H   0  0  0  0  0  0  0  0  0  0  0  0
    6.9229   -0.7425    4.3448 C   0  0  0  0  0  0  0  0  0  0  0  0
    6.6786   -1.7915    4.2922 H   0  0  0  0  0  0  0  0  0  0  0  0
    8.1256   -0.2894    3.8206 C   0  0  0  0  0  0  0  0  0  0  0  0
    9.0702   -1.2606    3.1328 C   0  0  2  0  0  0  0  0  0  0  0  0
    9.0953   -2.2153    3.6850 H   0  0  0  0  0  0  0  0  0  0  0  0
   11.9443   -2.3584    3.1805 O   0  0  0  0  0  0  0  0  0  0  0  0
   12.2893   -2.0012    4.0095 H   0  0  0  0  0  0  0  0  0  0  0  0
   12.0938    0.9771    2.0470 N   0  0  0  0  0  0  0  0  0  0  0  0
   12.9897    1.8736    1.6507 C   0  0  0  0  0  3  0  0  0  0  0  0
   12.6890    2.9084    1.7390 H   0  0  0  0  0  0  0  0  0  0  0  0
   14.2355    1.5161    1.1661 C   0  0  0  0  0  0  0  0  0  0  0  0
   14.9315    2.2764    0.8508 H   0  0  0  0  0  0  0  0  0  0  0  0
   14.5606    0.1698    1.0972 C   0  0  0  0  0  0  0  0  0  0  0  0
   15.5217   -0.1492    0.7232 H   0  0  0  0  0  0  0  0  0  0  0  0
   13.6280   -0.7619    1.5191 C   0  0  0  0  0  0  0  0  0  0  0  0
   13.8287   -1.8214    1.4946 H   0  0  0  0  0  0  0  0  0  0  0  0
   12.3991   -0.3127    1.9856 C   0  0  0  0  0  0  0  0  0  0  0  0
   11.3652   -1.3268    2.4435 C   0  0  2  0  0  0  0  0  0  0  0  0
   10.9163   -1.8076    1.5591 H   0  0  0  0  0  0  0  0  0  0  0  0
   10.5421    3.6025    3.3904 Cl  0  0  0  0  0  0  0  0  0  0  0  0
  1 32  1  0  0  0  0
  1  6  1  0  0  0  0
  2  1  1  0  0  0  0
  4 16  1  0  0  0  0
  5  4  1  0  0  0  0
  6  7  1  0  0  0  0
  7  9  1  0  0  0  0
  8  7  1  0  0  0  0
  9 10  1  0  0  0  0
 11  9  2  0  0  0  0
 11 12  1  0  0  0  0
 13 11  1  0  0  0  0
 14 13  1  0  0  0  0
 15  6  1  0  0  0  0
 15 13  2  0  0  0  0
 16  3  1  0  0  0  0
 16 17  1  1  0  0  0
 16 15  1  0  0  0  0
 18 19  1  0  0  0  0
 20  1  1  0  0  0  0
 21 22  1  0  0  0  0
 21 20  1  0  0  0  0
 23 21  1  0  0  0  0
 24 23  1  0  0  0  0
 25 23  2  0  0  0  0
 25 27  1  0  0  0  0
 26 25  1  0  0  0  0
 27 29  2  0  0  0  0
 28 27  1  0  0  0  0
 29 20  1  0  0  0  0
 29 30  1  0  0  0  0
 30 31  1  6  0  0  0
 30 18  1  0  0  0  0
 30  3  1  0  0  0  0
M  END
$$$$
