CSD_code = AFIGEB | q = 0 | S = 0 | Stoichiometry = C23H37BClN6Nb | MND = 7
 OpenBabel04212201593D

 69 68  0  0  0  0  0  0  0  0999 V2000
    7.9739    3.0424    9.8965 Nb  0  0  0  0  0  0  0  0  0  0  0  0
    6.5955    4.4427   11.1829 Cl  0  0  0  0  0 15  0  0  0  0  0  0
    6.0079    2.2135    8.9149 N   0  0  0  0  0  0  0  0  0  0  0  0
    5.9652    0.8984    8.6100 N   0  0  0  0  0  0  0  0  0  0  0  0
    8.9589    1.2332    8.8187 N   0  0  0  0  0  0  0  0  0  0  0  0
    8.3271    0.0453    8.7829 N   0  0  0  0  0  0  0  0  0  0  0  0
    7.3142    1.1964   11.3268 N   0  0  0  0  0  0  0  0  0  0  0  0
    6.8386    0.0669   10.7862 N   0  0  0  0  0  0  0  0  0  0  0  0
    8.4229    4.1252    7.8883 C   0  0  0  0  0  3  0  0  0  0  0  0
    7.8990    5.5665    7.9515 C   0  0  0  0  0  0  0  0  0  0  0  0
    7.8838    3.4203    6.6351 C   0  0  0  0  0  0  0  0  0  0  0  0
   10.3164    5.5100   10.8213 C   0  0  0  0  0  0  0  0  0  0  0  0
    9.6283    4.2013   10.6352 C   0  0  0  0  0  3  0  0  0  0  0  0
    9.7899    2.9710   11.0228 C   0  0  0  0  0  0  0  0  0  0  0  0
   10.7512    2.1562   11.8171 C   0  0  0  0  0  0  0  0  0  0  0  0
    4.9346    2.7866    8.3722 C   0  0  0  0  0  0  0  0  0  0  0  0
    4.1947    1.8219    7.6823 C   0  0  0  0  0  0  0  0  0  0  0  0
    4.8793    0.6361    7.8558 C   0  0  0  0  0  0  0  0  0  0  0  0
    8.4202    4.0053    5.3246 C   0  0  0  0  0  0  0  0  0  0  0  0
   10.1890    1.0491    8.3320 C   0  0  0  0  0  0  0  0  0  0  0  0
   10.3468   -0.2921    7.9801 C   0  0  0  0  0  0  0  0  0  0  0  0
    9.1432   -0.9006    8.2839 C   0  0  0  0  0  0  0  0  0  0  0  0
    7.1080    1.1516   12.6372 C   0  0  0  0  0  0  0  0  0  0  0  0
    6.4828   -0.0602   12.9548 C   0  0  0  0  0  0  0  0  0  0  0  0
    6.3250   -0.7221   11.7514 C   0  0  0  0  0  0  0  0  0  0  0  0
    4.5609    4.2200    8.5106 C   0  0  0  0  0  0  0  0  0  0  0  0
    4.5293   -0.7027    7.3119 C   0  0  0  0  0  0  0  0  0  0  0  0
   11.2167    2.1128    8.1649 C   0  0  0  0  0  0  0  0  0  0  0  0
    8.7797   -2.3321    8.1168 C   0  0  0  0  0  0  0  0  0  0  0  0
    7.4771    2.2554   13.5650 C   0  0  0  0  0  0  0  0  0  0  0  0
    5.7064   -2.0508   11.5020 C   0  0  0  0  0  0  0  0  0  0  0  0
    6.8825   -0.1467    9.2677 B   0  0  0  0  0  0  0  0  0  0  0  0
    6.5104   -1.2319    9.0000 H   0  0  0  0  0  0  0  0  0  0  0  0
    9.5107    4.2094    7.7384 H   0  0  0  0  0  0  0  0  0  0  0  0
    8.1882    6.0470    8.8867 H   0  0  0  0  0  0  0  0  0  0  0  0
    6.8142    5.5917    7.8765 H   0  0  0  0  0  0  0  0  0  0  0  0
    8.3026    6.1693    7.1332 H   0  0  0  0  0  0  0  0  0  0  0  0
    8.1633    2.3597    6.6625 H   0  0  0  0  0  0  0  0  0  0  0  0
    6.7917    3.4768    6.6119 H   0  0  0  0  0  0  0  0  0  0  0  0
   11.2000    5.3971   11.4543 H   0  0  0  0  0  0  0  0  0  0  0  0
    9.6339    6.2212   11.2895 H   0  0  0  0  0  0  0  0  0  0  0  0
   10.6212    5.9219    9.8588 H   0  0  0  0  0  0  0  0  0  0  0  0
   11.4392    2.7982   12.3725 H   0  0  0  0  0  0  0  0  0  0  0  0
   10.2251    1.5085   12.5188 H   0  0  0  0  0  0  0  0  0  0  0  0
   11.3319    1.5163   11.1501 H   0  0  0  0  0  0  0  0  0  0  0  0
    3.2853    1.9742    7.1368 H   0  0  0  0  0  0  0  0  0  0  0  0
    8.0735    3.4174    4.4762 H   0  0  0  0  0  0  0  0  0  0  0  0
    9.5089    4.0008    5.3211 H   0  0  0  0  0  0  0  0  0  0  0  0
    8.0811    5.0285    5.1860 H   0  0  0  0  0  0  0  0  0  0  0  0
   11.2187   -0.7535    7.5628 H   0  0  0  0  0  0  0  0  0  0  0  0
    6.1843   -0.4008   13.9258 H   0  0  0  0  0  0  0  0  0  0  0  0
    5.1811    4.7150    9.2536 H   0  0  0  0  0  0  0  0  0  0  0  0
    3.5184    4.2895    8.8199 H   0  0  0  0  0  0  0  0  0  0  0  0
    4.6552    4.7329    7.5527 H   0  0  0  0  0  0  0  0  0  0  0  0
    3.6696   -0.6075    6.6536 H   0  0  0  0  0  0  0  0  0  0  0  0
    4.2800   -1.3972    8.1125 H   0  0  0  0  0  0  0  0  0  0  0  0
    5.3620   -1.1190    6.7483 H   0  0  0  0  0  0  0  0  0  0  0  0
   11.0880    2.8989    8.9066 H   0  0  0  0  0  0  0  0  0  0  0  0
   12.2088    1.6755    8.2596 H   0  0  0  0  0  0  0  0  0  0  0  0
   11.1370    2.5512    7.1702 H   0  0  0  0  0  0  0  0  0  0  0  0
    9.6252   -2.8702    7.6966 H   0  0  0  0  0  0  0  0  0  0  0  0
    8.5200   -2.7773    9.0752 H   0  0  0  0  0  0  0  0  0  0  0  0
    7.9265   -2.4419    7.4502 H   0  0  0  0  0  0  0  0  0  0  0  0
    8.1975    2.9288   13.0992 H   0  0  0  0  0  0  0  0  0  0  0  0
    7.8925    1.8509   14.4869 H   0  0  0  0  0  0  0  0  0  0  0  0
    6.5883    2.8350   13.8185 H   0  0  0  0  0  0  0  0  0  0  0  0
    5.4025   -2.4911   12.4479 H   0  0  0  0  0  0  0  0  0  0  0  0
    6.4097   -2.7209   11.0106 H   0  0  0  0  0  0  0  0  0  0  0  0
    4.8300   -1.9525   10.8633 H   0  0  0  0  0  0  0  0  0  0  0  0
  1 14  1  0  0  0  0
  4  3  1  0  0  0  0
  4 32  1  0  0  0  0
  6  5  1  0  0  0  0
  6 32  1  0  0  0  0
  7 23  2  0  0  0  0
  8  7  1  0  0  0  0
  8 25  1  0  0  0  0
  9 10  1  0  0  0  0
 10 35  1  0  0  0  0
 11 38  1  0  0  0  0
 11  9  1  0  0  0  0
 12 41  1  0  0  0  0
 12 40  1  0  0  0  0
 13 12  1  0  0  0  0
 13 14  2  0  0  0  0
 14 15  1  0  0  0  0
 15 43  1  0  0  0  0
 15 44  1  0  0  0  0
 16 26  1  0  0  0  0
 16  3  2  0  0  0  0
 17 18  2  0  0  0  0
 17 16  1  0  0  0  0
 18  4  1  0  0  0  0
 19 11  1  0  0  0  0
 20  5  2  0  0  0  0
 21 22  2  0  0  0  0
 21 20  1  0  0  0  0
 22  6  1  0  0  0  0
 23 24  1  0  0  0  0
 23 30  1  0  0  0  0
 24 51  1  0  0  0  0
 25 24  2  0  0  0  0
 26 53  1  0  0  0  0
 26 52  1  0  0  0  0
 27 18  1  0  0  0  0
 27 56  1  0  0  0  0
 28 59  1  0  0  0  0
 28 20  1  0  0  0  0
 28 58  1  0  0  0  0
 29 22  1  0  0  0  0
 29 62  1  0  0  0  0
 30 66  1  0  0  0  0
 30 65  1  0  0  0  0
 31 25  1  0  0  0  0
 31 67  1  0  0  0  0
 32  8  1  0  0  0  0
 33 32  1  0  0  0  0
 34  9  1  0  0  0  0
 36 10  1  0  0  0  0
 37 10  1  0  0  0  0
 39 11  1  0  0  0  0
 42 12  1  0  0  0  0
 45 15  1  0  0  0  0
 46 17  1  0  0  0  0
 47 19  1  0  0  0  0
 48 19  1  0  0  0  0
 49 19  1  0  0  0  0
 50 21  1  0  0  0  0
 54 26  1  0  0  0  0
 55 27  1  0  0  0  0
 57 27  1  0  0  0  0
 60 28  1  0  0  0  0
 61 29  1  0  0  0  0
 63 29  1  0  0  0  0
 64 30  1  0  0  0  0
 68 31  1  0  0  0  0
 69 31  1  0  0  0  0
M  END
$$$$
