CSD_code = AFIPEL | q = 0 | S = 0 | Stoichiometry = C16H21IN2Pt | MND = 4
 OpenBabel04212201593D

 41 43  0  0  1  0  0  0  0  0999 V2000
    9.9273    5.1872    2.7221 Pt  0  0  2  0  0  0  0  0  0  0  0  0
   12.1189    6.0157    1.4895 I   0  0  0  0  0  0  0  0  0  0  0  0
    8.7368    6.4610    1.6214 N   0  0  0  0  0  4  0  0  0  0  0  0
    8.5117    7.2836    2.1902 H   0  0  0  0  0  0  0  0  0  0  0  0
    9.2053    6.7854    0.7696 H   0  0  0  0  0  0  0  0  0  0  0  0
   11.0134    3.8143    3.8636 N   0  0  0  0  0  4  0  0  0  0  0  0
   10.3778    3.1858    4.3604 H   0  0  0  0  0  0  0  0  0  0  0  0
   11.5588    3.2448    3.2071 H   0  0  0  0  0  0  0  0  0  0  0  0
    7.5096    5.7065    1.2971 C   0  0  2  0  0  0  0  0  0  0  0  0
    6.7201    6.3784    0.9283 H   0  0  0  0  0  0  0  0  0  0  0  0
    7.0875    5.0037    2.5652 C   0  0  0  0  0  0  0  0  0  0  0  0
    8.1221    4.6244    3.4350 C   0  0  0  0  0  0  0  0  0  0  0  0
    7.7555    3.9725    4.6068 C   0  0  0  0  0  0  0  0  0  0  0  0
    8.5009    3.6757    5.3354 H   0  0  0  0  0  0  0  0  0  0  0  0
    6.4282    3.6911    4.8927 C   0  0  0  0  0  0  0  0  0  0  0  0
    6.1752    3.1788    5.8108 H   0  0  0  0  0  0  0  0  0  0  0  0
    5.4282    4.0631    4.0132 C   0  0  0  0  0  0  0  0  0  0  0  0
    4.3949    3.8426    4.2374 H   0  0  0  0  0  0  0  0  0  0  0  0
    5.7604    4.7286    2.8459 C   0  0  0  0  0  0  0  0  0  0  0  0
    4.9873    5.0344    2.1535 H   0  0  0  0  0  0  0  0  0  0  0  0
    7.8614    4.6855    0.2156 C   0  0  0  0  0  0  0  0  0  0  0  0
    8.7045    4.0800    0.5623 H   0  0  0  0  0  0  0  0  0  0  0  0
    8.1372    5.1789   -0.7148 H   0  0  0  0  0  0  0  0  0  0  0  0
    7.0171    4.0279    0.0280 H   0  0  0  0  0  0  0  0  0  0  0  0
   11.9385    4.4357    4.8353 C   0  0  2  0  0  0  0  0  0  0  0  0
   12.7228    4.9401    4.2603 H   0  0  0  0  0  0  0  0  0  0  0  0
   12.5783    3.3973    5.7280 C   0  0  0  0  0  0  0  0  0  0  0  0
   11.8007    2.5495    6.5087 C   0  0  0  0  0  0  0  0  0  0  0  0
   10.7217    2.6240    6.4905 H   0  0  0  0  0  0  0  0  0  0  0  0
   12.3935    1.6067    7.3286 C   0  0  0  0  0  0  0  0  0  0  0  0
   11.7773    0.9559    7.9312 H   0  0  0  0  0  0  0  0  0  0  0  0
   13.7732    1.4997    7.3785 C   0  0  0  0  0  0  0  0  0  0  0  0
   14.2353    0.7651    8.0207 H   0  0  0  0  0  0  0  0  0  0  0  0
   14.5555    2.3388    6.6046 C   0  0  0  0  0  0  0  0  0  0  0  0
   15.6319    2.2602    6.6383 H   0  0  0  0  0  0  0  0  0  0  0  0
   13.9608    3.2802    5.7828 C   0  0  0  0  0  0  0  0  0  0  0  0
   14.5747    3.9319    5.1780 H   0  0  0  0  0  0  0  0  0  0  0  0
   11.1854    5.4891    5.6466 C   0  0  0  0  0  0  0  0  0  0  0  0
   10.7048    6.1948    4.9596 H   0  0  0  0  0  0  0  0  0  0  0  0
   11.8771    6.0341    6.2831 H   0  0  0  0  0  0  0  0  0  0  0  0
   10.4216    5.0352    6.2725 H   0  0  0  0  0  0  0  0  0  0  0  0
  1  2  1  6  0  0  0
  1 12  1  0  0  0  0
  1  6  1  0  0  0  0
  3  4  1  0  0  0  0
  3  1  1  0  0  0  0
  5  3  1  0  0  0  0
  6  7  1  0  0  0  0
  6 25  1  0  0  0  0
  8  6  1  0  0  0  0
  9 10  1  6  0  0  0
  9  3  1  0  0  0  0
  9 11  1  0  0  0  0
 11 19  2  0  0  0  0
 11 12  1  0  0  0  0
 12 13  2  0  0  0  0
 13 15  1  0  0  0  0
 13 14  1  0  0  0  0
 15 16  1  0  0  0  0
 17 18  1  0  0  0  0
 17 15  2  0  0  0  0
 19 17  1  0  0  0  0
 20 19  1  0  0  0  0
 21 22  1  0  0  0  0
 21  9  1  0  0  0  0
 23 21  1  0  0  0  0
 24 21  1  0  0  0  0
 25 26  1  6  0  0  0
 25 38  1  0  0  0  0
 25 27  1  0  0  0  0
 27 36  2  0  0  0  0
 27 28  1  0  0  0  0
 28 30  2  0  0  0  0
 29 28  1  0  0  0  0
 30 32  1  0  0  0  0
 30 31  1  0  0  0  0
 32 33  1  0  0  0  0
 34 35  1  0  0  0  0
 34 32  2  0  0  0  0
 36 34  1  0  0  0  0
 37 36  1  0  0  0  0
 38 41  1  0  0  0  0
 38 40  1  0  0  0  0
 39 38  1  0  0  0  0
M  END
$$$$
