CSD_code = AFOHIM | q = 0 | S = 0 | Stoichiometry = C19H19ClNPPd | MND = 4
 OpenBabel04212201593D

 42 45  0  0  0  0  0  0  0  0999 V2000
   12.4872    2.3983   11.9158 Pd  0  0  1  0  0  0  0  0  0  0  0  0
   12.6474    1.1071   10.1013 Cl  0  0  0  0  0  0  0  0  0  0  0  0
   10.9253    3.6877   10.7927 N   0  0  0  0  0  4  0  0  0  0  0  0
   10.9014    3.6450    9.7737 H   0  0  0  0  0  0  0  0  0  0  0  0
   10.2189    3.0407   11.1643 H   0  0  0  0  0  0  0  0  0  0  0  0
   13.7664    1.1659   12.9371 C   0  0  0  0  0  0  0  0  0  0  0  0
   13.1798    0.2831   13.2258 H   0  0  0  0  0  0  0  0  0  0  0  0
   14.1830    1.6450   13.8302 H   0  0  0  0  0  0  0  0  0  0  0  0
   14.5777    0.8581   12.2696 H   0  0  0  0  0  0  0  0  0  0  0  0
   12.2621    4.0307   13.4500 P   0  0  0  0  0  4  0  0  0  0  0  0
   11.2653    5.3028   12.5823 C   0  0  0  0  0  0  0  0  0  0  0  0
   11.1068    6.5862   13.0925 C   0  0  0  0  0  0  0  0  0  0  0  0
   11.4773    6.8113   14.0822 H   0  0  0  0  0  0  0  0  0  0  0  0
   10.4970    7.5712   12.3383 C   0  0  0  0  0  0  0  0  0  0  0  0
   10.3795    8.5653   12.7418 H   0  0  0  0  0  0  0  0  0  0  0  0
   10.0597    7.2857   11.0545 C   0  0  0  0  0  0  0  0  0  0  0  0
    9.6030    8.0580   10.4542 H   0  0  0  0  0  0  0  0  0  0  0  0
   10.1987    6.0100   10.5391 C   0  0  0  0  0  0  0  0  0  0  0  0
    9.8538    5.7888    9.5384 H   0  0  0  0  0  0  0  0  0  0  0  0
   10.7852    5.0037   11.3000 C   0  0  0  0  0  0  0  0  0  0  0  0
   11.6467    4.0693   15.1572 C   0  0  0  0  0  0  0  0  0  0  0  0
   10.3327    4.4150   15.4558 C   0  0  0  0  0  0  0  0  0  0  0  0
    9.6676    4.7358   14.6651 H   0  0  0  0  0  0  0  0  0  0  0  0
    9.8808    4.3553   16.7619 C   0  0  0  0  0  0  0  0  0  0  0  0
    8.8623    4.6333   16.9904 H   0  0  0  0  0  0  0  0  0  0  0  0
   10.7290    3.9371   17.7739 C   0  0  0  0  0  0  0  0  0  0  0  0
   10.3734    3.8932   18.7925 H   0  0  0  0  0  0  0  0  0  0  0  0
   12.0316    3.5657   17.4778 C   0  0  0  0  0  0  0  0  0  0  0  0
   12.6897    3.2281   18.2647 H   0  0  0  0  0  0  0  0  0  0  0  0
   12.4874    3.6227   16.1749 C   0  0  0  0  0  0  0  0  0  0  0  0
   13.4997    3.3269   15.9330 H   0  0  0  0  0  0  0  0  0  0  0  0
   13.8530    4.9193   13.5290 C   0  0  0  0  0  0  0  0  0  0  0  0
   14.1947    5.8415   14.5116 C   0  0  0  0  0  0  0  0  0  0  0  0
   13.5187    6.0378   15.3322 H   0  0  0  0  0  0  0  0  0  0  0  0
   15.4132    6.4940   14.4487 C   0  0  0  0  0  0  0  0  0  0  0  0
   15.6798    7.2058   15.2163 H   0  0  0  0  0  0  0  0  0  0  0  0
   16.2902    6.2372   13.4076 C   0  0  0  0  0  0  0  0  0  0  0  0
   17.2399    6.7495   13.3652 H   0  0  0  0  0  0  0  0  0  0  0  0
   15.9536    5.3191   12.4250 C   0  0  0  0  0  0  0  0  0  0  0  0
   16.6402    5.1143   11.6173 H   0  0  0  0  0  0  0  0  0  0  0  0
   14.7401    4.6599   12.4854 C   0  0  0  0  0  0  0  0  0  0  0  0
   14.4669    3.9175   11.7236 H   0  0  0  0  0  0  0  0  0  0  0  0
  1  2  1  6  0  0  0
  1  6  1  0  0  0  0
  1 10  1  0  0  0  0
  3  5  1  0  0  0  0
  3 20  1  0  0  0  0
  3  1  1  0  0  0  0
  4  3  1  0  0  0  0
  6  7  1  0  0  0  0
  6  8  1  0  0  0  0
  9  6  1  0  0  0  0
 10 32  1  0  0  0  0
 10 21  1  0  0  0  0
 11 12  1  0  0  0  0
 11 10  1  0  0  0  0
 12 13  1  0  0  0  0
 14 15  1  0  0  0  0
 14 12  2  0  0  0  0
 16 14  1  0  0  0  0
 17 16  1  0  0  0  0
 18 16  2  0  0  0  0
 18 20  1  0  0  0  0
 19 18  1  0  0  0  0
 20 11  2  0  0  0  0
 21 22  2  0  0  0  0
 21 30  1  0  0  0  0
 22 24  1  0  0  0  0
 23 22  1  0  0  0  0
 24 25  1  0  0  0  0
 24 26  2  0  0  0  0
 26 27  1  0  0  0  0
 28 26  1  0  0  0  0
 28 29  1  0  0  0  0
 30 28  2  0  0  0  0
 31 30  1  0  0  0  0
 32 33  1  0  0  0  0
 33 34  1  0  0  0  0
 35 33  2  0  0  0  0
 35 36  1  0  0  0  0
 37 35  1  0  0  0  0
 38 37  1  0  0  0  0
 39 41  1  0  0  0  0
 39 37  2  0  0  0  0
 40 39  1  0  0  0  0
 41 32  2  0  0  0  0
 42 41  1  0  0  0  0
M  END
$$$$
