CSD_code = AFOWIB | q = 0 | S = 0 | Stoichiometry = C20H20Cl2N8Os | MND = 6
 OpenBabel04212201593D

 51 56  0  0  1  0  0  0  0  0999 V2000
   -0.2359    4.2523    4.4047 Os  0  0  0  0  0  0  0  0  0  0  0  0
   -1.9856    5.6378    3.7949 Cl  0  0  0  0  0  0  0  0  0  0  0  0
    1.1169    6.0750    4.8516 Cl  0  0  0  0  0  0  0  0  0  0  0  0
    0.6249    4.3133    2.5598 N   0  0  0  0  0  0  0  0  0  0  0  0
    2.5123    3.9059    1.4707 N   0  0  0  0  0  0  0  0  0  0  0  0
    2.1364    2.8908    3.6308 N   0  0  0  0  0  2  0  0  0  0  0  0
    1.2795    3.0109    4.6181 N   0  0  0  0  0  0  0  0  0  0  0  0
   -1.1080    4.2845    6.2443 N   0  0  0  0  0  0  0  0  0  0  0  0
   -2.8533    3.5417    7.3918 N   0  0  0  0  0  0  0  0  0  0  0  0
   -2.2165    2.4392    5.3381 N   0  0  0  0  0  2  0  0  0  0  0  0
   -1.4027    2.6655    4.3331 N   0  0  0  0  0  0  0  0  0  0  0  0
    0.5729    4.9533    1.3661 C   0  0  0  0  0  0  0  0  0  0  0  0
   -0.2772    5.5432    1.0857 H   0  0  0  0  0  0  0  0  0  0  0  0
    1.7334    4.7130    0.6855 C   0  0  0  0  0  0  0  0  0  0  0  0
    2.0608    5.0469   -0.2772 H   0  0  0  0  0  0  0  0  0  0  0  0
    1.8167    3.6889    2.6098 C   0  0  2  0  0  3  0  0  0  0  0  0
    1.3873    2.0113    5.5863 C   0  0  0  0  0  0  0  0  0  0  0  0
    1.1721    2.3177    6.9304 C   0  0  0  0  0  0  0  0  0  0  0  0
    1.0026    3.3449    7.2130 H   0  0  0  0  0  0  0  0  0  0  0  0
    1.2197    1.3165    7.8802 C   0  0  0  0  0  0  0  0  0  0  0  0
    1.0565    1.5586    8.9200 H   0  0  0  0  0  0  0  0  0  0  0  0
    1.4845    0.0076    7.5065 C   0  0  0  0  0  0  0  0  0  0  0  0
    1.5112   -0.7724    8.2526 H   0  0  0  0  0  0  0  0  0  0  0  0
    1.7265   -0.2954    6.1759 C   0  0  0  0  0  0  0  0  0  0  0  0
    1.9437   -1.3119    5.8835 H   0  0  0  0  0  0  0  0  0  0  0  0
    1.6867    0.6974    5.2171 C   0  0  0  0  0  0  0  0  0  0  0  0
    1.8643    0.4789    4.1751 H   0  0  0  0  0  0  0  0  0  0  0  0
    3.8332    3.4231    1.1875 C   0  0  0  0  0  0  0  0  0  0  0  0
    4.5391    4.2540    1.1286 H   0  0  0  0  0  0  0  0  0  0  0  0
    3.8419    2.8813    0.2402 H   0  0  0  0  0  0  0  0  0  0  0  0
    4.1283    2.7564    1.9950 H   0  0  0  0  0  0  0  0  0  0  0  0
   -1.2272    5.0333    7.3677 C   0  0  0  0  0  0  0  0  0  0  0  0
   -0.5491    5.8368    7.5776 H   0  0  0  0  0  0  0  0  0  0  0  0
   -2.3030    4.5876    8.0831 C   0  0  0  0  0  0  0  0  0  0  0  0
   -2.7132    4.9262    9.0119 H   0  0  0  0  0  0  0  0  0  0  0  0
   -2.1123    3.3880    6.2711 C   0  0  2  0  0  3  0  0  0  0  0  0
   -1.2544    1.5794    3.4689 C   0  0  0  0  0  0  0  0  0  0  0  0
   -1.1029    1.7959    2.0988 C   0  0  0  0  0  0  0  0  0  0  0  0
   -1.1825    2.8011    1.7152 H   0  0  0  0  0  0  0  0  0  0  0  0
   -0.8965    0.7251    1.2518 C   0  0  0  0  0  0  0  0  0  0  0  0
   -0.7836    0.8968    0.1915 H   0  0  0  0  0  0  0  0  0  0  0  0
   -0.8431   -0.5662    1.7545 C   0  0  0  0  0  0  0  0  0  0  0  0
   -0.6723   -1.3987    1.0885 H   0  0  0  0  0  0  0  0  0  0  0  0
   -1.0213   -0.7873    3.1111 C   0  0  0  0  0  0  0  0  0  0  0  0
   -0.9911   -1.7927    3.5038 H   0  0  0  0  0  0  0  0  0  0  0  0
   -1.2331    0.2745    3.9680 C   0  0  0  0  0  0  0  0  0  0  0  0
   -1.3656    0.1223    5.0283 H   0  0  0  0  0  0  0  0  0  0  0  0
   -4.0222    2.7852    7.7372 C   0  0  0  0  0  0  0  0  0  0  0  0
   -4.9088    3.4222    7.7185 H   0  0  0  0  0  0  0  0  0  0  0  0
   -3.9131    2.3567    8.7350 H   0  0  0  0  0  0  0  0  0  0  0  0
   -4.1360    1.9884    7.0054 H   0  0  0  0  0  0  0  0  0  0  0  0
  1  7  1  0  0  0  0
  1  3  1  0  0  0  0
  1  8  1  0  0  0  0
  2  1  1  0  0  0  0
  4 16  1  0  0  0  0
  4  1  1  0  0  0  0
  5 16  1  0  0  0  0
  6  7  1  0  0  0  0
  7 17  1  0  0  0  0
  8 36  1  0  0  0  0
  8 32  1  0  0  0  0
  9 48  1  0  0  0  0
  9 34  1  0  0  0  0
 11  1  1  0  0  0  0
 11 10  1  0  0  0  0
 12  4  1  0  0  0  0
 13 12  1  0  0  0  0
 14 12  2  0  0  0  0
 14  5  1  0  0  0  0
 15 14  1  0  0  0  0
 16  6  1  6  0  0  0
 17 18  1  0  0  0  0
 18 19  1  0  0  0  0
 18 20  2  0  0  0  0
 20 21  1  0  0  0  0
 22 20  1  0  0  0  0
 22 23  1  0  0  0  0
 24 22  2  0  0  0  0
 25 24  1  0  0  0  0
 26 17  2  0  0  0  0
 26 24  1  0  0  0  0
 27 26  1  0  0  0  0
 28  5  1  0  0  0  0
 28 31  1  0  0  0  0
 29 28  1  0  0  0  0
 30 28  1  0  0  0  0
 32 33  1  0  0  0  0
 32 34  2  0  0  0  0
 34 35  1  0  0  0  0
 36 10  1  1  0  0  0
 36  9  1  0  0  0  0
 37 46  1  0  0  0  0
 37 11  1  0  0  0  0
 38 37  2  0  0  0  0
 39 38  1  0  0  0  0
 40 42  2  0  0  0  0
 40 38  1  0  0  0  0
 41 40  1  0  0  0  0
 42 44  1  0  0  0  0
 43 42  1  0  0  0  0
 44 45  1  0  0  0  0
 44 46  2  0  0  0  0
 46 47  1  0  0  0  0
 48 50  1  0  0  0  0
 49 48  1  0  0  0  0
 51 48  1  0  0  0  0
M  END
$$$$
