CSD_code = AFOYID | q = 0 | S = 0 | Stoichiometry = C25H38ClO2Y | MND = 12
 OpenBabel04212201593D

 67 68  0  0  1  0  0  0  0  0999 V2000
   -1.7124   -3.5604    2.8307 Y   0  0  1  0  0  0  0  0  0  0  0  0
   -2.9232   -1.6640    3.7640 Cl  0  0  0  0  0  0  0  0  0  0  0  0
    0.2562   -2.5701    2.8282 O   0  0  0  0  0  0  0  0  0  0  0  0
    1.2648   -0.5993    3.1886 O   0  0  0  0  0  0  0  0  0  0  0  0
    0.3871   -4.5313    4.9557 C   0  0  0  0  0  0  0  0  0  0  0  0
   -0.8549   -4.0093    5.3606 C   0  0  0  0  0  0  0  0  0  0  0  0
   -1.9001   -4.8061    4.7740 C   0  0  2  0  0  0  0  0  0  0  0  0
   -1.2372   -5.8550    4.0196 C   0  0  0  0  0  0  0  0  0  0  0  0
    0.1533   -5.6670    4.1412 C   0  0  0  0  0  0  0  0  0  0  0  0
    1.7134   -4.0018    5.4069 C   0  0  0  0  0  0  0  0  0  0  0  0
    1.7992   -4.0697    6.4923 H   0  0  0  0  0  0  0  0  0  0  0  0
    1.8410   -2.9518    5.1284 H   0  0  0  0  0  0  0  0  0  0  0  0
    2.5331   -4.5633    4.9662 H   0  0  0  0  0  0  0  0  0  0  0  0
   -1.0650   -2.9343    6.3886 C   0  0  0  0  0  0  0  0  0  0  0  0
   -1.3042   -3.3848    7.3550 H   0  0  0  0  0  0  0  0  0  0  0  0
   -1.8882   -2.2739    6.1160 H   0  0  0  0  0  0  0  0  0  0  0  0
   -0.1636   -2.3365    6.5123 H   0  0  0  0  0  0  0  0  0  0  0  0
   -3.3077   -4.8907    5.3308 C   0  0  0  0  0  0  0  0  0  0  0  0
   -3.3004   -5.4816    6.2513 H   0  0  0  0  0  0  0  0  0  0  0  0
   -3.9963   -5.3709    4.6320 H   0  0  0  0  0  0  0  0  0  0  0  0
   -3.6957   -3.9003    5.5736 H   0  0  0  0  0  0  0  0  0  0  0  0
   -1.8853   -7.1348    3.5627 C   0  0  0  0  0  0  0  0  0  0  0  0
   -1.8016   -7.8859    4.3529 H   0  0  0  0  0  0  0  0  0  0  0  0
   -1.3930   -7.5394    2.6792 H   0  0  0  0  0  0  0  0  0  0  0  0
   -2.9435   -7.0010    3.3448 H   0  0  0  0  0  0  0  0  0  0  0  0
    1.1774   -6.6053    3.5773 C   0  0  0  0  0  0  0  0  0  0  0  0
    1.1215   -7.5707    4.0843 H   0  0  0  0  0  0  0  0  0  0  0  0
    2.1848   -6.2177    3.7071 H   0  0  0  0  0  0  0  0  0  0  0  0
    1.0129   -6.7837    2.5139 H   0  0  0  0  0  0  0  0  0  0  0  0
   -1.0218   -3.0427    0.2183 C   0  0  0  0  0  0  0  0  0  0  0  0
   -1.2966   -4.4197    0.4248 C   0  0  0  0  0  0  0  0  0  0  0  0
   -2.6697   -4.5446    0.8297 C   0  0  2  0  0  0  0  0  0  0  0  0
   -3.2262   -3.2171    0.8548 C   0  0  0  0  0  0  0  0  0  0  0  0
   -2.2060   -2.3076    0.4891 C   0  0  0  0  0  0  0  0  0  0  0  0
    0.2330   -2.4622   -0.3678 C   0  0  0  0  0  0  0  0  0  0  0  0
    0.0510   -2.1450   -1.3968 H   0  0  0  0  0  0  0  0  0  0  0  0
    1.0385   -3.1927   -0.3778 H   0  0  0  0  0  0  0  0  0  0  0  0
    0.5788   -1.5889    0.1900 H   0  0  0  0  0  0  0  0  0  0  0  0
   -0.4105   -5.5679    0.0268 C   0  0  0  0  0  0  0  0  0  0  0  0
   -0.5947   -5.8414   -1.0153 H   0  0  0  0  0  0  0  0  0  0  0  0
   -0.6022   -6.4481    0.6392 H   0  0  0  0  0  0  0  0  0  0  0  0
    0.6436   -5.3094    0.1195 H   0  0  0  0  0  0  0  0  0  0  0  0
   -3.4992   -5.8008    0.7204 C   0  0  0  0  0  0  0  0  0  0  0  0
   -3.9762   -5.8348   -0.2627 H   0  0  0  0  0  0  0  0  0  0  0  0
   -4.2920   -5.8364    1.4695 H   0  0  0  0  0  0  0  0  0  0  0  0
   -2.8861   -6.6933    0.8202 H   0  0  0  0  0  0  0  0  0  0  0  0
   -4.6804   -2.8703    1.0193 C   0  0  0  0  0  0  0  0  0  0  0  0
   -5.1428   -2.7241    0.0400 H   0  0  0  0  0  0  0  0  0  0  0  0
   -4.7996   -1.9475    1.5868 H   0  0  0  0  0  0  0  0  0  0  0  0
   -5.2225   -3.6632    1.5342 H   0  0  0  0  0  0  0  0  0  0  0  0
   -2.3984   -0.8286    0.3205 C   0  0  0  0  0  0  0  0  0  0  0  0
   -3.0411   -0.6258   -0.5385 H   0  0  0  0  0  0  0  0  0  0  0  0
   -1.4466   -0.3272    0.1551 H   0  0  0  0  0  0  0  0  0  0  0  0
   -2.8772   -0.3960    1.2007 H   0  0  0  0  0  0  0  0  0  0  0  0
    1.2732   -1.8686    2.8158 C   0  0  0  0  0  0  0  0  0  0  0  0
    2.5954   -2.3560    2.3790 C   0  0  0  0  0  0  0  0  0  0  0  0
    3.7214   -1.3725    2.3769 C   0  0  0  0  0  0  0  0  0  0  0  0
    4.6371   -1.8447    2.0334 H   0  0  0  0  0  0  0  0  0  0  0  0
    3.8770   -0.9774    3.3790 H   0  0  0  0  0  0  0  0  0  0  0  0
    3.4869   -0.5316    1.7270 H   0  0  0  0  0  0  0  0  0  0  0  0
    2.7112   -3.6329    2.0130 C   0  0  0  0  0  3  0  0  0  0  0  0
    1.8588   -4.2903    2.0515 H   0  0  0  0  0  0  0  0  0  0  0  0
    3.6488   -4.0459    1.6840 H   0  0  0  0  0  0  0  0  0  0  0  0
    0.0192   -0.0544    3.6172 C   0  0  0  0  0  0  0  0  0  0  0  0
    0.2219    0.9780    3.8900 H   0  0  0  0  0  0  0  0  0  0  0  0
   -0.3727   -0.6074    4.4742 H   0  0  0  0  0  0  0  0  0  0  0  0
   -0.7200   -0.0989    2.8135 H   0  0  0  0  0  0  0  0  0  0  0  0
  1  2  1  1  0  0  0
  1  7  1  0  0  0  0
  3  1  1  0  0  0  0
  4 64  1  0  0  0  0
  5  6  2  0  0  0  0
  5 10  1  0  0  0  0
  6 14  1  0  0  0  0
  7 18  1  1  0  0  0
  7  6  1  0  0  0  0
  8  9  2  0  0  0  0
  8  7  1  0  0  0  0
  9  5  1  0  0  0  0
 10 11  1  0  0  0  0
 12 10  1  0  0  0  0
 13 10  1  0  0  0  0
 14 17  1  0  0  0  0
 14 15  1  0  0  0  0
 16 14  1  0  0  0  0
 18 21  1  0  0  0  0
 18 19  1  0  0  0  0
 20 18  1  0  0  0  0
 22  8  1  0  0  0  0
 22 23  1  0  0  0  0
 24 22  1  0  0  0  0
 25 22  1  0  0  0  0
 26 28  1  0  0  0  0
 26 27  1  0  0  0  0
 26  9  1  0  0  0  0
 29 26  1  0  0  0  0
 30 31  2  0  0  0  0
 30 34  1  0  0  0  0
 31 32  1  0  0  0  0
 32 43  1  6  0  0  0
 32 33  1  0  0  0  0
 32  1  1  0  0  0  0
 33 47  1  0  0  0  0
 34 33  2  0  0  0  0
 35 38  1  0  0  0  0
 35 30  1  0  0  0  0
 36 35  1  0  0  0  0
 37 35  1  0  0  0  0
 39 42  1  0  0  0  0
 39 31  1  0  0  0  0
 39 41  1  0  0  0  0
 40 39  1  0  0  0  0
 43 46  1  0  0  0  0
 43 45  1  0  0  0  0
 44 43  1  0  0  0  0
 47 50  1  0  0  0  0
 47 49  1  0  0  0  0
 48 47  1  0  0  0  0
 51 34  1  0  0  0  0
 51 54  1  0  0  0  0
 52 51  1  0  0  0  0
 53 51  1  0  0  0  0
 55  3  1  0  0  0  0
 55  4  1  0  0  0  0
 56 55  2  0  0  0  0
 57 56  1  0  0  0  0
 57 59  1  0  0  0  0
 58 57  1  0  0  0  0
 60 57  1  0  0  0  0
 61 62  1  0  0  0  0
 61 56  1  0  0  0  0
 63 61  1  0  0  0  0
 64 65  1  0  0  0  0
 64 66  1  0  0  0  0
 67 64  1  0  0  0  0
M  END
$$$$
