CSD_code = AFUDAH | q = 0 | S = 0 | Stoichiometry = C16H20IN3Ni | MND = 4
 OpenBabel04212201593D

 41 44  0  0  0  0  0  0  0  0999 V2000
    0.2632    2.1260    1.8999 I   0  0  0  0  0  0  0  0  0  0  0  0
    0.2582    0.7200    3.8886 Ni  0  0  0  0  0  0  0  0  0  0  0  0
    0.5393   -1.0648    2.8953 N   0  0  0  0  0  4  0  0  0  0  0  0
    0.2495   -0.3500    5.4002 N   0  0  0  0  0  0  0  0  0  0  0  0
   -0.0190    2.2522    5.2401 N   0  0  0  0  0  4  0  0  0  0  0  0
    0.7531   -2.0896    3.9216 C   0  0  0  0  0  0  0  0  0  0  0  0
    1.0629   -3.4024    3.6277 C   0  0  0  0  0  0  0  0  0  0  0  0
    1.0796   -3.7585    2.6078 H   0  0  0  0  0  0  0  0  0  0  0  0
    1.3787   -4.2792    4.6531 C   0  0  0  0  0  0  0  0  0  0  0  0
    1.6183   -5.3065    4.4280 H   0  0  0  0  0  0  0  0  0  0  0  0
    1.4352   -3.8132    5.9571 C   0  0  0  0  0  0  0  0  0  0  0  0
    1.7515   -4.4756    6.7496 H   0  0  0  0  0  0  0  0  0  0  0  0
    1.0985   -2.5122    6.2643 C   0  0  0  0  0  0  0  0  0  0  0  0
    1.1994   -2.1586    7.2774 H   0  0  0  0  0  0  0  0  0  0  0  0
    0.6749   -1.6390    5.2496 C   0  0  0  0  0  0  0  0  0  0  0  0
   -0.1747    0.2243    6.5646 C   0  0  0  0  0  0  0  0  0  0  0  0
   -0.6069   -0.4389    7.7243 C   0  0  0  0  0  0  0  0  0  0  0  0
   -0.7154   -1.5113    7.7274 H   0  0  0  0  0  0  0  0  0  0  0  0
   -0.9424    0.2861    8.8477 C   0  0  0  0  0  0  0  0  0  0  0  0
   -1.2652   -0.2385    9.7350 H   0  0  0  0  0  0  0  0  0  0  0  0
   -0.8763    1.6704    8.8532 C   0  0  0  0  0  0  0  0  0  0  0  0
   -1.1147    2.2263    9.7463 H   0  0  0  0  0  0  0  0  0  0  0  0
   -0.5521    2.3433    7.6862 C   0  0  0  0  0  0  0  0  0  0  0  0
   -0.5609    3.4236    7.6825 H   0  0  0  0  0  0  0  0  0  0  0  0
   -0.2431    1.6270    6.5472 C   0  0  0  0  0  0  0  0  0  0  0  0
   -0.6294   -1.4237    2.0763 C   0  0  0  0  0  0  0  0  0  0  0  0
   -0.4848   -2.3974    1.5989 H   0  0  0  0  0  0  0  0  0  0  0  0
   -0.7904   -0.6782    1.2981 H   0  0  0  0  0  0  0  0  0  0  0  0
   -1.5164   -1.4746    2.7103 H   0  0  0  0  0  0  0  0  0  0  0  0
    1.7449   -1.0176    2.0477 C   0  0  0  0  0  0  0  0  0  0  0  0
    2.5974   -0.6900    2.6460 H   0  0  0  0  0  0  0  0  0  0  0  0
    1.6058   -0.3253    1.2201 H   0  0  0  0  0  0  0  0  0  0  0  0
    1.9678   -2.0049    1.6347 H   0  0  0  0  0  0  0  0  0  0  0  0
    1.1585    3.1321    5.3102 C   0  0  0  0  0  0  0  0  0  0  0  0
    1.0193    3.9071    6.0697 H   0  0  0  0  0  0  0  0  0  0  0  0
    1.3274    3.6169    4.3491 H   0  0  0  0  0  0  0  0  0  0  0  0
    2.0389    2.5423    5.5718 H   0  0  0  0  0  0  0  0  0  0  0  0
   -1.2155    3.0481    4.9102 C   0  0  0  0  0  0  0  0  0  0  0  0
   -2.0747    2.3837    4.8001 H   0  0  0  0  0  0  0  0  0  0  0  0
   -1.0690    3.5950    3.9813 H   0  0  0  0  0  0  0  0  0  0  0  0
   -1.4320    3.7699    5.7021 H   0  0  0  0  0  0  0  0  0  0  0  0
  1  2  1  0  0  0  0
  2  5  1  0  0  0  0
  2  4  1  0  0  0  0
  3  2  1  0  0  0  0
  3  6  1  0  0  0  0
  4 16  1  0  0  0  0
  5 34  1  0  0  0  0
  5 25  1  0  0  0  0
  6 15  1  0  0  0  0
  7  6  2  0  0  0  0
  7  9  1  0  0  0  0
  8  7  1  0  0  0  0
  9 11  2  0  0  0  0
 10  9  1  0  0  0  0
 11 13  1  0  0  0  0
 11 12  1  0  0  0  0
 13 14  1  0  0  0  0
 15  4  1  0  0  0  0
 15 13  2  0  0  0  0
 16 17  1  0  0  0  0
 17 18  1  0  0  0  0
 17 19  2  0  0  0  0
 19 21  1  0  0  0  0
 19 20  1  0  0  0  0
 21 22  1  0  0  0  0
 23 21  2  0  0  0  0
 24 23  1  0  0  0  0
 25 16  2  0  0  0  0
 25 23  1  0  0  0  0
 26 29  1  0  0  0  0
 26  3  1  0  0  0  0
 27 26  1  0  0  0  0
 28 26  1  0  0  0  0
 30 31  1  0  0  0  0
 30  3  1  0  0  0  0
 32 30  1  0  0  0  0
 33 30  1  0  0  0  0
 34 37  1  0  0  0  0
 34 35  1  0  0  0  0
 36 34  1  0  0  0  0
 38  5  1  0  0  0  0
 38 41  1  0  0  0  0
 39 38  1  0  0  0  0
 40 38  1  0  0  0  0
M  END
$$$$
