CSD_code = AFUQAT | q = 0 | S = 0 | Stoichiometry = C11H19Cl2NO3RuS2 | MND = 6
 OpenBabel04212201593D

 39 40  0  0  1  0  0  0  0  0999 V2000
    4.3562    2.6367    3.7461 Ru  0  0  0  0  0  0  0  0  0  0  0  0
    6.3471    3.5325    2.9241 Cl  0  0  0  0  0  0  0  0  0  0  0  0
    2.4168    1.6100    4.5386 Cl  0  0  0  0  0  0  0  0  0  0  0  0
    3.3216    3.0956    1.7791 S   0  0  0  0  0  0  0  0  0  0  0  0
    5.0297    0.5786    2.9277 S   0  0  0  0  0  0  0  0  0  0  0  0
    3.7625    4.4326    4.4291 O   0  0  0  0  0  0  0  0  0  0  0  0
    5.1383    2.5789    5.5898 N   0  0  0  0  0  0  0  0  0  0  0  0
    5.8174   -0.2435    3.8389 O   0  0  0  0  0  1  0  0  0  0  0  0
    3.3407    2.1120    0.7005 O   0  0  0  0  0  1  0  0  0  0  0  0
    5.8369    1.5997    6.1500 C   0  0  0  0  0  3  0  0  0  0  0  0
    6.0125    0.7236    5.5350 H   0  0  0  0  0  0  0  0  0  0  0  0
    6.3224    1.6766    7.4444 C   0  0  0  0  0  0  0  0  0  0  0  0
    6.8836    0.8509    7.8499 H   0  0  0  0  0  0  0  0  0  0  0  0
    6.0775    2.8182    8.1990 C   0  0  0  0  0  0  0  0  0  0  0  0
    6.4449    2.9032    9.2099 H   0  0  0  0  0  0  0  0  0  0  0  0
    5.3524    3.8423    7.6250 C   0  0  0  0  0  0  0  0  0  0  0  0
    5.1380    4.7461    8.1716 H   0  0  0  0  0  0  0  0  0  0  0  0
    4.8898    3.7010    6.3142 C   0  0  0  0  0  0  0  0  0  0  0  0
    4.1147    4.6953    5.5937 C   0  0  2  0  0  3  0  0  0  0  0  0
    3.7391    6.0066    6.2193 C   0  0  0  0  0  0  0  0  0  0  0  0
    4.6340    6.5582    6.5012 H   0  0  0  0  0  0  0  0  0  0  0  0
    3.1384    5.8389    7.1112 H   0  0  0  0  0  0  0  0  0  0  0  0
    3.1659    6.5938    5.5066 H   0  0  0  0  0  0  0  0  0  0  0  0
    3.8934    4.6623    1.0657 C   0  0  0  0  0  0  0  0  0  0  0  0
    4.9463    4.5430    0.8294 H   0  0  0  0  0  0  0  0  0  0  0  0
    3.7721    5.4291    1.8227 H   0  0  0  0  0  0  0  0  0  0  0  0
    3.3177    4.8758    0.1727 H   0  0  0  0  0  0  0  0  0  0  0  0
    1.5863    3.5596    2.0314 C   0  0  0  0  0  0  0  0  0  0  0  0
    1.1512    3.8349    1.0779 H   0  0  0  0  0  0  0  0  0  0  0  0
    1.5676    4.3797    2.7405 H   0  0  0  0  0  0  0  0  0  0  0  0
    1.0811    2.6964    2.4538 H   0  0  0  0  0  0  0  0  0  0  0  0
    5.9823    0.6576    1.3878 C   0  0  0  0  0  0  0  0  0  0  0  0
    6.8472    1.2875    1.5699 H   0  0  0  0  0  0  0  0  0  0  0  0
    5.3441    1.0916    0.6267 H   0  0  0  0  0  0  0  0  0  0  0  0
    6.2882   -0.3510    1.1363 H   0  0  0  0  0  0  0  0  0  0  0  0
    3.6784   -0.4826    2.3511 C   0  0  0  0  0  0  0  0  0  0  0  0
    4.1089   -1.4285    2.0441 H   0  0  0  0  0  0  0  0  0  0  0  0
    3.1858    0.0268    1.5308 H   0  0  0  0  0  0  0  0  0  0  0  0
    2.9947   -0.6230    3.1824 H   0  0  0  0  0  0  0  0  0  0  0  0
  1  6  1  0  0  0  0
  1  3  1  0  0  0  0
  1  7  1  0  0  0  0
  2  1  1  0  0  0  0
  4 28  1  0  0  0  0
  4  1  1  0  0  0  0
  5  1  1  0  0  0  0
  5  8  1  0  0  0  0
  6 19  1  0  0  0  0
  7 10  1  0  0  0  0
  7 18  1  0  0  0  0
  9  4  1  0  0  0  0
 10 12  1  0  0  0  0
 11 10  1  0  0  0  0
 12 13  1  0  0  0  0
 12 14  2  0  0  0  0
 14 15  1  0  0  0  0
 16 17  1  0  0  0  0
 16 14  1  0  0  0  0
 18 16  2  0  0  0  0
 19 20  1  1  0  0  0
 19 18  1  0  0  0  0
 20 21  1  0  0  0  0
 20 22  1  0  0  0  0
 23 20  1  0  0  0  0
 24  4  1  0  0  0  0
 24 26  1  0  0  0  0
 25 24  1  0  0  0  0
 27 24  1  0  0  0  0
 28 31  1  0  0  0  0
 28 30  1  0  0  0  0
 29 28  1  0  0  0  0
 32 33  1  0  0  0  0
 32  5  1  0  0  0  0
 34 32  1  0  0  0  0
 35 32  1  0  0  0  0
 36  5  1  0  0  0  0
 36 39  1  0  0  0  0
 37 36  1  0  0  0  0
 38 36  1  0  0  0  0
M  END
$$$$
