CSD_code = AFUSEZ | q = 0 | S = 0 | Stoichiometry = C20H18Cl2N2O2Zn | MND = 4
 OpenBabel04212201593D

 45 48  0  0  1  0  0  0  0  0999 V2000
    0.0003    2.1842    3.5114 Zn  0  0  0  0  0  0  0  0  0  0  0  0
   -1.9672    3.0976    4.0132 Cl  0  0  0  0  0  0  0  0  0  0  0  0
   -0.1676    0.8543    1.9573 O   0  0  0  0  0  0  0  0  0  0  0  0
    0.8695    0.9531    1.1744 N   0  0  0  0  0  0  0  0  0  0  0  0
    1.9236    0.1682    1.3845 C   0  0  0  0  0  0  0  0  0  0  0  0
    3.0586    0.2927    0.5756 C   0  0  0  0  0  0  0  0  0  0  0  0
    3.1101    1.2233   -0.4232 C   0  0  0  0  0  0  0  0  0  0  0  0
    1.9701    3.0605   -1.6344 C   0  0  0  0  0  3  0  0  0  0  0  0
    0.8723    3.8626   -1.7859 C   0  0  0  0  0  0  0  0  0  0  0  0
   -0.2468    3.6965   -0.9584 C   0  0  0  0  0  0  0  0  0  0  0  0
   -0.2582    2.7296    0.0116 C   0  0  0  0  0  0  0  0  0  0  0  0
    0.8619    1.9024    0.1846 C   0  0  0  0  0  0  0  0  0  0  0  0
    1.9976    2.0600   -0.6423 C   0  0  0  0  0  0  0  0  0  0  0  0
    1.8341   -0.7892    2.5152 C   0  0  0  0  0  0  0  0  0  0  0  0
    3.8997   -0.3513    0.7780 H   0  0  0  0  0  0  0  0  0  0  0  0
    3.9906    1.3379   -1.0361 H   0  0  0  0  0  0  0  0  0  0  0  0
    2.8383    3.1845   -2.2643 H   0  0  0  0  0  0  0  0  0  0  0  0
    0.8628    4.6328   -2.5422 H   0  0  0  0  0  0  0  0  0  0  0  0
   -1.1039    4.3397   -1.0850 H   0  0  0  0  0  0  0  0  0  0  0  0
   -1.1137    2.5918    0.6555 H   0  0  0  0  0  0  0  0  0  0  0  0
    1.6399   -0.2367    3.4373 H   0  0  0  0  0  0  0  0  0  0  0  0
    0.9885   -1.4608    2.3669 H   0  0  0  0  0  0  0  0  0  0  0  0
    2.7500   -1.3621    2.6157 H   0  0  0  0  0  0  0  0  0  0  0  0
    1.9680    3.0983    3.0111 Cl  0  0  0  0  0  0  0  0  0  0  0  0
    0.1673    0.8546    5.0658 O   0  0  0  0  0  0  0  0  0  0  0  0
   -0.8698    0.9534    5.8487 N   0  0  0  0  0  0  0  0  0  0  0  0
   -1.9238    0.1683    5.6389 C   0  0  0  0  0  0  0  0  0  0  0  0
   -3.0586    0.2925    6.4482 C   0  0  0  0  0  0  0  0  0  0  0  0
   -3.1100    1.2231    7.4470 C   0  0  0  0  0  0  0  0  0  0  0  0
   -1.9977    2.0601    7.6658 C   0  0  0  0  0  0  0  0  0  0  0  0
   -1.9701    3.0606    8.6578 C   0  0  0  0  0  0  0  0  0  0  0  0
   -0.8722    3.8626    8.8094 C   0  0  0  0  0  0  0  0  0  0  0  0
    0.2470    3.6963    7.9820 C   0  0  0  0  0  0  0  0  0  0  0  0
    0.2582    2.7296    7.0118 C   0  0  0  0  0  0  0  0  0  0  0  0
   -0.8621    1.9026    6.8387 C   0  0  2  0  0  3  0  0  0  0  0  0
    1.1137    2.5918    6.3679 H   0  0  0  0  0  0  0  0  0  0  0  0
    1.1039    4.3397    8.1084 H   0  0  0  0  0  0  0  0  0  0  0  0
   -0.8626    4.6328    9.5657 H   0  0  0  0  0  0  0  0  0  0  0  0
   -2.8382    3.1846    9.2878 H   0  0  0  0  0  0  0  0  0  0  0  0
   -3.9906    1.3379    8.0597 H   0  0  0  0  0  0  0  0  0  0  0  0
   -3.8997   -0.3514    6.2457 H   0  0  0  0  0  0  0  0  0  0  0  0
   -1.8343   -0.7892    4.5083 C   0  0  0  0  0  0  0  0  0  0  0  0
   -1.6411   -0.2367    3.5861 H   0  0  0  0  0  0  0  0  0  0  0  0
   -0.9880   -1.4601    4.6561 H   0  0  0  0  0  0  0  0  0  0  0  0
   -2.7497   -1.3629    4.4085 H   0  0  0  0  0  0  0  0  0  0  0  0
  1  2  1  0  0  0  0
  1 25  1  0  0  0  0
  3  1  1  0  0  0  0
  4  5  1  0  0  0  0
  4  3  1  0  0  0  0
  5 14  1  0  0  0  0
  6 15  1  0  0  0  0
  6  5  2  0  0  0  0
  7  6  1  0  0  0  0
  8 13  1  0  0  0  0
  9  8  1  0  0  0  0
  9 10  2  0  0  0  0
 10 11  1  0  0  0  0
 11 12  2  0  0  0  0
 11 20  1  0  0  0  0
 12  4  1  0  0  0  0
 13  7  2  0  0  0  0
 13 12  1  0  0  0  0
 14 23  1  0  0  0  0
 14 21  1  0  0  0  0
 16  7  1  0  0  0  0
 17  8  1  0  0  0  0
 18  9  1  0  0  0  0
 19 10  1  0  0  0  0
 22 14  1  0  0  0  0
 24  1  1  0  0  0  0
 25 26  1  0  0  0  0
 26 35  1  0  0  0  0
 27 26  1  0  0  0  0
 27 28  2  0  0  0  0
 28 29  1  0  0  0  0
 29 30  2  0  0  0  0
 29 40  1  0  0  0  0
 30 31  1  0  0  0  0
 31 32  2  0  0  0  0
 31 39  1  0  0  0  0
 32 38  1  0  0  0  0
 33 37  1  0  0  0  0
 33 32  1  0  0  0  0
 34 33  2  0  0  0  0
 35 34  1  6  0  0  0
 35 30  1  0  0  0  0
 36 34  1  0  0  0  0
 41 28  1  0  0  0  0
 42 44  1  0  0  0  0
 42 27  1  0  0  0  0
 43 42  1  0  0  0  0
 45 42  1  0  0  0  0
M  END
$$$$
