CSD_code = AGABAM | q = 0 | S = 0 | Stoichiometry = C37H26ClO3P2Re | MND = 6
 OpenBabel04212201593D

 70 76  0  0  0  0  0  0  0  0999 V2000
   -0.7509    2.5837    8.8579 C   0  0  0  0  0  2  0  0  0  0  0  0
    1.2505    4.1209    9.9814 C   0  0  0  0  0  2  0  0  0  0  0  0
   -1.1069    5.3233    9.1624 C   0  0  0  0  0  2  0  0  0  0  0  0
    3.5658    3.0740    7.1694 C   0  0  0  0  0  0  0  0  0  0  0  0
    4.5167    3.2272    6.1674 C   0  0  0  0  0  0  0  0  0  0  0  0
    4.2122    3.3094    5.1332 H   0  0  0  0  0  0  0  0  0  0  0  0
    5.8605    3.2739    6.4935 C   0  0  0  0  0  0  0  0  0  0  0  0
    6.5955    3.3923    5.7105 H   0  0  0  0  0  0  0  0  0  0  0  0
    6.2644    3.1723    7.8137 C   0  0  0  0  0  0  0  0  0  0  0  0
    7.3144    3.2157    8.0619 H   0  0  0  0  0  0  0  0  0  0  0  0
    5.3205    3.0141    8.8156 C   0  0  0  0  0  0  0  0  0  0  0  0
    5.6299    2.9313    9.8467 H   0  0  0  0  0  0  0  0  0  0  0  0
    3.9781    2.9651    8.4945 C   0  0  0  0  0  0  0  0  0  0  0  0
    3.2320    2.8362    9.2674 H   0  0  0  0  0  0  0  0  0  0  0  0
    1.4211    1.2219    6.8279 C   0  0  0  0  0  0  0  0  0  0  0  0
    2.3362    0.2630    7.2442 C   0  0  0  0  0  0  0  0  0  0  0  0
    3.3363    0.5540    7.5332 H   0  0  0  0  0  0  0  0  0  0  0  0
    1.9619   -1.0696    7.2858 C   0  0  0  0  0  0  0  0  0  0  0  0
    2.6753   -1.8132    7.6100 H   0  0  0  0  0  0  0  0  0  0  0  0
    0.6829   -1.4494    6.9174 C   0  0  0  0  0  0  0  0  0  0  0  0
    0.3975   -2.4903    6.9546 H   0  0  0  0  0  0  0  0  0  0  0  0
   -0.2335   -0.4940    6.5045 C   0  0  0  0  0  0  0  0  0  0  0  0
   -1.2332   -0.7870    6.2204 H   0  0  0  0  0  0  0  0  0  0  0  0
    0.1298    0.8370    6.4648 C   0  0  0  0  0  0  0  0  0  0  0  0
   -0.5809    1.5893    6.1463 H   0  0  0  0  0  0  0  0  0  0  0  0
    1.7165    3.4734    5.0790 C   0  0  0  0  0  0  0  0  0  0  0  0
    1.7991    2.4277    4.1841 C   0  0  0  0  0  0  0  0  0  0  0  0
    1.8592    1.4132    4.5515 H   0  0  0  0  0  0  0  0  0  0  0  0
    1.8089    2.6337    2.8023 C   0  0  0  0  0  0  0  0  0  0  0  0
    1.8632    1.7838    2.1387 H   0  0  0  0  0  0  0  0  0  0  0  0
    1.7557    3.9061    2.3162 C   0  0  0  0  0  0  0  0  0  0  0  0
    1.7681    4.0949    1.2526 H   0  0  0  0  0  0  0  0  0  0  0  0
    1.6886    5.0103    3.1913 C   0  0  0  0  0  0  0  0  0  0  0  0
    1.6674    6.3091    2.6434 C   0  0  0  0  0  0  0  0  0  0  0  0
    1.6903    6.4123    1.5682 H   0  0  0  0  0  0  0  0  0  0  0  0
    1.6242    7.4071    3.4514 C   0  0  0  0  0  0  0  0  0  0  0  0
    1.6206    8.4047    3.0387 H   0  0  0  0  0  0  0  0  0  0  0  0
    1.5657    7.2335    4.8352 C   0  0  0  0  0  0  0  0  0  0  0  0
    1.5159    8.1128    5.4623 H   0  0  0  0  0  0  0  0  0  0  0  0
    1.5610    5.9824    5.4179 C   0  0  0  0  0  0  0  0  0  0  0  0
    1.6533    4.8164    4.6056 C   0  0  0  0  0  0  0  0  0  0  0  0
    3.1496    6.2847    7.7509 C   0  0  0  0  0  0  0  0  0  0  0  0
    4.2125    6.3575    6.8601 C   0  0  0  0  0  0  0  0  0  0  0  0
    4.0387    6.2775    5.7958 H   0  0  0  0  0  0  0  0  0  0  0  0
    5.4999    6.5314    7.3372 C   0  0  0  0  0  0  0  0  0  0  0  0
    6.3239    6.5861    6.6407 H   0  0  0  0  0  0  0  0  0  0  0  0
    5.7341    6.6317    8.6974 C   0  0  0  0  0  0  0  0  0  0  0  0
    6.7416    6.7628    9.0631 H   0  0  0  0  0  0  0  0  0  0  0  0
    4.6758    6.5623    9.5901 C   0  0  0  0  0  0  0  0  0  0  0  0
    4.8543    6.6407   10.6522 H   0  0  0  0  0  0  0  0  0  0  0  0
    3.3898    6.3861    9.1194 C   0  0  0  0  0  0  0  0  0  0  0  0
    2.5538    6.3276    9.8053 H   0  0  0  0  0  0  0  0  0  0  0  0
    0.6159    7.6035    7.5591 C   0  0  0  0  0  0  0  0  0  0  0  0
    1.2333    8.6698    8.2021 C   0  0  0  0  0  0  0  0  0  0  0  0
    2.2712    8.6028    8.4968 H   0  0  0  0  0  0  0  0  0  0  0  0
    0.5146    9.8245    8.4603 C   0  0  0  0  0  0  0  0  0  0  0  0
    0.9972   10.6508    8.9618 H   0  0  0  0  0  0  0  0  0  0  0  0
   -0.8132    9.9228    8.0813 C   0  0  0  0  0  0  0  0  0  0  0  0
   -1.3681   10.8255    8.2896 H   0  0  0  0  0  0  0  0  0  0  0  0
   -1.4307    8.8620    7.4367 C   0  0  0  0  0  0  0  0  0  0  0  0
   -2.4666    8.9349    7.1410 H   0  0  0  0  0  0  0  0  0  0  0  0
   -0.7224    7.7053    7.1794 C   0  0  0  0  0  0  0  0  0  0  0  0
   -1.2000    6.8717    6.6801 H   0  0  0  0  0  0  0  0  0  0  0  0
   -1.0240    4.2547    6.2699 Cl  0  0  0  0  0  0  0  0  0  0  0  0
   -1.3298    1.6358    9.1313 O   0  0  0  0  0  1  0  0  0  0  0  0
    1.7616    4.0670   11.0132 O   0  0  0  0  0  1  0  0  0  0  0  0
   -1.9007    6.0157    9.6080 O   0  0  0  0  0  1  0  0  0  0  0  0
    1.7727    3.0084    6.8422 P   0  0  0  0  0  4  0  0  0  0  0  0
    1.4264    6.0024    7.2387 P   0  0  0  0  0  4  0  0  0  0  0  0
    0.2372    4.1814    8.3264 Re  0  0  0  0  0  0  0  0  0  0  0  0
  1 65  1  0  0  0  0
  2 66  1  0  0  0  0
  3 67  1  0  0  0  0
  4 13  1  0  0  0  0
  5  7  1  0  0  0  0
  5  4  2  0  0  0  0
  6  5  1  0  0  0  0
  7  9  2  0  0  0  0
  8  7  1  0  0  0  0
  9 10  1  0  0  0  0
  9 11  1  0  0  0  0
 11 12  1  0  0  0  0
 13 11  2  0  0  0  0
 13 14  1  0  0  0  0
 15 68  1  0  0  0  0
 15 16  1  0  0  0  0
 16 18  2  0  0  0  0
 16 17  1  0  0  0  0
 18 19  1  0  0  0  0
 20 21  1  0  0  0  0
 20 18  1  0  0  0  0
 22 20  2  0  0  0  0
 23 22  1  0  0  0  0
 24 22  1  0  0  0  0
 24 15  2  0  0  0  0
 25 24  1  0  0  0  0
 26 68  1  0  0  0  0
 27 28  1  0  0  0  0
 27 26  2  0  0  0  0
 29 27  1  0  0  0  0
 30 29  1  0  0  0  0
 31 29  2  0  0  0  0
 31 33  1  0  0  0  0
 32 31  1  0  0  0  0
 33 41  1  0  0  0  0
 34 33  2  0  0  0  0
 34 36  1  0  0  0  0
 35 34  1  0  0  0  0
 36 38  2  0  0  0  0
 37 36  1  0  0  0  0
 38 40  1  0  0  0  0
 38 39  1  0  0  0  0
 40 69  1  0  0  0  0
 41 26  1  0  0  0  0
 41 40  2  0  0  0  0
 42 51  1  0  0  0  0
 43 45  1  0  0  0  0
 43 42  2  0  0  0  0
 44 43  1  0  0  0  0
 45 47  2  0  0  0  0
 46 45  1  0  0  0  0
 47 48  1  0  0  0  0
 47 49  1  0  0  0  0
 49 50  1  0  0  0  0
 51 49  2  0  0  0  0
 51 52  1  0  0  0  0
 53 54  1  0  0  0  0
 54 56  2  0  0  0  0
 54 55  1  0  0  0  0
 56 57  1  0  0  0  0
 58 59  1  0  0  0  0
 58 56  1  0  0  0  0
 60 58  2  0  0  0  0
 61 60  1  0  0  0  0
 62 60  1  0  0  0  0
 62 53  2  0  0  0  0
 63 62  1  0  0  0  0
 64 70  1  0  0  0  0
 68  4  1  0  0  0  0
 68 70  1  0  0  0  0
 69 53  1  0  0  0  0
 69 42  1  0  0  0  0
 69 70  1  0  0  0  0
 70  1  1  0  0  0  0
 70  3  1  0  0  0  0
 70  2  1  0  0  0  0
M  END
$$$$
