CSD_code = AGAGAQ | q = 0 | S = 0 | Stoichiometry = C32H41ClNP2STc | MND = 5
 OpenBabel04212201593D

 79 84  0  0  0  0  0  0  0  0999 V2000
    5.9870    2.2679    2.1801 Tc  0  0  0  0  0  0  0  0  0  0  0  0
    6.5048    3.6579    3.9744 Cl  0  0  0  0  0  0  0  0  0  0  0  0
    4.4624    0.5609    1.6578 S   0  0  0  0  0  0  0  0  0  0  0  0
    7.1598    0.5001    3.2089 P   0  0  0  0  0  4  0  0  0  0  0  0
    4.2201    3.8569    1.9726 P   0  0  0  0  0  4  0  0  0  0  0  0
    6.9547    2.5672    0.8132 N   0  0  0  0  0  1  0  0  0  0  0  0
    6.6714   -1.0521    2.3299 C   0  0  0  0  0  0  0  0  0  0  0  0
    7.1903   -0.9984    1.3677 H   0  0  0  0  0  0  0  0  0  0  0  0
    7.0078   -1.9443    2.8662 H   0  0  0  0  0  0  0  0  0  0  0  0
    5.1767   -1.0860    2.0673 C   0  0  0  0  0  0  0  0  0  0  0  0
    4.6210   -1.4587    2.9299 H   0  0  0  0  0  0  0  0  0  0  0  0
    4.9438   -1.7221    1.2118 H   0  0  0  0  0  0  0  0  0  0  0  0
    6.6630    0.3015    4.9865 C   0  0  0  0  0  0  0  0  0  0  0  0
    7.2057    1.1050    5.5042 H   0  0  0  0  0  0  0  0  0  0  0  0
    7.0493   -1.0427    5.6003 C   0  0  0  0  0  0  0  0  0  0  0  0
    6.4875   -1.8464    5.1170 H   0  0  0  0  0  0  0  0  0  0  0  0
    8.1149   -1.2377    5.4568 H   0  0  0  0  0  0  0  0  0  0  0  0
    6.7226   -1.0432    7.0927 C   0  0  0  0  0  0  0  0  0  0  0  0
    6.9946   -2.0072    7.5285 H   0  0  0  0  0  0  0  0  0  0  0  0
    7.3121   -0.2712    7.5932 H   0  0  0  0  0  0  0  0  0  0  0  0
    5.2374   -0.7706    7.3150 C   0  0  0  0  0  0  0  0  0  0  0  0
    5.0185   -0.7553    8.3845 H   0  0  0  0  0  0  0  0  0  0  0  0
    4.6499   -1.5757    6.8659 H   0  0  0  0  0  0  0  0  0  0  0  0
    4.8395    0.5601    6.6835 C   0  0  0  0  0  0  0  0  0  0  0  0
    5.3787    1.3745    7.1739 H   0  0  0  0  0  0  0  0  0  0  0  0
    3.7704    0.7387    6.8212 H   0  0  0  0  0  0  0  0  0  0  0  0
    5.1694    0.5678    5.1944 C   0  0  0  0  0  0  0  0  0  0  0  0
    4.8950    1.5439    4.7849 H   0  0  0  0  0  0  0  0  0  0  0  0
    4.5673   -0.1923    4.6907 H   0  0  0  0  0  0  0  0  0  0  0  0
    9.0118    0.4177    3.1990 C   0  0  0  0  0  0  0  0  0  0  0  0
    9.3402   -0.5462    3.6116 H   0  0  0  0  0  0  0  0  0  0  0  0
    9.5554    1.5731    4.0430 C   0  0  0  0  0  0  0  0  0  0  0  0
    9.2804    1.4415    5.0919 H   0  0  0  0  0  0  0  0  0  0  0  0
    9.1038    2.5030    3.6844 H   0  0  0  0  0  0  0  0  0  0  0  0
   11.0738    1.6770    3.9409 C   0  0  0  0  0  0  0  0  0  0  0  0
   11.4202    2.5184    4.5439 H   0  0  0  0  0  0  0  0  0  0  0  0
   11.5306    0.7673    4.3409 H   0  0  0  0  0  0  0  0  0  0  0  0
   11.4955    1.8601    2.4889 C   0  0  0  0  0  0  0  0  0  0  0  0
   11.0549    2.7782    2.0972 H   0  0  0  0  0  0  0  0  0  0  0  0
   12.5819    1.9444    2.4201 H   0  0  0  0  0  0  0  0  0  0  0  0
   11.0065    0.6767    1.6644 C   0  0  0  0  0  0  0  0  0  0  0  0
   11.4707   -0.2409    2.0371 H   0  0  0  0  0  0  0  0  0  0  0  0
   11.2979    0.7997    0.6203 H   0  0  0  0  0  0  0  0  0  0  0  0
    9.4876    0.5528    1.7496 C   0  0  0  0  0  0  0  0  0  0  0  0
    9.1749   -0.3145    1.1654 H   0  0  0  0  0  0  0  0  0  0  0  0
    9.0140    1.4398    1.3129 H   0  0  0  0  0  0  0  0  0  0  0  0
    3.1990    3.7197    3.4630 C   0  0  0  0  0  0  0  0  0  0  0  0
    2.3167    2.6445    3.5589 C   0  0  0  0  0  0  0  0  0  0  0  0
    2.1906    1.9831    2.7107 H   0  0  0  0  0  0  0  0  0  0  0  0
    1.6264    2.4202    4.7353 C   0  0  0  0  0  0  0  0  0  0  0  0
    0.9432    1.5860    4.8063 H   0  0  0  0  0  0  0  0  0  0  0  0
    1.8195    3.2569    5.8237 C   0  0  0  0  0  0  0  0  0  0  0  0
    1.2848    3.0762    6.7450 H   0  0  0  0  0  0  0  0  0  0  0  0
    2.7044    4.3194    5.7346 C   0  0  0  0  0  0  0  0  0  0  0  0
    2.8625    4.9650    6.5861 H   0  0  0  0  0  0  0  0  0  0  0  0
    3.3983    4.5520    4.5605 C   0  0  0  0  0  0  0  0  0  0  0  0
    4.1068    5.3662    4.4971 H   0  0  0  0  0  0  0  0  0  0  0  0
    4.6393    5.6197    1.8289 C   0  0  0  0  0  0  0  0  0  0  0  0
    5.9229    5.9563    1.4131 C   0  0  0  0  0  0  0  0  0  0  0  0
    6.6397    5.1633    1.2267 H   0  0  0  0  0  0  0  0  0  0  0  0
    6.2652    7.2875    1.2528 C   0  0  0  0  0  0  0  0  0  0  0  0
    7.2635    7.5514    0.9371 H   0  0  0  0  0  0  0  0  0  0  0  0
    5.3300    8.2794    1.4987 C   0  0  0  0  0  0  0  0  0  0  0  0
    5.5989    9.3185    1.3770 H   0  0  0  0  0  0  0  0  0  0  0  0
    4.0461    7.9430    1.8992 C   0  0  0  0  0  0  0  0  0  0  0  0
    3.3166    8.7180    2.0859 H   0  0  0  0  0  0  0  0  0  0  0  0
    3.6956    6.6158    2.0613 C   0  0  0  0  0  0  0  0  0  0  0  0
    2.6945    6.3523    2.3749 H   0  0  0  0  0  0  0  0  0  0  0  0
    3.0417    3.6760    0.5995 C   0  0  0  0  0  0  0  0  0  0  0  0
    3.5581    3.1843   -0.5955 C   0  0  0  0  0  0  0  0  0  0  0  0
    4.6018    2.8918   -0.6300 H   0  0  0  0  0  0  0  0  0  0  0  0
    2.7353    3.0560   -1.6992 C   0  0  0  0  0  0  0  0  0  0  0  0
    3.1330    2.6692   -2.6253 H   0  0  0  0  0  0  0  0  0  0  0  0
    1.4000    3.4166   -1.6137 C   0  0  0  0  0  0  0  0  0  0  0  0
    0.7550    3.3113   -2.4738 H   0  0  0  0  0  0  0  0  0  0  0  0
    0.8859    3.9070   -0.4243 C   0  0  0  0  0  0  0  0  0  0  0  0
   -0.1565    4.1840   -0.3582 H   0  0  0  0  0  0  0  0  0  0  0  0
    1.7031    4.0412    0.6835 C   0  0  0  0  0  0  0  0  0  0  0  0
    1.2952    4.4140    1.6136 H   0  0  0  0  0  0  0  0  0  0  0  0
  1  4  1  0  0  0  0
  1  2  1  0  0  0  0
  3 10  1  0  0  0  0
  3  1  1  0  0  0  0
  4 13  1  0  0  0  0
  5  1  1  0  0  0  0
  5 47  1  0  0  0  0
  6  1  1  0  0  0  0
  7  9  1  0  0  0  0
  7  4  1  0  0  0  0
  8  7  1  0  0  0  0
 10  7  1  0  0  0  0
 10 11  1  0  0  0  0
 12 10  1  0  0  0  0
 13 27  1  0  0  0  0
 13 14  1  0  0  0  0
 13 15  1  0  0  0  0
 15 18  1  0  0  0  0
 16 15  1  0  0  0  0
 17 15  1  0  0  0  0
 18 21  1  0  0  0  0
 18 19  1  0  0  0  0
 18 20  1  0  0  0  0
 21 22  1  0  0  0  0
 23 21  1  0  0  0  0
 24 26  1  0  0  0  0
 24 25  1  0  0  0  0
 24 21  1  0  0  0  0
 27 24  1  0  0  0  0
 28 27  1  0  0  0  0
 29 27  1  0  0  0  0
 30  4  1  0  0  0  0
 30 31  1  0  0  0  0
 30 32  1  0  0  0  0
 32 33  1  0  0  0  0
 34 32  1  0  0  0  0
 35 32  1  0  0  0  0
 35 37  1  0  0  0  0
 35 36  1  0  0  0  0
 38 35  1  0  0  0  0
 39 38  1  0  0  0  0
 40 38  1  0  0  0  0
 41 44  1  0  0  0  0
 41 42  1  0  0  0  0
 41 38  1  0  0  0  0
 43 41  1  0  0  0  0
 44 30  1  0  0  0  0
 45 44  1  0  0  0  0
 46 44  1  0  0  0  0
 47 48  2  0  0  0  0
 47 56  1  0  0  0  0
 48 50  1  0  0  0  0
 49 48  1  0  0  0  0
 50 51  1  0  0  0  0
 50 52  2  0  0  0  0
 52 53  1  0  0  0  0
 54 52  1  0  0  0  0
 54 55  1  0  0  0  0
 56 54  2  0  0  0  0
 57 56  1  0  0  0  0
 58  5  1  0  0  0  0
 58 67  1  0  0  0  0
 59 58  2  0  0  0  0
 60 59  1  0  0  0  0
 61 59  1  0  0  0  0
 61 63  2  0  0  0  0
 62 61  1  0  0  0  0
 63 65  1  0  0  0  0
 64 63  1  0  0  0  0
 65 67  2  0  0  0  0
 65 66  1  0  0  0  0
 67 68  1  0  0  0  0
 69 78  1  0  0  0  0
 69  5  1  0  0  0  0
 70 69  2  0  0  0  0
 71 70  1  0  0  0  0
 72 74  2  0  0  0  0
 72 70  1  0  0  0  0
 73 72  1  0  0  0  0
 74 76  1  0  0  0  0
 75 74  1  0  0  0  0
 76 77  1  0  0  0  0
 76 78  2  0  0  0  0
 78 79  1  0  0  0  0
M  END
$$$$
