CSD_code = AGAHIA | q = 0 | S = 0 | Stoichiometry = C23H46Cl3N3O2PSi2V | MND = 5
 OpenBabel04212201593D

 81 82  0  0  0  0  0  0  0  0999 V2000
   10.7966    3.8574    1.6273 V   0  0  0  0  0  0  0  0  0  0  0  0
    9.1266    2.6976    1.9872 Cl  0  0  0  0  0  0  0  0  0  0  0  0
   11.9541    4.8473    0.2254 Cl  0  0  0  0  0  0  0  0  0  0  0  0
   12.0485    3.7778    3.4627 Cl  0  0  0  0  0  0  0  0  0  0  0  0
    6.2442    4.9120    1.7928 Si  0  0  0  0  0  0  0  0  0  0  0  0
   10.2640    8.2180    3.1069 Si  0  0  0  0  0  0  0  0  0  0  0  0
    8.4961    5.9904    2.3057 P   0  0  0  0  0  4  0  0  0  0  0  0
    9.9006    5.5214    2.2979 O   0  0  0  0  0  0  0  0  0  0  0  0
   11.7315    2.0963    0.9527 O   0  0  0  0  0  0  0  0  0  0  0  0
    7.5288    5.7721    0.9471 N   0  0  0  0  0  0  0  0  0  0  0  0
    7.3187    5.1585    3.1623 N   0  0  0  0  0  0  0  0  0  0  0  0
    8.6286    7.5663    2.8097 N   0  0  0  0  0  0  0  0  0  0  0  0
    7.8640    5.8770   -0.4611 C   0  0  0  0  0  0  0  0  0  0  0  0
    8.9229    6.9618   -0.6401 C   0  0  0  0  0  0  0  0  0  0  0  0
    8.5750    7.9112   -0.2380 H   0  0  0  0  0  0  0  0  0  0  0  0
    9.1604    7.0913   -1.6941 H   0  0  0  0  0  0  0  0  0  0  0  0
    9.8263    6.6652   -0.1119 H   0  0  0  0  0  0  0  0  0  0  0  0
    8.4231    4.5444   -0.9776 C   0  0  0  0  0  0  0  0  0  0  0  0
    9.3162    4.2741   -0.4053 H   0  0  0  0  0  0  0  0  0  0  0  0
    8.6958    4.6306   -2.0273 H   0  0  0  0  0  0  0  0  0  0  0  0
    7.6845    3.7548   -0.8633 H   0  0  0  0  0  0  0  0  0  0  0  0
    6.5943    6.2325   -1.2415 C   0  0  0  0  0  0  0  0  0  0  0  0
    6.1766    7.1710   -0.8859 H   0  0  0  0  0  0  0  0  0  0  0  0
    5.8469    5.4536   -1.1126 H   0  0  0  0  0  0  0  0  0  0  0  0
    6.8218    6.3305   -2.3000 H   0  0  0  0  0  0  0  0  0  0  0  0
    7.2447    4.7663    4.5573 C   0  0  0  0  0  0  0  0  0  0  0  0
    6.8961    3.2787    4.6569 C   0  0  0  0  0  0  0  0  0  0  0  0
    7.6294    2.6845    4.1197 H   0  0  0  0  0  0  0  0  0  0  0  0
    5.9153    3.0942    4.2260 H   0  0  0  0  0  0  0  0  0  0  0  0
    6.8883    2.9671    5.6985 H   0  0  0  0  0  0  0  0  0  0  0  0
    8.6023    5.0262    5.2004 C   0  0  0  0  0  0  0  0  0  0  0  0
    9.3733    4.4421    4.6966 H   0  0  0  0  0  0  0  0  0  0  0  0
    8.5893    4.7535    6.2535 H   0  0  0  0  0  0  0  0  0  0  0  0
    8.8483    6.0803    5.1047 H   0  0  0  0  0  0  0  0  0  0  0  0
    6.1534    5.5801    5.2648 C   0  0  0  0  0  0  0  0  0  0  0  0
    6.3502    6.6445    5.1670 H   0  0  0  0  0  0  0  0  0  0  0  0
    6.1175    5.3212    6.3202 H   0  0  0  0  0  0  0  0  0  0  0  0
    5.1854    5.3683    4.8174 H   0  0  0  0  0  0  0  0  0  0  0  0
    4.6161    5.8885    1.9277 C   0  0  0  0  0  0  0  0  0  0  0  0
    3.8652    5.2756    2.4141 H   0  0  0  0  0  0  0  0  0  0  0  0
    4.2333    6.1422    0.9456 H   0  0  0  0  0  0  0  0  0  0  0  0
    4.7198    6.8073    2.4941 H   0  0  0  0  0  0  0  0  0  0  0  0
    5.8353    3.1402    1.2271 C   0  0  0  0  0  0  0  0  0  0  0  0
    5.0740    2.7138    1.8719 H   0  0  0  0  0  0  0  0  0  0  0  0
    6.6953    2.4787    1.2421 H   0  0  0  0  0  0  0  0  0  0  0  0
    5.4283    3.1506    0.2206 H   0  0  0  0  0  0  0  0  0  0  0  0
    7.4723    8.3138    3.0846 C   0  0  0  0  0  0  0  0  0  0  0  0
    6.5650    8.6216    2.0799 C   0  0  0  0  0  0  0  0  0  0  0  0
    6.7487    8.2601    1.0818 H   0  0  0  0  0  0  0  0  0  0  0  0
    5.4443    9.3863    2.3549 C   0  0  0  0  0  0  0  0  0  0  0  0
    4.7498    9.6202    1.5609 H   0  0  0  0  0  0  0  0  0  0  0  0
    5.2158    9.8566    3.6361 C   0  0  0  0  0  0  0  0  0  0  0  0
    4.3436   10.4562    3.8487 H   0  0  0  0  0  0  0  0  0  0  0  0
    6.1176    9.5553    4.6434 C   0  0  0  0  0  0  0  0  0  0  0  0
    5.9478    9.9168    5.6471 H   0  0  0  0  0  0  0  0  0  0  0  0
    7.2353    8.7883    4.3721 C   0  0  0  0  0  0  0  0  0  0  0  0
    7.9402    8.5521    5.1553 H   0  0  0  0  0  0  0  0  0  0  0  0
    9.9654   10.0608    3.5026 C   0  0  0  0  0  0  0  0  0  0  0  0
    9.2553   10.5206    2.8238 H   0  0  0  0  0  0  0  0  0  0  0  0
   10.9044   10.5928    3.4077 H   0  0  0  0  0  0  0  0  0  0  0  0
    9.6058   10.2242    4.5108 H   0  0  0  0  0  0  0  0  0  0  0  0
   11.1768    7.3860    4.5581 C   0  0  0  0  0  0  0  0  0  0  0  0
   11.3440    6.3299    4.3598 H   0  0  0  0  0  0  0  0  0  0  0  0
   10.6587    7.4737    5.5099 H   0  0  0  0  0  0  0  0  0  0  0  0
   12.1515    7.8504    4.6801 H   0  0  0  0  0  0  0  0  0  0  0  0
   11.3723    8.2000    1.5604 C   0  0  0  0  0  0  0  0  0  0  0  0
   10.9214    8.6937    0.7042 H   0  0  0  0  0  0  0  0  0  0  0  0
   11.6343    7.1865    1.2724 H   0  0  0  0  0  0  0  0  0  0  0  0
   12.3001    8.7189    1.7842 H   0  0  0  0  0  0  0  0  0  0  0  0
   12.1010    1.0368    1.8317 C   0  0  0  0  0  0  0  0  0  0  0  0
   11.2805    0.8534    2.5396 H   0  0  0  0  0  0  0  0  0  0  0  0
   12.9812    1.3708    2.3881 H   0  0  0  0  0  0  0  0  0  0  0  0
   12.3704   -0.1961    0.9510 C   0  0  0  0  0  0  0  0  0  0  0  0
   13.3604   -0.6105    1.1271 H   0  0  0  0  0  0  0  0  0  0  0  0
   11.6321   -0.9723    1.1495 H   0  0  0  0  0  0  0  0  0  0  0  0
   12.2157    0.3400   -0.4752 C   0  0  0  0  0  0  0  0  0  0  0  0
   11.8118   -0.3974   -1.1644 H   0  0  0  0  0  0  0  0  0  0  0  0
   13.1730    0.6976   -0.8556 H   0  0  0  0  0  0  0  0  0  0  0  0
   11.2769    1.5223   -0.2588 C   0  0  0  0  0  0  0  0  0  0  0  0
   11.3415    2.2911   -1.0343 H   0  0  0  0  0  0  0  0  0  0  0  0
   10.2336    1.1862   -0.1446 H   0  0  0  0  0  0  0  0  0  0  0  0
  1  2  1  0  0  0  0
  1  8  1  0  0  0  0
  1  4  1  0  0  0  0
  3  1  1  0  0  0  0
  5 39  1  0  0  0  0
  5 11  1  0  0  0  0
  6 58  1  0  0  0  0
  6 62  1  0  0  0  0
  7 12  1  0  0  0  0
  7 11  1  0  0  0  0
  8  7  1  0  0  0  0
  9 70  1  0  0  0  0
 10  5  1  0  0  0  0
 10  7  1  0  0  0  0
 11 26  1  0  0  0  0
 12 47  1  0  0  0  0
 12  6  1  0  0  0  0
 13 10  1  0  0  0  0
 14 13  1  0  0  0  0
 14 15  1  0  0  0  0
 14 17  1  0  0  0  0
 16 14  1  0  0  0  0
 18 21  1  0  0  0  0
 18 13  1  0  0  0  0
 18 19  1  0  0  0  0
 20 18  1  0  0  0  0
 22 24  1  0  0  0  0
 22 23  1  0  0  0  0
 22 13  1  0  0  0  0
 25 22  1  0  0  0  0
 26 27  1  0  0  0  0
 26 31  1  0  0  0  0
 26 35  1  0  0  0  0
 27 30  1  0  0  0  0
 28 27  1  0  0  0  0
 29 27  1  0  0  0  0
 31 33  1  0  0  0  0
 32 31  1  0  0  0  0
 34 31  1  0  0  0  0
 35 37  1  0  0  0  0
 36 35  1  0  0  0  0
 38 35  1  0  0  0  0
 39 40  1  0  0  0  0
 39 42  1  0  0  0  0
 41 39  1  0  0  0  0
 43 45  1  0  0  0  0
 43  5  1  0  0  0  0
 43 44  1  0  0  0  0
 46 43  1  0  0  0  0
 47 56  1  0  0  0  0
 48 50  1  0  0  0  0
 48 47  2  0  0  0  0
 49 48  1  0  0  0  0
 50 52  2  0  0  0  0
 51 50  1  0  0  0  0
 52 53  1  0  0  0  0
 52 54  1  0  0  0  0
 54 55  1  0  0  0  0
 56 54  2  0  0  0  0
 56 57  1  0  0  0  0
 58 61  1  0  0  0  0
 59 58  1  0  0  0  0
 60 58  1  0  0  0  0
 62 65  1  0  0  0  0
 62 64  1  0  0  0  0
 63 62  1  0  0  0  0
 66 69  1  0  0  0  0
 66  6  1  0  0  0  0
 67 66  1  0  0  0  0
 68 66  1  0  0  0  0
 70 72  1  0  0  0  0
 70 71  1  0  0  0  0
 73 74  1  0  0  0  0
 73 75  1  0  0  0  0
 73 70  1  0  0  0  0
 76 79  1  0  0  0  0
 76 73  1  0  0  0  0
 77 76  1  0  0  0  0
 78 76  1  0  0  0  0
 79 81  1  0  0  0  0
 79  9  1  0  0  0  0
 80 79  1  0  0  0  0
M  END
$$$$
