CSD_code = AGAXEM | q = 1 | S = 0 | Stoichiometry = C19H15ClN3Ru(1+) | MND = 9
 OpenBabel04212201593D

 39 43  0  0  1  0  0  0  0  0999 V2000
    1.8249   10.6965    1.8357 C   0  0  0  0  0  0  0  0  0  0  0  0
    1.8178   12.3865    3.3535 C   0  0  0  0  0  0  0  0  0  0  0  0
    2.0199   12.7015    4.3684 H   0  0  0  0  0  0  0  0  0  0  0  0
    1.3385   13.3067    2.4060 C   0  0  0  0  0  0  0  0  0  0  0  0
    1.1703   14.3318    2.6936 H   0  0  0  0  0  0  0  0  0  0  0  0
    1.0945   12.8794    1.1257 C   0  0  0  0  0  3  0  0  0  0  0  0
    0.7260   13.5525    0.3663 H   0  0  0  0  0  0  0  0  0  0  0  0
    1.3445   11.5325    0.7947 C   0  0  0  0  0  0  0  0  0  0  0  0
    1.1844   10.9635   -0.4878 C   0  0  0  0  0  0  0  0  0  0  0  0
    0.8136   11.5737   -1.2967 H   0  0  0  0  0  0  0  0  0  0  0  0
    1.5351    9.6567   -0.6903 C   0  0  0  0  0  0  0  0  0  0  0  0
    1.4541    9.2111   -1.6676 H   0  0  0  0  0  0  0  0  0  0  0  0
    2.0355    8.8933    0.3835 C   0  0  0  0  0  0  0  0  0  0  0  0
    2.5719    7.5455    0.3080 C   0  0  1  0  0  3  0  0  0  0  0  0
    2.6309    6.7549   -0.8389 C   0  0  0  0  0  0  0  0  0  0  0  0
    2.2096    7.1168   -1.7620 H   0  0  0  0  0  0  0  0  0  0  0  0
    3.2444    5.5188   -0.7806 C   0  0  0  0  0  0  0  0  0  0  0  0
    3.3041    4.8922   -1.6557 H   0  0  0  0  0  0  0  0  0  0  0  0
    3.8021    5.1107    0.4257 C   0  0  0  0  0  0  0  0  0  0  0  0
    4.3128    4.1657    0.5110 H   0  0  0  0  0  0  0  0  0  0  0  0
    3.7029    5.9399    1.5262 C   0  0  0  0  0  0  0  0  0  0  0  0
    4.1493    5.6521    2.4683 H   0  0  0  0  0  0  0  0  0  0  0  0
    3.1733    9.3249    5.3560 C   0  0  0  0  0  0  0  0  0  0  0  0
    3.5265   10.2723    5.7396 H   0  0  0  0  0  0  0  0  0  0  0  0
    4.0892    8.2622    5.1613 C   0  0  0  0  0  0  0  0  0  0  0  0
    5.1358    8.4090    5.4085 H   0  0  0  0  0  0  0  0  0  0  0  0
    3.6297    6.9882    4.8091 C   0  0  0  0  0  0  0  0  0  0  0  0
    4.3058    6.1410    4.8361 H   0  0  0  0  0  0  0  0  0  0  0  0
    2.2625    6.8043    4.4937 C   0  0  1  0  0  0  0  0  0  0  0  0
    1.8861    5.8097    4.2739 H   0  0  0  0  0  0  0  0  0  0  0  0
    1.3615    7.8819    4.6179 C   0  0  0  0  0  3  0  0  0  0  0  0
    0.2994    7.7149    4.4773 H   0  0  0  0  0  0  0  0  0  0  0  0
    1.8183    9.1238    5.1132 C   0  0  0  0  0  0  0  0  0  0  0  0
    1.1052    9.9079    5.3274 H   0  0  0  0  0  0  0  0  0  0  0  0
    4.9445    9.2974    2.1618 Cl  0  0  0  0  0  0  0  0  0  0  0  0
    2.1287    9.4001    1.6168 N   0  0  0  0  0  0  0  0  0  0  0  0
    2.0442   11.1249    3.0855 N   0  0  0  0  0  0  0  0  0  0  0  0
    3.0853    7.1188    1.4896 N   0  0  0  0  0  0  0  0  0  0  0  0
    3.0082    8.3669    3.0237 Ru  0  0  2  0  0  0  0  0  0  0  0  0
  1 37  2  0  0  0  0
  2  3  1  0  0  0  0
  4  5  1  0  0  0  0
  4  2  2  0  0  0  0
  6  4  1  0  0  0  0
  7  6  1  0  0  0  0
  8  6  1  0  0  0  0
  8  1  1  0  0  0  0
  9  8  2  0  0  0  0
 10  9  1  0  0  0  0
 11  9  1  0  0  0  0
 11 13  2  0  0  0  0
 12 11  1  0  0  0  0
 13 36  1  0  0  0  0
 14 15  1  6  0  0  0
 14 13  1  0  0  0  0
 14 38  1  0  0  0  0
 15 17  2  0  0  0  0
 16 15  1  0  0  0  0
 17 19  1  0  0  0  0
 18 17  1  0  0  0  0
 19 20  1  0  0  0  0
 19 21  2  0  0  0  0
 21 22  1  0  0  0  0
 23 24  1  0  0  0  0
 25 23  1  0  0  0  0
 25 26  1  0  0  0  0
 27 28  1  0  0  0  0
 27 25  2  0  0  0  0
 29 30  1  6  0  0  0
 29 31  1  0  0  0  0
 29 27  1  0  0  0  0
 31 33  1  0  0  0  0
 32 31  1  0  0  0  0
 33 34  1  0  0  0  0
 33 23  2  0  0  0  0
 36  1  1  0  0  0  0
 36 39  1  0  0  0  0
 37  2  1  0  0  0  0
 38 21  1  0  0  0  0
 38 39  1  0  0  0  0
 39 35  1  1  0  0  0
 39 29  1  0  0  0  0
M  END
$$$$
