CSD_code = AGAXOW | q = 1 | S = 0 | Stoichiometry = C23H23ClN3Ru(1+) | MND = 9
 OpenBabel04212202003D

 51 55  0  0  1  0  0  0  0  0999 V2000
    1.1937    2.1271    3.2353 C   0  0  0  0  0  0  0  0  0  0  0  0
    2.1981    0.5360    4.5075 C   0  0  0  0  0  0  0  0  0  0  0  0
    2.8759    0.3121    5.3200 H   0  0  0  0  0  0  0  0  0  0  0  0
    1.5446   -0.5001    3.8210 C   0  0  0  0  0  0  0  0  0  0  0  0
    1.7217   -1.5249    4.1043 H   0  0  0  0  0  0  0  0  0  0  0  0
    0.6856   -0.1848    2.7984 C   0  0  0  0  0  3  0  0  0  0  0  0
    0.1620   -0.9499    2.2453 H   0  0  0  0  0  0  0  0  0  0  0  0
    0.4756    1.1697    2.4743 C   0  0  0  0  0  0  0  0  0  0  0  0
   -0.4094    1.6450    1.4803 C   0  0  0  0  0  0  0  0  0  0  0  0
   -0.9651    0.9391    0.8833 H   0  0  0  0  0  0  0  0  0  0  0  0
   -0.5698    2.9931    1.3151 C   0  0  0  0  0  0  0  0  0  0  0  0
   -1.2623    3.3790    0.5859 H   0  0  0  0  0  0  0  0  0  0  0  0
    0.1570    3.8893    2.1246 C   0  0  0  0  0  0  0  0  0  0  0  0
    0.0250    5.3335    2.1496 C   0  0  1  0  0  3  0  0  0  0  0  0
   -0.8231    6.0895    1.3402 C   0  0  0  0  0  0  0  0  0  0  0  0
   -1.4240    5.6010    0.5913 H   0  0  0  0  0  0  0  0  0  0  0  0
   -0.8944    7.4559    1.5209 C   0  0  0  0  0  0  0  0  0  0  0  0
   -1.5465    8.0589    0.9103 H   0  0  0  0  0  0  0  0  0  0  0  0
   -0.1218    8.0347    2.5229 C   0  0  0  0  0  0  0  0  0  0  0  0
   -0.1645    9.0941    2.7151 H   0  0  0  0  0  0  0  0  0  0  0  0
    0.7017    7.2309    3.2851 C   0  0  0  0  0  0  0  0  0  0  0  0
    1.2937    7.6562    4.0842 H   0  0  0  0  0  0  0  0  0  0  0  0
    3.0510    5.0898    6.4326 C   0  0  0  0  0  0  0  0  0  0  0  0
    3.1616    6.1972    5.5742 C   0  0  0  0  0  0  0  0  0  0  0  0
    2.9051    7.1837    5.9469 H   0  0  0  0  0  0  0  0  0  0  0  0
    3.7068    6.0560    4.2785 C   0  0  1  0  0  0  0  0  0  0  0  0
    3.8677    6.9436    3.6742 H   0  0  0  0  0  0  0  0  0  0  0  0
    4.1955    4.8079    3.8265 C   0  0  2  0  0  3  0  0  0  0  0  0
    4.1362    3.7163    4.7230 C   0  0  0  0  0  0  0  0  0  0  0  0
    4.5866    2.7743    4.4370 H   0  0  0  0  0  0  0  0  0  0  0  0
    3.5520    3.8441    5.9806 C   0  0  0  0  0  0  0  0  0  0  0  0
    3.5350    2.9969    6.6533 H   0  0  0  0  0  0  0  0  0  0  0  0
    2.4790    5.2231    7.8041 C   0  0  0  0  0  0  0  0  0  0  0  0
    3.0261    4.6043    8.5120 H   0  0  0  0  0  0  0  0  0  0  0  0
    1.4408    4.8824    7.7969 H   0  0  0  0  0  0  0  0  0  0  0  0
    2.4921    6.2576    8.1405 H   0  0  0  0  0  0  0  0  0  0  0  0
    4.8778    4.6752    2.4849 C   0  0  0  0  0  0  0  0  0  0  0  0
    5.0965    3.6147    2.3191 H   0  0  0  0  0  0  0  0  0  0  0  0
    3.9598    5.1542    1.3568 C   0  0  0  0  0  0  0  0  0  0  0  0
    2.9933    4.6457    1.4140 H   0  0  0  0  0  0  0  0  0  0  0  0
    4.4082    4.9314    0.3923 H   0  0  0  0  0  0  0  0  0  0  0  0
    3.7948    6.2283    1.4103 H   0  0  0  0  0  0  0  0  0  0  0  0
    6.2018    5.4455    2.4849 C   0  0  0  0  0  0  0  0  0  0  0  0
    6.7137    5.2976    1.5382 H   0  0  0  0  0  0  0  0  0  0  0  0
    6.8490    5.0926    3.2843 H   0  0  0  0  0  0  0  0  0  0  0  0
    6.0353    6.5112    2.6205 H   0  0  0  0  0  0  0  0  0  0  0  0
   -0.0391    4.4284    5.5099 Cl  0  0  0  0  0  0  0  0  0  0  0  0
    1.0428    3.4526    3.0290 N   0  0  0  0  0  0  0  0  0  0  0  0
    2.0385    1.8046    4.2225 N   0  0  0  0  0  0  0  0  0  0  0  0
    0.8006    5.9148    3.1015 N   0  0  0  0  0  0  0  0  0  0  0  0
    1.8718    4.7228    4.2470 Ru  0  0  2  0  0  0  0  0  0  0  0  0
  1 49  2  0  0  0  0
  2  3  1  0  0  0  0
  4  5  1  0  0  0  0
  4  2  2  0  0  0  0
  6  4  1  0  0  0  0
  7  6  1  0  0  0  0
  8  6  1  0  0  0  0
  8  1  1  0  0  0  0
  9  8  2  0  0  0  0
 10  9  1  0  0  0  0
 11  9  1  0  0  0  0
 11 13  2  0  0  0  0
 12 11  1  0  0  0  0
 13 14  1  0  0  0  0
 13 48  1  0  0  0  0
 14 15  1  1  0  0  0
 14 50  1  0  0  0  0
 15 17  2  0  0  0  0
 16 15  1  0  0  0  0
 17 19  1  0  0  0  0
 18 17  1  0  0  0  0
 19 20  1  0  0  0  0
 19 21  2  0  0  0  0
 21 22  1  0  0  0  0
 23 33  1  0  0  0  0
 24 25  1  0  0  0  0
 24 23  2  0  0  0  0
 26 27  1  6  0  0  0
 26 24  1  0  0  0  0
 28 37  1  1  0  0  0
 28 26  1  0  0  0  0
 28 29  1  0  0  0  0
 29 31  2  0  0  0  0
 30 29  1  0  0  0  0
 31 23  1  0  0  0  0
 31 32  1  0  0  0  0
 33 36  1  0  0  0  0
 33 34  1  0  0  0  0
 35 33  1  0  0  0  0
 38 37  1  0  0  0  0
 39 42  1  0  0  0  0
 39 40  1  0  0  0  0
 39 37  1  0  0  0  0
 41 39  1  0  0  0  0
 43 37  1  0  0  0  0
 43 46  1  0  0  0  0
 43 45  1  0  0  0  0
 44 43  1  0  0  0  0
 48  1  1  0  0  0  0
 48 51  1  0  0  0  0
 49  2  1  0  0  0  0
 50 21  1  0  0  0  0
 50 51  1  0  0  0  0
 51 26  1  0  0  0  0
 51 47  1  1  0  0  0
M  END
$$$$
