CSD_code = AGAZIU | q = 0 | S = 0 | Stoichiometry = C18H27ClOTi | MND = 10
 OpenBabel04212202003D

 48 48  0  0  1  0  0  0  0  0999 V2000
    6.7165    2.9564    7.0468 Cl  0  0  0  0  0 15  0  0  0  0  0  0
    3.9713    2.4645    8.0664 O   0  0  0  0  0  0  0  0  0  0  0  0
    3.8424    5.5984    8.1162 C   0  0  1  0  0  3  0  0  0  0  0  0
    4.9060    5.9898    7.2231 C   0  0  0  0  0  0  0  0  0  0  0  0
    6.1386    5.9365    7.8845 C   0  0  0  0  0  0  0  0  0  0  0  0
    5.8939    5.4617    9.2145 C   0  0  2  0  0  3  0  0  0  0  0  0
    6.4925    4.3844    9.9280 C   0  0  2  0  0  3  0  0  0  0  0  0
    5.4412    3.6788   10.5912 C   0  0  0  0  0  0  0  0  0  0  0  0
    4.1953    4.2809   10.3036 C   0  0  0  0  0  0  0  0  0  0  0  0
    4.4476    5.3742    9.4056 C   0  0  1  0  0  0  0  0  0  0  0  0
    2.3690    5.7583    7.8666 C   0  0  0  0  0  0  0  0  0  0  0  0
    4.7378    6.4400    5.7993 C   0  0  0  0  0  0  0  0  0  0  0  0
    7.4697    6.2669    7.2841 C   0  0  0  0  0  0  0  0  0  0  0  0
    7.9514    4.0687   10.0640 C   0  0  0  0  0  0  0  0  0  0  0  0
    5.6536    2.5080   11.5049 C   0  0  0  0  0  0  0  0  0  0  0  0
    2.8653    3.8388   10.8344 C   0  0  0  0  0  0  0  0  0  0  0  0
    3.4187    1.7702    6.9997 C   0  0  0  0  0  0  0  0  0  0  0  0
    4.2396    0.4912    6.7641 C   0  0  0  0  0  0  0  0  0  0  0  0
    3.4647    2.6737    5.7509 C   0  0  0  0  0  0  0  0  0  0  0  0
    1.9606    1.4108    7.3343 C   0  0  0  0  0  0  0  0  0  0  0  0
    5.0389    3.7548    8.2502 Ti  0  0  0  0  0  0  0  0  0  0  0  0
    1.8103    4.9414    8.3266 H   0  0  0  0  0  0  0  0  0  0  0  0
    2.0126    6.6966    8.3001 H   0  0  0  0  0  0  0  0  0  0  0  0
    2.1417    5.7792    6.8012 H   0  0  0  0  0  0  0  0  0  0  0  0
    5.4659    5.9446    5.1551 H   0  0  0  0  0  0  0  0  0  0  0  0
    4.8955    7.5180    5.7232 H   0  0  0  0  0  0  0  0  0  0  0  0
    3.7403    6.2176    5.4251 H   0  0  0  0  0  0  0  0  0  0  0  0
    7.9337    5.3717    6.8600 H   0  0  0  0  0  0  0  0  0  0  0  0
    8.1372    6.6747    8.0419 H   0  0  0  0  0  0  0  0  0  0  0  0
    7.3609    7.0025    6.4881 H   0  0  0  0  0  0  0  0  0  0  0  0
    8.2549    4.1019   11.1131 H   0  0  0  0  0  0  0  0  0  0  0  0
    8.5517    4.7839    9.5070 H   0  0  0  0  0  0  0  0  0  0  0  0
    8.1702    3.0690    9.6798 H   0  0  0  0  0  0  0  0  0  0  0  0
    4.7619    1.8832   11.5435 H   0  0  0  0  0  0  0  0  0  0  0  0
    5.8806    2.8499   12.5177 H   0  0  0  0  0  0  0  0  0  0  0  0
    6.4899    1.9006   11.1574 H   0  0  0  0  0  0  0  0  0  0  0  0
    2.1365    4.6429   10.7505 H   0  0  0  0  0  0  0  0  0  0  0  0
    2.9417    3.5536   11.8841 H   0  0  0  0  0  0  0  0  0  0  0  0
    2.5007    2.9737   10.2708 H   0  0  0  0  0  0  0  0  0  0  0  0
    3.8367   -0.0768    5.9298 H   0  0  0  0  0  0  0  0  0  0  0  0
    4.2179   -0.1243    7.6626 H   0  0  0  0  0  0  0  0  0  0  0  0
    5.2747    0.7604    6.5527 H   0  0  0  0  0  0  0  0  0  0  0  0
    3.0677    2.1505    4.8836 H   0  0  0  0  0  0  0  0  0  0  0  0
    4.5021    2.9644    5.5520 H   0  0  0  0  0  0  0  0  0  0  0  0
    2.8678    3.5699    5.9334 H   0  0  0  0  0  0  0  0  0  0  0  0
    1.5007    0.8727    6.5103 H   0  0  0  0  0  0  0  0  0  0  0  0
    1.9327    0.7868    8.2254 H   0  0  0  0  0  0  0  0  0  0  0  0
    1.3940    2.3202    7.5283 H   0  0  0  0  0  0  0  0  0  0  0  0
  2 21  1  0  0  0  0
  3 11  1  1  0  0  0
  3 10  1  0  0  0  0
  4  5  2  0  0  0  0
  4  3  1  0  0  0  0
  6  5  1  6  0  0  0
  6 10  1  0  0  0  0
  6  7  1  0  0  0  0
  7 14  1  1  0  0  0
  7  8  1  0  0  0  0
  8 15  1  0  0  0  0
  9  8  2  0  0  0  0
  9 16  1  0  0  0  0
 10 21  1  6  0  0  0
 10  9  1  0  0  0  0
 11 23  1  0  0  0  0
 11 22  1  0  0  0  0
 12  4  1  0  0  0  0
 13  5  1  0  0  0  0
 13 29  1  0  0  0  0
 14 31  1  0  0  0  0
 15 34  1  0  0  0  0
 15 35  1  0  0  0  0
 16 38  1  0  0  0  0
 17 20  1  0  0  0  0
 17  2  1  0  0  0  0
 18 17  1  0  0  0  0
 18 41  1  0  0  0  0
 19 45  1  0  0  0  0
 19 17  1  0  0  0  0
 20 48  1  0  0  0  0
 20 47  1  0  0  0  0
 24 11  1  0  0  0  0
 25 12  1  0  0  0  0
 26 12  1  0  0  0  0
 27 12  1  0  0  0  0
 28 13  1  0  0  0  0
 30 13  1  0  0  0  0
 32 14  1  0  0  0  0
 33 14  1  0  0  0  0
 36 15  1  0  0  0  0
 37 16  1  0  0  0  0
 39 16  1  0  0  0  0
 40 18  1  0  0  0  0
 42 18  1  0  0  0  0
 43 19  1  0  0  0  0
 44 19  1  0  0  0  0
 46 20  1  0  0  0  0
M  END
$$$$
