CSD_code = AGAZEQ | q = 0 | S = 0 | Stoichiometry = C28H39ClOTi | MND = 10
 OpenBabel04212202003D

 70 71  0  0  1  0  0  0  0  0999 V2000
    2.4931    0.8398    7.1610 Cl  0  0  0  0  0 15  0  0  0  0  0  0
    4.4553    3.0405    7.4715 O   0  0  0  0  0  0  0  0  0  0  0  0
    3.5314    4.0610   10.0293 C   0  0  0  0  0  0  0  0  0  0  0  0
    3.6864    2.7527   10.5241 C   0  0  0  0  0  0  0  0  0  0  0  0
    2.4753    2.0050   10.3208 C   0  0  2  0  0  3  0  0  0  0  0  0
    1.5142    2.9048    9.7694 C   0  0  2  0  0  3  0  0  0  0  0  0
    0.5268    2.7099    8.7464 C   0  0  0  0  0  0  0  0  0  0  0  0
    0.7105    3.7091    7.7908 C   0  0  0  0  0  0  0  0  0  0  0  0
    1.7951    4.5804    8.1808 C   0  0  2  0  0  3  0  0  0  0  0  0
    2.1994    4.1658    9.4993 C   0  0  1  0  0  0  0  0  0  0  0  0
    4.5639    5.1476   10.0554 C   0  0  0  0  0  0  0  0  0  0  0  0
    4.9000    2.2426   11.2445 C   0  0  0  0  0  0  0  0  0  0  0  0
    2.2326    0.5974   10.7775 C   0  0  0  0  0  0  0  0  0  0  0  0
   -0.4774    1.6042    8.6711 C   0  0  0  0  0  0  0  0  0  0  0  0
   -0.1062    3.8324    6.5380 C   0  0  0  0  0  0  0  0  0  0  0  0
    2.1703    5.8756    7.5174 C   0  0  0  0  0  0  0  0  0  0  0  0
    4.7836    2.6854    6.2288 C   0  0  0  0  0  0  0  0  0  0  0  0
    5.9037    1.8857    5.9387 C   0  0  0  0  0  0  0  0  0  0  0  0
    6.1440    1.5731    4.6068 C   0  0  0  0  0  0  0  0  0  0  0  0
    5.3367    2.0049    3.5617 C   0  0  0  0  0  0  0  0  0  0  0  0
    4.2260    2.7812    3.8791 C   0  0  0  0  0  0  0  0  0  0  0  0
    3.9541    3.1140    5.1880 C   0  0  0  0  0  0  0  0  0  0  0  0
    6.7734    1.3583    7.0753 C   0  0  0  0  0  0  0  0  0  0  0  0
    7.3436    2.5412    7.8713 C   0  0  0  0  0  0  0  0  0  0  0  0
    5.9070    0.4806    7.9944 C   0  0  0  0  0  0  0  0  0  0  0  0
    7.9483    0.5091    6.5799 C   0  0  0  0  0  0  0  0  0  0  0  0
    5.6119    1.6511    2.1074 C   0  0  0  0  0  0  0  0  0  0  0  0
    5.8019    2.9452    1.3035 C   0  0  0  0  0  0  0  0  0  0  0  0
    4.4165    0.8646    1.5515 C   0  0  0  0  0  0  0  0  0  0  0  0
    6.8683    0.7941    1.9300 C   0  0  0  0  0  0  0  0  0  0  0  0
    2.9551    2.7135    8.2196 Ti  0  0  0  0  0  0  0  0  0  0  0  0
    4.0827    6.1241   10.0873 H   0  0  0  0  0  0  0  0  0  0  0  0
    5.2063    5.0519   10.9303 H   0  0  0  0  0  0  0  0  0  0  0  0
    5.1953    5.1033    9.1616 H   0  0  0  0  0  0  0  0  0  0  0  0
    4.9769    1.1598   11.1642 H   0  0  0  0  0  0  0  0  0  0  0  0
    4.8363    2.4974   12.3050 H   0  0  0  0  0  0  0  0  0  0  0  0
    5.8084    2.6860   10.8399 H   0  0  0  0  0  0  0  0  0  0  0  0
    1.4373    0.1384   10.1911 H   0  0  0  0  0  0  0  0  0  0  0  0
    1.9397    0.5789   11.8310 H   0  0  0  0  0  0  0  0  0  0  0  0
    3.1323   -0.0092   10.6643 H   0  0  0  0  0  0  0  0  0  0  0  0
   -0.0972    0.7850    8.0538 H   0  0  0  0  0  0  0  0  0  0  0  0
   -1.4049    1.9580    8.2205 H   0  0  0  0  0  0  0  0  0  0  0  0
   -0.6990    1.2194    9.6651 H   0  0  0  0  0  0  0  0  0  0  0  0
    0.1204    4.7514    6.0017 H   0  0  0  0  0  0  0  0  0  0  0  0
   -1.1697    3.8331    6.7804 H   0  0  0  0  0  0  0  0  0  0  0  0
    0.0834    2.9831    5.8762 H   0  0  0  0  0  0  0  0  0  0  0  0
    3.2276    6.0939    7.6778 H   0  0  0  0  0  0  0  0  0  0  0  0
    1.5857    6.7018    7.9317 H   0  0  0  0  0  0  0  0  0  0  0  0
    1.9870    5.8415    6.4433 H   0  0  0  0  0  0  0  0  0  0  0  0
    6.9953    0.9587    4.3784 H   0  0  0  0  0  0  0  0  0  0  0  0
    3.5583    3.1286    3.1053 H   0  0  0  0  0  0  0  0  0  0  0  0
    3.0837    3.7167    5.4536 H   0  0  0  0  0  0  0  0  0  0  0  0
    7.9662    2.1785    8.6873 H   0  0  0  0  0  0  0  0  0  0  0  0
    7.9518    3.1711    7.2248 H   0  0  0  0  0  0  0  0  0  0  0  0
    6.5385    3.1433    8.2878 H   0  0  0  0  0  0  0  0  0  0  0  0
    6.5198    0.0559    8.7883 H   0  0  0  0  0  0  0  0  0  0  0  0
    5.0967    1.0643    8.4484 H   0  0  0  0  0  0  0  0  0  0  0  0
    5.4628   -0.3331    7.4224 H   0  0  0  0  0  0  0  0  0  0  0  0
    8.5343    0.1751    7.4340 H   0  0  0  0  0  0  0  0  0  0  0  0
    8.6027    1.0845    5.9292 H   0  0  0  0  0  0  0  0  0  0  0  0
    7.5987   -0.3728    6.0487 H   0  0  0  0  0  0  0  0  0  0  0  0
    6.0108    2.7128    0.2612 H   0  0  0  0  0  0  0  0  0  0  0  0
    6.6364    3.5168    1.7043 H   0  0  0  0  0  0  0  0  0  0  0  0
    4.9133    3.5687    1.3415 H   0  0  0  0  0  0  0  0  0  0  0  0
    4.6029    0.5762    0.5189 H   0  0  0  0  0  0  0  0  0  0  0  0
    4.2551   -0.0359    2.1398 H   0  0  0  0  0  0  0  0  0  0  0  0
    3.5059    1.4559    1.5810 H   0  0  0  0  0  0  0  0  0  0  0  0
    7.0142    0.5810    0.8727 H   0  0  0  0  0  0  0  0  0  0  0  0
    7.7520    1.3143    2.2921 H   0  0  0  0  0  0  0  0  0  0  0  0
    6.7713   -0.1546    2.4523 H   0  0  0  0  0  0  0  0  0  0  0  0
  2 31  1  0  0  0  0
  3 11  1  0  0  0  0
  3  4  2  0  0  0  0
  4 12  1  0  0  0  0
  5  4  1  0  0  0  0
  5 13  1  1  0  0  0
  6  7  1  6  0  0  0
  6  5  1  0  0  0  0
  8  9  1  0  0  0  0
  8  7  2  0  0  0  0
  9 16  1  1  0  0  0
  9 10  1  0  0  0  0
 10 31  1  6  0  0  0
 10  6  1  0  0  0  0
 10  3  1  0  0  0  0
 11 32  1  0  0  0  0
 11 33  1  0  0  0  0
 12 36  1  0  0  0  0
 13 39  1  0  0  0  0
 14  7  1  0  0  0  0
 14 43  1  0  0  0  0
 15 45  1  0  0  0  0
 15  8  1  0  0  0  0
 16 47  1  0  0  0  0
 16 48  1  0  0  0  0
 17  2  1  0  0  0  0
 18 17  1  0  0  0  0
 18 23  1  0  0  0  0
 19 18  2  0  0  0  0
 20 21  2  0  0  0  0
 20 19  1  0  0  0  0
 21 22  1  0  0  0  0
 22 52  1  0  0  0  0
 22 17  2  0  0  0  0
 23 24  1  0  0  0  0
 23 25  1  0  0  0  0
 24 55  1  0  0  0  0
 24 53  1  0  0  0  0
 25 57  1  0  0  0  0
 25 56  1  0  0  0  0
 26 23  1  0  0  0  0
 26 59  1  0  0  0  0
 27 20  1  0  0  0  0
 28 64  1  0  0  0  0
 28 63  1  0  0  0  0
 28 27  1  0  0  0  0
 29 67  1  0  0  0  0
 29 27  1  0  0  0  0
 29 66  1  0  0  0  0
 30 27  1  0  0  0  0
 30 69  1  0  0  0  0
 30 70  1  0  0  0  0
 34 11  1  0  0  0  0
 35 12  1  0  0  0  0
 37 12  1  0  0  0  0
 38 13  1  0  0  0  0
 40 13  1  0  0  0  0
 41 14  1  0  0  0  0
 42 14  1  0  0  0  0
 44 15  1  0  0  0  0
 46 15  1  0  0  0  0
 49 16  1  0  0  0  0
 50 19  1  0  0  0  0
 51 21  1  0  0  0  0
 54 24  1  0  0  0  0
 58 25  1  0  0  0  0
 60 26  1  0  0  0  0
 61 26  1  0  0  0  0
 62 28  1  0  0  0  0
 65 29  1  0  0  0  0
 68 30  1  0  0  0  0
M  END
$$$$
