CSD_code = AGAZAM | q = 0 | S = 0 | Stoichiometry = C22H27ClOTi | MND = 10
 OpenBabel04212202003D

 52 53  0  0  1  0  0  0  0  0999 V2000
   11.1380   10.2966    6.1211 Cl  0  0  0  0  0 15  0  0  0  0  0  0
    9.1686   10.9953    8.1774 O   0  0  0  0  0  0  0  0  0  0  0  0
    9.0400   10.0777    6.7515 Ti  0  0  0  0  0  0  0  0  0  0  0  0
    8.6858    9.3632    4.3565 C   0  0  0  0  0  0  0  0  0  0  0  0
    8.0889   10.6175    4.4666 C   0  0  0  0  0  0  0  0  0  0  0  0
    7.2290   10.6623    5.6300 C   0  0  2  0  0  3  0  0  0  0  0  0
    7.1978    9.3249    6.1652 C   0  0  2  0  0  0  0  0  0  0  0  0
    7.2135    8.9128    7.5423 C   0  0  0  0  0  0  0  0  0  0  0  0
    8.2711    7.9957    7.6952 C   0  0  0  0  0  0  0  0  0  0  0  0
    8.9487    7.8164    6.4406 C   0  0  2  0  0  3  0  0  0  0  0  0
    8.2352    8.5727    5.4668 C   0  0  2  0  0  3  0  0  0  0  0  0
    9.6655    8.9518    3.3034 C   0  0  0  0  0  0  0  0  0  0  0  0
    8.3042   11.7347    3.4874 C   0  0  0  0  0  0  0  0  0  0  0  0
    6.2393   11.7475    5.9502 C   0  0  0  0  0  0  0  0  0  0  0  0
    6.2894    9.3800    8.6266 C   0  0  0  0  0  0  0  0  0  0  0  0
    8.5692    7.2273    8.9486 C   0  0  0  0  0  0  0  0  0  0  0  0
   10.0828    6.8675    6.1939 C   0  0  0  0  0  0  0  0  0  0  0  0
   10.1395   11.7988    8.6105 C   0  0  0  0  0  0  0  0  0  0  0  0
   10.2699   13.0909    8.0792 C   0  0  0  0  0  0  0  0  0  0  0  0
   11.2736   13.9147    8.5614 C   0  0  0  0  0  0  0  0  0  0  0  0
   12.1468   13.4691    9.5392 C   0  0  0  0  0  0  0  0  0  0  0  0
   12.0447   12.1756   10.0228 C   0  0  0  0  0  0  0  0  0  0  0  0
   11.0519   11.3256    9.5657 C   0  0  0  0  0  0  0  0  0  0  0  0
    9.3362   13.4949    6.9757 C   0  0  0  0  0  0  0  0  0  0  0  0
   10.9315    9.8934    9.9939 C   0  0  0  0  0  0  0  0  0  0  0  0
   10.6786    9.2510    3.5882 H   0  0  0  0  0  0  0  0  0  0  0  0
    9.4289    9.4283    2.3525 H   0  0  0  0  0  0  0  0  0  0  0  0
    9.6476    7.8721    3.1648 H   0  0  0  0  0  0  0  0  0  0  0  0
    7.8346   12.6570    3.8220 H   0  0  0  0  0  0  0  0  0  0  0  0
    9.3708   11.9177    3.3457 H   0  0  0  0  0  0  0  0  0  0  0  0
    7.8781   11.4699    2.5178 H   0  0  0  0  0  0  0  0  0  0  0  0
    6.0915   11.8260    7.0289 H   0  0  0  0  0  0  0  0  0  0  0  0
    6.5718   12.7141    5.5742 H   0  0  0  0  0  0  0  0  0  0  0  0
    5.2722   11.5250    5.4912 H   0  0  0  0  0  0  0  0  0  0  0  0
    6.0515    8.5667    9.3123 H   0  0  0  0  0  0  0  0  0  0  0  0
    6.7560   10.1876    9.2025 H   0  0  0  0  0  0  0  0  0  0  0  0
    5.3591    9.7507    8.1993 H   0  0  0  0  0  0  0  0  0  0  0  0
    9.6157    6.9302    8.9904 H   0  0  0  0  0  0  0  0  0  0  0  0
    8.3384    7.8188    9.8332 H   0  0  0  0  0  0  0  0  0  0  0  0
    7.9622    6.3191    8.9776 H   0  0  0  0  0  0  0  0  0  0  0  0
   10.6266    7.1490    5.2936 H   0  0  0  0  0  0  0  0  0  0  0  0
   10.7836    6.8710    7.0299 H   0  0  0  0  0  0  0  0  0  0  0  0
    9.7103    5.8474    6.0684 H   0  0  0  0  0  0  0  0  0  0  0  0
   11.3780   14.9117    8.1579 H   0  0  0  0  0  0  0  0  0  0  0  0
   12.9226   14.1231    9.9078 H   0  0  0  0  0  0  0  0  0  0  0  0
   12.7507   11.8161   10.7576 H   0  0  0  0  0  0  0  0  0  0  0  0
    9.5981   14.4758    6.5862 H   0  0  0  0  0  0  0  0  0  0  0  0
    9.4000   12.7522    6.1628 H   0  0  0  0  0  0  0  0  0  0  0  0
    8.3062   13.5189    7.3413 H   0  0  0  0  0  0  0  0  0  0  0  0
   11.7589    9.6066   10.6375 H   0  0  0  0  0  0  0  0  0  0  0  0
   10.9262    9.2568    9.0987 H   0  0  0  0  0  0  0  0  0  0  0  0
    9.9918    9.7335   10.5264 H   0  0  0  0  0  0  0  0  0  0  0  0
  2 18  1  0  0  0  0
  3  2  1  0  0  0  0
  4  5  2  0  0  0  0
  5  6  1  0  0  0  0
  6 14  1  6  0  0  0
  6  7  1  0  0  0  0
  7  3  1  1  0  0  0
  7  8  1  0  0  0  0
  8  9  2  0  0  0  0
  8 15  1  0  0  0  0
  9 16  1  0  0  0  0
 10 17  1  6  0  0  0
 10  9  1  0  0  0  0
 11  4  1  1  0  0  0
 11  7  1  0  0  0  0
 11 10  1  0  0  0  0
 12 26  1  0  0  0  0
 12  4  1  0  0  0  0
 13 29  1  0  0  0  0
 13  5  1  0  0  0  0
 14 32  1  0  0  0  0
 15 36  1  0  0  0  0
 15 35  1  0  0  0  0
 16 40  1  0  0  0  0
 16 38  1  0  0  0  0
 16 39  1  0  0  0  0
 17 42  1  0  0  0  0
 18 23  1  0  0  0  0
 19 20  1  0  0  0  0
 19 18  2  0  0  0  0
 20 21  2  0  0  0  0
 21 45  1  0  0  0  0
 21 22  1  0  0  0  0
 22 46  1  0  0  0  0
 23 25  1  0  0  0  0
 23 22  2  0  0  0  0
 24 49  1  0  0  0  0
 24 19  1  0  0  0  0
 25 52  1  0  0  0  0
 25 50  1  0  0  0  0
 27 12  1  0  0  0  0
 28 12  1  0  0  0  0
 30 13  1  0  0  0  0
 31 13  1  0  0  0  0
 33 14  1  0  0  0  0
 34 14  1  0  0  0  0
 37 15  1  0  0  0  0
 41 17  1  0  0  0  0
 43 17  1  0  0  0  0
 44 20  1  0  0  0  0
 47 24  1  0  0  0  0
 48 24  1  0  0  0  0
 51 25  1  0  0  0  0
M  END
$$$$
