CSD_code = AGEBAS | q = 0 | S = 0 | Stoichiometry = C22H28Cl2OTi | MND = 8
 OpenBabel04212202003D

 54 56  0  0  1  0  0  0  0  0999 V2000
    4.7477    3.5384    4.1466 O   0  0  0  0  0  0  0  0  0  0  0  0
    5.0485    6.4305    3.4973 Cl  0  0  0  0  0  0  0  0  0  0  0  0
    2.1683    5.0561    4.1661 Cl  0  0  0  0  0  0  0  0  0  0  0  0
    3.4063    5.7701    6.8801 C   0  0  0  0  0  0  0  0  0  0  0  0
    4.6098    6.4627    6.5864 C   0  0  0  0  0  0  0  0  0  0  0  0
    5.7053    5.5333    6.5540 C   0  0  0  0  0  0  0  0  0  0  0  0
    5.1649    4.2597    6.8282 C   0  0  0  0  0  0  0  0  0  0  0  0
    5.5693    2.8442    7.1420 C   0  0  2  0  0  0  0  0  0  0  0  0
    4.2121    2.1890    7.3738 C   0  0  0  0  0  0  0  0  0  0  0  0
    3.2008    3.0831    7.3253 C   0  0  0  0  0  0  0  0  0  0  0  0
    3.7554    4.3945    7.0137 C   0  0  1  0  0  0  0  0  0  0  0  0
    2.0702    6.3989    7.1488 C   0  0  0  0  0  0  0  0  0  0  0  0
    4.7670    7.9505    6.4681 C   0  0  0  0  0  0  0  0  0  0  0  0
    7.1465    5.9127    6.3809 C   0  0  0  0  0  0  0  0  0  0  0  0
    6.4468    2.7872    8.3991 C   0  0  0  0  0  0  0  0  0  0  0  0
    4.1384    0.7162    7.5911 C   0  0  0  0  0  0  0  0  0  0  0  0
    1.7336    2.8568    7.4969 C   0  0  0  0  0  0  0  0  0  0  0  0
    5.2175    2.3695    3.7350 C   0  0  0  0  0  0  0  0  0  0  0  0
    6.5816    2.2248    3.4316 C   0  0  0  0  0  0  0  0  0  0  0  0
    7.0424    0.9824    3.0225 C   0  0  0  0  0  0  0  0  0  0  0  0
    6.1822   -0.0957    2.9133 C   0  0  0  0  0  0  0  0  0  0  0  0
    4.8364    0.0572    3.2063 C   0  0  0  0  0  0  0  0  0  0  0  0
    4.3344    1.2804    3.6143 C   0  0  0  0  0  0  0  0  0  0  0  0
    7.4999    3.4043    3.5669 C   0  0  0  0  0  0  0  0  0  0  0  0
    2.8879    1.5050    3.9286 C   0  0  0  0  0  0  0  0  0  0  0  0
    4.2310    4.9370    4.8851 Ti  0  0  0  0  0  0  0  0  0  0  0  0
    6.0972    2.3463    6.3179 H   0  0  0  0  0  0  0  0  0  0  0  0
    1.2674    5.6806    6.9980 H   0  0  0  0  0  0  0  0  0  0  0  0
    2.0285    6.7562    8.1813 H   0  0  0  0  0  0  0  0  0  0  0  0
    1.8950    7.2480    6.4878 H   0  0  0  0  0  0  0  0  0  0  0  0
    5.5075    8.2013    5.7089 H   0  0  0  0  0  0  0  0  0  0  0  0
    5.0986    8.3691    7.4218 H   0  0  0  0  0  0  0  0  0  0  0  0
    3.8238    8.4234    6.1981 H   0  0  0  0  0  0  0  0  0  0  0  0
    7.7765    5.0255    6.3649 H   0  0  0  0  0  0  0  0  0  0  0  0
    7.4675    6.5514    7.2064 H   0  0  0  0  0  0  0  0  0  0  0  0
    7.2929    6.4644    5.4506 H   0  0  0  0  0  0  0  0  0  0  0  0
    6.6748    1.7564    8.6583 H   0  0  0  0  0  0  0  0  0  0  0  0
    7.3814    3.3177    8.2339 H   0  0  0  0  0  0  0  0  0  0  0  0
    5.9260    3.2540    9.2323 H   0  0  0  0  0  0  0  0  0  0  0  0
    3.1099    0.3672    7.6049 H   0  0  0  0  0  0  0  0  0  0  0  0
    4.6038    0.4415    8.5382 H   0  0  0  0  0  0  0  0  0  0  0  0
    4.6708    0.1960    6.7941 H   0  0  0  0  0  0  0  0  0  0  0  0
    1.3669    3.4179    8.3563 H   0  0  0  0  0  0  0  0  0  0  0  0
    1.5052    1.8055    7.6494 H   0  0  0  0  0  0  0  0  0  0  0  0
    1.2034    3.2091    6.6098 H   0  0  0  0  0  0  0  0  0  0  0  0
    8.0897    0.8644    2.7851 H   0  0  0  0  0  0  0  0  0  0  0  0
    6.5584   -1.0554    2.5931 H   0  0  0  0  0  0  0  0  0  0  0  0
    4.1650   -0.7839    3.1126 H   0  0  0  0  0  0  0  0  0  0  0  0
    8.2507    3.3944    2.7799 H   0  0  0  0  0  0  0  0  0  0  0  0
    8.0181    3.3708    4.5271 H   0  0  0  0  0  0  0  0  0  0  0  0
    6.9317    4.3377    3.5113 H   0  0  0  0  0  0  0  0  0  0  0  0
    2.3193    0.5847    3.8261 H   0  0  0  0  0  0  0  0  0  0  0  0
    2.7826    1.8856    4.9478 H   0  0  0  0  0  0  0  0  0  0  0  0
    2.4725    2.2579    3.2538 H   0  0  0  0  0  0  0  0  0  0  0  0
  1 26  1  0  0  0  0
  2 26  1  0  0  0  0
  3 26  1  0  0  0  0
  4 11  1  0  0  0  0
  4 12  1  0  0  0  0
  5  4  2  0  0  0  0
  6  5  1  0  0  0  0
  6  7  2  0  0  0  0
  7 11  1  0  0  0  0
  7  8  1  0  0  0  0
  8 27  1  6  0  0  0
  8  9  1  0  0  0  0
  8 15  1  0  0  0  0
  9 16  1  0  0  0  0
 10  9  2  0  0  0  0
 10 17  1  0  0  0  0
 11 26  1  6  0  0  0
 11 10  1  0  0  0  0
 12 29  1  0  0  0  0
 13  5  1  0  0  0  0
 13 32  1  0  0  0  0
 14  6  1  0  0  0  0
 14 35  1  0  0  0  0
 15 37  1  0  0  0  0
 15 39  1  0  0  0  0
 16 40  1  0  0  0  0
 16 41  1  0  0  0  0
 17 44  1  0  0  0  0
 17 43  1  0  0  0  0
 18  1  1  0  0  0  0
 19 24  1  0  0  0  0
 19 18  2  0  0  0  0
 20 19  1  0  0  0  0
 21 20  2  0  0  0  0
 21 22  1  0  0  0  0
 22 23  2  0  0  0  0
 23 18  1  0  0  0  0
 23 25  1  0  0  0  0
 24 50  1  0  0  0  0
 25 53  1  0  0  0  0
 28 12  1  0  0  0  0
 30 12  1  0  0  0  0
 31 13  1  0  0  0  0
 33 13  1  0  0  0  0
 34 14  1  0  0  0  0
 36 14  1  0  0  0  0
 38 15  1  0  0  0  0
 42 16  1  0  0  0  0
 45 17  1  0  0  0  0
 46 20  1  0  0  0  0
 47 21  1  0  0  0  0
 48 22  1  0  0  0  0
 49 24  1  0  0  0  0
 51 24  1  0  0  0  0
 52 25  1  0  0  0  0
 54 25  1  0  0  0  0
M  END
$$$$
