CSD_code = AGECAR | q = 0 | S = 0 | Stoichiometry = C22H40IN3O5PtSi | MND = 4
 OpenBabel04212202003D

 73 75  0  0  0  0  0  0  0  0999 V2000
    5.8625    7.1807    6.8757 Pt  0  0  0  0  0  0  0  0  0  0  0  0
    4.2044    8.3563    8.5162 I   0  0  0  0  0  0  0  0  0  0  0  0
   14.1748   -0.9578    2.4331 Si  0  0  0  0  0  0  0  0  0  0  0  0
    9.6592    4.4332    3.0118 O   0  0  0  0  0  0  0  0  0  0  0  0
   11.4652    4.4654    4.4025 O   0  0  0  0  0  0  0  0  0  0  0  0
   13.2633   -1.3493    3.7129 O   0  0  0  0  0  0  0  0  0  0  0  0
   13.4117   -1.5029    1.1087 O   0  0  0  0  0  0  0  0  0  0  0  0
   15.6503   -1.6651    2.4332 O   0  0  0  0  0  0  0  0  0  0  0  0
    4.5295    5.7660    5.9903 N   0  0  0  0  0  4  0  0  0  0  0  0
    7.6365    8.2695    7.3241 N   0  0  0  0  0  4  0  0  0  0  0  0
   11.6050    3.6973    2.2666 N   0  0  0  0  0  0  0  0  0  0  0  0
   11.0370    3.4433    1.4730 H   0  0  0  0  0  0  0  0  0  0  0  0
    7.0925    6.3086    5.6441 C   0  0  0  0  0  0  0  0  0  0  0  0
    6.6925    5.1535    4.9894 C   0  0  0  0  0  0  0  0  0  0  0  0
    7.5687    4.5287    4.1188 C   0  0  0  0  0  0  0  0  0  0  0  0
    7.3019    3.6254    3.5906 H   0  0  0  0  0  0  0  0  0  0  0  0
    8.8325    5.0794    3.9265 C   0  0  0  0  0  0  0  0  0  0  0  0
    9.2358    6.2409    4.5741 C   0  0  0  0  0  0  0  0  0  0  0  0
   10.2229    6.6403    4.4021 H   0  0  0  0  0  0  0  0  0  0  0  0
    8.3498    6.8560    5.4433 C   0  0  0  0  0  0  0  0  0  0  0  0
    5.3223    4.6635    5.3789 C   0  0  0  0  0  0  0  0  0  0  0  0
    5.4407    3.8750    6.1303 H   0  0  0  0  0  0  0  0  0  0  0  0
    4.7707    4.2373    4.5303 H   0  0  0  0  0  0  0  0  0  0  0  0
    8.5906    8.1427    6.1874 C   0  0  0  0  0  0  0  0  0  0  0  0
    8.4133    8.9784    5.5012 H   0  0  0  0  0  0  0  0  0  0  0  0
    9.6209    8.2239    6.5572 H   0  0  0  0  0  0  0  0  0  0  0  0
    3.4970    5.1958    6.8557 C   0  0  0  0  0  0  0  0  0  0  0  0
    3.9612    4.7031    7.7111 H   0  0  0  0  0  0  0  0  0  0  0  0
    2.8879    4.4670    6.3083 H   0  0  0  0  0  0  0  0  0  0  0  0
    2.8444    5.9844    7.2270 H   0  0  0  0  0  0  0  0  0  0  0  0
    3.8921    6.5505    4.9280 C   0  0  0  0  0  0  0  0  0  0  0  0
    4.6489    6.9043    4.2256 H   0  0  0  0  0  0  0  0  0  0  0  0
    3.3758    7.4100    5.3609 H   0  0  0  0  0  0  0  0  0  0  0  0
    3.1599    5.9427    4.3819 H   0  0  0  0  0  0  0  0  0  0  0  0
    8.1678    7.5427    8.4823 C   0  0  0  0  0  0  0  0  0  0  0  0
    8.3858    6.5106    8.2024 H   0  0  0  0  0  0  0  0  0  0  0  0
    7.4348    7.5484    9.2923 H   0  0  0  0  0  0  0  0  0  0  0  0
    9.0910    8.0113    8.8441 H   0  0  0  0  0  0  0  0  0  0  0  0
    7.4817    9.6826    7.6692 C   0  0  0  0  0  0  0  0  0  0  0  0
    6.9784   10.2095    6.8573 H   0  0  0  0  0  0  0  0  0  0  0  0
    8.4572   10.1486    7.8495 H   0  0  0  0  0  0  0  0  0  0  0  0
    6.8774    9.7828    8.5695 H   0  0  0  0  0  0  0  0  0  0  0  0
   10.9632    4.2150    3.3375 C   0  0  0  0  0  0  0  0  0  0  0  0
   12.9184    3.1031    2.3727 C   0  0  0  0  0  0  0  0  0  0  0  0
   13.3410    3.4508    3.3175 H   0  0  0  0  0  0  0  0  0  0  0  0
   13.5398    3.4702    1.5490 H   0  0  0  0  0  0  0  0  0  0  0  0
   12.8564    1.5751    2.3490 C   0  0  0  0  0  0  0  0  0  0  0  0
   12.4135    1.2445    1.4069 H   0  0  0  0  0  0  0  0  0  0  0  0
   12.2120    1.2317    3.1582 H   0  0  0  0  0  0  0  0  0  0  0  0
   14.2361    0.9444    2.5128 C   0  0  0  0  0  0  0  0  0  0  0  0
   14.6568    1.2821    3.4597 H   0  0  0  0  0  0  0  0  0  0  0  0
   14.8958    1.3213    1.7286 H   0  0  0  0  0  0  0  0  0  0  0  0
   12.6762   -2.5872    4.0462 C   0  0  0  0  0  0  0  0  0  0  0  0
   13.4657   -3.3296    4.2136 H   0  0  0  0  0  0  0  0  0  0  0  0
   12.0608   -2.9277    3.2076 H   0  0  0  0  0  0  0  0  0  0  0  0
   11.8302   -2.4172    5.2983 C   0  0  0  0  0  0  0  0  0  0  0  0
   11.3641   -3.3622    5.5636 H   0  0  0  0  0  0  0  0  0  0  0  0
   11.0575   -1.6738    5.1232 H   0  0  0  0  0  0  0  0  0  0  0  0
   12.4506   -2.0803    6.1245 H   0  0  0  0  0  0  0  0  0  0  0  0
   13.7507   -1.3678   -0.2491 C   0  0  0  0  0  0  0  0  0  0  0  0
   13.9915   -0.3202   -0.4636 H   0  0  0  0  0  0  0  0  0  0  0  0
   12.8540   -1.6439   -0.8148 H   0  0  0  0  0  0  0  0  0  0  0  0
   14.9200   -2.2582   -0.6402 C   0  0  0  0  0  0  0  0  0  0  0  0
   15.1579   -2.1217   -1.6917 H   0  0  0  0  0  0  0  0  0  0  0  0
   14.6677   -3.2997   -0.4617 H   0  0  0  0  0  0  0  0  0  0  0  0
   15.7831   -2.0049   -0.0324 H   0  0  0  0  0  0  0  0  0  0  0  0
   16.5834   -1.7310    3.4850 C   0  0  0  0  0  0  0  0  0  0  0  0
   17.1495   -2.6568    3.3358 H   0  0  0  0  0  0  0  0  0  0  0  0
   16.0578   -1.7891    4.4440 H   0  0  0  0  0  0  0  0  0  0  0  0
   17.5251   -0.5352    3.4794 C   0  0  0  0  0  0  0  0  0  0  0  0
   18.2719   -0.6492    4.2604 H   0  0  0  0  0  0  0  0  0  0  0  0
   16.9650    0.3794    3.6510 H   0  0  0  0  0  0  0  0  0  0  0  0
   18.0254   -0.4612    2.5174 H   0  0  0  0  0  0  0  0  0  0  0  0
  1 10  1  0  0  0  0
  1  2  1  0  0  0  0
  3  8  1  0  0  0  0
  3 50  1  0  0  0  0
  3  6  1  0  0  0  0
  4 43  1  0  0  0  0
  4 17  1  0  0  0  0
  6 53  1  0  0  0  0
  7  3  1  0  0  0  0
  8 67  1  0  0  0  0
  9 27  1  0  0  0  0
  9  1  1  0  0  0  0
 10 39  1  0  0  0  0
 10 35  1  0  0  0  0
 11 44  1  0  0  0  0
 11 43  1  0  0  0  0
 12 11  1  0  0  0  0
 13  1  1  0  0  0  0
 14 21  1  0  0  0  0
 14 13  2  0  0  0  0
 15 14  1  0  0  0  0
 16 15  1  0  0  0  0
 17 15  2  0  0  0  0
 17 18  1  0  0  0  0
 18 20  2  0  0  0  0
 19 18  1  0  0  0  0
 20 13  1  0  0  0  0
 20 24  1  0  0  0  0
 21  9  1  0  0  0  0
 21 22  1  0  0  0  0
 23 21  1  0  0  0  0
 24 26  1  0  0  0  0
 24 10  1  0  0  0  0
 25 24  1  0  0  0  0
 27 30  1  0  0  0  0
 27 28  1  0  0  0  0
 29 27  1  0  0  0  0
 31 33  1  0  0  0  0
 31  9  1  0  0  0  0
 32 31  1  0  0  0  0
 34 31  1  0  0  0  0
 35 38  1  0  0  0  0
 35 37  1  0  0  0  0
 36 35  1  0  0  0  0
 39 41  1  0  0  0  0
 39 42  1  0  0  0  0
 40 39  1  0  0  0  0
 43  5  2  0  0  0  0
 44 45  1  0  0  0  0
 46 44  1  0  0  0  0
 47 44  1  0  0  0  0
 47 50  1  0  0  0  0
 47 49  1  0  0  0  0
 48 47  1  0  0  0  0
 50 51  1  0  0  0  0
 52 50  1  0  0  0  0
 53 54  1  0  0  0  0
 53 56  1  0  0  0  0
 55 53  1  0  0  0  0
 56 57  1  0  0  0  0
 56 59  1  0  0  0  0
 58 56  1  0  0  0  0
 60  7  1  0  0  0  0
 61 60  1  0  0  0  0
 62 60  1  0  0  0  0
 63 65  1  0  0  0  0
 63 60  1  0  0  0  0
 63 66  1  0  0  0  0
 64 63  1  0  0  0  0
 67 69  1  0  0  0  0
 68 67  1  0  0  0  0
 70 67  1  0  0  0  0
 70 72  1  0  0  0  0
 70 71  1  0  0  0  0
 73 70  1  0  0  0  0
M  END
$$$$
