CSD_code = AGETEL | q = 0 | S = 0 | Stoichiometry = C9H19Cl2N3Pt | MND = 4
 OpenBabel04212202003D

 34 33  0  0  1  0  0  0  0  0999 V2000
    9.5802    2.9166    0.7779 Pt  0  0  0  0  0  0  0  0  0  0  0  0
   11.1932    2.3857   -0.7911 Cl  0  0  0  0  0  0  0  0  0  0  0  0
    7.8982    3.5164    2.2615 Cl  0  0  0  0  0  0  0  0  0  0  0  0
   10.0541    1.4559    1.8249 N   0  0  0  0  0  2  0  0  0  0  0  0
    9.1098    4.5141   -0.2861 N   0  0  0  0  0  0  0  0  0  0  0  0
    7.7930    5.7558   -1.7725 N   0  0  0  0  0  0  0  0  0  0  0  0
   10.3874    0.5806    2.4944 C   0  0  0  0  0  2  0  0  0  0  0  0
   10.7956   -0.5106    3.3254 C   0  0  0  0  0  0  0  0  0  0  0  0
   11.8211   -0.7900    3.0841 H   0  0  0  0  0  0  0  0  0  0  0  0
   10.1401   -1.3647    3.1559 H   0  0  0  0  0  0  0  0  0  0  0  0
   10.7372   -0.2150    4.3729 H   0  0  0  0  0  0  0  0  0  0  0  0
    8.2121    4.6027   -1.2064 C   0  0  2  0  0  3  0  0  0  0  0  0
    7.5927    3.3127   -1.6656 C   0  0  0  0  0  0  0  0  0  0  0  0
    8.1389    2.9075   -2.5166 H   0  0  0  0  0  0  0  0  0  0  0  0
    6.5447    3.4364   -1.9235 H   0  0  0  0  0  0  0  0  0  0  0  0
    7.6810    2.5912   -0.8455 H   0  0  0  0  0  0  0  0  0  0  0  0
    7.2144    5.7078   -3.1011 C   0  0  0  0  0  0  0  0  0  0  0  0
    7.4586    4.7654   -3.5812 H   0  0  0  0  0  0  0  0  0  0  0  0
    7.6398    6.5000   -3.7160 H   0  0  0  0  0  0  0  0  0  0  0  0
    6.1282    5.8224   -3.0788 H   0  0  0  0  0  0  0  0  0  0  0  0
    8.0055    7.0895   -1.1670 C   0  0  0  0  0  0  0  0  0  0  0  0
    7.8761    7.0255    0.3683 C   0  0  0  0  0  0  0  0  0  0  0  0
    7.2746    6.1758    0.6821 H   0  0  0  0  0  0  0  0  0  0  0  0
    7.3894    7.9262    0.7331 H   0  0  0  0  0  0  0  0  0  0  0  0
    8.8388    6.9654    0.8692 H   0  0  0  0  0  0  0  0  0  0  0  0
    6.9128    8.0509   -1.6582 C   0  0  0  0  0  0  0  0  0  0  0  0
    6.9567    8.2317   -2.7275 H   0  0  0  0  0  0  0  0  0  0  0  0
    7.0451    9.0099   -1.1641 H   0  0  0  0  0  0  0  0  0  0  0  0
    5.9283    7.6684   -1.4018 H   0  0  0  0  0  0  0  0  0  0  0  0
    9.3770    7.6382   -1.5854 C   0  0  0  0  0  0  0  0  0  0  0  0
   10.1800    6.9577   -1.3125 H   0  0  0  0  0  0  0  0  0  0  0  0
    9.5556    8.5954   -1.1025 H   0  0  0  0  0  0  0  0  0  0  0  0
    9.4175    7.7861   -2.6626 H   0  0  0  0  0  0  0  0  0  0  0  0
    9.5633    5.3815   -0.0141 H   0  0  0  0  0  0  0  0  0  0  0  0
  1  4  1  0  0  0  0
  1  3  1  0  0  0  0
  2  1  1  0  0  0  0
  4  7  1  0  0  0  0
  5 34  1  0  0  0  0
  5  1  1  0  0  0  0
  6 21  1  0  0  0  0
  7  8  1  0  0  0  0
  8 11  1  0  0  0  0
  9  8  1  0  0  0  0
 10  8  1  0  0  0  0
 12  6  1  1  0  0  0
 12  5  1  0  0  0  0
 13 12  1  0  0  0  0
 13 16  1  0  0  0  0
 14 13  1  0  0  0  0
 15 13  1  0  0  0  0
 17 20  1  0  0  0  0
 17  6  1  0  0  0  0
 18 17  1  0  0  0  0
 19 17  1  0  0  0  0
 21 22  1  0  0  0  0
 22 23  1  0  0  0  0
 22 24  1  0  0  0  0
 22 25  1  0  0  0  0
 26 29  1  0  0  0  0
 26 21  1  0  0  0  0
 26 28  1  0  0  0  0
 27 26  1  0  0  0  0
 30 31  1  0  0  0  0
 30 21  1  0  0  0  0
 30 32  1  0  0  0  0
 33 30  1  0  0  0  0
M  END
$$$$
