CSD_code = AGEXIW | q = 0 | S = 0 | Stoichiometry = C48H35BrHgN4O2 | MND = 4
 OpenBabel04212202003D

 91101  0  0  1  0  0  0  0  0999 V2000
   12.6306   10.5942    7.4378 Hg  0  0  2  0  0  0  0  0  0  0  0  0
   14.9621   11.2233    7.5599 Br  0  0  0  0  0  0  0  0  0  0  0  0
   16.2980    8.3435    2.3837 O   0  0  0  0  0  0  0  0  0  0  0  0
   17.8653    7.4479    3.7250 O   0  0  0  0  0  0  0  0  0  0  0  0
   11.4293   12.0629    6.1838 N   0  0  0  0  0  0  0  0  0  0  0  0
   10.9549   10.6323    8.7308 N   0  0  0  0  0  0  0  0  0  0  0  0
   12.5420    8.3508    7.7483 N   0  0  0  0  0  0  0  0  0  0  0  0
   14.9791    9.3559    4.6123 N   0  0  0  0  0  0  0  0  0  0  0  0
   11.6741   12.5359    4.9160 C   0  0  0  0  0  0  0  0  0  0  0  0
   10.8569   13.7005    4.6815 C   0  0  0  0  0  0  0  0  0  0  0  0
   10.8026   14.2395    3.7559 H   0  0  0  0  0  0  0  0  0  0  0  0
   10.1567   13.9248    5.8156 C   0  0  0  0  0  0  0  0  0  0  0  0
    9.4550   14.7124    6.0099 H   0  0  0  0  0  0  0  0  0  0  0  0
   10.5280   12.8905    6.7520 C   0  0  0  0  0  0  0  0  0  0  0  0
    9.9984   12.7887    8.0575 C   0  0  2  0  0  3  0  0  0  0  0  0
   10.1992   11.7425    8.9560 C   0  0  0  0  0  0  0  0  0  0  0  0
    9.5178   11.5975   10.2229 C   0  0  0  0  0  0  0  0  0  0  0  0
    8.8606   12.3275   10.6545 H   0  0  0  0  0  0  0  0  0  0  0  0
    9.8549   10.3865   10.7176 C   0  0  0  0  0  0  0  0  0  0  0  0
    9.5409    9.9430   11.6425 H   0  0  0  0  0  0  0  0  0  0  0  0
   10.7387    9.7663    9.7556 C   0  0  0  0  0  0  0  0  0  0  0  0
   11.2141    8.4540    9.8248 C   0  0  2  0  0  3  0  0  0  0  0  0
   11.9924    7.7987    8.8496 C   0  0  0  0  0  0  0  0  0  0  0  0
   12.2599    6.3770    8.8670 C   0  0  0  0  0  0  0  0  0  0  0  0
   11.9100    5.6937    9.6163 H   0  0  0  0  0  0  0  0  0  0  0  0
   12.9936    6.1000    7.7682 C   0  0  0  0  0  0  0  0  0  0  0  0
   13.3412    5.1438    7.4286 H   0  0  0  0  0  0  0  0  0  0  0  0
   13.1820    7.3472    7.0649 C   0  0  0  0  0  0  0  0  0  0  0  0
   13.9122    7.5186    5.8986 C   0  0  2  0  0  3  0  0  0  0  0  0
   13.8710    8.7587    5.1798 C   0  0  0  0  0  0  0  0  0  0  0  0
   12.7927    9.6198    4.9952 C   0  0  0  0  0  0  0  0  0  0  0  0
   11.7573    9.3628    5.1510 H   0  0  0  0  0  0  0  0  0  0  0  0
   13.2711   10.7616    4.3037 C   0  0  0  0  0  0  0  0  0  0  0  0
   14.6291   10.5338    4.0829 C   0  0  0  0  0  0  0  0  0  0  0  0
   15.3544   11.1986    3.6553 H   0  0  0  0  0  0  0  0  0  0  0  0
   12.6006   12.0007    4.0330 C   0  0  2  0  0  3  0  0  0  0  0  0
    9.0926   13.8744    8.5022 C   0  0  0  0  0  0  0  0  0  0  0  0
    7.8322   14.0302    7.9345 C   0  0  0  0  0  0  0  0  0  0  0  0
    7.5112   13.3460    7.1619 H   0  0  0  0  0  0  0  0  0  0  0  0
    6.9924   15.0419    8.3639 C   0  0  0  0  0  0  0  0  0  0  0  0
    6.0140   15.1520    7.9191 H   0  0  0  0  0  0  0  0  0  0  0  0
    7.4022   15.9106    9.3617 C   0  0  0  0  0  0  0  0  0  0  0  0
    6.7464   16.7016    9.6942 H   0  0  0  0  0  0  0  0  0  0  0  0
    8.6546   15.7601    9.9331 C   0  0  0  0  0  0  0  0  0  0  0  0
    8.9788   16.4344   10.7123 H   0  0  0  0  0  0  0  0  0  0  0  0
    9.4943   14.7458    9.5093 C   0  0  0  0  0  0  0  0  0  0  0  0
   10.4727   14.6265    9.9524 H   0  0  0  0  0  0  0  0  0  0  0  0
   10.8084    7.6453   10.9961 C   0  0  0  0  0  0  0  0  0  0  0  0
    9.4677    7.3550   11.2313 C   0  0  0  0  0  0  0  0  0  0  0  0
    8.7190    7.7182   10.5417 H   0  0  0  0  0  0  0  0  0  0  0  0
    9.0972    6.5944   12.3254 C   0  0  0  0  0  0  0  0  0  0  0  0
    8.0538    6.3711   12.4948 H   0  0  0  0  0  0  0  0  0  0  0  0
   10.0594    6.1177   13.2001 C   0  0  0  0  0  0  0  0  0  0  0  0
    9.7686    5.5254   14.0551 H   0  0  0  0  0  0  0  0  0  0  0  0
   11.3959    6.4004   12.9722 C   0  0  0  0  0  0  0  0  0  0  0  0
   12.1503    6.0310   13.6515 H   0  0  0  0  0  0  0  0  0  0  0  0
   11.7696    7.1556   11.8755 C   0  0  0  0  0  0  0  0  0  0  0  0
   12.8116    7.3806   11.6982 H   0  0  0  0  0  0  0  0  0  0  0  0
   14.7441    6.4375    5.3664 C   0  0  0  0  0  0  0  0  0  0  0  0
   15.5940    5.6900    6.1835 C   0  0  0  0  0  0  0  0  0  0  0  0
   15.6622    5.9292    7.2347 H   0  0  0  0  0  0  0  0  0  0  0  0
   16.3700    4.6803    5.6476 C   0  0  0  0  0  0  0  0  0  0  0  0
   17.0307    4.1156    6.2887 H   0  0  0  0  0  0  0  0  0  0  0  0
   16.3051    4.3927    4.2938 C   0  0  0  0  0  0  0  0  0  0  0  0
   16.9072    3.5977    3.8794 H   0  0  0  0  0  0  0  0  0  0  0  0
   15.4658    5.1295    3.4735 C   0  0  0  0  0  0  0  0  0  0  0  0
   15.4063    4.9071    2.4180 H   0  0  0  0  0  0  0  0  0  0  0  0
   14.7008    6.1519    4.0000 C   0  0  0  0  0  0  0  0  0  0  0  0
   14.0445    6.7237    3.3601 H   0  0  0  0  0  0  0  0  0  0  0  0
   13.0265   12.7269    2.8400 C   0  0  0  0  0  0  0  0  0  0  0  0
   13.2580   12.0266    1.6530 C   0  0  0  0  0  0  0  0  0  0  0  0
   13.0883   10.9602    1.6277 H   0  0  0  0  0  0  0  0  0  0  0  0
   13.6722   12.6898    0.5148 C   0  0  0  0  0  0  0  0  0  0  0  0
   13.8359   12.1367   -0.3983 H   0  0  0  0  0  0  0  0  0  0  0  0
   13.8801   14.0597    0.5428 C   0  0  0  0  0  0  0  0  0  0  0  0
   14.2060   14.5773   -0.3471 H   0  0  0  0  0  0  0  0  0  0  0  0
   13.6816   14.7607    1.7216 C   0  0  0  0  0  0  0  0  0  0  0  0
   13.8647   15.8248    1.7542 H   0  0  0  0  0  0  0  0  0  0  0  0
   13.2604   14.1036    2.8616 C   0  0  0  0  0  0  0  0  0  0  0  0
   13.1470   14.6458    3.7883 H   0  0  0  0  0  0  0  0  0  0  0  0
   16.3381    8.9147    4.7313 C   0  0  0  0  0  0  0  0  0  0  0  0
   16.4562    8.2502    5.5876 H   0  0  0  0  0  0  0  0  0  0  0  0
   16.9824    9.7860    4.8934 H   0  0  0  0  0  0  0  0  0  0  0  0
   16.8092    8.2066    3.4614 C   0  0  0  0  0  0  0  0  0  0  0  0
   18.4669    6.7567    2.6242 C   0  0  0  0  0  0  0  0  0  0  0  0
   17.6745    6.4011    1.9587 H   0  0  0  0  0  0  0  0  0  0  0  0
   18.9836    5.9086    3.0761 H   0  0  0  0  0  0  0  0  0  0  0  0
   19.4329    7.6557    1.8677 C   0  0  0  0  0  0  0  0  0  0  0  0
   19.9141    7.0880    1.0768 H   0  0  0  0  0  0  0  0  0  0  0  0
   18.8951    8.4899    1.4240 H   0  0  0  0  0  0  0  0  0  0  0  0
   20.1935    8.0425    2.5413 H   0  0  0  0  0  0  0  0  0  0  0  0
  1  2  1  1  0  0  0
  1  7  1  0  0  0  0
  1  6  1  0  0  0  0
  3 84  2  0  0  0  0
  5 14  1  0  0  0  0
  5  1  1  0  0  0  0
  6 16  1  0  0  0  0
  6 21  1  0  0  0  0
  7 23  1  0  0  0  0
  8 81  1  0  0  0  0
  8 30  1  0  0  0  0
  9  5  1  0  0  0  0
 10  9  2  0  0  0  0
 10 12  1  0  0  0  0
 11 10  1  0  0  0  0
 12 13  1  0  0  0  0
 12 14  2  0  0  0  0
 14 15  1  0  0  0  0
 15 37  1  6  0  0  0
 15 16  1  0  0  0  0
 16 17  2  0  0  0  0
 17 18  1  0  0  0  0
 17 19  1  0  0  0  0
 19 20  1  0  0  0  0
 21 22  1  0  0  0  0
 21 19  2  0  0  0  0
 22 48  1  6  0  0  0
 23 24  2  0  0  0  0
 23 22  1  0  0  0  0
 24 25  1  0  0  0  0
 26 24  1  0  0  0  0
 27 26  1  0  0  0  0
 28  7  1  0  0  0  0
 28 26  2  0  0  0  0
 29 59  1  6  0  0  0
 29 28  1  0  0  0  0
 30 29  1  0  0  0  0
 31 32  1  0  0  0  0
 31 30  2  0  0  0  0
 33 31  1  0  0  0  0
 34 33  2  0  0  0  0
 34  8  1  0  0  0  0
 35 34  1  0  0  0  0
 36 70  1  1  0  0  0
 36 33  1  0  0  0  0
 36  9  1  0  0  0  0
 37 46  1  0  0  0  0
 38 40  1  0  0  0  0
 38 37  2  0  0  0  0
 39 38  1  0  0  0  0
 40 42  2  0  0  0  0
 41 40  1  0  0  0  0
 42 43  1  0  0  0  0
 42 44  1  0  0  0  0
 44 45  1  0  0  0  0
 46 44  2  0  0  0  0
 46 47  1  0  0  0  0
 48 49  2  0  0  0  0
 48 57  1  0  0  0  0
 49 51  1  0  0  0  0
 50 49  1  0  0  0  0
 51 52  1  0  0  0  0
 51 53  2  0  0  0  0
 53 54  1  0  0  0  0
 55 53  1  0  0  0  0
 55 56  1  0  0  0  0
 57 55  2  0  0  0  0
 58 57  1  0  0  0  0
 59 60  1  0  0  0  0
 60 61  1  0  0  0  0
 62 60  2  0  0  0  0
 62 63  1  0  0  0  0
 64 62  1  0  0  0  0
 65 64  1  0  0  0  0
 66 68  1  0  0  0  0
 66 64  2  0  0  0  0
 67 66  1  0  0  0  0
 68 59  2  0  0  0  0
 69 68  1  0  0  0  0
 70 79  1  0  0  0  0
 71 70  2  0  0  0  0
 72 71  1  0  0  0  0
 73 75  2  0  0  0  0
 73 71  1  0  0  0  0
 74 73  1  0  0  0  0
 75 77  1  0  0  0  0
 76 75  1  0  0  0  0
 77 78  1  0  0  0  0
 77 79  2  0  0  0  0
 79 80  1  0  0  0  0
 81 83  1  0  0  0  0
 81 82  1  0  0  0  0
 84  4  1  0  0  0  0
 84 81  1  0  0  0  0
 85 87  1  0  0  0  0
 85  4  1  0  0  0  0
 86 85  1  0  0  0  0
 88 91  1  0  0  0  0
 88 85  1  0  0  0  0
 89 88  1  0  0  0  0
 90 88  1  0  0  0  0
M  END
$$$$
