CSD_code = AGEYET | q = 0 | S = 0 | Stoichiometry = C53H37HgIN4O2 | MND = 4
 OpenBabel04212202003D

 98109  0  0  1  0  0  0  0  0999 V2000
   21.0730   23.8936   16.1253 Hg  0  0  2  0  0  0  0  0  0  0  0  0
   19.7671   25.8066   17.3403 I   0  0  0  0  0  0  0  0  0  0  0  0
   24.3589   28.3064   20.7465 O   0  0  0  0  0  0  0  0  0  0  0  0
   25.3618   28.2296   18.7340 O   0  0  0  0  0  0  0  0  0  0  0  0
   21.5696   24.4173   13.9726 N   0  0  0  0  0  0  0  0  0  0  0  0
   20.5170   22.0100   15.3172 N   0  0  0  0  0  0  0  0  0  0  0  0
   22.0968   22.6450   17.7198 N   0  0  0  0  0  0  0  0  0  0  0  0
   23.3782   26.5326   17.7995 N   0  0  0  0  0  0  0  0  0  0  0  0
   22.2883   25.4702   13.4571 C   0  0  0  0  0  0  0  0  0  0  0  0
   22.1229   25.4978   12.0251 C   0  0  0  0  0  0  0  0  0  0  0  0
   22.6254   26.1734   11.3606 H   0  0  0  0  0  0  0  0  0  0  0  0
   21.2921   24.4805   11.7060 C   0  0  0  0  0  0  0  0  0  0  0  0
   20.9613   24.1795   10.7309 H   0  0  0  0  0  0  0  0  0  0  0  0
   20.9373   23.8234   12.9417 C   0  0  0  0  0  0  0  0  0  0  0  0
   20.0837   22.6976   13.0064 C   0  0  2  0  0  3  0  0  0  0  0  0
   19.8869   21.8779   14.1168 C   0  0  0  0  0  0  0  0  0  0  0  0
   19.0412   20.7054   14.1565 C   0  0  0  0  0  0  0  0  0  0  0  0
   18.3928   20.3857   13.3640 H   0  0  0  0  0  0  0  0  0  0  0  0
   19.2186   20.1303   15.3659 C   0  0  0  0  0  0  0  0  0  0  0  0
   18.7434   19.2497   15.7525 H   0  0  0  0  0  0  0  0  0  0  0  0
   20.1746   20.9425   16.0854 C   0  0  0  0  0  0  0  0  0  0  0  0
   20.7172   20.6372   17.3366 C   0  0  2  0  0  3  0  0  0  0  0  0
   21.6738   21.4036   18.0330 C   0  0  0  0  0  0  0  0  0  0  0  0
   22.3910   20.9219   19.1929 C   0  0  0  0  0  0  0  0  0  0  0  0
   22.2736   19.9489   19.6291 H   0  0  0  0  0  0  0  0  0  0  0  0
   23.2302   21.9080   19.5750 C   0  0  0  0  0  0  0  0  0  0  0  0
   23.9509   21.8920   20.3691 H   0  0  0  0  0  0  0  0  0  0  0  0
   23.0346   23.0044   18.6554 C   0  0  0  0  0  0  0  0  0  0  0  0
   23.6637   24.2392   18.7166 C   0  0  2  0  0  3  0  0  0  0  0  0
   23.5463   25.1725   17.6340 C   0  0  0  0  0  0  0  0  0  0  0  0
   23.4948   24.9102   16.2684 C   0  0  0  0  0  0  0  0  0  0  0  0
   23.7853   23.9826   15.8019 H   0  0  0  0  0  0  0  0  0  0  0  0
   23.2895   26.1450   15.6021 C   0  0  0  0  0  0  0  0  0  0  0  0
   23.2376   27.1149   16.6009 C   0  0  0  0  0  0  0  0  0  0  0  0
   23.0275   28.1627   16.5050 H   0  0  0  0  0  0  0  0  0  0  0  0
   23.0221   26.3750   14.2109 C   0  0  2  0  0  3  0  0  0  0  0  0
   19.3776   22.3352   11.7596 C   0  0  0  0  0  0  0  0  0  0  0  0
   18.4829   23.2295   11.1779 C   0  0  0  0  0  0  0  0  0  0  0  0
   18.3077   24.1852   11.6508 H   0  0  0  0  0  0  0  0  0  0  0  0
   17.8118   22.8931   10.0167 C   0  0  0  0  0  0  0  0  0  0  0  0
   17.1141   23.5921    9.5789 H   0  0  0  0  0  0  0  0  0  0  0  0
   18.0318   21.6645    9.4162 C   0  0  0  0  0  0  0  0  0  0  0  0
   17.5087   21.4035    8.5082 H   0  0  0  0  0  0  0  0  0  0  0  0
   18.9269   20.7727    9.9831 C   0  0  0  0  0  0  0  0  0  0  0  0
   19.1068   19.8156    9.5153 H   0  0  0  0  0  0  0  0  0  0  0  0
   19.5943   21.1034   11.1484 C   0  0  0  0  0  0  0  0  0  0  0  0
   20.3019   20.4131   11.5852 H   0  0  0  0  0  0  0  0  0  0  0  0
   20.2966   19.3709   17.9721 C   0  0  0  0  0  0  0  0  0  0  0  0
   20.5165   18.1480   17.3444 C   0  0  0  0  0  0  0  0  0  0  0  0
   21.0136   18.1273   16.3850 H   0  0  0  0  0  0  0  0  0  0  0  0
   20.1223   16.9690   17.9502 C   0  0  0  0  0  0  0  0  0  0  0  0
   20.3032   16.0255   17.4559 H   0  0  0  0  0  0  0  0  0  0  0  0
   19.4999   16.9956   19.1871 C   0  0  0  0  0  0  0  0  0  0  0  0
   19.1904   16.0742   19.6579 H   0  0  0  0  0  0  0  0  0  0  0  0
   19.2780   18.2079   19.8192 C   0  0  0  0  0  0  0  0  0  0  0  0
   18.7920   18.2343   20.7836 H   0  0  0  0  0  0  0  0  0  0  0  0
   19.6770   19.3879   19.2189 C   0  0  0  0  0  0  0  0  0  0  0  0
   19.4995   20.3352   19.7078 H   0  0  0  0  0  0  0  0  0  0  0  0
   24.4759   24.6113   19.8756 C   0  0  0  0  0  0  0  0  0  0  0  0
   24.0538   24.3633   21.1836 C   0  0  0  0  0  0  0  0  0  0  0  0
   23.0790   23.9286   21.3512 H   0  0  0  0  0  0  0  0  0  0  0  0
   24.8595   24.6983   22.2545 C   0  0  0  0  0  0  0  0  0  0  0  0
   24.5226   24.5028   23.2616 H   0  0  0  0  0  0  0  0  0  0  0  0
   26.0962   25.2856   22.0428 C   0  0  0  0  0  0  0  0  0  0  0  0
   26.7275   25.5347   22.8819 H   0  0  0  0  0  0  0  0  0  0  0  0
   26.5134   25.5601   20.7506 C   0  0  0  0  0  0  0  0  0  0  0  0
   27.4722   26.0270   20.5800 H   0  0  0  0  0  0  0  0  0  0  0  0
   25.7103   25.2342   19.6753 C   0  0  0  0  0  0  0  0  0  0  0  0
   26.0449   25.4344   18.6676 H   0  0  0  0  0  0  0  0  0  0  0  0
   23.4727   27.6452   13.6533 C   0  0  0  0  0  0  0  0  0  0  0  0
   24.7155   28.1646   14.0270 C   0  0  0  0  0  0  0  0  0  0  0  0
   25.3435   27.6000   14.7004 H   0  0  0  0  0  0  0  0  0  0  0  0
   25.1528   29.3732   13.5225 C   0  0  0  0  0  0  0  0  0  0  0  0
   26.1198   29.7565   13.8129 H   0  0  0  0  0  0  0  0  0  0  0  0
   24.3548   30.0939   12.6481 C   0  0  0  0  0  0  0  0  0  0  0  0
   24.6972   31.0397   12.2552 H   0  0  0  0  0  0  0  0  0  0  0  0
   23.1101   29.6016   12.2893 C   0  0  0  0  0  0  0  0  0  0  0  0
   22.4760   30.1698   11.6247 H   0  0  0  0  0  0  0  0  0  0  0  0
   22.6694   28.3906   12.7867 C   0  0  0  0  0  0  0  0  0  0  0  0
   21.6822   28.0309   12.5382 H   0  0  0  0  0  0  0  0  0  0  0  0
   23.1851   27.2226   19.0409 C   0  0  0  0  0  0  0  0  0  0  0  0
   22.8914   26.5264   19.8274 H   0  0  0  0  0  0  0  0  0  0  0  0
   22.3803   27.9574   18.9241 H   0  0  0  0  0  0  0  0  0  0  0  0
   24.4488   27.9688   19.4685 C   0  0  0  0  0  0  0  0  0  0  0  0
   25.4457   29.0335   21.3285 C   0  0  0  0  0  0  0  0  0  0  0  0
   25.1310   30.0821   21.4120 H   0  0  0  0  0  0  0  0  0  0  0  0
   26.3091   28.9796   20.6575 H   0  0  0  0  0  0  0  0  0  0  0  0
   25.7773   28.4826   22.6883 C   0  0  0  0  0  0  0  0  0  0  0  0
   24.7777   27.9652   23.5007 C   0  0  0  0  0  0  0  0  0  0  0  0
   23.7614   27.9443   23.1391 H   0  0  0  0  0  0  0  0  0  0  0  0
   25.0868   27.4707   24.7554 C   0  0  0  0  0  0  0  0  0  0  0  0
   24.3043   27.0660   25.3799 H   0  0  0  0  0  0  0  0  0  0  0  0
   26.3937   27.4981   25.2117 C   0  0  0  0  0  0  0  0  0  0  0  0
   26.6344   27.1132   26.1915 H   0  0  0  0  0  0  0  0  0  0  0  0
   27.3926   28.0202   24.4071 C   0  0  0  0  0  0  0  0  0  0  0  0
   28.4137   28.0431   24.7583 H   0  0  0  0  0  0  0  0  0  0  0  0
   27.0870   28.5072   23.1484 C   0  0  0  0  0  0  0  0  0  0  0  0
   27.8683   28.9090   22.5196 H   0  0  0  0  0  0  0  0  0  0  0  0
  1  2  1  1  0  0  0
  1  7  1  0  0  0  0
  3 85  1  0  0  0  0
  4 84  2  0  0  0  0
  5  1  1  0  0  0  0
  6 21  1  0  0  0  0
  6  1  1  0  0  0  0
  7 23  1  0  0  0  0
  7 28  1  0  0  0  0
  8 81  1  0  0  0  0
  9  5  1  0  0  0  0
  9 36  1  0  0  0  0
 10  9  2  0  0  0  0
 11 10  1  0  0  0  0
 12 10  1  0  0  0  0
 12 14  2  0  0  0  0
 13 12  1  0  0  0  0
 14 15  1  0  0  0  0
 14  5  1  0  0  0  0
 15 37  1  6  0  0  0
 15 16  1  0  0  0  0
 16 17  2  0  0  0  0
 16  6  1  0  0  0  0
 17 19  1  0  0  0  0
 18 17  1  0  0  0  0
 19 20  1  0  0  0  0
 19 21  2  0  0  0  0
 21 22  1  0  0  0  0
 22 48  1  6  0  0  0
 22 23  1  0  0  0  0
 23 24  2  0  0  0  0
 24 26  1  0  0  0  0
 24 25  1  0  0  0  0
 26 27  1  0  0  0  0
 28 29  1  0  0  0  0
 28 26  2  0  0  0  0
 29 59  1  6  0  0  0
 30  8  1  0  0  0  0
 30 29  1  0  0  0  0
 31 30  2  0  0  0  0
 32 31  1  0  0  0  0
 33 31  1  0  0  0  0
 33 34  2  0  0  0  0
 34  8  1  0  0  0  0
 35 34  1  0  0  0  0
 36 70  1  1  0  0  0
 36 33  1  0  0  0  0
 38 39  1  0  0  0  0
 38 37  1  0  0  0  0
 40 38  2  0  0  0  0
 41 40  1  0  0  0  0
 42 44  2  0  0  0  0
 42 40  1  0  0  0  0
 43 42  1  0  0  0  0
 44 46  1  0  0  0  0
 45 44  1  0  0  0  0
 46 47  1  0  0  0  0
 46 37  2  0  0  0  0
 48 57  1  0  0  0  0
 49 51  1  0  0  0  0
 49 48  2  0  0  0  0
 50 49  1  0  0  0  0
 51 53  2  0  0  0  0
 52 51  1  0  0  0  0
 53 54  1  0  0  0  0
 53 55  1  0  0  0  0
 55 56  1  0  0  0  0
 57 58  1  0  0  0  0
 57 55  2  0  0  0  0
 59 60  1  0  0  0  0
 60 61  1  0  0  0  0
 60 62  2  0  0  0  0
 62 63  1  0  0  0  0
 64 62  1  0  0  0  0
 64 65  1  0  0  0  0
 66 64  2  0  0  0  0
 67 66  1  0  0  0  0
 68 59  2  0  0  0  0
 68 66  1  0  0  0  0
 69 68  1  0  0  0  0
 70 71  1  0  0  0  0
 71 72  1  0  0  0  0
 73 74  1  0  0  0  0
 73 71  2  0  0  0  0
 75 73  1  0  0  0  0
 76 75  1  0  0  0  0
 77 75  2  0  0  0  0
 77 79  1  0  0  0  0
 78 77  1  0  0  0  0
 79 70  2  0  0  0  0
 80 79  1  0  0  0  0
 81 84  1  0  0  0  0
 81 82  1  0  0  0  0
 83 81  1  0  0  0  0
 84  3  1  0  0  0  0
 85 86  1  0  0  0  0
 85 88  1  0  0  0  0
 87 85  1  0  0  0  0
 88 97  2  0  0  0  0
 88 89  1  0  0  0  0
 89 91  2  0  0  0  0
 90 89  1  0  0  0  0
 91 93  1  0  0  0  0
 91 92  1  0  0  0  0
 93 94  1  0  0  0  0
 95 96  1  0  0  0  0
 95 93  2  0  0  0  0
 97 95  1  0  0  0  0
 98 97  1  0  0  0  0
M  END
$$$$
