CSD_code = AGEZOB | q = 0 | S = 0 | Stoichiometry = C12H16BBrCdN6S3 | MND = 4
 OpenBabel04212202003D

 40 44  0  0  1  0  0  0  0  0999 V2000
    6.5685    1.7930    0.8859 Cd  0  0  1  0  0  0  0  0  0  0  0  0
    5.2576    0.8900   -1.0255 Br  0  0  0  0  0  0  0  0  0  0  0  0
    7.7816    0.1103    2.5794 S   0  0  0  0  0  0  0  0  0  0  0  0
    8.6563    3.4246    0.5195 S   0  0  0  0  0  0  0  0  0  0  0  0
    5.3007    3.2675    2.7172 S   0  0  0  0  0  0  0  0  0  0  0  0
    9.4511    2.2002    3.2218 N   0  0  0  0  0  0  0  0  0  0  0  0
   10.3591    0.5903    2.0434 N   0  0  0  0  0  0  0  0  0  0  0  0
    8.1441    4.3647    3.0627 N   0  0  0  0  0  0  0  0  0  0  0  0
    7.6189    5.7088    1.4124 N   0  0  0  0  0  0  0  0  0  0  0  0
    7.2633    2.4558    4.4768 N   0  0  0  0  0  0  0  0  0  0  0  0
    5.2850    1.5537    4.7576 N   0  0  0  0  0  0  0  0  0  0  0  0
    9.2124    1.0220    2.6168 C   0  0  1  0  0  3  0  0  0  0  0  0
   10.7684    2.5117    3.0034 C   0  0  0  0  0  0  0  0  0  0  0  0
   11.3329    1.5236    2.2752 C   0  0  0  0  0  0  0  0  0  0  0  0
   10.5141   -0.6074    1.2686 C   0  0  0  0  0  0  0  0  0  0  0  0
    8.1180    4.4916    1.7234 C   0  0  1  0  0  3  0  0  0  0  0  0
    7.6358    5.5240    3.5897 C   0  0  0  0  0  0  0  0  0  0  0  0
    7.3065    6.3556    2.5758 C   0  0  0  0  0  0  0  0  0  0  0  0
    7.3881    6.1692    0.0732 C   0  0  0  0  0  0  0  0  0  0  0  0
    6.0073    2.4064    3.9966 C   0  0  1  0  0  3  0  0  0  0  0  0
    7.3218    1.6021    5.5483 C   0  0  0  0  0  0  0  0  0  0  0  0
    6.1053    1.0390    5.7231 C   0  0  0  0  0  0  0  0  0  0  0  0
    3.9183    1.1978    4.5029 C   0  0  0  0  0  0  0  0  0  0  0  0
    8.5273    3.1813    3.9733 B   0  0  1  0  0  0  0  0  0  0  0  0
    9.1184    3.6061    4.9162 H   0  0  0  0  0  0  0  0  0  0  0  0
   11.1893    3.4190    3.3822 H   0  0  0  0  0  0  0  0  0  0  0  0
   12.3286    1.4067    1.9016 H   0  0  0  0  0  0  0  0  0  0  0  0
   11.2597   -1.2598    1.7252 H   0  0  0  0  0  0  0  0  0  0  0  0
   10.8248   -0.3577    0.2527 H   0  0  0  0  0  0  0  0  0  0  0  0
    9.5544   -1.1246    1.2369 H   0  0  0  0  0  0  0  0  0  0  0  0
    7.5445    5.6535    4.6474 H   0  0  0  0  0  0  0  0  0  0  0  0
    6.8780    7.3359    2.5849 H   0  0  0  0  0  0  0  0  0  0  0  0
    7.0125    7.1888    0.1040 H   0  0  0  0  0  0  0  0  0  0  0  0
    8.3165    6.1305   -0.4992 H   0  0  0  0  0  0  0  0  0  0  0  0
    6.6558    5.5233   -0.4216 H   0  0  0  0  0  0  0  0  0  0  0  0
    8.2326    1.4625    6.0913 H   0  0  0  0  0  0  0  0  0  0  0  0
    5.7611    0.3232    6.4399 H   0  0  0  0  0  0  0  0  0  0  0  0
    3.3281    2.1013    4.3434 H   0  0  0  0  0  0  0  0  0  0  0  0
    3.8523    0.5818    3.6005 H   0  0  0  0  0  0  0  0  0  0  0  0
    3.5272    0.6424    5.3518 H   0  0  0  0  0  0  0  0  0  0  0  0
  1  2  1  6  0  0  0
  1  3  1  0  0  0  0
  1  5  1  0  0  0  0
  4  1  1  0  0  0  0
  6 24  1  0  0  0  0
  7 14  1  0  0  0  0
  7 12  1  0  0  0  0
  8 17  1  0  0  0  0
  8 24  1  0  0  0  0
  9 16  1  0  0  0  0
  9 18  1  0  0  0  0
 10 21  1  0  0  0  0
 11 22  1  0  0  0  0
 12  3  1  1  0  0  0
 12  6  1  0  0  0  0
 13  6  1  0  0  0  0
 13 26  1  0  0  0  0
 14 13  2  0  0  0  0
 15 28  1  0  0  0  0
 15  7  1  0  0  0  0
 16  4  1  1  0  0  0
 16  8  1  0  0  0  0
 17 31  1  0  0  0  0
 18 32  1  0  0  0  0
 18 17  2  0  0  0  0
 19 33  1  0  0  0  0
 19  9  1  0  0  0  0
 20  5  1  1  0  0  0
 20 10  1  0  0  0  0
 20 11  1  0  0  0  0
 21 22  2  0  0  0  0
 21 36  1  0  0  0  0
 22 37  1  0  0  0  0
 23 11  1  0  0  0  0
 23 40  1  0  0  0  0
 24 10  1  0  0  0  0
 24 25  1  1  0  0  0
 27 14  1  0  0  0  0
 29 15  1  0  0  0  0
 30 15  1  0  0  0  0
 34 19  1  0  0  0  0
 35 19  1  0  0  0  0
 38 23  1  0  0  0  0
 39 23  1  0  0  0  0
M  END
$$$$
