CSD_code = AGEZER | q = 0 | S = 0 | Stoichiometry = C12H16BIN6S3Zn | MND = 4
 OpenBabel04212202003D

 40 44  0  0  1  0  0  0  0  0999 V2000
   -3.7811    7.4916    4.5564 H   0  0  0  0  0  0  0  0  0  0  0  0
    0.1114    1.4145    2.4907 I   0  0  0  0  0  0  0  0  0  0  0  0
   -1.1979    3.4557    3.1764 Zn  0  0  2  0  0  0  0  0  0  0  0  0
   -0.5878    5.6675    2.1222 S   0  0  0  0  0  0  0  0  0  0  0  0
   -1.1563    4.1094    5.6168 S   0  0  0  0  0  0  0  0  0  0  0  0
   -3.6896    3.4576    2.7702 S   0  0  0  0  0  0  0  0  0  0  0  0
   -3.1548    6.4645    2.6852 N   0  0  0  0  0  0  0  0  0  0  0  0
    0.2821    6.3648    5.5923 N   0  0  0  0  0  0  0  0  0  0  0  0
   -1.7296    6.6601    4.7757 N   0  0  0  0  0  0  0  0  0  0  0  0
   -4.6708    3.2953    5.2521 N   0  0  0  0  0  0  0  0  0  0  0  0
   -4.0554    4.0508    4.3181 C   0  0  2  0  0  3  0  0  0  0  0  0
   -2.7032    6.1672    0.5621 N   0  0  0  0  0  0  0  0  0  0  0  0
   -3.8600    5.2835    4.8160 N   0  0  0  0  0  0  0  0  0  0  0  0
   -1.0647    7.8581    4.7327 C   0  0  0  0  0  0  0  0  0  0  0  0
   -1.5355    8.7350    4.3414 H   0  0  0  0  0  0  0  0  0  0  0  0
   -2.2003    6.0992    1.8130 C   0  0  1  0  0  3  0  0  0  0  0  0
   -0.8842    5.7536    5.2946 C   0  0  2  0  0  3  0  0  0  0  0  0
   -4.8465    4.0604    6.3723 C   0  0  0  0  0  0  0  0  0  0  0  0
   -5.3021    3.6708    7.2584 H   0  0  0  0  0  0  0  0  0  0  0  0
   -4.2828    6.7464    1.9592 C   0  0  0  0  0  0  0  0  0  0  0  0
   -5.1872    7.0493    2.4431 H   0  0  0  0  0  0  0  0  0  0  0  0
   -4.0103    6.5620    0.6484 C   0  0  0  0  0  0  0  0  0  0  0  0
   -4.6265    6.6719   -0.2193 H   0  0  0  0  0  0  0  0  0  0  0  0
    0.1779    7.6810    5.2338 C   0  0  0  0  0  0  0  0  0  0  0  0
    0.9888    8.3675    5.3601 H   0  0  0  0  0  0  0  0  0  0  0  0
   -3.1647    6.5271    4.2260 B   0  0  2  0  0  0  0  0  0  0  0  0
   -4.3480    5.2862    6.0969 C   0  0  0  0  0  0  0  0  0  0  0  0
   -4.2919    6.1640    6.7054 H   0  0  0  0  0  0  0  0  0  0  0  0
   -5.0010    1.9051    5.1199 C   0  0  0  0  0  0  0  0  0  0  0  0
   -4.9993    1.6446    4.0618 H   0  0  0  0  0  0  0  0  0  0  0  0
   -5.9864    1.7175    5.5440 H   0  0  0  0  0  0  0  0  0  0  0  0
   -4.2605    1.2901    5.6366 H   0  0  0  0  0  0  0  0  0  0  0  0
   -2.0107    5.8139   -0.6439 C   0  0  0  0  0  0  0  0  0  0  0  0
   -2.1098    6.6125   -1.3790 H   0  0  0  0  0  0  0  0  0  0  0  0
   -2.4204    4.8893   -1.0556 H   0  0  0  0  0  0  0  0  0  0  0  0
   -0.9575    5.6636   -0.4078 H   0  0  0  0  0  0  0  0  0  0  0  0
    1.4510    5.7324    6.1331 C   0  0  0  0  0  0  0  0  0  0  0  0
    1.7546    6.2291    7.0553 H   0  0  0  0  0  0  0  0  0  0  0  0
    2.2685    5.7765    5.4116 H   0  0  0  0  0  0  0  0  0  0  0  0
    1.2137    4.6899    6.3445 H   0  0  0  0  0  0  0  0  0  0  0  0
  3  2  1  6  0  0  0
  3  5  1  0  0  0  0
  4  3  1  0  0  0  0
  6  3  1  0  0  0  0
  7 26  1  0  0  0  0
  8 37  1  0  0  0  0
  9 17  1  0  0  0  0
 10 18  1  0  0  0  0
 11  6  1  6  0  0  0
 11 13  1  0  0  0  0
 11 10  1  0  0  0  0
 12 22  1  0  0  0  0
 12 16  1  0  0  0  0
 13 27  1  0  0  0  0
 14  9  1  0  0  0  0
 14 24  2  0  0  0  0
 15 14  1  0  0  0  0
 16  4  1  6  0  0  0
 16  7  1  0  0  0  0
 17  8  1  0  0  0  0
 17  5  1  1  0  0  0
 18 19  1  0  0  0  0
 20 21  1  0  0  0  0
 20  7  1  0  0  0  0
 22 20  2  0  0  0  0
 23 22  1  0  0  0  0
 24 25  1  0  0  0  0
 24  8  1  0  0  0  0
 26  1  1  1  0  0  0
 26  9  1  0  0  0  0
 26 13  1  0  0  0  0
 27 18  2  0  0  0  0
 27 28  1  0  0  0  0
 29 10  1  0  0  0  0
 29 31  1  0  0  0  0
 29 32  1  0  0  0  0
 30 29  1  0  0  0  0
 33 36  1  0  0  0  0
 33 12  1  0  0  0  0
 34 33  1  0  0  0  0
 35 33  1  0  0  0  0
 37 40  1  0  0  0  0
 37 38  1  0  0  0  0
 39 37  1  0  0  0  0
M  END
$$$$
