CSD_code = AGIBAT | q = 0 | S = 0 | Stoichiometry = C24H33Cl2N3Ti | MND = 9
 OpenBabel04212202003D

 63 62  0  0  1  0  0  0  0  0999 V2000
    0.0324    2.5881   10.5100 Ti  0  0  0  0  0  0  0  0  0  0  0  0
    1.2133    2.3248   12.3540 Cl  0  0  0  0  0 15  0  0  0  0  0  0
    1.6823    3.7332    9.6086 Cl  0  0  0  0  0 15  0  0  0  0  0  0
    0.0960    1.2986    9.0260 N   0  0  0  0  0  0  0  0  0  0  0  0
   -0.0076    0.6735   10.2297 N   0  0  0  0  0  0  0  0  0  0  0  0
    1.2223   -0.5959    8.9131 N   0  0  0  0  0  0  0  0  0  0  0  0
   -2.2475    2.4346   10.9487 C   0  0  0  0  0  0  0  0  0  0  0  0
    0.8570    0.5145    8.2617 C   0  0  0  0  0  0  0  0  0  0  0  0
   -1.6372    3.2901   11.9061 C   0  0  1  0  0  3  0  0  0  0  0  0
   -2.0963    3.0300    9.6647 C   0  0  0  0  0  0  0  0  0  0  0  0
   -1.3740    4.2460    9.8190 C   0  0  0  0  0  0  0  0  0  0  0  0
    0.6992   -0.4549   10.1331 C   0  0  0  0  0  0  0  0  0  0  0  0
   -1.4412    6.3655   12.6806 C   0  0  0  0  0  0  0  0  0  0  0  0
   -2.0511    7.5825   14.6666 C   0  0  0  0  0  0  0  0  0  0  0  0
   -1.7897    7.9613   15.6438 H   0  0  0  0  0  0  0  0  0  0  0  0
    1.2162    0.7999    6.8419 C   0  0  0  0  0  0  0  0  0  0  0  0
    2.3088    0.7430    6.7720 H   0  0  0  0  0  0  0  0  0  0  0  0
   -3.0660    1.2112   11.2347 C   0  0  0  0  0  0  0  0  0  0  0  0
   -4.1263    1.4727   11.2714 H   0  0  0  0  0  0  0  0  0  0  0  0
   -2.7903    0.7720   12.1913 H   0  0  0  0  0  0  0  0  0  0  0  0
   -2.9289    0.4620   10.4550 H   0  0  0  0  0  0  0  0  0  0  0  0
   -1.0809    4.4020   11.2060 C   0  0  0  0  0  0  0  0  0  0  0  0
   -0.4311    5.5809   11.8776 C   0  0  0  0  0  0  0  0  0  0  0  0
    0.0170    6.2383   11.1248 H   0  0  0  0  0  0  0  0  0  0  0  0
    0.3747    5.2421   12.5393 H   0  0  0  0  0  0  0  0  0  0  0  0
   -1.1227    6.8592   13.9381 C   0  0  0  0  0  0  0  0  0  0  0  0
   -0.1406    6.6768   14.3510 H   0  0  0  0  0  0  0  0  0  0  0  0
   -3.6390    7.3257   12.8941 C   0  0  0  0  0  0  0  0  0  0  0  0
   -4.6222    7.5044   12.4833 H   0  0  0  0  0  0  0  0  0  0  0  0
   -1.7230    3.1593   13.3963 C   0  0  0  0  0  0  0  0  0  0  0  0
   -2.5986    3.7024   13.7607 H   0  0  0  0  0  0  0  0  0  0  0  0
   -0.8414    3.5791   13.8772 H   0  0  0  0  0  0  0  0  0  0  0  0
   -1.8124    2.1162   13.6955 H   0  0  0  0  0  0  0  0  0  0  0  0
   -2.7511    2.5296    8.4116 C   0  0  0  0  0  0  0  0  0  0  0  0
   -3.8365    2.6064    8.5080 H   0  0  0  0  0  0  0  0  0  0  0  0
   -2.5044    1.4829    8.2278 H   0  0  0  0  0  0  0  0  0  0  0  0
   -2.4425    3.1175    7.5505 H   0  0  0  0  0  0  0  0  0  0  0  0
   -2.7096    6.6057   12.1660 C   0  0  0  0  0  0  0  0  0  0  0  0
   -2.9691    6.2187   11.1909 H   0  0  0  0  0  0  0  0  0  0  0  0
   -1.1047    5.2388    8.7270 C   0  0  0  0  0  0  0  0  0  0  0  0
   -2.0032    5.8273    8.5244 H   0  0  0  0  0  0  0  0  0  0  0  0
   -0.8087    4.7352    7.8072 H   0  0  0  0  0  0  0  0  0  0  0  0
   -0.3042    5.9206    9.0070 H   0  0  0  0  0  0  0  0  0  0  0  0
    0.7511    2.1927    6.4270 C   0  0  0  0  0  0  0  0  0  0  0  0
    1.1628    2.9458    7.0973 H   0  0  0  0  0  0  0  0  0  0  0  0
   -0.3356    2.2481    6.4623 H   0  0  0  0  0  0  0  0  0  0  0  0
    1.0787    2.4081    5.4126 H   0  0  0  0  0  0  0  0  0  0  0  0
   -3.3121    7.8171   14.1468 C   0  0  0  0  0  0  0  0  0  0  0  0
   -4.0378    8.3791   14.7159 H   0  0  0  0  0  0  0  0  0  0  0  0
    0.9069   -1.4120   11.2572 C   0  0  0  0  0  0  0  0  0  0  0  0
    0.8323   -2.4287   10.8561 H   0  0  0  0  0  0  0  0  0  0  0  0
    0.6194   -0.2840    5.9396 C   0  0  0  0  0  0  0  0  0  0  0  0
    0.9497   -1.2650    6.2696 H   0  0  0  0  0  0  0  0  0  0  0  0
    0.9350   -0.1305    4.9105 H   0  0  0  0  0  0  0  0  0  0  0  0
   -0.4679   -0.2508    5.9787 H   0  0  0  0  0  0  0  0  0  0  0  0
   -0.1347   -1.1958   12.3520 C   0  0  0  0  0  0  0  0  0  0  0  0
    0.0420   -1.8839   13.1752 H   0  0  0  0  0  0  0  0  0  0  0  0
   -1.1377   -1.3646   11.9649 H   0  0  0  0  0  0  0  0  0  0  0  0
   -0.0677   -0.1738   12.7269 H   0  0  0  0  0  0  0  0  0  0  0  0
    2.3254   -1.1965   11.7977 C   0  0  0  0  0  0  0  0  0  0  0  0
    2.5280   -1.8926   12.6079 H   0  0  0  0  0  0  0  0  0  0  0  0
    2.4272   -0.1796   12.1748 H   0  0  0  0  0  0  0  0  0  0  0  0
    3.0550   -1.3513   11.0066 H   0  0  0  0  0  0  0  0  0  0  0  0
  4  5  1  0  0  0  0
  5  1  1  0  0  0  0
  6 12  2  0  0  0  0
  7 18  1  0  0  0  0
  7  9  1  0  0  0  0
  8  6  1  0  0  0  0
  8  4  2  0  0  0  0
  9 30  1  1  0  0  0
 10 11  1  0  0  0  0
 10  7  2  0  0  0  0
 11 22  2  0  0  0  0
 12  5  1  0  0  0  0
 12 50  1  0  0  0  0
 13 26  1  0  0  0  0
 14 15  1  0  0  0  0
 16  8  1  0  0  0  0
 17 16  1  0  0  0  0
 18 19  1  0  0  0  0
 18 20  1  0  0  0  0
 21 18  1  0  0  0  0
 22 23  1  0  0  0  0
 22  9  1  0  0  0  0
 23 25  1  0  0  0  0
 23 13  1  0  0  0  0
 24 23  1  0  0  0  0
 26 27  1  0  0  0  0
 26 14  2  0  0  0  0
 28 48  2  0  0  0  0
 29 28  1  0  0  0  0
 30 33  1  0  0  0  0
 30 31  1  0  0  0  0
 30 32  1  0  0  0  0
 34 35  1  0  0  0  0
 34 10  1  0  0  0  0
 36 34  1  0  0  0  0
 37 34  1  0  0  0  0
 38 13  2  0  0  0  0
 38 28  1  0  0  0  0
 39 38  1  0  0  0  0
 40 43  1  0  0  0  0
 40 11  1  0  0  0  0
 41 40  1  0  0  0  0
 42 40  1  0  0  0  0
 44 46  1  0  0  0  0
 44 16  1  0  0  0  0
 44 45  1  0  0  0  0
 47 44  1  0  0  0  0
 48 14  1  0  0  0  0
 48 49  1  0  0  0  0
 50 60  1  0  0  0  0
 50 56  1  0  0  0  0
 51 50  1  0  0  0  0
 52 55  1  0  0  0  0
 52 53  1  0  0  0  0
 52 16  1  0  0  0  0
 54 52  1  0  0  0  0
 56 59  1  0  0  0  0
 56 57  1  0  0  0  0
 58 56  1  0  0  0  0
 60 62  1  0  0  0  0
 60 61  1  0  0  0  0
 63 60  1  0  0  0  0
M  END
$$$$
