CSD_code = AGICUP | q = 0 | S = 0 | Stoichiometry = C22H24AsCl2PPd | MND = 4
 OpenBabel04212202003D

 51 54  0  0  1  0  0  0  0  0999 V2000
    3.6473    2.8447   15.8362 Pd  0  0  0  0  0  0  0  0  0  0  0  0
    4.2305    2.2740   18.0146 As  0  0  2  0  0  0  0  0  0  0  0  0
    3.0818    3.2076   13.6838 Cl  0  0  0  0  0  0  0  0  0  0  0  0
    3.3972    4.9926   16.5166 Cl  0  0  0  0  0  0  0  0  0  0  0  0
    3.6566    0.6451   15.4024 P   0  0  2  0  0  4  0  0  0  0  0  0
    3.8352    3.0412   19.7562 C   0  0  0  0  0  0  0  0  0  0  0  0
    4.8379    3.5273   20.5879 C   0  0  0  0  0  0  0  0  0  0  0  0
    5.8735    3.4611   20.2669 H   0  0  0  0  0  0  0  0  0  0  0  0
    4.5092    4.0969   21.8063 C   0  0  0  0  0  0  0  0  0  0  0  0
    5.2872    4.4735   22.4544 H   0  0  0  0  0  0  0  0  0  0  0  0
    3.1820    4.1932   22.1911 C   0  0  0  0  0  0  0  0  0  0  0  0
    2.9284    4.6421   23.1398 H   0  0  0  0  0  0  0  0  0  0  0  0
    2.1776    3.7289   21.3564 C   0  0  0  0  0  0  0  0  0  0  0  0
    1.1434    3.8192   21.6547 H   0  0  0  0  0  0  0  0  0  0  0  0
    2.5020    3.1599   20.1378 C   0  0  0  0  0  0  0  0  0  0  0  0
    1.7270    2.8069   19.4605 H   0  0  0  0  0  0  0  0  0  0  0  0
    3.6760    0.3576   18.1455 C   0  0  2  0  0  0  0  0  0  0  0  0
    2.6089    0.1103   18.1268 H   0  0  0  0  0  0  0  0  0  0  0  0
    4.3994   -0.1389   19.3693 C   0  0  0  0  0  0  0  0  0  0  0  0
    3.7293   -1.1288   20.2614 C   0  0  0  0  0  0  0  0  0  0  0  0
    3.4904   -2.0360   19.7049 H   0  0  0  0  0  0  0  0  0  0  0  0
    2.7942   -0.7135   20.6380 H   0  0  0  0  0  0  0  0  0  0  0  0
    4.3573   -1.3953   21.1062 H   0  0  0  0  0  0  0  0  0  0  0  0
    5.6333    0.3692   19.4455 C   0  0  0  0  0  0  0  0  0  0  0  0
    6.7102    0.0792   20.4362 C   0  0  0  0  0  0  0  0  0  0  0  0
    6.3460   -0.5406   21.2501 H   0  0  0  0  0  0  0  0  0  0  0  0
    7.0961    1.0090   20.8528 H   0  0  0  0  0  0  0  0  0  0  0  0
    7.5394   -0.4370   19.9504 H   0  0  0  0  0  0  0  0  0  0  0  0
    5.9321    1.2522   18.2600 C   0  0  1  0  0  0  0  0  0  0  0  0
    6.8745    1.8021   18.3301 H   0  0  0  0  0  0  0  0  0  0  0  0
    5.8725    0.3568   17.0062 C   0  0  0  0  0  0  0  0  0  0  0  0
    6.5917   -0.4623   17.0882 H   0  0  0  0  0  0  0  0  0  0  0  0
    6.1323    0.9529   16.1145 H   0  0  0  0  0  0  0  0  0  0  0  0
    4.4209   -0.1633   16.8946 C   0  0  2  0  0  0  0  0  0  0  0  0
    4.3640   -1.2562   16.8255 H   0  0  0  0  0  0  0  0  0  0  0  0
    4.2796   -0.1884   13.9353 C   0  0  0  0  0  0  0  0  0  0  0  0
    3.7883    0.1653   13.0343 H   0  0  0  0  0  0  0  0  0  0  0  0
    5.2673   -1.0712   13.8913 C   0  0  0  0  0  0  0  0  0  0  0  0
    5.7818   -1.4097   14.7760 H   0  0  0  0  0  0  0  0  0  0  0  0
    5.6042   -1.4914   12.9571 H   0  0  0  0  0  0  0  0  0  0  0  0
    1.9179    0.1174   15.4678 C   0  0  0  0  0  0  0  0  0  0  0  0
    1.5360   -1.1877   15.1736 C   0  0  0  0  0  0  0  0  0  0  0  0
    2.2837   -1.9078   14.8694 H   0  0  0  0  0  0  0  0  0  0  0  0
    0.2042   -1.5504   15.2617 C   0  0  0  0  0  0  0  0  0  0  0  0
   -0.0946   -2.5620   15.0292 H   0  0  0  0  0  0  0  0  0  0  0  0
   -0.7467   -0.6163   15.6414 C   0  0  0  0  0  0  0  0  0  0  0  0
   -1.7861   -0.9025   15.7032 H   0  0  0  0  0  0  0  0  0  0  0  0
   -0.3706    0.6857   15.9330 C   0  0  0  0  0  0  0  0  0  0  0  0
   -1.1156    1.4128   16.2192 H   0  0  0  0  0  0  0  0  0  0  0  0
    0.9596    1.0556   15.8474 C   0  0  0  0  0  0  0  0  0  0  0  0
    1.2637    2.0925   16.0524 H   0  0  0  0  0  0  0  0  0  0  0  0
  1  4  1  0  0  0  0
  2 17  1  0  0  0  0
  2 29  1  0  0  0  0
  2  6  1  1  0  0  0
  3  1  1  0  0  0  0
  5 36  1  6  0  0  0
  5 41  1  0  0  0  0
  5  1  1  0  0  0  0
  5 34  1  0  0  0  0
  6 15  2  0  0  0  0
  6  7  1  0  0  0  0
  7  9  2  0  0  0  0
  8  7  1  0  0  0  0
  9 11  1  0  0  0  0
  9 10  1  0  0  0  0
 11 12  1  0  0  0  0
 13 14  1  0  0  0  0
 13 11  2  0  0  0  0
 15 13  1  0  0  0  0
 16 15  1  0  0  0  0
 17 18  1  6  0  0  0
 17 19  1  0  0  0  0
 19 24  2  0  0  0  0
 19 20  1  0  0  0  0
 20 22  1  0  0  0  0
 20 23  1  0  0  0  0
 21 20  1  0  0  0  0
 24 25  1  0  0  0  0
 25 27  1  0  0  0  0
 25 26  1  0  0  0  0
 28 25  1  0  0  0  0
 29 30  1  1  0  0  0
 29 24  1  0  0  0  0
 31 32  1  0  0  0  0
 31 29  1  0  0  0  0
 33 31  1  0  0  0  0
 34 35  1  6  0  0  0
 34 31  1  0  0  0  0
 34 17  1  0  0  0  0
 37 36  1  0  0  0  0
 38 36  2  0  0  0  0
 38 39  1  0  0  0  0
 40 38  1  0  0  0  0
 41 50  1  0  0  0  0
 42 44  1  0  0  0  0
 42 41  2  0  0  0  0
 43 42  1  0  0  0  0
 44 46  2  0  0  0  0
 45 44  1  0  0  0  0
 46 47  1  0  0  0  0
 46 48  1  0  0  0  0
 48 49  1  0  0  0  0
 50 48  2  0  0  0  0
 50 51  1  0  0  0  0
M  END
$$$$
