CSD_code = AGIPOW | q = 0 | S = 0 | Stoichiometry = C28H28BClHg | MND = 2
 OpenBabel04212202003D

 59 62  0  0  0  0  0  0  0  0999 V2000
   15.0047    1.6349    6.3828 Hg  0  0  0  0  0  0  0  0  0  0  0  0
   13.2826    3.2645    6.1763 Cl  0  0  0  0  0  0  0  0  0  0  0  0
   17.5820    1.4749    8.3261 B   0  0  0  0  0  0  0  0  0  0  0  0
   16.0796   -0.2623    6.0620 C   0  0  0  0  0  0  0  0  0  0  0  0
   15.4546   -1.1022    5.1652 C   0  0  0  0  0  0  0  0  0  0  0  0
   14.5255   -0.8080    4.6859 H   0  0  0  0  0  0  0  0  0  0  0  0
   15.9857   -2.3566    4.8295 C   0  0  0  0  0  0  0  0  0  0  0  0
   15.4629   -2.9820    4.1211 H   0  0  0  0  0  0  0  0  0  0  0  0
   17.1571   -2.7621    5.3947 C   0  0  0  0  0  0  0  0  0  0  0  0
   17.5930   -3.7181    5.1412 H   0  0  0  0  0  0  0  0  0  0  0  0
   19.0545   -2.3802    6.8686 C   0  0  0  0  0  0  0  0  0  0  0  0
   19.4328   -3.3482    6.5728 H   0  0  0  0  0  0  0  0  0  0  0  0
   19.7487   -1.5906    7.7373 C   0  0  0  0  0  0  0  0  0  0  0  0
   20.6949   -1.9139    8.1458 H   0  0  0  0  0  0  0  0  0  0  0  0
   19.2288   -0.3451    8.0994 C   0  0  0  0  0  0  0  0  0  0  0  0
   19.7981    0.2640    8.7872 H   0  0  0  0  0  0  0  0  0  0  0  0
   18.0115    0.1283    7.6370 C   0  0  0  0  0  0  0  0  0  0  0  0
   17.2939   -0.6689    6.6878 C   0  0  0  0  0  0  0  0  0  0  0  0
   17.8326   -1.9397    6.3188 C   0  0  0  0  0  0  0  0  0  0  0  0
   16.2000    1.7044    9.0437 C   0  0  0  0  0  0  0  0  0  0  0  0
   15.6078    2.9956    9.1037 C   0  0  0  0  0  0  0  0  0  0  0  0
   14.4136    3.1889    9.7814 C   0  0  0  0  0  0  0  0  0  0  0  0
   13.9759    4.1770    9.8054 H   0  0  0  0  0  0  0  0  0  0  0  0
   13.7615    2.1500   10.4307 C   0  0  0  0  0  0  0  0  0  0  0  0
   14.3538    0.8975   10.4084 C   0  0  0  0  0  0  0  0  0  0  0  0
   13.8746    0.0797   10.9295 H   0  0  0  0  0  0  0  0  0  0  0  0
   15.5438    0.6604    9.7366 C   0  0  0  0  0  0  0  0  0  0  0  0
   16.2434    4.2098    8.4808 C   0  0  0  0  0  0  0  0  0  0  0  0
   15.4965    4.9881    8.3405 H   0  0  0  0  0  0  0  0  0  0  0  0
   16.7000    3.9948    7.5159 H   0  0  0  0  0  0  0  0  0  0  0  0
   17.0238    4.6002    9.1337 H   0  0  0  0  0  0  0  0  0  0  0  0
   12.4577    2.3895   11.1235 C   0  0  0  0  0  0  0  0  0  0  0  0
   12.1664    1.5294   11.7213 H   0  0  0  0  0  0  0  0  0  0  0  0
   11.6790    2.5770   10.3844 H   0  0  0  0  0  0  0  0  0  0  0  0
   12.5202    3.2649   11.7678 H   0  0  0  0  0  0  0  0  0  0  0  0
   16.1159   -0.7269    9.8152 C   0  0  0  0  0  0  0  0  0  0  0  0
   15.6508   -1.2778   10.6300 H   0  0  0  0  0  0  0  0  0  0  0  0
   17.1903   -0.7091    9.9764 H   0  0  0  0  0  0  0  0  0  0  0  0
   15.9262   -1.2704    8.8904 H   0  0  0  0  0  0  0  0  0  0  0  0
   18.7247    2.5492    8.4367 C   0  0  0  0  0  0  0  0  0  0  0  0
   19.1929    2.9805    9.6867 C   0  0  0  0  0  0  0  0  0  0  0  0
   20.2235    3.9049    9.7678 C   0  0  0  0  0  0  0  0  0  0  0  0
   20.5733    4.2210   10.7413 H   0  0  0  0  0  0  0  0  0  0  0  0
   20.8132    4.4341    8.6308 C   0  0  0  0  0  0  0  0  0  0  0  0
   20.3569    3.9998    7.3938 C   0  0  0  0  0  0  0  0  0  0  0  0
   20.8113    4.3968    6.4963 H   0  0  0  0  0  0  0  0  0  0  0  0
   19.3396    3.0666    7.2862 C   0  0  0  0  0  0  0  0  0  0  0  0
   18.6038    2.4313   10.9552 C   0  0  0  0  0  0  0  0  0  0  0  0
   17.5857    2.7926   11.0927 H   0  0  0  0  0  0  0  0  0  0  0  0
   19.1951    2.7363   11.8159 H   0  0  0  0  0  0  0  0  0  0  0  0
   18.5640    1.3440   10.9285 H   0  0  0  0  0  0  0  0  0  0  0  0
   21.9094    5.4512    8.7203 C   0  0  0  0  0  0  0  0  0  0  0  0
   22.2453    5.5743    9.7468 H   0  0  0  0  0  0  0  0  0  0  0  0
   21.5570    6.4158    8.3548 H   0  0  0  0  0  0  0  0  0  0  0  0
   22.7581    5.1540    8.1062 H   0  0  0  0  0  0  0  0  0  0  0  0
   18.9017    2.6219    5.9193 C   0  0  0  0  0  0  0  0  0  0  0  0
   17.8109    2.6243    5.8247 H   0  0  0  0  0  0  0  0  0  0  0  0
   19.2437    1.6053    5.7278 H   0  0  0  0  0  0  0  0  0  0  0  0
   19.3126    3.2730    5.1510 H   0  0  0  0  0  0  0  0  0  0  0  0
  2  1  1  0  0  0  0
  3 40  1  0  0  0  0
  3 20  1  0  0  0  0
  4  1  1  0  0  0  0
  4 18  1  0  0  0  0
  5  4  2  0  0  0  0
  6  5  1  0  0  0  0
  7  5  1  0  0  0  0
  7  9  2  0  0  0  0
  8  7  1  0  0  0  0
  9 19  1  0  0  0  0
 10  9  1  0  0  0  0
 11 13  1  0  0  0  0
 12 11  1  0  0  0  0
 13 15  2  0  0  0  0
 13 14  1  0  0  0  0
 15 16  1  0  0  0  0
 17 15  1  0  0  0  0
 17  3  1  0  0  0  0
 18 17  2  0  0  0  0
 19 18  1  0  0  0  0
 19 11  2  0  0  0  0
 20 21  2  0  0  0  0
 20 27  1  0  0  0  0
 21 22  1  0  0  0  0
 22 23  1  0  0  0  0
 22 24  2  0  0  0  0
 24 32  1  0  0  0  0
 25 24  1  0  0  0  0
 25 26  1  0  0  0  0
 27 36  1  0  0  0  0
 27 25  2  0  0  0  0
 28 21  1  0  0  0  0
 28 31  1  0  0  0  0
 29 28  1  0  0  0  0
 30 28  1  0  0  0  0
 32 33  1  0  0  0  0
 32 35  1  0  0  0  0
 34 32  1  0  0  0  0
 36 38  1  0  0  0  0
 36 37  1  0  0  0  0
 39 36  1  0  0  0  0
 40 41  1  0  0  0  0
 41 42  2  0  0  0  0
 41 48  1  0  0  0  0
 42 43  1  0  0  0  0
 44 52  1  0  0  0  0
 44 42  1  0  0  0  0
 45 44  2  0  0  0  0
 46 45  1  0  0  0  0
 47 45  1  0  0  0  0
 47 40  2  0  0  0  0
 48 49  1  0  0  0  0
 48 50  1  0  0  0  0
 51 48  1  0  0  0  0
 52 53  1  0  0  0  0
 54 52  1  0  0  0  0
 55 52  1  0  0  0  0
 56 47  1  0  0  0  0
 57 56  1  0  0  0  0
 58 56  1  0  0  0  0
 59 56  1  0  0  0  0
M  END
$$$$
