CSD_code = AGISER | q = 0 | S = 0 | Stoichiometry = C33H43Cl2FeN3 | MND = 5
 OpenBabel04212202003D

 82 86  0  0  1  0  0  0  0  0999 V2000
    6.5670   13.0649   14.8253 Fe  0  0  0  0  0  0  0  0  0  0  0  0
    5.5599   13.7561   16.5457 Cl  0  0  0  0  0  0  0  0  0  0  0  0
    6.3592   14.5202   13.3691 Cl  0  0  0  0  0  0  0  0  0  0  0  0
    7.0391   11.5748   15.6440 N   0  0  0  0  0  0  0  0  0  0  0  0
    5.1075   11.9024   14.1866 N   0  0  0  0  0  0  0  0  0  0  0  0
    8.3623   13.6172   15.4452 N   0  0  0  0  0  0  0  0  0  0  0  0
    4.1309    9.6319   14.4242 C   0  0  0  0  0  0  0  0  0  0  0  0
    3.3851    9.9832   13.7159 H   0  0  0  0  0  0  0  0  0  0  0  0
    3.6349    9.3033   15.3364 H   0  0  0  0  0  0  0  0  0  0  0  0
    4.6503    8.7759   13.9941 H   0  0  0  0  0  0  0  0  0  0  0  0
    5.1092   10.7191   14.7407 C   0  0  0  0  0  0  0  0  0  0  0  0
    6.2115   10.4984   15.6320 C   0  0  0  0  0  0  0  0  0  0  0  0
    6.4994    9.3586   16.3763 C   0  0  0  0  0  0  0  0  0  0  0  0
    5.8072    8.5361   16.3387 H   0  0  0  0  0  0  0  0  0  0  0  0
    7.6492    9.3017   17.1585 C   0  0  0  0  0  0  0  0  0  0  0  0
    8.4908   10.4158   17.1493 C   0  0  0  0  0  0  0  0  0  0  0  0
    9.3925   10.4303   17.7388 H   0  0  0  0  0  0  0  0  0  0  0  0
    8.1735   11.5344   16.3917 C   0  0  0  0  0  0  0  0  0  0  0  0
    8.9344   12.7402   16.2221 C   0  0  1  0  0  3  0  0  0  0  0  0
   10.2905   12.9053   16.8322 C   0  0  0  0  0  0  0  0  0  0  0  0
   10.7440   13.8374   16.5039 H   0  0  0  0  0  0  0  0  0  0  0  0
   10.9361   12.0745   16.5491 H   0  0  0  0  0  0  0  0  0  0  0  0
   10.2065   12.9120   17.9185 H   0  0  0  0  0  0  0  0  0  0  0  0
    8.0095    8.0988   18.0130 C   0  0  0  0  0  0  0  0  0  0  0  0
    6.9794    6.9720   17.9013 C   0  0  0  0  0  0  0  0  0  0  0  0
    6.0001    7.3030   18.2388 H   0  0  0  0  0  0  0  0  0  0  0  0
    7.2860    6.1389   18.5300 H   0  0  0  0  0  0  0  0  0  0  0  0
    6.9032    6.6092   16.8788 H   0  0  0  0  0  0  0  0  0  0  0  0
    9.3719    7.5520   17.5634 C   0  0  0  0  0  0  0  0  0  0  0  0
    9.6374    6.6802   18.1569 H   0  0  0  0  0  0  0  0  0  0  0  0
   10.1568    8.2939   17.6814 H   0  0  0  0  0  0  0  0  0  0  0  0
    9.3339    7.2574   16.5167 H   0  0  0  0  0  0  0  0  0  0  0  0
    8.0834    8.5399   19.4816 C   0  0  0  0  0  0  0  0  0  0  0  0
    7.1318    8.9633   19.7952 H   0  0  0  0  0  0  0  0  0  0  0  0
    8.8552    9.2891   19.6332 H   0  0  0  0  0  0  0  0  0  0  0  0
    8.3083    7.6862   20.1169 H   0  0  0  0  0  0  0  0  0  0  0  0
    4.2143   12.2034   13.1377 C   0  0  0  0  0  0  0  0  0  0  0  0
    4.5980   11.8855   11.8271 C   0  0  0  0  0  0  0  0  0  0  0  0
    3.7230   12.1671   10.7890 C   0  0  0  0  0  0  0  0  0  0  0  0
    4.0017   11.9016    9.7799 H   0  0  0  0  0  0  0  0  0  0  0  0
    2.5084   12.7819   11.0274 C   0  0  0  0  0  0  0  0  0  0  0  0
    1.8417   13.0012   10.2067 H   0  0  0  0  0  0  0  0  0  0  0  0
    2.1583   13.1242   12.3188 C   0  0  0  0  0  0  0  0  0  0  0  0
    1.2196   13.6235   12.5096 H   0  0  0  0  0  0  0  0  0  0  0  0
    2.9933   12.8364   13.3896 C   0  0  0  0  0  0  0  0  0  0  0  0
    5.9396   11.2736   11.5183 C   0  0  0  0  0  0  0  0  0  0  0  0
    5.7936   10.3229   10.9960 H   0  0  0  0  0  0  0  0  0  0  0  0
    6.4836   11.0704   12.4461 H   0  0  0  0  0  0  0  0  0  0  0  0
    6.7862   12.2074   10.6526 C   0  0  0  0  0  0  0  0  0  0  0  0
    7.7659   11.7694   10.4731 H   0  0  0  0  0  0  0  0  0  0  0  0
    6.9112   13.1623   11.1568 H   0  0  0  0  0  0  0  0  0  0  0  0
    6.3088   12.3873    9.6931 H   0  0  0  0  0  0  0  0  0  0  0  0
    2.5545   13.1934   14.7813 C   0  0  0  0  0  0  0  0  0  0  0  0
    3.4020   13.1697   15.4645 H   0  0  0  0  0  0  0  0  0  0  0  0
    2.1608   14.2120   14.7716 H   0  0  0  0  0  0  0  0  0  0  0  0
    1.4653   12.2479   15.2904 C   0  0  0  0  0  0  0  0  0  0  0  0
    0.6038   12.2565   14.6252 H   0  0  0  0  0  0  0  0  0  0  0  0
    1.1419   12.5557   16.2817 H   0  0  0  0  0  0  0  0  0  0  0  0
    1.8385   11.2285   15.3540 H   0  0  0  0  0  0  0  0  0  0  0  0
    9.0429   14.7652   14.9961 C   0  0  0  0  0  0  0  0  0  0  0  0
    9.7799   14.6474   13.8050 C   0  0  0  0  0  0  0  0  0  0  0  0
   10.4101   15.7720   13.3028 C   0  0  0  0  0  0  0  0  0  0  0  0
   10.9808   15.7096   12.3906 H   0  0  0  0  0  0  0  0  0  0  0  0
   10.3077   16.9910   13.9526 C   0  0  0  0  0  0  0  0  0  0  0  0
   10.7981   17.8610   13.5417 H   0  0  0  0  0  0  0  0  0  0  0  0
    9.5704   17.0951   15.1138 C   0  0  0  0  0  0  0  0  0  0  0  0
    9.4770   18.0491   15.6118 H   0  0  0  0  0  0  0  0  0  0  0  0
    8.9283   15.9888   15.6562 C   0  0  0  0  0  0  0  0  0  0  0  0
    9.8377   13.2998   13.1306 C   0  0  0  0  0  0  0  0  0  0  0  0
    8.8126   12.9037   13.0921 H   0  0  0  0  0  0  0  0  0  0  0  0
   10.4200   12.6149   13.7577 H   0  0  0  0  0  0  0  0  0  0  0  0
   10.4191   13.3019   11.7235 C   0  0  0  0  0  0  0  0  0  0  0  0
   10.3553   12.3016   11.2995 H   0  0  0  0  0  0  0  0  0  0  0  0
   11.4661   13.5970   11.7300 H   0  0  0  0  0  0  0  0  0  0  0  0
    9.8616   13.9813   11.0840 H   0  0  0  0  0  0  0  0  0  0  0  0
    8.1473   16.1363   16.9312 C   0  0  0  0  0  0  0  0  0  0  0  0
    7.5064   15.2692   17.0855 H   0  0  0  0  0  0  0  0  0  0  0  0
    7.5041   17.0150   16.8467 H   0  0  0  0  0  0  0  0  0  0  0  0
    9.0685   16.3120   18.1394 C   0  0  0  0  0  0  0  0  0  0  0  0
    9.7100   17.1818   18.0129 H   0  0  0  0  0  0  0  0  0  0  0  0
    9.7020   15.4382   18.2724 H   0  0  0  0  0  0  0  0  0  0  0  0
    8.4765   16.4460   19.0413 H   0  0  0  0  0  0  0  0  0  0  0  0
  1  6  1  0  0  0  0
  1  4  1  0  0  0  0
  1  2  1  0  0  0  0
  3  1  1  0  0  0  0
  4 18  1  0  0  0  0
  5 11  1  0  0  0  0
  5  1  1  0  0  0  0
  6 19  1  0  0  0  0
  7 11  1  0  0  0  0
  7  9  1  0  0  0  0
  8  7  1  0  0  0  0
 10  7  1  0  0  0  0
 11 12  2  0  0  0  0
 12  4  1  0  0  0  0
 12 13  1  0  0  0  0
 13 15  2  0  0  0  0
 14 13  1  0  0  0  0
 15 24  1  0  0  0  0
 16 15  1  0  0  0  0
 16 17  1  0  0  0  0
 18 16  2  0  0  0  0
 19 18  1  0  0  0  0
 19 20  1  6  0  0  0
 20 23  1  0  0  0  0
 21 20  1  0  0  0  0
 22 20  1  0  0  0  0
 24 33  1  0  0  0  0
 25 24  1  0  0  0  0
 25 26  1  0  0  0  0
 25 27  1  0  0  0  0
 28 25  1  0  0  0  0
 29 31  1  0  0  0  0
 29 24  1  0  0  0  0
 29 30  1  0  0  0  0
 32 29  1  0  0  0  0
 33 35  1  0  0  0  0
 33 34  1  0  0  0  0
 33 36  1  0  0  0  0
 37 45  1  0  0  0  0
 37  5  1  0  0  0  0
 38 37  2  0  0  0  0
 39 41  2  0  0  0  0
 39 38  1  0  0  0  0
 40 39  1  0  0  0  0
 41 43  1  0  0  0  0
 42 41  1  0  0  0  0
 43 44  1  0  0  0  0
 43 45  2  0  0  0  0
 45 53  1  0  0  0  0
 46 38  1  0  0  0  0
 46 48  1  0  0  0  0
 47 46  1  0  0  0  0
 49 51  1  0  0  0  0
 49 46  1  0  0  0  0
 50 49  1  0  0  0  0
 52 49  1  0  0  0  0
 53 56  1  0  0  0  0
 53 54  1  0  0  0  0
 55 53  1  0  0  0  0
 56 59  1  0  0  0  0
 56 58  1  0  0  0  0
 57 56  1  0  0  0  0
 60  6  1  0  0  0  0
 60 68  1  0  0  0  0
 61 60  2  0  0  0  0
 62 61  1  0  0  0  0
 62 64  2  0  0  0  0
 63 62  1  0  0  0  0
 64 66  1  0  0  0  0
 65 64  1  0  0  0  0
 66 67  1  0  0  0  0
 66 68  2  0  0  0  0
 68 76  1  0  0  0  0
 69 71  1  0  0  0  0
 69 61  1  0  0  0  0
 70 69  1  0  0  0  0
 72 74  1  0  0  0  0
 72 69  1  0  0  0  0
 73 72  1  0  0  0  0
 75 72  1  0  0  0  0
 76 77  1  0  0  0  0
 76 79  1  0  0  0  0
 78 76  1  0  0  0  0
 79 81  1  0  0  0  0
 79 82  1  0  0  0  0
 80 79  1  0  0  0  0
M  END
$$$$
