CSD_code = AGISEQ | q = 1 | S = 0 | Stoichiometry = C34H37ClN4PRu(1+) | MND = 6
 OpenBabel04212202003D

 78 85  0  0  1  0  0  0  0  0999 V2000
    4.0038   17.0756    9.0576 Ru  0  0  0  0  0  0  0  0  0  0  0  0
    6.3430   16.8473    9.3931 Cl  0  0  0  0  0  0  0  0  0  0  0  0
    4.3514   15.3795    7.4611 P   0  0  0  0  0  4  0  0  0  0  0  0
    3.5757   15.6681   10.4253 N   0  0  0  0  0  0  0  0  0  0  0  0
    4.4319   15.1191   11.2902 C   0  0  0  0  0  3  0  0  0  0  0  0
    5.4710   15.3992   11.1749 H   0  0  0  0  0  0  0  0  0  0  0  0
    4.3309   18.6587    7.8428 N   0  0  0  0  0  0  0  0  0  0  0  0
    4.0409   14.2259   12.2708 C   0  0  0  0  0  0  0  0  0  0  0  0
    4.7773   13.8143   12.9409 H   0  0  0  0  0  0  0  0  0  0  0  0
    3.9808   18.6775   10.4935 N   0  0  1  0  0  4  0  0  0  0  0  0
    2.7048   13.8706   12.3665 C   0  0  0  0  0  0  0  0  0  0  0  0
    2.3629   13.1769   13.1173 H   0  0  0  0  0  0  0  0  0  0  0  0
    1.8116   14.4305   11.4632 C   0  0  0  0  0  0  0  0  0  0  0  0
    0.7631   14.1774   11.4914 H   0  0  0  0  0  0  0  0  0  0  0  0
    1.8367   17.3013    9.1819 N   0  0  2  0  0  4  0  0  0  0  0  0
    2.2793   15.3166   10.5085 C   0  0  0  0  0  0  0  0  0  0  0  0
    4.7819   19.7593    8.4714 C   0  0  2  0  0  3  0  0  0  0  0  0
    5.0826   20.9322    7.7974 C   0  0  0  0  0  0  0  0  0  0  0  0
    5.4510   21.7825    8.3491 H   0  0  0  0  0  0  0  0  0  0  0  0
    4.9192   20.9920    6.4225 C   0  0  0  0  0  0  0  0  0  0  0  0
    5.1588   21.8896    5.8763 H   0  0  0  0  0  0  0  0  0  0  0  0
    4.4358   19.8643    5.7761 C   0  0  0  0  0  0  0  0  0  0  0  0
    4.2836   19.8536    4.7094 H   0  0  0  0  0  0  0  0  0  0  0  0
    4.1573   18.7345    6.5196 C   0  0  0  0  0  0  0  0  0  0  0  0
    3.7980   17.8380    6.0347 H   0  0  0  0  0  0  0  0  0  0  0  0
    5.2253   13.9740    8.2354 C   0  0  0  0  0  0  0  0  0  0  0  0
    6.5867   13.7833    8.0190 C   0  0  0  0  0  0  0  0  0  0  0  0
    7.1253   14.4417    7.3541 H   0  0  0  0  0  0  0  0  0  0  0  0
    7.2595   12.7608    8.6635 C   0  0  0  0  0  0  0  0  0  0  0  0
    8.3159   12.6254    8.4884 H   0  0  0  0  0  0  0  0  0  0  0  0
    6.5858   11.9168    9.5298 C   0  0  0  0  0  0  0  0  0  0  0  0
    7.1123   11.1176   10.0286 H   0  0  0  0  0  0  0  0  0  0  0  0
    5.2329   12.1046    9.7583 C   0  0  0  0  0  0  0  0  0  0  0  0
    4.7001   11.4533   10.4359 H   0  0  0  0  0  0  0  0  0  0  0  0
    4.5575   13.1315    9.1244 C   0  0  0  0  0  0  0  0  0  0  0  0
    3.5014   13.2710    9.3185 H   0  0  0  0  0  0  0  0  0  0  0  0
    5.4443   15.7112    6.0296 C   0  0  0  0  0  0  0  0  0  0  0  0
    5.3871   14.8869    4.9071 C   0  0  0  0  0  0  0  0  0  0  0  0
    4.6830   14.0684    4.8684 H   0  0  0  0  0  0  0  0  0  0  0  0
    6.2372   15.1064    3.8389 C   0  0  0  0  0  0  0  0  0  0  0  0
    6.1851   14.4608    2.9752 H   0  0  0  0  0  0  0  0  0  0  0  0
    7.1551   16.1434    3.8772 C   0  0  0  0  0  0  0  0  0  0  0  0
    7.8170   16.3107    3.0413 H   0  0  0  0  0  0  0  0  0  0  0  0
    7.2283   16.9555    4.9963 C   0  0  0  0  0  0  0  0  0  0  0  0
    7.9528   17.7548    5.0406 H   0  0  0  0  0  0  0  0  0  0  0  0
    6.3795   16.7417    6.0677 C   0  0  0  0  0  0  0  0  0  0  0  0
    6.4633   17.3615    6.9487 H   0  0  0  0  0  0  0  0  0  0  0  0
    2.9587   14.5714    6.5673 C   0  0  0  0  0  0  0  0  0  0  0  0
    2.6402   13.2198    6.6496 C   0  0  0  0  0  0  0  0  0  0  0  0
    3.2396   12.5526    7.2488 H   0  0  0  0  0  0  0  0  0  0  0  0
    1.5720   12.7044    5.9337 C   0  0  0  0  0  0  0  0  0  0  0  0
    1.3435   11.6520    6.0077 H   0  0  0  0  0  0  0  0  0  0  0  0
    0.8097   13.5230    5.1188 C   0  0  0  0  0  0  0  0  0  0  0  0
   -0.0217   13.1168    4.5642 H   0  0  0  0  0  0  0  0  0  0  0  0
    1.1384   14.8637    5.0002 C   0  0  0  0  0  0  0  0  0  0  0  0
    0.5716   15.5059    4.3426 H   0  0  0  0  0  0  0  0  0  0  0  0
    2.2030   15.3777    5.7156 C   0  0  0  0  0  0  0  0  0  0  0  0
    2.4784   16.4150    5.5800 H   0  0  0  0  0  0  0  0  0  0  0  0
    4.9631   19.6277    9.9548 C   0  0  0  0  0  0  0  0  0  0  0  0
    5.9615   19.2081   10.1358 H   0  0  0  0  0  0  0  0  0  0  0  0
    4.8914   20.6038   10.4536 H   0  0  0  0  0  0  0  0  0  0  0  0
    2.6330   19.2643   10.4480 C   0  0  0  0  0  0  0  0  0  0  0  0
    2.5532   19.9040    9.5628 H   0  0  0  0  0  0  0  0  0  0  0  0
    2.4457   19.8875   11.3325 H   0  0  0  0  0  0  0  0  0  0  0  0
    1.5923   18.1528   10.3643 C   0  0  0  0  0  0  0  0  0  0  0  0
    0.5836   18.5831   10.3261 H   0  0  0  0  0  0  0  0  0  0  0  0
    1.6562   17.5349   11.2652 H   0  0  0  0  0  0  0  0  0  0  0  0
    1.3803   15.9352    9.4712 C   0  0  0  0  0  0  0  0  0  0  0  0
    1.4532   15.3481    8.5460 H   0  0  0  0  0  0  0  0  0  0  0  0
    0.3324   15.9260    9.8032 H   0  0  0  0  0  0  0  0  0  0  0  0
    4.3593   18.3437   11.8646 C   0  0  0  0  0  0  0  0  0  0  0  0
    4.4478   19.2488   12.4765 H   0  0  0  0  0  0  0  0  0  0  0  0
    5.3216   17.8324   11.8521 H   0  0  0  0  0  0  0  0  0  0  0  0
    3.6202   17.6887   12.3245 H   0  0  0  0  0  0  0  0  0  0  0  0
    1.1134   17.8340    8.0315 C   0  0  0  0  0  0  0  0  0  0  0  0
    1.2853   17.1969    7.1671 H   0  0  0  0  0  0  0  0  0  0  0  0
    1.4602   18.8405    7.8007 H   0  0  0  0  0  0  0  0  0  0  0  0
    0.0347   17.8716    8.2262 H   0  0  0  0  0  0  0  0  0  0  0  0
  1 15  1  0  0  0  0
  1  2  1  0  0  0  0
  1  4  1  0  0  0  0
  1 10  1  0  0  0  0
  3 26  1  0  0  0  0
  3  1  1  0  0  0  0
  4 16  1  0  0  0  0
  4  5  1  0  0  0  0
  5  8  1  0  0  0  0
  6  5  1  0  0  0  0
  7 17  1  0  0  0  0
  7  1  1  0  0  0  0
  8 11  2  0  0  0  0
  8  9  1  0  0  0  0
 10 71  1  1  0  0  0
 11 12  1  0  0  0  0
 13 14  1  0  0  0  0
 13 11  1  0  0  0  0
 15 75  1  6  0  0  0
 15 68  1  0  0  0  0
 15 65  1  0  0  0  0
 16 13  2  0  0  0  0
 17 18  1  6  0  0  0
 17 59  1  0  0  0  0
 18 19  1  0  0  0  0
 20 18  2  0  0  0  0
 21 20  1  0  0  0  0
 22 20  1  0  0  0  0
 22 24  2  0  0  0  0
 23 22  1  0  0  0  0
 24  7  1  0  0  0  0
 25 24  1  0  0  0  0
 26 35  1  0  0  0  0
 27 26  2  0  0  0  0
 27 29  1  0  0  0  0
 28 27  1  0  0  0  0
 29 31  2  0  0  0  0
 30 29  1  0  0  0  0
 31 33  1  0  0  0  0
 31 32  1  0  0  0  0
 33 34  1  0  0  0  0
 35 36  1  0  0  0  0
 35 33  2  0  0  0  0
 37 46  1  0  0  0  0
 37  3  1  0  0  0  0
 38 37  2  0  0  0  0
 39 38  1  0  0  0  0
 40 42  2  0  0  0  0
 40 38  1  0  0  0  0
 41 40  1  0  0  0  0
 42 44  1  0  0  0  0
 43 42  1  0  0  0  0
 44 45  1  0  0  0  0
 44 46  2  0  0  0  0
 46 47  1  0  0  0  0
 48 49  1  0  0  0  0
 48  3  1  0  0  0  0
 49 50  1  0  0  0  0
 51 52  1  0  0  0  0
 51 49  2  0  0  0  0
 53 51  1  0  0  0  0
 54 53  1  0  0  0  0
 55 53  2  0  0  0  0
 55 57  1  0  0  0  0
 56 55  1  0  0  0  0
 57 48  2  0  0  0  0
 58 57  1  0  0  0  0
 59 60  1  0  0  0  0
 59 61  1  0  0  0  0
 59 10  1  0  0  0  0
 62 10  1  0  0  0  0
 62 64  1  0  0  0  0
 63 62  1  0  0  0  0
 65 62  1  0  0  0  0
 65 67  1  0  0  0  0
 66 65  1  0  0  0  0
 68 70  1  0  0  0  0
 68 16  1  0  0  0  0
 69 68  1  0  0  0  0
 71 74  1  0  0  0  0
 71 72  1  0  0  0  0
 73 71  1  0  0  0  0
 75 78  1  0  0  0  0
 76 75  1  0  0  0  0
 77 75  1  0  0  0  0
M  END
$$$$
