CSD_code = AGOBOO | q = 0 | S = 0 | Stoichiometry = C24H29AuClN3 | MND = 2
 OpenBabel04212202003D

 58 60  0  0  1  0  0  0  0  0999 V2000
    4.8143    2.1018    4.0745 Au  0  0  0  0  0  0  0  0  0  0  0  0
    6.1999    0.4020    3.5822 Cl  0  0  0  0  0  0  0  0  0  0  0  0
    2.8902    4.4556    3.8262 N   0  0  0  0  0  0  0  0  0  0  0  0
    2.8747    3.5705    5.7770 N   0  0  0  0  0  0  0  0  0  0  0  0
    1.5332    1.2200    5.8882 N   0  0  0  0  0  0  0  0  0  0  0  0
    3.4847    3.5154    4.5781 C   0  0  1  0  0  3  0  0  0  0  0  0
    1.9103    5.0886    4.5428 C   0  0  0  0  0  0  0  0  0  0  0  0
    1.3126    5.8731    4.1276 H   0  0  0  0  0  0  0  0  0  0  0  0
    1.8966    4.5218    5.7732 C   0  0  0  0  0  0  0  0  0  0  0  0
    1.2778    4.7166    6.6240 H   0  0  0  0  0  0  0  0  0  0  0  0
    3.1555    2.6422    6.8390 C   0  0  0  0  0  0  0  0  0  0  0  0
    2.6267    2.9678    7.7389 H   0  0  0  0  0  0  0  0  0  0  0  0
    4.2312    2.6284    7.0274 H   0  0  0  0  0  0  0  0  0  0  0  0
    2.6797    1.2527    6.4226 C   0  0  0  0  0  0  0  0  0  0  0  0
    3.2194    4.7553    2.4625 C   0  0  0  0  0  0  0  0  0  0  0  0
    4.0109    4.0801    2.1407 H   0  0  0  0  0  0  0  0  0  0  0  0
    3.5637    5.7869    2.3705 H   0  0  0  0  0  0  0  0  0  0  0  0
    2.3455    4.6167    1.8242 H   0  0  0  0  0  0  0  0  0  0  0  0
    3.6100    0.1301    6.6196 C   0  0  0  0  0  0  0  0  0  0  0  0
    3.6881   -0.8887    5.6712 C   0  0  0  0  0  0  0  0  0  0  0  0
    3.0623   -0.8517    4.7935 H   0  0  0  0  0  0  0  0  0  0  0  0
    4.5901   -1.9224    5.8296 C   0  0  0  0  0  0  0  0  0  0  0  0
    4.6617   -2.6878    5.0727 H   0  0  0  0  0  0  0  0  0  0  0  0
    5.4080   -1.9667    6.9457 C   0  0  0  0  0  0  0  0  0  0  0  0
    6.1168   -2.7721    7.0659 H   0  0  0  0  0  0  0  0  0  0  0  0
    5.3208   -0.9717    7.9058 C   0  0  0  0  0  0  0  0  0  0  0  0
    5.9537   -1.0061    8.7804 H   0  0  0  0  0  0  0  0  0  0  0  0
    4.4356    0.0760    7.7423 C   0  0  0  0  0  0  0  0  0  0  0  0
    4.3698    0.8428    8.5018 H   0  0  0  0  0  0  0  0  0  0  0  0
    0.8318    0.1140    5.4422 C   0  0  0  0  0  0  0  0  0  0  0  0
    0.4887    0.0801    4.0808 C   0  0  0  0  0  0  0  0  0  0  0  0
   -0.2839   -0.9657    3.6068 C   0  0  0  0  0  0  0  0  0  0  0  0
   -0.5334   -1.0129    2.5575 H   0  0  0  0  0  0  0  0  0  0  0  0
   -0.7430   -1.9510    4.4613 C   0  0  0  0  0  0  0  0  0  0  0  0
   -1.3448   -2.7627    4.0805 H   0  0  0  0  0  0  0  0  0  0  0  0
   -0.4367   -1.8864    5.8066 C   0  0  0  0  0  0  0  0  0  0  0  0
   -0.8142   -2.6497    6.4702 H   0  0  0  0  0  0  0  0  0  0  0  0
    0.3517   -0.8684    6.3223 C   0  0  0  0  0  0  0  0  0  0  0  0
    0.9847    1.1611    3.1469 C   0  0  0  0  0  0  0  0  0  0  0  0
    1.5365    1.8925    3.7469 H   0  0  0  0  0  0  0  0  0  0  0  0
    1.9364    0.5932    2.0927 C   0  0  0  0  0  0  0  0  0  0  0  0
    2.8167    0.1572    2.5602 H   0  0  0  0  0  0  0  0  0  0  0  0
    2.2703    1.3827    1.4221 H   0  0  0  0  0  0  0  0  0  0  0  0
    1.4448   -0.1748    1.5006 H   0  0  0  0  0  0  0  0  0  0  0  0
   -0.1919    1.8814    2.4847 C   0  0  0  0  0  0  0  0  0  0  0  0
   -0.8579    2.2908    3.2413 H   0  0  0  0  0  0  0  0  0  0  0  0
   -0.7616    1.2006    1.8577 H   0  0  0  0  0  0  0  0  0  0  0  0
    0.1683    2.6968    1.8598 H   0  0  0  0  0  0  0  0  0  0  0  0
    0.6248   -0.8153    7.8081 C   0  0  0  0  0  0  0  0  0  0  0  0
    1.2737    0.0394    8.0230 H   0  0  0  0  0  0  0  0  0  0  0  0
    1.3433   -2.0789    8.2856 C   0  0  0  0  0  0  0  0  0  0  0  0
    2.2610   -2.2313    7.7219 H   0  0  0  0  0  0  0  0  0  0  0  0
    0.7129   -2.9552    8.1601 H   0  0  0  0  0  0  0  0  0  0  0  0
    1.5970   -1.9885    9.3398 H   0  0  0  0  0  0  0  0  0  0  0  0
   -0.6820   -0.6091    8.5796 C   0  0  0  0  0  0  0  0  0  0  0  0
   -1.1847    0.2928    8.2361 H   0  0  0  0  0  0  0  0  0  0  0  0
   -0.4786   -0.5103    9.6440 H   0  0  0  0  0  0  0  0  0  0  0  0
   -1.3544   -1.4510    8.4357 H   0  0  0  0  0  0  0  0  0  0  0  0
  2  1  1  0  0  0  0
  3  7  1  0  0  0  0
  3  6  1  0  0  0  0
  4 11  1  0  0  0  0
  5 14  2  0  0  0  0
  6  1  1  6  0  0  0
  6  4  1  0  0  0  0
  7  9  2  0  0  0  0
  8  7  1  0  0  0  0
  9  4  1  0  0  0  0
  9 10  1  0  0  0  0
 11 13  1  0  0  0  0
 11 12  1  0  0  0  0
 14 19  1  0  0  0  0
 14 11  1  0  0  0  0
 15  3  1  0  0  0  0
 16 15  1  0  0  0  0
 17 15  1  0  0  0  0
 18 15  1  0  0  0  0
 19 28  1  0  0  0  0
 20 22  1  0  0  0  0
 20 19  2  0  0  0  0
 21 20  1  0  0  0  0
 22 24  2  0  0  0  0
 23 22  1  0  0  0  0
 24 25  1  0  0  0  0
 24 26  1  0  0  0  0
 26 27  1  0  0  0  0
 28 26  2  0  0  0  0
 28 29  1  0  0  0  0
 30  5  1  0  0  0  0
 30 38  1  0  0  0  0
 31 30  2  0  0  0  0
 32 31  1  0  0  0  0
 32 34  2  0  0  0  0
 33 32  1  0  0  0  0
 34 36  1  0  0  0  0
 35 34  1  0  0  0  0
 36 38  2  0  0  0  0
 36 37  1  0  0  0  0
 38 49  1  0  0  0  0
 39 40  1  0  0  0  0
 39 31  1  0  0  0  0
 41 42  1  0  0  0  0
 41 39  1  0  0  0  0
 43 41  1  0  0  0  0
 44 41  1  0  0  0  0
 45 39  1  0  0  0  0
 45 46  1  0  0  0  0
 47 45  1  0  0  0  0
 48 45  1  0  0  0  0
 49 50  1  0  0  0  0
 49 51  1  0  0  0  0
 49 55  1  0  0  0  0
 51 54  1  0  0  0  0
 52 51  1  0  0  0  0
 53 51  1  0  0  0  0
 55 57  1  0  0  0  0
 56 55  1  0  0  0  0
 58 55  1  0  0  0  0
M  END
$$$$
