CSD_code = AGOBEE | q = 0 | S = 0 | Stoichiometry = C26H33AuClN3 | MND = 2
 OpenBabel04212202003D

 64 66  0  0  1  0  0  0  0  0999 V2000
    0.4217    4.0721    3.6789 Au  0  0  0  0  0  0  0  0  0  0  0  0
    1.4403    4.9721    1.8860 Cl  0  0  0  0  0  0  0  0  0  0  0  0
   -0.5859    3.7657    6.5167 N   0  0  0  0  0  0  0  0  0  0  0  0
   -1.5357    2.3806    5.1847 N   0  0  0  0  0  0  0  0  0  0  0  0
   -3.4463    3.5162    3.7862 N   0  0  0  0  0  0  0  0  0  0  0  0
   -0.5876    3.3322    5.2452 C   0  0  1  0  0  3  0  0  0  0  0  0
   -2.1386    2.2309    6.4016 C   0  0  0  0  0  0  0  0  0  0  0  0
   -2.9337    1.5345    6.5697 H   0  0  0  0  0  0  0  0  0  0  0  0
   -1.5320    3.0977    7.2455 C   0  0  0  0  0  0  0  0  0  0  0  0
   -1.7022    3.2812    8.2854 H   0  0  0  0  0  0  0  0  0  0  0  0
    0.3232    4.7606    7.0489 C   0  0  0  0  0  0  0  0  0  0  0  0
    0.8891    5.1349    6.1878 H   0  0  0  0  0  0  0  0  0  0  0  0
    1.2856    4.1074    8.0391 C   0  0  0  0  0  0  0  0  0  0  0  0
    0.7504    3.7241    8.9050 H   0  0  0  0  0  0  0  0  0  0  0  0
    2.0142    4.8372    8.3792 H   0  0  0  0  0  0  0  0  0  0  0  0
    1.8161    3.2858    7.5636 H   0  0  0  0  0  0  0  0  0  0  0  0
   -0.4485    5.9126    7.6856 C   0  0  0  0  0  0  0  0  0  0  0  0
   -1.1596    6.3290    6.9767 H   0  0  0  0  0  0  0  0  0  0  0  0
    0.2443    6.6963    7.9784 H   0  0  0  0  0  0  0  0  0  0  0  0
   -0.9868    5.5827    8.5710 H   0  0  0  0  0  0  0  0  0  0  0  0
   -1.9307    1.6995    3.9865 C   0  0  0  0  0  0  0  0  0  0  0  0
   -2.2920    0.6996    4.2441 H   0  0  0  0  0  0  0  0  0  0  0  0
   -1.0601    1.6010    3.3298 H   0  0  0  0  0  0  0  0  0  0  0  0
   -3.0079    2.4661    3.2411 C   0  0  0  0  0  0  0  0  0  0  0  0
   -3.4046    1.9279    1.9246 C   0  0  0  0  0  0  0  0  0  0  0  0
   -3.6411    0.5677    1.7379 C   0  0  0  0  0  0  0  0  0  0  0  0
   -3.5409   -0.1222    2.5632 H   0  0  0  0  0  0  0  0  0  0  0  0
   -4.0438    0.0924    0.5038 C   0  0  0  0  0  0  0  0  0  0  0  0
   -4.2361   -0.9623    0.3734 H   0  0  0  0  0  0  0  0  0  0  0  0
   -4.2012    0.9636   -0.5612 C   0  0  0  0  0  0  0  0  0  0  0  0
   -4.5129    0.5889   -1.5246 H   0  0  0  0  0  0  0  0  0  0  0  0
   -3.9569    2.3156   -0.3866 C   0  0  0  0  0  0  0  0  0  0  0  0
   -4.0712    2.9987   -1.2145 H   0  0  0  0  0  0  0  0  0  0  0  0
   -3.5673    2.7980    0.8486 C   0  0  0  0  0  0  0  0  0  0  0  0
   -3.3667    3.8495    0.9789 H   0  0  0  0  0  0  0  0  0  0  0  0
   -4.4476    4.3493    3.3080 C   0  0  0  0  0  0  0  0  0  0  0  0
   -4.0835    5.6462    2.9110 C   0  0  0  0  0  0  0  0  0  0  0  0
   -2.6253    6.0410    2.8998 C   0  0  0  0  0  0  0  0  0  0  0  0
   -2.0196    5.1264    2.8914 H   0  0  0  0  0  0  0  0  0  0  0  0
   -2.2962    6.7944    4.1904 C   0  0  0  0  0  0  0  0  0  0  0  0
   -2.8650    7.7203    4.2480 H   0  0  0  0  0  0  0  0  0  0  0  0
   -1.2346    7.0302    4.2214 H   0  0  0  0  0  0  0  0  0  0  0  0
   -2.5495    6.1778    5.0514 H   0  0  0  0  0  0  0  0  0  0  0  0
   -2.2291    6.8646    1.6754 C   0  0  0  0  0  0  0  0  0  0  0  0
   -2.6210    6.4159    0.7647 H   0  0  0  0  0  0  0  0  0  0  0  0
   -1.1449    6.8954    1.5987 H   0  0  0  0  0  0  0  0  0  0  0  0
   -2.5971    7.8854    1.7451 H   0  0  0  0  0  0  0  0  0  0  0  0
   -5.0758    6.5368    2.5430 C   0  0  0  0  0  0  0  0  0  0  0  0
   -4.8066    7.5340    2.2313 H   0  0  0  0  0  0  0  0  0  0  0  0
   -6.4082    6.1643    2.5683 C   0  0  0  0  0  0  0  0  0  0  0  0
   -7.1733    6.8691    2.2782 H   0  0  0  0  0  0  0  0  0  0  0  0
   -6.7560    4.8893    2.9667 C   0  0  0  0  0  0  0  0  0  0  0  0
   -7.7978    4.6063    2.9850 H   0  0  0  0  0  0  0  0  0  0  0  0
   -5.7930    3.9615    3.3392 C   0  0  0  0  0  0  0  0  0  0  0  0
   -6.2138    2.5815    3.7911 C   0  0  0  0  0  0  0  0  0  0  0  0
   -5.3191    1.9984    4.0322 H   0  0  0  0  0  0  0  0  0  0  0  0
   -6.9649    1.8475    2.6782 C   0  0  0  0  0  0  0  0  0  0  0  0
   -7.9004    2.3495    2.4463 H   0  0  0  0  0  0  0  0  0  0  0  0
   -7.1909    0.8284    2.9859 H   0  0  0  0  0  0  0  0  0  0  0  0
   -6.3623    1.8098    1.7730 H   0  0  0  0  0  0  0  0  0  0  0  0
   -7.0654    2.6664    5.0604 C   0  0  0  0  0  0  0  0  0  0  0  0
   -7.9874    3.2103    4.8725 H   0  0  0  0  0  0  0  0  0  0  0  0
   -6.5183    3.1818    5.8473 H   0  0  0  0  0  0  0  0  0  0  0  0
   -7.3217    1.6681    5.4101 H   0  0  0  0  0  0  0  0  0  0  0  0
  2  1  1  0  0  0  0
  3 11  1  0  0  0  0
  3  9  1  0  0  0  0
  4  6  1  0  0  0  0
  4  7  1  0  0  0  0
  6  1  1  6  0  0  0
  6  3  1  0  0  0  0
  7  8  1  0  0  0  0
  7  9  2  0  0  0  0
  9 10  1  0  0  0  0
 11 17  1  0  0  0  0
 11 13  1  0  0  0  0
 12 11  1  0  0  0  0
 13 15  1  0  0  0  0
 13 14  1  0  0  0  0
 16 13  1  0  0  0  0
 17 19  1  0  0  0  0
 17 20  1  0  0  0  0
 18 17  1  0  0  0  0
 21 22  1  0  0  0  0
 21  4  1  0  0  0  0
 23 21  1  0  0  0  0
 24  5  2  0  0  0  0
 24 21  1  0  0  0  0
 25 24  1  0  0  0  0
 26 25  1  0  0  0  0
 26 27  1  0  0  0  0
 28 26  2  0  0  0  0
 29 28  1  0  0  0  0
 30 32  2  0  0  0  0
 30 28  1  0  0  0  0
 31 30  1  0  0  0  0
 32 34  1  0  0  0  0
 33 32  1  0  0  0  0
 34 35  1  0  0  0  0
 34 25  2  0  0  0  0
 36 54  1  0  0  0  0
 36  5  1  0  0  0  0
 37 36  2  0  0  0  0
 38 37  1  0  0  0  0
 38 40  1  0  0  0  0
 39 38  1  0  0  0  0
 40 42  1  0  0  0  0
 40 41  1  0  0  0  0
 40 43  1  0  0  0  0
 44 47  1  0  0  0  0
 44 38  1  0  0  0  0
 45 44  1  0  0  0  0
 46 44  1  0  0  0  0
 48 50  2  0  0  0  0
 48 37  1  0  0  0  0
 49 48  1  0  0  0  0
 50 52  1  0  0  0  0
 51 50  1  0  0  0  0
 52 53  1  0  0  0  0
 52 54  2  0  0  0  0
 54 55  1  0  0  0  0
 55 56  1  0  0  0  0
 55 61  1  0  0  0  0
 57 59  1  0  0  0  0
 57 55  1  0  0  0  0
 58 57  1  0  0  0  0
 60 57  1  0  0  0  0
 61 64  1  0  0  0  0
 61 63  1  0  0  0  0
 62 61  1  0  0  0  0
M  END
$$$$
