CSD_code = AGOCAB | q = 0 | S = 0 | Stoichiometry = C30H31AuBr5N3 | MND = 4
 OpenBabel04212202003D

 70 73  0  0  1  0  0  0  0  0999 V2000
   12.1005    4.7199    1.1668 Au  0  0  0  0  0  0  0  0  0  0  0  0
   12.6673    6.3017    2.9700 Br  0  0  0  0  0  0  0  0  0  0  0  0
   12.7873    6.2736   -0.5483 Br  0  0  0  0  0  0  0  0  0  0  0  0
   11.4729    3.0233   -0.4979 Br  0  0  0  0  0  0  0  0  0  0  0  0
   14.5765    2.8608    5.1935 Br  0  0  0  0  0  0  0  0  0  0  0  0
   15.5215   -5.0441    1.0759 Br  0  0  0  0  0  0  0  0  0  0  0  0
   10.3822    2.8875    2.8633 N   0  0  0  0  0  0  0  0  0  0  0  0
   12.4610    2.6791    3.3758 N   0  0  0  0  0  0  0  0  0  0  0  0
   14.1389    0.5053    3.0163 N   0  0  0  0  0  0  0  0  0  0  0  0
   11.5998    3.3630    2.6017 C   0  0  0  0  0  0  0  0  0  0  0  0
   10.4677    1.8985    3.8041 C   0  0  0  0  0  0  0  0  0  0  0  0
    9.6008    1.3888    4.1687 H   0  0  0  0  0  0  0  0  0  0  0  0
   11.7762    1.7572    4.1206 C   0  0  0  0  0  0  0  0  0  0  0  0
   12.2730    1.0946    4.7973 H   0  0  0  0  0  0  0  0  0  0  0  0
    9.1327    3.3742    2.3253 C   0  0  0  0  0  0  0  0  0  0  0  0
    8.5931    2.5353    1.8771 H   0  0  0  0  0  0  0  0  0  0  0  0
    9.3532    4.0986    1.5353 H   0  0  0  0  0  0  0  0  0  0  0  0
    8.3104    4.0227    3.4138 C   0  0  0  0  0  0  0  0  0  0  0  0
    8.8509    5.0613    4.1624 C   0  0  0  0  0  0  0  0  0  0  0  0
    9.8537    5.4114    3.9638 H   0  0  0  0  0  0  0  0  0  0  0  0
    8.1081    5.6564    5.1655 C   0  0  0  0  0  0  0  0  0  0  0  0
    8.5374    6.4627    5.7398 H   0  0  0  0  0  0  0  0  0  0  0  0
    6.8196    5.2202    5.4257 C   0  0  0  0  0  0  0  0  0  0  0  0
    6.2390    5.6868    6.2067 H   0  0  0  0  0  0  0  0  0  0  0  0
    6.2769    4.1868    4.6817 C   0  0  0  0  0  0  0  0  0  0  0  0
    5.2725    3.8447    4.8799 H   0  0  0  0  0  0  0  0  0  0  0  0
    7.0213    3.5855    3.6813 C   0  0  0  0  0  0  0  0  0  0  0  0
    6.5952    2.7799    3.1006 H   0  0  0  0  0  0  0  0  0  0  0  0
   13.8856    2.8119    3.3475 C   0  0  2  0  0  0  0  0  0  0  0  0
   14.1659    3.7757    2.9218 H   0  0  0  0  0  0  0  0  0  0  0  0
   14.5274    1.6431    2.6210 C   0  0  0  0  0  0  0  0  0  0  0  0
   15.5293    1.9500    1.5901 C   0  0  0  0  0  0  0  0  0  0  0  0
   15.3738    3.0318    0.7243 C   0  0  0  0  0  0  0  0  0  0  0  0
   14.4995    3.6677    0.7951 H   0  0  0  0  0  0  0  0  0  0  0  0
   16.3014    3.2846   -0.2664 C   0  0  0  0  0  0  0  0  0  0  0  0
   16.1524    4.1179   -0.9355 H   0  0  0  0  0  0  0  0  0  0  0  0
   17.4131    2.4681   -0.3954 C   0  0  0  0  0  0  0  0  0  0  0  0
   18.1412    2.6673   -1.1664 H   0  0  0  0  0  0  0  0  0  0  0  0
   17.5842    1.3940    0.4632 C   0  0  0  0  0  0  0  0  0  0  0  0
   18.4487    0.7548    0.3667 H   0  0  0  0  0  0  0  0  0  0  0  0
   16.6468    1.1282    1.4426 C   0  0  0  0  0  0  0  0  0  0  0  0
   16.7835    0.2902    2.1087 H   0  0  0  0  0  0  0  0  0  0  0  0
   14.4776   -0.7348    2.5116 C   0  0  0  0  0  0  0  0  0  0  0  0
   15.0729   -1.6388    3.4070 C   0  0  0  0  0  0  0  0  0  0  0  0
   15.3998   -1.2042    4.8168 C   0  0  0  0  0  0  0  0  0  0  0  0
   14.9353   -0.2262    4.9809 H   0  0  0  0  0  0  0  0  0  0  0  0
   14.8259   -2.1815    5.8434 C   0  0  0  0  0  0  0  0  0  0  0  0
   13.7656   -2.3450    5.6626 H   0  0  0  0  0  0  0  0  0  0  0  0
   14.9485   -1.7767    6.8452 H   0  0  0  0  0  0  0  0  0  0  0  0
   15.3344   -3.1409    5.8016 H   0  0  0  0  0  0  0  0  0  0  0  0
   16.9104   -1.0497    5.0062 C   0  0  0  0  0  0  0  0  0  0  0  0
   17.4206   -1.9916    4.8186 H   0  0  0  0  0  0  0  0  0  0  0  0
   17.1256   -0.7353    6.0244 H   0  0  0  0  0  0  0  0  0  0  0  0
   17.3120   -0.2987    4.3289 H   0  0  0  0  0  0  0  0  0  0  0  0
   15.3887   -2.9117    2.9667 C   0  0  0  0  0  0  0  0  0  0  0  0
   15.8746   -3.6122    3.6267 H   0  0  0  0  0  0  0  0  0  0  0  0
   15.0742   -3.2867    1.6742 C   0  0  0  0  0  0  0  0  0  0  0  0
   14.4298   -2.4220    0.8122 C   0  0  0  0  0  0  0  0  0  0  0  0
   14.1681   -2.7527   -0.1801 H   0  0  0  0  0  0  0  0  0  0  0  0
   14.1244   -1.1298    1.2112 C   0  0  0  0  0  0  0  0  0  0  0  0
   13.3540   -0.2296    0.2767 C   0  0  0  0  0  0  0  0  0  0  0  0
   13.2394    0.7558    0.7378 H   0  0  0  0  0  0  0  0  0  0  0  0
   11.9478   -0.7910    0.0504 C   0  0  0  0  0  0  0  0  0  0  0  0
   11.9897   -1.7461   -0.4658 H   0  0  0  0  0  0  0  0  0  0  0  0
   11.3722   -0.0932   -0.5523 H   0  0  0  0  0  0  0  0  0  0  0  0
   11.4389   -0.9348    1.0021 H   0  0  0  0  0  0  0  0  0  0  0  0
   14.0786   -0.0352   -1.0552 C   0  0  0  0  0  0  0  0  0  0  0  0
   14.1244   -0.9650   -1.6151 H   0  0  0  0  0  0  0  0  0  0  0  0
   15.0937    0.3223   -0.8937 H   0  0  0  0  0  0  0  0  0  0  0  0
   13.5422    0.6979   -1.6520 H   0  0  0  0  0  0  0  0  0  0  0  0
  1 10  2  0  0  0  0
  1  2  1  0  0  0  0
  3  1  1  0  0  0  0
  4  1  1  0  0  0  0
  6 57  1  0  0  0  0
  7 11  1  0  0  0  0
  8 13  1  0  0  0  0
 10  7  1  0  0  0  0
 10  8  1  0  0  0  0
 11 13  2  0  0  0  0
 11 12  1  0  0  0  0
 13 14  1  0  0  0  0
 15  7  1  0  0  0  0
 15 18  1  0  0  0  0
 16 15  1  0  0  0  0
 17 15  1  0  0  0  0
 18 27  2  0  0  0  0
 18 19  1  0  0  0  0
 19 21  2  0  0  0  0
 20 19  1  0  0  0  0
 21 23  1  0  0  0  0
 21 22  1  0  0  0  0
 23 24  1  0  0  0  0
 25 26  1  0  0  0  0
 25 23  2  0  0  0  0
 27 25  1  0  0  0  0
 28 27  1  0  0  0  0
 29 30  1  6  0  0  0
 29  8  1  0  0  0  0
 29  5  1  0  0  0  0
 31  9  2  0  0  0  0
 31 29  1  0  0  0  0
 32 31  1  0  0  0  0
 33 34  1  0  0  0  0
 33 32  2  0  0  0  0
 35 33  1  0  0  0  0
 36 35  1  0  0  0  0
 37 35  2  0  0  0  0
 37 39  1  0  0  0  0
 38 37  1  0  0  0  0
 39 41  2  0  0  0  0
 40 39  1  0  0  0  0
 41 32  1  0  0  0  0
 41 42  1  0  0  0  0
 43  9  1  0  0  0  0
 43 44  1  0  0  0  0
 44 45  1  0  0  0  0
 45 46  1  0  0  0  0
 45 51  1  0  0  0  0
 45 47  1  0  0  0  0
 47 49  1  0  0  0  0
 48 47  1  0  0  0  0
 50 47  1  0  0  0  0
 51 53  1  0  0  0  0
 52 51  1  0  0  0  0
 54 51  1  0  0  0  0
 55 44  2  0  0  0  0
 55 56  1  0  0  0  0
 57 55  1  0  0  0  0
 58 60  1  0  0  0  0
 58 57  2  0  0  0  0
 59 58  1  0  0  0  0
 60 43  2  0  0  0  0
 61 62  1  0  0  0  0
 61 60  1  0  0  0  0
 63 61  1  0  0  0  0
 63 66  1  0  0  0  0
 64 63  1  0  0  0  0
 65 63  1  0  0  0  0
 67 69  1  0  0  0  0
 67 61  1  0  0  0  0
 68 67  1  0  0  0  0
 70 67  1  0  0  0  0
M  END
$$$$
