CSD_code = AGOCUV | q = 0 | S = 0 | Stoichiometry = C27H33AuBr5N3 | MND = 4
 OpenBabel04212202003D

 69 71  0  0  1  0  0  0  0  0999 V2000
    0.2199    1.7911   22.4983 Au  0  0  0  0  0  0  0  0  0  0  0  0
   -0.5888    1.1738   24.7406 Br  0  0  0  0  0  0  0  0  0  0  0  0
    1.0931   -0.4190   22.0681 Br  0  0  0  0  0  0  0  0  0  0  0  0
    0.8688    2.5941   20.2705 Br  0  0  0  0  0  0  0  0  0  0  0  0
   -4.4007    2.7126   22.6825 Br  0  0  0  0  0  0  0  0  0  0  0  0
   -4.4031    8.3904   15.5533 Br  0  0  0  0  0  0  0  0  0  0  0  0
   -0.1460    4.7321   23.4440 N   0  0  0  0  0  0  0  0  0  0  0  0
   -1.8624    3.8778   22.4511 N   0  0  0  0  0  0  0  0  0  0  0  0
   -3.1025    4.7893   20.2280 N   0  0  0  0  0  0  0  0  0  0  0  0
   -0.5965    3.6302   22.8367 C   0  0  0  0  0  0  0  0  0  0  0  0
   -1.1471    5.6708   23.4545 C   0  0  0  0  0  0  0  0  0  0  0  0
   -1.0358    6.6344   23.9010 H   0  0  0  0  0  0  0  0  0  0  0  0
   -2.2205    5.1426   22.8272 C   0  0  0  0  0  0  0  0  0  0  0  0
   -3.1892    5.5477   22.6280 H   0  0  0  0  0  0  0  0  0  0  0  0
    1.1479    4.9582   24.1125 C   0  0  0  0  0  0  0  0  0  0  0  0
    1.5830    6.4050   23.8548 C   0  0  0  0  0  0  0  0  0  0  0  0
    1.5237    6.6399   22.7942 H   0  0  0  0  0  0  0  0  0  0  0  0
    2.6142    6.5293   24.1724 H   0  0  0  0  0  0  0  0  0  0  0  0
    0.9829    7.1178   24.4131 H   0  0  0  0  0  0  0  0  0  0  0  0
    0.9370    4.7110   25.6085 C   0  0  0  0  0  0  0  0  0  0  0  0
    0.1752    5.3771   26.0072 H   0  0  0  0  0  0  0  0  0  0  0  0
    1.8656    4.8871   26.1433 H   0  0  0  0  0  0  0  0  0  0  0  0
    0.6234    3.6856   25.7913 H   0  0  0  0  0  0  0  0  0  0  0  0
    2.2281    4.0291   23.5656 C   0  0  0  0  0  0  0  0  0  0  0  0
    2.0414    2.9897   23.8309 H   0  0  0  0  0  0  0  0  0  0  0  0
    3.1854    4.2981   24.0042 H   0  0  0  0  0  0  0  0  0  0  0  0
    2.3156    4.1227   22.4852 H   0  0  0  0  0  0  0  0  0  0  0  0
   -2.6928    2.9971   21.7020 C   0  0  2  0  0  0  0  0  0  0  0  0
   -2.2392    2.0050   21.6427 H   0  0  0  0  0  0  0  0  0  0  0  0
   -3.0623    3.5302   20.3348 C   0  0  0  0  0  0  0  0  0  0  0  0
   -3.4505    2.5287   19.3284 C   0  0  0  0  0  0  0  0  0  0  0  0
   -2.6945    1.3792   19.1078 C   0  0  0  0  0  0  0  0  0  0  0  0
   -1.7761    1.2101   19.6491 H   0  0  0  0  0  0  0  0  0  0  0  0
   -3.0815    0.4670   18.1445 C   0  0  0  0  0  0  0  0  0  0  0  0
   -2.4806   -0.4128   17.9739 H   0  0  0  0  0  0  0  0  0  0  0  0
   -4.2315    0.6823   17.4032 C   0  0  0  0  0  0  0  0  0  0  0  0
   -4.5342   -0.0353   16.6561 H   0  0  0  0  0  0  0  0  0  0  0  0
   -4.9890    1.8226   17.6176 C   0  0  0  0  0  0  0  0  0  0  0  0
   -5.8854    1.9956   17.0417 H   0  0  0  0  0  0  0  0  0  0  0  0
   -4.5984    2.7462   18.5675 C   0  0  0  0  0  0  0  0  0  0  0  0
   -5.1914    3.6313   18.7407 H   0  0  0  0  0  0  0  0  0  0  0  0
   -3.4054    5.5319   19.0996 C   0  0  0  0  0  0  0  0  0  0  0  0
   -2.5732    5.5418   17.9701 C   0  0  0  0  0  0  0  0  0  0  0  0
   -2.8849    6.4054   16.9303 C   0  0  0  0  0  0  0  0  0  0  0  0
   -2.2595    6.4340   16.0524 H   0  0  0  0  0  0  0  0  0  0  0  0
   -3.9917    7.2255   17.0097 C   0  0  0  0  0  0  0  0  0  0  0  0
   -4.8062    7.2264   18.1262 C   0  0  0  0  0  0  0  0  0  0  0  0
   -5.6603    7.8832   18.1674 H   0  0  0  0  0  0  0  0  0  0  0  0
   -4.5174    6.3857   19.1859 C   0  0  0  0  0  0  0  0  0  0  0  0
   -1.3273    4.6966   17.8806 C   0  0  0  0  0  0  0  0  0  0  0  0
   -1.2515    4.0688   18.7710 H   0  0  0  0  0  0  0  0  0  0  0  0
   -0.0812    5.5846   17.8501 C   0  0  0  0  0  0  0  0  0  0  0  0
   -0.0402    6.1724   16.9371 H   0  0  0  0  0  0  0  0  0  0  0  0
    0.8065    4.9603   17.9073 H   0  0  0  0  0  0  0  0  0  0  0  0
   -0.0803    6.2642   18.6999 H   0  0  0  0  0  0  0  0  0  0  0  0
   -1.3639    3.7722   16.6631 C   0  0  0  0  0  0  0  0  0  0  0  0
   -1.3212    4.3404   15.7378 H   0  0  0  0  0  0  0  0  0  0  0  0
   -2.2733    3.1746   16.6602 H   0  0  0  0  0  0  0  0  0  0  0  0
   -0.5090    3.1020   16.6957 H   0  0  0  0  0  0  0  0  0  0  0  0
   -5.3943    6.3766   20.4182 C   0  0  0  0  0  0  0  0  0  0  0  0
   -5.0691    5.5515   21.0607 H   0  0  0  0  0  0  0  0  0  0  0  0
   -5.2185    7.6871   21.1892 C   0  0  0  0  0  0  0  0  0  0  0  0
   -4.1697    7.8484   21.4314 H   0  0  0  0  0  0  0  0  0  0  0  0
   -5.7920    7.6597   22.1131 H   0  0  0  0  0  0  0  0  0  0  0  0
   -5.5641    8.5294   20.5952 H   0  0  0  0  0  0  0  0  0  0  0  0
   -6.8658    6.1436   20.0737 C   0  0  0  0  0  0  0  0  0  0  0  0
   -7.4464    6.0425   20.9876 H   0  0  0  0  0  0  0  0  0  0  0  0
   -6.9869    5.2329   19.4907 H   0  0  0  0  0  0  0  0  0  0  0  0
   -7.2727    6.9733   19.5022 H   0  0  0  0  0  0  0  0  0  0  0  0
  1 10  2  0  0  0  0
  1  2  1  0  0  0  0
  3  1  1  0  0  0  0
  4  1  1  0  0  0  0
  6 46  1  0  0  0  0
  7 11  1  0  0  0  0
  7 15  1  0  0  0  0
  8 13  1  0  0  0  0
  8 10  1  0  0  0  0
  9 30  2  0  0  0  0
 10  7  1  0  0  0  0
 11 12  1  0  0  0  0
 13 11  2  0  0  0  0
 14 13  1  0  0  0  0
 15 20  1  0  0  0  0
 16 15  1  0  0  0  0
 16 18  1  0  0  0  0
 16 19  1  0  0  0  0
 17 16  1  0  0  0  0
 20 23  1  0  0  0  0
 20 21  1  0  0  0  0
 20 22  1  0  0  0  0
 24 25  1  0  0  0  0
 24 26  1  0  0  0  0
 24 15  1  0  0  0  0
 27 24  1  0  0  0  0
 28 29  1  6  0  0  0
 28  8  1  0  0  0  0
 28  5  1  0  0  0  0
 30 28  1  0  0  0  0
 31 30  1  0  0  0  0
 32 31  1  0  0  0  0
 32 33  1  0  0  0  0
 34 32  2  0  0  0  0
 35 34  1  0  0  0  0
 36 38  2  0  0  0  0
 36 34  1  0  0  0  0
 37 36  1  0  0  0  0
 38 40  1  0  0  0  0
 39 38  1  0  0  0  0
 40 41  1  0  0  0  0
 40 31  2  0  0  0  0
 42 49  1  0  0  0  0
 42  9  1  0  0  0  0
 43 42  2  0  0  0  0
 44 46  2  0  0  0  0
 44 43  1  0  0  0  0
 45 44  1  0  0  0  0
 46 47  1  0  0  0  0
 47 48  1  0  0  0  0
 47 49  2  0  0  0  0
 49 60  1  0  0  0  0
 50 43  1  0  0  0  0
 50 51  1  0  0  0  0
 52 50  1  0  0  0  0
 52 54  1  0  0  0  0
 52 55  1  0  0  0  0
 53 52  1  0  0  0  0
 56 59  1  0  0  0  0
 56 50  1  0  0  0  0
 57 56  1  0  0  0  0
 58 56  1  0  0  0  0
 60 61  1  0  0  0  0
 60 62  1  0  0  0  0
 62 63  1  0  0  0  0
 62 64  1  0  0  0  0
 65 62  1  0  0  0  0
 66 60  1  0  0  0  0
 66 67  1  0  0  0  0
 68 66  1  0  0  0  0
 69 66  1  0  0  0  0
M  END
$$$$
