CSD_code = AGOQIX | q = 0 | S = 0 | Stoichiometry = C12H21Cl2N3O3RuS2 | MND = 6
 OpenBabel04212202003D

 44 45  0  0  1  0  0  0  0  0999 V2000
    2.3569    8.6255    2.7692 Ru  0  0  0  0  0  0  0  0  0  0  0  0
    4.4174    7.5134    2.8713 Cl  0  0  0  0  0  0  0  0  0  0  0  0
    0.3462    9.8195    2.7338 Cl  0  0  0  0  0  0  0  0  0  0  0  0
    1.2960    6.8512    3.6717 S   0  0  0  0  0  0  0  0  0  0  0  0
    1.9701    7.8517    0.6912 S   0  0  0  0  0  0  0  0  0  0  0  0
    3.4787   10.3059    1.9095 O   0  0  0  0  0  0  0  0  0  0  0  0
    1.2431    6.8335    5.1291 O   0  0  0  0  0  1  0  0  0  0  0  0
    1.2579    6.5909    0.4954 O   0  0  0  0  0  1  0  0  0  0  0  0
    2.8625    9.6021    4.4323 N   0  0  0  0  0  0  0  0  0  0  0  0
    3.7636   10.6009    4.1374 N   0  0  0  0  0  0  0  0  0  0  0  0
    4.2290   11.0619    4.9149 H   0  0  0  0  0  0  0  0  0  0  0  0
    4.9626   11.8560    2.6164 N   0  0  0  0  0  0  0  0  0  0  0  0
    5.2680   11.9825    1.6659 H   0  0  0  0  0  0  0  0  0  0  0  0
    5.5780   12.1690    3.3458 H   0  0  0  0  0  0  0  0  0  0  0  0
    4.0570   10.8717    2.8380 C   0  0  2  0  0  3  0  0  0  0  0  0
    2.4809    9.4446    5.6466 C   0  0  0  0  0  3  0  0  0  0  0  0
    1.8657    8.5650    5.8172 H   0  0  0  0  0  0  0  0  0  0  0  0
    2.8292   10.2599    6.8041 C   0  0  0  0  0  0  0  0  0  0  0  0
    2.8817   11.6571    6.7629 C   0  0  0  0  0  0  0  0  0  0  0  0
    2.6070   12.1836    5.8594 H   0  0  0  0  0  0  0  0  0  0  0  0
    3.1983   12.3778    7.9004 C   0  0  0  0  0  0  0  0  0  0  0  0
    3.2226   13.4567    7.8587 H   0  0  0  0  0  0  0  0  0  0  0  0
    3.4745   11.7231    9.0892 C   0  0  0  0  0  0  0  0  0  0  0  0
    3.7284   12.2899    9.9721 H   0  0  0  0  0  0  0  0  0  0  0  0
    3.4015   10.3393    9.1465 C   0  0  0  0  0  0  0  0  0  0  0  0
    3.5964    9.8277   10.0770 H   0  0  0  0  0  0  0  0  0  0  0  0
    3.0691    9.6134    8.0202 C   0  0  0  0  0  0  0  0  0  0  0  0
    3.0044    8.5370    8.0585 H   0  0  0  0  0  0  0  0  0  0  0  0
   -0.4077    6.6179    3.1056 C   0  0  0  0  0  0  0  0  0  0  0  0
   -0.8366    5.7967    3.6672 H   0  0  0  0  0  0  0  0  0  0  0  0
   -0.3738    6.4133    2.0417 H   0  0  0  0  0  0  0  0  0  0  0  0
   -0.9414    7.5426    3.3015 H   0  0  0  0  0  0  0  0  0  0  0  0
    1.9840    5.2480    3.1828 C   0  0  0  0  0  0  0  0  0  0  0  0
    3.0370    5.2534    3.4466 H   0  0  0  0  0  0  0  0  0  0  0  0
    1.8563    5.1481    2.1110 H   0  0  0  0  0  0  0  0  0  0  0  0
    1.4544    4.4778    3.7308 H   0  0  0  0  0  0  0  0  0  0  0  0
    1.1354    9.0909   -0.3353 C   0  0  0  0  0  0  0  0  0  0  0  0
    1.0601    8.7209   -1.3512 H   0  0  0  0  0  0  0  0  0  0  0  0
    1.7182   10.0035   -0.2717 H   0  0  0  0  0  0  0  0  0  0  0  0
    0.1519    9.2547    0.0938 H   0  0  0  0  0  0  0  0  0  0  0  0
    3.5021    7.7364   -0.2752 C   0  0  0  0  0  0  0  0  0  0  0  0
    4.1366    7.0010    0.2094 H   0  0  0  0  0  0  0  0  0  0  0  0
    3.9760    8.7111   -0.2407 H   0  0  0  0  0  0  0  0  0  0  0  0
    3.2612    7.4335   -1.2873 H   0  0  0  0  0  0  0  0  0  0  0  0
  1  2  1  0  0  0  0
  1  4  1  0  0  0  0
  1  9  1  0  0  0  0
  3  1  1  0  0  0  0
  4  7  1  0  0  0  0
  5  1  1  0  0  0  0
  6  1  1  0  0  0  0
  6 15  1  0  0  0  0
  8  5  1  0  0  0  0
  9 16  1  0  0  0  0
 10  9  1  0  0  0  0
 10 11  1  0  0  0  0
 12 14  1  0  0  0  0
 13 12  1  0  0  0  0
 15 12  1  6  0  0  0
 15 10  1  0  0  0  0
 16 17  1  0  0  0  0
 16 18  1  0  0  0  0
 18 27  1  0  0  0  0
 19 18  2  0  0  0  0
 19 21  1  0  0  0  0
 20 19  1  0  0  0  0
 21 23  2  0  0  0  0
 22 21  1  0  0  0  0
 23 25  1  0  0  0  0
 23 24  1  0  0  0  0
 25 26  1  0  0  0  0
 27 28  1  0  0  0  0
 27 25  2  0  0  0  0
 29 32  1  0  0  0  0
 29 30  1  0  0  0  0
 29  4  1  0  0  0  0
 31 29  1  0  0  0  0
 33 34  1  0  0  0  0
 33  4  1  0  0  0  0
 33 36  1  0  0  0  0
 35 33  1  0  0  0  0
 37 39  1  0  0  0  0
 37 40  1  0  0  0  0
 37  5  1  0  0  0  0
 38 37  1  0  0  0  0
 41 43  1  0  0  0  0
 41 42  1  0  0  0  0
 41  5  1  0  0  0  0
 44 41  1  0  0  0  0
M  END
$$$$
