CSD_code = AGOTIA | q = 0 | S = 0 | Stoichiometry = C12H10ClO7Re | MND = 6
 OpenBabel04212202003D

 31 34  0  0  1  0  0  0  0  0999 V2000
    2.2443    5.1399    7.4733 Re  0  0  0  0  0  0  0  0  0  0  0  0
    2.0924    6.9218    8.8602 Cl  0  0  0  0  0  0  0  0  0  0  0  0
    0.7867    4.4496    7.8222 O   0  0  0  0  0  1  0  0  0  0  0  0
    7.2810    4.9971    8.7530 O   0  0  0  0  0  0  0  0  0  0  0  0
    6.9669    6.3257    6.7761 C   0  0  0  0  0  0  0  0  0  0  0  0
    7.5204    5.7159    6.0617 H   0  0  0  0  0  0  0  0  0  0  0  0
    7.6527    7.0565    7.1999 H   0  0  0  0  0  0  0  0  0  0  0  0
    6.1603    6.8363    6.2579 H   0  0  0  0  0  0  0  0  0  0  0  0
    6.3884    5.4767    7.8576 C   0  0  2  0  0  3  0  0  0  0  0  0
    5.0536    5.1773    7.9761 C   0  0  0  0  0  0  0  0  0  0  0  0
    4.1059    5.5742    7.1815 O   0  0  0  0  0  0  0  0  0  0  0  0
    4.5878    4.3478    9.0867 C   0  0  0  0  0  0  0  0  0  0  0  0
    3.3605    4.1217    9.1623 O   0  0  0  0  0  0  0  0  0  0  0  0
    5.5917    3.8742    9.9787 C   0  0  0  0  0  0  0  0  0  0  0  0
    6.8809    4.2326    9.7558 C   0  0  0  0  0  0  0  0  0  0  0  0
    1.6667    5.3629    2.3117 O   0  0  0  0  0  0  0  0  0  0  0  0
    1.0088    7.4442    3.3065 C   0  0  0  0  0  0  0  0  0  0  0  0
    1.6887    8.0585    2.7175 H   0  0  0  0  0  0  0  0  0  0  0  0
    0.8903    7.8773    4.2951 H   0  0  0  0  0  0  0  0  0  0  0  0
    0.0478    7.4214    2.7960 H   0  0  0  0  0  0  0  0  0  0  0  0
    1.5474    6.0627    3.4566 C   0  0  1  0  0  3  0  0  0  0  0  0
    1.8997    5.5124    4.6698 C   0  0  0  0  0  0  0  0  0  0  0  0
    1.8008    6.1887    5.7879 O   0  0  0  0  0  0  0  0  0  0  0  0
    2.4084    4.1488    4.7157 C   0  0  0  0  0  0  0  0  0  0  0  0
    2.7365    3.6350    5.8122 O   0  0  0  0  0  0  0  0  0  0  0  0
    2.5136    3.4789    3.4597 C   0  0  0  0  0  0  0  0  0  0  0  0
    2.1309    4.1243    2.3307 C   0  0  0  0  0  0  0  0  0  0  0  0
    5.3157    3.2527   10.8129 H   0  0  0  0  0  0  0  0  0  0  0  0
    7.7015    3.9227   10.3868 H   0  0  0  0  0  0  0  0  0  0  0  0
    2.8834    2.4681    3.4287 H   0  0  0  0  0  0  0  0  0  0  0  0
    2.1719    3.6824    1.3455 H   0  0  0  0  0  0  0  0  0  0  0  0
  1  3  1  0  0  0  0
  1  2  1  0  0  0  0
  1 13  1  0  0  0  0
  4 15  1  0  0  0  0
  5  7  1  0  0  0  0
  6  5  1  0  0  0  0
  8  5  1  0  0  0  0
  9  5  1  1  0  0  0
  9 10  1  0  0  0  0
  9  4  1  0  0  0  0
 10 12  2  0  0  0  0
 11  1  1  0  0  0  0
 11 10  1  0  0  0  0
 12 13  1  0  0  0  0
 12 14  1  0  0  0  0
 14 28  1  0  0  0  0
 15 14  2  0  0  0  0
 15 29  1  0  0  0  0
 16 27  1  0  0  0  0
 16 21  1  0  0  0  0
 17 19  1  0  0  0  0
 18 17  1  0  0  0  0
 20 17  1  0  0  0  0
 21 17  1  1  0  0  0
 21 22  1  0  0  0  0
 22 24  2  0  0  0  0
 22 23  1  0  0  0  0
 23  1  1  0  0  0  0
 24 25  1  0  0  0  0
 25  1  1  0  0  0  0
 26 24  1  0  0  0  0
 27 26  2  0  0  0  0
 30 26  1  0  0  0  0
 31 27  1  0  0  0  0
M  END
$$$$
