CSD_code = AGOTOH | q = 0 | S = 0 | Stoichiometry = C36H45Cl2N3OPd | MND = 4
 OpenBabel04212202003D

 88 92  0  0  1  0  0  0  0  0999 V2000
   -8.0250   12.2768   16.2377 Pd  0  0  0  0  0  0  0  0  0  0  0  0
   -9.9326   11.8070   17.4163 Cl  0  0  0  0  0  0  0  0  0  0  0  0
   -6.2622   12.8322   14.8948 Cl  0  0  0  0  0  0  0  0  0  0  0  0
   -8.7302   15.9852   18.1923 O   0  0  0  0  0  0  0  0  0  0  0  0
   -6.6870    9.6597   15.8246 N   0  0  0  0  0  0  0  0  0  0  0  0
   -8.7026    9.6231   15.0782 N   0  0  0  0  0  0  0  0  0  0  0  0
   -8.3636   14.2727   16.8126 N   0  0  0  0  0  0  0  0  0  0  0  0
   -7.8026   10.4066   15.7047 C   0  0  0  0  0  0  0  0  0  0  0  0
   -8.1532    8.3958   14.8063 C   0  0  0  0  0  0  0  0  0  0  0  0
   -8.7026    7.6288   14.3011 H   0  0  0  0  0  0  0  0  0  0  0  0
   -6.8872    8.4186   15.2756 C   0  0  0  0  0  0  0  0  0  0  0  0
   -6.1264    7.6664   15.2794 H   0  0  0  0  0  0  0  0  0  0  0  0
   -5.4862   10.0420   16.4851 C   0  0  0  0  0  0  0  0  0  0  0  0
   -4.3098   10.1924   15.7429 C   0  0  0  0  0  0  0  0  0  0  0  0
   -3.1480   10.5213   16.4280 C   0  0  0  0  0  0  0  0  0  0  0  0
   -2.2263   10.6441   15.8817 H   0  0  0  0  0  0  0  0  0  0  0  0
   -3.1514   10.6907   17.7986 C   0  0  0  0  0  0  0  0  0  0  0  0
   -2.2350   10.9456   18.3115 H   0  0  0  0  0  0  0  0  0  0  0  0
   -4.3185   10.5177   18.5160 C   0  0  0  0  0  0  0  0  0  0  0  0
   -4.3073   10.6370   19.5884 H   0  0  0  0  0  0  0  0  0  0  0  0
   -5.5056   10.1824   17.8772 C   0  0  0  0  0  0  0  0  0  0  0  0
   -4.2595    9.9673   14.2499 C   0  0  0  0  0  0  0  0  0  0  0  0
   -5.2791    9.8639   13.8689 H   0  0  0  0  0  0  0  0  0  0  0  0
   -3.4882    8.6783   13.9462 C   0  0  0  0  0  0  0  0  0  0  0  0
   -2.4524    8.7713   14.2640 H   0  0  0  0  0  0  0  0  0  0  0  0
   -3.5027    8.4784   12.8772 H   0  0  0  0  0  0  0  0  0  0  0  0
   -3.9230    7.8242   14.4618 H   0  0  0  0  0  0  0  0  0  0  0  0
   -3.6236   11.1504   13.5190 C   0  0  0  0  0  0  0  0  0  0  0  0
   -2.5779   11.2712   13.7880 H   0  0  0  0  0  0  0  0  0  0  0  0
   -4.1615   12.0609   13.7671 H   0  0  0  0  0  0  0  0  0  0  0  0
   -3.6830   10.9908   12.4447 H   0  0  0  0  0  0  0  0  0  0  0  0
   -6.7450    9.9209   18.7036 C   0  0  0  0  0  0  0  0  0  0  0  0
   -7.5737    9.6236   18.0510 H   0  0  0  0  0  0  0  0  0  0  0  0
   -6.5018    8.7781   19.6927 C   0  0  0  0  0  0  0  0  0  0  0  0
   -6.1721    7.8822   19.1697 H   0  0  0  0  0  0  0  0  0  0  0  0
   -7.4230    8.5493   20.2234 H   0  0  0  0  0  0  0  0  0  0  0  0
   -5.7439    9.0463   20.4241 H   0  0  0  0  0  0  0  0  0  0  0  0
   -7.1797   11.1972   19.4249 C   0  0  0  0  0  0  0  0  0  0  0  0
   -6.4124   11.5529   20.1088 H   0  0  0  0  0  0  0  0  0  0  0  0
   -8.0963   11.0167   19.9816 H   0  0  0  0  0  0  0  0  0  0  0  0
   -7.3780   11.9796   18.6788 H   0  0  0  0  0  0  0  0  0  0  0  0
  -10.0584    9.9532   14.7949 C   0  0  0  0  0  0  0  0  0  0  0  0
  -10.3405   10.8546   13.7664 C   0  0  0  0  0  0  0  0  0  0  0  0
  -11.6720   11.1603   13.5113 C   0  0  0  0  0  0  0  0  0  0  0  0
  -11.9168   11.8637   12.7303 H   0  0  0  0  0  0  0  0  0  0  0  0
  -12.6858   10.5733   14.2410 C   0  0  0  0  0  0  0  0  0  0  0  0
  -13.7155   10.8241   14.0325 H   0  0  0  0  0  0  0  0  0  0  0  0
  -12.3867    9.6610   15.2343 C   0  0  0  0  0  0  0  0  0  0  0  0
  -13.1886    9.2038   15.7920 H   0  0  0  0  0  0  0  0  0  0  0  0
  -11.0721    9.3331   15.5339 C   0  0  0  0  0  0  0  0  0  0  0  0
   -9.2521   11.4798   12.9238 C   0  0  0  0  0  0  0  0  0  0  0  0
   -8.2732   11.1001   13.2397 H   0  0  0  0  0  0  0  0  0  0  0  0
   -9.4346   11.1288   11.4460 C   0  0  0  0  0  0  0  0  0  0  0  0
   -9.4552   10.0492   11.3093 H   0  0  0  0  0  0  0  0  0  0  0  0
   -8.6087   11.5345   10.8666 H   0  0  0  0  0  0  0  0  0  0  0  0
  -10.3616   11.5406   11.0555 H   0  0  0  0  0  0  0  0  0  0  0  0
   -9.2418   12.9941   13.1432 C   0  0  0  0  0  0  0  0  0  0  0  0
  -10.1691   13.4506   12.8034 H   0  0  0  0  0  0  0  0  0  0  0  0
   -8.4066   13.4442   12.6110 H   0  0  0  0  0  0  0  0  0  0  0  0
   -9.1192   13.1876   14.2199 H   0  0  0  0  0  0  0  0  0  0  0  0
  -10.7813    8.3234   16.6199 C   0  0  0  0  0  0  0  0  0  0  0  0
   -9.7028    8.2844   16.7988 H   0  0  0  0  0  0  0  0  0  0  0  0
  -11.2455    6.9316   16.1789 C   0  0  0  0  0  0  0  0  0  0  0  0
  -12.3219    6.9185   16.0266 H   0  0  0  0  0  0  0  0  0  0  0  0
  -10.9972    6.1966   16.9414 H   0  0  0  0  0  0  0  0  0  0  0  0
  -10.7681    6.6356   15.2467 H   0  0  0  0  0  0  0  0  0  0  0  0
  -11.4434    8.7194   17.9406 C   0  0  0  0  0  0  0  0  0  0  0  0
  -11.1617    9.7369   18.1982 H   0  0  0  0  0  0  0  0  0  0  0  0
  -11.1154    8.0499   18.7332 H   0  0  0  0  0  0  0  0  0  0  0  0
  -12.5264    8.6639   17.8735 H   0  0  0  0  0  0  0  0  0  0  0  0
   -9.5512   14.9215   16.2788 C   0  0  0  0  0  0  0  0  0  0  0  0
  -10.3754   14.2019   16.2225 H   0  0  0  0  0  0  0  0  0  0  0  0
   -9.3324   15.3031   15.2751 H   0  0  0  0  0  0  0  0  0  0  0  0
   -9.8267   16.0538   17.2879 C   0  0  0  0  0  0  0  0  0  0  0  0
   -9.8384   17.0462   16.8312 H   0  0  0  0  0  0  0  0  0  0  0  0
  -10.7516   15.9005   17.8517 H   0  0  0  0  0  0  0  0  0  0  0  0
   -7.9796   14.9216   17.8462 C   0  0  1  0  0  3  0  0  0  0  0  0
   -6.8031   14.6637   18.6704 C   0  0  0  0  0  0  0  0  0  0  0  0
   -5.7057   13.9655   18.1651 C   0  0  0  0  0  0  0  0  0  0  0  0
   -5.7155   13.5862   17.1505 H   0  0  0  0  0  0  0  0  0  0  0  0
   -4.5850   13.7889   18.9552 C   0  0  0  0  0  0  0  0  0  0  0  0
   -3.7313   13.2682   18.5506 H   0  0  0  0  0  0  0  0  0  0  0  0
   -4.5566   14.2781   20.2513 C   0  0  0  0  0  0  0  0  0  0  0  0
   -3.6795   14.1336   20.8653 H   0  0  0  0  0  0  0  0  0  0  0  0
   -5.6515   14.9589   20.7602 C   0  0  0  0  0  0  0  0  0  0  0  0
   -5.6312   15.3389   21.7709 H   0  0  0  0  0  0  0  0  0  0  0  0
   -6.7678   15.1624   19.9728 C   0  0  0  0  0  0  0  0  0  0  0  0
   -7.6208   15.7005   20.3560 H   0  0  0  0  0  0  0  0  0  0  0  0
  1  7  1  0  0  0  0
  1  2  1  0  0  0  0
  3  1  1  0  0  0  0
  5 13  1  0  0  0  0
  6  8  1  0  0  0  0
  7 77  1  0  0  0  0
  8  5  1  0  0  0  0
  8  1  2  0  0  0  0
  9  6  1  0  0  0  0
  9 11  2  0  0  0  0
 10  9  1  0  0  0  0
 11 12  1  0  0  0  0
 11  5  1  0  0  0  0
 13 21  1  0  0  0  0
 14 15  1  0  0  0  0
 14 13  2  0  0  0  0
 15 17  2  0  0  0  0
 16 15  1  0  0  0  0
 17 18  1  0  0  0  0
 17 19  1  0  0  0  0
 19 20  1  0  0  0  0
 21 19  2  0  0  0  0
 21 32  1  0  0  0  0
 22 14  1  0  0  0  0
 23 22  1  0  0  0  0
 24 22  1  0  0  0  0
 24 25  1  0  0  0  0
 24 27  1  0  0  0  0
 26 24  1  0  0  0  0
 28 30  1  0  0  0  0
 28 29  1  0  0  0  0
 28 22  1  0  0  0  0
 31 28  1  0  0  0  0
 32 38  1  0  0  0  0
 32 34  1  0  0  0  0
 33 32  1  0  0  0  0
 34 36  1  0  0  0  0
 34 37  1  0  0  0  0
 35 34  1  0  0  0  0
 38 40  1  0  0  0  0
 38 39  1  0  0  0  0
 41 38  1  0  0  0  0
 42  6  1  0  0  0  0
 42 50  1  0  0  0  0
 43 42  2  0  0  0  0
 44 43  1  0  0  0  0
 44 46  2  0  0  0  0
 45 44  1  0  0  0  0
 46 48  1  0  0  0  0
 47 46  1  0  0  0  0
 48 50  2  0  0  0  0
 48 49  1  0  0  0  0
 50 61  1  0  0  0  0
 51 57  1  0  0  0  0
 51 52  1  0  0  0  0
 51 43  1  0  0  0  0
 53 51  1  0  0  0  0
 54 53  1  0  0  0  0
 55 53  1  0  0  0  0
 56 53  1  0  0  0  0
 57 60  1  0  0  0  0
 58 57  1  0  0  0  0
 59 57  1  0  0  0  0
 61 62  1  0  0  0  0
 61 67  1  0  0  0  0
 63 61  1  0  0  0  0
 63 65  1  0  0  0  0
 64 63  1  0  0  0  0
 66 63  1  0  0  0  0
 67 68  1  0  0  0  0
 67 69  1  0  0  0  0
 70 67  1  0  0  0  0
 71  7  1  0  0  0  0
 71 74  1  0  0  0  0
 72 71  1  0  0  0  0
 73 71  1  0  0  0  0
 74 76  1  0  0  0  0
 74  4  1  0  0  0  0
 75 74  1  0  0  0  0
 77  4  1  0  0  0  0
 77 78  1  6  0  0  0
 78 87  1  0  0  0  0
 79 78  2  0  0  0  0
 79 81  1  0  0  0  0
 80 79  1  0  0  0  0
 81 83  2  0  0  0  0
 82 81  1  0  0  0  0
 83 85  1  0  0  0  0
 83 84  1  0  0  0  0
 85 86  1  0  0  0  0
 87 88  1  0  0  0  0
 87 85  2  0  0  0  0
M  END
$$$$
