CSD_code = AGOVEY | q = 0 | S = 0 | Stoichiometry = C24H20Br2O5PRe | MND = 6
 OpenBabel04212202003D

 53 57  0  0  0  0  0  0  0  0999 V2000
   11.6498    2.8417   15.9537 Re  0  0  0  0  0  0  0  0  0  0  0  0
   13.0091    1.9112   15.8749 O   0  0  0  0  0  1  0  0  0  0  0  0
   12.3284    4.3104   17.7720 Br  0  0  0  0  0  0  0  0  0  0  0  0
   10.3250    1.4476   17.4892 Br  0  0  0  0  0  0  0  0  0  0  0  0
    7.0437    3.4678   13.4950 O   0  0  0  0  0  0  0  0  0  0  0  0
    7.8718    3.9653   14.4345 C   0  0  0  0  0  3  0  0  0  0  0  0
    7.4849    4.8427   14.9276 H   0  0  0  0  0  0  0  0  0  0  0  0
    9.0838    3.4021   14.7089 C   0  0  0  0  0  0  0  0  0  0  0  0
    9.9591    3.8431   15.5544 O   0  0  0  0  0  0  0  0  0  0  0  0
    9.4795    2.1868   13.9865 C   0  0  0  0  0  0  0  0  0  0  0  0
   10.5875    1.6801   14.2429 O   0  0  0  0  0  0  0  0  0  0  0  0
    8.5511    1.7124   13.0237 C   0  0  0  0  0  0  0  0  0  0  0  0
    8.7951    0.8201   12.4708 H   0  0  0  0  0  0  0  0  0  0  0  0
    7.3812    2.3819   12.8171 C   0  0  0  0  0  0  0  0  0  0  0  0
    6.3629    1.9730   11.7753 C   0  0  0  0  0  0  0  0  0  0  0  0
    5.8058    1.0972   12.1404 H   0  0  0  0  0  0  0  0  0  0  0  0
    5.6597    2.7972   11.6352 H   0  0  0  0  0  0  0  0  0  0  0  0
    6.9344    1.7248   10.5214 O   0  0  0  0  0  0  0  0  0  0  0  0
    7.4936    0.9412   10.5639 H   0  0  0  0  0  0  0  0  0  0  0  0
   12.4491    4.5046   14.3146 P   0  0  0  0  0  4  0  0  0  0  0  0
   11.4574    4.3528   12.8056 C   0  0  0  0  0  0  0  0  0  0  0  0
   10.4272    5.2383   12.5058 C   0  0  0  0  0  0  0  0  0  0  0  0
   10.2809    6.1208   13.1138 H   0  0  0  0  0  0  0  0  0  0  0  0
    9.5912    4.9848   11.4315 C   0  0  0  0  0  0  0  0  0  0  0  0
    8.7890    5.6713   11.2044 H   0  0  0  0  0  0  0  0  0  0  0  0
    9.7741    3.8515   10.6563 C   0  0  0  0  0  0  0  0  0  0  0  0
    9.1059    3.6470    9.8336 H   0  0  0  0  0  0  0  0  0  0  0  0
   10.8083    2.9733   10.9464 C   0  0  0  0  0  0  0  0  0  0  0  0
   10.9556    2.0919   10.3401 H   0  0  0  0  0  0  0  0  0  0  0  0
   11.6442    3.2154   12.0193 C   0  0  0  0  0  0  0  0  0  0  0  0
   12.4334    2.5198   12.2730 H   0  0  0  0  0  0  0  0  0  0  0  0
   12.3632    6.2580   14.7814 C   0  0  0  0  0  0  0  0  0  0  0  0
   13.3964    7.1313   14.4561 C   0  0  0  0  0  0  0  0  0  0  0  0
   14.2701    6.7686   13.9348 H   0  0  0  0  0  0  0  0  0  0  0  0
   13.3064    8.4653   14.8099 C   0  0  0  0  0  0  0  0  0  0  0  0
   14.1117    9.1388   14.5574 H   0  0  0  0  0  0  0  0  0  0  0  0
   12.1961    8.9347   15.4917 C   0  0  0  0  0  0  0  0  0  0  0  0
   12.1341    9.9756   15.7708 H   0  0  0  0  0  0  0  0  0  0  0  0
   11.1708    8.0657   15.8270 C   0  0  0  0  0  0  0  0  0  0  0  0
   10.3111    8.4247   16.3720 H   0  0  0  0  0  0  0  0  0  0  0  0
   11.2522    6.7312   15.4769 C   0  0  0  0  0  0  0  0  0  0  0  0
   10.4601    6.0532   15.7626 H   0  0  0  0  0  0  0  0  0  0  0  0
   14.1645    4.2397   13.7930 C   0  0  0  0  0  0  0  0  0  0  0  0
   15.0782    3.7649   14.7293 C   0  0  0  0  0  0  0  0  0  0  0  0
   14.7470    3.5273   15.7325 H   0  0  0  0  0  0  0  0  0  0  0  0
   16.4006    3.5803   14.3673 C   0  0  0  0  0  0  0  0  0  0  0  0
   17.1067    3.2067   15.0927 H   0  0  0  0  0  0  0  0  0  0  0  0
   16.8139    3.8688   13.0767 C   0  0  0  0  0  0  0  0  0  0  0  0
   17.8450    3.7191   12.7936 H   0  0  0  0  0  0  0  0  0  0  0  0
   15.9059    4.3466   12.1447 C   0  0  0  0  0  0  0  0  0  0  0  0
   16.2288    4.5726   11.1391 H   0  0  0  0  0  0  0  0  0  0  0  0
   14.5825    4.5358   12.4978 C   0  0  0  0  0  0  0  0  0  0  0  0
   13.8733    4.9109   11.7720 H   0  0  0  0  0  0  0  0  0  0  0  0
  1  4  1  0  0  0  0
  1  3  1  0  0  0  0
  2  1  1  0  0  0  0
  5  6  1  0  0  0  0
  6  8  1  0  0  0  0
  6  7  1  0  0  0  0
  8  9  1  0  0  0  0
  9  1  1  0  0  0  0
 10 11  1  0  0  0  0
 10  8  2  0  0  0  0
 11  1  1  0  0  0  0
 12 10  1  0  0  0  0
 13 12  1  0  0  0  0
 14 12  2  0  0  0  0
 14  5  1  0  0  0  0
 15 16  1  0  0  0  0
 15 14  1  0  0  0  0
 17 15  1  0  0  0  0
 18 19  1  0  0  0  0
 18 15  1  0  0  0  0
 20 32  1  0  0  0  0
 20  1  1  0  0  0  0
 21 20  1  0  0  0  0
 22 21  1  0  0  0  0
 22 23  1  0  0  0  0
 24 22  2  0  0  0  0
 25 24  1  0  0  0  0
 26 28  2  0  0  0  0
 26 24  1  0  0  0  0
 27 26  1  0  0  0  0
 28 30  1  0  0  0  0
 29 28  1  0  0  0  0
 30 31  1  0  0  0  0
 30 21  2  0  0  0  0
 32 41  1  0  0  0  0
 33 32  2  0  0  0  0
 33 35  1  0  0  0  0
 34 33  1  0  0  0  0
 35 37  2  0  0  0  0
 36 35  1  0  0  0  0
 37 38  1  0  0  0  0
 37 39  1  0  0  0  0
 39 40  1  0  0  0  0
 41 42  1  0  0  0  0
 41 39  2  0  0  0  0
 43 20  1  0  0  0  0
 43 44  1  0  0  0  0
 44 45  1  0  0  0  0
 46 44  2  0  0  0  0
 46 47  1  0  0  0  0
 48 46  1  0  0  0  0
 49 48  1  0  0  0  0
 50 52  1  0  0  0  0
 50 48  2  0  0  0  0
 51 50  1  0  0  0  0
 52 43  2  0  0  0  0
 53 52  1  0  0  0  0
M  END
$$$$
