CSD_code = AGOVUO | q = 0 | S = 0 | Stoichiometry = C11H17CdCl2N3 | MND = 5
 OpenBabel04212202003D

 34 36  0  0  0  0  0  0  0  0999 V2000
   -1.8617    1.1476    8.2486 Cd  0  0  0  0  0  0  0  0  0  0  0  0
   -2.2154   -0.0994    6.2715 Cl  0  0  0  0  0  0  0  0  0  0  0  0
   -3.5414    2.5869    9.0710 Cl  0  0  0  0  0  0  0  0  0  0  0  0
    0.3946    0.3913    8.1872 N   0  0  0  0  0  0  0  0  0  0  0  0
   -2.1120   -0.5689    9.9130 N   0  0  0  0  0  4  0  0  0  0  0  0
   -0.3444    2.9670    7.7710 N   0  0  0  0  0  0  0  0  0  0  0  0
    0.8637    2.5638    7.3680 C   0  0  0  0  0  0  0  0  0  0  0  0
    1.7730    3.4444    6.7835 C   0  0  0  0  0  0  0  0  0  0  0  0
    2.7417    3.0925    6.4626 H   0  0  0  0  0  0  0  0  0  0  0  0
    1.4072    4.7715    6.6252 C   0  0  0  0  0  0  0  0  0  0  0  0
    2.0903    5.4761    6.1744 H   0  0  0  0  0  0  0  0  0  0  0  0
    0.1520    5.1762    7.0508 C   0  0  0  0  0  0  0  0  0  0  0  0
   -0.1700    6.1994    6.9415 H   0  0  0  0  0  0  0  0  0  0  0  0
   -0.6942    4.2304    7.6193 C   0  0  0  0  0  0  0  0  0  0  0  0
   -1.6867    4.4890    7.9690 H   0  0  0  0  0  0  0  0  0  0  0  0
    1.1714    1.1456    7.5377 C   0  0  0  0  0  0  0  0  0  0  0  0
    2.0833    0.7790    7.0503 H   0  0  0  0  0  0  0  0  0  0  0  0
    0.6050   -1.0187    8.2493 C   0  0  0  0  0  0  0  0  0  0  0  0
    1.6500   -1.2802    8.0227 H   0  0  0  0  0  0  0  0  0  0  0  0
   -0.0364   -1.4478    7.4682 H   0  0  0  0  0  0  0  0  0  0  0  0
    0.1870   -1.5958    9.6048 C   0  0  0  0  0  0  0  0  0  0  0  0
    0.6520   -2.5787    9.7048 H   0  0  0  0  0  0  0  0  0  0  0  0
    0.5799   -0.9624   10.4016 H   0  0  0  0  0  0  0  0  0  0  0  0
   -1.3232   -1.7944    9.7574 C   0  0  0  0  0  0  0  0  0  0  0  0
   -1.6868   -2.3053    8.8613 H   0  0  0  0  0  0  0  0  0  0  0  0
   -1.5019   -2.4553   10.6239 H   0  0  0  0  0  0  0  0  0  0  0  0
   -3.5304   -0.9077    9.7696 C   0  0  0  0  0  0  0  0  0  0  0  0
   -3.8357   -1.6624   10.5085 H   0  0  0  0  0  0  0  0  0  0  0  0
   -3.7160   -1.2936    8.7656 H   0  0  0  0  0  0  0  0  0  0  0  0
   -4.1327   -0.0096    9.9120 H   0  0  0  0  0  0  0  0  0  0  0  0
   -1.9055    0.0275   11.2309 C   0  0  0  0  0  0  0  0  0  0  0  0
   -2.1794   -0.6737   12.0328 H   0  0  0  0  0  0  0  0  0  0  0  0
   -2.5224    0.9223   11.3158 H   0  0  0  0  0  0  0  0  0  0  0  0
   -0.8637    0.3196   11.3576 H   0  0  0  0  0  0  0  0  0  0  0  0
  1  3  1  0  0  0  0
  1  5  1  0  0  0  0
  2  1  1  0  0  0  0
  4  1  1  0  0  0  0
  4 18  1  0  0  0  0
  5 31  1  0  0  0  0
  6  1  1  0  0  0  0
  7 16  2  0  0  0  0
  7  6  1  0  0  0  0
  8  7  1  0  0  0  0
  9  8  1  0  0  0  0
 10  8  2  0  0  0  0
 10 12  1  0  0  0  0
 11 10  1  0  0  0  0
 12 14  2  0  0  0  0
 13 12  1  0  0  0  0
 14  6  1  0  0  0  0
 14 15  1  0  0  0  0
 16  4  1  0  0  0  0
 17 16  1  0  0  0  0
 18 21  1  0  0  0  0
 19 18  1  0  0  0  0
 20 18  1  0  0  0  0
 21 22  1  0  0  0  0
 21 24  1  0  0  0  0
 21 23  1  0  0  0  0
 24  5  1  0  0  0  0
 24 26  1  0  0  0  0
 25 24  1  0  0  0  0
 27 30  1  0  0  0  0
 27  5  1  0  0  0  0
 27 28  1  0  0  0  0
 29 27  1  0  0  0  0
 31 33  1  0  0  0  0
 31 34  1  0  0  0  0
 31 32  1  0  0  0  0
M  END
$$$$
