CSD_code = AGOVAU | q = 0 | S = 0 | Stoichiometry = C24H20Cl2O5PRe | MND = 6
 OpenBabel04212202003D

 53 57  0  0  0  0  0  0  0  0999 V2000
    7.2021    2.1806    7.8353 Re  0  0  0  0  0  0  0  0  0  0  0  0
    7.7655    0.6355    9.3993 Cl  0  0  0  0  0  0  0  0  0  0  0  0
    5.6229    2.9639    9.2330 Cl  0  0  0  0  0  0  0  0  0  0  0  0
    8.0325    0.5919    6.1826 P   0  0  0  0  0  4  0  0  0  0  0  0
    5.4994    1.0384    7.0431 O   0  0  0  0  0  0  0  0  0  0  0  0
    6.1433    3.5184    6.3015 O   0  0  0  0  0  0  0  0  0  0  0  0
    8.5402    3.1556    7.8528 O   0  0  0  0  0  1  0  0  0  0  0  0
    2.7411    1.8424    4.8956 O   0  0  0  0  0  0  0  0  0  0  0  0
    3.5288    1.1620    5.7566 C   0  0  0  0  0  3  0  0  0  0  0  0
    3.1499    0.1812    5.9920 H   0  0  0  0  0  0  0  0  0  0  0  0
    4.6894    1.6750    6.2635 C   0  0  0  0  0  0  0  0  0  0  0  0
    5.0781    3.0347    5.8631 C   0  0  0  0  0  0  0  0  0  0  0  0
    4.2027    3.6947    4.9613 C   0  0  0  0  0  0  0  0  0  0  0  0
    4.4415    4.6936    4.6378 H   0  0  0  0  0  0  0  0  0  0  0  0
    3.0750    3.0688    4.5205 C   0  0  0  0  0  0  0  0  0  0  0  0
    2.1177    3.6777    3.5211 C   0  0  0  0  0  0  0  0  0  0  0  0
    2.0654    4.7579    3.6716 H   0  0  0  0  0  0  0  0  0  0  0  0
    2.5229    3.4928    2.5102 H   0  0  0  0  0  0  0  0  0  0  0  0
    0.8121    3.1938    3.6263 O   0  0  0  0  0  0  0  0  0  0  0  0
    0.8347    2.2307    3.6873 H   0  0  0  0  0  0  0  0  0  0  0  0
    9.7676    0.8868    5.7356 C   0  0  0  0  0  0  0  0  0  0  0  0
   10.6459    1.2805    6.7410 C   0  0  0  0  0  0  0  0  0  0  0  0
   10.2675    1.4357    7.7437 H   0  0  0  0  0  0  0  0  0  0  0  0
   11.9808    1.4883    6.4459 C   0  0  0  0  0  0  0  0  0  0  0  0
   12.6609    1.7976    7.2246 H   0  0  0  0  0  0  0  0  0  0  0  0
   12.4424    1.3082    5.1511 C   0  0  0  0  0  0  0  0  0  0  0  0
   13.4833    1.4782    4.9199 H   0  0  0  0  0  0  0  0  0  0  0  0
   11.5693    0.9151    4.1497 C   0  0  0  0  0  0  0  0  0  0  0  0
   11.9289    0.7759    3.1407 H   0  0  0  0  0  0  0  0  0  0  0  0
   10.2330    0.7002    4.4374 C   0  0  0  0  0  0  0  0  0  0  0  0
    9.5518    0.3895    3.6570 H   0  0  0  0  0  0  0  0  0  0  0  0
    7.9701   -1.1702    6.6180 C   0  0  0  0  0  0  0  0  0  0  0  0
    9.0478   -2.0028    6.3307 C   0  0  0  0  0  0  0  0  0  0  0  0
    9.9318   -1.6028    5.8562 H   0  0  0  0  0  0  0  0  0  0  0  0
    8.9904   -3.3450    6.6614 C   0  0  0  0  0  0  0  0  0  0  0  0
    9.8306   -3.9859    6.4386 H   0  0  0  0  0  0  0  0  0  0  0  0
    7.8669   -3.8638    7.2827 C   0  0  0  0  0  0  0  0  0  0  0  0
    7.8298   -4.9104    7.5457 H   0  0  0  0  0  0  0  0  0  0  0  0
    6.7949   -3.0361    7.5752 C   0  0  0  0  0  0  0  0  0  0  0  0
    5.9219   -3.4358    8.0691 H   0  0  0  0  0  0  0  0  0  0  0  0
    6.8428   -1.6940    7.2479 C   0  0  0  0  0  0  0  0  0  0  0  0
    6.0152   -1.0447    7.4907 H   0  0  0  0  0  0  0  0  0  0  0  0
    7.1223    0.7648    4.6253 C   0  0  0  0  0  0  0  0  0  0  0  0
    6.2517   -0.2100    4.1534 C   0  0  0  0  0  0  0  0  0  0  0  0
    6.1653   -1.1518    4.6766 H   0  0  0  0  0  0  0  0  0  0  0  0
    5.4949    0.0356    3.0202 C   0  0  0  0  0  0  0  0  0  0  0  0
    4.8178   -0.7220    2.6538 H   0  0  0  0  0  0  0  0  0  0  0  0
    5.6010    1.2489    2.3604 C   0  0  0  0  0  0  0  0  0  0  0  0
    5.0052    1.4372    1.4793 H   0  0  0  0  0  0  0  0  0  0  0  0
    6.4733    2.2214    2.8267 C   0  0  0  0  0  0  0  0  0  0  0  0
    6.5558    3.1666    2.3114 H   0  0  0  0  0  0  0  0  0  0  0  0
    7.2306    1.9841    3.9580 C   0  0  0  0  0  0  0  0  0  0  0  0
    7.8992    2.7404    4.3480 H   0  0  0  0  0  0  0  0  0  0  0  0
  1  7  1  0  0  0  0
  1  3  1  0  0  0  0
  1  2  1  0  0  0  0
  4 32  1  0  0  0  0
  4  1  1  0  0  0  0
  5  1  1  0  0  0  0
  6  1  1  0  0  0  0
  8  9  1  0  0  0  0
  9 10  1  0  0  0  0
  9 11  1  0  0  0  0
 11  5  1  0  0  0  0
 12 11  2  0  0  0  0
 12  6  1  0  0  0  0
 13 12  1  0  0  0  0
 14 13  1  0  0  0  0
 15  8  1  0  0  0  0
 15 13  2  0  0  0  0
 16 19  1  0  0  0  0
 16 17  1  0  0  0  0
 16 15  1  0  0  0  0
 18 16  1  0  0  0  0
 19 20  1  0  0  0  0
 21  4  1  0  0  0  0
 21 22  1  0  0  0  0
 22 23  1  0  0  0  0
 24 22  2  0  0  0  0
 24 25  1  0  0  0  0
 26 24  1  0  0  0  0
 27 26  1  0  0  0  0
 28 30  1  0  0  0  0
 28 26  2  0  0  0  0
 29 28  1  0  0  0  0
 30 21  2  0  0  0  0
 31 30  1  0  0  0  0
 32 41  1  0  0  0  0
 33 32  2  0  0  0  0
 33 35  1  0  0  0  0
 34 33  1  0  0  0  0
 35 37  2  0  0  0  0
 36 35  1  0  0  0  0
 37 38  1  0  0  0  0
 37 39  1  0  0  0  0
 39 40  1  0  0  0  0
 41 42  1  0  0  0  0
 41 39  2  0  0  0  0
 43  4  1  0  0  0  0
 44 43  1  0  0  0  0
 44 45  1  0  0  0  0
 46 44  2  0  0  0  0
 47 46  1  0  0  0  0
 48 50  2  0  0  0  0
 48 46  1  0  0  0  0
 49 48  1  0  0  0  0
 50 52  1  0  0  0  0
 51 50  1  0  0  0  0
 52 53  1  0  0  0  0
 52 43  2  0  0  0  0
M  END
$$$$
