CSD_code = AGUDIR | q = 0 | S = 0 | Stoichiometry = C33H52Cl3N2PRu | MND = 5
 OpenBabel04212202003D

 92 94  0  0  0  0  0  0  0  0999 V2000
    3.1253    2.3654    8.1426 C   0  0  0  0  0  3  0  0  0  0  0  0
    3.0089    3.2379    8.7893 H   0  0  0  0  0  0  0  0  0  0  0  0
    2.0251    4.2487    6.0543 C   0  0  0  0  0  3  0  0  0  0  0  0
    1.6799    6.5566    6.0463 C   0  0  0  0  0  0  0  0  0  0  0  0
    2.4812    7.2906    5.9212 H   0  0  0  0  0  0  0  0  0  0  0  0
    0.8772    7.0279    6.6224 H   0  0  0  0  0  0  0  0  0  0  0  0
    1.1940    5.9776    4.7173 C   0  0  0  0  0  0  0  0  0  0  0  0
    0.1273    6.1491    4.5472 H   0  0  0  0  0  0  0  0  0  0  0  0
    1.7484    6.3711    3.8599 H   0  0  0  0  0  0  0  0  0  0  0  0
    2.6931    5.5168    8.0606 C   0  0  0  0  0  0  0  0  0  0  0  0
    4.0499    5.8062    8.2274 C   0  0  0  0  0  0  0  0  0  0  0  0
    4.5180    5.9998    9.5206 C   0  0  0  0  0  0  0  0  0  0  0  0
    5.5578    6.2257    9.6922 H   0  0  0  0  0  0  0  0  0  0  0  0
    3.6583    5.9100   10.5999 C   0  0  0  0  0  0  0  0  0  0  0  0
    4.0363    6.0778   11.5982 H   0  0  0  0  0  0  0  0  0  0  0  0
    2.3238    5.5931   10.4189 C   0  0  0  0  0  0  0  0  0  0  0  0
    1.6799    5.5095   11.2789 H   0  0  0  0  0  0  0  0  0  0  0  0
    1.8184    5.3787    9.1440 C   0  0  0  0  0  0  0  0  0  0  0  0
    1.1611    3.5934    3.8743 C   0  0  0  0  0  0  0  0  0  0  0  0
    2.1298    3.2726    2.9138 C   0  0  0  0  0  0  0  0  0  0  0  0
    1.8651    2.2305    2.0322 C   0  0  0  0  0  0  0  0  0  0  0  0
    2.6229    1.9463    1.3165 H   0  0  0  0  0  0  0  0  0  0  0  0
    0.6569    1.5611    2.0660 C   0  0  0  0  0  0  0  0  0  0  0  0
    0.4784    0.7333    1.3956 H   0  0  0  0  0  0  0  0  0  0  0  0
   -0.3367    1.9771    2.9324 C   0  0  0  0  0  0  0  0  0  0  0  0
   -1.3012    1.4911    2.9236 H   0  0  0  0  0  0  0  0  0  0  0  0
   -0.1103    3.0057    3.8374 C   0  0  0  0  0  0  0  0  0  0  0  0
    5.6439    0.8023    8.1066 C   0  0  0  0  0  0  0  0  0  0  0  0
    5.3239    0.6145    7.0755 H   0  0  0  0  0  0  0  0  0  0  0  0
    4.4310    2.0268   10.5734 C   0  0  0  0  0  0  0  0  0  0  0  0
    4.7716    2.9956   10.1799 H   0  0  0  0  0  0  0  0  0  0  0  0
    3.1631   -0.5095    9.4182 C   0  0  0  0  0  0  0  0  0  0  0  0
    3.3675   -1.1433    8.5498 H   0  0  0  0  0  0  0  0  0  0  0  0
    4.9400    5.8520    7.0147 C   0  0  0  0  0  0  0  0  0  0  0  0
    4.6031    6.6581    6.3564 H   0  0  0  0  0  0  0  0  0  0  0  0
    4.8043    4.9132    6.4653 H   0  0  0  0  0  0  0  0  0  0  0  0
    6.4230    6.0507    7.2982 C   0  0  0  0  0  0  0  0  0  0  0  0
    6.6098    7.0142    7.7688 H   0  0  0  0  0  0  0  0  0  0  0  0
    6.9738    6.0171    6.3616 H   0  0  0  0  0  0  0  0  0  0  0  0
    6.8062    5.2615    7.9399 H   0  0  0  0  0  0  0  0  0  0  0  0
    0.4007    4.9442    8.8806 C   0  0  0  0  0  0  0  0  0  0  0  0
    0.4418    4.0230    8.2861 H   0  0  0  0  0  0  0  0  0  0  0  0
   -0.0980    5.7001    8.2668 H   0  0  0  0  0  0  0  0  0  0  0  0
   -0.4451    4.6904   10.1210 C   0  0  0  0  0  0  0  0  0  0  0  0
    0.0039    3.9227   10.7463 H   0  0  0  0  0  0  0  0  0  0  0  0
   -1.4296    4.3420    9.8186 H   0  0  0  0  0  0  0  0  0  0  0  0
   -0.5703    5.5983   10.7078 H   0  0  0  0  0  0  0  0  0  0  0  0
    3.3690    4.1010    2.7128 C   0  0  0  0  0  0  0  0  0  0  0  0
    4.2234    3.4484    2.5290 H   0  0  0  0  0  0  0  0  0  0  0  0
    3.5964    4.6918    3.6006 H   0  0  0  0  0  0  0  0  0  0  0  0
    3.1772    5.0257    1.5079 C   0  0  0  0  0  0  0  0  0  0  0  0
    3.0185    4.4451    0.6022 H   0  0  0  0  0  0  0  0  0  0  0  0
    4.0585    5.6480    1.3695 H   0  0  0  0  0  0  0  0  0  0  0  0
    2.3121    5.6733    1.6456 H   0  0  0  0  0  0  0  0  0  0  0  0
   -1.2537    3.5125    4.6727 C   0  0  0  0  0  0  0  0  0  0  0  0
   -0.8876    4.0883    5.5231 H   0  0  0  0  0  0  0  0  0  0  0  0
   -1.8134    2.6658    5.0713 H   0  0  0  0  0  0  0  0  0  0  0  0
   -2.1870    4.3712    3.8157 C   0  0  0  0  0  0  0  0  0  0  0  0
   -1.6527    5.2105    3.3724 H   0  0  0  0  0  0  0  0  0  0  0  0
   -3.0023    4.7599    4.4218 H   0  0  0  0  0  0  0  0  0  0  0  0
   -2.6101    3.7810    3.0063 H   0  0  0  0  0  0  0  0  0  0  0  0
    6.4556    2.0937    8.1005 C   0  0  0  0  0  0  0  0  0  0  0  0
    6.8781    2.3282    9.0748 H   0  0  0  0  0  0  0  0  0  0  0  0
    5.8208    2.9168    7.7712 H   0  0  0  0  0  0  0  0  0  0  0  0
    7.2727    1.9989    7.3882 H   0  0  0  0  0  0  0  0  0  0  0  0
    6.4304   -0.4100    8.5857 C   0  0  0  0  0  0  0  0  0  0  0  0
    7.3156   -0.5218    7.9615 H   0  0  0  0  0  0  0  0  0  0  0  0
    5.8349   -1.3139    8.4839 H   0  0  0  0  0  0  0  0  0  0  0  0
    6.7582   -0.3125    9.6178 H   0  0  0  0  0  0  0  0  0  0  0  0
    3.1555    2.2749   11.3773 C   0  0  0  0  0  0  0  0  0  0  0  0
    2.8838    1.3990   11.9607 H   0  0  0  0  0  0  0  0  0  0  0  0
    2.3223    2.5306   10.7254 H   0  0  0  0  0  0  0  0  0  0  0  0
    3.3110    3.1016   12.0688 H   0  0  0  0  0  0  0  0  0  0  0  0
    5.5273    1.4863   11.4849 C   0  0  0  0  0  0  0  0  0  0  0  0
    5.6956    2.2037   12.2882 H   0  0  0  0  0  0  0  0  0  0  0  0
    6.4671    1.3566   10.9573 H   0  0  0  0  0  0  0  0  0  0  0  0
    5.2511    0.5405   11.9389 H   0  0  0  0  0  0  0  0  0  0  0  0
    3.6673   -1.2147   10.6714 C   0  0  0  0  0  0  0  0  0  0  0  0
    3.3724   -0.6887   11.5756 H   0  0  0  0  0  0  0  0  0  0  0  0
    4.7467   -1.3371   10.6612 H   0  0  0  0  0  0  0  0  0  0  0  0
    3.2178   -2.2063   10.7085 H   0  0  0  0  0  0  0  0  0  0  0  0
    1.6599   -0.2585    9.4872 C   0  0  0  0  0  0  0  0  0  0  0  0
    1.1325   -1.2101    9.5066 H   0  0  0  0  0  0  0  0  0  0  0  0
    1.3250    0.2952    8.6101 H   0  0  0  0  0  0  0  0  0  0  0  0
    1.3858    0.3023   10.3773 H   0  0  0  0  0  0  0  0  0  0  0  0
    3.0672    0.0348    6.4019 Cl  0  0  0  0  0  0  0  0  0  0  0  0
    4.4737    2.6573    5.2025 Cl  0  0  0  0  0  0  0  0  0  0  0  0
    0.3476    1.7201    6.5897 Cl  0  0  0  0  0  0  0  0  0  0  0  0
    2.1775    5.3730    6.7473 N   0  0  0  0  0  0  0  0  0  0  0  0
    1.4620    4.5541    4.8845 N   0  0  0  0  0  0  0  0  0  0  0  0
    4.0330    1.0932    8.9935 P   0  0  0  0  0  4  0  0  0  0  0  0
    2.5347    2.3092    6.3501 Ru  0  0  0  0  0  0  0  0  0  0  0  0
  1  2  1  0  0  0  0
  1 91  1  0  0  0  0
  3 92  1  0  0  0  0
  3 89  1  0  0  0  0
  4  6  1  0  0  0  0
  4 89  1  0  0  0  0
  5  4  1  0  0  0  0
  7 90  1  0  0  0  0
  7  4  1  0  0  0  0
  8  7  1  0  0  0  0
  9  7  1  0  0  0  0
 10 11  2  0  0  0  0
 10 18  1  0  0  0  0
 11 12  1  0  0  0  0
 12 13  1  0  0  0  0
 12 14  2  0  0  0  0
 14 15  1  0  0  0  0
 16 14  1  0  0  0  0
 16 17  1  0  0  0  0
 18 16  2  0  0  0  0
 19 90  1  0  0  0  0
 20 19  2  0  0  0  0
 21 23  2  0  0  0  0
 21 20  1  0  0  0  0
 22 21  1  0  0  0  0
 23 25  1  0  0  0  0
 24 23  1  0  0  0  0
 25 27  2  0  0  0  0
 26 25  1  0  0  0  0
 27 19  1  0  0  0  0
 27 55  1  0  0  0  0
 28 66  1  0  0  0  0
 28 91  1  0  0  0  0
 29 28  1  0  0  0  0
 30 70  1  0  0  0  0
 30 74  1  0  0  0  0
 31 30  1  0  0  0  0
 32 82  1  0  0  0  0
 32 78  1  0  0  0  0
 33 32  1  0  0  0  0
 34 37  1  0  0  0  0
 34 11  1  0  0  0  0
 35 34  1  0  0  0  0
 36 34  1  0  0  0  0
 37 38  1  0  0  0  0
 37 40  1  0  0  0  0
 39 37  1  0  0  0  0
 41 18  1  0  0  0  0
 41 44  1  0  0  0  0
 42 41  1  0  0  0  0
 43 41  1  0  0  0  0
 44 47  1  0  0  0  0
 44 45  1  0  0  0  0
 46 44  1  0  0  0  0
 48 20  1  0  0  0  0
 48 50  1  0  0  0  0
 49 48  1  0  0  0  0
 51 54  1  0  0  0  0
 51 48  1  0  0  0  0
 52 51  1  0  0  0  0
 53 51  1  0  0  0  0
 55 57  1  0  0  0  0
 55 56  1  0  0  0  0
 58 60  1  0  0  0  0
 58 55  1  0  0  0  0
 59 58  1  0  0  0  0
 61 58  1  0  0  0  0
 62 28  1  0  0  0  0
 62 63  1  0  0  0  0
 64 62  1  0  0  0  0
 65 62  1  0  0  0  0
 66 69  1  0  0  0  0
 67 66  1  0  0  0  0
 68 66  1  0  0  0  0
 70 71  1  0  0  0  0
 70 73  1  0  0  0  0
 72 70  1  0  0  0  0
 74 77  1  0  0  0  0
 74 75  1  0  0  0  0
 76 74  1  0  0  0  0
 78 81  1  0  0  0  0
 78 79  1  0  0  0  0
 80 78  1  0  0  0  0
 82 83  1  0  0  0  0
 82 85  1  0  0  0  0
 84 82  1  0  0  0  0
 87 92  1  0  0  0  0
 89 10  1  0  0  0  0
 90  3  1  0  0  0  0
 91 32  1  0  0  0  0
 91 30  1  0  0  0  0
 92 86  1  0  0  0  0
 92 88  1  0  0  0  0
 92  1  1  0  0  0  0
M  END
$$$$
