CSD_code = AGUFIT | q = 0 | S = 0 | Stoichiometry = C21H18Cl2N3O2PPd | MND = 4
 OpenBabel04212202003D

 48 51  0  0  0  0  0  0  0  0999 V2000
    4.9523    7.9919    2.1510 Pd  0  0  0  0  0  0  0  0  0  0  0  0
    2.6726    7.2415   -0.1324 C   0  0  0  0  0  0  0  0  0  0  0  0
    1.4627    7.1879   -0.8188 C   0  0  0  0  0  0  0  0  0  0  0  0
    0.6057    7.7296   -0.4417 H   0  0  0  0  0  0  0  0  0  0  0  0
    1.3606    6.4239   -1.9669 C   0  0  0  0  0  0  0  0  0  0  0  0
    0.4257    6.3864   -2.5063 H   0  0  0  0  0  0  0  0  0  0  0  0
    2.4529    5.7013   -2.4220 C   0  0  0  0  0  0  0  0  0  0  0  0
    2.3671    5.1073   -3.3195 H   0  0  0  0  0  0  0  0  0  0  0  0
    3.6487    5.7266   -1.7223 C   0  0  0  0  0  0  0  0  0  0  0  0
    4.4912    5.1477   -2.0698 H   0  0  0  0  0  0  0  0  0  0  0  0
    3.7598    6.4930   -0.5761 C   0  0  0  0  0  0  0  0  0  0  0  0
    4.6952    6.5147   -0.0052 H   0  0  0  0  0  0  0  0  0  0  0  0
    1.4275    7.7275    2.3651 C   0  0  0  0  0  0  0  0  0  0  0  0
    0.5942    8.6620    2.9670 C   0  0  0  0  0  0  0  0  0  0  0  0
    0.7868    9.7191    2.8453 H   0  0  0  0  0  0  0  0  0  0  0  0
   -0.4826    8.2325    3.7237 C   0  0  0  0  0  0  0  0  0  0  0  0
   -1.1312    8.9585    4.1915 H   0  0  0  0  0  0  0  0  0  0  0  0
   -0.7240    6.8790    3.8869 C   0  0  0  0  0  0  0  0  0  0  0  0
   -1.5615    6.5495    4.4835 H   0  0  0  0  0  0  0  0  0  0  0  0
    0.1121    5.9458    3.2928 C   0  0  0  0  0  0  0  0  0  0  0  0
   -0.0713    4.8906    3.4286 H   0  0  0  0  0  0  0  0  0  0  0  0
    1.1868    6.3663    2.5346 C   0  0  0  0  0  0  0  0  0  0  0  0
    1.8571    5.6486    2.0798 H   0  0  0  0  0  0  0  0  0  0  0  0
    2.6448    9.9736    1.0578 C   0  0  0  0  0  0  0  0  0  0  0  0
    3.2315   10.8133    2.0064 C   0  0  0  0  0  0  0  0  0  0  0  0
    3.7744   10.3662    2.8481 H   0  0  0  0  0  0  0  0  0  0  0  0
    3.1420   12.1843    1.8668 C   0  0  0  0  0  0  0  0  0  0  0  0
    3.5972   12.8354    2.5981 H   0  0  0  0  0  0  0  0  0  0  0  0
    2.4785   12.7218    0.7732 C   0  0  0  0  0  0  0  0  0  0  0  0
    2.4165   13.7934    0.6562 H   0  0  0  0  0  0  0  0  0  0  0  0
    1.9118   11.8899   -0.1772 C   0  0  0  0  0  0  0  0  0  0  0  0
    1.4118   12.3131   -1.0359 H   0  0  0  0  0  0  0  0  0  0  0  0
    1.9908   10.5134   -0.0399 C   0  0  0  0  0  0  0  0  0  0  0  0
    1.5667    9.8660   -0.7932 H   0  0  0  0  0  0  0  0  0  0  0  0
    9.0868    8.2392    2.5931 C   0  0  0  0  0  3  0  0  0  0  0  0
    9.9859    8.6262    2.1586 H   0  0  0  0  0  0  0  0  0  0  0  0
    8.9114    7.4836    3.7493 C   0  0  0  0  0  0  0  0  0  0  0  0
    7.5258    7.2516    3.8450 C   0  0  0  0  0  0  0  0  0  0  0  0
    6.9813    6.7077    4.5948 H   0  0  0  0  0  0  0  0  0  0  0  0
    4.1693    6.7800    3.8848 Cl  0  0  0  0  0  0  0  0  0  0  0  0
    5.7251    9.2655    0.3474 Cl  0  0  0  0  0  0  0  0  0  0  0  0
    6.9330    7.8288    2.8202 N   0  0  0  0  0  0  0  0  0  0  0  0
    7.8762    8.4173    2.0760 N   0  0  0  0  0  0  0  0  0  0  0  0
    7.5226    8.9140    1.2277 H   0  0  0  0  0  0  0  0  0  0  0  0
    9.9246    7.0444    4.6372 N   0  0  0  0  0  0  0  0  0  0  0  0
    9.5826    6.3897    5.5972 O   0  0  0  0  0  0  0  0  0  0  0  0
   11.0664    7.3577    4.3690 O   0  0  0  0  0  0  0  0  0  0  0  0
    2.8815    8.2033    1.3909 P   0  0  0  0  0  4  0  0  0  0  0  0
  1 42  1  0  0  0  0
  1 40  1  0  0  0  0
  2 48  1  0  0  0  0
  3  4  1  0  0  0  0
  3  2  2  0  0  0  0
  5  3  1  0  0  0  0
  6  5  1  0  0  0  0
  7  5  2  0  0  0  0
  7  9  1  0  0  0  0
  8  7  1  0  0  0  0
  9 11  2  0  0  0  0
 10  9  1  0  0  0  0
 11  2  1  0  0  0  0
 11 12  1  0  0  0  0
 13 22  2  0  0  0  0
 13 14  1  0  0  0  0
 14 16  2  0  0  0  0
 15 14  1  0  0  0  0
 16 18  1  0  0  0  0
 16 17  1  0  0  0  0
 18 19  1  0  0  0  0
 20 21  1  0  0  0  0
 20 18  2  0  0  0  0
 22 20  1  0  0  0  0
 23 22  1  0  0  0  0
 24 48  1  0  0  0  0
 24 25  1  0  0  0  0
 25 26  1  0  0  0  0
 27 25  2  0  0  0  0
 27 28  1  0  0  0  0
 29 27  1  0  0  0  0
 30 29  1  0  0  0  0
 31 33  1  0  0  0  0
 31 29  2  0  0  0  0
 32 31  1  0  0  0  0
 33 24  2  0  0  0  0
 34 33  1  0  0  0  0
 35 37  1  0  0  0  0
 36 35  1  0  0  0  0
 37 38  2  0  0  0  0
 37 45  1  0  0  0  0
 38 39  1  0  0  0  0
 41  1  1  0  0  0  0
 42 38  1  0  0  0  0
 43 35  1  0  0  0  0
 43 42  1  0  0  0  0
 44 43  1  0  0  0  0
 45 46  2  0  0  0  0
 47 45  2  0  0  0  0
 48  1  1  0  0  0  0
 48 13  1  0  0  0  0
M  END
$$$$
