CSD_code = AGUJOC | q = 1 | S = 0 | Stoichiometry = C18H22ClN4O4Zn(1+) | MND = 5
 OpenBabel04212202003D

 50 54  0  0  1  0  0  0  0  0999 V2000
    0.3458    8.2708    2.3208 Zn  0  0  0  0  0  0  0  0  0  0  0  0
    0.8482   10.2382    1.5449 Cl  0  0  0  0  0  0  0  0  0  0  0  0
    0.9955    7.2870    0.7258 O   0  0  0  0  0  0  0  0  0  0  0  0
    1.7980    7.8091    3.5524 O   0  0  0  0  0  0  0  0  0  0  0  0
   -1.5277    7.7225    1.5837 N   0  0  2  0  0  0  0  0  0  0  0  0
   -0.8109    8.4704    4.0625 N   0  0  2  0  0  0  0  0  0  0  0  0
    0.5496    7.6972   -0.3731 C   0  0  0  0  0  0  0  0  0  0  0  0
    1.4855    8.0537   -1.4131 C   0  0  1  0  0  3  0  0  0  0  0  0
    1.0456    8.4147   -2.6072 N   0  0  0  0  0  0  0  0  0  0  0  0
    1.7333    8.6955   -3.3027 H   0  0  0  0  0  0  0  0  0  0  0  0
   -0.2595    8.4640   -2.9452 C   0  0  0  0  0  0  0  0  0  0  0  0
   -0.4955    8.7483   -3.9569 H   0  0  0  0  0  0  0  0  0  0  0  0
   -1.2273    8.2114   -1.9994 C   0  0  0  0  0  0  0  0  0  0  0  0
   -2.6833    8.3611   -2.3943 C   0  0  0  0  0  0  0  0  0  0  0  0
   -3.1182    9.2059   -1.8507 H   0  0  0  0  0  0  0  0  0  0  0  0
   -2.7447    8.5836   -3.4665 H   0  0  0  0  0  0  0  0  0  0  0  0
    2.9258    8.1076   -1.0857 C   0  0  0  0  0  0  0  0  0  0  0  0
    3.5426    8.3127   -1.9565 H   0  0  0  0  0  0  0  0  0  0  0  0
    3.2290    7.1735   -0.6153 H   0  0  0  0  0  0  0  0  0  0  0  0
    3.0731    8.8890   -0.3364 H   0  0  0  0  0  0  0  0  0  0  0  0
   -3.4749    7.2466   -2.0670 O   0  0  0  0  0  0  0  0  0  0  0  0
   -3.2442    6.5025   -2.6339 H   0  0  0  0  0  0  0  0  0  0  0  0
   -0.8430    7.8623   -0.6915 C   0  0  0  0  0  0  0  0  0  0  0  0
   -1.8344    7.7356    0.3488 C   0  0  0  0  0  3  0  0  0  0  0  0
   -2.8778    7.6598    0.0370 H   0  0  0  0  0  0  0  0  0  0  0  0
   -2.5323    7.6261    2.5985 C   0  0  0  0  0  0  0  0  0  0  0  0
   -2.4857    6.6123    3.0119 H   0  0  0  0  0  0  0  0  0  0  0  0
   -3.5428    7.8091    2.2118 H   0  0  0  0  0  0  0  0  0  0  0  0
   -2.1912    8.6253    3.7122 C   0  0  0  0  0  0  0  0  0  0  0  0
   -2.3156    9.6403    3.3172 H   0  0  0  0  0  0  0  0  0  0  0  0
   -2.8604    8.4960    4.5717 H   0  0  0  0  0  0  0  0  0  0  0  0
   -0.4290    8.5925    5.2696 C   0  0  0  0  0  3  0  0  0  0  0  0
   -1.1606    8.8172    6.0469 H   0  0  0  0  0  0  0  0  0  0  0  0
    0.9486    8.5070    5.6872 C   0  0  0  0  0  0  0  0  0  0  0  0
    1.2962    8.7973    7.0205 C   0  0  0  0  0  0  0  0  0  0  0  0
    2.6219    8.8101    7.3924 C   0  0  0  0  0  3  0  0  0  0  0  0
    2.9425    9.0408    8.3941 H   0  0  0  0  0  0  0  0  0  0  0  0
    3.5827    8.5424    6.4862 N   0  0  0  0  0  0  0  0  0  0  0  0
    4.5542    8.5950    6.7852 H   0  0  0  0  0  0  0  0  0  0  0  0
    3.3381    8.2270    5.2247 C   0  0  0  0  0  0  0  0  0  0  0  0
    0.2612    9.1186    8.0745 C   0  0  0  0  0  0  0  0  0  0  0  0
   -0.3992    8.2465    8.2101 H   0  0  0  0  0  0  0  0  0  0  0  0
    0.7748    9.3040    9.0251 H   0  0  0  0  0  0  0  0  0  0  0  0
   -0.4816   10.2486    7.6760 O   0  0  0  0  0  0  0  0  0  0  0  0
   -0.9688   10.5982    8.4295 H   0  0  0  0  0  0  0  0  0  0  0  0
    4.4461    7.9699    4.2786 C   0  0  0  0  0  0  0  0  0  0  0  0
    5.4195    8.0191    4.7593 H   0  0  0  0  0  0  0  0  0  0  0  0
    4.3976    8.6968    3.4667 H   0  0  0  0  0  0  0  0  0  0  0  0
    4.3066    6.9940    3.8141 H   0  0  0  0  0  0  0  0  0  0  0  0
    1.9776    8.1626    4.7427 C   0  0  0  0  0  0  0  0  0  0  0  0
  1  4  1  0  0  0  0
  1  6  1  0  0  0  0
  2  1  1  0  0  0  0
  3  1  1  0  0  0  0
  4 50  1  0  0  0  0
  5 24  1  6  0  0  0
  5  1  1  0  0  0  0
  5 26  1  0  0  0  0
  6 32  1  6  0  0  0
  7  3  1  0  0  0  0
  8 17  1  1  0  0  0
  8  7  1  0  0  0  0
  9  8  1  0  0  0  0
 10  9  1  0  0  0  0
 11  9  1  0  0  0  0
 11 13  2  0  0  0  0
 12 11  1  0  0  0  0
 13 23  1  0  0  0  0
 14 21  1  0  0  0  0
 14 13  1  0  0  0  0
 14 15  1  0  0  0  0
 16 14  1  0  0  0  0
 17 19  1  0  0  0  0
 17 20  1  0  0  0  0
 18 17  1  0  0  0  0
 22 21  1  0  0  0  0
 23  7  2  0  0  0  0
 23 24  1  0  0  0  0
 25 24  1  0  0  0  0
 26 27  1  0  0  0  0
 26 29  1  0  0  0  0
 28 26  1  0  0  0  0
 29  6  1  0  0  0  0
 29 31  1  0  0  0  0
 30 29  1  0  0  0  0
 32 34  1  0  0  0  0
 32 33  1  0  0  0  0
 34 35  2  0  0  0  0
 35 36  1  0  0  0  0
 35 41  1  0  0  0  0
 36 37  1  0  0  0  0
 38 39  1  0  0  0  0
 38 36  1  0  0  0  0
 40 38  1  0  0  0  0
 41 42  1  0  0  0  0
 41 43  1  0  0  0  0
 44 41  1  0  0  0  0
 44 45  1  0  0  0  0
 46 47  1  0  0  0  0
 46 40  1  0  0  0  0
 48 46  1  0  0  0  0
 49 46  1  0  0  0  0
 50 40  2  0  0  0  0
 50 34  1  0  0  0  0
M  END
$$$$
