CSD_code = AGUKOD | q = 0 | S = 0 | Stoichiometry = C29H37ClNORh | MND = 6
 OpenBabel04212202003D

 70 72  0  0  1  0  0  0  0  0999 V2000
    6.2911   -2.3808   -2.9589 C   0  0  1  0  0  3  0  0  0  0  0  0
    6.9526   -1.1776   -4.6657 C   0  0  0  0  0  0  0  0  0  0  0  0
    7.8053   -2.2786   -4.5925 C   0  0  0  0  0  0  0  0  0  0  0  0
    8.8171   -2.4837   -5.5146 C   0  0  0  0  0  0  0  0  0  0  0  0
    9.4324   -3.3637   -5.4534 H   0  0  0  0  0  0  0  0  0  0  0  0
    8.9751   -1.5295   -6.5080 C   0  0  0  0  0  0  0  0  0  0  0  0
    8.1095   -0.4292   -6.5535 C   0  0  0  0  0  0  0  0  0  0  0  0
    8.2534    0.2884   -7.3420 H   0  0  0  0  0  0  0  0  0  0  0  0
    7.0709   -0.2130   -5.6604 C   0  0  0  0  0  0  0  0  0  0  0  0
   10.0668   -1.6372   -7.5631 C   0  0  0  0  0  0  0  0  0  0  0  0
   10.9278   -2.8920   -7.3921 C   0  0  0  0  0  0  0  0  0  0  0  0
   11.4350   -2.8926   -6.4300 H   0  0  0  0  0  0  0  0  0  0  0  0
   11.6877   -2.9168   -8.1702 H   0  0  0  0  0  0  0  0  0  0  0  0
   10.3278   -3.7943   -7.4817 H   0  0  0  0  0  0  0  0  0  0  0  0
    9.4220   -1.6890   -8.9550 C   0  0  0  0  0  0  0  0  0  0  0  0
    8.7437   -2.5366   -9.0227 H   0  0  0  0  0  0  0  0  0  0  0  0
   10.1898   -1.7987   -9.7177 H   0  0  0  0  0  0  0  0  0  0  0  0
    8.8594   -0.7849   -9.1684 H   0  0  0  0  0  0  0  0  0  0  0  0
   10.9856   -0.4114   -7.4579 C   0  0  0  0  0  0  0  0  0  0  0  0
   10.4420    0.5111   -7.6400 H   0  0  0  0  0  0  0  0  0  0  0  0
   11.7880   -0.4829   -8.1888 H   0  0  0  0  0  0  0  0  0  0  0  0
   11.4275   -0.3562   -6.4651 H   0  0  0  0  0  0  0  0  0  0  0  0
    6.0938    0.9428   -5.7328 C   0  0  0  0  0  0  0  0  0  0  0  0
    6.4097    1.9042   -6.8800 C   0  0  0  0  0  0  0  0  0  0  0  0
    7.4003    2.3394   -6.7657 H   0  0  0  0  0  0  0  0  0  0  0  0
    5.6842    2.7145   -6.8804 H   0  0  0  0  0  0  0  0  0  0  0  0
    6.3481    1.3998   -7.8416 H   0  0  0  0  0  0  0  0  0  0  0  0
    6.1436    1.7192   -4.4099 C   0  0  0  0  0  0  0  0  0  0  0  0
    5.8480    1.0854   -3.5791 H   0  0  0  0  0  0  0  0  0  0  0  0
    5.4629    2.5664   -4.4513 H   0  0  0  0  0  0  0  0  0  0  0  0
    7.1495    2.0928   -4.2259 H   0  0  0  0  0  0  0  0  0  0  0  0
    4.6870    0.3651   -5.9415 C   0  0  0  0  0  0  0  0  0  0  0  0
    4.6463   -0.2064   -6.8667 H   0  0  0  0  0  0  0  0  0  0  0  0
    3.9582    1.1703   -5.9998 H   0  0  0  0  0  0  0  0  0  0  0  0
    4.4081   -0.2904   -5.1215 H   0  0  0  0  0  0  0  0  0  0  0  0
    7.9270   -4.1956   -2.9961 C   0  0  0  0  0  0  0  0  0  0  0  0
    9.3056   -4.2922   -2.8441 C   0  0  0  0  0  0  0  0  0  0  0  0
    9.9384   -3.4602   -3.1153 H   0  0  0  0  0  0  0  0  0  0  0  0
    9.8567   -5.4460   -2.3162 C   0  0  0  0  0  0  0  0  0  0  0  0
   10.9274   -5.5194   -2.1972 H   0  0  0  0  0  0  0  0  0  0  0  0
    9.0406   -6.4968   -1.9317 C   0  0  0  0  0  0  0  0  0  0  0  0
    9.4763   -7.3933   -1.5169 H   0  0  0  0  0  0  0  0  0  0  0  0
    7.6670   -6.3949   -2.0802 C   0  0  0  0  0  0  0  0  0  0  0  0
    7.0293   -7.2149   -1.7861 H   0  0  0  0  0  0  0  0  0  0  0  0
    7.1026   -5.2502   -2.6150 C   0  0  0  0  0  0  0  0  0  0  0  0
    6.0299   -5.1753   -2.7617 H   0  0  0  0  0  0  0  0  0  0  0  0
    6.4575   -3.0584   -0.0328 C   0  0  1  0  0  0  0  0  0  0  0  0
    7.4773   -2.9948   -0.4149 H   0  0  0  0  0  0  0  0  0  0  0  0
    5.7205   -1.8752    0.0373 C   0  0  0  0  0  3  0  0  0  0  0  0
    6.1954   -0.9683   -0.3368 H   0  0  0  0  0  0  0  0  0  0  0  0
    4.6451   -1.6321    1.0755 C   0  0  0  0  0  0  0  0  0  0  0  0
    4.6387   -0.5728    1.3409 H   0  0  0  0  0  0  0  0  0  0  0  0
    4.8925   -2.1885    1.9807 H   0  0  0  0  0  0  0  0  0  0  0  0
    3.2439   -2.0210    0.5675 C   0  0  0  0  0  0  0  0  0  0  0  0
    2.5944   -2.2758    1.4124 H   0  0  0  0  0  0  0  0  0  0  0  0
    2.7990   -1.1582    0.0653 H   0  0  0  0  0  0  0  0  0  0  0  0
    3.2596   -3.1708   -0.4129 C   0  0  0  0  0  3  0  0  0  0  0  0
    2.4170   -3.1709   -1.1045 H   0  0  0  0  0  0  0  0  0  0  0  0
    3.9635   -4.3435   -0.2529 C   0  0  0  0  0  3  0  0  0  0  0  0
    3.6554   -5.2013   -0.8514 H   0  0  0  0  0  0  0  0  0  0  0  0
    4.7677   -4.6804    0.9837 C   0  0  0  0  0  0  0  0  0  0  0  0
    4.7256   -5.7585    1.1513 H   0  0  0  0  0  0  0  0  0  0  0  0
    4.3041   -4.2030    1.8483 H   0  0  0  0  0  0  0  0  0  0  0  0
    6.2446   -4.2571    0.8630 C   0  0  0  0  0  0  0  0  0  0  0  0
    6.6551   -4.0443    1.8568 H   0  0  0  0  0  0  0  0  0  0  0  0
    6.8212   -5.0873    0.4472 H   0  0  0  0  0  0  0  0  0  0  0  0
    3.8642   -3.6927   -3.4593 Cl  0  0  0  0  0 15  0  0  0  0  0  0
    7.3582   -3.0119   -3.5039 N   0  0  0  0  0  0  0  0  0  0  0  0
    6.0554   -1.2701   -3.6397 O   0  0  0  0  0  0  0  0  0  0  0  0
    5.0508   -3.0459   -1.6152 Rh  0  0  0  0  0  0  0  0  0  0  0  0
  1 70  1  6  0  0  0
  2  3  1  0  0  0  0
  2 69  1  0  0  0  0
  3 68  1  0  0  0  0
  4  5  1  0  0  0  0
  4  3  2  0  0  0  0
  6  4  1  0  0  0  0
  7  6  2  0  0  0  0
  7  9  1  0  0  0  0
  8  7  1  0  0  0  0
  9  2  2  0  0  0  0
 10 19  1  0  0  0  0
 10 11  1  0  0  0  0
 10  6  1  0  0  0  0
 11 12  1  0  0  0  0
 13 11  1  0  0  0  0
 14 11  1  0  0  0  0
 15 10  1  0  0  0  0
 16 15  1  0  0  0  0
 17 15  1  0  0  0  0
 18 15  1  0  0  0  0
 19 22  1  0  0  0  0
 20 19  1  0  0  0  0
 21 19  1  0  0  0  0
 23  9  1  0  0  0  0
 23 28  1  0  0  0  0
 24 25  1  0  0  0  0
 24 23  1  0  0  0  0
 26 24  1  0  0  0  0
 27 24  1  0  0  0  0
 28 31  1  0  0  0  0
 28 29  1  0  0  0  0
 30 28  1  0  0  0  0
 32 23  1  0  0  0  0
 32 35  1  0  0  0  0
 33 32  1  0  0  0  0
 34 32  1  0  0  0  0
 36 37  2  0  0  0  0
 36 45  1  0  0  0  0
 37 39  1  0  0  0  0
 38 37  1  0  0  0  0
 39 40  1  0  0  0  0
 39 41  2  0  0  0  0
 41 42  1  0  0  0  0
 43 41  1  0  0  0  0
 43 44  1  0  0  0  0
 45 43  2  0  0  0  0
 46 45  1  0  0  0  0
 47 48  1  6  0  0  0
 47 49  1  0  0  0  0
 47 64  1  0  0  0  0
 49 51  1  0  0  0  0
 50 49  1  0  0  0  0
 51 52  1  0  0  0  0
 51 53  1  0  0  0  0
 54 51  1  0  0  0  0
 54 55  1  0  0  0  0
 56 54  1  0  0  0  0
 57 59  1  0  0  0  0
 57 54  1  0  0  0  0
 58 57  1  0  0  0  0
 59 61  1  0  0  0  0
 60 59  1  0  0  0  0
 61 62  1  0  0  0  0
 61 63  1  0  0  0  0
 64 61  1  0  0  0  0
 64 65  1  0  0  0  0
 66 64  1  0  0  0  0
 68 36  1  0  0  0  0
 68  1  1  0  0  0  0
 69  1  1  0  0  0  0
 70 47  1  0  0  0  0
M  END
$$$$
