CSD_code = AHABOB | q = 0 | S = 0 | Stoichiometry = C36H54Cl2N6Ni | MND = 4
 OpenBabel04212202003D

 99102  0  0  1  0  0  0  0  0999 V2000
   -6.0103    1.4051   10.0148 Ni  0  0  0  0  0  0  0  0  0  0  0  0
   -5.0559    1.3967   11.9167 Cl  0  0  0  0  0  0  0  0  0  0  0  0
   -3.4764    2.4333    8.9953 N   0  0  0  0  0  0  0  0  0  0  0  0
   -3.7921    0.3765    8.4589 N   0  0  0  0  0  0  0  0  0  0  0  0
   -4.1521   -1.6949   10.6861 N   0  0  0  0  0  0  0  0  0  0  0  0
   -4.3014   -0.7000   10.8460 H   0  0  0  0  0  0  0  0  0  0  0  0
   -2.9255    4.0161   10.7535 C   0  0  0  0  0  0  0  0  0  0  0  0
   -3.0672    5.2802   11.3026 C   0  0  0  0  0  0  0  0  0  0  0  0
   -2.5523    5.5125   12.2237 H   0  0  0  0  0  0  0  0  0  0  0  0
   -3.8505    6.2528   10.6964 C   0  0  0  0  0  0  0  0  0  0  0  0
   -4.4971    5.9457    9.5103 C   0  0  0  0  0  0  0  0  0  0  0  0
   -5.0923    6.6980    9.0147 H   0  0  0  0  0  0  0  0  0  0  0  0
   -4.3977    4.6876    8.9336 C   0  0  0  0  0  0  0  0  0  0  0  0
   -3.6165    3.7272    9.5746 C   0  0  0  0  0  0  0  0  0  0  0  0
   -2.0763    2.9811   11.4218 C   0  0  0  0  0  0  0  0  0  0  0  0
   -1.5014    3.4224   12.2313 H   0  0  0  0  0  0  0  0  0  0  0  0
   -1.3908    2.5112   10.7177 H   0  0  0  0  0  0  0  0  0  0  0  0
   -2.7210    2.2060   11.8383 H   0  0  0  0  0  0  0  0  0  0  0  0
   -3.9842    7.6081   11.3233 C   0  0  0  0  0  0  0  0  0  0  0  0
   -3.0038    8.0234   11.5510 H   0  0  0  0  0  0  0  0  0  0  0  0
   -4.5366    7.5358   12.2604 H   0  0  0  0  0  0  0  0  0  0  0  0
   -4.5094    8.2938   10.6627 H   0  0  0  0  0  0  0  0  0  0  0  0
   -5.1056    4.3778    7.6535 C   0  0  0  0  0  0  0  0  0  0  0  0
   -4.4303    3.9225    6.9293 H   0  0  0  0  0  0  0  0  0  0  0  0
   -5.5309    5.2795    7.2218 H   0  0  0  0  0  0  0  0  0  0  0  0
   -5.9193    3.6752    7.8338 H   0  0  0  0  0  0  0  0  0  0  0  0
   -4.3367    1.4064    9.1329 C   0  0  2  0  0  3  0  0  0  0  0  0
   -2.4011    2.0505    8.2382 C   0  0  0  0  0  0  0  0  0  0  0  0
   -1.6057    2.7270    7.9998 H   0  0  0  0  0  0  0  0  0  0  0  0
   -2.6005    0.7552    7.9029 C   0  0  0  0  0  0  0  0  0  0  0  0
   -2.0052    0.0860    7.3161 H   0  0  0  0  0  0  0  0  0  0  0  0
   -4.3342   -0.9579    8.3711 C   0  0  0  0  0  0  0  0  0  0  0  0
   -4.2103   -1.3144    7.3454 H   0  0  0  0  0  0  0  0  0  0  0  0
   -5.4014   -0.9261    8.6172 H   0  0  0  0  0  0  0  0  0  0  0  0
   -3.6366   -1.9047    9.3510 C   0  0  0  0  0  0  0  0  0  0  0  0
   -3.8568   -2.9348    9.0521 H   0  0  0  0  0  0  0  0  0  0  0  0
   -2.5446   -1.7535    9.2682 H   0  0  0  0  0  0  0  0  0  0  0  0
   -3.3759   -2.2101   11.8106 C   0  0  0  0  0  0  0  0  0  0  0  0
   -2.0735   -1.4215   12.0299 C   0  0  0  0  0  0  0  0  0  0  0  0
   -1.4170   -1.4946   11.1646 H   0  0  0  0  0  0  0  0  0  0  0  0
   -1.5373   -1.8062   12.8933 H   0  0  0  0  0  0  0  0  0  0  0  0
   -2.3062   -0.3730   12.2051 H   0  0  0  0  0  0  0  0  0  0  0  0
   -4.2645   -2.0519   13.0488 C   0  0  0  0  0  0  0  0  0  0  0  0
   -5.1767   -2.6282   12.9214 H   0  0  0  0  0  0  0  0  0  0  0  0
   -4.5275   -1.0061   13.1851 H   0  0  0  0  0  0  0  0  0  0  0  0
   -3.7459   -2.4008   13.9378 H   0  0  0  0  0  0  0  0  0  0  0  0
   -3.0668   -3.6933   11.5947 C   0  0  0  0  0  0  0  0  0  0  0  0
   -2.3398   -3.8342   10.7984 H   0  0  0  0  0  0  0  0  0  0  0  0
   -3.9788   -4.2244   11.3350 H   0  0  0  0  0  0  0  0  0  0  0  0
   -2.6601   -4.1220   12.5070 H   0  0  0  0  0  0  0  0  0  0  0  0
   -6.9652    1.3958    8.1131 Cl  0  0  0  0  0  0  0  0  0  0  0  0
   -8.5438    2.4337   11.0347 N   0  0  0  0  0  0  0  0  0  0  0  0
   -8.2282    0.3770   11.5709 N   0  0  0  0  0  0  0  0  0  0  0  0
   -7.8692   -1.6953    9.3441 N   0  0  0  0  0  0  0  0  0  0  0  0
   -7.7196   -0.7005    9.1838 H   0  0  0  0  0  0  0  0  0  0  0  0
   -9.0954    4.0167    9.2769 C   0  0  0  0  0  0  0  0  0  0  0  0
   -8.9550    5.2814    8.7285 C   0  0  0  0  0  0  0  0  0  0  0  0
   -9.4708    5.5137    7.8078 H   0  0  0  0  0  0  0  0  0  0  0  0
   -8.1726    6.2543    9.3351 C   0  0  0  0  0  0  0  0  0  0  0  0
   -7.5253    5.9470   10.5208 C   0  0  0  0  0  0  0  0  0  0  0  0
   -6.9305    6.6994   11.0167 H   0  0  0  0  0  0  0  0  0  0  0  0
   -7.6236    4.6885   11.0969 C   0  0  0  0  0  0  0  0  0  0  0  0
   -8.4041    3.7278   10.4555 C   0  0  0  0  0  0  0  0  0  0  0  0
   -9.9439    2.9814    8.6081 C   0  0  0  0  0  0  0  0  0  0  0  0
  -10.5192    3.4225    7.7989 H   0  0  0  0  0  0  0  0  0  0  0  0
  -10.6290    2.5107    9.3121 H   0  0  0  0  0  0  0  0  0  0  0  0
   -9.2986    2.2069    8.1914 H   0  0  0  0  0  0  0  0  0  0  0  0
   -8.0382    7.6097    8.7086 C   0  0  0  0  0  0  0  0  0  0  0  0
   -9.0155    8.0078    8.4411 H   0  0  0  0  0  0  0  0  0  0  0  0
   -7.4483    7.5436    7.7940 H   0  0  0  0  0  0  0  0  0  0  0  0
   -7.5497    8.3062    9.3859 H   0  0  0  0  0  0  0  0  0  0  0  0
   -6.9156    4.3788   12.3770 C   0  0  0  0  0  0  0  0  0  0  0  0
   -7.5913    3.9247   13.1015 H   0  0  0  0  0  0  0  0  0  0  0  0
   -6.4894    5.2804   12.8079 H   0  0  0  0  0  0  0  0  0  0  0  0
   -6.1026    3.6753   12.1970 H   0  0  0  0  0  0  0  0  0  0  0  0
   -7.6837    1.4069   10.8969 C   0  0  0  0  0  0  0  0  0  0  0  0
   -9.6190    2.0510   11.7920 C   0  0  0  0  0  0  0  0  0  0  0  0
  -10.4144    2.7275   12.0305 H   0  0  0  0  0  0  0  0  0  0  0  0
   -9.4197    0.7557   12.1272 C   0  0  0  0  0  0  0  0  0  0  0  0
  -10.0150    0.0865   12.7141 H   0  0  0  0  0  0  0  0  0  0  0  0
   -7.6861   -0.9575   11.6588 C   0  0  0  0  0  0  0  0  0  0  0  0
   -7.8094   -1.3137   12.6846 H   0  0  0  0  0  0  0  0  0  0  0  0
   -6.6190   -0.9257   11.4121 H   0  0  0  0  0  0  0  0  0  0  0  0
   -8.3842   -1.9045   10.6795 C   0  0  0  0  0  0  0  0  0  0  0  0
   -8.1640   -2.9345   10.9787 H   0  0  0  0  0  0  0  0  0  0  0  0
   -9.4762   -1.7532   10.7627 H   0  0  0  0  0  0  0  0  0  0  0  0
   -8.6461   -2.2105    8.2201 C   0  0  0  0  0  0  0  0  0  0  0  0
   -9.9483   -1.4215    8.0012 C   0  0  0  0  0  0  0  0  0  0  0  0
  -10.6046   -1.4944    8.8668 H   0  0  0  0  0  0  0  0  0  0  0  0
  -10.4849   -1.8062    7.1380 H   0  0  0  0  0  0  0  0  0  0  0  0
   -9.7154   -0.3731    7.8259 H   0  0  0  0  0  0  0  0  0  0  0  0
   -7.7580   -2.0528    6.9815 C   0  0  0  0  0  0  0  0  0  0  0  0
   -6.8458   -2.6292    7.1087 H   0  0  0  0  0  0  0  0  0  0  0  0
   -7.4948   -1.0071    6.8447 H   0  0  0  0  0  0  0  0  0  0  0  0
   -8.2770   -2.4020    6.0928 H   0  0  0  0  0  0  0  0  0  0  0  0
   -8.9556   -3.6935    8.4365 C   0  0  0  0  0  0  0  0  0  0  0  0
   -9.6821   -3.8340    9.2332 H   0  0  0  0  0  0  0  0  0  0  0  0
   -8.0436   -4.2249    8.6956 H   0  0  0  0  0  0  0  0  0  0  0  0
   -9.3630   -4.1223    7.5245 H   0  0  0  0  0  0  0  0  0  0  0  0
  1 76  2  0  0  0  0
  1  2  1  0  0  0  0
  3 27  1  0  0  0  0
  3 14  1  0  0  0  0
  4 27  1  0  0  0  0
  5  6  1  0  0  0  0
  5 38  1  0  0  0  0
  7  8  1  0  0  0  0
  7 15  1  0  0  0  0
  8  9  1  0  0  0  0
 10  8  2  0  0  0  0
 10 19  1  0  0  0  0
 11 10  1  0  0  0  0
 12 11  1  0  0  0  0
 13 11  2  0  0  0  0
 13 14  1  0  0  0  0
 14  7  2  0  0  0  0
 15 18  1  0  0  0  0
 15 16  1  0  0  0  0
 17 15  1  0  0  0  0
 19 20  1  0  0  0  0
 19 21  1  0  0  0  0
 22 19  1  0  0  0  0
 23 26  1  0  0  0  0
 23 13  1  0  0  0  0
 24 23  1  0  0  0  0
 25 23  1  0  0  0  0
 27  1  1  6  0  0  0
 28  3  1  0  0  0  0
 29 28  1  0  0  0  0
 30 28  2  0  0  0  0
 30  4  1  0  0  0  0
 31 30  1  0  0  0  0
 32  4  1  0  0  0  0
 32 34  1  0  0  0  0
 32 35  1  0  0  0  0
 33 32  1  0  0  0  0
 35  5  1  0  0  0  0
 36 35  1  0  0  0  0
 37 35  1  0  0  0  0
 38 39  1  0  0  0  0
 38 43  1  0  0  0  0
 39 42  1  0  0  0  0
 39 41  1  0  0  0  0
 40 39  1  0  0  0  0
 43 45  1  0  0  0  0
 43 46  1  0  0  0  0
 44 43  1  0  0  0  0
 47 38  1  0  0  0  0
 47 50  1  0  0  0  0
 48 47  1  0  0  0  0
 49 47  1  0  0  0  0
 51  1  1  0  0  0  0
 52 77  1  0  0  0  0
 53 81  1  0  0  0  0
 53 79  1  0  0  0  0
 54 84  1  0  0  0  0
 55 54  1  0  0  0  0
 56 63  1  0  0  0  0
 57 56  2  0  0  0  0
 57 59  1  0  0  0  0
 58 57  1  0  0  0  0
 59 60  2  0  0  0  0
 60 61  1  0  0  0  0
 60 62  1  0  0  0  0
 62 72  1  0  0  0  0
 63 52  1  0  0  0  0
 63 62  2  0  0  0  0
 64 56  1  0  0  0  0
 64 66  1  0  0  0  0
 65 64  1  0  0  0  0
 67 64  1  0  0  0  0
 68 59  1  0  0  0  0
 68 71  1  0  0  0  0
 69 68  1  0  0  0  0
 70 68  1  0  0  0  0
 72 74  1  0  0  0  0
 72 73  1  0  0  0  0
 75 72  1  0  0  0  0
 76 52  1  0  0  0  0
 76 53  1  0  0  0  0
 77 78  1  0  0  0  0
 77 79  2  0  0  0  0
 79 80  1  0  0  0  0
 81 82  1  0  0  0  0
 83 81  1  0  0  0  0
 84 86  1  0  0  0  0
 84 85  1  0  0  0  0
 84 81  1  0  0  0  0
 87 96  1  0  0  0  0
 87 54  1  0  0  0  0
 88 87  1  0  0  0  0
 88 89  1  0  0  0  0
 90 88  1  0  0  0  0
 91 88  1  0  0  0  0
 92 93  1  0  0  0  0
 92 87  1  0  0  0  0
 94 92  1  0  0  0  0
 95 92  1  0  0  0  0
 96 98  1  0  0  0  0
 96 97  1  0  0  0  0
 99 96  1  0  0  0  0
M  END
$$$$
