CSD_code = AHABAN | q = 0 | S = 0 | Stoichiometry = C14H34Cl3NO2Si2Zr | MND = 6
 OpenBabel04212202003D

 57 56  0  0  0  0  0  0  0  0999 V2000
   -0.5280    8.1093    2.6446 C   0  0  0  0  0  0  0  0  0  0  0  0
    0.0905    8.5933    3.3940 H   0  0  0  0  0  0  0  0  0  0  0  0
   -1.4291    7.7677    3.1450 H   0  0  0  0  0  0  0  0  0  0  0  0
   -0.8325    8.8521    1.9115 H   0  0  0  0  0  0  0  0  0  0  0  0
    0.6089    5.1375    3.0116 C   0  0  0  0  0  0  0  0  0  0  0  0
    0.1523    4.2255    2.6371 H   0  0  0  0  0  0  0  0  0  0  0  0
    0.1776    5.3408    3.9877 H   0  0  0  0  0  0  0  0  0  0  0  0
    1.6721    4.9371    3.1589 H   0  0  0  0  0  0  0  0  0  0  0  0
   -0.9515    6.0516    0.5136 C   0  0  0  0  0  0  0  0  0  0  0  0
   -1.0663    6.7824   -0.2780 H   0  0  0  0  0  0  0  0  0  0  0  0
   -1.9176    5.9304    0.9917 H   0  0  0  0  0  0  0  0  0  0  0  0
   -0.6911    5.1057    0.0573 H   0  0  0  0  0  0  0  0  0  0  0  0
    2.8909    8.4492   -1.2905 C   0  0  0  0  0  0  0  0  0  0  0  0
    1.9561    8.9868   -1.4233 H   0  0  0  0  0  0  0  0  0  0  0  0
    3.2817    8.2338   -2.2795 H   0  0  0  0  0  0  0  0  0  0  0  0
    3.5975    9.1106   -0.8004 H   0  0  0  0  0  0  0  0  0  0  0  0
    1.6489    5.6762   -1.5066 C   0  0  0  0  0  0  0  0  0  0  0  0
    1.4113    4.7228   -1.0498 H   0  0  0  0  0  0  0  0  0  0  0  0
    2.2321    5.4765   -2.3989 H   0  0  0  0  0  0  0  0  0  0  0  0
    0.7219    6.1385   -1.8197 H   0  0  0  0  0  0  0  0  0  0  0  0
    4.3189    5.8986   -0.1238 C   0  0  0  0  0  0  0  0  0  0  0  0
    5.0361    6.4592    0.4729 H   0  0  0  0  0  0  0  0  0  0  0  0
    4.7714    5.7351   -1.0983 H   0  0  0  0  0  0  0  0  0  0  0  0
    4.1901    4.9235    0.3421 H   0  0  0  0  0  0  0  0  0  0  0  0
    2.5193   10.5449    3.8668 C   0  0  0  0  0  0  0  0  0  0  0  0
    3.4622   11.0957    3.7265 H   0  0  0  0  0  0  0  0  0  0  0  0
    2.5202   10.0093    4.8211 H   0  0  0  0  0  0  0  0  0  0  0  0
    1.3195   11.4746    3.6802 C   0  0  0  0  0  0  0  0  0  0  0  0
    1.4981   12.4630    4.0959 H   0  0  0  0  0  0  0  0  0  0  0  0
    0.4445   11.0435    4.1649 H   0  0  0  0  0  0  0  0  0  0  0  0
    1.1363   11.4966    2.1535 C   0  0  0  0  0  0  0  0  0  0  0  0
    0.0924   11.3542    1.8840 H   0  0  0  0  0  0  0  0  0  0  0  0
    1.4738   12.4381    1.7244 H   0  0  0  0  0  0  0  0  0  0  0  0
    2.0097   10.3296    1.6559 C   0  0  0  0  0  0  0  0  0  0  0  0
    1.4942    9.6372    0.9834 H   0  0  0  0  0  0  0  0  0  0  0  0
    2.9264   10.6998    1.1755 H   0  0  0  0  0  0  0  0  0  0  0  0
    5.0489    7.3544    5.4950 C   0  0  0  0  0  0  0  0  0  0  0  0
    5.8648    6.6803    5.1996 H   0  0  0  0  0  0  0  0  0  0  0  0
    4.1556    6.7717    5.7256 H   0  0  0  0  0  0  0  0  0  0  0  0
    5.4845    8.2801    6.6351 C   0  0  0  0  0  0  0  0  0  0  0  0
    6.1909    7.7888    7.2993 H   0  0  0  0  0  0  0  0  0  0  0  0
    4.6158    8.5866    7.2157 H   0  0  0  0  0  0  0  0  0  0  0  0
    6.1006    9.4802    5.8969 C   0  0  0  0  0  0  0  0  0  0  0  0
    5.6102   10.4090    6.1844 H   0  0  0  0  0  0  0  0  0  0  0  0
    7.1658    9.5819    6.0919 H   0  0  0  0  0  0  0  0  0  0  0  0
    5.8420    9.1587    4.4166 C   0  0  0  0  0  0  0  0  0  0  0  0
    5.5723   10.0290    3.8173 H   0  0  0  0  0  0  0  0  0  0  0  0
    6.7203    8.6790    3.9634 H   0  0  0  0  0  0  0  0  0  0  0  0
    1.9583    7.4759    4.7767 Cl  0  0  0  0  0  0  0  0  0  0  0  0
    4.2299    5.5489    3.0671 Cl  0  0  0  0  0  0  0  0  0  0  0  0
    4.8518    8.8102    1.5453 Cl  0  0  0  0  0  0  0  0  0  0  0  0
    1.8734    7.1461    1.1942 N   0  0  0  0  0  0  0  0  0  0  0  0
    2.3695    9.5825    2.8231 O   0  0  0  0  0  0  0  0  0  0  0  0
    4.7498    8.2370    4.4064 O   0  0  0  0  0  0  0  0  0  0  0  0
    0.3435    6.6092    1.8022 Si  0  0  0  0  0  0  0  0  0  0  0  0
    2.6388    6.8037   -0.3241 Si  0  0  0  0  0  0  0  0  0  0  0  0
    3.1551    7.5867    2.7104 Zr  0  0  0  0  0  0  0  0  0  0  0  0
  1  3  1  0  0  0  0
  1  2  1  0  0  0  0
  4  1  1  0  0  0  0
  5  8  1  0  0  0  0
  5  7  1  0  0  0  0
  6  5  1  0  0  0  0
  9 11  1  0  0  0  0
  9 55  1  0  0  0  0
 10  9  1  0  0  0  0
 12  9  1  0  0  0  0
 13 16  1  0  0  0  0
 13 56  1  0  0  0  0
 14 13  1  0  0  0  0
 15 13  1  0  0  0  0
 17 18  1  0  0  0  0
 17 56  1  0  0  0  0
 19 17  1  0  0  0  0
 20 17  1  0  0  0  0
 21 24  1  0  0  0  0
 21 22  1  0  0  0  0
 23 21  1  0  0  0  0
 25 27  1  0  0  0  0
 26 25  1  0  0  0  0
 28 25  1  0  0  0  0
 28 29  1  0  0  0  0
 28 30  1  0  0  0  0
 31 28  1  0  0  0  0
 32 31  1  0  0  0  0
 33 31  1  0  0  0  0
 34 31  1  0  0  0  0
 34 53  1  0  0  0  0
 35 34  1  0  0  0  0
 36 34  1  0  0  0  0
 37 39  1  0  0  0  0
 37 40  1  0  0  0  0
 38 37  1  0  0  0  0
 40 42  1  0  0  0  0
 40 41  1  0  0  0  0
 43 45  1  0  0  0  0
 43 44  1  0  0  0  0
 43 40  1  0  0  0  0
 46 43  1  0  0  0  0
 47 46  1  0  0  0  0
 48 46  1  0  0  0  0
 51 57  1  0  0  0  0
 52 55  1  0  0  0  0
 52 57  1  0  0  0  0
 53 25  1  0  0  0  0
 54 46  1  0  0  0  0
 54 37  1  0  0  0  0
 55  1  1  0  0  0  0
 55  5  1  0  0  0  0
 56 21  1  0  0  0  0
 56 52  1  0  0  0  0
 57 50  1  0  0  0  0
 57 49  1  0  0  0  0
M  END
$$$$
