CSD_code = AHADIW | q = 0 | S = 0 | Stoichiometry = C31H32Cl3NO3P2Ru | MND = 6
 OpenBabel04212202003D

 73 78  0  0  1  0  0  0  0  0999 V2000
    2.7330    5.5348   17.4496 Ru  0  0  0  0  0  0  0  0  0  0  0  0
    2.0557    7.4080   16.0892 P   0  0  0  0  0  4  0  0  0  0  0  0
    1.8600    3.9167   15.9379 P   0  0  0  0  0  4  0  0  0  0  0  0
    0.6084    5.2861   18.5371 Cl  0  0  0  0  0  0  0  0  0  0  0  0
    3.3186    7.3360   18.8556 Cl  0  0  0  0  0  0  0  0  0  0  0  0
    4.8643    5.7236   16.3917 Cl  0  0  0  0  0  0  0  0  0  0  0  0
    3.8802    3.6264   19.1723 O   0  0  0  0  0  1  0  0  0  0  0  0
   -1.8906    4.7110   14.5642 O   0  0  0  0  0  0  0  0  0  0  0  0
   -1.5194    6.9310   14.7998 O   0  0  0  0  0  0  0  0  0  0  0  0
    3.3879    4.3947   18.4796 N   0  0  0  0  0  2  0  0  0  0  0  0
    0.0417    3.7996   15.6870 C   0  0  0  0  0  0  0  0  0  0  0  0
   -0.1751    2.8098   15.2720 H   0  0  0  0  0  0  0  0  0  0  0  0
   -0.4499    3.8994   16.6585 H   0  0  0  0  0  0  0  0  0  0  0  0
   -0.4984    4.8602   14.7322 C   0  0  2  0  0  0  0  0  0  0  0  0
   -0.0201    4.7460   13.7439 H   0  0  0  0  0  0  0  0  0  0  0  0
   -0.3325    6.3088   15.2407 C   0  0  1  0  0  0  0  0  0  0  0  0
   -0.3133    6.3012   16.3455 H   0  0  0  0  0  0  0  0  0  0  0  0
    0.8892    7.0430   14.6966 C   0  0  0  0  0  0  0  0  0  0  0  0
    0.5596    7.9863   14.2517 H   0  0  0  0  0  0  0  0  0  0  0  0
    1.3809    6.4394   13.9298 H   0  0  0  0  0  0  0  0  0  0  0  0
   -2.5350    5.9535   14.8583 C   0  0  0  0  0  0  0  0  0  0  0  0
   -3.5710    6.2519   13.7794 C   0  0  0  0  0  0  0  0  0  0  0  0
   -4.0359    7.2112   13.9819 H   0  0  0  0  0  0  0  0  0  0  0  0
   -4.3218    5.4687   13.7739 H   0  0  0  0  0  0  0  0  0  0  0  0
   -3.0822    6.2880   12.8101 H   0  0  0  0  0  0  0  0  0  0  0  0
   -3.1794    5.8877   16.2478 C   0  0  0  0  0  0  0  0  0  0  0  0
   -3.9167    5.0909   16.2623 H   0  0  0  0  0  0  0  0  0  0  0  0
   -3.6595    6.8365   16.4677 H   0  0  0  0  0  0  0  0  0  0  0  0
   -2.4301    5.6881   17.0096 H   0  0  0  0  0  0  0  0  0  0  0  0
    1.1574    8.8008   16.8466 C   0  0  0  0  0  0  0  0  0  0  0  0
    1.1307   10.0120   16.1575 C   0  0  0  0  0  0  0  0  0  0  0  0
    1.6709   10.1170   15.2259 H   0  0  0  0  0  0  0  0  0  0  0  0
    0.4266   11.0840   16.6694 C   0  0  0  0  0  0  0  0  0  0  0  0
    0.4159   12.0224   16.1342 H   0  0  0  0  0  0  0  0  0  0  0  0
   -0.2611   10.9569   17.8661 C   0  0  0  0  0  0  0  0  0  0  0  0
   -0.8082   11.7982   18.2653 H   0  0  0  0  0  0  0  0  0  0  0  0
   -0.2417    9.7536   18.5482 C   0  0  0  0  0  0  0  0  0  0  0  0
   -0.7753    9.6498   19.4811 H   0  0  0  0  0  0  0  0  0  0  0  0
    0.4653    8.6756   18.0436 C   0  0  0  0  0  0  0  0  0  0  0  0
    0.4833    7.7460   18.5920 H   0  0  0  0  0  0  0  0  0  0  0  0
    3.4326    8.2755   15.2729 C   0  0  0  0  0  0  0  0  0  0  0  0
    4.2999    9.0031   16.0863 C   0  0  0  0  0  0  0  0  0  0  0  0
    4.1286    9.0335   17.1531 H   0  0  0  0  0  0  0  0  0  0  0  0
    5.3795    9.6655   15.5356 C   0  0  0  0  0  0  0  0  0  0  0  0
    6.0503   10.2190   16.1754 H   0  0  0  0  0  0  0  0  0  0  0  0
    5.6050    9.6137   14.1696 C   0  0  0  0  0  0  0  0  0  0  0  0
    6.4529   10.1258   13.7396 H   0  0  0  0  0  0  0  0  0  0  0  0
    4.7407    8.9014   13.3570 C   0  0  0  0  0  0  0  0  0  0  0  0
    4.9093    8.8617   12.2904 H   0  0  0  0  0  0  0  0  0  0  0  0
    3.6580    8.2319   13.9010 C   0  0  0  0  0  0  0  0  0  0  0  0
    2.9975    7.6844   13.2455 H   0  0  0  0  0  0  0  0  0  0  0  0
    2.2884    2.3264   16.6961 C   0  0  0  0  0  0  0  0  0  0  0  0
    1.3970    1.5728   17.4516 C   0  0  0  0  0  0  0  0  0  0  0  0
    0.3727    1.8930   17.5706 H   0  0  0  0  0  0  0  0  0  0  0  0
    1.8372    0.4147   18.0706 C   0  0  0  0  0  0  0  0  0  0  0  0
    1.1465   -0.1702   18.6594 H   0  0  0  0  0  0  0  0  0  0  0  0
    3.1563    0.0125   17.9469 C   0  0  0  0  0  0  0  0  0  0  0  0
    3.4926   -0.8885   18.4372 H   0  0  0  0  0  0  0  0  0  0  0  0
    4.0504    0.7727   17.2079 C   0  0  0  0  0  0  0  0  0  0  0  0
    5.0827    0.4687   17.1248 H   0  0  0  0  0  0  0  0  0  0  0  0
    3.6224    1.9304   16.5882 C   0  0  0  0  0  0  0  0  0  0  0  0
    4.3138    2.5489   16.0276 H   0  0  0  0  0  0  0  0  0  0  0  0
    2.5028    3.7114   14.2491 C   0  0  0  0  0  0  0  0  0  0  0  0
    3.3237    4.6682   13.6665 C   0  0  0  0  0  0  0  0  0  0  0  0
    3.6409    5.5257   14.2445 H   0  0  0  0  0  0  0  0  0  0  0  0
    3.7744    4.4940   12.3688 C   0  0  0  0  0  0  0  0  0  0  0  0
    4.4180    5.2381   11.9240 H   0  0  0  0  0  0  0  0  0  0  0  0
    3.4090    3.3676   11.6521 C   0  0  0  0  0  0  0  0  0  0  0  0
    3.7598    3.2325   10.6399 H   0  0  0  0  0  0  0  0  0  0  0  0
    2.6029    2.4028   12.2381 C   0  0  0  0  0  0  0  0  0  0  0  0
    2.3299    1.5170   11.6842 H   0  0  0  0  0  0  0  0  0  0  0  0
    2.1512    2.5685   13.5331 C   0  0  0  0  0  0  0  0  0  0  0  0
    1.5372    1.8080   13.9956 H   0  0  0  0  0  0  0  0  0  0  0  0
  1 10  1  0  0  0  0
  1  4  1  0  0  0  0
  1  5  1  0  0  0  0
  2 30  1  0  0  0  0
  2  1  1  0  0  0  0
  3 52  1  0  0  0  0
  3  1  1  0  0  0  0
  6  1  1  0  0  0  0
  8 14  1  0  0  0  0
  8 21  1  0  0  0  0
  9 21  1  0  0  0  0
  9 16  1  0  0  0  0
 10  7  1  0  0  0  0
 11  3  1  0  0  0  0
 11 13  1  0  0  0  0
 12 11  1  0  0  0  0
 14 15  1  6  0  0  0
 14 16  1  0  0  0  0
 14 11  1  0  0  0  0
 16 17  1  1  0  0  0
 18 16  1  0  0  0  0
 18  2  1  0  0  0  0
 19 18  1  0  0  0  0
 20 18  1  0  0  0  0
 21 26  1  0  0  0  0
 22 23  1  0  0  0  0
 22 21  1  0  0  0  0
 24 22  1  0  0  0  0
 25 22  1  0  0  0  0
 26 27  1  0  0  0  0
 26 28  1  0  0  0  0
 26 29  1  0  0  0  0
 30 39  1  0  0  0  0
 31 33  1  0  0  0  0
 31 30  2  0  0  0  0
 32 31  1  0  0  0  0
 33 35  2  0  0  0  0
 34 33  1  0  0  0  0
 35 36  1  0  0  0  0
 35 37  1  0  0  0  0
 37 38  1  0  0  0  0
 39 37  2  0  0  0  0
 39 40  1  0  0  0  0
 41 42  1  0  0  0  0
 41  2  1  0  0  0  0
 42 43  1  0  0  0  0
 44 42  2  0  0  0  0
 44 45  1  0  0  0  0
 46 44  1  0  0  0  0
 47 46  1  0  0  0  0
 48 50  1  0  0  0  0
 48 46  2  0  0  0  0
 49 48  1  0  0  0  0
 50 41  2  0  0  0  0
 51 50  1  0  0  0  0
 52 53  1  0  0  0  0
 53 54  1  0  0  0  0
 53 55  2  0  0  0  0
 55 56  1  0  0  0  0
 57 55  1  0  0  0  0
 57 58  1  0  0  0  0
 59 57  2  0  0  0  0
 60 59  1  0  0  0  0
 61 52  2  0  0  0  0
 61 59  1  0  0  0  0
 62 61  1  0  0  0  0
 63  3  1  0  0  0  0
 64 65  1  0  0  0  0
 64 63  1  0  0  0  0
 66 64  2  0  0  0  0
 67 66  1  0  0  0  0
 68 70  2  0  0  0  0
 68 66  1  0  0  0  0
 69 68  1  0  0  0  0
 70 72  1  0  0  0  0
 71 70  1  0  0  0  0
 72 73  1  0  0  0  0
 72 63  2  0  0  0  0
M  END
$$$$
