CSD_code = AHAJOI | q = 0 | S = 0 | Stoichiometry = C31H32I2P2Pd | MND = 4
 OpenBabel04212202003D

 68 72  0  0  0  0  0  0  0  0999 V2000
    1.0369    5.5455    4.5224 Pd  0  0  0  0  0  0  0  0  0  0  0  0
    1.4043    3.8677    6.4750 I   0  0  0  0  0  0  0  0  0  0  0  0
    3.5305    5.5572    3.8025 I   0  0  0  0  0  0  0  0  0  0  0  0
    0.7434    7.2914    3.1375 P   0  0  0  0  0  4  0  0  0  0  0  0
    1.2839    8.7198    4.1245 C   0  0  0  0  0  0  0  0  0  0  0  0
    1.2570   10.0205    3.6285 C   0  0  0  0  0  0  0  0  0  0  0  0
    1.6745   11.0712    4.4241 C   0  0  0  0  0  0  0  0  0  0  0  0
    2.1149   10.8358    5.7171 C   0  0  0  0  0  0  0  0  0  0  0  0
    2.1376    9.5457    6.2202 C   0  0  0  0  0  0  0  0  0  0  0  0
    1.7238    8.4908    5.4279 C   0  0  0  0  0  0  0  0  0  0  0  0
    1.6570    7.3628    1.5694 C   0  0  0  0  0  0  0  0  0  0  0  0
    1.3276    6.3980    0.6199 C   0  0  0  0  0  0  0  0  0  0  0  0
    2.0161    6.3330   -0.5751 C   0  0  0  0  0  0  0  0  0  0  0  0
    3.0448    7.2268   -0.8258 C   0  0  0  0  0  0  0  0  0  0  0  0
    3.3914    8.1705    0.1261 C   0  0  0  0  0  0  0  0  0  0  0  0
    2.7084    8.2373    1.3273 C   0  0  0  0  0  0  0  0  0  0  0  0
   -0.9283    7.7904    2.5057 C   0  0  0  0  0  0  0  0  0  0  0  0
   -2.1340    7.4820    3.4017 C   0  0  0  0  0  0  0  0  0  0  0  0
   -3.3974    8.0111    2.6762 C   0  0  0  0  0  0  0  0  0  0  0  0
   -4.6576    7.8192    3.4600 C   0  0  0  0  0  0  0  0  0  0  0  0
   -5.5881    6.9311    3.1614 C   0  0  0  0  0  0  0  0  0  0  0  0
   -1.9628    8.1778    4.7492 C   0  0  0  0  0  0  0  0  0  0  0  0
   -2.2807    5.9640    3.5770 C   0  0  0  0  0  0  0  0  0  0  0  0
   -1.1497    5.1960    4.8187 P   0  0  0  0  0  4  0  0  0  0  0  0
   -1.2769    3.4507    4.3209 C   0  0  0  0  0  0  0  0  0  0  0  0
   -0.4235    3.0887    3.2739 C   0  0  0  0  0  0  0  0  0  0  0  0
   -0.3709    1.7800    2.8386 C   0  0  0  0  0  0  0  0  0  0  0  0
   -1.1578    0.8187    3.4560 C   0  0  0  0  0  0  0  0  0  0  0  0
   -1.9817    1.1680    4.5113 C   0  0  0  0  0  0  0  0  0  0  0  0
   -2.0427    2.4803    4.9509 C   0  0  0  0  0  0  0  0  0  0  0  0
   -2.0181    5.4361    6.3915 C   0  0  0  0  0  0  0  0  0  0  0  0
   -3.3573    5.0912    6.5490 C   0  0  0  0  0  0  0  0  0  0  0  0
   -3.9840    5.3120    7.7614 C   0  0  0  0  0  0  0  0  0  0  0  0
   -3.2882    5.8852    8.8140 C   0  0  0  0  0  0  0  0  0  0  0  0
   -1.9630    6.2534    8.6522 C   0  0  0  0  0  0  0  0  0  0  0  0
   -1.3312    6.0333    7.4430 C   0  0  0  0  0  0  0  0  0  0  0  0
    0.9211   10.2094    2.6172 H   0  0  0  0  0  0  0  0  0  0  0  0
    1.6603   12.0777    4.0321 H   0  0  0  0  0  0  0  0  0  0  0  0
    2.4436   11.6602    6.3318 H   0  0  0  0  0  0  0  0  0  0  0  0
    2.4836    9.3598    7.2258 H   0  0  0  0  0  0  0  0  0  0  0  0
    1.7586    7.4677    5.8348 H   0  0  0  0  0  0  0  0  0  0  0  0
    0.5423    5.6788    0.8338 H   0  0  0  0  0  0  0  0  0  0  0  0
    1.7613    5.5782   -1.3045 H   0  0  0  0  0  0  0  0  0  0  0  0
    3.5892    7.1733   -1.7564 H   0  0  0  0  0  0  0  0  0  0  0  0
    4.2099    8.8499   -0.0581 H   0  0  0  0  0  0  0  0  0  0  0  0
    3.0115    8.9484    2.0821 H   0  0  0  0  0  0  0  0  0  0  0  0
   -1.0570    7.2933    1.5373 H   0  0  0  0  0  0  0  0  0  0  0  0
   -0.8755    8.8679    2.3139 H   0  0  0  0  0  0  0  0  0  0  0  0
   -3.4882    7.4993    1.7147 H   0  0  0  0  0  0  0  0  0  0  0  0
   -3.2613    9.0785    2.4823 H   0  0  0  0  0  0  0  0  0  0  0  0
   -4.7820    8.4636    4.3196 H   0  0  0  0  0  0  0  0  0  0  0  0
   -6.4832    6.8225    3.7497 H   0  0  0  0  0  0  0  0  0  0  0  0
   -5.5008    6.2807    2.3054 H   0  0  0  0  0  0  0  0  0  0  0  0
   -1.9178    9.2583    4.6207 H   0  0  0  0  0  0  0  0  0  0  0  0
   -2.7830    7.9373    5.4222 H   0  0  0  0  0  0  0  0  0  0  0  0
   -1.0295    7.8546    5.2205 H   0  0  0  0  0  0  0  0  0  0  0  0
   -2.0964    5.4602    2.6190 H   0  0  0  0  0  0  0  0  0  0  0  0
   -3.3053    5.7275    3.8832 H   0  0  0  0  0  0  0  0  0  0  0  0
    0.2321    3.8425    2.8086 H   0  0  0  0  0  0  0  0  0  0  0  0
    0.2971    1.5032    2.0363 H   0  0  0  0  0  0  0  0  0  0  0  0
   -1.1077   -0.2081    3.1266 H   0  0  0  0  0  0  0  0  0  0  0  0
   -2.5708    0.4131    5.0103 H   0  0  0  0  0  0  0  0  0  0  0  0
   -2.6550    2.7361    5.8030 H   0  0  0  0  0  0  0  0  0  0  0  0
   -3.9133    4.6563    5.7293 H   0  0  0  0  0  0  0  0  0  0  0  0
   -5.0209    5.0352    7.8849 H   0  0  0  0  0  0  0  0  0  0  0  0
   -3.7829    6.0489    9.7596 H   0  0  0  0  0  0  0  0  0  0  0  0
   -1.4210    6.7080    9.4673 H   0  0  0  0  0  0  0  0  0  0  0  0
   -0.2928    6.3226    7.3129 H   0  0  0  0  0  0  0  0  0  0  0  0
  1 24  1  0  0  0  0
  1  2  1  0  0  0  0
  3  1  1  0  0  0  0
  4  5  1  0  0  0  0
  4  1  1  0  0  0  0
  5 10  1  0  0  0  0
  6  5  2  0  0  0  0
  6  7  1  0  0  0  0
  7  8  2  0  0  0  0
  8  9  1  0  0  0  0
  8 39  1  0  0  0  0
  9 40  1  0  0  0  0
 10 41  1  0  0  0  0
 10  9  2  0  0  0  0
 11  4  1  0  0  0  0
 12 42  1  0  0  0  0
 12 11  2  0  0  0  0
 13 12  1  0  0  0  0
 14 13  2  0  0  0  0
 14 15  1  0  0  0  0
 15 16  2  0  0  0  0
 16 11  1  0  0  0  0
 16 46  1  0  0  0  0
 17  4  1  0  0  0  0
 17 18  1  0  0  0  0
 18 23  1  0  0  0  0
 18 22  1  0  0  0  0
 19 18  1  0  0  0  0
 19 20  1  0  0  0  0
 20 51  1  0  0  0  0
 21 20  2  0  0  0  0
 21 52  1  0  0  0  0
 22 56  1  0  0  0  0
 22 55  1  0  0  0  0
 23 58  1  0  0  0  0
 23 24  1  0  0  0  0
 24 31  1  0  0  0  0
 25 24  1  0  0  0  0
 25 30  1  0  0  0  0
 26 25  2  0  0  0  0
 27 26  1  0  0  0  0
 27 28  2  0  0  0  0
 28 29  1  0  0  0  0
 29 30  2  0  0  0  0
 29 62  1  0  0  0  0
 30 63  1  0  0  0  0
 31 32  2  0  0  0  0
 31 36  1  0  0  0  0
 32 33  1  0  0  0  0
 33 65  1  0  0  0  0
 33 34  2  0  0  0  0
 34 66  1  0  0  0  0
 35 34  1  0  0  0  0
 35 67  1  0  0  0  0
 36 35  2  0  0  0  0
 37  6  1  0  0  0  0
 38  7  1  0  0  0  0
 43 13  1  0  0  0  0
 44 14  1  0  0  0  0
 45 15  1  0  0  0  0
 47 17  1  0  0  0  0
 48 17  1  0  0  0  0
 49 19  1  0  0  0  0
 50 19  1  0  0  0  0
 53 21  1  0  0  0  0
 54 22  1  0  0  0  0
 57 23  1  0  0  0  0
 59 26  1  0  0  0  0
 60 27  1  0  0  0  0
 61 28  1  0  0  0  0
 64 32  1  0  0  0  0
 68 36  1  0  0  0  0
M  END
$$$$
