CSD_code = AHAVAH | q = 0 | S = 0 | Stoichiometry = C3H9F6PW | MND = 7
 OpenBabel04212202003D

 20 18  0  0  0  0  0  0  0  0999 V2000
    0.2195    0.0002    4.4844 C   0  0  0  0  0  0  0  0  0  0  0  0
   -0.4798    0.0000    3.6498 H   0  0  0  0  0  0  0  0  0  0  0  0
    0.0533    0.8843    5.1002 H   0  0  0  0  0  0  0  0  0  0  0  0
    1.9793    1.4424    2.7570 C   0  0  0  0  0  0  0  0  0  0  0  0
    2.9367    1.4821    2.2419 H   0  0  0  0  0  0  0  0  0  0  0  0
    1.8760    2.3504    3.3499 H   0  0  0  0  0  0  0  0  0  0  0  0
    1.1742    1.3832    2.0276 H   0  0  0  0  0  0  0  0  0  0  0  0
    4.3327    1.3204    5.0139 F   0  0  0  0  0  0  0  0  0  0  0  0
    2.2643    1.5297    6.2007 F   0  0  0  0  0  0  0  0  0  0  0  0
    2.9442   -0.0005    7.8738 F   0  0  0  0  0  0  0  0  0  0  0  0
    5.1175   -0.0000    6.8900 F   0  0  0  0  0  0  0  0  0  0  0  0
    1.9584    0.0001    3.8879 P   0  0  0  0  0  0  0  0  0  0  0  0
    3.4387   -0.0001    6.0627 W   0  0  0  0  0  0  0  0  0  0  0  0
    0.0533   -0.8838    5.1005 H   0  0  0  0  0  0  0  0  0  0  0  0
    1.9793   -1.4425    2.7573 C   0  0  0  0  0  0  0  0  0  0  0  0
    2.9367   -1.4823    2.2423 H   0  0  0  0  0  0  0  0  0  0  0  0
    1.8760   -2.3503    3.3504 H   0  0  0  0  0  0  0  0  0  0  0  0
    1.1742   -1.3834    2.0279 H   0  0  0  0  0  0  0  0  0  0  0  0
    4.3333   -1.3198    5.0135 F   0  0  0  0  0  0  0  0  0  0  0  0
    2.2644   -1.5301    6.2001 F   0  0  0  0  0  0  0  0  0  0  0  0
  1  3  1  0  0  0  0
  1 14  1  0  0  0  0
  2  1  1  0  0  0  0
  4  6  1  0  0  0  0
  4 12  1  0  0  0  0
  5  4  1  0  0  0  0
  7  4  1  0  0  0  0
  8 13  1  0  0  0  0
 12  1  1  0  0  0  0
 13 20  1  0  0  0  0
 13  9  1  0  0  0  0
 13 11  1  0  0  0  0
 13 10  1  0  0  0  0
 15 17  1  0  0  0  0
 15 12  1  0  0  0  0
 16 15  1  0  0  0  0
 18 15  1  0  0  0  0
 19 13  1  0  0  0  0
M  END
$$$$
