CSD_code = AHAWUB | q = 0 | S = 0 | Stoichiometry = C30H35ClNPPd | MND = 4
 OpenBabel04212202003D

 69 74  0  0  1  0  0  0  0  0999 V2000
    5.6702    1.7138    4.4144 Pd  0  0  1  0  0  0  0  0  0  0  0  0
    7.4307    1.2791    5.7621 Cl  0  0  0  0  0  0  0  0  0  0  0  0
    3.6535    1.9079    3.4829 P   0  0  0  0  0  4  0  0  0  0  0  0
    5.1324    3.5181    5.5685 N   0  0  0  0  0  0  0  0  0  0  0  0
    3.2579    2.9411    2.0373 C   0  0  0  0  0  0  0  0  0  0  0  0
    4.1864    2.8957    0.9990 C   0  0  0  0  0  0  0  0  0  0  0  0
    5.0601    2.2636    1.1091 H   0  0  0  0  0  0  0  0  0  0  0  0
    3.9990    3.6607   -0.1357 C   0  0  0  0  0  0  0  0  0  0  0  0
    4.7163    3.6177   -0.9424 H   0  0  0  0  0  0  0  0  0  0  0  0
    2.8936    4.4929   -0.2316 C   0  0  0  0  0  0  0  0  0  0  0  0
    2.7497    5.1003   -1.1129 H   0  0  0  0  0  0  0  0  0  0  0  0
    1.9788    4.5546    0.8065 C   0  0  0  0  0  0  0  0  0  0  0  0
    1.1236    5.2107    0.7335 H   0  0  0  0  0  0  0  0  0  0  0  0
    2.1552    3.7810    1.9411 C   0  0  0  0  0  0  0  0  0  0  0  0
    1.4397    3.8332    2.7500 H   0  0  0  0  0  0  0  0  0  0  0  0
    3.0040    0.2659    3.0454 C   0  0  0  0  0  0  0  0  0  0  0  0
    2.2567   -0.0254    1.9118 C   0  0  0  0  0  0  0  0  0  0  0  0
    2.0153    0.7578    1.2056 H   0  0  0  0  0  0  0  0  0  0  0  0
    1.8303   -1.3246    1.6895 C   0  0  0  0  0  0  0  0  0  0  0  0
    1.2532   -1.5548    0.8056 H   0  0  0  0  0  0  0  0  0  0  0  0
    2.1422   -2.3257    2.5936 C   0  0  0  0  0  0  0  0  0  0  0  0
    1.8067   -3.3363    2.4130 H   0  0  0  0  0  0  0  0  0  0  0  0
    2.8935   -2.0374    3.7241 C   0  0  0  0  0  0  0  0  0  0  0  0
    3.1441   -2.8231    4.4211 H   0  0  0  0  0  0  0  0  0  0  0  0
    3.3301   -0.7466    3.9468 C   0  0  0  0  0  0  0  0  0  0  0  0
    3.9500   -0.5006    4.8124 H   0  0  0  0  0  0  0  0  0  0  0  0
    2.4147    2.4286    4.7321 C   0  0  0  0  0  0  0  0  0  0  0  0
    2.7154    3.3474    5.7522 C   0  0  0  0  0  0  0  0  0  0  0  0
    1.7060    3.7213    6.6439 C   0  0  0  0  0  0  0  0  0  0  0  0
    1.9367    4.4344    7.4230 H   0  0  0  0  0  0  0  0  0  0  0  0
    0.4376    3.1845    6.5615 C   0  0  0  0  0  0  0  0  0  0  0  0
   -0.3208    3.4764    7.2722 H   0  0  0  0  0  0  0  0  0  0  0  0
    0.1432    2.2772    5.5562 C   0  0  0  0  0  0  0  0  0  0  0  0
   -0.8479    1.8567    5.4743 H   0  0  0  0  0  0  0  0  0  0  0  0
    1.1227    1.9148    4.6498 C   0  0  0  0  0  0  0  0  0  0  0  0
    0.8822    1.2163    3.8607 H   0  0  0  0  0  0  0  0  0  0  0  0
    4.0107    3.9936    5.9170 C   0  0  0  0  0  3  0  0  0  0  0  0
    3.9633    4.9794    6.4006 H   0  0  0  0  0  0  0  0  0  0  0  0
    6.3150    4.3184    5.7061 C   0  0  0  0  0  0  0  0  0  0  0  0
    6.0867    5.2873    6.1706 H   0  0  0  0  0  0  0  0  0  0  0  0
    7.0189    3.7567    6.3359 H   0  0  0  0  0  0  0  0  0  0  0  0
    6.9808    4.4954    4.3228 C   0  0  1  0  0  0  0  0  0  0  0  0
    7.2380    3.4688    3.9784 H   0  0  0  0  0  0  0  0  0  0  0  0
    6.0384    5.0643    3.2611 C   0  0  1  0  0  0  0  0  0  0  0  0
    5.0844    4.5252    3.2422 H   0  0  0  0  0  0  0  0  0  0  0  0
    5.9651    6.6092    3.2133 C   0  0  0  0  0  0  0  0  0  0  0  0
    7.2779    6.5200    2.4038 C   0  0  1  0  0  0  0  0  0  0  0  0
    7.4517    7.2790    1.6390 H   0  0  0  0  0  0  0  0  0  0  0  0
    8.4911    6.3694    3.3159 C   0  0  0  0  0  0  0  0  0  0  0  0
    8.7386    7.3363    3.7582 H   0  0  0  0  0  0  0  0  0  0  0  0
    9.3399    6.0751    2.6946 H   0  0  0  0  0  0  0  0  0  0  0  0
    8.2815    5.3210    4.4343 C   0  0  0  0  0  0  0  0  0  0  0  0
    8.2984    5.8231    5.4034 H   0  0  0  0  0  0  0  0  0  0  0  0
    9.1271    4.6329    4.4425 H   0  0  0  0  0  0  0  0  0  0  0  0
    6.8467    5.1177    1.9547 C   0  0  0  0  0  0  0  0  0  0  0  0
    7.6376    4.3774    1.8498 H   0  0  0  0  0  0  0  0  0  0  0  0
    6.2326    5.1103    1.0585 H   0  0  0  0  0  0  0  0  0  0  0  0
    4.7825    7.0661    2.3565 C   0  0  0  0  0  0  0  0  0  0  0  0
    3.8504    6.9107    2.8986 H   0  0  0  0  0  0  0  0  0  0  0  0
    4.7155    6.5211    1.4200 H   0  0  0  0  0  0  0  0  0  0  0  0
    4.8724    8.1268    2.1286 H   0  0  0  0  0  0  0  0  0  0  0  0
    5.9434    7.4425    4.4880 C   0  0  0  0  0  0  0  0  0  0  0  0
    5.0060    7.2832    5.0195 H   0  0  0  0  0  0  0  0  0  0  0  0
    6.0027    8.4982    4.2259 H   0  0  0  0  0  0  0  0  0  0  0  0
    6.7647    7.2204    5.1568 H   0  0  0  0  0  0  0  0  0  0  0  0
    6.3728    0.2334    3.1784 C   0  0  0  0  0  0  0  0  0  0  0  0
    5.7081   -0.0127    2.3416 H   0  0  0  0  0  0  0  0  0  0  0  0
    6.5696   -0.6807    3.7482 H   0  0  0  0  0  0  0  0  0  0  0  0
    7.3285    0.6075    2.7846 H   0  0  0  0  0  0  0  0  0  0  0  0
  1  4  1  0  0  0  0
  1  2  1  1  0  0  0
  3  1  1  0  0  0  0
  3 27  1  0  0  0  0
  4 39  1  0  0  0  0
  4 37  1  0  0  0  0
  5  3  1  0  0  0  0
  6  7  1  0  0  0  0
  6  5  2  0  0  0  0
  8  6  1  0  0  0  0
  9  8  1  0  0  0  0
 10  8  2  0  0  0  0
 10 12  1  0  0  0  0
 11 10  1  0  0  0  0
 12 14  2  0  0  0  0
 13 12  1  0  0  0  0
 14  5  1  0  0  0  0
 14 15  1  0  0  0  0
 16  3  1  0  0  0  0
 16 25  1  0  0  0  0
 17 16  2  0  0  0  0
 18 17  1  0  0  0  0
 19 17  1  0  0  0  0
 19 21  2  0  0  0  0
 20 19  1  0  0  0  0
 21 23  1  0  0  0  0
 22 21  1  0  0  0  0
 23 25  2  0  0  0  0
 23 24  1  0  0  0  0
 25 26  1  0  0  0  0
 27 28  1  0  0  0  0
 28 37  1  0  0  0  0
 28 29  2  0  0  0  0
 29 30  1  0  0  0  0
 31 29  1  0  0  0  0
 31 32  1  0  0  0  0
 33 31  2  0  0  0  0
 34 33  1  0  0  0  0
 35 27  2  0  0  0  0
 35 33  1  0  0  0  0
 36 35  1  0  0  0  0
 37 38  1  0  0  0  0
 39 40  1  0  0  0  0
 39 41  1  0  0  0  0
 42 43  1  6  0  0  0
 42 52  1  0  0  0  0
 42 39  1  0  0  0  0
 44 45  1  6  0  0  0
 44 42  1  0  0  0  0
 46 44  1  0  0  0  0
 46 62  1  0  0  0  0
 47 48  1  6  0  0  0
 47 46  1  0  0  0  0
 47 49  1  0  0  0  0
 49 50  1  0  0  0  0
 49 52  1  0  0  0  0
 51 49  1  0  0  0  0
 52 54  1  0  0  0  0
 52 53  1  0  0  0  0
 55 47  1  0  0  0  0
 55 44  1  0  0  0  0
 56 55  1  0  0  0  0
 57 55  1  0  0  0  0
 58 59  1  0  0  0  0
 58 46  1  0  0  0  0
 60 58  1  0  0  0  0
 61 58  1  0  0  0  0
 62 63  1  0  0  0  0
 62 65  1  0  0  0  0
 64 62  1  0  0  0  0
 66 68  1  0  0  0  0
 66  1  1  0  0  0  0
 67 66  1  0  0  0  0
 69 66  1  0  0  0  0
M  END
$$$$
