CSD_code = AHAWOV | q = 0 | S = 0 | Stoichiometry = C30H35ClNPPd | MND = 4
 OpenBabel04212202003D

 69 74  0  0  1  0  0  0  0  0999 V2000
    7.3008   -1.8911   24.2733 Pd  0  0  1  0  0  0  0  0  0  0  0  0
    7.0472   -3.0227   26.2152 Cl  0  0  0  0  0  0  0  0  0  0  0  0
    7.2306   -0.3978   22.6234 P   0  0  0  0  0  4  0  0  0  0  0  0
    8.7765   -0.4828   25.1777 N   0  0  0  0  0  0  0  0  0  0  0  0
    8.4944   -0.2923   21.3212 C   0  0  0  0  0  0  0  0  0  0  0  0
    8.8582   -1.5063   20.7405 C   0  0  0  0  0  0  0  0  0  0  0  0
    8.3783   -2.4148   21.0881 H   0  0  0  0  0  0  0  0  0  0  0  0
    9.8186   -1.5432   19.7483 C   0  0  0  0  0  0  0  0  0  0  0  0
   10.0955   -2.4847   19.2973 H   0  0  0  0  0  0  0  0  0  0  0  0
   10.4330   -0.3686   19.3401 C   0  0  0  0  0  0  0  0  0  0  0  0
   11.1876   -0.3946   18.5681 H   0  0  0  0  0  0  0  0  0  0  0  0
   10.0857    0.8372   19.9263 C   0  0  0  0  0  0  0  0  0  0  0  0
   10.5702    1.7499   19.6110 H   0  0  0  0  0  0  0  0  0  0  0  0
    9.1190    0.8808   20.9168 C   0  0  0  0  0  0  0  0  0  0  0  0
    8.8514    1.8235   21.3735 H   0  0  0  0  0  0  0  0  0  0  0  0
    5.6586   -0.4295   21.7086 C   0  0  0  0  0  0  0  0  0  0  0  0
    5.5280   -0.3210   20.3305 C   0  0  0  0  0  0  0  0  0  0  0  0
    6.4057   -0.1954   19.7109 H   0  0  0  0  0  0  0  0  0  0  0  0
    4.2686   -0.3793   19.7565 C   0  0  0  0  0  0  0  0  0  0  0  0
    4.1652   -0.2992   18.6841 H   0  0  0  0  0  0  0  0  0  0  0  0
    3.1459   -0.5406   20.5507 C   0  0  0  0  0  0  0  0  0  0  0  0
    2.1676   -0.5861   20.0956 H   0  0  0  0  0  0  0  0  0  0  0  0
    3.2749   -0.6551   21.9276 C   0  0  0  0  0  0  0  0  0  0  0  0
    2.3981   -0.7915   22.5430 H   0  0  0  0  0  0  0  0  0  0  0  0
    4.5279   -0.6072   22.5049 C   0  0  0  0  0  0  0  0  0  0  0  0
    4.6587   -0.7251   23.5812 H   0  0  0  0  0  0  0  0  0  0  0  0
    7.1756    1.2993   23.3147 C   0  0  0  0  0  0  0  0  0  0  0  0
    7.8186    1.6566   24.5136 C   0  0  0  0  0  0  0  0  0  0  0  0
    7.6959    2.9720   24.9732 C   0  0  0  0  0  0  0  0  0  0  0  0
    8.1874    3.2495   25.8953 H   0  0  0  0  0  0  0  0  0  0  0  0
    6.9585    3.9143   24.2861 C   0  0  0  0  0  0  0  0  0  0  0  0
    6.8716    4.9192   24.6706 H   0  0  0  0  0  0  0  0  0  0  0  0
    6.3403    3.5631   23.0971 C   0  0  0  0  0  0  0  0  0  0  0  0
    5.7704    4.2923   22.5411 H   0  0  0  0  0  0  0  0  0  0  0  0
    6.4551    2.2692   22.6223 C   0  0  0  0  0  0  0  0  0  0  0  0
    5.9717    2.0020   21.6929 H   0  0  0  0  0  0  0  0  0  0  0  0
    8.6696    0.7746   25.3004 C   0  0  0  0  0  3  0  0  0  0  0  0
    9.2847    1.2994   26.0454 H   0  0  0  0  0  0  0  0  0  0  0  0
    9.7683   -1.1872   25.9385 C   0  0  0  0  0  0  0  0  0  0  0  0
    9.2739   -2.0286   26.4370 H   0  0  0  0  0  0  0  0  0  0  0  0
   10.2280   -0.5295   26.6940 H   0  0  0  0  0  0  0  0  0  0  0  0
   10.8765   -1.7037   24.9960 C   0  0  1  0  0  0  0  0  0  0  0  0
   11.2933   -0.8109   24.5051 H   0  0  0  0  0  0  0  0  0  0  0  0
   12.0253   -2.3410   25.7750 C   0  0  1  0  0  0  0  0  0  0  0  0
   12.3553   -1.6936   26.5899 H   0  0  0  0  0  0  0  0  0  0  0  0
   11.8200   -3.8402   26.1096 C   0  0  0  0  0  0  0  0  0  0  0  0
   12.3031   -4.1008   24.6653 C   0  0  1  0  0  0  0  0  0  0  0  0
   12.8689   -5.0147   24.4779 H   0  0  0  0  0  0  0  0  0  0  0  0
   11.1630   -3.9435   23.6672 C   0  0  0  0  0  0  0  0  0  0  0  0
   10.5094   -4.8147   23.7258 H   0  0  0  0  0  0  0  0  0  0  0  0
   11.5915   -3.9280   22.6614 H   0  0  0  0  0  0  0  0  0  0  0  0
   10.3407   -2.6532   23.8965 C   0  0  0  0  0  0  0  0  0  0  0  0
   10.2974   -2.0958   22.9555 H   0  0  0  0  0  0  0  0  0  0  0  0
    9.2986   -2.9415   24.1471 H   0  0  0  0  0  0  0  0  0  0  0  0
   13.0689   -2.7735   24.7310 C   0  0  0  0  0  0  0  0  0  0  0  0
   14.0761   -2.8659   25.1278 H   0  0  0  0  0  0  0  0  0  0  0  0
   13.1028   -2.1905   23.8119 H   0  0  0  0  0  0  0  0  0  0  0  0
   10.4654   -4.3842   26.5392 C   0  0  0  0  0  0  0  0  0  0  0  0
    9.6507   -4.1314   25.8728 H   0  0  0  0  0  0  0  0  0  0  0  0
   10.2134   -4.0171   27.5321 H   0  0  0  0  0  0  0  0  0  0  0  0
   10.5223   -5.4706   26.5922 H   0  0  0  0  0  0  0  0  0  0  0  0
   12.8415   -4.3093   27.1473 C   0  0  0  0  0  0  0  0  0  0  0  0
   12.5669   -3.9348   28.1317 H   0  0  0  0  0  0  0  0  0  0  0  0
   13.8480   -3.9681   26.9243 H   0  0  0  0  0  0  0  0  0  0  0  0
   12.8543   -5.3967   27.1895 H   0  0  0  0  0  0  0  0  0  0  0  0
    6.1225   -3.3358   23.4159 C   0  0  0  0  0  0  0  0  0  0  0  0
    5.9275   -3.1544   22.3521 H   0  0  0  0  0  0  0  0  0  0  0  0
    5.1660   -3.4264   23.9409 H   0  0  0  0  0  0  0  0  0  0  0  0
    6.6725   -4.2794   23.5303 H   0  0  0  0  0  0  0  0  0  0  0  0
  1  4  1  0  0  0  0
  1  2  1  1  0  0  0
  3 27  1  0  0  0  0
  3  1  1  0  0  0  0
  4 37  1  0  0  0  0
  4 39  1  0  0  0  0
  5  3  1  0  0  0  0
  6  7  1  0  0  0  0
  6  5  2  0  0  0  0
  8  6  1  0  0  0  0
  9  8  1  0  0  0  0
 10  8  2  0  0  0  0
 10 12  1  0  0  0  0
 11 10  1  0  0  0  0
 12 14  2  0  0  0  0
 13 12  1  0  0  0  0
 14  5  1  0  0  0  0
 14 15  1  0  0  0  0
 16 25  1  0  0  0  0
 16  3  1  0  0  0  0
 17 16  2  0  0  0  0
 18 17  1  0  0  0  0
 19 17  1  0  0  0  0
 19 21  2  0  0  0  0
 20 19  1  0  0  0  0
 21 23  1  0  0  0  0
 22 21  1  0  0  0  0
 23 25  2  0  0  0  0
 23 24  1  0  0  0  0
 25 26  1  0  0  0  0
 27 28  1  0  0  0  0
 28 29  2  0  0  0  0
 28 37  1  0  0  0  0
 29 30  1  0  0  0  0
 31 32  1  0  0  0  0
 31 29  1  0  0  0  0
 33 31  2  0  0  0  0
 34 33  1  0  0  0  0
 35 33  1  0  0  0  0
 35 27  2  0  0  0  0
 36 35  1  0  0  0  0
 37 38  1  0  0  0  0
 39 40  1  0  0  0  0
 39 41  1  0  0  0  0
 42 43  1  6  0  0  0
 42 44  1  0  0  0  0
 42 39  1  0  0  0  0
 44 46  1  0  0  0  0
 44 45  1  1  0  0  0
 46 58  1  0  0  0  0
 46 62  1  0  0  0  0
 47 48  1  6  0  0  0
 47 55  1  0  0  0  0
 47 46  1  0  0  0  0
 49 50  1  0  0  0  0
 49 52  1  0  0  0  0
 49 47  1  0  0  0  0
 51 49  1  0  0  0  0
 52 54  1  0  0  0  0
 52 42  1  0  0  0  0
 53 52  1  0  0  0  0
 55 56  1  0  0  0  0
 55 44  1  0  0  0  0
 57 55  1  0  0  0  0
 58 61  1  0  0  0  0
 58 60  1  0  0  0  0
 59 58  1  0  0  0  0
 62 65  1  0  0  0  0
 62 63  1  0  0  0  0
 64 62  1  0  0  0  0
 66 69  1  0  0  0  0
 66 68  1  0  0  0  0
 66  1  1  0  0  0  0
 67 66  1  0  0  0  0
M  END
$$$$
