CSD_code = AHEJIH | q = 0 | S = 0 | Stoichiometry = C20H24Cl2N4O2Ru | MND = 6
 OpenBabel04212202003D

 53 58  0  0  1  0  0  0  0  0999 V2000
    2.5316    7.6619    3.2818 Ru  0  0  0  0  0  0  0  0  0  0  0  0
    0.4521    8.5705    2.6858 Cl  0  0  0  0  0  0  0  0  0  0  0  0
    3.7255    9.4304    2.3075 Cl  0  0  0  0  0  0  0  0  0  0  0  0
    0.1268    5.8449    6.0136 O   0  0  0  0  0  0  0  0  0  0  0  0
    6.1306    5.8677    2.6680 O   0  0  0  0  0  0  0  0  0  0  0  0
    2.1952    8.6038    5.0041 N   0  0  0  0  0  0  0  0  0  0  0  0
    1.4597    6.2469    4.2492 N   0  0  1  0  0  0  0  0  0  0  0  0
    2.8468    6.7759    1.5272 N   0  0  0  0  0  0  0  0  0  0  0  0
    4.3450    6.8381    3.6281 N   0  0  1  0  0  0  0  0  0  0  0  0
    2.5608    9.8489    5.3082 C   0  0  0  0  0  3  0  0  0  0  0  0
    3.2376   10.3243    4.6080 H   0  0  0  0  0  0  0  0  0  0  0  0
    2.0913   10.5132    6.4253 C   0  0  0  0  0  0  0  0  0  0  0  0
    2.4113   11.5248    6.6164 H   0  0  0  0  0  0  0  0  0  0  0  0
    1.1989    9.8731    7.2834 C   0  0  0  0  0  0  0  0  0  0  0  0
    0.8180   10.3761    8.1584 H   0  0  0  0  0  0  0  0  0  0  0  0
    0.7974    8.5898    6.9762 C   0  0  0  0  0  0  0  0  0  0  0  0
    0.0901    8.0444    7.5800 H   0  0  0  0  0  0  0  0  0  0  0  0
    1.3075    7.9874    5.8264 C   0  0  0  0  0  0  0  0  0  0  0  0
    0.9499    6.6804    5.3560 C   0  0  2  0  0  3  0  0  0  0  0  0
   -0.0048    4.6852    5.1953 C   0  0  0  0  0  0  0  0  0  0  0  0
   -1.0536    4.5884    4.9026 H   0  0  0  0  0  0  0  0  0  0  0  0
    0.2888    3.8124    5.7848 H   0  0  0  0  0  0  0  0  0  0  0  0
    0.9255    4.9222    3.9721 C   0  0  0  0  0  0  0  0  0  0  0  0
    0.1372    4.9432    2.6622 C   0  0  0  0  0  0  0  0  0  0  0  0
   -0.4913    5.8308    2.6249 H   0  0  0  0  0  0  0  0  0  0  0  0
   -0.4826    4.0527    2.5854 H   0  0  0  0  0  0  0  0  0  0  0  0
    0.8187    4.9712    1.8166 H   0  0  0  0  0  0  0  0  0  0  0  0
    2.0662    3.9056    3.9051 C   0  0  0  0  0  0  0  0  0  0  0  0
    2.7908    4.2230    3.1570 H   0  0  0  0  0  0  0  0  0  0  0  0
    1.6784    2.9280    3.6295 H   0  0  0  0  0  0  0  0  0  0  0  0
    2.5681    3.8301    4.8677 H   0  0  0  0  0  0  0  0  0  0  0  0
    2.0486    6.8281    0.4612 C   0  0  0  0  0  3  0  0  0  0  0  0
    1.0725    7.2692    0.6261 H   0  0  0  0  0  0  0  0  0  0  0  0
    2.4383    6.3790   -0.7862 C   0  0  0  0  0  0  0  0  0  0  0  0
    1.7554    6.4561   -1.6168 H   0  0  0  0  0  0  0  0  0  0  0  0
    3.7141    5.8449   -0.9587 C   0  0  0  0  0  0  0  0  0  0  0  0
    4.0379    5.4914   -1.9250 H   0  0  0  0  0  0  0  0  0  0  0  0
    4.5599    5.7985    0.1297 C   0  0  0  0  0  0  0  0  0  0  0  0
    5.5684    5.4233    0.0631 H   0  0  0  0  0  0  0  0  0  0  0  0
    4.0989    6.2789    1.3553 C   0  0  0  0  0  0  0  0  0  0  0  0
    4.8745    6.3356    2.5604 C   0  0  2  0  0  3  0  0  0  0  0  0
    6.5569    6.1660    3.9950 C   0  0  0  0  0  0  0  0  0  0  0  0
    7.4050    6.8536    3.9367 H   0  0  0  0  0  0  0  0  0  0  0  0
    6.8769    5.2357    4.4719 H   0  0  0  0  0  0  0  0  0  0  0  0
    5.3292    6.8100    4.6994 C   0  0  0  0  0  0  0  0  0  0  0  0
    4.8108    5.9551    5.8569 C   0  0  0  0  0  0  0  0  0  0  0  0
    4.6861    4.9208    5.5422 H   0  0  0  0  0  0  0  0  0  0  0  0
    3.8467    6.3388    6.1870 H   0  0  0  0  0  0  0  0  0  0  0  0
    5.5096    5.9910    6.6890 H   0  0  0  0  0  0  0  0  0  0  0  0
    5.6318    8.2339    5.1665 C   0  0  0  0  0  0  0  0  0  0  0  0
    5.7426    8.8884    4.3040 H   0  0  0  0  0  0  0  0  0  0  0  0
    6.5463    8.2468    5.7553 H   0  0  0  0  0  0  0  0  0  0  0  0
    4.8149    8.6082    5.7773 H   0  0  0  0  0  0  0  0  0  0  0  0
  1  9  1  0  0  0  0
  1  7  1  0  0  0  0
  1  6  1  0  0  0  0
  2  1  1  0  0  0  0
  3  1  1  0  0  0  0
  5 42  1  0  0  0  0
  6 10  1  0  0  0  0
  6 18  1  0  0  0  0
  7 23  1  6  0  0  0
  7 19  1  0  0  0  0
  8  1  1  0  0  0  0
  9 45  1  6  0  0  0
 10 12  1  0  0  0  0
 11 10  1  0  0  0  0
 12 13  1  0  0  0  0
 12 14  2  0  0  0  0
 14 15  1  0  0  0  0
 16 14  1  0  0  0  0
 16 17  1  0  0  0  0
 18 16  2  0  0  0  0
 19 18  1  1  0  0  0
 19  4  1  0  0  0  0
 20 22  1  0  0  0  0
 20  4  1  0  0  0  0
 21 20  1  0  0  0  0
 23 20  1  0  0  0  0
 24 23  1  0  0  0  0
 25 24  1  0  0  0  0
 26 24  1  0  0  0  0
 27 24  1  0  0  0  0
 28 23  1  0  0  0  0
 28 31  1  0  0  0  0
 29 28  1  0  0  0  0
 30 28  1  0  0  0  0
 32 33  1  0  0  0  0
 32  8  1  0  0  0  0
 34 32  1  0  0  0  0
 35 34  1  0  0  0  0
 36 34  2  0  0  0  0
 36 38  1  0  0  0  0
 37 36  1  0  0  0  0
 38 40  2  0  0  0  0
 39 38  1  0  0  0  0
 40  8  1  0  0  0  0
 41 40  1  1  0  0  0
 41  5  1  0  0  0  0
 41  9  1  0  0  0  0
 42 44  1  0  0  0  0
 42 45  1  0  0  0  0
 43 42  1  0  0  0  0
 45 50  1  0  0  0  0
 45 46  1  0  0  0  0
 46 48  1  0  0  0  0
 46 49  1  0  0  0  0
 47 46  1  0  0  0  0
 50 52  1  0  0  0  0
 50 53  1  0  0  0  0
 51 50  1  0  0  0  0
M  END
$$$$
