CSD_code = AHIWAQ | q = 0 | S = 0 | Stoichiometry = C18H33ClNO3P3Ru | MND = 6
 OpenBabel04212202003D

 60 60  0  0  0  0  0  0  0  0999 V2000
    4.3610    2.7332   11.5720 Ru  0  0  0  0  0  0  0  0  0  0  0  0
    4.8522    0.5835   12.3998 P   0  0  0  0  0  4  0  0  0  0  0  0
    4.0961    3.7576   13.6381 P   0  0  0  0  0  4  0  0  0  0  0  0
    5.1726    2.3816    9.4282 P   0  0  0  0  0  4  0  0  0  0  0  0
    2.6464    2.1506   11.3153 C   0  0  0  0  0  2  0  0  0  0  0  0
    3.8034    0.0079   13.7938 C   0  0  0  0  0  0  0  0  0  0  0  0
    4.0683   -1.0145   14.0646 H   0  0  0  0  0  0  0  0  0  0  0  0
    2.7631    0.0405   13.4692 H   0  0  0  0  0  0  0  0  0  0  0  0
    3.9157    0.6523   14.6628 H   0  0  0  0  0  0  0  0  0  0  0  0
    4.5016   -0.8234   11.2718 C   0  0  0  0  0  0  0  0  0  0  0  0
    5.1203   -0.7738   10.3786 H   0  0  0  0  0  0  0  0  0  0  0  0
    3.4540   -0.7674   10.9748 H   0  0  0  0  0  0  0  0  0  0  0  0
    4.6840   -1.7678   11.7854 H   0  0  0  0  0  0  0  0  0  0  0  0
    6.5281    0.1600   12.9965 C   0  0  0  0  0  0  0  0  0  0  0  0
    6.8031    0.8448   13.7977 H   0  0  0  0  0  0  0  0  0  0  0  0
    7.2374    0.2997   12.1816 H   0  0  0  0  0  0  0  0  0  0  0  0
    6.5622   -0.8699   13.3529 H   0  0  0  0  0  0  0  0  0  0  0  0
    2.4520    3.6436   14.4369 C   0  0  0  0  0  0  0  0  0  0  0  0
    2.4395    4.1982   15.3748 H   0  0  0  0  0  0  0  0  0  0  0  0
    2.1956    2.6016   14.6204 H   0  0  0  0  0  0  0  0  0  0  0  0
    1.7179    4.0660   13.7510 H   0  0  0  0  0  0  0  0  0  0  0  0
    5.2356    3.2967   14.9985 C   0  0  0  0  0  0  0  0  0  0  0  0
    4.9987    3.8866   15.8844 H   0  0  0  0  0  0  0  0  0  0  0  0
    6.2505    3.5191   14.6678 H   0  0  0  0  0  0  0  0  0  0  0  0
    5.1653    2.2378   15.2376 H   0  0  0  0  0  0  0  0  0  0  0  0
    4.3583    5.5657   13.6725 C   0  0  0  0  0  0  0  0  0  0  0  0
    3.6066    6.0626   13.0613 H   0  0  0  0  0  0  0  0  0  0  0  0
    5.3502    5.7810   13.2758 H   0  0  0  0  0  0  0  0  0  0  0  0
    4.2912    5.9189   14.7022 H   0  0  0  0  0  0  0  0  0  0  0  0
    5.6197    3.8904    8.5001 C   0  0  0  0  0  0  0  0  0  0  0  0
    6.0443    3.6104    7.5353 H   0  0  0  0  0  0  0  0  0  0  0  0
    6.3582    4.4463    9.0776 H   0  0  0  0  0  0  0  0  0  0  0  0
    4.7347    4.5074    8.3511 H   0  0  0  0  0  0  0  0  0  0  0  0
    4.0744    1.5565    8.2166 C   0  0  0  0  0  0  0  0  0  0  0  0
    3.1610    2.1454    8.1363 H   0  0  0  0  0  0  0  0  0  0  0  0
    3.8140    0.5587    8.5653 H   0  0  0  0  0  0  0  0  0  0  0  0
    4.5569    1.4924    7.2416 H   0  0  0  0  0  0  0  0  0  0  0  0
    6.7451    1.4606    9.2302 C   0  0  0  0  0  0  0  0  0  0  0  0
    6.6622    0.4464    9.6153 H   0  0  0  0  0  0  0  0  0  0  0  0
    7.5129    1.9914    9.7935 H   0  0  0  0  0  0  0  0  0  0  0  0
    7.0163    1.4289    8.1746 H   0  0  0  0  0  0  0  0  0  0  0  0
    3.9016    4.6074   10.8719 C   0  0  0  0  0  0  0  0  0  0  0  0
    4.7316    5.3187   10.8275 H   0  0  0  0  0  0  0  0  0  0  0  0
    2.7062    5.0847   10.4916 C   0  0  0  0  0  0  0  0  0  0  0  0
    1.8352    4.4359   10.5203 H   0  0  0  0  0  0  0  0  0  0  0  0
    2.4159    6.4331   10.0462 C   0  0  0  0  0  0  0  0  0  0  0  0
    1.0815    6.7812    9.7785 C   0  0  0  0  0  0  0  0  0  0  0  0
    0.3125    6.0323    9.9019 H   0  0  0  0  0  0  0  0  0  0  0  0
    0.7372    8.0468    9.3704 C   0  0  0  0  0  0  0  0  0  0  0  0
   -0.2885    8.3155    9.1686 H   0  0  0  0  0  0  0  0  0  0  0  0
    1.7326    9.0101    9.2125 C   0  0  0  0  0  0  0  0  0  0  0  0
    3.0661    8.6899    9.4638 C   0  0  0  0  0  0  0  0  0  0  0  0
    3.8194    9.4515    9.3305 H   0  0  0  0  0  0  0  0  0  0  0  0
    3.3980    7.4214    9.8740 C   0  0  0  0  0  0  0  0  0  0  0  0
    4.4340    7.1873   10.0638 H   0  0  0  0  0  0  0  0  0  0  0  0
    6.5948    3.4757   11.9175 Cl  0  0  0  0  0  0  0  0  0  0  0  0
    1.3860   10.3263    8.7926 N   0  0  0  0  0  0  0  0  0  0  0  0
    1.5837    1.7229   11.1773 O   0  0  0  0  0  1  0  0  0  0  0  0
    2.2833   11.1405    8.6603 O   0  0  0  0  0  0  0  0  0  0  0  0
    0.2096   10.5716    8.5893 O   0  0  0  0  0  0  0  0  0  0  0  0
  1 56  1  0  0  0  0
  1  2  1  0  0  0  0
  1  3  1  0  0  0  0
  2 14  1  0  0  0  0
  2  6  1  0  0  0  0
  3 26  1  0  0  0  0
  3 18  1  0  0  0  0
  3 22  1  0  0  0  0
  4  1  1  0  0  0  0
  5  1  1  0  0  0  0
  6  7  1  0  0  0  0
  6  9  1  0  0  0  0
  8  6  1  0  0  0  0
 10 13  1  0  0  0  0
 10  2  1  0  0  0  0
 11 10  1  0  0  0  0
 12 10  1  0  0  0  0
 14 17  1  0  0  0  0
 14 15  1  0  0  0  0
 16 14  1  0  0  0  0
 18 20  1  0  0  0  0
 18 19  1  0  0  0  0
 21 18  1  0  0  0  0
 22 25  1  0  0  0  0
 22 23  1  0  0  0  0
 24 22  1  0  0  0  0
 26 29  1  0  0  0  0
 27 26  1  0  0  0  0
 28 26  1  0  0  0  0
 30 32  1  0  0  0  0
 30  4  1  0  0  0  0
 31 30  1  0  0  0  0
 33 30  1  0  0  0  0
 34 36  1  0  0  0  0
 34  4  1  0  0  0  0
 35 34  1  0  0  0  0
 37 34  1  0  0  0  0
 38  4  1  0  0  0  0
 38 39  1  0  0  0  0
 38 40  1  0  0  0  0
 41 38  1  0  0  0  0
 42  1  1  0  0  0  0
 43 42  1  0  0  0  0
 44 45  1  0  0  0  0
 44 42  2  0  0  0  0
 46 44  1  0  0  0  0
 47 48  1  0  0  0  0
 47 46  2  0  0  0  0
 49 47  1  0  0  0  0
 50 49  1  0  0  0  0
 51 49  2  0  0  0  0
 51 52  1  0  0  0  0
 52 54  2  0  0  0  0
 53 52  1  0  0  0  0
 54 46  1  0  0  0  0
 54 55  1  0  0  0  0
 57 51  1  0  0  0  0
 58  5  1  0  0  0  0
 59 57  2  0  0  0  0
 60 57  2  0  0  0  0
M  END
$$$$
