CSD_code = AHIWEU | q = 0 | S = 0 | Stoichiometry = C19H36ClO2P3Ru | MND = 6
 OpenBabel04212202003D

 62 62  0  0  0  0  0  0  0  0999 V2000
    4.9372    9.2251    2.2443 Ru  0  0  0  0  0  0  0  0  0  0  0  0
    7.2300   15.7179    4.5018 C   0  0  0  0  0  0  0  0  0  0  0  0
    8.2598   14.7929    4.3868 C   0  0  0  0  0  0  0  0  0  0  0  0
    9.2822   15.0663    4.5995 H   0  0  0  0  0  0  0  0  0  0  0  0
    7.9798   13.4970    3.9936 C   0  0  0  0  0  0  0  0  0  0  0  0
    8.7941   12.7902    3.9091 H   0  0  0  0  0  0  0  0  0  0  0  0
    5.9257   15.3120    4.2178 C   0  0  0  0  0  0  0  0  0  0  0  0
    5.1327   16.0376    4.3137 H   0  0  0  0  0  0  0  0  0  0  0  0
    5.6603   14.0201    3.8259 C   0  0  0  0  0  0  0  0  0  0  0  0
    4.6390   13.7407    3.6153 H   0  0  0  0  0  0  0  0  0  0  0  0
    6.6837   13.0753    3.7001 C   0  0  0  0  0  0  0  0  0  0  0  0
    6.4644   11.6941    3.2785 C   0  0  0  0  0  0  0  0  0  0  0  0
    7.3667   11.0881    3.2905 H   0  0  0  0  0  0  0  0  0  0  0  0
    5.3070   11.1562    2.8884 C   0  0  0  0  0  0  0  0  0  0  0  0
    4.4415   11.8247    2.8930 H   0  0  0  0  0  0  0  0  0  0  0  0
    4.9628    5.6817    2.6744 C   0  0  0  0  0  0  0  0  0  0  0  0
    4.3543    5.7398    3.5741 H   0  0  0  0  0  0  0  0  0  0  0  0
    6.0103    5.7952    2.9545 H   0  0  0  0  0  0  0  0  0  0  0  0
    4.8155    4.7109    2.2002 H   0  0  0  0  0  0  0  0  0  0  0  0
    5.5883    6.4416    0.1134 C   0  0  0  0  0  0  0  0  0  0  0  0
    5.3687    5.3966   -0.1075 H   0  0  0  0  0  0  0  0  0  0  0  0
    6.6314    6.5389    0.4153 H   0  0  0  0  0  0  0  0  0  0  0  0
    5.4288    7.0410   -0.7801 H   0  0  0  0  0  0  0  0  0  0  0  0
    2.8751    6.5112    0.9429 C   0  0  0  0  0  0  0  0  0  0  0  0
    2.5690    7.1459    0.1122 H   0  0  0  0  0  0  0  0  0  0  0  0
    2.1678    6.6658    1.7568 H   0  0  0  0  0  0  0  0  0  0  0  0
    2.8768    5.4644    0.6376 H   0  0  0  0  0  0  0  0  0  0  0  0
    4.0513    9.6609   -1.1909 C   0  0  0  0  0  0  0  0  0  0  0  0
    4.2627   10.2343   -2.0940 H   0  0  0  0  0  0  0  0  0  0  0  0
    3.0281    9.8489   -0.8646 H   0  0  0  0  0  0  0  0  0  0  0  0
    4.1657    8.5991   -1.3991 H   0  0  0  0  0  0  0  0  0  0  0  0
    4.8459   11.9993    0.0602 C   0  0  0  0  0  0  0  0  0  0  0  0
    5.5697   12.5398    0.6680 H   0  0  0  0  0  0  0  0  0  0  0  0
    3.8419   12.1907    0.4384 H   0  0  0  0  0  0  0  0  0  0  0  0
    4.9150   12.3221   -0.9795 H   0  0  0  0  0  0  0  0  0  0  0  0
    6.8170   10.1194   -0.6368 C   0  0  0  0  0  0  0  0  0  0  0  0
    6.8137   10.6442   -1.5919 H   0  0  0  0  0  0  0  0  0  0  0  0
    7.1066    9.0805   -0.7864 H   0  0  0  0  0  0  0  0  0  0  0  0
    7.5345   10.5865    0.0373 H   0  0  0  0  0  0  0  0  0  0  0  0
    2.6489    7.9455    4.6716 C   0  0  0  0  0  0  0  0  0  0  0  0
    2.3914    7.9431    5.7312 H   0  0  0  0  0  0  0  0  0  0  0  0
    2.7842    6.9221    4.3276 H   0  0  0  0  0  0  0  0  0  0  0  0
    1.8463    8.4081    4.0966 H   0  0  0  0  0  0  0  0  0  0  0  0
    5.3197    8.2361    5.6410 C   0  0  0  0  0  0  0  0  0  0  0  0
    6.1996    8.8779    5.6793 H   0  0  0  0  0  0  0  0  0  0  0  0
    5.6304    7.2394    5.3319 H   0  0  0  0  0  0  0  0  0  0  0  0
    4.8547    8.1899    6.6255 H   0  0  0  0  0  0  0  0  0  0  0  0
    3.6389   10.4609    5.2809 C   0  0  0  0  0  0  0  0  0  0  0  0
    3.2380   10.1959    6.2601 H   0  0  0  0  0  0  0  0  0  0  0  0
    2.8664   10.9496    4.6875 H   0  0  0  0  0  0  0  0  0  0  0  0
    4.4876   11.1338    5.3938 H   0  0  0  0  0  0  0  0  0  0  0  0
    6.6778    8.7410    2.5172 C   0  0  0  0  0  2  0  0  0  0  0  0
    8.6747   17.4889    5.1671 C   0  0  0  0  0  0  0  0  0  0  0  0
    9.1199   16.9484    6.0096 H   0  0  0  0  0  0  0  0  0  0  0  0
    8.5604   18.5384    5.4351 H   0  0  0  0  0  0  0  0  0  0  0  0
    9.3355   17.4090    4.2969 H   0  0  0  0  0  0  0  0  0  0  0  0
    2.6633    9.8433    1.8831 Cl  0  0  0  0  0  0  0  0  0  0  0  0
    7.7617    8.3701    2.6663 O   0  0  0  0  0  1  0  0  0  0  0  0
    7.3812   17.0249    4.8790 O   0  0  0  0  0  0  0  0  0  0  0  0
    4.1651    8.9447    4.4073 P   0  0  0  0  0  4  0  0  0  0  0  0
    5.1691   10.2033    0.1598 P   0  0  0  0  0  4  0  0  0  0  0  0
    4.5375    7.0321    1.5016 P   0  0  0  0  0  4  0  0  0  0  0  0
  1 52  1  0  0  0  0
  1 14  1  0  0  0  0
  1 60  1  0  0  0  0
  2 59  1  0  0  0  0
  3  2  1  0  0  0  0
  3  4  1  0  0  0  0
  5  3  2  0  0  0  0
  6  5  1  0  0  0  0
  7  8  1  0  0  0  0
  7  2  2  0  0  0  0
  9  7  1  0  0  0  0
 10  9  1  0  0  0  0
 11  9  2  0  0  0  0
 11  5  1  0  0  0  0
 12 13  1  0  0  0  0
 12 11  1  0  0  0  0
 14 15  1  0  0  0  0
 14 12  2  0  0  0  0
 16 18  1  0  0  0  0
 16 17  1  0  0  0  0
 19 16  1  0  0  0  0
 20 22  1  0  0  0  0
 20 62  1  0  0  0  0
 21 20  1  0  0  0  0
 23 20  1  0  0  0  0
 24 62  1  0  0  0  0
 24 26  1  0  0  0  0
 25 24  1  0  0  0  0
 27 24  1  0  0  0  0
 28 30  1  0  0  0  0
 28 61  1  0  0  0  0
 29 28  1  0  0  0  0
 31 28  1  0  0  0  0
 32 61  1  0  0  0  0
 32 34  1  0  0  0  0
 32 33  1  0  0  0  0
 35 32  1  0  0  0  0
 36 39  1  0  0  0  0
 36 61  1  0  0  0  0
 37 36  1  0  0  0  0
 38 36  1  0  0  0  0
 40 41  1  0  0  0  0
 42 40  1  0  0  0  0
 43 40  1  0  0  0  0
 44 45  1  0  0  0  0
 44 47  1  0  0  0  0
 46 44  1  0  0  0  0
 48 51  1  0  0  0  0
 48 49  1  0  0  0  0
 50 48  1  0  0  0  0
 52 58  1  0  0  0  0
 53 55  1  0  0  0  0
 53 54  1  0  0  0  0
 56 53  1  0  0  0  0
 57  1  1  0  0  0  0
 59 53  1  0  0  0  0
 60 40  1  0  0  0  0
 60 48  1  0  0  0  0
 60 44  1  0  0  0  0
 61  1  1  0  0  0  0
 62  1  1  0  0  0  0
 62 16  1  0  0  0  0
M  END
$$$$
