CSD_code = AHODUY | q = 1 | S = 0 | Stoichiometry = C10H8AuCl2N2(1+) | MND = 4
 OpenBabel04212202003D

 23 25  0  0  0  0  0  0  0  0999 V2000
    3.2315    2.3877    7.4478 Au  0  0  0  0  0  0  0  0  0  0  0  0
    4.5062    1.7425    9.1592 Cl  0  0  0  0  0  0  0  0  0  0  0  0
    1.4339    1.9325    8.6856 Cl  0  0  0  0  0  0  0  0  0  0  0  0
    2.1812    3.0124    5.7794 N   0  0  0  0  0  0  0  0  0  0  0  0
    4.8010    2.8538    6.1844 N   0  0  0  0  0  0  0  0  0  0  0  0
    6.0851    2.7420    6.4924 C   0  0  0  0  0  0  0  0  0  0  0  0
    6.3034    2.3712    7.4852 H   0  0  0  0  0  0  0  0  0  0  0  0
    2.3862    3.8156    3.5591 C   0  0  0  0  0  0  0  0  0  0  0  0
    3.0014    4.1127    2.7263 H   0  0  0  0  0  0  0  0  0  0  0  0
    2.9661    3.3852    4.7492 C   0  0  0  0  0  0  0  0  0  0  0  0
    5.3698    3.6614    4.0301 C   0  0  0  0  0  0  0  0  0  0  0  0
    5.0732    4.0248    3.0603 H   0  0  0  0  0  0  0  0  0  0  0  0
    4.4122    3.3041    4.9751 C   0  0  0  0  0  0  0  0  0  0  0  0
    7.0845    3.0809    5.5944 C   0  0  0  0  0  0  0  0  0  0  0  0
    8.1192    2.9780    5.8780 H   0  0  0  0  0  0  0  0  0  0  0  0
    0.8600    3.0524    5.6825 C   0  0  0  0  0  0  0  0  0  0  0  0
    0.3111    2.7359    6.5595 H   0  0  0  0  0  0  0  0  0  0  0  0
    6.7169    3.5492    4.3425 C   0  0  0  0  0  0  0  0  0  0  0  0
    7.4657    3.8249    3.6157 H   0  0  0  0  0  0  0  0  0  0  0  0
    1.0041    3.8599    3.4464 C   0  0  0  0  0  0  0  0  0  0  0  0
    0.5464    4.1918    2.5270 H   0  0  0  0  0  0  0  0  0  0  0  0
    0.2244    3.4741    4.5257 C   0  0  0  0  0  0  0  0  0  0  0  0
   -0.8523    3.4951    4.4813 H   0  0  0  0  0  0  0  0  0  0  0  0
  1  3  1  0  0  0  0
  1  2  1  0  0  0  0
  4  1  1  0  0  0  0
  5  6  1  0  0  0  0
  5  1  1  0  0  0  0
  6  7  1  0  0  0  0
  8 10  1  0  0  0  0
  9  8  1  0  0  0  0
 10 13  2  0  0  0  0
 10  4  1  0  0  0  0
 11 18  2  0  0  0  0
 11 13  1  0  0  0  0
 12 11  1  0  0  0  0
 13  5  1  0  0  0  0
 14 15  1  0  0  0  0
 14  6  2  0  0  0  0
 16  4  1  0  0  0  0
 16 17  1  0  0  0  0
 18 14  1  0  0  0  0
 19 18  1  0  0  0  0
 20  8  2  0  0  0  0
 20 22  1  0  0  0  0
 21 20  1  0  0  0  0
 22 16  2  0  0  0  0
 23 22  1  0  0  0  0
M  END
$$$$
