CSD_code = AHOFEK | q = 1 | S = 0 | Stoichiometry = C8H6AuCl2N4(1+) | MND = 4
 OpenBabel04212202003D

 21 23  0  0  0  0  0  0  0  0999 V2000
   28.4460    8.0674    4.0789 Au  0  0  0  0  0  0  0  0  0  0  0  0
   30.6430    8.3202    3.7833 Cl  0  0  0  0  0  0  0  0  0  0  0  0
   28.0945    8.6745    1.9612 Cl  0  0  0  0  0  0  0  0  0  0  0  0
   26.4290    7.7811    4.5294 N   0  0  0  0  0  0  0  0  0  0  0  0
   25.0242    7.1377    6.2888 N   0  0  0  0  0  0  0  0  0  0  0  0
   27.2604    6.8516    7.8965 N   0  0  0  0  0  0  0  0  0  0  0  0
   28.5919    7.4830    6.0766 N   0  0  0  0  0  0  0  0  0  0  0  0
   25.3853    7.9406    3.7229 C   0  0  0  0  0  0  0  0  0  0  0  0
   25.6038    8.2626    2.7118 H   0  0  0  0  0  0  0  0  0  0  0  0
   24.0979    7.6989    4.1807 C   0  0  0  0  0  0  0  0  0  0  0  0
   23.2451    7.8262    3.5334 H   0  0  0  0  0  0  0  0  0  0  0  0
   23.9701    7.2872    5.5049 C   0  0  0  0  0  0  0  0  0  0  0  0
   23.0119    7.0698    5.9585 H   0  0  0  0  0  0  0  0  0  0  0  0
   26.2133    7.3834    5.7971 C   0  0  0  0  0  0  0  0  0  0  0  0
   27.4010    7.2255    6.6488 C   0  0  0  0  0  0  0  0  0  0  0  0
   28.3425    6.7151    8.6438 C   0  0  0  0  0  0  0  0  0  0  0  0
   28.1718    6.4065    9.6669 H   0  0  0  0  0  0  0  0  0  0  0  0
   29.6160    6.9563    8.1349 C   0  0  0  0  0  0  0  0  0  0  0  0
   30.5052    6.8459    8.7346 H   0  0  0  0  0  0  0  0  0  0  0  0
   29.6940    7.3507    6.8068 C   0  0  0  0  0  0  0  0  0  0  0  0
   30.6306    7.5669    6.3072 H   0  0  0  0  0  0  0  0  0  0  0  0
  1  4  1  0  0  0  0
  1  7  1  0  0  0  0
  2  1  1  0  0  0  0
  3  1  1  0  0  0  0
  4 14  1  0  0  0  0
  6 16  2  0  0  0  0
  7 15  1  0  0  0  0
  7 20  1  0  0  0  0
  8 10  2  0  0  0  0
  8  4  1  0  0  0  0
  9  8  1  0  0  0  0
 10 12  1  0  0  0  0
 11 10  1  0  0  0  0
 12 13  1  0  0  0  0
 12  5  2  0  0  0  0
 14  5  1  0  0  0  0
 14 15  2  0  0  0  0
 15  6  1  0  0  0  0
 16 17  1  0  0  0  0
 18 16  1  0  0  0  0
 18 19  1  0  0  0  0
 20 18  2  0  0  0  0
 21 20  1  0  0  0  0
M  END
$$$$
