CSD_code = AHOGUB | q = 1 | S = 0 | Stoichiometry = C8H6AuCl2N4(1+) | MND = 4
 OpenBabel04212202003D

 21 23  0  0  0  0  0  0  0  0999 V2000
    6.2467   12.8938   11.7139 Au  0  0  0  0  0  0  0  0  0  0  0  0
    5.4891   12.2305   13.7057 Cl  0  0  0  0  0  0  0  0  0  0  0  0
    6.6232   14.9327   12.5392 Cl  0  0  0  0  0  0  0  0  0  0  0  0
    6.2206    9.9915    8.7079 N   0  0  0  0  0  0  0  0  0  0  0  0
    5.9575   11.0500   10.7801 N   0  0  0  0  0  0  0  0  0  0  0  0
    6.3188   11.0427    9.4834 C   0  0  0  0  0  0  0  0  0  0  0  0
    6.9209   13.3425    9.7906 N   0  0  0  0  0  0  0  0  0  0  0  0
    7.2183   12.3622    7.6848 N   0  0  0  0  0  0  0  0  0  0  0  0
    7.6912   13.5048    7.2172 C   0  0  0  0  0  0  0  0  0  0  0  0
    7.9825   13.5026    6.1751 H   0  0  0  0  0  0  0  0  0  0  0  0
    5.7404    8.8699    9.2172 C   0  0  0  0  0  0  0  0  0  0  0  0
    5.6796    8.0316    8.5358 H   0  0  0  0  0  0  0  0  0  0  0  0
    7.3928   14.5012    9.3439 C   0  0  0  0  0  0  0  0  0  0  0  0
    7.4340   15.3121   10.0609 H   0  0  0  0  0  0  0  0  0  0  0  0
    5.4724    9.9347   11.3147 C   0  0  0  0  0  0  0  0  0  0  0  0
    5.1946    9.9840   12.3604 H   0  0  0  0  0  0  0  0  0  0  0  0
    5.3412    8.7851   10.5486 C   0  0  0  0  0  0  0  0  0  0  0  0
    4.9478    7.8762   10.9742 H   0  0  0  0  0  0  0  0  0  0  0  0
    6.8482   12.3017    8.9401 C   0  0  0  0  0  0  0  0  0  0  0  0
    7.8026   14.6338    8.0247 C   0  0  0  0  0  0  0  0  0  0  0  0
    8.1866   15.5704    7.6542 H   0  0  0  0  0  0  0  0  0  0  0  0
  1  3  1  0  0  0  0
  1  2  1  0  0  0  0
  4 11  2  0  0  0  0
  4  6  1  0  0  0  0
  5 15  1  0  0  0  0
  5  1  1  0  0  0  0
  6  5  1  0  0  0  0
  7  1  1  0  0  0  0
  8 19  1  0  0  0  0
  9  8  2  0  0  0  0
  9 20  1  0  0  0  0
 10  9  1  0  0  0  0
 11 17  1  0  0  0  0
 12 11  1  0  0  0  0
 13  7  1  0  0  0  0
 13 14  1  0  0  0  0
 15 16  1  0  0  0  0
 17 18  1  0  0  0  0
 17 15  2  0  0  0  0
 19  6  2  0  0  0  0
 19  7  1  0  0  0  0
 20 13  2  0  0  0  0
 21 20  1  0  0  0  0
M  END
$$$$
