CSD_code = AHOHUB | q = 0 | S = 0 | Stoichiometry = C11H9Cl2N3Pd | MND = 4
 OpenBabel04212202003D

 26 28  0  0  0  0  0  0  0  0999 V2000
   12.6304    3.0823    1.4038 Pd  0  0  0  0  0  0  0  0  0  0  0  0
   11.7856    4.8986    0.4328 Cl  0  0  0  0  0  0  0  0  0  0  0  0
   14.1413    4.3321    2.4212 Cl  0  0  0  0  0  0  0  0  0  0  0  0
   11.3629    1.8488    0.7149 N   0  0  0  0  0  0  0  0  0  0  0  0
   11.7081    0.6052    0.6524 N   0  0  0  0  0  2  0  0  0  0  0  0
   13.5383    1.3163    1.8897 N   0  0  0  0  0  0  0  0  0  0  0  0
   14.6681    1.0493    2.5402 C   0  0  0  0  0  3  0  0  0  0  0  0
   15.1274    1.8877    3.0512 H   0  0  0  0  0  0  0  0  0  0  0  0
   15.2239   -0.2153    2.5579 C   0  0  0  0  0  0  0  0  0  0  0  0
   16.1434   -0.3906    3.0914 H   0  0  0  0  0  0  0  0  0  0  0  0
   14.5820   -1.2504    1.8771 C   0  0  0  0  0  0  0  0  0  0  0  0
   15.0021   -2.2444    1.8766 H   0  0  0  0  0  0  0  0  0  0  0  0
   13.4091   -0.9893    1.2071 C   0  0  0  0  0  0  0  0  0  0  0  0
   12.8689   -1.7476    0.6656 H   0  0  0  0  0  0  0  0  0  0  0  0
   12.8970    0.3166    1.2248 C   0  0  0  0  0  0  0  0  0  0  0  0
   10.0717    2.1500    0.3020 C   0  0  0  0  0  0  0  0  0  0  0  0
    9.3688    3.1570    0.9732 C   0  0  0  0  0  0  0  0  0  0  0  0
    9.8202    3.6351    1.8396 H   0  0  0  0  0  0  0  0  0  0  0  0
    8.0978    3.4946    0.5522 C   0  0  0  0  0  0  0  0  0  0  0  0
    7.5544    4.2719    1.0666 H   0  0  0  0  0  0  0  0  0  0  0  0
    7.5228    2.8432   -0.5287 C   0  0  0  0  0  0  0  0  0  0  0  0
    6.5353    3.1229   -0.8629 H   0  0  0  0  0  0  0  0  0  0  0  0
    8.2106    1.8283   -1.1788 C   0  0  0  0  0  0  0  0  0  0  0  0
    7.7583    1.3193   -2.0164 H   0  0  0  0  0  0  0  0  0  0  0  0
    9.4761    1.4693   -0.7634 C   0  0  0  0  0  0  0  0  0  0  0  0
   10.0370    0.6950   -1.2640 H   0  0  0  0  0  0  0  0  0  0  0  0
  1  6  1  0  0  0  0
  1  3  1  0  0  0  0
  2  1  1  0  0  0  0
  4  1  1  0  0  0  0
  5  4  1  0  0  0  0
  5 15  1  0  0  0  0
  6  7  1  0  0  0  0
  7  9  1  0  0  0  0
  7  8  1  0  0  0  0
  9 10  1  0  0  0  0
 11  9  2  0  0  0  0
 12 11  1  0  0  0  0
 13 15  2  0  0  0  0
 13 11  1  0  0  0  0
 14 13  1  0  0  0  0
 15  6  1  0  0  0  0
 16  4  1  0  0  0  0
 16 17  1  0  0  0  0
 17 18  1  0  0  0  0
 19 17  2  0  0  0  0
 19 20  1  0  0  0  0
 21 19  1  0  0  0  0
 22 21  1  0  0  0  0
 23 25  1  0  0  0  0
 23 21  2  0  0  0  0
 24 23  1  0  0  0  0
 25 16  2  0  0  0  0
 26 25  1  0  0  0  0
M  END
$$$$
