CSD_code = AHOPIX | q = 0 | S = 0 | Stoichiometry = C24H40Br2N4O2Pd | MND = 4
 OpenBabel04212202003D

 73 76  0  0  1  0  0  0  0  0999 V2000
    0.5288    4.0921    7.0222 Pd  0  0  0  0  0  0  0  0  0  0  0  0
    1.9596    2.0738    7.1569 Br  0  0  0  0  0  0  0  0  0  0  0  0
   -0.7747    6.1626    7.1670 Br  0  0  0  0  0  0  0  0  0  0  0  0
    2.1060    5.2554    7.5512 N   0  0  0  0  0  0  0  0  0  0  0  0
    2.1933    5.6510    8.8129 N   0  0  0  0  0  0  0  0  0  0  0  0
    1.4928    4.8612    9.8009 C   0  0  0  0  0  0  0  0  0  0  0  0
    1.5768    3.7979    9.5543 H   0  0  0  0  0  0  0  0  0  0  0  0
    0.4309    5.1365    9.8675 H   0  0  0  0  0  0  0  0  0  0  0  0
    1.9667    5.0260   10.7679 H   0  0  0  0  0  0  0  0  0  0  0  0
    2.4332    7.0313    9.1674 C   0  0  0  0  0  0  0  0  0  0  0  0
    2.1849    7.6826    8.3279 H   0  0  0  0  0  0  0  0  0  0  0  0
    3.4701    7.1937    9.4741 H   0  0  0  0  0  0  0  0  0  0  0  0
    1.7791    7.2957    9.9975 H   0  0  0  0  0  0  0  0  0  0  0  0
    2.8463    5.7358    6.5985 C   0  0  1  0  0  3  0  0  0  0  0  0
    4.0649    6.6282    6.5896 C   0  0  1  0  0  0  0  0  0  0  0  0
    4.1845    7.3332    7.4047 H   0  0  0  0  0  0  0  0  0  0  0  0
    5.2426    5.6379    6.4609 C   0  0  0  0  0  0  0  0  0  0  0  0
    5.1661    4.8364    7.1960 H   0  0  0  0  0  0  0  0  0  0  0  0
    6.1916    6.1482    6.6210 H   0  0  0  0  0  0  0  0  0  0  0  0
    5.1032    5.1137    5.0209 C   0  0  0  0  0  0  0  0  0  0  0  0
    4.9264    4.0384    4.9920 H   0  0  0  0  0  0  0  0  0  0  0  0
    5.9868    5.3217    4.4186 H   0  0  0  0  0  0  0  0  0  0  0  0
    3.8807    5.8837    4.4645 C   0  0  1  0  0  0  0  0  0  0  0  0
    2.7276    5.2553    5.2219 C   0  0  0  0  0  0  0  0  0  0  0  0
    3.9722    7.2531    5.1808 C   0  0  0  0  0  0  0  0  0  0  0  0
    3.7389    5.8474    2.9586 C   0  0  0  0  0  0  0  0  0  0  0  0
    4.6168    6.2758    2.4807 H   0  0  0  0  0  0  0  0  0  0  0  0
    2.8579    6.4026    2.6457 H   0  0  0  0  0  0  0  0  0  0  0  0
    3.6270    4.8173    2.6275 H   0  0  0  0  0  0  0  0  0  0  0  0
    2.7136    8.1053    5.0104 C   0  0  0  0  0  0  0  0  0  0  0  0
    1.8078    7.5550    5.2583 H   0  0  0  0  0  0  0  0  0  0  0  0
    2.6272    8.4516    3.9834 H   0  0  0  0  0  0  0  0  0  0  0  0
    2.7653    8.9801    5.6565 H   0  0  0  0  0  0  0  0  0  0  0  0
    5.1801    8.0990    4.7942 C   0  0  0  0  0  0  0  0  0  0  0  0
    6.1102    7.5429    4.8350 H   0  0  0  0  0  0  0  0  0  0  0  0
    5.2613    8.9508    5.4669 H   0  0  0  0  0  0  0  0  0  0  0  0
    5.0546    8.4790    3.7830 H   0  0  0  0  0  0  0  0  0  0  0  0
    1.8914    4.4893    4.7750 O   0  0  0  0  0  0  0  0  0  0  0  0
   -0.3771    1.8385    4.2975 C   0  0  0  0  0  0  0  0  0  0  0  0
   -0.3478    0.9068    4.8563 H   0  0  0  0  0  0  0  0  0  0  0  0
    0.6513    2.1926    4.1473 H   0  0  0  0  0  0  0  0  0  0  0  0
   -0.8425    1.6616    3.3294 H   0  0  0  0  0  0  0  0  0  0  0  0
   -1.1930    4.1170    4.3352 C   0  0  0  0  0  0  0  0  0  0  0  0
   -1.8882    4.7761    4.8558 H   0  0  0  0  0  0  0  0  0  0  0  0
   -1.5618    3.9502    3.3245 H   0  0  0  0  0  0  0  0  0  0  0  0
   -0.2013    4.5900    4.2758 H   0  0  0  0  0  0  0  0  0  0  0  0
   -1.1631    2.8321    5.0106 N   0  0  0  0  0  0  0  0  0  0  0  0
   -0.9152    2.9262    6.3537 N   0  0  0  0  0  0  0  0  0  0  0  0
   -1.3506    1.9969    7.1360 C   0  0  1  0  0  3  0  0  0  0  0  0
   -1.2711    2.1068    8.5973 C   0  0  0  0  0  0  0  0  0  0  0  0
   -2.0347    0.9079    9.1207 C   0  0  2  0  0  0  0  0  0  0  0  0
   -1.0743   -0.2628    8.7939 C   0  0  0  0  0  0  0  0  0  0  0  0
   -0.0601   -0.0348    9.1212 H   0  0  0  0  0  0  0  0  0  0  0  0
   -1.3963   -1.1672    9.3085 H   0  0  0  0  0  0  0  0  0  0  0  0
   -1.1561   -0.4008    7.2622 C   0  0  0  0  0  0  0  0  0  0  0  0
   -1.5534   -1.3673    6.9552 H   0  0  0  0  0  0  0  0  0  0  0  0
   -0.1737   -0.2797    6.8056 H   0  0  0  0  0  0  0  0  0  0  0  0
   -2.1168    0.7371    6.8609 C   0  0  1  0  0  0  0  0  0  0  0  0
   -2.5403    0.6601    5.8617 H   0  0  0  0  0  0  0  0  0  0  0  0
   -3.1291    0.7668    8.0309 C   0  0  0  0  0  0  0  0  0  0  0  0
   -3.9843   -0.4901    8.1421 C   0  0  0  0  0  0  0  0  0  0  0  0
   -4.5990   -0.5935    7.2501 H   0  0  0  0  0  0  0  0  0  0  0  0
   -4.6466   -0.4092    9.0010 H   0  0  0  0  0  0  0  0  0  0  0  0
   -3.3917   -1.3911    8.2543 H   0  0  0  0  0  0  0  0  0  0  0  0
   -4.0605    1.9773    7.9575 C   0  0  0  0  0  0  0  0  0  0  0  0
   -3.5082    2.9146    7.9354 H   0  0  0  0  0  0  0  0  0  0  0  0
   -4.7239    1.9962    8.8191 H   0  0  0  0  0  0  0  0  0  0  0  0
   -4.6728    1.9221    7.0593 H   0  0  0  0  0  0  0  0  0  0  0  0
   -2.4505    1.0043   10.5721 C   0  0  0  0  0  0  0  0  0  0  0  0
   -2.9661    0.0996   10.8850 H   0  0  0  0  0  0  0  0  0  0  0  0
   -3.1066    1.8581   10.7229 H   0  0  0  0  0  0  0  0  0  0  0  0
   -1.5695    1.1395   11.1951 H   0  0  0  0  0  0  0  0  0  0  0  0
   -0.7119    2.9869    9.2202 O   0  0  0  0  0  0  0  0  0  0  0  0
  1  2  1  0  0  0  0
  1  3  1  0  0  0  0
  1  4  1  0  0  0  0
  4  5  1  0  0  0  0
  5 10  1  0  0  0  0
  5  6  1  0  0  0  0
  6  8  1  0  0  0  0
  6  9  1  0  0  0  0
  7  6  1  0  0  0  0
 10 12  1  0  0  0  0
 10 13  1  0  0  0  0
 11 10  1  0  0  0  0
 14  4  1  1  0  0  0
 15 14  1  0  0  0  0
 15 16  1  1  0  0  0
 17 15  1  0  0  0  0
 17 19  1  0  0  0  0
 17 18  1  0  0  0  0
 20 17  1  0  0  0  0
 21 20  1  0  0  0  0
 22 20  1  0  0  0  0
 23 26  1  6  0  0  0
 23 20  1  0  0  0  0
 23 25  1  0  0  0  0
 23 24  1  0  0  0  0
 24 14  1  0  0  0  0
 25 15  1  0  0  0  0
 27 26  1  0  0  0  0
 28 26  1  0  0  0  0
 29 26  1  0  0  0  0
 30 25  1  0  0  0  0
 30 31  1  0  0  0  0
 30 33  1  0  0  0  0
 32 30  1  0  0  0  0
 34 35  1  0  0  0  0
 34 25  1  0  0  0  0
 34 36  1  0  0  0  0
 37 34  1  0  0  0  0
 38 24  2  0  0  0  0
 39 40  1  0  0  0  0
 39 47  1  0  0  0  0
 41 39  1  0  0  0  0
 42 39  1  0  0  0  0
 43 44  1  0  0  0  0
 43 47  1  0  0  0  0
 45 43  1  0  0  0  0
 46 43  1  0  0  0  0
 47 48  1  0  0  0  0
 48  1  1  0  0  0  0
 49 48  1  1  0  0  0
 49 50  1  0  0  0  0
 50 51  1  0  0  0  0
 50 73  2  0  0  0  0
 51 69  1  1  0  0  0
 52 51  1  0  0  0  0
 52 53  1  0  0  0  0
 52 54  1  0  0  0  0
 55 52  1  0  0  0  0
 56 55  1  0  0  0  0
 57 55  1  0  0  0  0
 58 59  1  6  0  0  0
 58 49  1  0  0  0  0
 58 55  1  0  0  0  0
 58 60  1  0  0  0  0
 60 61  1  0  0  0  0
 60 51  1  0  0  0  0
 61 64  1  0  0  0  0
 61 63  1  0  0  0  0
 62 61  1  0  0  0  0
 65 60  1  0  0  0  0
 65 67  1  0  0  0  0
 66 65  1  0  0  0  0
 68 65  1  0  0  0  0
 69 71  1  0  0  0  0
 69 70  1  0  0  0  0
 69 72  1  0  0  0  0
M  END
$$$$
