CSD_code = AHOWIF | q = 0 | S = 0 | Stoichiometry = C11H10Cl2N2Pt | MND = 4
 OpenBabel04212202003D

 26 28  0  0  0  0  0  0  0  0999 V2000
    1.4185    3.1673    1.5495 Pt  0  0  0  0  0  0  0  0  0  0  0  0
   -0.2006    2.3845    0.2124 Cl  0  0  0  0  0  0  0  0  0  0  0  0
    1.6849    4.9669    0.2411 Cl  0  0  0  0  0  0  0  0  0  0  0  0
    2.8702    3.8425    2.7838 N   0  0  0  0  0  0  0  0  0  0  0  0
    1.1819    0.6867    4.9694 C   0  0  0  0  0  0  0  0  0  0  0  0
    1.2141    0.8690    6.0323 H   0  0  0  0  0  0  0  0  0  0  0  0
    4.0186    4.3379    2.3210 C   0  0  0  0  0  3  0  0  0  0  0  0
    4.1038    4.4196    1.2460 H   0  0  0  0  0  0  0  0  0  0  0  0
    1.0941    0.3233    2.2766 C   0  0  0  0  0  3  0  0  0  0  0  0
    1.0446    0.2337    1.2000 H   0  0  0  0  0  0  0  0  0  0  0  0
    5.0352    4.7501    3.1619 C   0  0  0  0  0  0  0  0  0  0  0  0
    5.9454    5.1515    2.7475 H   0  0  0  0  0  0  0  0  0  0  0  0
    1.2070    1.5617    2.7585 N   0  0  0  0  0  0  0  0  0  0  0  0
    3.6637    4.1227    5.0077 C   0  0  0  0  0  0  0  0  0  0  0  0
    3.4859    4.0278    6.0676 H   0  0  0  0  0  0  0  0  0  0  0  0
    1.3615    3.1761    4.5535 C   0  0  0  0  0  0  0  0  0  0  0  0
    0.5599    3.7627    4.0819 H   0  0  0  0  0  0  0  0  0  0  0  0
    1.2631    3.2357    5.6365 H   0  0  0  0  0  0  0  0  0  0  0  0
    1.0173   -0.7838    3.1006 C   0  0  0  0  0  0  0  0  0  0  0  0
    0.9198   -1.7673    2.6710 H   0  0  0  0  0  0  0  0  0  0  0  0
    2.6838    3.7404    4.1059 C   0  0  0  0  0  0  0  0  0  0  0  0
    1.2409    1.7507    4.0839 C   0  0  0  0  0  0  0  0  0  0  0  0
    4.8591    4.6403    4.5330 C   0  0  0  0  0  0  0  0  0  0  0  0
    5.6307    4.9534    5.2190 H   0  0  0  0  0  0  0  0  0  0  0  0
    1.0651   -0.6033    4.4747 C   0  0  0  0  0  0  0  0  0  0  0  0
    1.0086   -1.4447    5.1475 H   0  0  0  0  0  0  0  0  0  0  0  0
  1 13  1  0  0  0  0
  1  4  1  0  0  0  0
  2  1  1  0  0  0  0
  3  1  1  0  0  0  0
  4 21  1  0  0  0  0
  5  6  1  0  0  0  0
  7  4  1  0  0  0  0
  7 11  1  0  0  0  0
  8  7  1  0  0  0  0
  9 13  1  0  0  0  0
  9 19  1  0  0  0  0
 10  9  1  0  0  0  0
 11 23  2  0  0  0  0
 12 11  1  0  0  0  0
 13 22  1  0  0  0  0
 14 15  1  0  0  0  0
 16 18  1  0  0  0  0
 17 16  1  0  0  0  0
 19 25  2  0  0  0  0
 20 19  1  0  0  0  0
 21 16  1  0  0  0  0
 21 14  2  0  0  0  0
 22 16  1  0  0  0  0
 22  5  2  0  0  0  0
 23 14  1  0  0  0  0
 23 24  1  0  0  0  0
 25  5  1  0  0  0  0
 25 26  1  0  0  0  0
M  END
$$$$
