CSD_code = AJALED | q = 0 | S = 0 | Stoichiometry = C13H32Cl2FeN2P2 | MND = 4
 OpenBabel04212202003D

 52 52  0  0  0  0  0  0  0  0999 V2000
   10.7178    0.7508    5.8842 Fe  0  0  0  0  0  0  0  0  0  0  0  0
   10.0736    2.3648    6.8715 Cl  0  0  0  0  0  0  0  0  0  0  0  0
   11.4873   -0.7740    7.0803 Cl  0  0  0  0  0  0  0  0  0  0  0  0
   10.1009   -0.4942    4.2370 P   0  0  0  0  0  4  0  0  0  0  0  0
   12.0785    1.7420    4.5028 P   0  0  0  0  0  4  0  0  0  0  0  0
   11.0699   -0.0748    2.8911 N   0  0  0  0  0  0  0  0  0  0  0  0
   11.7232    1.1977    2.9161 N   0  0  0  0  0  0  0  0  0  0  0  0
    8.2827   -0.0928    3.8615 C   0  0  0  0  0  0  0  0  0  0  0  0
    8.1874    1.4011    3.5607 C   0  0  0  0  0  0  0  0  0  0  0  0
    7.6003   -0.9053    2.7657 C   0  0  0  0  0  0  0  0  0  0  0  0
   10.1130   -2.3526    4.1168 C   0  0  0  0  0  0  0  0  0  0  0  0
    9.2843   -2.9062    5.2733 C   0  0  0  0  0  0  0  0  0  0  0  0
   11.5412   -2.8768    4.1888 C   0  0  0  0  0  0  0  0  0  0  0  0
   10.8996   -0.5237    1.5281 C   0  0  0  0  0  0  0  0  0  0  0  0
   12.1584    3.5761    4.1560 C   0  0  0  0  0  0  0  0  0  0  0  0
   10.7685    4.1612    3.9208 C   0  0  0  0  0  0  0  0  0  0  0  0
   12.8142    4.2748    5.3432 C   0  0  0  0  0  0  0  0  0  0  0  0
   13.8905    1.2858    4.6053 C   0  0  0  0  0  0  0  0  0  0  0  0
   14.0024   -0.2341    4.5912 C   0  0  0  0  0  0  0  0  0  0  0  0
   14.7231    1.8884    3.4779 C   0  0  0  0  0  0  0  0  0  0  0  0
   11.1421    1.9004    2.4447 H   0  0  0  0  0  0  0  0  0  0  0  0
    7.7700   -0.2771    4.8137 H   0  0  0  0  0  0  0  0  0  0  0  0
    8.6320    1.6269    2.5918 H   0  0  0  0  0  0  0  0  0  0  0  0
    8.7037    1.9756    4.3311 H   0  0  0  0  0  0  0  0  0  0  0  0
    7.1476    1.7226    3.5340 H   0  0  0  0  0  0  0  0  0  0  0  0
    8.1094   -0.7878    1.8124 H   0  0  0  0  0  0  0  0  0  0  0  0
    6.5773   -0.5493    2.6440 H   0  0  0  0  0  0  0  0  0  0  0  0
    7.5544   -1.9626    3.0112 H   0  0  0  0  0  0  0  0  0  0  0  0
    9.6609   -2.6550    3.1650 H   0  0  0  0  0  0  0  0  0  0  0  0
    9.7039   -2.5658    6.2181 H   0  0  0  0  0  0  0  0  0  0  0  0
    9.3079   -3.9947    5.2626 H   0  0  0  0  0  0  0  0  0  0  0  0
    8.2449   -2.5884    5.2168 H   0  0  0  0  0  0  0  0  0  0  0  0
   12.1480   -2.4719    3.3832 H   0  0  0  0  0  0  0  0  0  0  0  0
   11.9854   -2.5957    5.1399 H   0  0  0  0  0  0  0  0  0  0  0  0
   11.5435   -3.9629    4.1135 H   0  0  0  0  0  0  0  0  0  0  0  0
   11.8805   -0.5959    1.0509 H   0  0  0  0  0  0  0  0  0  0  0  0
   10.2852    0.1672    0.9351 H   0  0  0  0  0  0  0  0  0  0  0  0
   10.4370   -1.5062    1.5233 H   0  0  0  0  0  0  0  0  0  0  0  0
   12.7621    3.7086    3.2500 H   0  0  0  0  0  0  0  0  0  0  0  0
   10.8458    5.2317    3.7363 H   0  0  0  0  0  0  0  0  0  0  0  0
   10.1471    4.0120    4.8011 H   0  0  0  0  0  0  0  0  0  0  0  0
   10.2715    3.7134    3.0613 H   0  0  0  0  0  0  0  0  0  0  0  0
   13.8403    3.9461    5.4879 H   0  0  0  0  0  0  0  0  0  0  0  0
   12.8201    5.3531    5.1909 H   0  0  0  0  0  0  0  0  0  0  0  0
   12.2512    4.0616    6.2501 H   0  0  0  0  0  0  0  0  0  0  0  0
   14.2407    1.6507    5.5777 H   0  0  0  0  0  0  0  0  0  0  0  0
   13.6648   -0.6214    3.6333 H   0  0  0  0  0  0  0  0  0  0  0  0
   13.3928   -0.6672    5.3799 H   0  0  0  0  0  0  0  0  0  0  0  0
   15.0354   -0.5399    4.7458 H   0  0  0  0  0  0  0  0  0  0  0  0
   14.2501    1.6850    2.5193 H   0  0  0  0  0  0  0  0  0  0  0  0
   14.8539    2.9614    3.5887 H   0  0  0  0  0  0  0  0  0  0  0  0
   15.7111    1.4310    3.4755 H   0  0  0  0  0  0  0  0  0  0  0  0
  1  2  1  0  0  0  0
  1  3  1  0  0  0  0
  4  1  1  0  0  0  0
  5 18  1  0  0  0  0
  5  1  1  0  0  0  0
  6  7  1  0  0  0  0
  6  4  1  0  0  0  0
  7  5  1  0  0  0  0
  8  4  1  0  0  0  0
  8 22  1  0  0  0  0
  9  8  1  0  0  0  0
  9 24  1  0  0  0  0
 10 28  1  0  0  0  0
 10  8  1  0  0  0  0
 11 13  1  0  0  0  0
 11  4  1  0  0  0  0
 11 12  1  0  0  0  0
 12 30  1  0  0  0  0
 13 34  1  0  0  0  0
 14  6  1  0  0  0  0
 15  5  1  0  0  0  0
 15 17  1  0  0  0  0
 16 15  1  0  0  0  0
 16 41  1  0  0  0  0
 17 43  1  0  0  0  0
 17 45  1  0  0  0  0
 18 46  1  0  0  0  0
 19 18  1  0  0  0  0
 19 49  1  0  0  0  0
 19 48  1  0  0  0  0
 20 51  1  0  0  0  0
 20 18  1  0  0  0  0
 21  7  1  0  0  0  0
 23  9  1  0  0  0  0
 25  9  1  0  0  0  0
 26 10  1  0  0  0  0
 27 10  1  0  0  0  0
 29 11  1  0  0  0  0
 31 12  1  0  0  0  0
 32 12  1  0  0  0  0
 33 13  1  0  0  0  0
 35 13  1  0  0  0  0
 36 14  1  0  0  0  0
 37 14  1  0  0  0  0
 38 14  1  0  0  0  0
 39 15  1  0  0  0  0
 40 16  1  0  0  0  0
 42 16  1  0  0  0  0
 44 17  1  0  0  0  0
 47 19  1  0  0  0  0
 50 20  1  0  0  0  0
 52 20  1  0  0  0  0
M  END
$$$$
