CSD_code = AJAMAA | q = 0 | S = 0 | Stoichiometry = C35H44ClN3Ti | MND = 10
 OpenBabel04212202003D

 84 87  0  0  1  0  0  0  0  0999 V2000
   -5.8252    6.5889   14.1693 Ti  0  0  0  0  0  0  0  0  0  0  0  0
   -4.0089    7.3642   13.1047 Cl  0  0  0  0  0 15  0  0  0  0  0  0
   -5.6337    5.0474   13.3447 N   0  0  0  0  0  2  0  0  0  0  0  0
   -4.4086    4.0810   11.5404 N   0  0  0  0  0  0  0  0  0  0  0  0
   -3.7493    3.6413   13.5961 N   0  0  0  0  0  0  0  0  0  0  0  0
   -4.6908    4.3429   12.8653 C   0  0  2  0  0  3  0  0  0  0  0  0
   -3.3173    3.2401   11.4738 C   0  0  0  0  0  0  0  0  0  0  0  0
   -2.9353    2.8944   10.5360 H   0  0  0  0  0  0  0  0  0  0  0  0
   -2.9169    2.9658   12.7304 C   0  0  0  0  0  0  0  0  0  0  0  0
   -2.1263    2.3373   13.0851 H   0  0  0  0  0  0  0  0  0  0  0  0
   -5.0902    4.6733   10.4480 C   0  0  0  0  0  0  0  0  0  0  0  0
   -4.4229    5.5957    9.6327 C   0  0  0  0  0  0  0  0  0  0  0  0
   -5.1195    6.1497    8.5665 C   0  0  0  0  0  0  0  0  0  0  0  0
   -4.6238    6.8522    7.9153 H   0  0  0  0  0  0  0  0  0  0  0  0
   -6.4402    5.8244    8.3282 C   0  0  0  0  0  0  0  0  0  0  0  0
   -6.9671    6.2760    7.5004 H   0  0  0  0  0  0  0  0  0  0  0  0
   -7.0844    4.9166    9.1449 C   0  0  0  0  0  0  0  0  0  0  0  0
   -8.1141    4.6625    8.9455 H   0  0  0  0  0  0  0  0  0  0  0  0
   -6.4218    4.3172   10.2079 C   0  0  0  0  0  0  0  0  0  0  0  0
   -2.9766    5.9717    9.8551 C   0  0  0  0  0  0  0  0  0  0  0  0
   -2.6561    5.5953   10.8303 H   0  0  0  0  0  0  0  0  0  0  0  0
   -2.1038    5.3395    8.7653 C   0  0  0  0  0  0  0  0  0  0  0  0
   -2.2305    4.2594    8.7352 H   0  0  0  0  0  0  0  0  0  0  0  0
   -1.0551    5.5586    8.9527 H   0  0  0  0  0  0  0  0  0  0  0  0
   -2.3692    5.7369    7.7882 H   0  0  0  0  0  0  0  0  0  0  0  0
   -2.7813    7.4882    9.8755 C   0  0  0  0  0  0  0  0  0  0  0  0
   -3.0117    7.9374    8.9131 H   0  0  0  0  0  0  0  0  0  0  0  0
   -1.7466    7.7169   10.1191 H   0  0  0  0  0  0  0  0  0  0  0  0
   -3.4142    7.9304   10.6393 H   0  0  0  0  0  0  0  0  0  0  0  0
   -7.1419    3.2870   11.0466 C   0  0  0  0  0  0  0  0  0  0  0  0
   -6.4506    2.8842   11.7915 H   0  0  0  0  0  0  0  0  0  0  0  0
   -8.3017    3.9439   11.7968 C   0  0  0  0  0  0  0  0  0  0  0  0
   -7.9064    4.7364   12.4356 H   0  0  0  0  0  0  0  0  0  0  0  0
   -8.8129    3.2113   12.4172 H   0  0  0  0  0  0  0  0  0  0  0  0
   -9.0210    4.3712   11.1023 H   0  0  0  0  0  0  0  0  0  0  0  0
   -7.6292    2.1216   10.1813 C   0  0  0  0  0  0  0  0  0  0  0  0
   -8.3797    2.4494    9.4671 H   0  0  0  0  0  0  0  0  0  0  0  0
   -8.0715    1.3518   10.8099 H   0  0  0  0  0  0  0  0  0  0  0  0
   -6.8003    1.6830    9.6297 H   0  0  0  0  0  0  0  0  0  0  0  0
   -3.7205    3.6681   15.0139 C   0  0  0  0  0  0  0  0  0  0  0  0
   -2.8318    4.5271   15.6718 C   0  0  0  0  0  0  0  0  0  0  0  0
   -2.8506    4.5424   17.0617 C   0  0  0  0  0  0  0  0  0  0  0  0
   -2.1650    5.1794   17.5985 H   0  0  0  0  0  0  0  0  0  0  0  0
   -3.7347    3.7521   17.7714 C   0  0  0  0  0  0  0  0  0  0  0  0
   -3.7429    3.7893   18.8512 H   0  0  0  0  0  0  0  0  0  0  0  0
   -4.6020    2.9073   17.1051 C   0  0  0  0  0  0  0  0  0  0  0  0
   -5.2818    2.2903   17.6721 H   0  0  0  0  0  0  0  0  0  0  0  0
   -4.6033    2.8415   15.7180 C   0  0  0  0  0  0  0  0  0  0  0  0
   -1.8191    5.3428   14.9020 C   0  0  0  0  0  0  0  0  0  0  0  0
   -2.1625    5.4431   13.8672 H   0  0  0  0  0  0  0  0  0  0  0  0
   -0.4725    4.6101   14.9140 C   0  0  0  0  0  0  0  0  0  0  0  0
   -0.1054    4.5105   15.9336 H   0  0  0  0  0  0  0  0  0  0  0  0
    0.2598    5.1673   14.3350 H   0  0  0  0  0  0  0  0  0  0  0  0
   -0.5646    3.6144   14.4868 H   0  0  0  0  0  0  0  0  0  0  0  0
   -1.6533    6.7568   15.4574 C   0  0  0  0  0  0  0  0  0  0  0  0
   -2.6206    7.2535   15.5036 H   0  0  0  0  0  0  0  0  0  0  0  0
   -1.0159    7.3312   14.7902 H   0  0  0  0  0  0  0  0  0  0  0  0
   -1.1980    6.7530   16.4451 H   0  0  0  0  0  0  0  0  0  0  0  0
   -5.5387    1.9013   14.9948 C   0  0  0  0  0  0  0  0  0  0  0  0
   -5.2388    1.8498   13.9435 H   0  0  0  0  0  0  0  0  0  0  0  0
   -6.9638    2.4554   15.0526 C   0  0  0  0  0  0  0  0  0  0  0  0
   -7.3097    2.5078   16.0826 H   0  0  0  0  0  0  0  0  0  0  0  0
   -7.6400    1.8128   14.4931 H   0  0  0  0  0  0  0  0  0  0  0  0
   -6.9828    3.4581   14.6218 H   0  0  0  0  0  0  0  0  0  0  0  0
   -5.4743    0.4826   15.5647 C   0  0  0  0  0  0  0  0  0  0  0  0
   -5.8805    0.4415   16.5716 H   0  0  0  0  0  0  0  0  0  0  0  0
   -4.4463    0.1277   15.5926 H   0  0  0  0  0  0  0  0  0  0  0  0
   -6.0554   -0.1920   14.9399 H   0  0  0  0  0  0  0  0  0  0  0  0
   -6.9165    8.6023   13.7216 C   0  0  0  0  0  3  0  0  0  0  0  0
   -6.9971    9.2836   12.8730 H   0  0  0  0  0  0  0  0  0  0  0  0
   -6.0869    9.0806   14.7430 C   0  0  0  0  0  0  0  0  0  0  0  0
   -5.7537   10.1032   14.5769 H   0  0  0  0  0  0  0  0  0  0  0  0
   -5.4192    8.4543   15.7961 C   0  0  0  0  0  0  0  0  0  0  0  0
   -4.6620    9.0868   16.2576 H   0  0  0  0  0  0  0  0  0  0  0  0
   -5.4029    7.1296   16.2806 C   0  0  0  0  0  3  0  0  0  0  0  0
   -4.5915    6.9323   16.9844 H   0  0  0  0  0  0  0  0  0  0  0  0
   -6.3708    6.0805   16.2568 C   0  0  1  0  0  0  0  0  0  0  0  0
   -6.1382    5.2773   16.9579 H   0  0  0  0  0  0  0  0  0  0  0  0
   -7.6714    5.9762   15.7021 C   0  0  0  0  0  0  0  0  0  0  0  0
   -8.2676    5.1835   16.1508 H   0  0  0  0  0  0  0  0  0  0  0  0
   -8.2400    6.5272   14.5638 C   0  0  0  0  0  0  0  0  0  0  0  0
   -9.1863    6.0706   14.2771 H   0  0  0  0  0  0  0  0  0  0  0  0
   -7.7371    7.4475   13.5939 C   0  0  2  0  0  0  0  0  0  0  0  0
   -8.3195    7.4447   12.6686 H   0  0  0  0  0  0  0  0  0  0  0  0
  1 77  1  0  0  0  0
  3  1  1  0  0  0  0
  4  6  1  0  0  0  0
  5 40  1  0  0  0  0
  6  3  1  1  0  0  0
  6  5  1  0  0  0  0
  7  4  1  0  0  0  0
  7  9  2  0  0  0  0
  8  7  1  0  0  0  0
  9 10  1  0  0  0  0
  9  5  1  0  0  0  0
 11  4  1  0  0  0  0
 12 20  1  0  0  0  0
 12 11  2  0  0  0  0
 13 12  1  0  0  0  0
 14 13  1  0  0  0  0
 15 13  2  0  0  0  0
 15 17  1  0  0  0  0
 16 15  1  0  0  0  0
 17 19  2  0  0  0  0
 18 17  1  0  0  0  0
 19 11  1  0  0  0  0
 19 30  1  0  0  0  0
 20 26  1  0  0  0  0
 20 21  1  0  0  0  0
 22 24  1  0  0  0  0
 22 20  1  0  0  0  0
 23 22  1  0  0  0  0
 25 22  1  0  0  0  0
 26 28  1  0  0  0  0
 26 29  1  0  0  0  0
 27 26  1  0  0  0  0
 30 31  1  0  0  0  0
 30 32  1  0  0  0  0
 32 34  1  0  0  0  0
 32 33  1  0  0  0  0
 35 32  1  0  0  0  0
 36 38  1  0  0  0  0
 36 30  1  0  0  0  0
 37 36  1  0  0  0  0
 39 36  1  0  0  0  0
 40 41  2  0  0  0  0
 40 48  1  0  0  0  0
 41 42  1  0  0  0  0
 42 43  1  0  0  0  0
 42 44  2  0  0  0  0
 44 45  1  0  0  0  0
 46 47  1  0  0  0  0
 46 44  1  0  0  0  0
 48 46  2  0  0  0  0
 49 51  1  0  0  0  0
 49 55  1  0  0  0  0
 49 41  1  0  0  0  0
 50 49  1  0  0  0  0
 51 52  1  0  0  0  0
 53 51  1  0  0  0  0
 54 51  1  0  0  0  0
 55 56  1  0  0  0  0
 55 58  1  0  0  0  0
 57 55  1  0  0  0  0
 59 61  1  0  0  0  0
 59 65  1  0  0  0  0
 59 48  1  0  0  0  0
 60 59  1  0  0  0  0
 61 62  1  0  0  0  0
 63 61  1  0  0  0  0
 64 61  1  0  0  0  0
 65 67  1  0  0  0  0
 65 66  1  0  0  0  0
 68 65  1  0  0  0  0
 69 71  1  0  0  0  0
 70 69  1  0  0  0  0
 71 73  2  0  0  0  0
 72 71  1  0  0  0  0
 73 74  1  0  0  0  0
 73 75  1  0  0  0  0
 75 76  1  0  0  0  0
 77 75  1  0  0  0  0
 77 78  1  1  0  0  0
 79 80  1  0  0  0  0
 79 77  1  0  0  0  0
 81 79  2  0  0  0  0
 82 81  1  0  0  0  0
 83 84  1  6  0  0  0
 83 69  1  0  0  0  0
 83  1  1  0  0  0  0
 83 81  1  0  0  0  0
M  END
$$$$
