CSD_code = AJAZIV | q = 0 | S = 0 | Stoichiometry = C22H24ClIrN2 | MND = 6
 OpenBabel04212202003D

 50 52  0  0  1  0  0  0  0  0999 V2000
    1.6718    2.9975    3.8060 Ir  0  0  0  0  0  0  0  0  0  0  0  0
    3.5503    3.3901    5.1671 Cl  0  0  0  0  0 15  0  0  0  0  0  0
    3.5220    2.9119    1.4300 N   0  0  0  0  0  0  0  0  0  0  0  0
    3.6309    1.0615    2.5719 N   0  0  0  0  0  0  0  0  0  0  0  0
    2.9966    2.2545    2.5041 C   0  0  1  0  0  3  0  0  0  0  0  0
    4.4897    2.1398    0.8221 C   0  0  0  0  0  0  0  0  0  0  0  0
    5.3308    2.3621   -0.2562 C   0  0  0  0  0  0  0  0  0  0  0  0
    5.3055    3.2886   -0.8077 H   0  0  0  0  0  0  0  0  0  0  0  0
    6.2165    1.3514   -0.5861 C   0  0  0  0  0  0  0  0  0  0  0  0
    6.8857    1.4898   -1.4213 H   0  0  0  0  0  0  0  0  0  0  0  0
    6.2700    0.1622    0.1362 C   0  0  0  0  0  0  0  0  0  0  0  0
    6.9763   -0.5994   -0.1567 H   0  0  0  0  0  0  0  0  0  0  0  0
    5.4476   -0.0598    1.2261 C   0  0  0  0  0  0  0  0  0  0  0  0
    5.5024   -0.9755    1.7930 H   0  0  0  0  0  0  0  0  0  0  0  0
    4.5583    0.9479    1.5638 C   0  0  0  0  0  0  0  0  0  0  0  0
    3.1218    4.1981    1.0160 C   0  0  0  0  0  0  0  0  0  0  0  0
    3.0373    5.2265    1.9480 C   0  0  0  0  0  0  0  0  0  0  0  0
    3.3251    5.0430    2.9718 H   0  0  0  0  0  0  0  0  0  0  0  0
    2.6053    6.4775    1.5455 C   0  0  0  0  0  0  0  0  0  0  0  0
    2.5364    7.2757    2.2690 H   0  0  0  0  0  0  0  0  0  0  0  0
    2.2703    6.7099    0.2216 C   0  0  0  0  0  0  0  0  0  0  0  0
    1.9340    7.6878   -0.0891 H   0  0  0  0  0  0  0  0  0  0  0  0
    2.3682    5.6862   -0.7062 C   0  0  0  0  0  0  0  0  0  0  0  0
    2.1064    5.8638   -1.7387 H   0  0  0  0  0  0  0  0  0  0  0  0
    2.7900    4.4283   -0.3138 C   0  0  0  0  0  0  0  0  0  0  0  0
    2.8421    3.6208   -1.0293 H   0  0  0  0  0  0  0  0  0  0  0  0
    3.4068    0.0675    3.5839 C   0  0  0  0  0  0  0  0  0  0  0  0
    2.6861    0.4664    4.2982 H   0  0  0  0  0  0  0  0  0  0  0  0
    4.3397   -0.1501    4.1057 H   0  0  0  0  0  0  0  0  0  0  0  0
    3.0183   -0.8512    3.1391 H   0  0  0  0  0  0  0  0  0  0  0  0
   -0.0640    2.0480    3.0185 C   0  0  0  0  0  3  0  0  0  0  0  0
    0.1804    1.1382    2.4721 H   0  0  0  0  0  0  0  0  0  0  0  0
    0.1648    3.2640    2.3443 C   0  0  1  0  0  0  0  0  0  0  0  0
    0.5357    3.1973    1.3221 H   0  0  0  0  0  0  0  0  0  0  0  0
   -0.6159    4.5358    2.5835 C   0  0  0  0  0  0  0  0  0  0  0  0
   -1.6088    4.4485    2.1281 H   0  0  0  0  0  0  0  0  0  0  0  0
   -0.0935    5.3420    2.0638 H   0  0  0  0  0  0  0  0  0  0  0  0
   -0.7497    4.9013    4.0738 C   0  0  0  0  0  0  0  0  0  0  0  0
   -0.7970    5.9882    4.1653 H   0  0  0  0  0  0  0  0  0  0  0  0
   -1.6816    4.5039    4.4792 H   0  0  0  0  0  0  0  0  0  0  0  0
    0.4056    4.3871    4.9019 C   0  0  0  0  0  3  0  0  0  0  0  0
    1.0770    5.1537    5.2807 H   0  0  0  0  0  0  0  0  0  0  0  0
    0.3994    3.1693    5.5482 C   0  0  0  0  0  3  0  0  0  0  0  0
    1.0354    3.0537    6.4227 H   0  0  0  0  0  0  0  0  0  0  0  0
   -0.7214    2.1594    5.4716 C   0  0  0  0  0  0  0  0  0  0  0  0
   -1.5678    2.5103    6.0720 H   0  0  0  0  0  0  0  0  0  0  0  0
   -0.3696    1.2304    5.9253 H   0  0  0  0  0  0  0  0  0  0  0  0
   -1.1804    1.8696    4.0300 C   0  0  0  0  0  0  0  0  0  0  0  0
   -1.5477    0.8426    3.9796 H   0  0  0  0  0  0  0  0  0  0  0  0
   -2.0128    2.5204    3.7583 H   0  0  0  0  0  0  0  0  0  0  0  0
  3  5  1  0  0  0  0
  4 27  1  0  0  0  0
  5  4  1  0  0  0  0
  5  1  1  1  0  0  0
  6  3  1  0  0  0  0
  6 15  1  0  0  0  0
  7  6  2  0  0  0  0
  8  7  1  0  0  0  0
  9  7  1  0  0  0  0
  9 11  2  0  0  0  0
 10  9  1  0  0  0  0
 11 13  1  0  0  0  0
 12 11  1  0  0  0  0
 13 15  2  0  0  0  0
 13 14  1  0  0  0  0
 15  4  1  0  0  0  0
 16  3  1  0  0  0  0
 16 17  1  0  0  0  0
 17 18  1  0  0  0  0
 19 17  2  0  0  0  0
 19 20  1  0  0  0  0
 21 19  1  0  0  0  0
 22 21  1  0  0  0  0
 23 25  1  0  0  0  0
 23 21  2  0  0  0  0
 24 23  1  0  0  0  0
 25 16  2  0  0  0  0
 26 25  1  0  0  0  0
 27 29  1  0  0  0  0
 27 28  1  0  0  0  0
 30 27  1  0  0  0  0
 31 48  1  0  0  0  0
 32 31  1  0  0  0  0
 33 34  1  6  0  0  0
 33 35  1  0  0  0  0
 33 31  1  0  0  0  0
 33  1  1  0  0  0  0
 35 38  1  0  0  0  0
 36 35  1  0  0  0  0
 37 35  1  0  0  0  0
 38 39  1  0  0  0  0
 38 40  1  0  0  0  0
 38 41  1  0  0  0  0
 41 42  1  0  0  0  0
 41 43  1  0  0  0  0
 43 44  1  0  0  0  0
 45 43  1  0  0  0  0
 45 47  1  0  0  0  0
 45 46  1  0  0  0  0
 48 45  1  0  0  0  0
 49 48  1  0  0  0  0
 50 48  1  0  0  0  0
M  END
$$$$
