CSD_code = AJEROW | q = 0 | S = 0 | Stoichiometry = C43H41Cl2NP2Ru | MND = 5
 OpenBabel04212202003D

 90 97  0  0  1  0  0  0  0  0999 V2000
    7.4299    5.3050    5.4883 Ru  0  0  0  0  0  0  0  0  0  0  0  0
    8.3348    7.3901    6.2442 Cl  0  0  0  0  0  0  0  0  0  0  0  0
    6.8803    3.0817    4.7355 Cl  0  0  0  0  0  0  0  0  0  0  0  0
    5.4878    5.2496    6.6652 P   0  0  0  0  0  4  0  0  0  0  0  0
    6.6375    6.2375    3.5111 P   0  0  0  0  0  4  0  0  0  0  0  0
    8.1999    4.5420    7.1611 N   0  0  0  0  0  0  0  0  0  0  0  0
    5.9537    3.8233    7.7558 C   0  0  2  0  0  0  0  0  0  0  0  0
    6.0425    2.9640    7.0788 H   0  0  0  0  0  0  0  0  0  0  0  0
    4.9978    3.4812    8.8905 C   0  0  0  0  0  0  0  0  0  0  0  0
    4.9204    4.3219    9.5850 H   0  0  0  0  0  0  0  0  0  0  0  0
    4.0027    3.2806    8.4872 H   0  0  0  0  0  0  0  0  0  0  0  0
    5.5225    2.2550    9.6331 C   0  0  0  0  0  0  0  0  0  0  0  0
    5.5458    1.4004    8.9536 H   0  0  0  0  0  0  0  0  0  0  0  0
    4.8565    2.0085   10.4621 H   0  0  0  0  0  0  0  0  0  0  0  0
    6.9278    2.5246   10.1595 C   0  0  0  0  0  0  0  0  0  0  0  0
    7.3098    1.6397   10.6721 H   0  0  0  0  0  0  0  0  0  0  0  0
    6.8907    3.3416   10.8846 H   0  0  0  0  0  0  0  0  0  0  0  0
    7.8822    2.9014    9.0284 C   0  0  0  0  0  0  0  0  0  0  0  0
    8.8709    3.0868    9.4515 H   0  0  0  0  0  0  0  0  0  0  0  0
    7.9664    2.0755    8.3174 H   0  0  0  0  0  0  0  0  0  0  0  0
    7.3623    4.1354    8.2798 C   0  0  1  0  0  0  0  0  0  0  0  0
    7.3046    4.9879    8.9787 H   0  0  0  0  0  0  0  0  0  0  0  0
    9.4763    4.6062    7.3005 C   0  0  0  0  0  3  0  0  0  0  0  0
    9.9489    4.3964    8.2586 H   0  0  0  0  0  0  0  0  0  0  0  0
   10.3516    5.0036    6.2232 C   0  0  0  0  0  0  0  0  0  0  0  0
   11.6800    5.3571    6.4805 C   0  0  0  0  0  0  0  0  0  0  0  0
   12.0498    5.3186    7.4950 H   0  0  0  0  0  0  0  0  0  0  0  0
   12.5020    5.7819    5.4563 C   0  0  0  0  0  0  0  0  0  0  0  0
   13.5215    6.0674    5.6701 H   0  0  0  0  0  0  0  0  0  0  0  0
   12.0238    5.8467    4.1564 C   0  0  0  0  0  0  0  0  0  0  0  0
   12.6676    6.1781    3.3558 H   0  0  0  0  0  0  0  0  0  0  0  0
   10.7155    5.4775    3.8790 C   0  0  0  0  0  0  0  0  0  0  0  0
   10.3514    5.5105    2.8618 H   0  0  0  0  0  0  0  0  0  0  0  0
    9.8831    5.0650    4.9009 C   0  0  0  0  0  0  0  0  0  0  0  0
    8.8782    4.6553    4.6386 H   0  0  0  0  0  0  0  0  0  0  0  0
    4.8941    6.4486    7.9099 C   0  0  0  0  0  0  0  0  0  0  0  0
    5.7731    7.3985    8.4195 C   0  0  0  0  0  0  0  0  0  0  0  0
    6.7712    7.4792    8.0109 H   0  0  0  0  0  0  0  0  0  0  0  0
    5.3656    8.2580    9.4255 C   0  0  0  0  0  0  0  0  0  0  0  0
    6.0547    8.9963    9.8083 H   0  0  0  0  0  0  0  0  0  0  0  0
    4.0813    8.1740    9.9344 C   0  0  0  0  0  0  0  0  0  0  0  0
    3.7614    8.8465   10.7170 H   0  0  0  0  0  0  0  0  0  0  0  0
    3.2038    7.2238    9.4359 C   0  0  0  0  0  0  0  0  0  0  0  0
    2.2013    7.1520    9.8330 H   0  0  0  0  0  0  0  0  0  0  0  0
    3.6050    6.3622    8.4323 C   0  0  0  0  0  0  0  0  0  0  0  0
    2.9147    5.6232    8.0518 H   0  0  0  0  0  0  0  0  0  0  0  0
    3.9561    4.7662    5.8186 C   0  0  0  0  0  0  0  0  0  0  0  0
    3.0665    5.7721    5.4404 C   0  0  0  0  0  0  0  0  0  0  0  0
    3.2879    6.8012    5.6888 H   0  0  0  0  0  0  0  0  0  0  0  0
    1.9068    5.4592    4.7570 C   0  0  0  0  0  0  0  0  0  0  0  0
    1.2217    6.2462    4.4755 H   0  0  0  0  0  0  0  0  0  0  0  0
    1.6286    4.1418    4.4293 C   0  0  0  0  0  0  0  0  0  0  0  0
    0.7214    3.8968    3.8962 H   0  0  0  0  0  0  0  0  0  0  0  0
    2.5195    3.1424    4.7810 C   0  0  0  0  0  0  0  0  0  0  0  0
    2.3128    2.1162    4.5149 H   0  0  0  0  0  0  0  0  0  0  0  0
    3.6789    3.4481    5.4714 C   0  0  0  0  0  0  0  0  0  0  0  0
    4.3724    2.6609    5.7203 H   0  0  0  0  0  0  0  0  0  0  0  0
    5.5035    7.6613    3.5991 C   0  0  0  0  0  0  0  0  0  0  0  0
    5.2493    8.2607    4.8246 C   0  0  0  0  0  0  0  0  0  0  0  0
    5.7302    7.8697    5.7126 H   0  0  0  0  0  0  0  0  0  0  0  0
    4.4099    9.3590    4.9023 C   0  0  0  0  0  0  0  0  0  0  0  0
    4.2162    9.8193    5.8605 H   0  0  0  0  0  0  0  0  0  0  0  0
    3.8242    9.8632    3.7539 C   0  0  0  0  0  0  0  0  0  0  0  0
    3.1658   10.7178    3.8117 H   0  0  0  0  0  0  0  0  0  0  0  0
    4.0906    9.2783    2.5246 C   0  0  0  0  0  0  0  0  0  0  0  0
    3.6419    9.6799    1.6274 H   0  0  0  0  0  0  0  0  0  0  0  0
    4.9327    8.1862    2.4422 C   0  0  0  0  0  0  0  0  0  0  0  0
    5.1491    7.7355    1.4832 H   0  0  0  0  0  0  0  0  0  0  0  0
    5.7501    5.0475    2.4618 C   0  0  0  0  0  0  0  0  0  0  0  0
    4.3693    5.0477    2.3212 C   0  0  0  0  0  0  0  0  0  0  0  0
    3.7798    5.8246    2.7857 H   0  0  0  0  0  0  0  0  0  0  0  0
    3.7480    4.0490    1.5917 C   0  0  0  0  0  0  0  0  0  0  0  0
    2.6726    4.0565    1.4869 H   0  0  0  0  0  0  0  0  0  0  0  0
    4.4961    3.0413    1.0089 C   0  0  0  0  0  0  0  0  0  0  0  0
    4.0067    2.2596    0.4462 H   0  0  0  0  0  0  0  0  0  0  0  0
    5.8744    3.0292    1.1552 C   0  0  0  0  0  0  0  0  0  0  0  0
    6.4601    2.2368    0.7128 H   0  0  0  0  0  0  0  0  0  0  0  0
    6.4982    4.0228    1.8829 C   0  0  0  0  0  0  0  0  0  0  0  0
    7.5737    4.0077    2.0151 H   0  0  0  0  0  0  0  0  0  0  0  0
    7.8469    6.9696    2.3442 C   0  0  0  0  0  0  0  0  0  0  0  0
    8.7718    7.8637    2.8791 C   0  0  0  0  0  0  0  0  0  0  0  0
    8.7694    8.0600    3.9426 H   0  0  0  0  0  0  0  0  0  0  0  0
    9.6902    8.4933    2.0600 C   0  0  0  0  0  0  0  0  0  0  0  0
   10.4057    9.1806    2.4869 H   0  0  0  0  0  0  0  0  0  0  0  0
    9.6931    8.2406    0.6980 C   0  0  0  0  0  0  0  0  0  0  0  0
   10.4128    8.7279    0.0562 H   0  0  0  0  0  0  0  0  0  0  0  0
    8.7666    7.3639    0.1589 C   0  0  0  0  0  0  0  0  0  0  0  0
    8.7599    7.1702   -0.9044 H   0  0  0  0  0  0  0  0  0  0  0  0
    7.8424    6.7328    0.9733 C   0  0  0  0  0  0  0  0  0  0  0  0
    7.1232    6.0533    0.5381 H   0  0  0  0  0  0  0  0  0  0  0  0
  1  2  1  0  0  0  0
  1  4  1  0  0  0  0
  1  6  1  0  0  0  0
  3  1  1  0  0  0  0
  4  7  1  0  0  0  0
  4 36  1  0  0  0  0
  5 58  1  0  0  0  0
  5  1  1  0  0  0  0
  6 23  1  0  0  0  0
  6 21  1  0  0  0  0
  7  8  1  6  0  0  0
  7 21  1  0  0  0  0
  7  9  1  0  0  0  0
  9 10  1  0  0  0  0
  9 12  1  0  0  0  0
 11  9  1  0  0  0  0
 12 15  1  0  0  0  0
 12 14  1  0  0  0  0
 13 12  1  0  0  0  0
 15 16  1  0  0  0  0
 15 17  1  0  0  0  0
 18 19  1  0  0  0  0
 18 15  1  0  0  0  0
 20 18  1  0  0  0  0
 21 22  1  1  0  0  0
 21 18  1  0  0  0  0
 23 24  1  0  0  0  0
 25 26  1  0  0  0  0
 25 23  1  0  0  0  0
 26 27  1  0  0  0  0
 28 29  1  0  0  0  0
 28 26  2  0  0  0  0
 30 28  1  0  0  0  0
 31 30  1  0  0  0  0
 32 30  2  0  0  0  0
 32 34  1  0  0  0  0
 33 32  1  0  0  0  0
 34 25  2  0  0  0  0
 35 34  1  0  0  0  0
 36 37  2  0  0  0  0
 36 45  1  0  0  0  0
 37 39  1  0  0  0  0
 38 37  1  0  0  0  0
 39 40  1  0  0  0  0
 39 41  2  0  0  0  0
 41 42  1  0  0  0  0
 43 44  1  0  0  0  0
 43 41  1  0  0  0  0
 45 43  2  0  0  0  0
 46 45  1  0  0  0  0
 47  4  1  0  0  0  0
 48 49  1  0  0  0  0
 48 47  2  0  0  0  0
 50 48  1  0  0  0  0
 51 50  1  0  0  0  0
 52 50  2  0  0  0  0
 52 54  1  0  0  0  0
 53 52  1  0  0  0  0
 54 56  2  0  0  0  0
 55 54  1  0  0  0  0
 56 57  1  0  0  0  0
 56 47  1  0  0  0  0
 58 59  1  0  0  0  0
 59 61  2  0  0  0  0
 59 60  1  0  0  0  0
 61 62  1  0  0  0  0
 63 64  1  0  0  0  0
 63 61  1  0  0  0  0
 65 63  2  0  0  0  0
 66 65  1  0  0  0  0
 67 65  1  0  0  0  0
 67 58  2  0  0  0  0
 68 67  1  0  0  0  0
 69  5  1  0  0  0  0
 70 69  1  0  0  0  0
 70 71  1  0  0  0  0
 72 70  2  0  0  0  0
 73 72  1  0  0  0  0
 74 76  2  0  0  0  0
 74 72  1  0  0  0  0
 75 74  1  0  0  0  0
 76 78  1  0  0  0  0
 77 76  1  0  0  0  0
 78 79  1  0  0  0  0
 78 69  2  0  0  0  0
 80 81  1  0  0  0  0
 80  5  1  0  0  0  0
 81 82  1  0  0  0  0
 83 84  1  0  0  0  0
 83 81  2  0  0  0  0
 85 83  1  0  0  0  0
 86 85  1  0  0  0  0
 87 85  2  0  0  0  0
 87 89  1  0  0  0  0
 88 87  1  0  0  0  0
 89 80  2  0  0  0  0
 90 89  1  0  0  0  0
M  END
$$$$
