CSD_code = AJEXIW | q = 0 | S = 0 | Stoichiometry = C18H19BClN7O2Ru | MND = 6
 OpenBabel04212202003D

 49 54  0  0  1  0  0  0  0  0999 V2000
    3.9310    2.2103   11.8849 Ru  0  0  0  0  0  0  0  0  0  0  0  0
    4.8672    3.7589   13.3611 Cl  0  0  0  0  0  0  0  0  0  0  0  0
    2.2059    3.9990   10.5601 O   0  0  0  0  0  1  0  0  0  0  0  0
    4.6729    2.3713    8.3212 O   0  0  0  0  0  0  0  0  0  0  0  0
    2.9518    3.2901   11.0832 N   0  0  0  0  0  2  0  0  0  0  0  0
    5.0714    0.8225   12.8830 N   0  0  2  0  0  0  0  0  0  0  0  0
    4.5362   -0.3196   13.3351 N   0  0  0  0  0  0  0  0  0  0  0  0
    2.5094    1.7588   13.4292 N   0  0  2  0  0  0  0  0  0  0  0  0
    2.2628    0.4947   13.7719 N   0  0  0  0  0  0  0  0  0  0  0  0
    3.2171    0.5260   10.8816 N   0  0  1  0  0  0  0  0  0  0  0  0
    2.8204   -0.5403   11.5880 N   0  0  0  0  0  0  0  0  0  0  0  0
    6.3426    0.8559   13.2739 C   0  0  0  0  0  3  0  0  0  0  0  0
    6.6389   -0.2959   13.9956 C   0  0  0  0  0  0  0  0  0  0  0  0
    5.4595   -1.0135   14.0094 C   0  0  0  0  0  0  0  0  0  0  0  0
    1.7542    2.5490   14.1763 C   0  0  0  0  0  3  0  0  0  0  0  0
    0.9851    1.7683   15.0380 C   0  0  0  0  0  0  0  0  0  0  0  0
    1.3434    0.4680   14.7462 C   0  0  0  0  0  0  0  0  0  0  0  0
    2.9346    0.3089    9.6046 C   0  0  0  0  0  3  0  0  0  0  0  0
    2.3382   -0.9436    9.4737 C   0  0  0  0  0  0  0  0  0  0  0  0
    2.2869   -1.4459   10.7573 C   0  0  0  0  0  0  0  0  0  0  0  0
    5.5539    2.4556   10.5142 C   0  0  0  0  0  0  0  0  0  0  0  0
    5.0475    3.0627    9.2632 C   0  0  0  0  0  0  0  0  0  0  0  0
    5.0044    4.5465    9.1462 C   0  0  0  0  0  0  0  0  0  0  0  0
    4.8211    5.0864    7.8735 C   0  0  0  0  0  0  0  0  0  0  0  0
    4.7586    6.4521    7.6840 C   0  0  0  0  0  0  0  0  0  0  0  0
    4.8655    7.3209    8.7626 C   0  0  0  0  0  0  0  0  0  0  0  0
    5.0407    6.7814   10.0338 C   0  0  0  0  0  0  0  0  0  0  0  0
    5.1146    5.4172   10.2307 C   0  0  0  0  0  0  0  0  0  0  0  0
    4.7858    8.8049    8.5795 C   0  0  0  0  0  0  0  0  0  0  0  0
    3.0504   -0.6396   13.1023 B   0  0  1  0  0  0  0  0  0  0  0  0
    2.7515   -1.6982   13.5275 H   0  0  0  0  0  0  0  0  0  0  0  0
    6.9785    1.6896   13.0386 H   0  0  0  0  0  0  0  0  0  0  0  0
    7.5735   -0.5631   14.4423 H   0  0  0  0  0  0  0  0  0  0  0  0
    5.2273   -1.9603   14.4528 H   0  0  0  0  0  0  0  0  0  0  0  0
    1.7961    3.6176   14.0743 H   0  0  0  0  0  0  0  0  0  0  0  0
    0.2760    2.1061   15.7645 H   0  0  0  0  0  0  0  0  0  0  0  0
    1.0071   -0.4573   15.1673 H   0  0  0  0  0  0  0  0  0  0  0  0
    3.1982    1.0221    8.8442 H   0  0  0  0  0  0  0  0  0  0  0  0
    1.9973   -1.4101    8.5735 H   0  0  0  0  0  0  0  0  0  0  0  0
    1.9122   -2.3796   11.1244 H   0  0  0  0  0  0  0  0  0  0  0  0
    6.3300    3.0738   10.9683 H   0  0  0  0  0  0  0  0  0  0  0  0
    5.9508    1.4608   10.2800 H   0  0  0  0  0  0  0  0  0  0  0  0
    4.7305    4.4081    7.0379 H   0  0  0  0  0  0  0  0  0  0  0  0
    4.6205    6.8490    6.6882 H   0  0  0  0  0  0  0  0  0  0  0  0
    5.1174    7.4441   10.8840 H   0  0  0  0  0  0  0  0  0  0  0  0
    5.2364    5.0414   11.2358 H   0  0  0  0  0  0  0  0  0  0  0  0
    5.6756    9.2856    8.9842 H   0  0  0  0  0  0  0  0  0  0  0  0
    4.6945    9.0655    7.5280 H   0  0  0  0  0  0  0  0  0  0  0  0
    3.9231    9.2032    9.1127 H   0  0  0  0  0  0  0  0  0  0  0  0
  1  6  1  0  0  0  0
  1  2  1  0  0  0  0
  1  8  1  0  0  0  0
  3  5  1  0  0  0  0
  4 22  2  0  0  0  0
  5  1  1  0  0  0  0
  6 12  1  1  0  0  0
  6  7  1  0  0  0  0
  7 14  1  0  0  0  0
  8  9  1  0  0  0  0
  8 15  1  6  0  0  0
  9 17  1  0  0  0  0
 10 18  1  1  0  0  0
 10 11  1  0  0  0  0
 10  1  1  0  0  0  0
 11 30  1  0  0  0  0
 12 13  1  0  0  0  0
 13 14  2  0  0  0  0
 13 33  1  0  0  0  0
 14 34  1  0  0  0  0
 15 16  1  0  0  0  0
 16 36  1  0  0  0  0
 17 16  2  0  0  0  0
 17 37  1  0  0  0  0
 19 18  1  0  0  0  0
 19 20  2  0  0  0  0
 20 40  1  0  0  0  0
 20 11  1  0  0  0  0
 21 41  1  0  0  0  0
 21  1  1  0  0  0  0
 22 21  1  0  0  0  0
 23 22  1  0  0  0  0
 23 28  1  0  0  0  0
 24 23  2  0  0  0  0
 25 24  1  0  0  0  0
 25 26  2  0  0  0  0
 26 27  1  0  0  0  0
 27 28  2  0  0  0  0
 27 45  1  0  0  0  0
 28 46  1  0  0  0  0
 29 26  1  0  0  0  0
 29 47  1  0  0  0  0
 29 49  1  0  0  0  0
 30  7  1  0  0  0  0
 30 31  1  1  0  0  0
 30  9  1  0  0  0  0
 32 12  1  0  0  0  0
 35 15  1  0  0  0  0
 38 18  1  0  0  0  0
 39 19  1  0  0  0  0
 42 21  1  0  0  0  0
 43 24  1  0  0  0  0
 44 25  1  0  0  0  0
 48 29  1  0  0  0  0
M  END
$$$$
