CSD_code = AJEXOC | q = 0 | S = 0 | Stoichiometry = C24H21BClN7O2Ru | MND = 6
 OpenBabel04212202003D

 57 63  0  0  1  0  0  0  0  0999 V2000
   -0.3194    0.2020   10.3943 Ru  0  0  0  0  0  0  0  0  0  0  0  0
   -1.8910    1.5656    9.3190 Cl  0  0  0  0  0  0  0  0  0  0  0  0
   -0.8297   -2.0121    8.7214 O   0  0  0  0  0  1  0  0  0  0  0  0
   -1.4292   -0.3376   12.9224 O   0  0  0  0  0  0  0  0  0  0  0  0
   -0.6090   -1.0936    9.3916 N   0  0  0  0  0  2  0  0  0  0  0  0
    1.1924   -0.7578   11.4833 N   0  0  2  0  0  0  0  0  0  0  0  0
    2.2842   -0.1011   11.8766 N   0  0  0  0  0  0  0  0  0  0  0  0
   -0.0069    1.7720   11.6836 N   0  0  2  0  0  0  0  0  0  0  0  0
    1.2161    2.1129   12.1099 N   0  0  0  0  0  0  0  0  0  0  0  0
    1.3787    1.2565    9.3477 N   0  0  1  0  0  0  0  0  0  0  0  0
    2.4598    1.5884   10.0585 N   0  0  0  0  0  0  0  0  0  0  0  0
    1.3021   -2.0214   11.8739 C   0  0  0  0  0  3  0  0  0  0  0  0
    2.5087   -2.1898   12.5480 C   0  0  0  0  0  0  0  0  0  0  0  0
    3.0984   -0.9419   12.5263 C   0  0  0  0  0  0  0  0  0  0  0  0
   -0.8795    2.6041   12.2450 C   0  0  0  0  0  3  0  0  0  0  0  0
   -0.2035    3.5099   13.0556 C   0  0  0  0  0  0  0  0  0  0  0  0
    1.1264    3.1594   12.9379 C   0  0  0  0  0  0  0  0  0  0  0  0
    1.5989    1.5850    8.0852 C   0  0  0  0  0  3  0  0  0  0  0  0
    2.8678    2.1518    7.9661 C   0  0  0  0  0  0  0  0  0  0  0  0
    3.3775    2.1348    9.2478 C   0  0  0  0  0  0  0  0  0  0  0  0
   -1.7116   -0.4455   11.7638 C   0  0  0  0  0  0  0  0  0  0  0  0
   -2.9112   -0.9740   11.1318 C   0  0  0  0  0  0  0  0  0  0  0  0
   -3.1645   -2.2804   10.9269 C   0  0  0  0  0  0  0  0  0  0  0  0
   -4.2562   -2.7178   10.0499 C   0  0  0  0  0  0  0  0  0  0  0  0
   -4.9492   -3.8952   10.3300 C   0  0  0  0  0  0  0  0  0  0  0  0
   -5.9795   -4.3143    9.5103 C   0  0  0  0  0  0  0  0  0  0  0  0
   -6.3264   -3.5721    8.3932 C   0  0  0  0  0  0  0  0  0  0  0  0
   -5.6362   -2.4072    8.1001 C   0  0  0  0  0  0  0  0  0  0  0  0
   -4.6095   -1.9800    8.9205 C   0  0  0  0  0  0  0  0  0  0  0  0
   -2.3117   -3.3249   11.5244 C   0  0  0  0  0  0  0  0  0  0  0  0
   -1.7853   -4.3322   10.7173 C   0  0  0  0  0  0  0  0  0  0  0  0
   -0.9569   -5.2990   11.2563 C   0  0  0  0  0  0  0  0  0  0  0  0
   -0.6550   -5.2819   12.6088 C   0  0  0  0  0  0  0  0  0  0  0  0
   -1.1882   -4.2941   13.4203 C   0  0  0  0  0  0  0  0  0  0  0  0
   -2.0110   -3.3194   12.8843 C   0  0  0  0  0  0  0  0  0  0  0  0
    2.4697    1.3987   11.5822 B   0  0  2  0  0  0  0  0  0  0  0  0
    3.4575    1.8180   12.0723 H   0  0  0  0  0  0  0  0  0  0  0  0
    0.5330   -2.7419   11.6660 H   0  0  0  0  0  0  0  0  0  0  0  0
    2.8894   -3.0887   12.9852 H   0  0  0  0  0  0  0  0  0  0  0  0
    4.0328   -0.6082   12.9289 H   0  0  0  0  0  0  0  0  0  0  0  0
   -1.9331    2.5298   12.0430 H   0  0  0  0  0  0  0  0  0  0  0  0
   -0.6237    4.3019   13.6393 H   0  0  0  0  0  0  0  0  0  0  0  0
    1.9999    3.5866   13.3869 H   0  0  0  0  0  0  0  0  0  0  0  0
    0.8523    1.4127    7.3331 H   0  0  0  0  0  0  0  0  0  0  0  0
    3.3379    2.5194    7.0781 H   0  0  0  0  0  0  0  0  0  0  0  0
    4.3201    2.4738    9.6267 H   0  0  0  0  0  0  0  0  0  0  0  0
   -3.5300   -0.2143   10.6653 H   0  0  0  0  0  0  0  0  0  0  0  0
   -4.6824   -4.4728   11.2035 H   0  0  0  0  0  0  0  0  0  0  0  0
   -6.5134   -5.2244    9.7421 H   0  0  0  0  0  0  0  0  0  0  0  0
   -7.1285   -3.9035    7.7502 H   0  0  0  0  0  0  0  0  0  0  0  0
   -5.8962   -1.8310    7.2244 H   0  0  0  0  0  0  0  0  0  0  0  0
   -4.0591   -1.0843    8.6716 H   0  0  0  0  0  0  0  0  0  0  0  0
   -2.0170   -4.3397    9.6621 H   0  0  0  0  0  0  0  0  0  0  0  0
   -0.5463   -6.0691   10.6197 H   0  0  0  0  0  0  0  0  0  0  0  0
   -0.0102   -6.0397   13.0291 H   0  0  0  0  0  0  0  0  0  0  0  0
   -0.9626   -4.2816   14.4764 H   0  0  0  0  0  0  0  0  0  0  0  0
   -2.4317   -2.5561   13.5201 H   0  0  0  0  0  0  0  0  0  0  0  0
  1  6  1  0  0  0  0
  1  8  1  0  0  0  0
  1 21  1  0  0  0  0
  2  1  1  0  0  0  0
  3  5  1  0  0  0  0
  5  1  1  0  0  0  0
  6 12  1  6  0  0  0
  6  7  1  0  0  0  0
  7 14  1  0  0  0  0
  8  9  1  0  0  0  0
  8 15  1  1  0  0  0
  9 17  1  0  0  0  0
 10 18  1  6  0  0  0
 10 11  1  0  0  0  0
 10  1  1  0  0  0  0
 11 36  1  0  0  0  0
 12 13  1  0  0  0  0
 13 39  1  0  0  0  0
 14 13  2  0  0  0  0
 14 40  1  0  0  0  0
 15 16  1  0  0  0  0
 16 42  1  0  0  0  0
 17 16  2  0  0  0  0
 17 43  1  0  0  0  0
 19 18  1  0  0  0  0
 19 20  2  0  0  0  0
 20 46  1  0  0  0  0
 20 11  1  0  0  0  0
 21  4  2  0  0  0  0
 22 21  1  0  0  0  0
 23 22  2  0  0  0  0
 23 30  1  0  0  0  0
 24 25  1  0  0  0  0
 24 23  1  0  0  0  0
 25 48  1  0  0  0  0
 26 49  1  0  0  0  0
 26 25  2  0  0  0  0
 27 26  1  0  0  0  0
 28 27  2  0  0  0  0
 28 29  1  0  0  0  0
 29 24  2  0  0  0  0
 30 35  1  0  0  0  0
 31 32  1  0  0  0  0
 31 30  2  0  0  0  0
 32 33  2  0  0  0  0
 33 55  1  0  0  0  0
 33 34  1  0  0  0  0
 34 56  1  0  0  0  0
 35 34  2  0  0  0  0
 35 57  1  0  0  0  0
 36  7  1  0  0  0  0
 36 37  1  1  0  0  0
 36  9  1  0  0  0  0
 38 12  1  0  0  0  0
 41 15  1  0  0  0  0
 44 18  1  0  0  0  0
 45 19  1  0  0  0  0
 47 22  1  0  0  0  0
 50 27  1  0  0  0  0
 51 28  1  0  0  0  0
 52 29  1  0  0  0  0
 53 31  1  0  0  0  0
 54 32  1  0  0  0  0
M  END
$$$$
