CSD_code = AJEZUK | q = 0 | S = 0 | Stoichiometry = C38H30ClIrO2P2 | MND = 6
 OpenBabel04212202003D

 74 81  0  0  1  0  0  0  0  0999 V2000
   -0.2360    1.9920    2.3549 Ir  0  0  0  0  0  0  0  0  0  0  0  0
    0.1636    0.9004    1.3409 H   0  0  0  0  0  0  0  0  0  0  0  0
   -0.9228    3.6821    3.9178 Cl  0  0  0  0  0  0  0  0  0  0  0  0
   -2.0855    0.7735    3.1499 P   0  0  0  0  0  4  0  0  0  0  0  0
    1.2948    1.4777    4.1191 P   0  0  0  0  0  4  0  0  0  0  0  0
   -1.2159    3.3341   -0.0193 O   0  0  0  0  0  0  0  0  0  0  0  0
    1.1923    3.8240    0.5746 O   0  0  0  0  0  0  0  0  0  0  0  0
    0.3030    3.6813    0.0872 H   0  0  0  0  0  0  0  0  0  0  0  0
   -1.5403    2.7106    0.9896 C   0  0  0  0  0  0  0  0  0  0  0  0
   -2.9902    2.5481    1.2983 C   0  0  0  0  0  0  0  0  0  0  0  0
   -3.4120    1.6966    2.3259 C   0  0  0  0  0  0  0  0  0  0  0  0
   -4.7572    1.6143    2.6588 C   0  0  0  0  0  0  0  0  0  0  0  0
   -5.0727    0.9749    3.4729 H   0  0  0  0  0  0  0  0  0  0  0  0
   -5.6860    2.3664    1.9591 C   0  0  0  0  0  0  0  0  0  0  0  0
   -6.7326    2.3048    2.2206 H   0  0  0  0  0  0  0  0  0  0  0  0
   -5.2762    3.2013    0.9298 C   0  0  0  0  0  0  0  0  0  0  0  0
   -6.0055    3.7882    0.3911 H   0  0  0  0  0  0  0  0  0  0  0  0
   -3.9372    3.2950    0.6008 C   0  0  0  0  0  0  0  0  0  0  0  0
   -3.6008    3.9527   -0.1874 H   0  0  0  0  0  0  0  0  0  0  0  0
   -2.2868   -0.9368    2.5475 C   0  0  0  0  0  0  0  0  0  0  0  0
   -1.1883   -1.7772    2.7139 C   0  0  0  0  0  0  0  0  0  0  0  0
   -0.2859   -1.3808    3.1645 H   0  0  0  0  0  0  0  0  0  0  0  0
   -1.2461   -3.0936    2.2992 C   0  0  0  0  0  0  0  0  0  0  0  0
   -0.3915   -3.7407    2.4341 H   0  0  0  0  0  0  0  0  0  0  0  0
   -2.3998   -3.5778    1.7025 C   0  0  0  0  0  0  0  0  0  0  0  0
   -2.4472   -4.6051    1.3727 H   0  0  0  0  0  0  0  0  0  0  0  0
   -3.4884   -2.7415    1.5204 C   0  0  0  0  0  0  0  0  0  0  0  0
   -4.3836   -3.1171    1.0463 H   0  0  0  0  0  0  0  0  0  0  0  0
   -3.4368   -1.4236    1.9412 C   0  0  0  0  0  0  0  0  0  0  0  0
   -4.2872   -0.7744    1.7894 H   0  0  0  0  0  0  0  0  0  0  0  0
   -2.6914    0.6312    4.8594 C   0  0  0  0  0  0  0  0  0  0  0  0
   -3.0965    1.7896    5.5183 C   0  0  0  0  0  0  0  0  0  0  0  0
   -3.0690    2.7362    4.9994 H   0  0  0  0  0  0  0  0  0  0  0  0
   -3.5138    1.7282    6.8339 C   0  0  0  0  0  0  0  0  0  0  0  0
   -3.8217    2.6312    7.3402 H   0  0  0  0  0  0  0  0  0  0  0  0
   -3.5384    0.5144    7.5009 C   0  0  0  0  0  0  0  0  0  0  0  0
   -3.8703    0.4674    8.5279 H   0  0  0  0  0  0  0  0  0  0  0  0
   -3.1353   -0.6393    6.8495 C   0  0  0  0  0  0  0  0  0  0  0  0
   -3.1548   -1.5884    7.3664 H   0  0  0  0  0  0  0  0  0  0  0  0
   -2.7033   -0.5841    5.5370 C   0  0  0  0  0  0  0  0  0  0  0  0
   -2.3843   -1.4878    5.0361 H   0  0  0  0  0  0  0  0  0  0  0  0
    1.1846    3.1916    1.7042 C   0  0  1  0  0  3  0  0  0  0  0  0
    2.3163    3.5134    2.5851 C   0  0  0  0  0  0  0  0  0  0  0  0
    2.4755    2.8274    3.8002 C   0  0  0  0  0  0  0  0  0  0  0  0
    3.5089    3.1605    4.6624 C   0  0  0  0  0  0  0  0  0  0  0  0
    3.6265    2.6234    5.5933 H   0  0  0  0  0  0  0  0  0  0  0  0
    4.3829    4.1826    4.3325 C   0  0  0  0  0  0  0  0  0  0  0  0
    5.1841    4.4437    5.0083 H   0  0  0  0  0  0  0  0  0  0  0  0
    4.2300    4.8717    3.1373 C   0  0  0  0  0  0  0  0  0  0  0  0
    4.9120    5.6707    2.8868 H   0  0  0  0  0  0  0  0  0  0  0  0
    3.2085    4.5428    2.2690 C   0  0  0  0  0  0  0  0  0  0  0  0
    3.0790    5.0781    1.3406 H   0  0  0  0  0  0  0  0  0  0  0  0
    0.8116    1.6644    5.8543 C   0  0  0  0  0  0  0  0  0  0  0  0
    0.7880    2.8987    6.4928 C   0  0  0  0  0  0  0  0  0  0  0  0
    1.1460    3.7787    5.9790 H   0  0  0  0  0  0  0  0  0  0  0  0
    0.2851    2.9975    7.7774 C   0  0  0  0  0  0  0  0  0  0  0  0
    0.2629    3.9587    8.2699 H   0  0  0  0  0  0  0  0  0  0  0  0
   -0.1957    1.8740    8.4288 C   0  0  0  0  0  0  0  0  0  0  0  0
   -0.5870    1.9570    9.4322 H   0  0  0  0  0  0  0  0  0  0  0  0
   -0.1834    0.6437    7.7914 C   0  0  0  0  0  0  0  0  0  0  0  0
   -0.5633   -0.2328    8.2956 H   0  0  0  0  0  0  0  0  0  0  0  0
    0.3040    0.5408    6.5035 C   0  0  0  0  0  0  0  0  0  0  0  0
    0.3003   -0.4140    5.9915 H   0  0  0  0  0  0  0  0  0  0  0  0
    2.4843    0.0890    4.1905 C   0  0  0  0  0  0  0  0  0  0  0  0
    3.1757   -0.2700    5.3425 C   0  0  0  0  0  0  0  0  0  0  0  0
    2.9935    0.2521    6.2716 H   0  0  0  0  0  0  0  0  0  0  0  0
    4.0891   -1.3079    5.3040 C   0  0  0  0  0  0  0  0  0  0  0  0
    4.6233   -1.5842    6.2017 H   0  0  0  0  0  0  0  0  0  0  0  0
    4.3209   -1.9922    4.1218 C   0  0  0  0  0  0  0  0  0  0  0  0
    5.0342   -2.8030    4.0990 H   0  0  0  0  0  0  0  0  0  0  0  0
    3.6355   -1.6370    2.9716 C   0  0  0  0  0  0  0  0  0  0  0  0
    3.8123   -2.1696    2.0487 H   0  0  0  0  0  0  0  0  0  0  0  0
    2.7208   -0.6006    3.0058 C   0  0  0  0  0  0  0  0  0  0  0  0
    2.1753   -0.3155    2.1157 H   0  0  0  0  0  0  0  0  0  0  0  0
  1  4  1  0  0  0  0
  1  3  1  0  0  0  0
  1  5  1  0  0  0  0
  2  1  1  0  0  0  0
  4 31  1  0  0  0  0
  5 64  1  0  0  0  0
  5 53  1  0  0  0  0
  6  9  2  0  0  0  0
  8  7  1  0  0  0  0
  9 10  1  0  0  0  0
  9  1  1  0  0  0  0
 10 11  1  0  0  0  0
 11 12  2  0  0  0  0
 11  4  1  0  0  0  0
 12 13  1  0  0  0  0
 14 15  1  0  0  0  0
 14 12  1  0  0  0  0
 16 14  2  0  0  0  0
 17 16  1  0  0  0  0
 18 16  1  0  0  0  0
 18 10  2  0  0  0  0
 19 18  1  0  0  0  0
 20 21  1  0  0  0  0
 20  4  1  0  0  0  0
 21 22  1  0  0  0  0
 23 24  1  0  0  0  0
 23 21  2  0  0  0  0
 25 23  1  0  0  0  0
 26 25  1  0  0  0  0
 27 25  2  0  0  0  0
 27 29  1  0  0  0  0
 28 27  1  0  0  0  0
 29 20  2  0  0  0  0
 30 29  1  0  0  0  0
 31 32  2  0  0  0  0
 31 40  1  0  0  0  0
 32 34  1  0  0  0  0
 33 32  1  0  0  0  0
 34 35  1  0  0  0  0
 34 36  2  0  0  0  0
 36 37  1  0  0  0  0
 38 39  1  0  0  0  0
 38 36  1  0  0  0  0
 40 38  2  0  0  0  0
 41 40  1  0  0  0  0
 42  7  1  1  0  0  0
 42  1  1  0  0  0  0
 42 43  1  0  0  0  0
 43 44  1  0  0  0  0
 44  5  1  0  0  0  0
 44 45  2  0  0  0  0
 45 46  1  0  0  0  0
 47 45  1  0  0  0  0
 47 48  1  0  0  0  0
 49 47  2  0  0  0  0
 50 49  1  0  0  0  0
 51 43  2  0  0  0  0
 51 49  1  0  0  0  0
 52 51  1  0  0  0  0
 53 54  2  0  0  0  0
 53 62  1  0  0  0  0
 54 56  1  0  0  0  0
 55 54  1  0  0  0  0
 56 57  1  0  0  0  0
 56 58  2  0  0  0  0
 58 59  1  0  0  0  0
 60 61  1  0  0  0  0
 60 58  1  0  0  0  0
 62 60  2  0  0  0  0
 63 62  1  0  0  0  0
 64 65  1  0  0  0  0
 65 66  1  0  0  0  0
 67 65  2  0  0  0  0
 67 68  1  0  0  0  0
 69 67  1  0  0  0  0
 70 69  1  0  0  0  0
 71 73  1  0  0  0  0
 71 69  2  0  0  0  0
 72 71  1  0  0  0  0
 73 64  2  0  0  0  0
 74 73  1  0  0  0  0
M  END
$$$$
