CSD_code = AJICAZ | q = 0 | S = 0 | Stoichiometry = C19H19IN2O2PdS | MND = 4
 OpenBabel04212202003D

 45 48  0  0  0  0  0  0  0  0999 V2000
    0.0198    1.8478    2.0271 Pd  0  0  2  0  0  0  0  0  0  0  0  0
   -1.8017    1.0875    3.6556 I   0  0  0  0  0  0  0  0  0  0  0  0
    1.7703    0.9710    3.1090 N   0  0  0  0  0  0  0  0  0  0  0  0
    1.6963    0.2915    4.2298 C   0  0  0  0  0  0  0  0  0  0  0  0
    0.7515    0.3230    4.7595 H   0  0  0  0  0  0  0  0  0  0  0  0
    2.7649   -0.4516    4.7546 C   0  0  0  0  0  0  0  0  0  0  0  0
    2.6294   -0.9856    5.6810 H   0  0  0  0  0  0  0  0  0  0  0  0
    3.9487   -0.4873    4.0719 C   0  0  0  0  0  0  0  0  0  0  0  0
    4.7935   -1.0562    4.4316 H   0  0  0  0  0  0  0  0  0  0  0  0
    4.0709    0.2366    2.8669 C   0  0  0  0  0  0  0  0  0  0  0  0
    2.9393    0.9728    2.4179 C   0  0  0  0  0  0  0  0  0  0  0  0
    3.0616    1.7204    1.2221 C   0  0  0  0  0  0  0  0  0  0  0  0
    4.2241    1.6925    0.4936 C   0  0  0  0  0  0  0  0  0  0  0  0
    4.2825    2.2461   -0.4311 H   0  0  0  0  0  0  0  0  0  0  0  0
    5.3278    0.9532    0.9363 C   0  0  0  0  0  0  0  0  0  0  0  0
    6.2312    0.9498    0.3465 H   0  0  0  0  0  0  0  0  0  0  0  0
    5.2558    0.2458    2.1045 C   0  0  0  0  0  3  0  0  0  0  0  0
    6.1010   -0.3243    2.4602 H   0  0  0  0  0  0  0  0  0  0  0  0
    1.6940    2.6797    0.5878 S   0  0  2  0  0  3  0  0  0  0  0  0
    1.9619    4.3534    1.3978 C   0  0  0  0  0  0  0  0  0  0  0  0
    0.9607    5.2603    0.6932 C   0  0  0  0  0  0  0  0  0  0  0  0
   -0.0549    4.8866    0.8243 H   0  0  0  0  0  0  0  0  0  0  0  0
    1.1711    5.3093   -0.3731 H   0  0  0  0  0  0  0  0  0  0  0  0
    1.0174    6.2664    1.1039 H   0  0  0  0  0  0  0  0  0  0  0  0
    3.3870    4.8125    1.1334 C   0  0  0  0  0  0  0  0  0  0  0  0
    3.5157    5.8245    1.5130 H   0  0  0  0  0  0  0  0  0  0  0  0
    3.5971    4.8216    0.0660 H   0  0  0  0  0  0  0  0  0  0  0  0
    4.1139    4.1704    1.6282 H   0  0  0  0  0  0  0  0  0  0  0  0
    1.6711    4.2679    2.8916 C   0  0  0  0  0  0  0  0  0  0  0  0
    1.7221    5.2649    3.3289 H   0  0  0  0  0  0  0  0  0  0  0  0
    2.4069    3.6429    3.4017 H   0  0  0  0  0  0  0  0  0  0  0  0
    0.6537    3.8663    3.0763 H   0  0  0  0  0  0  0  0  0  0  0  0
   -1.4348    2.4324    0.8329 C   0  0  0  0  0  0  0  0  0  0  0  0
   -2.2161    3.5707    1.0140 C   0  0  0  0  0  0  0  0  0  0  0  0
   -2.1239    4.1635    1.9196 H   0  0  0  0  0  0  0  0  0  0  0  0
   -3.1446    3.9290    0.0562 C   0  0  0  0  0  0  0  0  0  0  0  0
   -3.7602    4.8083    0.1715 H   0  0  0  0  0  0  0  0  0  0  0  0
   -3.3002    3.1345   -1.0757 C   0  0  0  0  0  0  0  0  0  0  0  0
   -2.5529    1.9715   -1.2460 C   0  0  0  0  0  0  0  0  0  0  0  0
   -2.7156    1.3642   -2.1237 H   0  0  0  0  0  0  0  0  0  0  0  0
   -1.6232    1.6241   -0.2872 C   0  0  0  0  0  0  0  0  0  0  0  0
   -1.0408    0.7078   -0.4036 H   0  0  0  0  0  0  0  0  0  0  0  0
   -4.2498    3.5141   -2.0782 N   0  0  0  0  0  0  0  0  0  0  0  0
   -4.8635    4.5514   -1.9170 O   0  0  0  0  0  0  0  0  0  0  0  0
   -4.3824    2.7847   -3.0421 O   0  0  0  0  0  0  0  0  0  0  0  0
  1  3  1  0  0  0  0
  1  2  1  1  0  0  0
  3  4  1  0  0  0  0
  4  6  2  0  0  0  0
  4  5  1  0  0  0  0
  6  7  1  0  0  0  0
  8  9  1  0  0  0  0
  8  6  1  0  0  0  0
 10  8  2  0  0  0  0
 11 10  1  0  0  0  0
 11  3  1  0  0  0  0
 12 11  2  0  0  0  0
 13 15  2  0  0  0  0
 13 12  1  0  0  0  0
 14 13  1  0  0  0  0
 15 17  1  0  0  0  0
 16 15  1  0  0  0  0
 17 18  1  0  0  0  0
 17 10  1  0  0  0  0
 19 12  1  0  0  0  0
 19 20  1  1  0  0  0
 19  1  1  0  0  0  0
 20 29  1  0  0  0  0
 21 22  1  0  0  0  0
 21 24  1  0  0  0  0
 21 20  1  0  0  0  0
 23 21  1  0  0  0  0
 25 20  1  0  0  0  0
 25 26  1  0  0  0  0
 25 28  1  0  0  0  0
 27 25  1  0  0  0  0
 29 32  1  0  0  0  0
 29 30  1  0  0  0  0
 29 31  1  0  0  0  0
 33 34  1  0  0  0  0
 33  1  1  0  0  0  0
 34 35  1  0  0  0  0
 36 37  1  0  0  0  0
 36 34  2  0  0  0  0
 38 36  1  0  0  0  0
 39 38  2  0  0  0  0
 39 41  1  0  0  0  0
 40 39  1  0  0  0  0
 41 33  2  0  0  0  0
 42 41  1  0  0  0  0
 43 44  2  0  0  0  0
 43 38  1  0  0  0  0
 45 43  2  0  0  0  0
M  END
$$$$
