CSD_code = AJIFUU | q = 0 | S = 0 | Stoichiometry = C44H34Cl2N2O2P2Pd | MND = 4
 OpenBabel04212202003D

 87 94  0  0  0  0  0  0  0  0999 V2000
    7.3717   13.0884    0.5671 C   0  0  0  0  0  0  0  0  0  0  0  0
    6.9953   12.2538   -0.4850 C   0  0  0  0  0  0  0  0  0  0  0  0
    7.6754   11.4874   -0.8142 H   0  0  0  0  0  0  0  0  0  0  0  0
    5.7660   12.3967   -1.0974 C   0  0  0  0  0  0  0  0  0  0  0  0
    5.4990   11.7327   -1.9054 H   0  0  0  0  0  0  0  0  0  0  0  0
    4.8759   13.3680   -0.6736 C   0  0  0  0  0  0  0  0  0  0  0  0
    3.9079   13.4689   -1.1396 H   0  0  0  0  0  0  0  0  0  0  0  0
    5.2445   14.2199    0.3504 C   0  0  0  0  0  0  0  0  0  0  0  0
    4.5736   14.9942    0.6922 H   0  0  0  0  0  0  0  0  0  0  0  0
    6.4865   14.1018    0.9557 C   0  0  0  0  0  0  0  0  0  0  0  0
    9.6570   12.2233    0.8036 C   0  0  0  0  0  0  0  0  0  0  0  0
   10.7671   12.0900    1.7984 C   0  0  0  0  0  0  0  0  0  0  0  0
   12.0275   12.5123    1.3930 C   0  0  0  0  0  0  0  0  0  0  0  0
   12.1331   12.9485    0.4106 H   0  0  0  0  0  0  0  0  0  0  0  0
   13.1201   12.3892    2.2307 C   0  0  0  0  0  0  0  0  0  0  0  0
   14.0896   12.7399    1.9104 H   0  0  0  0  0  0  0  0  0  0  0  0
   12.9626   11.8124    3.4797 C   0  0  0  0  0  0  0  0  0  0  0  0
   13.8092   11.7111    4.1429 H   0  0  0  0  0  0  0  0  0  0  0  0
   11.7199   11.3592    3.8801 C   0  0  0  0  0  0  0  0  0  0  0  0
   11.6062   10.8996    4.8526 H   0  0  0  0  0  0  0  0  0  0  0  0
   10.6092   11.4820    3.0476 C   0  0  0  0  0  0  0  0  0  0  0  0
    6.3650   14.9038    3.2367 C   0  0  0  0  0  0  0  0  0  0  0  0
    6.5851   16.0179    4.1809 C   0  0  0  0  0  0  0  0  0  0  0  0
    6.7721   17.3386    3.7918 C   0  0  0  0  0  0  0  0  0  0  0  0
    6.7486   17.6073    2.7452 H   0  0  0  0  0  0  0  0  0  0  0  0
    6.9607   18.3173    4.7499 C   0  0  0  0  0  0  0  0  0  0  0  0
    7.0982   19.3454    4.4500 H   0  0  0  0  0  0  0  0  0  0  0  0
    6.9804   17.9774    6.0938 C   0  0  0  0  0  0  0  0  0  0  0  0
    7.1381   18.7419    6.8401 H   0  0  0  0  0  0  0  0  0  0  0  0
    6.8012   16.6629    6.4875 C   0  0  0  0  0  0  0  0  0  0  0  0
    6.8309   16.4065    7.5365 H   0  0  0  0  0  0  0  0  0  0  0  0
    6.5827   15.6722    5.5389 C   0  0  0  0  0  0  0  0  0  0  0  0
    9.4088    9.6111    4.8325 C   0  0  0  0  0  0  0  0  0  0  0  0
    9.5843    9.9653    6.1696 C   0  0  0  0  0  0  0  0  0  0  0  0
    9.4449   11.0043    6.4674 H   0  0  0  0  0  0  0  0  0  0  0  0
    9.9007    9.0058    7.1111 C   0  0  0  0  0  0  0  0  0  0  0  0
   10.0287    9.2853    8.1466 H   0  0  0  0  0  0  0  0  0  0  0  0
   10.0365    7.6814    6.7253 C   0  0  0  0  0  0  0  0  0  0  0  0
   10.2743    6.9267    7.4604 H   0  0  0  0  0  0  0  0  0  0  0  0
    9.8505    7.3230    5.4012 C   0  0  0  0  0  0  0  0  0  0  0  0
    9.9420    6.2885    5.1038 H   0  0  0  0  0  0  0  0  0  0  0  0
    9.5367    8.2819    4.4528 C   0  0  0  0  0  0  0  0  0  0  0  0
    9.3734    7.9903    3.4260 H   0  0  0  0  0  0  0  0  0  0  0  0
    8.1190   10.1742    2.3129 C   0  0  0  0  0  0  0  0  0  0  0  0
    6.7528   10.4158    2.1946 C   0  0  0  0  0  0  0  0  0  0  0  0
    6.2648   11.1079    2.8814 H   0  0  0  0  0  0  0  0  0  0  0  0
    6.0275    9.7828    1.2016 C   0  0  0  0  0  0  0  0  0  0  0  0
    4.9670    9.9644    1.1122 H   0  0  0  0  0  0  0  0  0  0  0  0
    6.6648    8.9251    0.3200 C   0  0  0  0  0  0  0  0  0  0  0  0
    6.0982    8.4287   -0.4541 H   0  0  0  0  0  0  0  0  0  0  0  0
    8.0321    8.7155    0.4126 C   0  0  0  0  0  0  0  0  0  0  0  0
    8.5303    8.0680   -0.2937 H   0  0  0  0  0  0  0  0  0  0  0  0
    8.7647    9.3383    1.4059 C   0  0  0  0  0  0  0  0  0  0  0  0
    9.8357    9.1955    1.4660 H   0  0  0  0  0  0  0  0  0  0  0  0
    7.0679   13.8835    7.6890 C   0  0  0  0  0  0  0  0  0  0  0  0
    8.3955   13.4854    7.8261 C   0  0  0  0  0  0  0  0  0  0  0  0
    8.9758   13.2381    6.9304 H   0  0  0  0  0  0  0  0  0  0  0  0
    8.9865   13.4195    9.0748 C   0  0  0  0  0  0  0  0  0  0  0  0
   10.0168   13.1090    9.1721 H   0  0  0  0  0  0  0  0  0  0  0  0
    8.2519   13.7509   10.2015 C   0  0  0  0  0  0  0  0  0  0  0  0
    8.7070   13.6952   11.1794 H   0  0  0  0  0  0  0  0  0  0  0  0
    6.9317   14.1523   10.0747 C   0  0  0  0  0  0  0  0  0  0  0  0
    6.3597   14.4125   10.9537 H   0  0  0  0  0  0  0  0  0  0  0  0
    6.3395   14.2196    8.8264 C   0  0  0  0  0  0  0  0  0  0  0  0
    5.3070   14.5279    8.7317 H   0  0  0  0  0  0  0  0  0  0  0  0
    4.6208   13.7265    6.2786 C   0  0  0  0  0  0  0  0  0  0  0  0
    3.6969   14.6197    5.7493 C   0  0  0  0  0  0  0  0  0  0  0  0
    4.0314   15.4408    5.1306 H   0  0  0  0  0  0  0  0  0  0  0  0
    4.1838   12.6666    7.0675 C   0  0  0  0  0  0  0  0  0  0  0  0
    4.9032   11.9647    7.4645 H   0  0  0  0  0  0  0  0  0  0  0  0
    2.8348   12.5062    7.3234 C   0  0  0  0  0  0  0  0  0  0  0  0
    2.4996   11.6796    7.9325 H   0  0  0  0  0  0  0  0  0  0  0  0
    1.9159   13.4011    6.7993 C   0  0  0  0  0  0  0  0  0  0  0  0
    0.8621   13.2758    7.0019 H   0  0  0  0  0  0  0  0  0  0  0  0
    2.3490   14.4554    6.0125 C   0  0  0  0  0  0  0  0  0  0  0  0
    1.6336   15.1534    5.6015 H   0  0  0  0  0  0  0  0  0  0  0  0
    9.1632   14.2279    4.1058 Cl  0  0  0  0  0  0  0  0  0  0  0  0
    6.4931   10.7931    5.6528 Cl  0  0  0  0  0  0  0  0  0  0  0  0
    8.5708   12.9116    1.2581 N   0  0  0  0  0  0  0  0  0  0  0  0
    6.8120   15.0430    1.9748 N   0  0  0  0  0  0  0  0  0  0  0  0
    9.7742   11.7723   -0.3178 O   0  0  0  0  0  0  0  0  0  0  0  0
    5.7955   13.8794    3.6227 O   0  0  0  0  0  0  0  0  0  0  0  0
    8.9821   10.9683    3.6934 P   0  0  0  0  0  4  0  0  0  0  0  0
    6.4001   13.9108    5.9811 P   0  0  0  0  0  4  0  0  0  0  0  0
    7.7355   12.4942    4.7892 Pd  0  0  0  0  0  0  0  0  0  0  0  0
    8.6672   13.4056    2.1537 H   0  0  0  0  0  0  0  0  0  0  0  0
    7.4937   15.7584    1.7712 H   0  0  0  0  0  0  0  0  0  0  0  0
  1 10  1  0  0  0  0
  1 79  1  0  0  0  0
  2  1  2  0  0  0  0
  3  2  1  0  0  0  0
  4  6  2  0  0  0  0
  4  2  1  0  0  0  0
  5  4  1  0  0  0  0
  6  8  1  0  0  0  0
  7  6  1  0  0  0  0
  8  9  1  0  0  0  0
  8 10  2  0  0  0  0
 10 80  1  0  0  0  0
 11 79  1  0  0  0  0
 11 12  1  0  0  0  0
 12 21  1  0  0  0  0
 13 12  2  0  0  0  0
 13 15  1  0  0  0  0
 14 13  1  0  0  0  0
 15 17  2  0  0  0  0
 16 15  1  0  0  0  0
 17 19  1  0  0  0  0
 17 18  1  0  0  0  0
 19 20  1  0  0  0  0
 21 83  1  0  0  0  0
 21 19  2  0  0  0  0
 22 82  2  0  0  0  0
 22 23  1  0  0  0  0
 23 32  1  0  0  0  0
 24 23  2  0  0  0  0
 24 26  1  0  0  0  0
 25 24  1  0  0  0  0
 26 28  2  0  0  0  0
 27 26  1  0  0  0  0
 28 30  1  0  0  0  0
 28 29  1  0  0  0  0
 30 31  1  0  0  0  0
 32 84  1  0  0  0  0
 32 30  2  0  0  0  0
 33 34  1  0  0  0  0
 34 35  1  0  0  0  0
 34 36  2  0  0  0  0
 36 37  1  0  0  0  0
 38 36  1  0  0  0  0
 38 39  1  0  0  0  0
 40 38  2  0  0  0  0
 41 40  1  0  0  0  0
 42 33  2  0  0  0  0
 42 40  1  0  0  0  0
 43 42  1  0  0  0  0
 44 83  1  0  0  0  0
 45 44  1  0  0  0  0
 45 46  1  0  0  0  0
 47 45  2  0  0  0  0
 48 47  1  0  0  0  0
 49 51  2  0  0  0  0
 49 47  1  0  0  0  0
 50 49  1  0  0  0  0
 51 53  1  0  0  0  0
 52 51  1  0  0  0  0
 53 54  1  0  0  0  0
 53 44  2  0  0  0  0
 55 56  2  0  0  0  0
 55 64  1  0  0  0  0
 56 58  1  0  0  0  0
 57 56  1  0  0  0  0
 58 59  1  0  0  0  0
 58 60  2  0  0  0  0
 60 61  1  0  0  0  0
 62 60  1  0  0  0  0
 62 63  1  0  0  0  0
 64 62  2  0  0  0  0
 65 64  1  0  0  0  0
 66 69  1  0  0  0  0
 67 75  1  0  0  0  0
 67 66  2  0  0  0  0
 68 67  1  0  0  0  0
 69 71  2  0  0  0  0
 69 70  1  0  0  0  0
 71 72  1  0  0  0  0
 73 74  1  0  0  0  0
 73 71  1  0  0  0  0
 75 73  2  0  0  0  0
 76 75  1  0  0  0  0
 77 85  1  0  0  0  0
 79 86  1  0  0  0  0
 80 22  1  0  0  0  0
 81 11  2  0  0  0  0
 83 85  1  0  0  0  0
 83 33  1  0  0  0  0
 84 66  1  0  0  0  0
 84 55  1  0  0  0  0
 85 78  1  0  0  0  0
 85 84  1  0  0  0  0
 87 80  1  0  0  0  0
M  END
$$$$
