CSD_code = AJIFEE | q = 0 | S = 0 | Stoichiometry = C8H24Cl2O4OsS4 | MND = 6
 OpenBabel04212202003D

 43 42  0  0  0  0  0  0  0  0999 V2000
    0.4363    3.4826    2.6491 Os  0  0  0  0  0  0  0  0  0  0  0  0
    1.4177    4.9587    1.3062 S   0  0  0  0  0  0  0  0  0  0  0  0
   -1.0096    4.8997    3.6316 S   0  0  0  0  0  0  0  0  0  0  0  0
   -1.1538    2.9696    1.0893 S   0  0  0  0  0  0  0  0  0  0  0  0
    0.7565    0.9717    4.3561 S   0  0  0  0  0  3  0  0  0  0  0  0
    1.9762    3.9895    4.2960 Cl  0  0  0  0  0  0  0  0  0  0  0  0
    1.7804    1.8108    1.7786 Cl  0  0  0  0  0  0  0  0  0  0  0  0
    0.8827    4.9586   -0.0510 O   0  0  0  0  0  1  0  0  0  0  0  0
   -1.4623    5.9608    2.7277 O   0  0  0  0  0  1  0  0  0  0  0  0
   -2.2123    2.1835    1.7272 O   0  0  0  0  0  1  0  0  0  0  0  0
   -0.3175    1.9724    4.0101 O   0  0  0  0  0  0  0  0  0  0  0  0
    1.4463    6.6867    1.8713 C   0  0  0  0  0  0  0  0  0  0  0  0
    1.9284    7.2931    1.1143 H   0  0  0  0  0  0  0  0  0  0  0  0
    1.9902    6.7078    2.8082 H   0  0  0  0  0  0  0  0  0  0  0  0
    0.4170    6.9998    2.0122 H   0  0  0  0  0  0  0  0  0  0  0  0
    3.2138    4.7226    1.1614 C   0  0  0  0  0  0  0  0  0  0  0  0
    3.3779    3.7528    0.7037 H   0  0  0  0  0  0  0  0  0  0  0  0
    3.6204    4.7292    2.1663 H   0  0  0  0  0  0  0  0  0  0  0  0
    3.6268    5.5129    0.5469 H   0  0  0  0  0  0  0  0  0  0  0  0
   -0.5598    5.7439    5.1870 C   0  0  0  0  0  0  0  0  0  0  0  0
    0.3041    6.3684    4.9922 H   0  0  0  0  0  0  0  0  0  0  0  0
   -0.2991    4.9860    5.9146 H   0  0  0  0  0  0  0  0  0  0  0  0
   -1.4020    6.3446    5.5086 H   0  0  0  0  0  0  0  0  0  0  0  0
   -2.5127    4.0826    4.2448 C   0  0  0  0  0  0  0  0  0  0  0  0
   -3.2594    4.8415    4.4464 H   0  0  0  0  0  0  0  0  0  0  0  0
   -2.2516    3.5246    5.1348 H   0  0  0  0  0  0  0  0  0  0  0  0
   -2.8508    3.3980    3.4718 H   0  0  0  0  0  0  0  0  0  0  0  0
   -0.6258    2.0340   -0.3816 C   0  0  0  0  0  0  0  0  0  0  0  0
   -0.1240    1.1323   -0.0499 H   0  0  0  0  0  0  0  0  0  0  0  0
    0.0667    2.6691   -0.9205 H   0  0  0  0  0  0  0  0  0  0  0  0
   -1.4999    1.7928   -0.9741 H   0  0  0  0  0  0  0  0  0  0  0  0
   -2.0220    4.2945    0.1935 C   0  0  0  0  0  0  0  0  0  0  0  0
   -2.8802    3.8511   -0.2969 H   0  0  0  0  0  0  0  0  0  0  0  0
   -1.3267    4.7299   -0.5116 H   0  0  0  0  0  0  0  0  0  0  0  0
   -2.3347    5.0433    0.9129 H   0  0  0  0  0  0  0  0  0  0  0  0
    0.1885   -0.5541    3.5293 C   0  0  0  0  0  0  0  0  0  0  0  0
   -0.8941   -0.5298    3.4909 H   0  0  0  0  0  0  0  0  0  0  0  0
    0.5514   -1.4214    4.0665 H   0  0  0  0  0  0  0  0  0  0  0  0
    0.5982   -0.5383    2.5256 H   0  0  0  0  0  0  0  0  0  0  0  0
    0.2077    0.4786    6.0382 C   0  0  0  0  0  0  0  0  0  0  0  0
    0.3794    1.3285    6.6893 H   0  0  0  0  0  0  0  0  0  0  0  0
    0.7996   -0.3640    6.3739 H   0  0  0  0  0  0  0  0  0  0  0  0
   -0.8468    0.2322    6.0156 H   0  0  0  0  0  0  0  0  0  0  0  0
  1  3  1  0  0  0  0
  1 11  1  0  0  0  0
  1  6  1  0  0  0  0
  2 12  1  0  0  0  0
  2  1  1  0  0  0  0
  3 24  1  0  0  0  0
  3 20  1  0  0  0  0
  4 10  1  0  0  0  0
  4  1  1  0  0  0  0
  5 40  1  0  0  0  0
  7  1  1  0  0  0  0
  8  2  1  0  0  0  0
  9  3  1  0  0  0  0
 11  5  1  0  0  0  0
 12 15  1  0  0  0  0
 12 14  1  0  0  0  0
 13 12  1  0  0  0  0
 16  2  1  0  0  0  0
 16 18  1  0  0  0  0
 17 16  1  0  0  0  0
 19 16  1  0  0  0  0
 20 23  1  0  0  0  0
 20 22  1  0  0  0  0
 21 20  1  0  0  0  0
 24 25  1  0  0  0  0
 24 26  1  0  0  0  0
 27 24  1  0  0  0  0
 28 29  1  0  0  0  0
 28  4  1  0  0  0  0
 30 28  1  0  0  0  0
 31 28  1  0  0  0  0
 32 35  1  0  0  0  0
 32  4  1  0  0  0  0
 33 32  1  0  0  0  0
 34 32  1  0  0  0  0
 36 38  1  0  0  0  0
 36  5  1  0  0  0  0
 37 36  1  0  0  0  0
 39 36  1  0  0  0  0
 40 42  1  0  0  0  0
 40 41  1  0  0  0  0
 43 40  1  0  0  0  0
M  END
$$$$
