CSD_code = AJIHAD | q = 0 | S = 0 | Stoichiometry = C38H34Br2P2Pd | MND = 4
 OpenBabel04212202003D

 77 82  0  0  0  0  0  0  0  0999 V2000
    9.4100    5.2219    4.7058 Pd  0  0  0  0  0  0  0  0  0  0  0  0
    9.4365    7.5765    4.0702 Br  0  0  0  0  0  0  0  0  0  0  0  0
    8.1171    5.6709    6.5123 P   0  0  0  0  0  4  0  0  0  0  0  0
    8.8421    4.8540    7.9619 C   0  0  0  0  0  0  0  0  0  0  0  0
   10.2344    4.9143    8.0231 C   0  0  0  0  0  0  0  0  0  0  0  0
   10.7824    5.4171    7.2204 H   0  0  0  0  0  0  0  0  0  0  0  0
   10.9136    4.3309    9.0705 C   0  0  0  0  0  0  0  0  0  0  0  0
   11.9925    4.3786    9.1101 H   0  0  0  0  0  0  0  0  0  0  0  0
   10.2177    3.6620   10.0740 C   0  0  0  0  0  0  0  0  0  0  0  0
    8.8329    3.5921    9.9959 C   0  0  0  0  0  0  0  0  0  0  0  0
    8.2838    3.0610   10.7604 H   0  0  0  0  0  0  0  0  0  0  0  0
    8.1426    4.1804    8.9509 C   0  0  0  0  0  0  0  0  0  0  0  0
    7.0673    4.0948    8.8971 H   0  0  0  0  0  0  0  0  0  0  0  0
   10.9601    2.9999   11.1927 C   0  0  0  0  0  0  0  0  0  0  0  0
   10.3047    2.8118   12.0394 H   0  0  0  0  0  0  0  0  0  0  0  0
   11.7961    3.6146   11.5203 H   0  0  0  0  0  0  0  0  0  0  0  0
   11.3604    2.0444   10.8531 H   0  0  0  0  0  0  0  0  0  0  0  0
    6.4298    5.0471    6.2680 C   0  0  0  0  0  0  0  0  0  0  0  0
    6.1362    4.4013    5.0713 C   0  0  0  0  0  0  0  0  0  0  0  0
    6.9223    4.2606    4.3241 H   0  0  0  0  0  0  0  0  0  0  0  0
    4.8565    3.9378    4.8266 C   0  0  0  0  0  0  0  0  0  0  0  0
    4.6321    3.4328    3.8986 H   0  0  0  0  0  0  0  0  0  0  0  0
    3.8648    4.1236    5.7750 C   0  0  0  0  0  0  0  0  0  0  0  0
    2.8658    3.7582    5.5890 H   0  0  0  0  0  0  0  0  0  0  0  0
    4.1466    4.7896    6.9582 C   0  0  0  0  0  0  0  0  0  0  0  0
    3.3659    4.9471    7.6882 H   0  0  0  0  0  0  0  0  0  0  0  0
    5.4221    5.2609    7.2046 C   0  0  0  0  0  0  0  0  0  0  0  0
    5.6383    5.8088    8.1120 H   0  0  0  0  0  0  0  0  0  0  0  0
    7.7781    7.3525    7.1165 C   0  0  0  0  0  0  0  0  0  0  0  0
    6.9242    8.1518    6.3603 C   0  0  0  0  0  0  0  0  0  0  0  0
    6.4826    7.7547    5.4552 H   0  0  0  0  0  0  0  0  0  0  0  0
    6.6546    9.4459    6.7580 C   0  0  0  0  0  0  0  0  0  0  0  0
    5.9951   10.0633    6.1670 H   0  0  0  0  0  0  0  0  0  0  0  0
    7.2383    9.9525    7.9086 C   0  0  0  0  0  0  0  0  0  0  0  0
    7.0297   10.9659    8.2182 H   0  0  0  0  0  0  0  0  0  0  0  0
    8.0953    9.1638    8.6569 C   0  0  0  0  0  0  0  0  0  0  0  0
    8.5551    9.5600    9.5506 H   0  0  0  0  0  0  0  0  0  0  0  0
    8.3719    7.8666    8.2625 C   0  0  0  0  0  0  0  0  0  0  0  0
    9.0455    7.2541    8.8465 H   0  0  0  0  0  0  0  0  0  0  0  0
    9.3838    2.8678    5.3415 Br  0  0  0  0  0  0  0  0  0  0  0  0
   10.7026    4.7731    2.8998 P   0  0  0  0  0  4  0  0  0  0  0  0
    9.9779    5.5903    1.4502 C   0  0  0  0  0  0  0  0  0  0  0  0
    8.5856    5.5303    1.3889 C   0  0  0  0  0  0  0  0  0  0  0  0
    8.0374    5.0275    2.1915 H   0  0  0  0  0  0  0  0  0  0  0  0
    7.9066    6.1138    0.3414 C   0  0  0  0  0  0  0  0  0  0  0  0
    6.8277    6.0664    0.3017 H   0  0  0  0  0  0  0  0  0  0  0  0
    8.6027    6.7826   -0.6621 C   0  0  0  0  0  0  0  0  0  0  0  0
    9.9875    6.8521   -0.5839 C   0  0  0  0  0  0  0  0  0  0  0  0
   10.5368    7.3831   -1.3483 H   0  0  0  0  0  0  0  0  0  0  0  0
   10.6776    6.2637    0.4612 C   0  0  0  0  0  0  0  0  0  0  0  0
   11.7529    6.3490    0.5150 H   0  0  0  0  0  0  0  0  0  0  0  0
    7.8605    7.4448   -1.7808 C   0  0  0  0  0  0  0  0  0  0  0  0
    8.5160    7.6328   -2.6274 H   0  0  0  0  0  0  0  0  0  0  0  0
    7.0244    6.8303   -2.1085 H   0  0  0  0  0  0  0  0  0  0  0  0
    7.4603    8.4004   -1.4412 H   0  0  0  0  0  0  0  0  0  0  0  0
   12.3900    5.3965    3.1439 C   0  0  0  0  0  0  0  0  0  0  0  0
   12.6839    6.0424    4.3405 C   0  0  0  0  0  0  0  0  0  0  0  0
   11.8979    6.1832    5.0877 H   0  0  0  0  0  0  0  0  0  0  0  0
   13.9637    6.5057    4.5852 C   0  0  0  0  0  0  0  0  0  0  0  0
   14.1882    7.0106    5.5130 H   0  0  0  0  0  0  0  0  0  0  0  0
   14.9552    6.3196    3.6366 C   0  0  0  0  0  0  0  0  0  0  0  0
   15.9544    6.6849    3.8226 H   0  0  0  0  0  0  0  0  0  0  0  0
   14.6733    5.6536    2.4535 C   0  0  0  0  0  0  0  0  0  0  0  0
   15.4539    5.4960    1.7235 H   0  0  0  0  0  0  0  0  0  0  0  0
   13.3976    5.1826    2.2073 C   0  0  0  0  0  0  0  0  0  0  0  0
   13.1813    4.6346    1.2999 H   0  0  0  0  0  0  0  0  0  0  0  0
   11.0414    3.0915    2.2954 C   0  0  0  0  0  0  0  0  0  0  0  0
   11.8953    2.2921    3.0514 C   0  0  0  0  0  0  0  0  0  0  0  0
   12.3372    2.6892    3.9564 H   0  0  0  0  0  0  0  0  0  0  0  0
   12.1646    0.9980    2.6537 C   0  0  0  0  0  0  0  0  0  0  0  0
   12.8243    0.3805    3.2445 H   0  0  0  0  0  0  0  0  0  0  0  0
   11.5805    0.4913    1.5033 C   0  0  0  0  0  0  0  0  0  0  0  0
   11.7890   -0.5220    1.1936 H   0  0  0  0  0  0  0  0  0  0  0  0
   10.7235    1.2801    0.7552 C   0  0  0  0  0  0  0  0  0  0  0  0
   10.2633    0.8840   -0.1384 H   0  0  0  0  0  0  0  0  0  0  0  0
   10.4472    2.5774    1.1496 C   0  0  0  0  0  0  0  0  0  0  0  0
    9.7734    3.1900    0.5658 H   0  0  0  0  0  0  0  0  0  0  0  0
  1 40  1  0  0  0  0
  1  3  1  0  0  0  0
  2  1  1  0  0  0  0
  3 29  1  0  0  0  0
  3  4  1  0  0  0  0
  4  5  2  0  0  0  0
  4 12  1  0  0  0  0
  5  7  1  0  0  0  0
  6  5  1  0  0  0  0
  7  8  1  0  0  0  0
  7  9  2  0  0  0  0
  9 14  1  0  0  0  0
 10  9  1  0  0  0  0
 10 11  1  0  0  0  0
 12 10  2  0  0  0  0
 13 12  1  0  0  0  0
 14 16  1  0  0  0  0
 14 15  1  0  0  0  0
 17 14  1  0  0  0  0
 18  3  1  0  0  0  0
 18 27  1  0  0  0  0
 19 18  2  0  0  0  0
 20 19  1  0  0  0  0
 21 19  1  0  0  0  0
 21 23  2  0  0  0  0
 22 21  1  0  0  0  0
 23 25  1  0  0  0  0
 24 23  1  0  0  0  0
 25 27  2  0  0  0  0
 25 26  1  0  0  0  0
 27 28  1  0  0  0  0
 29 38  1  0  0  0  0
 30 32  1  0  0  0  0
 30 29  2  0  0  0  0
 31 30  1  0  0  0  0
 32 34  2  0  0  0  0
 33 32  1  0  0  0  0
 34 35  1  0  0  0  0
 34 36  1  0  0  0  0
 36 37  1  0  0  0  0
 38 36  2  0  0  0  0
 38 39  1  0  0  0  0
 41 56  1  0  0  0  0
 41  1  1  0  0  0  0
 42 41  1  0  0  0  0
 43 42  1  0  0  0  0
 43 44  1  0  0  0  0
 45 43  2  0  0  0  0
 46 45  1  0  0  0  0
 47 48  2  0  0  0  0
 47 45  1  0  0  0  0
 48 50  1  0  0  0  0
 49 48  1  0  0  0  0
 50 51  1  0  0  0  0
 50 42  2  0  0  0  0
 52 55  1  0  0  0  0
 52 47  1  0  0  0  0
 53 52  1  0  0  0  0
 54 52  1  0  0  0  0
 56 57  1  0  0  0  0
 57 59  2  0  0  0  0
 57 58  1  0  0  0  0
 59 60  1  0  0  0  0
 61 62  1  0  0  0  0
 61 59  1  0  0  0  0
 63 61  2  0  0  0  0
 64 63  1  0  0  0  0
 65 63  1  0  0  0  0
 65 56  2  0  0  0  0
 66 65  1  0  0  0  0
 67 41  1  0  0  0  0
 67 68  1  0  0  0  0
 68 69  1  0  0  0  0
 70 68  2  0  0  0  0
 70 71  1  0  0  0  0
 72 70  1  0  0  0  0
 73 72  1  0  0  0  0
 74 76  1  0  0  0  0
 74 72  2  0  0  0  0
 75 74  1  0  0  0  0
 76 67  2  0  0  0  0
 77 76  1  0  0  0  0
M  END
$$$$
