CSD_code = AJIHEH | q = 0 | S = 0 | Stoichiometry = C36H24Br2Cl6P2Pd | MND = 4
 OpenBabel04212202003D

 71 76  0  0  0  0  0  0  0  0999 V2000
    3.9437    8.7241    5.1644 Pd  0  0  0  0  0  0  0  0  0  0  0  0
    5.2176    9.6389    7.0285 Br  0  0  0  0  0  0  0  0  0  0  0  0
    4.6295   10.4812    3.9140 P   0  0  0  0  0  4  0  0  0  0  0  0
    6.4337   10.6065    4.0914 C   0  0  0  0  0  0  0  0  0  0  0  0
    7.0974    9.3789    4.1082 C   0  0  0  0  0  0  0  0  0  0  0  0
    6.5165    8.4554    4.0224 H   0  0  0  0  0  0  0  0  0  0  0  0
    8.4677    9.3210    4.2510 C   0  0  0  0  0  0  0  0  0  0  0  0
    8.9853    8.3747    4.2675 H   0  0  0  0  0  0  0  0  0  0  0  0
    9.1775   10.5066    4.3925 C   0  0  0  0  0  0  0  0  0  0  0  0
    8.5281   11.7316    4.4002 C   0  0  0  0  0  0  0  0  0  0  0  0
    9.0949   12.6397    4.5325 H   0  0  0  0  0  0  0  0  0  0  0  0
    7.1535   11.7816    4.2495 C   0  0  0  0  0  0  0  0  0  0  0  0
    6.6449   12.7333    4.2789 H   0  0  0  0  0  0  0  0  0  0  0  0
   10.8912   10.4514    4.5765 Cl  0  0  0  0  0  0  0  0  0  0  0  0
    3.8805   12.0422    4.4558 C   0  0  0  0  0  0  0  0  0  0  0  0
    2.9995   12.0122    5.5327 C   0  0  0  0  0  0  0  0  0  0  0  0
    2.8003   11.0680    6.0435 H   0  0  0  0  0  0  0  0  0  0  0  0
    2.3779   13.1682    5.9645 C   0  0  0  0  0  0  0  0  0  0  0  0
    1.7000   13.1504    6.8032 H   0  0  0  0  0  0  0  0  0  0  0  0
    2.6378   14.3605    5.3052 C   0  0  0  0  0  0  0  0  0  0  0  0
    3.4937   14.4010    4.2117 C   0  0  0  0  0  0  0  0  0  0  0  0
    3.6698   15.3350    3.7013 H   0  0  0  0  0  0  0  0  0  0  0  0
    4.1072   13.2407    3.7832 C   0  0  0  0  0  0  0  0  0  0  0  0
    4.7517   13.2585    2.9152 H   0  0  0  0  0  0  0  0  0  0  0  0
    1.8747   15.8124    5.8368 Cl  0  0  0  0  0  0  0  0  0  0  0  0
    4.3850   10.5809    2.1156 C   0  0  0  0  0  0  0  0  0  0  0  0
    3.0877   10.7958    1.6541 C   0  0  0  0  0  0  0  0  0  0  0  0
    2.2799   10.9147    2.3642 H   0  0  0  0  0  0  0  0  0  0  0  0
    2.8262   10.8445    0.3009 C   0  0  0  0  0  0  0  0  0  0  0  0
    1.8226   11.0059   -0.0591 H   0  0  0  0  0  0  0  0  0  0  0  0
    3.8698   10.6708   -0.5979 C   0  0  0  0  0  0  0  0  0  0  0  0
    5.1633   10.4444   -0.1530 C   0  0  0  0  0  0  0  0  0  0  0  0
    5.9622   10.3045   -0.8643 H   0  0  0  0  0  0  0  0  0  0  0  0
    5.4182   10.3936    1.2050 C   0  0  0  0  0  0  0  0  0  0  0  0
    6.4251   10.2114    1.5534 H   0  0  0  0  0  0  0  0  0  0  0  0
    3.5532   10.7348   -2.2912 Cl  0  0  0  0  0  0  0  0  0  0  0  0
    2.6692    7.8097    3.3002 Br  0  0  0  0  0  0  0  0  0  0  0  0
    3.2574    6.9673    6.4149 P   0  0  0  0  0  4  0  0  0  0  0  0
    1.4532    6.8420    6.2379 C   0  0  0  0  0  0  0  0  0  0  0  0
    0.7895    8.0695    6.2206 C   0  0  0  0  0  0  0  0  0  0  0  0
    1.3704    8.9930    6.3057 H   0  0  0  0  0  0  0  0  0  0  0  0
   -0.5809    8.1274    6.0782 C   0  0  0  0  0  0  0  0  0  0  0  0
   -1.0984    9.0736    6.0613 H   0  0  0  0  0  0  0  0  0  0  0  0
   -1.2907    6.9418    5.9377 C   0  0  0  0  0  0  0  0  0  0  0  0
   -0.6414    5.7167    5.9305 C   0  0  0  0  0  0  0  0  0  0  0  0
   -1.2083    4.8085    5.7990 H   0  0  0  0  0  0  0  0  0  0  0  0
    0.7332    5.6667    6.0807 C   0  0  0  0  0  0  0  0  0  0  0  0
    1.2417    4.7150    6.0518 H   0  0  0  0  0  0  0  0  0  0  0  0
   -3.0046    6.9969    5.7542 Cl  0  0  0  0  0  0  0  0  0  0  0  0
    4.0064    5.4061    5.8737 C   0  0  0  0  0  0  0  0  0  0  0  0
    4.8873    5.4358    4.7968 C   0  0  0  0  0  0  0  0  0  0  0  0
    5.0862    6.3797    4.2854 H   0  0  0  0  0  0  0  0  0  0  0  0
    5.5092    4.2797    4.3656 C   0  0  0  0  0  0  0  0  0  0  0  0
    6.1872    4.2971    3.5269 H   0  0  0  0  0  0  0  0  0  0  0  0
    5.2497    3.0877    5.0257 C   0  0  0  0  0  0  0  0  0  0  0  0
    4.3938    3.0476    6.1192 C   0  0  0  0  0  0  0  0  0  0  0  0
    4.2181    2.1139    6.6302 H   0  0  0  0  0  0  0  0  0  0  0  0
    3.7800    4.2080    6.5470 C   0  0  0  0  0  0  0  0  0  0  0  0
    3.1356    4.1905    7.4151 H   0  0  0  0  0  0  0  0  0  0  0  0
    6.0133    1.6356    4.4950 Cl  0  0  0  0  0  0  0  0  0  0  0  0
    3.5023    6.8684    8.2132 C   0  0  0  0  0  0  0  0  0  0  0  0
    4.7999    6.6541    8.6743 C   0  0  0  0  0  0  0  0  0  0  0  0
    5.6075    6.5353    7.9640 H   0  0  0  0  0  0  0  0  0  0  0  0
    5.0620    6.6062   10.0275 C   0  0  0  0  0  0  0  0  0  0  0  0
    6.0657    6.4454   10.3871 H   0  0  0  0  0  0  0  0  0  0  0  0
    4.0186    6.7799   10.9265 C   0  0  0  0  0  0  0  0  0  0  0  0
    2.7249    7.0057   10.4821 C   0  0  0  0  0  0  0  0  0  0  0  0
    1.9262    7.1457   11.1936 H   0  0  0  0  0  0  0  0  0  0  0  0
    2.4695    7.0558    9.1241 C   0  0  0  0  0  0  0  0  0  0  0  0
    1.4623    7.2377    8.7759 H   0  0  0  0  0  0  0  0  0  0  0  0
    4.3358    6.7167   12.6198 Cl  0  0  0  0  0  0  0  0  0  0  0  0
  1 38  1  0  0  0  0
  1  2  1  0  0  0  0
  3  4  1  0  0  0  0
  3 15  1  0  0  0  0
  3  1  1  0  0  0  0
  4  5  2  0  0  0  0
  4 12  1  0  0  0  0
  5  7  1  0  0  0  0
  6  5  1  0  0  0  0
  7  8  1  0  0  0  0
  7  9  2  0  0  0  0
  9 10  1  0  0  0  0
  9 14  1  0  0  0  0
 10 11  1  0  0  0  0
 12 13  1  0  0  0  0
 12 10  2  0  0  0  0
 15 16  1  0  0  0  0
 16 18  2  0  0  0  0
 16 17  1  0  0  0  0
 18 19  1  0  0  0  0
 20 25  1  0  0  0  0
 20 18  1  0  0  0  0
 21 20  2  0  0  0  0
 22 21  1  0  0  0  0
 23 21  1  0  0  0  0
 23 15  2  0  0  0  0
 24 23  1  0  0  0  0
 26  3  1  0  0  0  0
 27 26  1  0  0  0  0
 27 28  1  0  0  0  0
 29 27  2  0  0  0  0
 30 29  1  0  0  0  0
 31 32  2  0  0  0  0
 31 29  1  0  0  0  0
 32 34  1  0  0  0  0
 33 32  1  0  0  0  0
 34 35  1  0  0  0  0
 34 26  2  0  0  0  0
 36 31  1  0  0  0  0
 37  1  1  0  0  0  0
 38 61  1  0  0  0  0
 39 38  1  0  0  0  0
 40 39  1  0  0  0  0
 40 41  1  0  0  0  0
 42 40  2  0  0  0  0
 43 42  1  0  0  0  0
 44 42  1  0  0  0  0
 45 44  2  0  0  0  0
 45 47  1  0  0  0  0
 46 45  1  0  0  0  0
 47 39  2  0  0  0  0
 48 47  1  0  0  0  0
 49 44  1  0  0  0  0
 50 38  1  0  0  0  0
 50 58  1  0  0  0  0
 51 50  2  0  0  0  0
 52 51  1  0  0  0  0
 53 51  1  0  0  0  0
 53 55  2  0  0  0  0
 54 53  1  0  0  0  0
 55 56  1  0  0  0  0
 56 58  2  0  0  0  0
 56 57  1  0  0  0  0
 58 59  1  0  0  0  0
 60 55  1  0  0  0  0
 61 62  2  0  0  0  0
 61 69  1  0  0  0  0
 62 64  1  0  0  0  0
 63 62  1  0  0  0  0
 64 65  1  0  0  0  0
 64 66  2  0  0  0  0
 66 71  1  0  0  0  0
 67 66  1  0  0  0  0
 67 68  1  0  0  0  0
 69 67  2  0  0  0  0
 70 69  1  0  0  0  0
M  END
$$$$
