CSD_code = AJIMOV | q = 0 | S = 0 | Stoichiometry = C21H22BF10FeIO3P2 | MND = 6
 OpenBabel04212202003D

 61 62  0  0  1  0  0  0  0  0999 V2000
    0.0447   15.3077   13.7703 I   0  0  0  0  0  0  0  0  0  0  0  0
    2.3086   14.1712   13.8740 Fe  0  0  0  0  0  0  0  0  0  0  0  0
    3.2641   16.1678   13.7967 P   0  0  0  0  0  4  0  0  0  0  0  0
    1.2595   12.2278   13.9038 P   0  0  0  0  0  4  0  0  0  0  0  0
    2.5979   17.5230   14.8299 C   0  0  0  0  0  0  0  0  0  0  0  0
    2.4284   17.1843   15.8488 H   0  0  0  0  0  0  0  0  0  0  0  0
    1.6466   17.8572   14.4188 H   0  0  0  0  0  0  0  0  0  0  0  0
    3.3066   18.3515   14.8347 H   0  0  0  0  0  0  0  0  0  0  0  0
    5.0474   16.2843   14.2229 C   0  0  0  0  0  0  0  0  0  0  0  0
    5.2014   15.9503   15.2485 H   0  0  0  0  0  0  0  0  0  0  0  0
    5.3805   17.3178   14.1264 H   0  0  0  0  0  0  0  0  0  0  0  0
    5.6381   15.6553   13.5607 H   0  0  0  0  0  0  0  0  0  0  0  0
    3.2494   16.9580   12.1500 C   0  0  0  0  0  0  0  0  0  0  0  0
    3.8110   16.3533   11.4394 H   0  0  0  0  0  0  0  0  0  0  0  0
    3.6917   17.9524   12.2130 H   0  0  0  0  0  0  0  0  0  0  0  0
    2.2194   17.0423   11.8043 H   0  0  0  0  0  0  0  0  0  0  0  0
    0.2768   11.8792   15.4083 C   0  0  0  0  0  0  0  0  0  0  0  0
   -0.4491   12.6776   15.5614 H   0  0  0  0  0  0  0  0  0  0  0  0
    0.9347   11.8183   16.2738 H   0  0  0  0  0  0  0  0  0  0  0  0
   -0.2493   10.9327   15.2827 H   0  0  0  0  0  0  0  0  0  0  0  0
    2.2710   10.7052   13.7663 C   0  0  0  0  0  0  0  0  0  0  0  0
    2.6507   10.6233   12.7484 H   0  0  0  0  0  0  0  0  0  0  0  0
    1.6559    9.8321   13.9849 H   0  0  0  0  0  0  0  0  0  0  0  0
    3.1134   10.7365   14.4518 H   0  0  0  0  0  0  0  0  0  0  0  0
    0.0314   11.8869   12.5935 C   0  0  0  0  0  0  0  0  0  0  0  0
    0.4878   12.0271   11.6145 H   0  0  0  0  0  0  0  0  0  0  0  0
   -0.8170   12.5624   12.6851 H   0  0  0  0  0  0  0  0  0  0  0  0
   -0.3118   10.8559   12.6858 H   0  0  0  0  0  0  0  0  0  0  0  0
    2.3960   14.0145   12.1554 C   0  0  0  0  0  2  0  0  0  0  0  0
    3.9588   13.3968   14.1261 C   0  0  1  0  0  3  0  0  0  0  0  0
    4.8983   12.9445   13.0578 C   0  0  0  0  0  0  0  0  0  0  0  0
    5.0496   13.7383   12.3301 H   0  0  0  0  0  0  0  0  0  0  0  0
    4.4519   12.1079   12.5256 H   0  0  0  0  0  0  0  0  0  0  0  0
    5.8502   12.6312   13.4836 H   0  0  0  0  0  0  0  0  0  0  0  0
    3.5926   13.5947   16.4978 B   0  0  0  0  0  0  0  0  0  0  0  0
    3.3029   12.2541   17.4244 C   0  0  0  0  0  0  0  0  0  0  0  0
    2.4529   12.3524   18.5209 C   0  0  0  0  0  0  0  0  0  0  0  0
    2.2096   11.3003   19.3945 C   0  0  0  0  0  0  0  0  0  0  0  0
    2.8426   10.0804   19.1791 C   0  0  0  0  0  0  0  0  0  0  0  0
    3.6992    9.9431   18.0938 C   0  0  0  0  0  0  0  0  0  0  0  0
    3.9184   11.0226   17.2414 C   0  0  0  0  0  0  0  0  0  0  0  0
    4.4907   14.5962   17.4575 C   0  0  0  0  0  0  0  0  0  0  0  0
    5.8182   14.2823   17.7316 C   0  0  0  0  0  0  0  0  0  0  0  0
    6.6239   15.0677   18.5492 C   0  0  0  0  0  0  0  0  0  0  0  0
    6.0987   16.2141   19.1361 C   0  0  0  0  0  0  0  0  0  0  0  0
    4.7711   16.5490   18.8994 C   0  0  0  0  0  0  0  0  0  0  0  0
    3.9974   15.7376   18.0760 C   0  0  0  0  0  0  0  0  0  0  0  0
    2.4493   13.8753   11.0183 O   0  0  0  0  0  1  0  0  0  0  0  0
    2.3804   14.1925   15.9371 O   0  0  0  0  0  0  0  0  0  0  0  0
    1.7718   14.5625   16.5850 H   0  0  0  0  0  0  0  0  0  0  0  0
    4.4041   13.2301   15.3048 O   0  0  0  0  0  0  0  0  0  0  0  0
    1.8219   13.5189   18.7428 F   0  0  0  0  0  0  0  0  0  0  0  0
    1.3778   11.4516   20.4285 F   0  0  0  0  0  0  0  0  0  0  0  0
    2.6241    9.0529   20.0010 F   0  0  0  0  0  0  0  0  0  0  0  0
    4.3032    8.7728   17.8651 F   0  0  0  0  0  0  0  0  0  0  0  0
    4.7377   10.8226   16.2019 F   0  0  0  0  0  0  0  0  0  0  0  0
    6.3603   13.1811   17.1983 F   0  0  0  0  0  0  0  0  0  0  0  0
    7.8970   14.7282   18.7726 F   0  0  0  0  0  0  0  0  0  0  0  0
    6.8601   16.9822   19.9169 F   0  0  0  0  0  0  0  0  0  0  0  0
    4.2462   17.6461   19.4521 F   0  0  0  0  0  0  0  0  0  0  0  0
    2.7195   16.1001   17.8747 F   0  0  0  0  0  0  0  0  0  0  0  0
  1  2  1  0  0  0  0
  2  4  1  0  0  0  0
  2 30  1  0  0  0  0
  3  2  1  0  0  0  0
  3  9  1  0  0  0  0
  3  5  1  0  0  0  0
  4 17  1  0  0  0  0
  5  8  1  0  0  0  0
  5  6  1  0  0  0  0
  7  5  1  0  0  0  0
  9 10  1  0  0  0  0
 11  9  1  0  0  0  0
 12  9  1  0  0  0  0
 13 15  1  0  0  0  0
 13  3  1  0  0  0  0
 14 13  1  0  0  0  0
 16 13  1  0  0  0  0
 17 18  1  0  0  0  0
 17 19  1  0  0  0  0
 20 17  1  0  0  0  0
 21  4  1  0  0  0  0
 21 23  1  0  0  0  0
 21 24  1  0  0  0  0
 22 21  1  0  0  0  0
 25 27  1  0  0  0  0
 25 28  1  0  0  0  0
 25  4  1  0  0  0  0
 26 25  1  0  0  0  0
 29  2  1  0  0  0  0
 30 51  1  6  0  0  0
 31 34  1  0  0  0  0
 31 30  1  0  0  0  0
 32 31  1  0  0  0  0
 33 31  1  0  0  0  0
 35 36  1  0  0  0  0
 35 42  1  0  0  0  0
 36 37  1  0  0  0  0
 37 52  1  0  0  0  0
 37 38  2  0  0  0  0
 38 53  1  0  0  0  0
 39 38  1  0  0  0  0
 39 54  1  0  0  0  0
 40 39  2  0  0  0  0
 41 36  2  0  0  0  0
 41 40  1  0  0  0  0
 42 43  2  0  0  0  0
 42 47  1  0  0  0  0
 43 44  1  0  0  0  0
 44 58  1  0  0  0  0
 44 45  2  0  0  0  0
 45 59  1  0  0  0  0
 46 45  1  0  0  0  0
 46 60  1  0  0  0  0
 47 46  2  0  0  0  0
 48 29  1  0  0  0  0
 49 35  1  0  0  0  0
 49 50  1  0  0  0  0
 51 35  1  0  0  0  0
 55 40  1  0  0  0  0
 56 41  1  0  0  0  0
 57 43  1  0  0  0  0
 61 47  1  0  0  0  0
M  END
$$$$
