CSD_code = AJIPUE | q = 0 | S = 0 | Stoichiometry = C41H39BrCuP3 | MND = 4
 OpenBabel04212202003D

 85 92  0  0  1  0  0  0  0  0999 V2000
    8.3934    0.6138   10.8430 Cu  0  0  1  0  0  0  0  0  0  0  0  0
    7.7354   -0.3071   12.7990 Br  0  0  0  0  0  0  0  0  0  0  0  0
   11.5455    1.6456    8.7090 C   0  0  0  0  0  0  0  0  0  0  0  0
   12.3963    2.3275    8.8011 H   0  0  0  0  0  0  0  0  0  0  0  0
   11.8781    0.7370    8.1939 H   0  0  0  0  0  0  0  0  0  0  0  0
    9.4198    1.2352    7.4279 C   0  0  0  0  0  0  0  0  0  0  0  0
    9.8336    0.6765    6.5804 H   0  0  0  0  0  0  0  0  0  0  0  0
    8.5047    1.7408    7.0925 H   0  0  0  0  0  0  0  0  0  0  0  0
    9.7368    3.3935    8.7071 C   0  0  0  0  0  0  0  0  0  0  0  0
    9.2125    4.0825    8.0359 H   0  0  0  0  0  0  0  0  0  0  0  0
   10.5045    3.9507    9.2558 H   0  0  0  0  0  0  0  0  0  0  0  0
   10.4247    2.2924    7.8931 C   0  0  1  0  0  0  0  0  0  0  0  0
   11.0441    2.9414    6.6461 C   0  0  0  0  0  0  0  0  0  0  0  0
   11.6928    3.7694    6.9279 H   0  0  0  0  0  0  0  0  0  0  0  0
   10.2680    3.3253    5.9855 H   0  0  0  0  0  0  0  0  0  0  0  0
   11.6388    2.2175    6.0909 H   0  0  0  0  0  0  0  0  0  0  0  0
   10.9600    1.1082   10.3714 P   0  0  0  0  0  4  0  0  0  0  0  0
    8.8642    0.0100    8.6926 P   0  0  0  0  0  4  0  0  0  0  0  0
    8.5338    2.7810    9.9705 P   0  0  0  0  0  4  0  0  0  0  0  0
   11.2914    2.5547   11.4549 C   0  0  0  0  0  0  0  0  0  0  0  0
   10.4170    2.7385   12.5221 C   0  0  0  0  0  0  0  0  0  0  0  0
    9.5923    2.0490   12.6635 H   0  0  0  0  0  0  0  0  0  0  0  0
   10.5958    3.7833   13.4098 C   0  0  0  0  0  0  0  0  0  0  0  0
    9.9073    3.9130   14.2310 H   0  0  0  0  0  0  0  0  0  0  0  0
   11.6497    4.6621   13.2326 C   0  0  0  0  0  0  0  0  0  0  0  0
   11.7860    5.4901   13.9123 H   0  0  0  0  0  0  0  0  0  0  0  0
   12.5407    4.4705   12.1886 C   0  0  0  0  0  0  0  0  0  0  0  0
   13.3776    5.1429   12.0621 H   0  0  0  0  0  0  0  0  0  0  0  0
   12.3732    3.4163   11.3099 C   0  0  0  0  0  0  0  0  0  0  0  0
   13.0968    3.2654   10.5200 H   0  0  0  0  0  0  0  0  0  0  0  0
   12.3711    0.1026   10.9545 C   0  0  0  0  0  0  0  0  0  0  0  0
   13.4944   -0.2679   10.2279 C   0  0  0  0  0  0  0  0  0  0  0  0
   13.6512    0.0877    9.2202 H   0  0  0  0  0  0  0  0  0  0  0  0
   14.4359   -1.1082   10.7972 C   0  0  0  0  0  0  0  0  0  0  0  0
   15.3086   -1.3927   10.2264 H   0  0  0  0  0  0  0  0  0  0  0  0
   14.2658   -1.5859   12.0846 C   0  0  0  0  0  0  0  0  0  0  0  0
   15.0039   -2.2447   12.5179 H   0  0  0  0  0  0  0  0  0  0  0  0
   13.1450   -1.2211   12.8146 C   0  0  0  0  0  0  0  0  0  0  0  0
   13.0028   -1.5947   13.8176 H   0  0  0  0  0  0  0  0  0  0  0  0
   12.2023   -0.3870   12.2499 C   0  0  0  0  0  0  0  0  0  0  0  0
   11.3148   -0.1113   12.8071 H   0  0  0  0  0  0  0  0  0  0  0  0
   10.1170   -1.3218    8.6551 C   0  0  0  0  0  0  0  0  0  0  0  0
   10.3795   -1.9470    9.8703 C   0  0  0  0  0  0  0  0  0  0  0  0
    9.8572   -1.6165   10.7622 H   0  0  0  0  0  0  0  0  0  0  0  0
   11.2903   -2.9840    9.9451 C   0  0  0  0  0  0  0  0  0  0  0  0
   11.4887   -3.4575   10.8946 H   0  0  0  0  0  0  0  0  0  0  0  0
   11.9516   -3.3992    8.8023 C   0  0  0  0  0  0  0  0  0  0  0  0
   12.6761   -4.1980    8.8562 H   0  0  0  0  0  0  0  0  0  0  0  0
   11.6758   -2.7981    7.5842 C   0  0  0  0  0  0  0  0  0  0  0  0
   12.1781   -3.1363    6.6888 H   0  0  0  0  0  0  0  0  0  0  0  0
   10.7540   -1.7708    7.5039 C   0  0  0  0  0  0  0  0  0  0  0  0
   10.5287   -1.3303    6.5415 H   0  0  0  0  0  0  0  0  0  0  0  0
    7.5729   -0.8763    7.7431 C   0  0  0  0  0  0  0  0  0  0  0  0
    7.1098   -0.6061    6.4622 C   0  0  0  0  0  0  0  0  0  0  0  0
    7.5482    0.1771    5.8612 H   0  0  0  0  0  0  0  0  0  0  0  0
    6.0671   -1.3504    5.9363 C   0  0  0  0  0  0  0  0  0  0  0  0
    5.7119   -1.1356    4.9383 H   0  0  0  0  0  0  0  0  0  0  0  0
    5.4778   -2.3598    6.6770 C   0  0  0  0  0  0  0  0  0  0  0  0
    4.6630   -2.9316    6.2580 H   0  0  0  0  0  0  0  0  0  0  0  0
    5.9302   -2.6307    7.9595 C   0  0  0  0  0  0  0  0  0  0  0  0
    5.4696   -3.4114    8.5462 H   0  0  0  0  0  0  0  0  0  0  0  0
    6.9652   -1.8878    8.4881 C   0  0  0  0  0  0  0  0  0  0  0  0
    7.3169   -2.0770    9.4971 H   0  0  0  0  0  0  0  0  0  0  0  0
    6.9619    2.8408    9.0211 C   0  0  0  0  0  0  0  0  0  0  0  0
    6.5818    3.9640    8.2915 C   0  0  0  0  0  0  0  0  0  0  0  0
    7.2025    4.8508    8.2964 H   0  0  0  0  0  0  0  0  0  0  0  0
    5.3993    3.9598    7.5768 C   0  0  0  0  0  0  0  0  0  0  0  0
    5.1131    4.8339    7.0096 H   0  0  0  0  0  0  0  0  0  0  0  0
    4.5781    2.8425    7.5903 C   0  0  0  0  0  0  0  0  0  0  0  0
    3.6597    2.8416    7.0223 H   0  0  0  0  0  0  0  0  0  0  0  0
    4.9271    1.7385    8.3481 C   0  0  0  0  0  0  0  0  0  0  0  0
    4.2829    0.8727    8.3836 H   0  0  0  0  0  0  0  0  0  0  0  0
    6.1100    1.7432    9.0656 C   0  0  0  0  0  0  0  0  0  0  0  0
    6.3688    0.8868    9.6808 H   0  0  0  0  0  0  0  0  0  0  0  0
    8.2434    4.2746   10.9764 C   0  0  0  0  0  0  0  0  0  0  0  0
    8.8946    5.4977   10.8921 C   0  0  0  0  0  0  0  0  0  0  0  0
    9.6354    5.6867   10.1289 H   0  0  0  0  0  0  0  0  0  0  0  0
    8.5947    6.4987   11.8002 C   0  0  0  0  0  0  0  0  0  0  0  0
    9.1047    7.4490   11.7309 H   0  0  0  0  0  0  0  0  0  0  0  0
    7.6535    6.2902   12.7930 C   0  0  0  0  0  0  0  0  0  0  0  0
    7.4313    7.0764   13.4993 H   0  0  0  0  0  0  0  0  0  0  0  0
    7.0011    5.0701   12.8835 C   0  0  0  0  0  0  0  0  0  0  0  0
    6.2705    4.8990   13.6600 H   0  0  0  0  0  0  0  0  0  0  0  0
    7.3006    4.0684   11.9839 C   0  0  0  0  0  0  0  0  0  0  0  0
    6.8128    3.1022   12.0551 H   0  0  0  0  0  0  0  0  0  0  0  0
  1  2  1  1  0  0  0
  3  4  1  0  0  0  0
  3 17  1  0  0  0  0
  5  3  1  0  0  0  0
  6 12  1  0  0  0  0
  6 18  1  0  0  0  0
  7  6  1  0  0  0  0
  8  6  1  0  0  0  0
  9 11  1  0  0  0  0
  9 19  1  0  0  0  0
 10  9  1  0  0  0  0
 12 13  1  6  0  0  0
 12  9  1  0  0  0  0
 12  3  1  0  0  0  0
 13 14  1  0  0  0  0
 15 13  1  0  0  0  0
 16 13  1  0  0  0  0
 17  1  1  0  0  0  0
 17 31  1  0  0  0  0
 17 20  1  0  0  0  0
 18  1  1  0  0  0  0
 19  1  1  0  0  0  0
 19 75  1  0  0  0  0
 20 21  1  0  0  0  0
 21 22  1  0  0  0  0
 21 23  2  0  0  0  0
 23 24  1  0  0  0  0
 25 23  1  0  0  0  0
 25 26  1  0  0  0  0
 27 25  2  0  0  0  0
 28 27  1  0  0  0  0
 29 20  2  0  0  0  0
 29 27  1  0  0  0  0
 30 29  1  0  0  0  0
 31 40  1  0  0  0  0
 32 34  1  0  0  0  0
 32 31  2  0  0  0  0
 33 32  1  0  0  0  0
 34 36  2  0  0  0  0
 35 34  1  0  0  0  0
 36 37  1  0  0  0  0
 36 38  1  0  0  0  0
 38 39  1  0  0  0  0
 40 41  1  0  0  0  0
 40 38  2  0  0  0  0
 42 18  1  0  0  0  0
 42 43  1  0  0  0  0
 43 45  2  0  0  0  0
 43 44  1  0  0  0  0
 45 46  1  0  0  0  0
 47 48  1  0  0  0  0
 47 45  1  0  0  0  0
 49 47  2  0  0  0  0
 50 49  1  0  0  0  0
 51 49  1  0  0  0  0
 51 42  2  0  0  0  0
 52 51  1  0  0  0  0
 53 62  1  0  0  0  0
 53 18  1  0  0  0  0
 54 53  2  0  0  0  0
 55 54  1  0  0  0  0
 56 54  1  0  0  0  0
 56 58  2  0  0  0  0
 57 56  1  0  0  0  0
 58 60  1  0  0  0  0
 59 58  1  0  0  0  0
 60 62  2  0  0  0  0
 60 61  1  0  0  0  0
 62 63  1  0  0  0  0
 64 73  1  0  0  0  0
 64 19  1  0  0  0  0
 65 66  1  0  0  0  0
 65 64  2  0  0  0  0
 67 69  2  0  0  0  0
 67 65  1  0  0  0  0
 68 67  1  0  0  0  0
 69 71  1  0  0  0  0
 70 69  1  0  0  0  0
 71 72  1  0  0  0  0
 71 73  2  0  0  0  0
 73 74  1  0  0  0  0
 75 84  1  0  0  0  0
 76 75  2  0  0  0  0
 76 78  1  0  0  0  0
 77 76  1  0  0  0  0
 78 80  2  0  0  0  0
 79 78  1  0  0  0  0
 80 82  1  0  0  0  0
 80 81  1  0  0  0  0
 82 83  1  0  0  0  0
 84 85  1  0  0  0  0
 84 82  2  0  0  0  0
M  END
$$$$
