CSD_code = AJIQAL | q = 0 | S = 0 | Stoichiometry = C42H42BrCuNP3 | MND = 4
 OpenBabel04212202003D

 90 97  0  0  1  0  0  0  0  0999 V2000
    4.7904    4.7038    5.5169 C   0  0  0  0  0  0  0  0  0  0  0  0
    5.5205    4.7982    6.3240 H   0  0  0  0  0  0  0  0  0  0  0  0
    4.2180    5.6480    5.4742 H   0  0  0  0  0  0  0  0  0  0  0  0
    5.5463    4.4845    4.2121 C   0  0  0  0  0  0  0  0  0  0  0  0
    6.2366    5.3115    4.0269 H   0  0  0  0  0  0  0  0  0  0  0  0
    4.8541    4.4197    3.3663 H   0  0  0  0  0  0  0  0  0  0  0  0
    2.6638    3.6673    5.0795 C   0  0  0  0  0  0  0  0  0  0  0  0
    2.8772    4.0979    4.0985 H   0  0  0  0  0  0  0  0  0  0  0  0
    1.9499    4.3392    5.5894 H   0  0  0  0  0  0  0  0  0  0  0  0
    2.0399    2.2926    4.8725 C   0  0  0  0  0  0  0  0  0  0  0  0
    1.1312    2.3722    4.2702 H   0  0  0  0  0  0  0  0  0  0  0  0
    1.7764    1.8354    5.8318 H   0  0  0  0  0  0  0  0  0  0  0  0
    3.6730    3.4716    7.2551 C   0  0  0  0  0  0  0  0  0  0  0  0
    2.7667    2.8808    7.4061 H   0  0  0  0  0  0  0  0  0  0  0  0
    3.4989    4.4675    7.7009 H   0  0  0  0  0  0  0  0  0  0  0  0
    4.8253    2.7693    7.9629 C   0  0  0  0  0  0  0  0  0  0  0  0
    4.6055    2.6496    9.0269 H   0  0  0  0  0  0  0  0  0  0  0  0
    5.7508    3.3462    7.8669 H   0  0  0  0  0  0  0  0  0  0  0  0
    7.4732    2.9232    2.7928 C   0  0  0  0  0  0  0  0  0  0  0  0
    8.4018    1.8915    2.6602 C   0  0  0  0  0  0  0  0  0  0  0  0
    8.4897    1.1454    3.4377 H   0  0  0  0  0  0  0  0  0  0  0  0
    9.1966    1.8054    1.5343 C   0  0  0  0  0  0  0  0  0  0  0  0
    9.9082    0.9990    1.4419 H   0  0  0  0  0  0  0  0  0  0  0  0
    9.0683    2.7445    0.5233 C   0  0  0  0  0  0  0  0  0  0  0  0
    9.6869    2.6796   -0.3597 H   0  0  0  0  0  0  0  0  0  0  0  0
    8.1355    3.7607    0.6417 C   0  0  0  0  0  0  0  0  0  0  0  0
    8.0245    4.4882   -0.1500 H   0  0  0  0  0  0  0  0  0  0  0  0
    7.3334    3.8501    1.7659 C   0  0  0  0  0  0  0  0  0  0  0  0
    6.5995    4.6399    1.8265 H   0  0  0  0  0  0  0  0  0  0  0  0
    7.7137    3.1283    5.5529 C   0  0  0  0  0  0  0  0  0  0  0  0
    8.2329    1.9848    6.1559 C   0  0  0  0  0  0  0  0  0  0  0  0
    7.8717    1.0082    5.8589 H   0  0  0  0  0  0  0  0  0  0  0  0
    9.2143    2.0793    7.1253 C   0  0  0  0  0  0  0  0  0  0  0  0
    9.6084    1.1816    7.5775 H   0  0  0  0  0  0  0  0  0  0  0  0
    9.6769    3.3238    7.5168 C   0  0  0  0  0  0  0  0  0  0  0  0
   10.4345    3.4057    8.2821 H   0  0  0  0  0  0  0  0  0  0  0  0
    9.1704    4.4668    6.9191 C   0  0  0  0  0  0  0  0  0  0  0  0
    9.5376    5.4394    7.2158 H   0  0  0  0  0  0  0  0  0  0  0  0
    8.2007    4.3738    5.9370 C   0  0  0  0  0  0  0  0  0  0  0  0
    7.8347    5.2778    5.4715 H   0  0  0  0  0  0  0  0  0  0  0  0
    3.4962    1.8699    2.4159 C   0  0  0  0  0  0  0  0  0  0  0  0
    4.6780    1.5413    1.7555 C   0  0  0  0  0  0  0  0  0  0  0  0
    5.4034    0.8981    2.2380 H   0  0  0  0  0  0  0  0  0  0  0  0
    4.9341    2.0185    0.4834 C   0  0  0  0  0  0  0  0  0  0  0  0
    5.8535    1.7492   -0.0145 H   0  0  0  0  0  0  0  0  0  0  0  0
    4.0155    2.8464   -0.1385 C   0  0  0  0  0  0  0  0  0  0  0  0
    4.2147    3.2329   -1.1272 H   0  0  0  0  0  0  0  0  0  0  0  0
    2.8341    3.1736    0.5076 C   0  0  0  0  0  0  0  0  0  0  0  0
    2.1102    3.8110    0.0194 H   0  0  0  0  0  0  0  0  0  0  0  0
    2.5684    2.6840    1.7737 C   0  0  0  0  0  0  0  0  0  0  0  0
    1.6321    2.9369    2.2503 H   0  0  0  0  0  0  0  0  0  0  0  0
    2.2752   -0.2884    3.6692 C   0  0  0  0  0  0  0  0  0  0  0  0
    2.9060   -1.2577    2.8902 C   0  0  0  0  0  0  0  0  0  0  0  0
    3.9170   -1.0932    2.5439 H   0  0  0  0  0  0  0  0  0  0  0  0
    2.2557   -2.4339    2.5740 C   0  0  0  0  0  0  0  0  0  0  0  0
    2.7571   -3.1783    1.9742 H   0  0  0  0  0  0  0  0  0  0  0  0
    0.9698   -2.6601    3.0386 C   0  0  0  0  0  0  0  0  0  0  0  0
    0.4585   -3.5799    2.7951 H   0  0  0  0  0  0  0  0  0  0  0  0
    0.3452   -1.7089    3.8271 C   0  0  0  0  0  0  0  0  0  0  0  0
   -0.6532   -1.8869    4.2011 H   0  0  0  0  0  0  0  0  0  0  0  0
    0.9933   -0.5297    4.1506 C   0  0  0  0  0  0  0  0  0  0  0  0
    0.4934    0.1883    4.7837 H   0  0  0  0  0  0  0  0  0  0  0  0
    6.3203    0.3563    8.2883 C   0  0  0  0  0  0  0  0  0  0  0  0
    7.0082    1.0242    9.2953 C   0  0  0  0  0  0  0  0  0  0  0  0
    6.8326    2.0725    9.4866 H   0  0  0  0  0  0  0  0  0  0  0  0
    7.9400    0.3462   10.0614 C   0  0  0  0  0  0  0  0  0  0  0  0
    8.4670    0.8712   10.8458 H   0  0  0  0  0  0  0  0  0  0  0  0
    8.2052   -0.9916    9.8234 C   0  0  0  0  0  0  0  0  0  0  0  0
    8.9374   -1.5121   10.4232 H   0  0  0  0  0  0  0  0  0  0  0  0
    7.5382   -1.6563    8.8066 C   0  0  0  0  0  0  0  0  0  0  0  0
    7.7523   -2.6944    8.6021 H   0  0  0  0  0  0  0  0  0  0  0  0
    6.6048   -0.9861    8.0410 C   0  0  0  0  0  0  0  0  0  0  0  0
    6.1014   -1.5017    7.2349 H   0  0  0  0  0  0  0  0  0  0  0  0
    3.6502    0.1672    7.5400 C   0  0  0  0  0  0  0  0  0  0  0  0
    2.7972    0.4243    8.6088 C   0  0  0  0  0  0  0  0  0  0  0  0
    2.9972    1.2373    9.2921 H   0  0  0  0  0  0  0  0  0  0  0  0
    1.6827   -0.3691    8.8133 C   0  0  0  0  0  0  0  0  0  0  0  0
    1.0218   -0.1574    9.6422 H   0  0  0  0  0  0  0  0  0  0  0  0
    1.4140   -1.4344    7.9686 C   0  0  0  0  0  0  0  0  0  0  0  0
    0.5413   -2.0484    8.1355 H   0  0  0  0  0  0  0  0  0  0  0  0
    2.2699   -1.7121    6.9168 C   0  0  0  0  0  0  0  0  0  0  0  0
    2.0758   -2.5452    6.2581 H   0  0  0  0  0  0  0  0  0  0  0  0
    3.3753   -0.9102    6.7006 C   0  0  0  0  0  0  0  0  0  0  0  0
    4.0377   -1.1304    5.8727 H   0  0  0  0  0  0  0  0  0  0  0  0
    3.9170    3.5755    5.8205 N   0  0  2  0  0  0  0  0  0  0  0  0
    6.4248    2.8563    4.2838 P   0  0  0  0  0  4  0  0  0  0  0  0
    3.2872    1.1686    4.0923 P   0  0  0  0  0  4  0  0  0  0  0  0
    5.1442    1.1428    7.1378 P   0  0  0  0  0  4  0  0  0  0  0  0
    5.4446    0.8427    4.8631 Cu  0  0  2  0  0  0  0  0  0  0  0  0
    6.5252   -1.0993    4.1925 Br  0  0  0  0  0  0  0  0  0  0  0  0
  1 85  1  0  0  0  0
  1  2  1  0  0  0  0
  3  1  1  0  0  0  0
  4 86  1  0  0  0  0
  4  1  1  0  0  0  0
  5  4  1  0  0  0  0
  6  4  1  0  0  0  0
  7  9  1  0  0  0  0
  8  7  1  0  0  0  0
 10  7  1  0  0  0  0
 10 12  1  0  0  0  0
 11 10  1  0  0  0  0
 13 14  1  0  0  0  0
 13 15  1  0  0  0  0
 13 16  1  0  0  0  0
 16 17  1  0  0  0  0
 18 16  1  0  0  0  0
 19 86  1  0  0  0  0
 20 19  1  0  0  0  0
 20 21  1  0  0  0  0
 22 20  2  0  0  0  0
 23 22  1  0  0  0  0
 24 26  2  0  0  0  0
 24 22  1  0  0  0  0
 25 24  1  0  0  0  0
 26 28  1  0  0  0  0
 27 26  1  0  0  0  0
 28 29  1  0  0  0  0
 28 19  2  0  0  0  0
 30 39  2  0  0  0  0
 30 31  1  0  0  0  0
 31 33  2  0  0  0  0
 32 31  1  0  0  0  0
 33 35  1  0  0  0  0
 33 34  1  0  0  0  0
 35 36  1  0  0  0  0
 37 38  1  0  0  0  0
 37 35  2  0  0  0  0
 39 37  1  0  0  0  0
 40 39  1  0  0  0  0
 41 87  1  0  0  0  0
 42 43  1  0  0  0  0
 42 41  2  0  0  0  0
 44 42  1  0  0  0  0
 45 44  1  0  0  0  0
 46 44  2  0  0  0  0
 46 48  1  0  0  0  0
 47 46  1  0  0  0  0
 48 50  2  0  0  0  0
 49 48  1  0  0  0  0
 50 51  1  0  0  0  0
 50 41  1  0  0  0  0
 52 87  1  0  0  0  0
 52 61  1  0  0  0  0
 53 52  2  0  0  0  0
 54 53  1  0  0  0  0
 55 53  1  0  0  0  0
 55 57  2  0  0  0  0
 56 55  1  0  0  0  0
 57 59  1  0  0  0  0
 58 57  1  0  0  0  0
 59 61  2  0  0  0  0
 59 60  1  0  0  0  0
 61 62  1  0  0  0  0
 63 64  1  0  0  0  0
 64 65  1  0  0  0  0
 64 66  2  0  0  0  0
 66 67  1  0  0  0  0
 68 66  1  0  0  0  0
 68 69  1  0  0  0  0
 70 68  2  0  0  0  0
 71 70  1  0  0  0  0
 72 63  2  0  0  0  0
 72 70  1  0  0  0  0
 73 72  1  0  0  0  0
 74 75  1  0  0  0  0
 75 77  2  0  0  0  0
 75 76  1  0  0  0  0
 77 78  1  0  0  0  0
 79 80  1  0  0  0  0
 79 77  1  0  0  0  0
 81 79  2  0  0  0  0
 82 81  1  0  0  0  0
 83 81  1  0  0  0  0
 83 74  2  0  0  0  0
 84 83  1  0  0  0  0
 85  7  1  6  0  0  0
 85 13  1  0  0  0  0
 86 89  1  0  0  0  0
 86 30  1  0  0  0  0
 87 89  1  0  0  0  0
 87 10  1  0  0  0  0
 88 74  1  0  0  0  0
 88 16  1  0  0  0  0
 88 63  1  0  0  0  0
 89 90  1  6  0  0  0
 89 88  1  0  0  0  0
M  END
$$$$
