CSD_code = AJIYAU | q = 0 | S = 0 | Stoichiometry = C34H33BrP2Pd | MND = 4
 OpenBabel04212202003D

 71 73  0  0  1  0  0  0  0  0999 V2000
    1.9267    4.9112    1.9697 Pd  0  0  0  0  0  0  0  0  0  0  0  0
    2.6376    7.3408    1.6682 Br  0  0  0  0  0 15  0  0  0  0  0  0
    2.8462    3.9794   -0.4408 P   0  0  0  0  0  4  0  0  0  0  0  0
    1.9817    5.1686    4.2669 P   0  0  0  0  0  0  0  0  0  0  0  0
    1.2154    4.1635    0.1859 C   0  0  1  0  0  0  0  0  0  0  0  0
    0.5751    4.8879   -0.3223 H   0  0  0  0  0  0  0  0  0  0  0  0
    0.7616    3.3466    1.2535 C   0  0  0  0  0  3  0  0  0  0  0  0
   -0.3113    3.4121    1.4756 H   0  0  0  0  0  0  0  0  0  0  0  0
    1.3357    1.9967    1.4819 C   0  0  0  0  0  0  0  0  0  0  0  0
    1.1760    1.0090    0.5122 C   0  0  0  0  0  0  0  0  0  0  0  0
    0.6439    1.2356   -0.4013 H   0  0  0  0  0  0  0  0  0  0  0  0
    1.6759   -0.2649    0.7158 C   0  0  0  0  0  0  0  0  0  0  0  0
    1.5506   -1.0164   -0.0511 H   0  0  0  0  0  0  0  0  0  0  0  0
    2.3243   -0.5786    1.8983 C   0  0  0  0  0  0  0  0  0  0  0  0
    2.7071   -1.5760    2.0581 H   0  0  0  0  0  0  0  0  0  0  0  0
    2.4784    0.3930    2.8737 C   0  0  0  0  0  0  0  0  0  0  0  0
    2.9842    0.1567    3.7987 H   0  0  0  0  0  0  0  0  0  0  0  0
    1.9942    1.6698    2.6645 C   0  0  0  0  0  0  0  0  0  0  0  0
    2.1411    2.4380    3.4186 H   0  0  0  0  0  0  0  0  0  0  0  0
    2.9594    2.7738   -1.8073 C   0  0  0  0  0  0  0  0  0  0  0  0
    1.8031    2.4509   -2.5050 C   0  0  0  0  0  0  0  0  0  0  0  0
    0.8600    2.8823   -2.1927 H   0  0  0  0  0  0  0  0  0  0  0  0
    1.8604    1.5909   -3.5863 C   0  0  0  0  0  0  0  0  0  0  0  0
    0.9588    1.3371   -4.1242 H   0  0  0  0  0  0  0  0  0  0  0  0
    3.0773    1.0567   -3.9771 C   0  0  0  0  0  0  0  0  0  0  0  0
    3.1234    0.3798   -4.8170 H   0  0  0  0  0  0  0  0  0  0  0  0
    4.2368    1.3954   -3.2976 C   0  0  0  0  0  0  0  0  0  0  0  0
    5.1861    0.9876   -3.6122 H   0  0  0  0  0  0  0  0  0  0  0  0
    4.1821    2.2572   -2.2177 C   0  0  0  0  0  0  0  0  0  0  0  0
    5.0847    2.5305   -1.6879 H   0  0  0  0  0  0  0  0  0  0  0  0
    4.1131    3.4750    0.7634 C   0  0  0  0  0  0  0  0  0  0  0  0
    4.4349    2.1332    0.9454 C   0  0  0  0  0  0  0  0  0  0  0  0
    3.9438    1.3728    0.3542 H   0  0  0  0  0  0  0  0  0  0  0  0
    5.3870    1.7760    1.8844 C   0  0  0  0  0  0  0  0  0  0  0  0
    5.6283    0.7327    2.0242 H   0  0  0  0  0  0  0  0  0  0  0  0
    6.0221    2.7478    2.6378 C   0  0  0  0  0  0  0  0  0  0  0  0
    6.7619    2.4661    3.3718 H   0  0  0  0  0  0  0  0  0  0  0  0
    5.7201    4.0872    2.4430 C   0  0  0  0  0  0  0  0  0  0  0  0
    6.2305    4.8470    3.0146 H   0  0  0  0  0  0  0  0  0  0  0  0
    4.7649    4.4599    1.5135 C   0  0  0  0  0  0  0  0  0  0  0  0
    4.5710    5.5140    1.3373 H   0  0  0  0  0  0  0  0  0  0  0  0
    3.3599    5.5064   -1.2698 C   0  0  0  0  0  0  0  0  0  0  0  0
    2.6962    5.6544   -2.1241 H   0  0  0  0  0  0  0  0  0  0  0  0
    4.3865    5.3958   -1.6205 H   0  0  0  0  0  0  0  0  0  0  0  0
    3.2758    6.3624   -0.5910 H   0  0  0  0  0  0  0  0  0  0  0  0
    1.0626    4.1012    5.4366 C   0  0  0  0  0  0  0  0  0  0  0  0
   -0.0343    3.4030    4.9484 C   0  0  0  0  0  0  0  0  0  0  0  0
   -0.2717    3.4746    3.8924 H   0  0  0  0  0  0  0  0  0  0  0  0
   -0.8108    2.6312    5.7931 C   0  0  0  0  0  0  0  0  0  0  0  0
   -1.6609    2.0893    5.4043 H   0  0  0  0  0  0  0  0  0  0  0  0
   -0.4927    2.5542    7.1384 C   0  0  0  0  0  0  0  0  0  0  0  0
   -1.0922    1.9487    7.8024 H   0  0  0  0  0  0  0  0  0  0  0  0
    0.5935    3.2578    7.6349 C   0  0  0  0  0  0  0  0  0  0  0  0
    0.8363    3.2033    8.6865 H   0  0  0  0  0  0  0  0  0  0  0  0
    1.3668    4.0333    6.7909 C   0  0  0  0  0  0  0  0  0  0  0  0
    2.2125    4.5826    7.1814 H   0  0  0  0  0  0  0  0  0  0  0  0
    3.6648    5.1368    4.9587 C   0  0  0  0  0  0  0  0  0  0  0  0
    4.4516    6.2847    4.9605 C   0  0  0  0  0  0  0  0  0  0  0  0
    4.0555    7.2117    4.5731 H   0  0  0  0  0  0  0  0  0  0  0  0
    5.7480    6.2381    5.4417 C   0  0  0  0  0  0  0  0  0  0  0  0
    6.3494    7.1356    5.4456 H   0  0  0  0  0  0  0  0  0  0  0  0
    6.2744    5.0480    5.9167 C   0  0  0  0  0  0  0  0  0  0  0  0
    7.2836    5.0164    6.3014 H   0  0  0  0  0  0  0  0  0  0  0  0
    5.5065    3.8948    5.8868 C   0  0  0  0  0  0  0  0  0  0  0  0
    5.9167    2.9612    6.2454 H   0  0  0  0  0  0  0  0  0  0  0  0
    4.2142    3.9353    5.3996 C   0  0  0  0  0  0  0  0  0  0  0  0
    3.6188    3.0318    5.3729 H   0  0  0  0  0  0  0  0  0  0  0  0
    1.3319    6.7771    4.8711 C   0  0  0  0  0  0  0  0  0  0  0  0
    0.2542    6.7844    4.6966 H   0  0  0  0  0  0  0  0  0  0  0  0
    1.7743    7.5990    4.3109 H   0  0  0  0  0  0  0  0  0  0  0  0
    1.5313    6.8915    5.9367 H   0  0  0  0  0  0  0  0  0  0  0  0
  3  5  1  0  0  0  0
  3 31  1  0  0  0  0
  4 68  1  0  0  0  0
  4 57  1  0  0  0  0
  4 46  1  0  0  0  0
  5  6  1  6  0  0  0
  5  7  1  0  0  0  0
  5  1  1  0  0  0  0
  7  8  1  0  0  0  0
  7  9  1  0  0  0  0
  9 18  1  0  0  0  0
 10 12  1  0  0  0  0
 10  9  2  0  0  0  0
 11 10  1  0  0  0  0
 12 14  2  0  0  0  0
 13 12  1  0  0  0  0
 14 15  1  0  0  0  0
 14 16  1  0  0  0  0
 16 17  1  0  0  0  0
 18 16  2  0  0  0  0
 18 19  1  0  0  0  0
 20  3  1  0  0  0  0
 21 22  1  0  0  0  0
 21 20  2  0  0  0  0
 23 21  1  0  0  0  0
 24 23  1  0  0  0  0
 25 23  2  0  0  0  0
 25 27  1  0  0  0  0
 26 25  1  0  0  0  0
 27 29  2  0  0  0  0
 28 27  1  0  0  0  0
 29 20  1  0  0  0  0
 29 30  1  0  0  0  0
 31 32  2  0  0  0  0
 31 40  1  0  0  0  0
 32 34  1  0  0  0  0
 33 32  1  0  0  0  0
 34 35  1  0  0  0  0
 34 36  2  0  0  0  0
 36 37  1  0  0  0  0
 38 36  1  0  0  0  0
 38 39  1  0  0  0  0
 40 38  2  0  0  0  0
 41 40  1  0  0  0  0
 42 45  1  0  0  0  0
 42  3  1  0  0  0  0
 43 42  1  0  0  0  0
 44 42  1  0  0  0  0
 46 55  1  0  0  0  0
 47 46  2  0  0  0  0
 47 49  1  0  0  0  0
 48 47  1  0  0  0  0
 49 51  2  0  0  0  0
 50 49  1  0  0  0  0
 51 53  1  0  0  0  0
 51 52  1  0  0  0  0
 53 54  1  0  0  0  0
 55 56  1  0  0  0  0
 55 53  2  0  0  0  0
 57 58  2  0  0  0  0
 57 66  1  0  0  0  0
 58 60  1  0  0  0  0
 59 58  1  0  0  0  0
 60 61  1  0  0  0  0
 60 62  2  0  0  0  0
 62 63  1  0  0  0  0
 64 62  1  0  0  0  0
 64 65  1  0  0  0  0
 66 64  2  0  0  0  0
 67 66  1  0  0  0  0
 68 71  1  0  0  0  0
 69 68  1  0  0  0  0
 70 68  1  0  0  0  0
M  END
$$$$
