CSD_code = AJOBEH | q = 1 | S = 0 | Stoichiometry = C25H44ClN2PdS2(1+) | MND = 4
 OpenBabel04212202003D

 75 79  0  0  1  0  0  0  0  0999 V2000
   12.4744    5.5091   10.0024 Pd  0  0  1  0  0  0  0  0  0  0  0  0
   11.1308    5.5852    8.1912 Cl  0  0  0  0  0  0  0  0  0  0  0  0
   13.4348    3.6080    9.0679 S   0  0  2  0  0  3  0  0  0  0  0  0
   11.5911    7.5476   10.6827 S   0  0  2  0  0  3  0  0  0  0  0  0
   14.1097    4.2520   12.1473 N   0  0  0  0  0  0  0  0  0  0  0  0
   14.3350    6.3911   12.1992 N   0  0  0  0  0  0  0  0  0  0  0  0
   13.6948    5.3924   11.5727 C   0  0  0  0  0  0  0  0  0  0  0  0
   15.1555    5.8796   13.1712 C   0  0  0  0  0  0  0  0  0  0  0  0
   15.7646    6.4965   13.7986 H   0  0  0  0  0  0  0  0  0  0  0  0
   15.0183    4.5312   13.1349 C   0  0  0  0  0  0  0  0  0  0  0  0
   15.4803    3.7707   13.7295 H   0  0  0  0  0  0  0  0  0  0  0  0
   13.5445    2.9703   11.8020 C   0  0  0  0  0  0  0  0  0  0  0  0
   12.4503    3.0722   11.8162 H   0  0  0  0  0  0  0  0  0  0  0  0
   13.8440    2.2415   12.5595 H   0  0  0  0  0  0  0  0  0  0  0  0
   13.9676    2.4618   10.4196 C   0  0  1  0  0  0  0  0  0  0  0  0
   15.0575    2.4142   10.3594 H   0  0  0  0  0  0  0  0  0  0  0  0
   13.3666    1.0710   10.1448 C   0  0  0  0  0  0  0  0  0  0  0  0
   13.6756    0.4145   10.9668 H   0  0  0  0  0  0  0  0  0  0  0  0
   11.8392    1.1187   10.0985 C   0  0  0  0  0  0  0  0  0  0  0  0
   11.5005    1.9248    9.4480 H   0  0  0  0  0  0  0  0  0  0  0  0
   11.4084    1.2575   11.0867 H   0  0  0  0  0  0  0  0  0  0  0  0
   11.4551    0.1839    9.7011 H   0  0  0  0  0  0  0  0  0  0  0  0
   13.9204    0.4940    8.8446 C   0  0  0  0  0  0  0  0  0  0  0  0
   13.5423   -0.5134    8.6977 H   0  0  0  0  0  0  0  0  0  0  0  0
   15.0065    0.4426    8.8707 H   0  0  0  0  0  0  0  0  0  0  0  0
   13.6139    1.0987    7.9951 H   0  0  0  0  0  0  0  0  0  0  0  0
   14.0710    7.7835   11.9236 C   0  0  0  0  0  0  0  0  0  0  0  0
   14.3451    8.0103   10.8855 H   0  0  0  0  0  0  0  0  0  0  0  0
   14.6891    8.3865   12.5909 H   0  0  0  0  0  0  0  0  0  0  0  0
   12.5890    8.1111   12.1456 C   0  0  1  0  0  0  0  0  0  0  0  0
   12.2245    7.5487   13.0104 H   0  0  0  0  0  0  0  0  0  0  0  0
   12.3154    9.6094   12.3526 C   0  0  0  0  0  0  0  0  0  0  0  0
   11.2274    9.7344   12.3193 H   0  0  0  0  0  0  0  0  0  0  0  0
   12.7947   10.0779   13.7261 C   0  0  0  0  0  0  0  0  0  0  0  0
   13.8789   10.0538   13.8009 H   0  0  0  0  0  0  0  0  0  0  0  0
   12.3768    9.4620   14.5192 H   0  0  0  0  0  0  0  0  0  0  0  0
   12.4755   11.1029   13.8906 H   0  0  0  0  0  0  0  0  0  0  0  0
   12.9209   10.4591   11.2391 C   0  0  0  0  0  0  0  0  0  0  0  0
   14.0055   10.4818   11.3041 H   0  0  0  0  0  0  0  0  0  0  0  0
   12.5604   11.4803   11.3205 H   0  0  0  0  0  0  0  0  0  0  0  0
   12.6331   10.0751   10.2630 H   0  0  0  0  0  0  0  0  0  0  0  0
   15.0322    4.4121    8.5892 C   0  0  0  0  0  0  0  0  0  0  0  0
   15.6070    4.5589    9.5111 H   0  0  0  0  0  0  0  0  0  0  0  0
   14.7361    5.7583    7.9286 C   0  0  0  0  0  0  0  0  0  0  0  0
   14.2008    6.4372    8.6299 H   0  0  0  0  0  0  0  0  0  0  0  0
   14.0946    5.5935    7.0577 H   0  0  0  0  0  0  0  0  0  0  0  0
   16.0412    6.4194    7.4845 C   0  0  0  0  0  0  0  0  0  0  0  0
   15.8171    7.3706    7.0007 H   0  0  0  0  0  0  0  0  0  0  0  0
   16.6637    6.6249    8.3598 H   0  0  0  0  0  0  0  0  0  0  0  0
   16.8026    5.5120    6.5237 C   0  0  0  0  0  0  0  0  0  0  0  0
   16.2090    5.3573    5.6212 H   0  0  0  0  0  0  0  0  0  0  0  0
   17.7391    5.9869    6.2309 H   0  0  0  0  0  0  0  0  0  0  0  0
   17.0872    4.1670    7.1828 C   0  0  0  0  0  0  0  0  0  0  0  0
   17.7367    4.3134    8.0495 H   0  0  0  0  0  0  0  0  0  0  0  0
   17.6059    3.5095    6.4851 H   0  0  0  0  0  0  0  0  0  0  0  0
   15.7837    3.5031    7.6262 C   0  0  0  0  0  0  0  0  0  0  0  0
   15.1556    3.3154    6.7533 H   0  0  0  0  0  0  0  0  0  0  0  0
   16.0012    2.5430    8.0972 H   0  0  0  0  0  0  0  0  0  0  0  0
   10.0349    6.9675   11.4817 C   0  0  0  0  0  0  0  0  0  0  0  0
    9.8865    7.6215   12.3463 H   0  0  0  0  0  0  0  0  0  0  0  0
   10.1317    5.5082   11.9185 C   0  0  0  0  0  0  0  0  0  0  0  0
   10.3207    4.8800   11.0203 H   0  0  0  0  0  0  0  0  0  0  0  0
   10.9438    5.3782   12.6486 H   0  0  0  0  0  0  0  0  0  0  0  0
    8.8047    5.0684   12.5406 C   0  0  0  0  0  0  0  0  0  0  0  0
    8.6013    5.6686   13.4307 H   0  0  0  0  0  0  0  0  0  0  0  0
    8.8751    4.0247   12.8508 H   0  0  0  0  0  0  0  0  0  0  0  0
    7.6713    5.2432   11.5350 C   0  0  0  0  0  0  0  0  0  0  0  0
    7.8546    4.6083   10.6659 H   0  0  0  0  0  0  0  0  0  0  0  0
    6.7279    4.9335   11.9849 H   0  0  0  0  0  0  0  0  0  0  0  0
    7.5809    6.6984   11.0883 C   0  0  0  0  0  0  0  0  0  0  0  0
    7.3343    7.3301   11.9450 H   0  0  0  0  0  0  0  0  0  0  0  0
    6.7881    6.8131   10.3496 H   0  0  0  0  0  0  0  0  0  0  0  0
    8.9042    7.1558   10.4775 C   0  0  0  0  0  0  0  0  0  0  0  0
    8.8406    8.2048   10.1833 H   0  0  0  0  0  0  0  0  0  0  0  0
    9.1222    6.5673    9.5830 H   0  0  0  0  0  0  0  0  0  0  0  0
  1  2  1  1  0  0  0
  1  4  1  0  0  0  0
  1  7  2  0  0  0  0
  3 42  1  1  0  0  0
  3  1  1  0  0  0  0
  3 15  1  0  0  0  0
  4 59  1  1  0  0  0
  4 30  1  0  0  0  0
  5 10  1  0  0  0  0
  6  8  1  0  0  0  0
  7  5  1  0  0  0  0
  7  6  1  0  0  0  0
  8  9  1  0  0  0  0
 10  8  2  0  0  0  0
 10 11  1  0  0  0  0
 12 13  1  0  0  0  0
 12  5  1  0  0  0  0
 12 14  1  0  0  0  0
 15 16  1  6  0  0  0
 15 12  1  0  0  0  0
 17 15  1  0  0  0  0
 17 18  1  0  0  0  0
 19 17  1  0  0  0  0
 19 21  1  0  0  0  0
 20 19  1  0  0  0  0
 22 19  1  0  0  0  0
 23 25  1  0  0  0  0
 23 17  1  0  0  0  0
 24 23  1  0  0  0  0
 26 23  1  0  0  0  0
 27 30  1  0  0  0  0
 27  6  1  0  0  0  0
 27 29  1  0  0  0  0
 28 27  1  0  0  0  0
 30 32  1  0  0  0  0
 30 31  1  1  0  0  0
 32 34  1  0  0  0  0
 33 32  1  0  0  0  0
 34 35  1  0  0  0  0
 34 37  1  0  0  0  0
 34 36  1  0  0  0  0
 38 39  1  0  0  0  0
 38 40  1  0  0  0  0
 38 32  1  0  0  0  0
 41 38  1  0  0  0  0
 42 43  1  0  0  0  0
 44 42  1  0  0  0  0
 44 45  1  0  0  0  0
 46 44  1  0  0  0  0
 47 44  1  0  0  0  0
 47 49  1  0  0  0  0
 48 47  1  0  0  0  0
 50 53  1  0  0  0  0
 50 47  1  0  0  0  0
 51 50  1  0  0  0  0
 52 50  1  0  0  0  0
 53 56  1  0  0  0  0
 53 54  1  0  0  0  0
 55 53  1  0  0  0  0
 56 58  1  0  0  0  0
 56 42  1  0  0  0  0
 57 56  1  0  0  0  0
 59 61  1  0  0  0  0
 59 60  1  0  0  0  0
 61 64  1  0  0  0  0
 61 63  1  0  0  0  0
 62 61  1  0  0  0  0
 64 66  1  0  0  0  0
 64 65  1  0  0  0  0
 67 69  1  0  0  0  0
 67 64  1  0  0  0  0
 68 67  1  0  0  0  0
 70 67  1  0  0  0  0
 70 71  1  0  0  0  0
 72 70  1  0  0  0  0
 73 70  1  0  0  0  0
 73 59  1  0  0  0  0
 74 73  1  0  0  0  0
 75 73  1  0  0  0  0
M  END
$$$$
