CSD_code = AJOBAE | q = 0 | S = 0 | Stoichiometry = C41H40ClOP3RuSi | MND = 5
 OpenBabel04212202003D

 88 93  0  0  0  0  0  0  0  0999 V2000
    1.3515   22.1678   14.0160 Ru  0  0  0  0  0  0  0  0  0  0  0  0
    2.4784   21.9870   16.0467 Cl  0  0  0  0  0  0  0  0  0  0  0  0
    2.9316   21.4777   12.5117 P   0  0  0  0  0  0  0  0  0  0  0  0
    0.4618   20.0859   14.4101 P   0  0  0  0  0  4  0  0  0  0  0  0
    1.9785   24.3519   14.2917 P   0  0  0  0  0  4  0  0  0  0  0  0
    3.6767   21.2908    9.4787 Si  0  0  0  0  0  0  0  0  0  0  0  0
   -0.8215   22.9649   12.1353 O   0  0  0  0  0  1  0  0  0  0  0  0
    2.5624   21.7716   10.9166 C   0  0  0  0  0  0  0  0  0  0  0  0
    1.6203   22.2513   10.6731 H   0  0  0  0  0  0  0  0  0  0  0  0
    5.3765   20.7658   10.1520 C   0  0  0  0  0  0  0  0  0  0  0  0
    6.0493   20.4536    9.3593 H   0  0  0  0  0  0  0  0  0  0  0  0
    5.2712   19.9381   10.8458 H   0  0  0  0  0  0  0  0  0  0  0  0
    5.8496   21.5822   10.6883 H   0  0  0  0  0  0  0  0  0  0  0  0
    2.8697   19.8418    8.5294 C   0  0  0  0  0  0  0  0  0  0  0  0
    3.5030   19.4959    7.7183 H   0  0  0  0  0  0  0  0  0  0  0  0
    1.9178   20.1374    8.0993 H   0  0  0  0  0  0  0  0  0  0  0  0
    2.6856   19.0004    9.1906 H   0  0  0  0  0  0  0  0  0  0  0  0
    3.8579   22.7921    8.3102 C   0  0  0  0  0  0  0  0  0  0  0  0
    4.4536   22.5448    7.4370 H   0  0  0  0  0  0  0  0  0  0  0  0
    4.3399   23.6253    8.8127 H   0  0  0  0  0  0  0  0  0  0  0  0
    2.8888   23.1341    7.9598 H   0  0  0  0  0  0  0  0  0  0  0  0
    0.0648   22.6047   12.7880 C   0  0  0  0  0  2  0  0  0  0  0  0
    0.1357   18.8690   13.0958 C   0  0  0  0  0  0  0  0  0  0  0  0
    0.0568   19.3108   11.7803 C   0  0  0  0  0  0  0  0  0  0  0  0
    0.1981   20.3629   11.5702 H   0  0  0  0  0  0  0  0  0  0  0  0
   -0.1885   18.4115   10.7585 C   0  0  0  0  0  0  0  0  0  0  0  0
   -0.2444   18.7591    9.7378 H   0  0  0  0  0  0  0  0  0  0  0  0
   -0.3567   17.0670   11.0458 C   0  0  0  0  0  0  0  0  0  0  0  0
   -0.5448   16.3628   10.2487 H   0  0  0  0  0  0  0  0  0  0  0  0
   -0.2798   16.6219   12.3564 C   0  0  0  0  0  0  0  0  0  0  0  0
   -0.4112   15.5730   12.5797 H   0  0  0  0  0  0  0  0  0  0  0  0
   -0.0323   17.5165   13.3811 C   0  0  0  0  0  0  0  0  0  0  0  0
    0.0342   17.1698   14.4037 H   0  0  0  0  0  0  0  0  0  0  0  0
    1.3504   19.0542   15.6153 C   0  0  0  0  0  0  0  0  0  0  0  0
    2.6410   18.6749   15.2536 C   0  0  0  0  0  0  0  0  0  0  0  0
    3.0345   18.9947   14.2941 H   0  0  0  0  0  0  0  0  0  0  0  0
    3.4077   17.9214   16.1192 C   0  0  0  0  0  0  0  0  0  0  0  0
    4.4112   17.6331   15.8419 H   0  0  0  0  0  0  0  0  0  0  0  0
    2.8919   17.5465   17.3508 C   0  0  0  0  0  0  0  0  0  0  0  0
    3.4935   16.9632   18.0325 H   0  0  0  0  0  0  0  0  0  0  0  0
    1.6117   17.9280   17.7138 C   0  0  0  0  0  0  0  0  0  0  0  0
    1.2145   17.6421   18.6772 H   0  0  0  0  0  0  0  0  0  0  0  0
    0.8367   18.6842   16.8509 C   0  0  0  0  0  0  0  0  0  0  0  0
   -0.1599   18.9906   17.1399 H   0  0  0  0  0  0  0  0  0  0  0  0
   -1.1635   20.3541   15.1822 C   0  0  0  0  0  0  0  0  0  0  0  0
   -2.3028   19.6113   14.8969 C   0  0  0  0  0  0  0  0  0  0  0  0
   -2.2543   18.7986   14.1859 H   0  0  0  0  0  0  0  0  0  0  0  0
   -3.4983   19.9231   15.5213 C   0  0  0  0  0  0  0  0  0  0  0  0
   -4.3845   19.3471   15.2974 H   0  0  0  0  0  0  0  0  0  0  0  0
   -3.5638   20.9688   16.4275 C   0  0  0  0  0  0  0  0  0  0  0  0
   -4.5008   21.2056   16.9101 H   0  0  0  0  0  0  0  0  0  0  0  0
   -2.4305   21.7151   16.7113 C   0  0  0  0  0  0  0  0  0  0  0  0
   -2.4775   22.5333   17.4153 H   0  0  0  0  0  0  0  0  0  0  0  0
   -1.2365   21.4141   16.0856 C   0  0  0  0  0  0  0  0  0  0  0  0
   -0.3443   21.9963   16.3043 H   0  0  0  0  0  0  0  0  0  0  0  0
    0.9668   24.9037   15.6953 C   0  0  0  0  0  0  0  0  0  0  0  0
    1.4856   25.1867   16.9531 C   0  0  0  0  0  0  0  0  0  0  0  0
    2.5543   25.1607   17.1138 H   0  0  0  0  0  0  0  0  0  0  0  0
    0.6273   25.4784   17.9993 C   0  0  0  0  0  0  0  0  0  0  0  0
    1.0316   25.6950   18.9775 H   0  0  0  0  0  0  0  0  0  0  0  0
   -0.7433   25.4842   17.7999 C   0  0  0  0  0  0  0  0  0  0  0  0
   -1.4069   25.7118   18.6217 H   0  0  0  0  0  0  0  0  0  0  0  0
   -1.2656   25.1849   16.5504 C   0  0  0  0  0  0  0  0  0  0  0  0
   -2.3349   25.1767   16.3946 H   0  0  0  0  0  0  0  0  0  0  0  0
   -0.4154   24.8848   15.5035 C   0  0  0  0  0  0  0  0  0  0  0  0
   -0.8136   24.6317   14.5259 H   0  0  0  0  0  0  0  0  0  0  0  0
    3.6745   24.8752   14.6858 C   0  0  0  0  0  0  0  0  0  0  0  0
    4.7316   23.9814   14.5872 C   0  0  0  0  0  0  0  0  0  0  0  0
    4.5393   22.9511   14.3129 H   0  0  0  0  0  0  0  0  0  0  0  0
    6.0209   24.4064   14.8565 C   0  0  0  0  0  0  0  0  0  0  0  0
    6.8421   23.7084   14.7865 H   0  0  0  0  0  0  0  0  0  0  0  0
    6.2566   25.7220   15.2176 C   0  0  0  0  0  0  0  0  0  0  0  0
    7.2627   26.0521   15.4315 H   0  0  0  0  0  0  0  0  0  0  0  0
    5.2033   26.6204   15.3021 C   0  0  0  0  0  0  0  0  0  0  0  0
    5.3896   27.6484   15.5778 H   0  0  0  0  0  0  0  0  0  0  0  0
    3.9146   26.2032   15.0317 C   0  0  0  0  0  0  0  0  0  0  0  0
    3.0888   26.9006   15.0880 H   0  0  0  0  0  0  0  0  0  0  0  0
    1.6111   25.5636   12.9802 C   0  0  0  0  0  0  0  0  0  0  0  0
    2.1328   25.2495   11.7278 C   0  0  0  0  0  0  0  0  0  0  0  0
    2.6883   24.3252   11.6091 H   0  0  0  0  0  0  0  0  0  0  0  0
    1.9339   26.0994   10.6578 C   0  0  0  0  0  0  0  0  0  0  0  0
    2.3354   25.8485    9.6871 H   0  0  0  0  0  0  0  0  0  0  0  0
    1.2133   27.2709   10.8328 C   0  0  0  0  0  0  0  0  0  0  0  0
    1.0512   27.9360    9.9974 H   0  0  0  0  0  0  0  0  0  0  0  0
    0.6984   27.5891   12.0781 C   0  0  0  0  0  0  0  0  0  0  0  0
    0.1379   28.5030   12.2135 H   0  0  0  0  0  0  0  0  0  0  0  0
    0.8962   26.7412   13.1545 C   0  0  0  0  0  0  0  0  0  0  0  0
    0.4875   26.9936   14.1237 H   0  0  0  0  0  0  0  0  0  0  0  0
  1  5  1  0  0  0  0
  1  4  1  0  0  0  0
  1  2  1  0  0  0  0
  3  1  1  0  0  0  0
  4 45  1  0  0  0  0
  4 34  1  0  0  0  0
  5 67  1  0  0  0  0
  5 56  1  0  0  0  0
  6 10  1  0  0  0  0
  6  8  1  0  0  0  0
  7 22  1  0  0  0  0
  8  3  2  0  0  0  0
  9  8  1  0  0  0  0
 10 13  1  0  0  0  0
 10 12  1  0  0  0  0
 11 10  1  0  0  0  0
 14 17  1  0  0  0  0
 14  6  1  0  0  0  0
 15 14  1  0  0  0  0
 16 14  1  0  0  0  0
 18 20  1  0  0  0  0
 18  6  1  0  0  0  0
 19 18  1  0  0  0  0
 21 18  1  0  0  0  0
 22  1  1  0  0  0  0
 23 32  1  0  0  0  0
 23  4  1  0  0  0  0
 24 23  2  0  0  0  0
 25 24  1  0  0  0  0
 26 28  2  0  0  0  0
 26 24  1  0  0  0  0
 27 26  1  0  0  0  0
 28 30  1  0  0  0  0
 29 28  1  0  0  0  0
 30 31  1  0  0  0  0
 30 32  2  0  0  0  0
 32 33  1  0  0  0  0
 34 43  1  0  0  0  0
 35 34  2  0  0  0  0
 35 37  1  0  0  0  0
 36 35  1  0  0  0  0
 37 39  2  0  0  0  0
 38 37  1  0  0  0  0
 39 41  1  0  0  0  0
 39 40  1  0  0  0  0
 41 42  1  0  0  0  0
 43 44  1  0  0  0  0
 43 41  2  0  0  0  0
 45 54  1  0  0  0  0
 46 45  2  0  0  0  0
 46 48  1  0  0  0  0
 47 46  1  0  0  0  0
 48 50  2  0  0  0  0
 49 48  1  0  0  0  0
 50 52  1  0  0  0  0
 50 51  1  0  0  0  0
 52 53  1  0  0  0  0
 54 55  1  0  0  0  0
 54 52  2  0  0  0  0
 56 57  1  0  0  0  0
 57 58  1  0  0  0  0
 57 59  2  0  0  0  0
 59 60  1  0  0  0  0
 61 59  1  0  0  0  0
 61 62  1  0  0  0  0
 63 61  2  0  0  0  0
 64 63  1  0  0  0  0
 65 56  2  0  0  0  0
 65 63  1  0  0  0  0
 66 65  1  0  0  0  0
 67 76  1  0  0  0  0
 68 67  2  0  0  0  0
 68 70  1  0  0  0  0
 69 68  1  0  0  0  0
 70 72  2  0  0  0  0
 71 70  1  0  0  0  0
 72 74  1  0  0  0  0
 72 73  1  0  0  0  0
 74 75  1  0  0  0  0
 76 77  1  0  0  0  0
 76 74  2  0  0  0  0
 78 87  1  0  0  0  0
 78  5  1  0  0  0  0
 79 78  2  0  0  0  0
 80 79  1  0  0  0  0
 81 83  2  0  0  0  0
 81 79  1  0  0  0  0
 82 81  1  0  0  0  0
 83 85  1  0  0  0  0
 84 83  1  0  0  0  0
 85 86  1  0  0  0  0
 85 87  2  0  0  0  0
 87 88  1  0  0  0  0
M  END
$$$$
