CSD_code = AJODAG | q = 0 | S = 0 | Stoichiometry = C22H34Cl2O4Zr | MND = 12
 OpenBabel04212202003D

 63 64  0  0  1  0  0  0  0  0999 V2000
   24.7312    0.7409   10.4666 Zr  0  0  0  0  0  0  0  0  0  0  0  0
   24.0784   -0.9767   11.9213 Cl  0  0  0  0  0  0  0  0  0  0  0  0
   22.4024    1.5767   10.5556 C   0  0  0  0  0  0  0  0  0  0  0  0
   22.4531    0.6132    9.5131 C   0  0  1  0  0  0  0  0  0  0  0  0
   21.8883   -0.3095    9.4683 H   0  0  0  0  0  0  0  0  0  0  0  0
   23.2565    1.1279    8.4698 C   0  0  0  0  0  0  0  0  0  0  0  0
   23.4035    0.6663    7.5009 H   0  0  0  0  0  0  0  0  0  0  0  0
   23.7323    2.3954    8.8653 C   0  0  0  0  0  0  0  0  0  0  0  0
   24.2588    3.0971    8.2315 H   0  0  0  0  0  0  0  0  0  0  0  0
   23.2045    2.6760   10.1488 C   0  0  0  0  0  0  0  0  0  0  0  0
   23.2724    3.6329   10.6515 H   0  0  0  0  0  0  0  0  0  0  0  0
   21.5233    1.5571   11.7884 C   0  0  0  0  0  0  0  0  0  0  0  0
   22.3634    1.8878   13.0301 C   0  0  0  0  0  0  0  0  0  0  0  0
   21.7312    1.8457   13.9128 H   0  0  0  0  0  0  0  0  0  0  0  0
   22.7801    2.8922   12.9631 H   0  0  0  0  0  0  0  0  0  0  0  0
   23.1687    1.1544   13.1306 H   0  0  0  0  0  0  0  0  0  0  0  0
   20.8278    0.2075   11.9761 C   0  0  0  0  0  0  0  0  0  0  0  0
   20.1569    0.0178   11.1427 H   0  0  0  0  0  0  0  0  0  0  0  0
   20.2345    0.2407   12.8851 H   0  0  0  0  0  0  0  0  0  0  0  0
   21.5611   -0.5907   12.0546 H   0  0  0  0  0  0  0  0  0  0  0  0
   20.4189    2.6432   11.6146 C   0  0  0  0  0  0  0  0  0  0  0  0
   20.8882    3.6320   11.4217 H   0  0  0  0  0  0  0  0  0  0  0  0
   18.6846    3.6861   12.8205 C   0  0  0  0  0  0  0  0  0  0  0  0
   19.1176    4.6853   12.6816 H   0  0  0  0  0  0  0  0  0  0  0  0
   18.2172    3.6223   13.8004 H   0  0  0  0  0  0  0  0  0  0  0  0
   17.9383    3.5054   12.0426 H   0  0  0  0  0  0  0  0  0  0  0  0
   19.7503    3.0600    9.3542 C   0  0  0  0  0  0  0  0  0  0  0  0
   19.7182    4.1420    9.5319 H   0  0  0  0  0  0  0  0  0  0  0  0
   18.9294    2.7783    8.6972 H   0  0  0  0  0  0  0  0  0  0  0  0
   20.7008    2.8042    8.8763 H   0  0  0  0  0  0  0  0  0  0  0  0
   19.6898    2.6967   12.8015 O   0  0  0  0  0  0  0  0  0  0  0  0
   19.5543    2.3369   10.5440 O   0  0  0  0  0  0  0  0  0  0  0  0
   25.3835   -0.9772    9.0117 Cl  0  0  0  0  0  0  0  0  0  0  0  0
   27.0600    1.5767   10.3777 C   0  0  0  0  0  0  0  0  0  0  0  0
   27.0093    0.6132   11.4202 C   0  0  1  0  0  0  0  0  0  0  0  0
   27.5741   -0.3096   11.4650 H   0  0  0  0  0  0  0  0  0  0  0  0
   26.2058    1.1278   12.4635 C   0  0  0  0  0  0  0  0  0  0  0  0
   26.0588    0.6661   13.4324 H   0  0  0  0  0  0  0  0  0  0  0  0
   25.7301    2.3953   12.0681 C   0  0  0  0  0  0  0  0  0  0  0  0
   25.2037    3.0970   12.7019 H   0  0  0  0  0  0  0  0  0  0  0  0
   26.2579    2.6760   10.7845 C   0  0  0  0  0  0  0  0  0  0  0  0
   26.1900    3.6329   10.2818 H   0  0  0  0  0  0  0  0  0  0  0  0
   27.9390    1.5571    9.1449 C   0  0  0  0  0  0  0  0  0  0  0  0
   27.0990    1.8879    7.9032 C   0  0  0  0  0  0  0  0  0  0  0  0
   27.7312    1.8457    7.0205 H   0  0  0  0  0  0  0  0  0  0  0  0
   26.6824    2.8923    7.9702 H   0  0  0  0  0  0  0  0  0  0  0  0
   26.2937    1.1544    7.8026 H   0  0  0  0  0  0  0  0  0  0  0  0
   28.6347    0.2075    8.9573 C   0  0  0  0  0  0  0  0  0  0  0  0
   29.3056    0.0179    9.7906 H   0  0  0  0  0  0  0  0  0  0  0  0
   29.2280    0.2408    8.0482 H   0  0  0  0  0  0  0  0  0  0  0  0
   27.9014   -0.5907    8.8787 H   0  0  0  0  0  0  0  0  0  0  0  0
   29.0435    2.6432    9.3186 C   0  0  0  0  0  0  0  0  0  0  0  0
   28.5742    3.6320    9.5115 H   0  0  0  0  0  0  0  0  0  0  0  0
   30.7778    3.6860    8.1127 C   0  0  0  0  0  0  0  0  0  0  0  0
   30.3448    4.6852    8.2516 H   0  0  0  0  0  0  0  0  0  0  0  0
   31.2451    3.6222    7.1328 H   0  0  0  0  0  0  0  0  0  0  0  0
   31.5241    3.5054    8.8906 H   0  0  0  0  0  0  0  0  0  0  0  0
   29.7121    3.0600   11.5790 C   0  0  0  0  0  0  0  0  0  0  0  0
   29.7443    4.1421   11.4013 H   0  0  0  0  0  0  0  0  0  0  0  0
   30.5330    2.7785   12.2360 H   0  0  0  0  0  0  0  0  0  0  0  0
   28.7617    2.8044   12.0569 H   0  0  0  0  0  0  0  0  0  0  0  0
   29.7726    2.6966    8.1317 O   0  0  0  0  0  0  0  0  0  0  0  0
   29.9081    2.3369   10.3892 O   0  0  0  0  0  0  0  0  0  0  0  0
  1 35  1  0  0  0  0
  1  2  1  0  0  0  0
  3 12  1  0  0  0  0
  4  5  1  6  0  0  0
  4  1  1  0  0  0  0
  4  3  1  0  0  0  0
  6  8  2  0  0  0  0
  6  4  1  0  0  0  0
  7  6  1  0  0  0  0
  8 10  1  0  0  0  0
  9  8  1  0  0  0  0
 10  3  2  0  0  0  0
 10 11  1  0  0  0  0
 12 17  1  0  0  0  0
 12 13  1  0  0  0  0
 13 16  1  0  0  0  0
 13 14  1  0  0  0  0
 15 13  1  0  0  0  0
 17 20  1  0  0  0  0
 17 19  1  0  0  0  0
 18 17  1  0  0  0  0
 21 12  1  0  0  0  0
 21 31  1  0  0  0  0
 22 21  1  0  0  0  0
 23 25  1  0  0  0  0
 24 23  1  0  0  0  0
 26 23  1  0  0  0  0
 27 28  1  0  0  0  0
 27 32  1  0  0  0  0
 29 27  1  0  0  0  0
 30 27  1  0  0  0  0
 31 23  1  0  0  0  0
 32 21  1  0  0  0  0
 33  1  1  0  0  0  0
 34 41  2  0  0  0  0
 34 35  1  0  0  0  0
 35 36  1  1  0  0  0
 35 37  1  0  0  0  0
 37 38  1  0  0  0  0
 39 37  2  0  0  0  0
 39 40  1  0  0  0  0
 41 39  1  0  0  0  0
 42 41  1  0  0  0  0
 43 52  1  0  0  0  0
 43 34  1  0  0  0  0
 44 46  1  0  0  0  0
 44 43  1  0  0  0  0
 45 44  1  0  0  0  0
 47 44  1  0  0  0  0
 48 43  1  0  0  0  0
 48 49  1  0  0  0  0
 50 48  1  0  0  0  0
 51 48  1  0  0  0  0
 52 53  1  0  0  0  0
 52 63  1  0  0  0  0
 54 62  1  0  0  0  0
 54 55  1  0  0  0  0
 54 57  1  0  0  0  0
 56 54  1  0  0  0  0
 58 61  1  0  0  0  0
 58 60  1  0  0  0  0
 59 58  1  0  0  0  0
 62 52  1  0  0  0  0
 63 58  1  0  0  0  0
M  END
$$$$
