CSD_code = AJONUJ | q = 0 | S = 0 | Stoichiometry = C22H27Br2CoN4O4 | MND = 6
 OpenBabel04212202003D

 60 63  0  0  0  0  0  0  0  0999 V2000
    2.9428    9.2872    0.4040 Co  0  0  0  0  0  0  0  0  0  0  0  0
    1.3665    8.7532    2.1121 Br  0  0  0  0  0  0  0  0  0  0  0  0
    4.5372    9.6781   -1.3280 Br  0  0  0  0  0  0  0  0  0  0  0  0
    3.7579   10.5527    1.5025 N   0  0  0  0  0  0  0  0  0  0  0  0
    1.7168   10.4758   -0.4167 N   0  0  0  0  0  0  0  0  0  0  0  0
    4.2284    8.0933    1.2804 N   0  0  0  0  0  0  0  0  0  0  0  0
    2.0014    7.9895   -0.8326 N   0  0  0  0  0  0  0  0  0  0  0  0
    5.7795    2.0401   -0.1430 C   0  0  0  0  0  0  0  0  0  0  0  0
    5.3324    2.2284   -1.1236 H   0  0  0  0  0  0  0  0  0  0  0  0
    5.7812    0.9693    0.0545 H   0  0  0  0  0  0  0  0  0  0  0  0
    6.8088    2.4110   -0.1306 H   0  0  0  0  0  0  0  0  0  0  0  0
    2.3236    1.5916   -0.9534 C   0  0  0  0  0  0  0  0  0  0  0  0
    2.7385    1.6705    0.0558 H   0  0  0  0  0  0  0  0  0  0  0  0
    2.6287    0.6455   -1.3976 H   0  0  0  0  0  0  0  0  0  0  0  0
    1.2312    1.6325   -0.9064 H   0  0  0  0  0  0  0  0  0  0  0  0
    0.2572    7.8935   -2.5785 C   0  0  0  0  0  0  0  0  0  0  0  0
    0.6038    8.1575   -3.5776 H   0  0  0  0  0  0  0  0  0  0  0  0
   -0.7748    8.2220   -2.4791 H   0  0  0  0  0  0  0  0  0  0  0  0
    0.3058    6.8133   -2.4695 H   0  0  0  0  0  0  0  0  0  0  0  0
    5.4370   11.0115    3.2274 C   0  0  0  0  0  0  0  0  0  0  0  0
    4.9369   11.9773    3.2485 H   0  0  0  0  0  0  0  0  0  0  0  0
    6.4640   11.1589    2.8938 H   0  0  0  0  0  0  0  0  0  0  0  0
    5.4499   10.5891    4.2299 H   0  0  0  0  0  0  0  0  0  0  0  0
    6.0182    8.0705    2.9851 C   0  0  0  0  0  0  0  0  0  0  0  0
    5.6498    7.9459    4.0033 H   0  0  0  0  0  0  0  0  0  0  0  0
    6.8989    8.7075    3.0200 H   0  0  0  0  0  0  0  0  0  0  0  0
    6.2895    7.0946    2.5915 H   0  0  0  0  0  0  0  0  0  0  0  0
   -0.0571   10.8130   -2.0703 C   0  0  0  0  0  0  0  0  0  0  0  0
    0.1634   11.8669   -1.9191 H   0  0  0  0  0  0  0  0  0  0  0  0
   -1.0607   10.6143   -1.6944 H   0  0  0  0  0  0  0  0  0  0  0  0
   -0.0295   10.5845   -3.1328 H   0  0  0  0  0  0  0  0  0  0  0  0
    2.9529    6.1852   -2.1477 C   0  0  0  0  0  0  0  0  0  0  0  0
    3.3759    6.9151   -2.8212 H   0  0  0  0  0  0  0  0  0  0  0  0
    1.7050    5.6805   -0.1536 C   0  0  0  0  0  0  0  0  0  0  0  0
    1.1437    6.0150    0.7053 H   0  0  0  0  0  0  0  0  0  0  0  0
    5.3810    4.8409   -0.0348 C   0  0  0  0  0  0  0  0  0  0  0  0
    5.9708    4.4807   -0.8616 H   0  0  0  0  0  0  0  0  0  0  0  0
    3.8704    5.8292    2.0759 C   0  0  0  0  0  0  0  0  0  0  0  0
    3.2775    6.2220    2.8879 H   0  0  0  0  0  0  0  0  0  0  0  0
    5.1510    6.1997    0.0733 C   0  0  0  0  0  0  0  0  0  0  0  0
    5.5653    6.8772   -0.6576 H   0  0  0  0  0  0  0  0  0  0  0  0
    4.0943    4.4764    1.9640 C   0  0  0  0  0  0  0  0  0  0  0  0
    3.6911    3.7884    2.6899 H   0  0  0  0  0  0  0  0  0  0  0  0
    3.1372    4.8398   -2.3680 C   0  0  0  0  0  0  0  0  0  0  0  0
    3.6948    4.4924   -3.2232 H   0  0  0  0  0  0  0  0  0  0  0  0
    1.8811    4.3287   -0.3825 C   0  0  0  0  0  0  0  0  0  0  0  0
    1.4539    3.6272    0.3151 H   0  0  0  0  0  0  0  0  0  0  0  0
    4.8545    3.9660    0.9091 C   0  0  0  0  0  0  0  0  0  0  0  0
    2.6001    3.8948   -1.4908 C   0  0  0  0  0  0  0  0  0  0  0  0
    4.4007    6.7027    1.1272 C   0  0  0  0  0  0  0  0  0  0  0  0
    2.2331    6.6148   -1.0336 C   0  0  0  0  0  0  0  0  0  0  0  0
    4.7055   10.1108    2.2869 C   0  0  0  0  0  0  0  0  0  0  0  0
    4.9610    8.7156    2.1529 C   0  0  0  0  0  0  0  0  0  0  0  0
    0.9384    9.9861   -1.3298 C   0  0  0  0  0  0  0  0  0  0  0  0
    1.1086    8.5746   -1.5592 C   0  0  0  0  0  0  0  0  0  0  0  0
    5.0126    2.6148    0.8913 O   0  0  0  0  0  0  0  0  0  0  0  0
    2.8404    2.5924   -1.8017 O   0  0  0  0  0  0  0  0  0  0  0  0
    1.5882   11.7773   -0.1457 O   0  0  0  0  0  0  0  0  0  0  0  0
    3.4230   11.7804    1.5112 O   0  0  0  0  0  1  0  0  0  0  0  0
    2.3169   11.9878    0.5754 H   0  0  0  0  0  0  0  0  0  0  0  0
  1  6  1  0  0  0  0
  1  4  1  0  0  0  0
  1  2  1  0  0  0  0
  3  1  1  0  0  0  0
  4 59  1  0  0  0  0
  4 52  1  0  0  0  0
  5 58  1  0  0  0  0
  5  1  1  0  0  0  0
  6 53  1  0  0  0  0
  7  1  1  0  0  0  0
  8 11  1  0  0  0  0
  8 10  1  0  0  0  0
  8 56  1  0  0  0  0
  9  8  1  0  0  0  0
 12 15  1  0  0  0  0
 12 13  1  0  0  0  0
 14 12  1  0  0  0  0
 16 18  1  0  0  0  0
 16 19  1  0  0  0  0
 16 55  1  0  0  0  0
 17 16  1  0  0  0  0
 20 21  1  0  0  0  0
 20 23  1  0  0  0  0
 22 20  1  0  0  0  0
 24 26  1  0  0  0  0
 24 25  1  0  0  0  0
 27 24  1  0  0  0  0
 28 29  1  0  0  0  0
 28 30  1  0  0  0  0
 28 54  1  0  0  0  0
 31 28  1  0  0  0  0
 32 51  1  0  0  0  0
 33 32  1  0  0  0  0
 34 35  1  0  0  0  0
 36 40  2  0  0  0  0
 36 48  1  0  0  0  0
 37 36  1  0  0  0  0
 38 39  1  0  0  0  0
 40 50  1  0  0  0  0
 41 40  1  0  0  0  0
 42 38  1  0  0  0  0
 42 43  1  0  0  0  0
 44 32  2  0  0  0  0
 44 49  1  0  0  0  0
 45 44  1  0  0  0  0
 46 34  1  0  0  0  0
 46 47  1  0  0  0  0
 48 42  2  0  0  0  0
 49 46  2  0  0  0  0
 50  6  1  0  0  0  0
 50 38  2  0  0  0  0
 51  7  1  0  0  0  0
 51 34  2  0  0  0  0
 52 20  1  0  0  0  0
 53 52  2  0  0  0  0
 53 24  1  0  0  0  0
 54  5  1  0  0  0  0
 55 54  2  0  0  0  0
 55  7  1  0  0  0  0
 56 48  1  0  0  0  0
 57 49  1  0  0  0  0
 57 12  1  0  0  0  0
 58 60  1  0  0  0  0
M  END
$$$$
