CSD_code = AJUKAR | q = 1 | S = 0 | Stoichiometry = C36H24Cl2IrN4(1+) | MND = 6
 OpenBabel04212202003D

 67 76  0  0  1  0  0  0  0  0999 V2000
   -0.2891    0.3508    9.6758 Ir  0  0  0  0  0  0  0  0  0  0  0  0
    1.8599    0.7487   10.4443 Cl  0  0  0  0  0  0  0  0  0  0  0  0
    0.1842   -1.3798    8.2098 Cl  0  0  0  0  0  0  0  0  0  0  0  0
   -0.9939    1.8143   10.9810 N   0  0  0  0  0  0  0  0  0  0  0  0
   -0.5757   -0.7260   11.3939 N   0  0  0  0  0  0  0  0  0  0  0  0
   -0.2970    1.5776    8.0364 N   0  0  0  0  0  0  0  0  0  0  0  0
   -2.2864    0.2598    9.0879 N   0  0  0  0  0  0  0  0  0  0  0  0
   -1.0432    3.1469   10.7628 C   0  0  2  0  0  3  0  0  0  0  0  0
   -0.0182    3.7829   10.0341 C   0  0  0  0  0  0  0  0  0  0  0  0
   -0.0928    5.1240    9.7743 C   0  0  0  0  0  0  0  0  0  0  0  0
   -1.1846    5.8836   10.2252 C   0  0  0  0  0  0  0  0  0  0  0  0
   -2.1681    5.3019   10.9780 C   0  0  0  0  0  0  0  0  0  0  0  0
   -2.1130    3.9284   11.2849 C   0  0  0  0  0  0  0  0  0  0  0  0
   -3.0595    3.2790   12.1027 C   0  0  0  0  0  0  0  0  0  0  0  0
   -2.8883    1.9605   12.4256 C   0  0  0  0  0  0  0  0  0  0  0  0
   -1.8263    1.2397   11.8462 C   0  0  0  0  0  0  0  0  0  0  0  0
   -1.5190   -0.1588   12.1514 C   0  0  0  0  0  0  0  0  0  0  0  0
   -2.1125   -0.8371   13.2307 C   0  0  0  0  0  0  0  0  0  0  0  0
   -1.7156   -2.1122   13.5222 C   0  0  0  0  0  0  0  0  0  0  0  0
   -0.6629   -2.6957   12.7948 C   0  0  0  0  0  0  0  0  0  0  0  0
   -0.1616   -3.9774   13.0931 C   0  0  0  0  0  0  0  0  0  0  0  0
    0.8954   -4.4900   12.3926 C   0  0  0  0  0  0  0  0  0  0  0  0
    1.5022   -3.7295   11.3810 C   0  0  0  0  0  0  0  0  0  0  0  0
    1.0313   -2.4867   11.0524 C   0  0  0  0  0  0  0  0  0  0  0  0
   -0.0790   -1.9428   11.7297 C   0  0  2  0  0  3  0  0  0  0  0  0
    0.7505    2.0106    7.2913 C   0  0  0  0  0  0  0  0  0  0  0  0
    1.9979    1.3555    7.3409 C   0  0  0  0  0  0  0  0  0  0  0  0
    3.0550    1.8223    6.6069 C   0  0  0  0  0  0  0  0  0  0  0  0
    2.9263    2.9585    5.7930 C   0  0  0  0  0  0  0  0  0  0  0  0
    1.7204    3.5964    5.6944 C   0  0  0  0  0  3  0  0  0  0  0  0
    0.6060    3.1350    6.4213 C   0  0  0  0  0  0  0  0  0  0  0  0
   -0.6624    3.7323    6.3117 C   0  0  0  0  0  0  0  0  0  0  0  0
   -1.7219    3.1961    6.9886 C   0  0  0  0  0  0  0  0  0  0  0  0
   -1.5102    2.1063    7.8516 C   0  0  0  0  0  0  0  0  0  0  0  0
   -2.6136    1.4225    8.5285 C   0  0  0  0  0  0  0  0  0  0  0  0
   -3.9344    1.9088    8.5756 C   0  0  0  0  0  0  0  0  0  0  0  0
   -4.9012    1.1667    9.1972 C   0  0  0  0  0  0  0  0  0  0  0  0
   -4.5915   -0.1183    9.6862 C   0  0  0  0  0  0  0  0  0  0  0  0
   -5.5472   -0.9781   10.2616 C   0  0  0  0  0  0  0  0  0  0  0  0
   -5.1929   -2.2362   10.6662 C   0  0  0  0  0  0  0  0  0  0  0  0
   -3.8786   -2.6965   10.4838 C   0  0  0  0  0  0  0  0  0  0  0  0
   -2.9194   -1.8812    9.9483 C   0  0  0  0  0  0  0  0  0  0  0  0
   -3.2432   -0.5621    9.5723 C   0  0  1  0  0  3  0  0  0  0  0  0
    0.8396    3.2001    9.7366 H   0  0  0  0  0  0  0  0  0  0  0  0
    0.7026    5.6099    9.2306 H   0  0  0  0  0  0  0  0  0  0  0  0
   -1.2271    6.9374    9.9982 H   0  0  0  0  0  0  0  0  0  0  0  0
   -2.9878    5.8863   11.3676 H   0  0  0  0  0  0  0  0  0  0  0  0
   -3.8974    3.8387   12.4901 H   0  0  0  0  0  0  0  0  0  0  0  0
   -3.5805    1.4661   13.0858 H   0  0  0  0  0  0  0  0  0  0  0  0
   -2.8718   -0.3525   13.8202 H   0  0  0  0  0  0  0  0  0  0  0  0
   -2.1792   -2.6666   14.3241 H   0  0  0  0  0  0  0  0  0  0  0  0
   -0.6213   -4.5354   13.8948 H   0  0  0  0  0  0  0  0  0  0  0  0
    1.2781   -5.4715   12.6252 H   0  0  0  0  0  0  0  0  0  0  0  0
    2.3578   -4.1284   10.8593 H   0  0  0  0  0  0  0  0  0  0  0  0
    1.5160   -1.9045   10.2872 H   0  0  0  0  0  0  0  0  0  0  0  0
    2.1030    0.4724    7.9478 H   0  0  0  0  0  0  0  0  0  0  0  0
    4.0007    1.3054    6.6492 H   0  0  0  0  0  0  0  0  0  0  0  0
    3.7771    3.3127    5.2321 H   0  0  0  0  0  0  0  0  0  0  0  0
    1.5946    4.4525    5.0489 H   0  0  0  0  0  0  0  0  0  0  0  0
   -0.7926    4.5901    5.6695 H   0  0  0  0  0  0  0  0  0  0  0  0
   -2.7116    3.6012    6.8642 H   0  0  0  0  0  0  0  0  0  0  0  0
   -4.1706    2.8732    8.1588 H   0  0  0  0  0  0  0  0  0  0  0  0
   -5.9089    1.5417    9.2940 H   0  0  0  0  0  0  0  0  0  0  0  0
   -6.5653   -0.6312   10.3546 H   0  0  0  0  0  0  0  0  0  0  0  0
   -5.9295   -2.8939   11.1007 H   0  0  0  0  0  0  0  0  0  0  0  0
   -3.6294   -3.7104   10.7560 H   0  0  0  0  0  0  0  0  0  0  0  0
   -1.9206   -2.2409    9.7560 H   0  0  0  0  0  0  0  0  0  0  0  0
  1  2  1  0  0  0  0
  1  4  1  0  0  0  0
  1  5  1  0  0  0  0
  3  1  1  0  0  0  0
  4 16  1  0  0  0  0
  5 25  1  0  0  0  0
  5 17  1  0  0  0  0
  6  1  1  0  0  0  0
  7 43  1  0  0  0  0
  7  1  1  0  0  0  0
  8  9  1  1  0  0  0
  8  4  1  0  0  0  0
  8 13  1  0  0  0  0
 10  9  2  0  0  0  0
 10 11  1  0  0  0  0
 11 12  2  0  0  0  0
 12 13  1  0  0  0  0
 12 47  1  0  0  0  0
 13 14  2  0  0  0  0
 14 15  1  0  0  0  0
 14 48  1  0  0  0  0
 15 49  1  0  0  0  0
 16 17  1  0  0  0  0
 16 15  2  0  0  0  0
 17 18  2  0  0  0  0
 18 19  1  0  0  0  0
 18 50  1  0  0  0  0
 19 51  1  0  0  0  0
 20 21  1  0  0  0  0
 20 19  2  0  0  0  0
 21 52  1  0  0  0  0
 22 53  1  0  0  0  0
 22 21  2  0  0  0  0
 23 22  1  0  0  0  0
 24 23  2  0  0  0  0
 25 24  1  1  0  0  0
 25 20  1  0  0  0  0
 26 27  2  0  0  0  0
 26  6  1  0  0  0  0
 27 56  1  0  0  0  0
 28 57  1  0  0  0  0
 28 27  1  0  0  0  0
 29 28  2  0  0  0  0
 30 29  1  0  0  0  0
 30 31  1  0  0  0  0
 31 26  1  0  0  0  0
 32 31  2  0  0  0  0
 32 33  1  0  0  0  0
 33 34  2  0  0  0  0
 34  6  1  0  0  0  0
 34 35  1  0  0  0  0
 35 36  2  0  0  0  0
 35  7  1  0  0  0  0
 36 37  1  0  0  0  0
 37 63  1  0  0  0  0
 37 38  2  0  0  0  0
 38 39  1  0  0  0  0
 39 64  1  0  0  0  0
 39 40  2  0  0  0  0
 40 65  1  0  0  0  0
 41 40  1  0  0  0  0
 41 66  1  0  0  0  0
 42 41  2  0  0  0  0
 43 38  1  6  0  0  0
 43 42  1  0  0  0  0
 44  9  1  0  0  0  0
 45 10  1  0  0  0  0
 46 11  1  0  0  0  0
 54 23  1  0  0  0  0
 55 24  1  0  0  0  0
 58 29  1  0  0  0  0
 59 30  1  0  0  0  0
 60 32  1  0  0  0  0
 61 33  1  0  0  0  0
 62 36  1  0  0  0  0
 67 42  1  0  0  0  0
M  END
$$$$
