CSD_code = AJUZUB | q = 0 | S = 0 | Stoichiometry = C14H8Br2N2O6Os | MND = 6
 OpenBabel04212202003D

 33 35  0  0  1  0  0  0  0  0999 V2000
   -1.4973    6.6991    5.9515 Os  0  0  0  0  0  0  0  0  0  0  0  0
   -0.2703    6.5522    3.7226 Br  0  0  0  0  0  0  0  0  0  0  0  0
   -2.7376    6.4750    8.1675 Br  0  0  0  0  0  0  0  0  0  0  0  0
   -3.2343    9.0101    5.0318 O   0  0  0  0  0  1  0  0  0  0  0  0
    0.4117    8.7872    7.0466 O   0  0  0  0  0  1  0  0  0  0  0  0
    1.0144    0.2961    7.3217 O   0  0  0  0  0  0  0  0  0  0  0  0
    2.6389    1.5241    8.2426 O   0  0  0  0  0  0  0  0  0  0  0  0
    3.0250    0.6606    8.4600 H   0  0  0  0  0  0  0  0  0  0  0  0
   -4.5407    0.6359    4.1741 O   0  0  0  0  0  0  0  0  0  0  0  0
   -6.0539    2.0545    3.3417 O   0  0  0  0  0  0  0  0  0  0  0  0
   -6.5142    1.2426    3.0753 H   0  0  0  0  0  0  0  0  0  0  0  0
   -0.4192    5.0349    6.5276 N   0  0  0  0  0  0  0  0  0  0  0  0
   -2.7026    5.1740    5.2547 N   0  0  0  0  0  0  0  0  0  0  0  0
   -2.5818    8.1381    5.3758 C   0  0  0  0  0  2  0  0  0  0  0  0
   -0.3058    7.9994    6.6356 C   0  0  0  0  0  2  0  0  0  0  0  0
    0.7437    5.0455    7.1772 C   0  0  0  0  0  3  0  0  0  0  0  0
    1.1610    6.0165    7.4120 H   0  0  0  0  0  0  0  0  0  0  0  0
    1.4142    3.8974    7.5502 C   0  0  0  0  0  0  0  0  0  0  0  0
    2.3526    3.9548    8.0757 H   0  0  0  0  0  0  0  0  0  0  0  0
    0.8467    2.6662    7.2314 C   0  0  0  0  0  0  0  0  0  0  0  0
   -0.3639    2.6459    6.5524 C   0  0  0  0  0  0  0  0  0  0  0  0
   -0.8017    1.6925    6.3061 H   0  0  0  0  0  0  0  0  0  0  0  0
   -0.9759    3.8471    6.2120 C   0  0  0  0  0  0  0  0  0  0  0  0
   -2.2528    3.9250    5.4958 C   0  0  2  0  0  3  0  0  0  0  0  0
   -2.9659    2.8049    5.0833 C   0  0  0  0  0  0  0  0  0  0  0  0
   -2.6147    1.8037    5.2714 H   0  0  0  0  0  0  0  0  0  0  0  0
   -4.1671    2.9723    4.4080 C   0  0  0  0  0  0  0  0  0  0  0  0
   -4.6219    4.2656    4.1626 C   0  0  0  0  0  0  0  0  0  0  0  0
   -5.5485    4.4367    3.6411 H   0  0  0  0  0  0  0  0  0  0  0  0
   -3.8555    5.3258    4.6048 C   0  0  0  0  0  0  0  0  0  0  0  0
   -4.1840    6.3421    4.4279 H   0  0  0  0  0  0  0  0  0  0  0  0
    1.4865    1.3685    7.5904 C   0  0  0  0  0  0  0  0  0  0  0  0
   -4.9180    1.7597    3.9746 C   0  0  0  0  0  0  0  0  0  0  0  0
  1 12  1  0  0  0  0
  1 15  1  0  0  0  0
  1  3  1  0  0  0  0
  2  1  1  0  0  0  0
  4 14  1  0  0  0  0
  6 32  2  0  0  0  0
  7  8  1  0  0  0  0
 10 33  1  0  0  0  0
 11 10  1  0  0  0  0
 12 16  1  0  0  0  0
 13 24  1  0  0  0  0
 13  1  1  0  0  0  0
 14  1  1  0  0  0  0
 15  5  1  0  0  0  0
 16 17  1  0  0  0  0
 16 18  1  0  0  0  0
 18 19  1  0  0  0  0
 20 18  2  0  0  0  0
 20 32  1  0  0  0  0
 21 20  1  0  0  0  0
 22 21  1  0  0  0  0
 23 12  1  0  0  0  0
 23 21  2  0  0  0  0
 24 25  1  6  0  0  0
 24 23  1  0  0  0  0
 25 26  1  0  0  0  0
 27 25  2  0  0  0  0
 28 27  1  0  0  0  0
 28 30  2  0  0  0  0
 29 28  1  0  0  0  0
 30 13  1  0  0  0  0
 31 30  1  0  0  0  0
 32  7  1  0  0  0  0
 33  9  2  0  0  0  0
 33 27  1  0  0  0  0
M  END
$$$$
