CSD_code = AKAGID | q = 0 | S = 0 | Stoichiometry = C16H31Cl2N3Ti | MND = 5
 OpenBabel04212202003D

 53 53  0  0  0  0  0  0  0  0999 V2000
    1.7765    3.0852    5.4465 C   0  0  0  0  0  0  0  0  0  0  0  0
    2.9304    3.8773    5.1878 C   0  0  0  0  0  0  0  0  0  0  0  0
    3.8809    4.0350    6.1752 C   0  0  0  0  0  0  0  0  0  0  0  0
    4.7679    4.6190    5.9812 H   0  0  0  0  0  0  0  0  0  0  0  0
    3.7214    3.4544    7.4244 C   0  0  0  0  0  0  0  0  0  0  0  0
    4.4800    3.5851    8.1819 H   0  0  0  0  0  0  0  0  0  0  0  0
    2.5823    2.7176    7.7001 C   0  0  0  0  0  0  0  0  0  0  0  0
    2.4600    2.2819    8.6817 H   0  0  0  0  0  0  0  0  0  0  0  0
    1.6033    2.5301    6.7440 C   0  0  0  0  0  0  0  0  0  0  0  0
    0.3487    1.7410    7.0390 C   0  0  0  0  0  0  0  0  0  0  0  0
   -0.3074    1.8377    6.1562 H   0  0  0  0  0  0  0  0  0  0  0  0
   -0.4006    2.3079    8.2462 C   0  0  0  0  0  0  0  0  0  0  0  0
    0.1826    2.1958    9.1573 H   0  0  0  0  0  0  0  0  0  0  0  0
   -1.3467    1.7867    8.3773 H   0  0  0  0  0  0  0  0  0  0  0  0
   -0.6068    3.3651    8.0959 H   0  0  0  0  0  0  0  0  0  0  0  0
    0.6715    0.2592    7.2571 C   0  0  0  0  0  0  0  0  0  0  0  0
    1.2516   -0.1342    6.4233 H   0  0  0  0  0  0  0  0  0  0  0  0
   -0.2454   -0.3199    7.3574 H   0  0  0  0  0  0  0  0  0  0  0  0
    1.2578    0.1292    8.1644 H   0  0  0  0  0  0  0  0  0  0  0  0
    3.0617    4.4886    3.8109 C   0  0  0  0  0  0  0  0  0  0  0  0
    2.0427    4.7508    3.4785 H   0  0  0  0  0  0  0  0  0  0  0  0
    3.9258    5.7469    3.7762 C   0  0  0  0  0  0  0  0  0  0  0  0
    3.6121    6.4530    4.5421 H   0  0  0  0  0  0  0  0  0  0  0  0
    3.8387    6.2285    2.8041 H   0  0  0  0  0  0  0  0  0  0  0  0
    4.9734    5.5023    3.9340 H   0  0  0  0  0  0  0  0  0  0  0  0
    3.5989    3.4380    2.8323 C   0  0  0  0  0  0  0  0  0  0  0  0
    4.5562    3.0527    3.1778 H   0  0  0  0  0  0  0  0  0  0  0  0
    3.7313    3.8721    1.8432 H   0  0  0  0  0  0  0  0  0  0  0  0
    2.8855    2.6159    2.7585 H   0  0  0  0  0  0  0  0  0  0  0  0
    1.4771   -0.0751    3.3641 C   0  0  0  0  0  0  0  0  0  0  0  0
    1.6146   -1.1556    3.5145 H   0  0  0  0  0  0  0  0  0  0  0  0
    2.0756    0.4747    4.0947 H   0  0  0  0  0  0  0  0  0  0  0  0
    1.8215    0.1852    2.3594 H   0  0  0  0  0  0  0  0  0  0  0  0
   -0.7693   -0.4354    2.5615 C   0  0  0  0  0  0  0  0  0  0  0  0
   -0.4980   -0.1596    1.5383 H   0  0  0  0  0  0  0  0  0  0  0  0
   -1.8203   -0.1880    2.7324 H   0  0  0  0  0  0  0  0  0  0  0  0
   -0.6380   -1.5206    2.6786 H   0  0  0  0  0  0  0  0  0  0  0  0
   -1.2377    5.1860    4.1783 C   0  0  0  0  0  0  0  0  0  0  0  0
   -1.5159    6.2212    3.9342 H   0  0  0  0  0  0  0  0  0  0  0  0
   -0.3550    5.1860    4.8234 H   0  0  0  0  0  0  0  0  0  0  0  0
   -2.0635    4.7153    4.7191 H   0  0  0  0  0  0  0  0  0  0  0  0
   -2.0902    4.4287    2.0477 C   0  0  0  0  0  0  0  0  0  0  0  0
   -2.9472    3.9392    2.5184 H   0  0  0  0  0  0  0  0  0  0  0  0
   -1.8283    3.8901    1.1329 H   0  0  0  0  0  0  0  0  0  0  0  0
   -2.3758    5.4570    1.7838 H   0  0  0  0  0  0  0  0  0  0  0  0
    0.8766    2.8710    4.4889 N   0  0  0  0  0  2  0  0  0  0  0  0
    0.0720    0.3082    3.4999 N   0  0  0  0  0  4  0  0  0  0  0  0
   -0.2317    0.0732    4.4525 H   0  0  0  0  0  0  0  0  0  0  0  0
   -0.9563    4.4087    2.9711 N   0  0  0  0  0  4  0  0  0  0  0  0
   -0.1526    4.8332    2.4924 H   0  0  0  0  0  0  0  0  0  0  0  0
    0.4061    2.3624    1.2246 Cl  0  0  0  0  0  0  0  0  0  0  0  0
   -2.3417    1.9605    4.2241 Cl  0  0  0  0  0  0  0  0  0  0  0  0
   -0.2964    2.4112    3.3712 Ti  0  0  0  0  0  0  0  0  0  0  0  0
  1  9  1  0  0  0  0
  2  1  2  0  0  0  0
  2  3  1  0  0  0  0
  3  5  2  0  0  0  0
  4  3  1  0  0  0  0
  5  7  1  0  0  0  0
  5  6  1  0  0  0  0
  7  8  1  0  0  0  0
  9 10  1  0  0  0  0
  9  7  2  0  0  0  0
 10 16  1  0  0  0  0
 10 12  1  0  0  0  0
 11 10  1  0  0  0  0
 12 14  1  0  0  0  0
 12 13  1  0  0  0  0
 15 12  1  0  0  0  0
 16 18  1  0  0  0  0
 16 19  1  0  0  0  0
 17 16  1  0  0  0  0
 20  2  1  0  0  0  0
 21 20  1  0  0  0  0
 22 20  1  0  0  0  0
 22 25  1  0  0  0  0
 22 23  1  0  0  0  0
 24 22  1  0  0  0  0
 26 27  1  0  0  0  0
 26 20  1  0  0  0  0
 28 26  1  0  0  0  0
 29 26  1  0  0  0  0
 30 47  1  0  0  0  0
 30 31  1  0  0  0  0
 30 32  1  0  0  0  0
 33 30  1  0  0  0  0
 34 37  1  0  0  0  0
 34 36  1  0  0  0  0
 34 47  1  0  0  0  0
 35 34  1  0  0  0  0
 38 41  1  0  0  0  0
 38 40  1  0  0  0  0
 39 38  1  0  0  0  0
 42 43  1  0  0  0  0
 42 49  1  0  0  0  0
 44 42  1  0  0  0  0
 45 42  1  0  0  0  0
 46  1  1  0  0  0  0
 47 48  1  0  0  0  0
 49 53  1  0  0  0  0
 49 38  1  0  0  0  0
 50 49  1  0  0  0  0
 51 53  1  0  0  0  0
 53 47  1  0  0  0  0
 53 52  1  0  0  0  0
 53 46  1  0  0  0  0
M  END
$$$$
