CSD_code = AKANEG | q = 0 | S = 0 | Stoichiometry = C16H21ClN6Zn | MND = 4
 OpenBabel04212202003D

 45 49  0  0  1  0  0  0  0  0999 V2000
    5.9049    6.4543   11.6950 Zn  0  0  1  0  0  0  0  0  0  0  0  0
    6.2238    8.5666   11.5471 Cl  0  0  0  0  0  0  0  0  0  0  0  0
    6.2362    3.9051   10.7039 N   0  0  0  0  0  0  0  0  0  0  0  0
    6.5704    5.1616   10.3300 N   0  0  2  0  0  0  0  0  0  0  0  0
    6.5716    5.3590   13.2216 N   0  0  2  0  0  0  0  0  0  0  0  0
    6.2030    4.0698   13.0419 N   0  0  0  0  0  0  0  0  0  0  0  0
    4.0899    5.6310   11.7569 N   0  0  2  0  0  0  0  0  0  0  0  0
    4.2117    4.2853   11.8242 N   0  0  0  0  0  0  0  0  0  0  0  0
    7.2561    5.0758    9.1973 C   0  0  1  0  0  3  0  0  0  0  0  0
    7.3670    3.7315    8.8308 C   0  0  0  0  0  0  0  0  0  0  0  0
    6.7056    3.0168    9.8130 C   0  0  0  0  0  0  0  0  0  0  0  0
    7.7794    6.2806    8.5047 C   0  0  0  0  0  0  0  0  0  0  0  0
    6.5066    1.5534    9.9589 C   0  0  0  0  0  0  0  0  0  0  0  0
    7.2245    5.4346   14.3742 C   0  0  1  0  0  3  0  0  0  0  0  0
    7.2797    4.1632   14.9524 C   0  0  0  0  0  0  0  0  0  0  0  0
    6.6200    3.3211   14.0757 C   0  0  0  0  0  0  0  0  0  0  0  0
    7.7721    6.7185   14.8810 C   0  0  0  0  0  0  0  0  0  0  0  0
    6.3548    1.8638   14.1680 C   0  0  0  0  0  0  0  0  0  0  0  0
    2.7946    5.9171   11.7241 C   0  0  1  0  0  3  0  0  0  0  0  0
    2.0624    4.7274   11.7712 C   0  0  0  0  0  0  0  0  0  0  0  0
    2.9980    3.7108   11.8350 C   0  0  0  0  0  0  0  0  0  0  0  0
    2.3032    7.3167   11.6543 C   0  0  0  0  0  0  0  0  0  0  0  0
    2.8076    2.2401   11.8917 C   0  0  0  0  0  0  0  0  0  0  0  0
    5.4744    3.5819   11.8908 C   0  0  1  0  0  3  0  0  0  0  0  0
    7.8610    3.3369    7.9667 H   0  0  0  0  0  0  0  0  0  0  0  0
    8.8614    6.2163    8.4007 H   0  0  0  0  0  0  0  0  0  0  0  0
    7.3476    6.3610    7.5082 H   0  0  0  0  0  0  0  0  0  0  0  0
    7.5286    7.1729    9.0739 H   0  0  0  0  0  0  0  0  0  0  0  0
    6.4359    1.0860    8.9804 H   0  0  0  0  0  0  0  0  0  0  0  0
    7.3493    1.1108   10.4897 H   0  0  0  0  0  0  0  0  0  0  0  0
    5.6011    1.3631   10.5286 H   0  0  0  0  0  0  0  0  0  0  0  0
    7.7397    3.8961   15.8817 H   0  0  0  0  0  0  0  0  0  0  0  0
    7.3406    6.9560   15.8521 H   0  0  0  0  0  0  0  0  0  0  0  0
    8.8525    6.6488   14.9982 H   0  0  0  0  0  0  0  0  0  0  0  0
    7.5409    7.5201   14.1830 H   0  0  0  0  0  0  0  0  0  0  0  0
    7.1663    1.3683   14.6941 H   0  0  0  0  0  0  0  0  0  0  0  0
    5.4306    1.6841   14.7168 H   0  0  0  0  0  0  0  0  0  0  0  0
    6.2499    1.4480   13.1695 H   0  0  0  0  0  0  0  0  0  0  0  0
    0.9966    4.6248   11.7617 H   0  0  0  0  0  0  0  0  0  0  0  0
    1.6479    7.4452   10.7946 H   0  0  0  0  0  0  0  0  0  0  0  0
    1.7371    7.5627   12.5515 H   0  0  0  0  0  0  0  0  0  0  0  0
    3.1448    8.0005   11.5688 H   0  0  0  0  0  0  0  0  0  0  0  0
    1.8918    2.0016   12.4258 H   0  0  0  0  0  0  0  0  0  0  0  0
    3.6583    1.7807   12.3878 H   0  0  0  0  0  0  0  0  0  0  0  0
    2.7326    1.8320   10.8840 H   0  0  0  0  0  0  0  0  0  0  0  0
  1  2  1  6  0  0  0
  1  7  1  0  0  0  0
  1  5  1  0  0  0  0
  4  3  1  1  0  0  0
  4  1  1  0  0  0  0
  5  6  1  1  0  0  0
  5 14  1  0  0  0  0
  6 16  1  0  0  0  0
  7  8  1  6  0  0  0
  8 21  1  0  0  0  0
  8 24  1  0  0  0  0
  9 12  1  6  0  0  0
  9  4  1  0  0  0  0
 10  9  1  0  0  0  0
 10 11  2  0  0  0  0
 11 13  1  0  0  0  0
 11  3  1  0  0  0  0
 12 28  1  0  0  0  0
 13 30  1  0  0  0  0
 13 31  1  0  0  0  0
 14 17  1  6  0  0  0
 14 15  1  0  0  0  0
 15 32  1  0  0  0  0
 16 18  1  0  0  0  0
 16 15  2  0  0  0  0
 17 34  1  0  0  0  0
 17 33  1  0  0  0  0
 18 36  1  0  0  0  0
 18 37  1  0  0  0  0
 19 22  1  1  0  0  0
 19  7  1  0  0  0  0
 19 20  1  0  0  0  0
 20 21  2  0  0  0  0
 21 23  1  0  0  0  0
 22 41  1  0  0  0  0
 23 44  1  0  0  0  0
 23 43  1  0  0  0  0
 24  3  1  6  0  0  0
 24  6  1  0  0  0  0
 25 10  1  0  0  0  0
 26 12  1  0  0  0  0
 27 12  1  0  0  0  0
 29 13  1  0  0  0  0
 35 17  1  0  0  0  0
 38 18  1  0  0  0  0
 39 20  1  0  0  0  0
 40 22  1  0  0  0  0
 42 22  1  0  0  0  0
 45 23  1  0  0  0  0
M  END
$$$$
