CSD_code = AKAZOC | q = 1 | S = 0 | Stoichiometry = C40H48BrFeN4(1+) | MND = 5
 OpenBabel04212202003D

 94107  0  0  1  0  0  0  0  0999 V2000
    4.6517    6.3608    2.9850 Br  0  0  0  0  0  0  0  0  0  0  0  0
    4.6850    4.2404    3.8292 Fe  0  0  0  0  0  0  0  0  0  0  0  0
    1.4403    5.6094    4.8597 C   0  0  0  0  0  0  0  0  0  0  0  0
    2.3256    5.9717    4.3420 H   0  0  0  0  0  0  0  0  0  0  0  0
    0.6157    5.5845    4.1452 H   0  0  0  0  0  0  0  0  0  0  0  0
    6.4603    4.1547    4.6403 N   0  0  0  0  0  0  0  0  0  0  0  0
    5.2861    3.2002    2.2829 N   0  0  0  0  0  0  0  0  0  0  0  0
    4.0961    4.5306    5.6743 N   0  0  0  0  0  0  0  0  0  0  0  0
    1.6857    4.1673    5.3611 C   0  0  0  0  0  0  0  0  0  0  0  0
    7.5356    3.1810    6.4407 C   0  0  0  0  0  3  0  0  0  0  0  0
    7.8030    2.9218    7.4449 H   0  0  0  0  0  0  0  0  0  0  0  0
    6.0903    6.7309    6.2199 C   0  0  0  0  0  0  0  0  0  0  0  0
    5.6971    6.6622    5.2133 H   0  0  0  0  0  0  0  0  0  0  0  0
    7.0952    7.1551    6.1641 H   0  0  0  0  0  0  0  0  0  0  0  0
    4.1090    4.4803   -0.8488 C   0  0  0  0  0  0  0  0  0  0  0  0
    4.1310    5.5205   -1.1707 H   0  0  0  0  0  0  0  0  0  0  0  0
    5.1300    4.1877   -0.5954 H   0  0  0  0  0  0  0  0  0  0  0  0
    7.9018    4.6168    2.1010 C   0  0  0  0  0  0  0  0  0  0  0  0
    7.0010    5.2110    2.2368 H   0  0  0  0  0  0  0  0  0  0  0  0
    8.7186    5.1135    2.6275 H   0  0  0  0  0  0  0  0  0  0  0  0
    7.7021    3.2194    2.7324 C   0  0  0  0  0  0  0  0  0  0  0  0
    6.5020    4.1300    6.0606 C   0  0  2  0  0  0  0  0  0  0  0  0
    7.4426    3.3956    4.2051 C   0  0  0  0  0  0  0  0  0  0  0  0
    0.4538    3.6918    6.1430 C   0  0  0  0  0  0  0  0  0  0  0  0
   -0.3830    3.6326    5.4439 H   0  0  0  0  0  0  0  0  0  0  0  0
    0.6242    2.6919    6.5478 H   0  0  0  0  0  0  0  0  0  0  0  0
    3.4846    2.1426   -1.4858 C   0  0  0  0  0  0  0  0  0  0  0  0
    3.0569    1.5137   -2.2672 H   0  0  0  0  0  0  0  0  0  0  0  0
    4.4867    1.7677   -1.2622 H   0  0  0  0  0  0  0  0  0  0  0  0
    5.0894    4.3434    6.6737 C   0  0  1  0  0  0  0  0  0  0  0  0
    2.9217    3.5699    3.3190 N   0  0  0  0  0  0  0  0  0  0  0  0
    1.9569    3.2895    4.1683 C   0  0  0  0  0  0  0  0  0  0  0  0
    6.7697    5.4860    8.2650 C   0  0  0  0  0  0  0  0  0  0  0  0
    7.7682    5.9215    8.1837 H   0  0  0  0  0  0  0  0  0  0  0  0
    6.8673    4.5141    8.7468 H   0  0  0  0  0  0  0  0  0  0  0  0
    6.1856    5.3783    6.8718 C   0  0  0  0  0  0  0  0  0  0  0  0
    4.4621    3.6157    7.7656 C   0  0  0  0  0  3  0  0  0  0  0  0
    4.9546    3.2875    8.6585 H   0  0  0  0  0  0  0  0  0  0  0  0
    4.3097    2.3498    1.6963 C   0  0  1  0  0  0  0  0  0  0  0  0
    3.1862    2.9340    0.8546 C   0  0  0  0  0  0  0  0  0  0  0  0
    5.8889    6.4004    9.1222 C   0  0  0  0  0  0  0  0  0  0  0  0
    4.9005    5.9465    9.2312 H   0  0  0  0  0  0  0  0  0  0  0  0
    6.3285    6.4913   10.1160 H   0  0  0  0  0  0  0  0  0  0  0  0
    1.0865    6.5449    6.0084 C   0  0  0  0  0  0  0  0  0  0  0  0
    1.9182    6.5892    6.7156 H   0  0  0  0  0  0  0  0  0  0  0  0
    0.9312    7.5483    5.6121 H   0  0  0  0  0  0  0  0  0  0  0  0
    3.2329    4.3676    0.4002 C   0  0  0  0  0  0  0  0  0  0  0  0
    3.6126    5.0202    1.1762 H   0  0  0  0  0  0  0  0  0  0  0  0
    2.2153    4.6826    0.1589 H   0  0  0  0  0  0  0  0  0  0  0  0
    8.9553    2.3705    2.4786 C   0  0  0  0  0  0  0  0  0  0  0  0
    8.8169    1.3623    2.8747 H   0  0  0  0  0  0  0  0  0  0  0  0
    9.7856    2.8318    3.0174 H   0  0  0  0  0  0  0  0  0  0  0  0
   -0.1663    6.0579    6.7260 C   0  0  0  0  0  0  0  0  0  0  0  0
   -0.4178    6.7325    7.5449 H   0  0  0  0  0  0  0  0  0  0  0  0
   -1.0062    6.0496    6.0289 H   0  0  0  0  0  0  0  0  0  0  0  0
    2.6176    2.0394   -0.2270 C   0  0  0  0  0  0  0  0  0  0  0  0
    2.5533    0.9994    0.0901 H   0  0  0  0  0  0  0  0  0  0  0  0
    1.6064    2.3824   -0.4575 H   0  0  0  0  0  0  0  0  0  0  0  0
    6.4436    2.5797    2.2128 C   0  0  0  0  0  0  0  0  0  0  0  0
    3.1498    3.4997    7.4549 C   0  0  0  0  0  0  0  0  0  0  0  0
    2.3920    3.0384    8.0556 H   0  0  0  0  0  0  0  0  0  0  0  0
    1.2988    2.0678    3.8126 C   0  0  0  0  0  0  0  0  0  0  0  0
    0.4841    1.6178    4.3432 H   0  0  0  0  0  0  0  0  0  0  0  0
    2.9557    4.0957    6.1643 C   0  0  0  0  0  0  0  0  0  0  0  0
    4.9693    1.0890    1.3956 C   0  0  0  0  0  3  0  0  0  0  0  0
    4.4963    0.2234    0.9778 H   0  0  0  0  0  0  0  0  0  0  0  0
    5.7510    7.7758    8.4787 C   0  0  0  0  0  0  0  0  0  0  0  0
    6.7276    8.2621    8.4458 H   0  0  0  0  0  0  0  0  0  0  0  0
    5.0890    8.3986    9.0810 H   0  0  0  0  0  0  0  0  0  0  0  0
    1.8960    1.5945    2.6931 C   0  0  0  0  0  3  0  0  0  0  0  0
    1.6480    0.7085    2.1448 H   0  0  0  0  0  0  0  0  0  0  0  0
    2.8969    2.5747    2.3050 C   0  0  2  0  0  0  0  0  0  0  0  0
    6.2808    1.2549    1.6867 C   0  0  0  0  0  0  0  0  0  0  0  0
    7.0578    0.5284    1.5591 H   0  0  0  0  0  0  0  0  0  0  0  0
    8.1318    2.7726    5.2955 C   0  0  0  0  0  0  0  0  0  0  0  0
    8.9656    2.1052    5.2101 H   0  0  0  0  0  0  0  0  0  0  0  0
    0.0688    4.6530    7.2678 C   0  0  0  0  0  0  0  0  0  0  0  0
   -0.8345    4.2818    7.7544 H   0  0  0  0  0  0  0  0  0  0  0  0
    0.8581    4.6952    8.0201 H   0  0  0  0  0  0  0  0  0  0  0  0
    9.5165    3.7023    0.4209 C   0  0  0  0  0  0  0  0  0  0  0  0
    9.7586    3.6350   -0.6401 H   0  0  0  0  0  0  0  0  0  0  0  0
   10.3483    4.1992    0.9235 H   0  0  0  0  0  0  0  0  0  0  0  0
    3.5748    3.5880   -1.9627 C   0  0  0  0  0  0  0  0  0  0  0  0
    4.2278    3.6474   -2.8339 H   0  0  0  0  0  0  0  0  0  0  0  0
    2.5846    3.9345   -2.2641 H   0  0  0  0  0  0  0  0  0  0  0  0
    9.3262    2.3042    0.9970 C   0  0  0  0  0  0  0  0  0  0  0  0
   10.2448    1.7252    0.8896 H   0  0  0  0  0  0  0  0  0  0  0  0
    8.5446    1.7953    0.4305 H   0  0  0  0  0  0  0  0  0  0  0  0
    5.1997    7.6445    7.0641 C   0  0  0  0  0  0  0  0  0  0  0  0
    5.1423    8.6209    6.5850 H   0  0  0  0  0  0  0  0  0  0  0  0
    4.1907    7.2284    7.0958 H   0  0  0  0  0  0  0  0  0  0  0  0
    8.2426    4.5142    0.6201 C   0  0  0  0  0  0  0  0  0  0  0  0
    7.4181    4.0364    0.0855 H   0  0  0  0  0  0  0  0  0  0  0  0
    8.3655    5.5188    0.2153 H   0  0  0  0  0  0  0  0  0  0  0  0
  1  2  1  0  0  0  0
  2  6  1  0  0  0  0
  2  8  1  0  0  0  0
  3  9  1  0  0  0  0
  3 44  1  0  0  0  0
  4  3  1  0  0  0  0
  5  3  1  0  0  0  0
  6 22  1  0  0  0  0
  7  2  1  0  0  0  0
  8 64  1  0  0  0  0
  8 30  1  0  0  0  0
  9 24  1  0  0  0  0
  9 64  1  0  0  0  0
 10 11  1  0  0  0  0
 12 36  1  0  0  0  0
 12 89  1  0  0  0  0
 13 12  1  0  0  0  0
 14 12  1  0  0  0  0
 15 17  1  0  0  0  0
 15 47  1  0  0  0  0
 16 15  1  0  0  0  0
 18 19  1  0  0  0  0
 18 20  1  0  0  0  0
 18 21  1  0  0  0  0
 21 23  1  0  0  0  0
 22 10  1  1  0  0  0
 22 30  1  0  0  0  0
 22 36  1  0  0  0  0
 23  6  1  0  0  0  0
 23 75  2  0  0  0  0
 24 26  1  0  0  0  0
 24 77  1  0  0  0  0
 25 24  1  0  0  0  0
 27 29  1  0  0  0  0
 27 56  1  0  0  0  0
 28 27  1  0  0  0  0
 30 36  1  0  0  0  0
 30 37  1  1  0  0  0
 31  2  1  0  0  0  0
 31 32  1  0  0  0  0
 32  9  1  0  0  0  0
 33 35  1  0  0  0  0
 33 41  1  0  0  0  0
 34 33  1  0  0  0  0
 36 33  1  0  0  0  0
 37 38  1  0  0  0  0
 39 65  1  6  0  0  0
 39  7  1  0  0  0  0
 39 72  1  0  0  0  0
 40 39  1  0  0  0  0
 40 72  1  0  0  0  0
 41 42  1  0  0  0  0
 41 43  1  0  0  0  0
 44 45  1  0  0  0  0
 44 53  1  0  0  0  0
 46 44  1  0  0  0  0
 47 40  1  0  0  0  0
 47 48  1  0  0  0  0
 49 47  1  0  0  0  0
 50 21  1  0  0  0  0
 50 51  1  0  0  0  0
 50 52  1  0  0  0  0
 53 77  1  0  0  0  0
 53 54  1  0  0  0  0
 55 53  1  0  0  0  0
 56 57  1  0  0  0  0
 56 40  1  0  0  0  0
 58 56  1  0  0  0  0
 59  7  1  0  0  0  0
 59 21  1  0  0  0  0
 60 37  1  0  0  0  0
 60 61  1  0  0  0  0
 62 32  2  0  0  0  0
 62 63  1  0  0  0  0
 64 60  2  0  0  0  0
 65 73  1  0  0  0  0
 66 65  1  0  0  0  0
 67 69  1  0  0  0  0
 67 41  1  0  0  0  0
 68 67  1  0  0  0  0
 70 62  1  0  0  0  0
 71 70  1  0  0  0  0
 72 70  1  1  0  0  0
 72 31  1  0  0  0  0
 73 59  2  0  0  0  0
 74 73  1  0  0  0  0
 75 10  1  0  0  0  0
 76 75  1  0  0  0  0
 77 78  1  0  0  0  0
 77 79  1  0  0  0  0
 80 92  1  0  0  0  0
 80 82  1  0  0  0  0
 80 86  1  0  0  0  0
 81 80  1  0  0  0  0
 83 27  1  0  0  0  0
 83 15  1  0  0  0  0
 84 83  1  0  0  0  0
 85 83  1  0  0  0  0
 86 50  1  0  0  0  0
 87 86  1  0  0  0  0
 88 86  1  0  0  0  0
 89 91  1  0  0  0  0
 89 67  1  0  0  0  0
 90 89  1  0  0  0  0
 92 18  1  0  0  0  0
 93 92  1  0  0  0  0
 94 92  1  0  0  0  0
M  END
$$$$
