CSD_code = AKERIR | q = 0 | S = 0 | Stoichiometry = C28H24Cl2N2OPRe | MND = 6
 OpenBabel04212202003D

 59 64  0  0  1  0  0  0  0  0999 V2000
   -4.9433   -2.7217   -3.4730 Re  0  0  0  0  0  0  0  0  0  0  0  0
   -4.2888   -2.7371   -5.6726 Cl  0  0  0  0  0  0  0  0  0  0  0  0
   -6.4558   -1.0560   -3.9737 Cl  0  0  0  0  0  0  0  0  0  0  0  0
   -3.1258   -4.3815   -2.8986 P   0  0  0  0  0  4  0  0  0  0  0  0
   -5.8970   -4.0959   -3.4099 O   0  0  0  0  0  1  0  0  0  0  0  0
   -5.2262   -2.1363   -1.3725 N   0  0  0  0  0  0  0  0  0  0  0  0
   -3.5181   -1.3491   -3.1460 N   0  0  0  0  0  0  0  0  0  0  0  0
   -6.1919   -2.5140   -0.5527 C   0  0  0  0  0  0  0  0  0  0  0  0
   -6.1466   -2.1546    0.8098 C   0  0  0  0  0  0  0  0  0  0  0  0
   -5.1325   -1.3815    1.3003 C   0  0  0  0  0  0  0  0  0  0  0  0
   -4.1263   -0.9238    0.4244 C   0  0  0  0  0  0  0  0  0  0  0  0
   -3.0442   -0.1065    0.7959 C   0  0  0  0  0  0  0  0  0  0  0  0
   -2.1239    0.2885   -0.1478 C   0  0  0  0  0  0  0  0  0  0  0  0
   -2.2285   -0.0982   -1.4800 C   0  0  0  0  0  0  0  0  0  0  0  0
   -3.2777   -0.9149   -1.8954 C   0  0  0  0  0  0  0  0  0  0  0  0
   -4.2320   -1.3417   -0.9220 C   0  0  2  0  0  3  0  0  0  0  0  0
   -7.3428   -3.2908   -1.0814 C   0  0  0  0  0  0  0  0  0  0  0  0
   -3.4093   -4.9880   -1.2147 C   0  0  0  0  0  0  0  0  0  0  0  0
   -3.0727   -4.1903   -0.1219 C   0  0  0  0  0  0  0  0  0  0  0  0
   -3.4321   -4.5753    1.1556 C   0  0  0  0  0  0  0  0  0  0  0  0
   -4.1390   -5.7506    1.3547 C   0  0  0  0  0  0  0  0  0  0  0  0
   -4.4849   -6.5417    0.2713 C   0  0  0  0  0  0  0  0  0  0  0  0
   -4.1280   -6.1624   -1.0100 C   0  0  0  0  0  0  0  0  0  0  0  0
   -3.0603   -5.8804   -3.9231 C   0  0  0  0  0  0  0  0  0  0  0  0
   -4.0993   -6.1800   -4.7960 C   0  0  0  0  0  0  0  0  0  0  0  0
   -4.0348   -7.3221   -5.5750 C   0  0  0  0  0  0  0  0  0  0  0  0
   -2.9373   -8.1622   -5.4860 C   0  0  0  0  0  0  0  0  0  0  0  0
   -1.9003   -7.8640   -4.6152 C   0  0  0  0  0  0  0  0  0  0  0  0
   -1.9566   -6.7252   -3.8341 C   0  0  0  0  0  0  0  0  0  0  0  0
   -1.4203   -3.7731   -2.9846 C   0  0  0  0  0  0  0  0  0  0  0  0
   -0.4648   -3.9703   -1.9948 C   0  0  0  0  0  0  0  0  0  0  0  0
    0.8123   -3.4639   -2.1648 C   0  0  0  0  0  0  0  0  0  0  0  0
    1.1417   -2.7678   -3.3159 C   0  0  0  0  0  0  0  0  0  0  0  0
    0.1959   -2.5894   -4.3136 C   0  0  0  0  0  0  0  0  0  0  0  0
   -1.0818   -3.0913   -4.1526 C   0  0  0  0  0  0  0  0  0  0  0  0
   -6.9414   -2.4948    1.4550 H   0  0  0  0  0  0  0  0  0  0  0  0
   -5.0975   -1.1024    2.3432 H   0  0  0  0  0  0  0  0  0  0  0  0
   -2.9537    0.2083    1.8238 H   0  0  0  0  0  0  0  0  0  0  0  0
   -1.2970    0.9182    0.1467 H   0  0  0  0  0  0  0  0  0  0  0  0
   -1.4979    0.2334   -2.2033 H   0  0  0  0  0  0  0  0  0  0  0  0
   -7.9946   -2.6242   -1.6476 H   0  0  0  0  0  0  0  0  0  0  0  0
   -7.9105   -3.7571   -0.2815 H   0  0  0  0  0  0  0  0  0  0  0  0
   -6.9930   -4.0528   -1.7835 H   0  0  0  0  0  0  0  0  0  0  0  0
   -2.5351   -3.2651   -0.2764 H   0  0  0  0  0  0  0  0  0  0  0  0
   -3.1666   -3.9518    1.9969 H   0  0  0  0  0  0  0  0  0  0  0  0
   -4.4239   -6.0463    2.3533 H   0  0  0  0  0  0  0  0  0  0  0  0
   -5.0405   -7.4549    0.4251 H   0  0  0  0  0  0  0  0  0  0  0  0
   -4.4084   -6.7695   -1.8590 H   0  0  0  0  0  0  0  0  0  0  0  0
   -4.9502   -5.5142   -4.8582 H   0  0  0  0  0  0  0  0  0  0  0  0
   -4.8400   -7.5531   -6.2558 H   0  0  0  0  0  0  0  0  0  0  0  0
   -2.8858   -9.0504   -6.0980 H   0  0  0  0  0  0  0  0  0  0  0  0
   -1.0447   -8.5198   -4.5476 H   0  0  0  0  0  0  0  0  0  0  0  0
   -1.1477   -6.4864   -3.1573 H   0  0  0  0  0  0  0  0  0  0  0  0
   -1.8311   -2.9656   -4.9250 H   0  0  0  0  0  0  0  0  0  0  0  0
    0.4552   -2.0580   -5.2173 H   0  0  0  0  0  0  0  0  0  0  0  0
    2.1385   -2.3707   -3.4380 H   0  0  0  0  0  0  0  0  0  0  0  0
    1.5536   -3.6156   -1.3939 H   0  0  0  0  0  0  0  0  0  0  0  0
   -0.7108   -4.5228   -1.0992 H   0  0  0  0  0  0  0  0  0  0  0  0
   -2.8759   -0.9548   -3.8319 H   0  0  0  0  0  0  0  0  0  0  0  0
  1  5  1  0  0  0  0
  1  7  1  0  0  0  0
  1  4  1  0  0  0  0
  1  6  1  0  0  0  0
  2  1  1  0  0  0  0
  3  1  1  0  0  0  0
  4 18  1  0  0  0  0
  6 16  1  0  0  0  0
  6  8  1  0  0  0  0
  7 15  1  0  0  0  0
  8  9  2  0  0  0  0
  9 10  1  0  0  0  0
  9 36  1  0  0  0  0
 10 37  1  0  0  0  0
 11 12  1  0  0  0  0
 11 10  2  0  0  0  0
 12 38  1  0  0  0  0
 13 39  1  0  0  0  0
 13 12  2  0  0  0  0
 14 13  1  0  0  0  0
 15 14  2  0  0  0  0
 16 15  1  6  0  0  0
 16 11  1  0  0  0  0
 17  8  1  0  0  0  0
 17 42  1  0  0  0  0
 18 23  2  0  0  0  0
 18 19  1  0  0  0  0
 19 20  2  0  0  0  0
 20 21  1  0  0  0  0
 20 45  1  0  0  0  0
 21 46  1  0  0  0  0
 22 47  1  0  0  0  0
 22 21  2  0  0  0  0
 23 22  1  0  0  0  0
 24 29  1  0  0  0  0
 24  4  1  0  0  0  0
 25 24  2  0  0  0  0
 26 27  2  0  0  0  0
 26 25  1  0  0  0  0
 27 28  1  0  0  0  0
 28 52  1  0  0  0  0
 28 29  2  0  0  0  0
 29 53  1  0  0  0  0
 30  4  1  0  0  0  0
 30 31  1  0  0  0  0
 31 58  1  0  0  0  0
 32 31  2  0  0  0  0
 32 57  1  0  0  0  0
 33 32  1  0  0  0  0
 34 35  1  0  0  0  0
 34 33  2  0  0  0  0
 35 30  2  0  0  0  0
 40 14  1  0  0  0  0
 41 17  1  0  0  0  0
 43 17  1  0  0  0  0
 44 19  1  0  0  0  0
 48 23  1  0  0  0  0
 49 25  1  0  0  0  0
 50 26  1  0  0  0  0
 51 27  1  0  0  0  0
 54 35  1  0  0  0  0
 55 34  1  0  0  0  0
 56 33  1  0  0  0  0
 59  7  1  0  0  0  0
M  END
$$$$
