CSD_code = AKIVAS | q = 0 | S = 0 | Stoichiometry = C36H41Br2N4OY | MND = 6
 OpenBabel04212202003D

 85 91  0  0  1  0  0  0  0  0999 V2000
   13.2318   15.0135    2.9533 C   0  0  0  0  0  0  0  0  0  0  0  0
   13.2321   16.0938    2.9535 H   0  0  0  0  0  0  0  0  0  0  0  0
   12.3105   14.3142    3.7089 C   0  0  0  0  0  0  0  0  0  0  0  0
   11.5861   14.8546    4.3046 H   0  0  0  0  0  0  0  0  0  0  0  0
   12.3193   12.9246    3.7143 C   0  0  0  0  0  0  0  0  0  0  0  0
   11.3077   12.2133    4.5974 C   0  0  0  0  0  0  0  0  0  0  0  0
   11.8365   11.6284    5.3614 H   0  0  0  0  0  0  0  0  0  0  0  0
   10.6782   12.9461    5.1082 H   0  0  0  0  0  0  0  0  0  0  0  0
    9.0928   11.5192    3.7106 C   0  0  0  0  0  0  0  0  0  0  0  0
    8.5852   12.3711    4.1147 H   0  0  0  0  0  0  0  0  0  0  0  0
    8.6168   10.4667    3.0042 C   0  0  0  0  0  0  0  0  0  0  0  0
    7.6245   10.2201    2.6859 H   0  0  0  0  0  0  0  0  0  0  0  0
   10.8301   10.1797    3.2509 C   0  0  1  0  0  3  0  0  0  0  0  0
    9.5767    8.3954    2.1001 C   0  0  0  0  0  0  0  0  0  0  0  0
    9.5699    7.2575    2.9105 C   0  0  0  0  0  0  0  0  0  0  0  0
    9.4054    6.0198    2.3076 C   0  0  0  0  0  0  0  0  0  0  0  0
    9.3687    5.1346    2.9273 H   0  0  0  0  0  0  0  0  0  0  0  0
    9.2750    5.8981    0.9311 C   0  0  0  0  0  0  0  0  0  0  0  0
    9.2803    7.0478    0.1548 C   0  0  0  0  0  0  0  0  0  0  0  0
    9.1759    6.9641   -0.9167 H   0  0  0  0  0  0  0  0  0  0  0  0
    9.4136    8.3094    0.7178 C   0  0  0  0  0  0  0  0  0  0  0  0
    9.4106    9.5260   -0.1523 C   0  0  0  0  0  0  0  0  0  0  0  0
    8.8295    9.3462   -1.0530 H   0  0  0  0  0  0  0  0  0  0  0  0
   10.4327    9.7552   -0.4543 H   0  0  0  0  0  0  0  0  0  0  0  0
    9.0076   10.3952    0.3626 H   0  0  0  0  0  0  0  0  0  0  0  0
    9.7172    7.3811    4.3968 C   0  0  0  0  0  0  0  0  0  0  0  0
   10.6722    7.8414    4.6546 H   0  0  0  0  0  0  0  0  0  0  0  0
    9.6639    6.4043    4.8704 H   0  0  0  0  0  0  0  0  0  0  0  0
    8.9288    8.0096    4.8121 H   0  0  0  0  0  0  0  0  0  0  0  0
    9.1174    4.5558    0.2844 C   0  0  0  0  0  0  0  0  0  0  0  0
    9.2393    3.7546    1.0091 H   0  0  0  0  0  0  0  0  0  0  0  0
    9.8547    4.4297   -0.5066 H   0  0  0  0  0  0  0  0  0  0  0  0
    8.1287    4.4682   -0.1651 H   0  0  0  0  0  0  0  0  0  0  0  0
   13.5166    6.3271    4.0880 C   0  0  0  0  0  0  0  0  0  0  0  0
   12.6704    6.3774    4.7837 H   0  0  0  0  0  0  0  0  0  0  0  0
   14.4084    6.7072    4.5917 H   0  0  0  0  0  0  0  0  0  0  0  0
   13.6991    4.9109    3.5580 C   0  0  0  0  0  0  0  0  0  0  0  0
   13.4445    4.1622    4.3041 H   0  0  0  0  0  0  0  0  0  0  0  0
   14.7300    4.7599    3.2400 H   0  0  0  0  0  0  0  0  0  0  0  0
   13.2313   12.1740    2.9528 C   0  0  0  0  0  0  0  0  0  0  0  0
   13.3814    9.2887    5.6721 Br  0  0  0  0  0  0  0  0  0  0  0  0
   10.4371   11.3246    3.8551 N   0  0  0  0  0  0  0  0  0  0  0  0
    9.6925    9.6637    2.7327 N   0  0  0  0  0  0  0  0  0  0  0  0
   13.2319    7.1626    2.9547 O   0  0  0  0  0  0  0  0  0  0  0  0
   13.2318    9.8401    2.9530 Y   0  0  0  0  0  0  0  0  0  0  0  0
   14.1529   14.3142    2.1975 C   0  0  0  0  0  0  0  0  0  0  0  0
   14.8776   14.8545    1.6020 H   0  0  0  0  0  0  0  0  0  0  0  0
   14.1436   12.9246    2.1915 C   0  0  0  0  0  0  0  0  0  0  0  0
   15.1550   12.2133    1.3081 C   0  0  0  0  0  0  0  0  0  0  0  0
   14.6261   11.6283    0.5443 H   0  0  0  0  0  0  0  0  0  0  0  0
   15.7843   12.9462    0.7971 H   0  0  0  0  0  0  0  0  0  0  0  0
   17.3705   11.5192    2.1937 C   0  0  0  0  0  0  0  0  0  0  0  0
   17.8778   12.3710    1.7893 H   0  0  0  0  0  0  0  0  0  0  0  0
   17.8468   10.4666    2.8998 C   0  0  0  0  0  0  0  0  0  0  0  0
   18.8393   10.2200    3.2175 H   0  0  0  0  0  0  0  0  0  0  0  0
   15.6333   10.1798    2.6546 C   0  0  1  0  0  3  0  0  0  0  0  0
   16.8874    8.3951    3.8040 C   0  0  0  0  0  0  0  0  0  0  0  0
   16.8937    7.2574    2.9933 C   0  0  0  0  0  0  0  0  0  0  0  0
   17.0582    6.0196    3.5959 C   0  0  0  0  0  0  0  0  0  0  0  0
   17.0945    5.1345    2.9759 H   0  0  0  0  0  0  0  0  0  0  0  0
   17.1893    5.8974    4.9723 C   0  0  0  0  0  0  0  0  0  0  0  0
   17.1846    7.0468    5.7489 C   0  0  0  0  0  0  0  0  0  0  0  0
   17.2896    6.9629    6.8203 H   0  0  0  0  0  0  0  0  0  0  0  0
   17.0511    8.3087    5.1863 C   0  0  0  0  0  0  0  0  0  0  0  0
   17.0544    9.5248    6.0570 C   0  0  0  0  0  0  0  0  0  0  0  0
   17.6375    9.3452    6.9564 H   0  0  0  0  0  0  0  0  0  0  0  0
   16.0326    9.7526    6.3611 H   0  0  0  0  0  0  0  0  0  0  0  0
   17.4553   10.3947    5.5417 H   0  0  0  0  0  0  0  0  0  0  0  0
   16.7460    7.3815    1.5071 C   0  0  0  0  0  0  0  0  0  0  0  0
   15.7908    7.8415    1.2498 H   0  0  0  0  0  0  0  0  0  0  0  0
   16.7995    6.4048    1.0332 H   0  0  0  0  0  0  0  0  0  0  0  0
   17.5341    8.0104    1.0918 H   0  0  0  0  0  0  0  0  0  0  0  0
   17.3472    4.5550    5.6183 C   0  0  0  0  0  0  0  0  0  0  0  0
   17.2248    3.7540    4.8938 H   0  0  0  0  0  0  0  0  0  0  0  0
   16.6108    4.4284    6.4099 H   0  0  0  0  0  0  0  0  0  0  0  0
   18.3360    4.4668    6.0670 H   0  0  0  0  0  0  0  0  0  0  0  0
   12.9476    6.3258    1.8223 C   0  0  0  0  0  0  0  0  0  0  0  0
   13.7942    6.3750    1.1268 H   0  0  0  0  0  0  0  0  0  0  0  0
   12.0561    6.7054    1.3178 H   0  0  0  0  0  0  0  0  0  0  0  0
   12.7647    4.9103    2.3540 C   0  0  0  0  0  0  0  0  0  0  0  0
   13.0191    4.1606    1.6088 H   0  0  0  0  0  0  0  0  0  0  0  0
   11.7337    4.7599    2.6722 H   0  0  0  0  0  0  0  0  0  0  0  0
   13.0826    9.2861    0.2348 Br  0  0  0  0  0  0  0  0  0  0  0  0
   16.0260   11.3247    2.0502 N   0  0  0  0  0  0  0  0  0  0  0  0
   16.7712    9.6636    3.1720 N   0  0  0  0  0  0  0  0  0  0  0  0
  1  2  1  0  0  0  0
  1  3  1  0  0  0  0
  3  5  2  0  0  0  0
  3  4  1  0  0  0  0
  5  6  1  0  0  0  0
  6  8  1  0  0  0  0
  6  7  1  0  0  0  0
  9 42  1  0  0  0  0
  9 10  1  0  0  0  0
 11  9  2  0  0  0  0
 12 11  1  0  0  0  0
 13 43  1  6  0  0  0
 13 42  1  0  0  0  0
 14 43  1  0  0  0  0
 14 15  1  0  0  0  0
 15 26  1  0  0  0  0
 16 15  2  0  0  0  0
 16 17  1  0  0  0  0
 18 16  1  0  0  0  0
 19 21  1  0  0  0  0
 19 18  2  0  0  0  0
 20 19  1  0  0  0  0
 21 14  2  0  0  0  0
 22 25  1  0  0  0  0
 22 21  1  0  0  0  0
 23 22  1  0  0  0  0
 24 22  1  0  0  0  0
 26 27  1  0  0  0  0
 26 29  1  0  0  0  0
 26 28  1  0  0  0  0
 30 18  1  0  0  0  0
 30 31  1  0  0  0  0
 32 30  1  0  0  0  0
 33 30  1  0  0  0  0
 34 36  1  0  0  0  0
 34 35  1  0  0  0  0
 37 34  1  0  0  0  0
 37 38  1  0  0  0  0
 39 37  1  0  0  0  0
 40 45  1  0  0  0  0
 40  5  1  0  0  0  0
 42  6  1  0  0  0  0
 43 11  1  0  0  0  0
 44 34  1  0  0  0  0
 45 13  1  0  0  0  0
 45 41  1  0  0  0  0
 46  1  2  0  0  0  0
 47 46  1  0  0  0  0
 48 46  1  0  0  0  0
 48 40  2  0  0  0  0
 49 84  1  0  0  0  0
 49 48  1  0  0  0  0
 50 49  1  0  0  0  0
 51 49  1  0  0  0  0
 52 54  2  0  0  0  0
 53 52  1  0  0  0  0
 54 85  1  0  0  0  0
 54 55  1  0  0  0  0
 56 84  1  1  0  0  0
 56 45  1  0  0  0  0
 56 85  1  0  0  0  0
 57 64  1  0  0  0  0
 58 59  1  0  0  0  0
 58 57  2  0  0  0  0
 59 61  2  0  0  0  0
 60 59  1  0  0  0  0
 61 73  1  0  0  0  0
 61 62  1  0  0  0  0
 62 63  1  0  0  0  0
 64 62  2  0  0  0  0
 64 65  1  0  0  0  0
 65 67  1  0  0  0  0
 65 66  1  0  0  0  0
 68 65  1  0  0  0  0
 69 58  1  0  0  0  0
 70 69  1  0  0  0  0
 71 69  1  0  0  0  0
 72 69  1  0  0  0  0
 73 76  1  0  0  0  0
 73 75  1  0  0  0  0
 74 73  1  0  0  0  0
 77 80  1  0  0  0  0
 77 44  1  0  0  0  0
 78 77  1  0  0  0  0
 79 77  1  0  0  0  0
 80 82  1  0  0  0  0
 80 37  1  0  0  0  0
 81 80  1  0  0  0  0
 83 45  1  0  0  0  0
 84 52  1  0  0  0  0
 85 57  1  0  0  0  0
M  END
$$$$
