CSD_code = AKIVOF | q = 0 | S = 0 | Stoichiometry = C37H30ClIrOP2 | MND = 6
 OpenBabel04212202003D

 72 78  0  0  0  0  0  0  0  0999 V2000
   -0.7643    9.2591    4.1919 Ir  0  0  0  0  0  0  0  0  0  0  0  0
   -0.0971   11.0173    2.6125 Cl  0  0  0  0  0  0  0  0  0  0  0  0
    0.8297    9.7173    5.8270 P   0  0  0  0  0  4  0  0  0  0  0  0
   -2.4674    8.5289    2.7999 P   0  0  0  0  0  4  0  0  0  0  0  0
    1.4177    8.0950    2.4422 O   0  0  0  0  0  1  0  0  0  0  0  0
    0.5800    8.4053    3.1524 C   0  0  0  0  0  2  0  0  0  0  0  0
    0.1046    8.2667    6.6481 C   0  0  0  0  0  0  0  0  0  0  0  0
    0.3676    7.6010    7.8311 C   0  0  0  0  0  0  0  0  0  0  0  0
    1.1484    7.9339    8.5006 H   0  0  0  0  0  0  0  0  0  0  0  0
   -0.4032    6.4886    8.1342 C   0  0  0  0  0  0  0  0  0  0  0  0
   -0.2254    5.9432    9.0498 H   0  0  0  0  0  0  0  0  0  0  0  0
   -1.4013    6.0762    7.2668 C   0  0  0  0  0  0  0  0  0  0  0  0
   -1.9948    5.2073    7.5150 H   0  0  0  0  0  0  0  0  0  0  0  0
   -1.6606    6.7572    6.0827 C   0  0  0  0  0  0  0  0  0  0  0  0
   -2.4568    6.4082    5.4376 H   0  0  0  0  0  0  0  0  0  0  0  0
   -0.9074    7.8732    5.7498 C   0  0  0  0  0  0  0  0  0  0  0  0
    0.8793   11.0883    7.0140 C   0  0  0  0  0  0  0  0  0  0  0  0
    1.7460   11.0384    8.1028 C   0  0  0  0  0  0  0  0  0  0  0  0
    2.4093   10.1926    8.2243 H   0  0  0  0  0  0  0  0  0  0  0  0
    1.7602   12.0784    9.0124 C   0  0  0  0  0  0  0  0  0  0  0  0
    2.4294   12.0434    9.8598 H   0  0  0  0  0  0  0  0  0  0  0  0
    0.9201   13.1679    8.8363 C   0  0  0  0  0  0  0  0  0  0  0  0
    0.9387   13.9799    9.5484 H   0  0  0  0  0  0  0  0  0  0  0  0
    0.0638   13.2201    7.7491 C   0  0  0  0  0  0  0  0  0  0  0  0
   -0.5833   14.0736    7.6105 H   0  0  0  0  0  0  0  0  0  0  0  0
    0.0394   12.1802    6.8359 C   0  0  0  0  0  0  0  0  0  0  0  0
   -0.6173   12.2054    5.9778 H   0  0  0  0  0  0  0  0  0  0  0  0
    2.5821    9.3506    5.5489 C   0  0  0  0  0  0  0  0  0  0  0  0
    3.4543   10.4012    5.2773 C   0  0  0  0  0  0  0  0  0  0  0  0
    3.0852   11.4180    5.3007 H   0  0  0  0  0  0  0  0  0  0  0  0
    4.7767   10.1368    4.9749 C   0  0  0  0  0  0  0  0  0  0  0  0
    5.4538   10.9516    4.7641 H   0  0  0  0  0  0  0  0  0  0  0  0
    5.2313    8.8281    4.9334 C   0  0  0  0  0  0  0  0  0  0  0  0
    6.2646    8.6236    4.6950 H   0  0  0  0  0  0  0  0  0  0  0  0
    4.3607    7.7804    5.1879 C   0  0  0  0  0  0  0  0  0  0  0  0
    4.7147    6.7605    5.1474 H   0  0  0  0  0  0  0  0  0  0  0  0
    3.0356    8.0369    5.4880 C   0  0  0  0  0  0  0  0  0  0  0  0
    2.3473    7.2237    5.6795 H   0  0  0  0  0  0  0  0  0  0  0  0
   -4.0580    7.9859    3.5181 C   0  0  0  0  0  0  0  0  0  0  0  0
   -4.3846    8.3042    4.8307 C   0  0  0  0  0  0  0  0  0  0  0  0
   -3.6769    8.8578    5.4297 H   0  0  0  0  0  0  0  0  0  0  0  0
   -5.6019    7.9104    5.3589 C   0  0  0  0  0  0  0  0  0  0  0  0
   -5.8486    8.1598    6.3803 H   0  0  0  0  0  0  0  0  0  0  0  0
   -6.4994    7.1978    4.5817 C   0  0  0  0  0  0  0  0  0  0  0  0
   -7.4484    6.8888    4.9945 H   0  0  0  0  0  0  0  0  0  0  0  0
   -6.1785    6.8807    3.2712 C   0  0  0  0  0  0  0  0  0  0  0  0
   -6.8774    6.3264    2.6619 H   0  0  0  0  0  0  0  0  0  0  0  0
   -4.9638    7.2716    2.7390 C   0  0  0  0  0  0  0  0  0  0  0  0
   -4.7181    7.0208    1.7170 H   0  0  0  0  0  0  0  0  0  0  0  0
   -2.0511    7.0749    1.7738 C   0  0  0  0  0  0  0  0  0  0  0  0
   -1.3284    6.0504    2.3780 C   0  0  0  0  0  0  0  0  0  0  0  0
   -1.0163    6.1598    3.4083 H   0  0  0  0  0  0  0  0  0  0  0  0
   -1.0061    4.9078    1.6700 C   0  0  0  0  0  0  0  0  0  0  0  0
   -0.4418    4.1198    2.1470 H   0  0  0  0  0  0  0  0  0  0  0  0
   -1.4021    4.7773    0.3487 C   0  0  0  0  0  0  0  0  0  0  0  0
   -1.1442    3.8892   -0.2088 H   0  0  0  0  0  0  0  0  0  0  0  0
   -2.1272    5.7898   -0.2566 C   0  0  0  0  0  0  0  0  0  0  0  0
   -2.4384    5.6908   -1.2864 H   0  0  0  0  0  0  0  0  0  0  0  0
   -2.4561    6.9334    0.4504 C   0  0  0  0  0  0  0  0  0  0  0  0
   -3.0192    7.7199   -0.0326 H   0  0  0  0  0  0  0  0  0  0  0  0
   -3.0016    9.7745    1.5923 C   0  0  0  0  0  0  0  0  0  0  0  0
   -4.1660   10.5083    1.7888 C   0  0  0  0  0  0  0  0  0  0  0  0
   -4.8042   10.2893    2.6338 H   0  0  0  0  0  0  0  0  0  0  0  0
   -4.4998   11.5197    0.9056 C   0  0  0  0  0  0  0  0  0  0  0  0
   -5.4063   12.0873    1.0586 H   0  0  0  0  0  0  0  0  0  0  0  0
   -3.6690   11.8132   -0.1627 C   0  0  0  0  0  0  0  0  0  0  0  0
   -3.9281   12.6098   -0.8448 H   0  0  0  0  0  0  0  0  0  0  0  0
   -2.4982   11.0957   -0.3502 C   0  0  0  0  0  0  0  0  0  0  0  0
   -1.8408   11.3363   -1.1725 H   0  0  0  0  0  0  0  0  0  0  0  0
   -2.1586   10.0832    0.5261 C   0  0  0  0  0  0  0  0  0  0  0  0
   -1.2359    9.5351    0.3950 H   0  0  0  0  0  0  0  0  0  0  0  0
   -1.7834   10.1559    4.9278 H   0  0  0  0  0  0  0  0  0  0  0  0
  1 72  1  0  0  0  0
  1 16  1  0  0  0  0
  1  3  1  0  0  0  0
  2  1  1  0  0  0  0
  3  7  1  0  0  0  0
  3 17  1  0  0  0  0
  4 39  1  0  0  0  0
  4  1  1  0  0  0  0
  5  6  1  0  0  0  0
  6  1  1  0  0  0  0
  7  8  1  0  0  0  0
  8 10  2  0  0  0  0
  8  9  1  0  0  0  0
 10 11  1  0  0  0  0
 12 13  1  0  0  0  0
 12 10  1  0  0  0  0
 14 12  2  0  0  0  0
 15 14  1  0  0  0  0
 16 14  1  0  0  0  0
 16  7  2  0  0  0  0
 17 18  1  0  0  0  0
 18 19  1  0  0  0  0
 18 20  2  0  0  0  0
 20 21  1  0  0  0  0
 22 20  1  0  0  0  0
 22 23  1  0  0  0  0
 24 22  2  0  0  0  0
 25 24  1  0  0  0  0
 26 17  2  0  0  0  0
 26 24  1  0  0  0  0
 27 26  1  0  0  0  0
 28  3  1  0  0  0  0
 29 30  1  0  0  0  0
 29 28  2  0  0  0  0
 31 29  1  0  0  0  0
 32 31  1  0  0  0  0
 33 31  2  0  0  0  0
 33 35  1  0  0  0  0
 34 33  1  0  0  0  0
 35 37  2  0  0  0  0
 36 35  1  0  0  0  0
 37 28  1  0  0  0  0
 37 38  1  0  0  0  0
 39 40  1  0  0  0  0
 40 42  2  0  0  0  0
 40 41  1  0  0  0  0
 42 43  1  0  0  0  0
 44 45  1  0  0  0  0
 44 42  1  0  0  0  0
 46 44  2  0  0  0  0
 47 46  1  0  0  0  0
 48 46  1  0  0  0  0
 48 39  2  0  0  0  0
 49 48  1  0  0  0  0
 50 51  1  0  0  0  0
 50  4  1  0  0  0  0
 51 52  1  0  0  0  0
 53 54  1  0  0  0  0
 53 51  2  0  0  0  0
 55 53  1  0  0  0  0
 56 55  1  0  0  0  0
 57 55  2  0  0  0  0
 57 59  1  0  0  0  0
 58 57  1  0  0  0  0
 59 50  2  0  0  0  0
 60 59  1  0  0  0  0
 61 62  1  0  0  0  0
 61  4  1  0  0  0  0
 62 63  1  0  0  0  0
 64 65  1  0  0  0  0
 64 62  2  0  0  0  0
 66 64  1  0  0  0  0
 67 66  1  0  0  0  0
 68 66  2  0  0  0  0
 68 70  1  0  0  0  0
 69 68  1  0  0  0  0
 70 61  2  0  0  0  0
 71 70  1  0  0  0  0
M  END
$$$$
