CSD_code = AKIZUQ | q = 0 | S = 0 | Stoichiometry = C35H52ClIrN2 | MND = 6
 OpenBabel04212202003D

 91 92  0  0  1  0  0  0  0  0999 V2000
   10.4970   -1.7724   -1.7797 N   0  0  0  0  0  0  0  0  0  0  0  0
   10.6630    0.4352   -2.4842 N   0  0  0  0  0  0  0  0  0  0  0  0
   11.8309   -0.4826    0.9691 Cl  0  0  0  0  0 15  0  0  0  0  0  0
    9.6393    0.0876    0.3194 Ir  0  0  0  0  0  0  0  0  0  0  0  0
   10.2842   -0.4672   -1.5676 C   0  0  0  0  0  3  0  0  0  0  0  0
   10.0997   -2.7302   -0.7547 C   0  0  0  0  0  0  0  0  0  0  0  0
   10.7847   -2.6893    0.0934 H   0  0  0  0  0  0  0  0  0  0  0  0
   10.1252   -3.7319   -1.1809 H   0  0  0  0  0  0  0  0  0  0  0  0
    9.0916   -2.5123   -0.4028 H   0  0  0  0  0  0  0  0  0  0  0  0
   11.4636    0.2232   -3.6816 C   0  0  0  0  0  0  0  0  0  0  0  0
   12.4227   -0.2281   -3.4344 H   0  0  0  0  0  0  0  0  0  0  0  0
   11.6459    1.1953   -4.1377 H   0  0  0  0  0  0  0  0  0  0  0  0
   10.9563   -0.4111   -4.4095 H   0  0  0  0  0  0  0  0  0  0  0  0
   11.1522   -2.4317   -2.8741 C   0  0  0  0  0  0  0  0  0  0  0  0
   10.3728   -2.9070   -3.9348 C   0  0  0  0  0  0  0  0  0  0  0  0
   10.9959   -3.6167   -4.9524 C   0  0  0  0  0  0  0  0  0  0  0  0
   10.4122   -3.9930   -5.7782 H   0  0  0  0  0  0  0  0  0  0  0  0
   12.3560   -3.8564   -4.9174 C   0  0  0  0  0  0  0  0  0  0  0  0
   12.8265   -4.4104   -5.7163 H   0  0  0  0  0  0  0  0  0  0  0  0
   13.1095   -3.4024   -3.8531 C   0  0  0  0  0  0  0  0  0  0  0  0
   14.1673   -3.6129   -3.8248 H   0  0  0  0  0  0  0  0  0  0  0  0
   12.5251   -2.6938   -2.8107 C   0  0  0  0  0  0  0  0  0  0  0  0
    8.8778   -2.6826   -3.9753 C   0  0  0  0  0  0  0  0  0  0  0  0
    8.6125   -1.9564   -3.1999 H   0  0  0  0  0  0  0  0  0  0  0  0
    8.1409   -3.9908   -3.6734 C   0  0  0  0  0  0  0  0  0  0  0  0
    8.3913   -4.7485   -4.4125 H   0  0  0  0  0  0  0  0  0  0  0  0
    7.0655   -3.8280   -3.6966 H   0  0  0  0  0  0  0  0  0  0  0  0
    8.4093   -4.3705   -2.6908 H   0  0  0  0  0  0  0  0  0  0  0  0
    8.4208   -2.1296   -5.3277 C   0  0  0  0  0  0  0  0  0  0  0  0
    9.0306   -1.2812   -5.6298 H   0  0  0  0  0  0  0  0  0  0  0  0
    7.3845   -1.8049   -5.2636 H   0  0  0  0  0  0  0  0  0  0  0  0
    8.4865   -2.8884   -6.1033 H   0  0  0  0  0  0  0  0  0  0  0  0
   13.3569   -2.2733   -1.6233 C   0  0  0  0  0  0  0  0  0  0  0  0
   12.7666   -1.6223   -0.9742 H   0  0  0  0  0  0  0  0  0  0  0  0
   13.7415   -3.5143   -0.8112 C   0  0  0  0  0  0  0  0  0  0  0  0
   14.4126   -4.1574   -1.3775 H   0  0  0  0  0  0  0  0  0  0  0  0
   12.8581   -4.0898   -0.5454 H   0  0  0  0  0  0  0  0  0  0  0  0
   14.2390   -3.2094    0.1055 H   0  0  0  0  0  0  0  0  0  0  0  0
   14.6186   -1.5054   -2.0233 C   0  0  0  0  0  0  0  0  0  0  0  0
   15.3127   -2.1327   -2.5784 H   0  0  0  0  0  0  0  0  0  0  0  0
   15.1199   -1.1551   -1.1245 H   0  0  0  0  0  0  0  0  0  0  0  0
   14.3787   -0.6371   -2.6341 H   0  0  0  0  0  0  0  0  0  0  0  0
   10.2641    1.8057   -2.3220 C   0  0  0  0  0  0  0  0  0  0  0  0
    9.1212    2.2577   -2.9972 C   0  0  0  0  0  0  0  0  0  0  0  0
    8.7523    3.5895   -2.8618 C   0  0  0  0  0  0  0  0  0  0  0  0
    7.8755    3.9568   -3.3726 H   0  0  0  0  0  0  0  0  0  0  0  0
    9.4961    4.4549   -2.0838 C   0  0  0  0  0  0  0  0  0  0  0  0
    9.1892    5.4853   -1.9788 H   0  0  0  0  0  0  0  0  0  0  0  0
   10.6490    4.0096   -1.4695 C   0  0  0  0  0  0  0  0  0  0  0  0
   11.2455    4.7036   -0.8990 H   0  0  0  0  0  0  0  0  0  0  0  0
   11.0636    2.6883   -1.5892 C   0  0  0  0  0  0  0  0  0  0  0  0
    8.3374    1.3540   -3.9235 C   0  0  0  0  0  0  0  0  0  0  0  0
    8.6638    0.3247   -3.7608 H   0  0  0  0  0  0  0  0  0  0  0  0
    6.8262    1.3997   -3.6894 C   0  0  0  0  0  0  0  0  0  0  0  0
    6.5800    1.1280   -2.6668 H   0  0  0  0  0  0  0  0  0  0  0  0
    6.3346    0.6959   -4.3581 H   0  0  0  0  0  0  0  0  0  0  0  0
    6.4227    2.3884   -3.8904 H   0  0  0  0  0  0  0  0  0  0  0  0
    8.6403    1.7453   -5.3748 C   0  0  0  0  0  0  0  0  0  0  0  0
    8.3217    2.7677   -5.5643 H   0  0  0  0  0  0  0  0  0  0  0  0
    8.1103    1.0889   -6.0618 H   0  0  0  0  0  0  0  0  0  0  0  0
    9.7052    1.6788   -5.5848 H   0  0  0  0  0  0  0  0  0  0  0  0
   12.3910    2.2659   -1.0091 C   0  0  0  0  0  0  0  0  0  0  0  0
   12.4295    1.1761   -0.9653 H   0  0  0  0  0  0  0  0  0  0  0  0
   13.5226    2.7580   -1.9176 C   0  0  0  0  0  0  0  0  0  0  0  0
   13.4249    2.3545   -2.9232 H   0  0  0  0  0  0  0  0  0  0  0  0
   14.4825    2.4453   -1.5134 H   0  0  0  0  0  0  0  0  0  0  0  0
   13.5128    3.8444   -1.9851 H   0  0  0  0  0  0  0  0  0  0  0  0
   12.5947    2.7888    0.4123 C   0  0  0  0  0  0  0  0  0  0  0  0
   13.4348    2.2736    0.8707 H   0  0  0  0  0  0  0  0  0  0  0  0
   11.7099    2.5907    1.0098 H   0  0  0  0  0  0  0  0  0  0  0  0
   12.7990    3.8572    0.4253 H   0  0  0  0  0  0  0  0  0  0  0  0
    7.5846   -0.1985   -0.0764 C   0  0  2  0  0  0  0  0  0  0  0  0
    7.3864   -0.6715   -1.0389 H   0  0  0  0  0  0  0  0  0  0  0  0
    7.8606    1.1821   -0.0902 C   0  0  0  0  0  3  0  0  0  0  0  0
    7.9135    1.6622   -1.0589 H   0  0  0  0  0  0  0  0  0  0  0  0
    7.4267    2.1272    1.0120 C   0  0  0  0  0  0  0  0  0  0  0  0
    7.1907    3.0978    0.5706 H   0  0  0  0  0  0  0  0  0  0  0  0
    6.5121    1.7526    1.4742 H   0  0  0  0  0  0  0  0  0  0  0  0
    8.5261    2.3185    2.0700 C   0  0  0  0  0  0  0  0  0  0  0  0
    8.0827    2.5640    3.0416 H   0  0  0  0  0  0  0  0  0  0  0  0
    9.1527    3.1641    1.7774 H   0  0  0  0  0  0  0  0  0  0  0  0
    9.4115    1.1046    2.2103 C   0  0  0  0  0  3  0  0  0  0  0  0
   10.4029    1.3303    2.5971 H   0  0  0  0  0  0  0  0  0  0  0  0
    8.9552   -0.1936    2.3541 C   0  0  0  0  0  3  0  0  0  0  0  0
    9.6338   -0.9153    2.8019 H   0  0  0  0  0  0  0  0  0  0  0  0
    7.4923   -0.5665    2.4436 C   0  0  0  0  0  0  0  0  0  0  0  0
    6.9463    0.2525    2.9144 H   0  0  0  0  0  0  0  0  0  0  0  0
    7.3875   -1.4372    3.0940 H   0  0  0  0  0  0  0  0  0  0  0  0
    6.8796   -0.8952    1.0685 C   0  0  0  0  0  0  0  0  0  0  0  0
    5.8162   -0.6297    1.0591 H   0  0  0  0  0  0  0  0  0  0  0  0
    6.9382   -1.9735    0.9007 H   0  0  0  0  0  0  0  0  0  0  0  0
  1  5  1  0  0  0  0
  1  6  1  0  0  0  0
  2 43  1  0  0  0  0
  2  5  1  0  0  0  0
  5  4  1  0  0  0  0
  6  9  1  0  0  0  0
  6  7  1  0  0  0  0
  8  6  1  0  0  0  0
 10 11  1  0  0  0  0
 10  2  1  0  0  0  0
 12 10  1  0  0  0  0
 13 10  1  0  0  0  0
 14 22  1  0  0  0  0
 14  1  1  0  0  0  0
 15 14  2  0  0  0  0
 16 18  2  0  0  0  0
 16 15  1  0  0  0  0
 17 16  1  0  0  0  0
 18 20  1  0  0  0  0
 19 18  1  0  0  0  0
 20 21  1  0  0  0  0
 20 22  2  0  0  0  0
 22 33  1  0  0  0  0
 23 15  1  0  0  0  0
 23 25  1  0  0  0  0
 23 24  1  0  0  0  0
 25 28  1  0  0  0  0
 26 25  1  0  0  0  0
 27 25  1  0  0  0  0
 29 31  1  0  0  0  0
 29 23  1  0  0  0  0
 30 29  1  0  0  0  0
 32 29  1  0  0  0  0
 33 34  1  0  0  0  0
 33 35  1  0  0  0  0
 35 37  1  0  0  0  0
 35 38  1  0  0  0  0
 36 35  1  0  0  0  0
 39 33  1  0  0  0  0
 39 41  1  0  0  0  0
 40 39  1  0  0  0  0
 42 39  1  0  0  0  0
 43 51  1  0  0  0  0
 44 45  1  0  0  0  0
 44 43  2  0  0  0  0
 45 47  2  0  0  0  0
 46 45  1  0  0  0  0
 47 48  1  0  0  0  0
 47 49  1  0  0  0  0
 49 50  1  0  0  0  0
 51 49  2  0  0  0  0
 51 62  1  0  0  0  0
 52 53  1  0  0  0  0
 52 54  1  0  0  0  0
 52 44  1  0  0  0  0
 54 55  1  0  0  0  0
 56 54  1  0  0  0  0
 57 54  1  0  0  0  0
 58 52  1  0  0  0  0
 59 58  1  0  0  0  0
 60 58  1  0  0  0  0
 61 58  1  0  0  0  0
 62 63  1  0  0  0  0
 62 68  1  0  0  0  0
 64 66  1  0  0  0  0
 64 62  1  0  0  0  0
 65 64  1  0  0  0  0
 67 64  1  0  0  0  0
 68 71  1  0  0  0  0
 68 69  1  0  0  0  0
 68 70  1  0  0  0  0
 72 73  1  6  0  0  0
 72  4  1  0  0  0  0
 72 89  1  0  0  0  0
 74 72  1  0  0  0  0
 74 76  1  0  0  0  0
 75 74  1  0  0  0  0
 76 78  1  0  0  0  0
 76 79  1  0  0  0  0
 77 76  1  0  0  0  0
 79 82  1  0  0  0  0
 79 80  1  0  0  0  0
 81 79  1  0  0  0  0
 82 84  1  0  0  0  0
 82 83  1  0  0  0  0
 84 86  1  0  0  0  0
 84 85  1  0  0  0  0
 86 87  1  0  0  0  0
 86 88  1  0  0  0  0
 89 86  1  0  0  0  0
 90 89  1  0  0  0  0
 91 89  1  0  0  0  0
M  END
$$$$
