CSD_code = AKOFEM | q = 1 | S = 0 | Stoichiometry = C9H22ClN2Pt(1+) | MND = 5
 OpenBabel04212202003D

 35 34  0  0  0  0  0  0  0  0999 V2000
    0.2131    7.4741    6.0288 Pt  0  0  0  0  0  0  0  0  0  0  0  0
    0.8660    9.2719    4.8057 Cl  0  0  0  0  0 15  0  0  0  0  0  0
   -0.4202    5.6010    6.9770 N   0  0  0  0  0  4  0  0  0  0  0  0
    0.4392    6.2926    4.3153 N   0  0  0  0  0  4  0  0  0  0  0  0
   -0.8106    4.7802    5.8148 C   0  0  0  0  0  0  0  0  0  0  0  0
   -0.9300    3.7298    6.1120 H   0  0  0  0  0  0  0  0  0  0  0  0
   -1.7801    5.1368    5.4564 H   0  0  0  0  0  0  0  0  0  0  0  0
    0.2229    4.8832    4.7004 C   0  0  0  0  0  0  0  0  0  0  0  0
   -0.1106    4.2996    3.8341 H   0  0  0  0  0  0  0  0  0  0  0  0
    1.1721    4.4587    5.0355 H   0  0  0  0  0  0  0  0  0  0  0  0
    0.7203    4.9891    7.6719 C   0  0  0  0  0  0  0  0  0  0  0  0
    1.6339    5.0874    7.0857 H   0  0  0  0  0  0  0  0  0  0  0  0
    0.5345    3.9274    7.8634 H   0  0  0  0  0  0  0  0  0  0  0  0
    0.8818    5.4773    8.6304 H   0  0  0  0  0  0  0  0  0  0  0  0
   -1.5613    5.6651    7.8954 C   0  0  0  0  0  0  0  0  0  0  0  0
   -2.4091    6.1452    7.4078 H   0  0  0  0  0  0  0  0  0  0  0  0
   -1.3037    6.2306    8.7883 H   0  0  0  0  0  0  0  0  0  0  0  0
   -1.8635    4.6597    8.2052 H   0  0  0  0  0  0  0  0  0  0  0  0
   -0.6047    6.7243    3.3732 C   0  0  0  0  0  0  0  0  0  0  0  0
   -0.4199    7.7534    3.0680 H   0  0  0  0  0  0  0  0  0  0  0  0
   -1.5912    6.6750    3.8366 H   0  0  0  0  0  0  0  0  0  0  0  0
   -0.6018    6.0899    2.4816 H   0  0  0  0  0  0  0  0  0  0  0  0
    1.7504    6.4148    3.6633 C   0  0  0  0  0  0  0  0  0  0  0  0
    2.5470    6.1734    4.3683 H   0  0  0  0  0  0  0  0  0  0  0  0
    1.8980    7.4349    3.3148 H   0  0  0  0  0  0  0  0  0  0  0  0
    1.8149    5.7375    2.8069 H   0  0  0  0  0  0  0  0  0  0  0  0
   -0.5717    8.9098    7.4347 C   0  0  0  0  0  0  0  0  0  0  0  0
   -0.5988    9.8876    6.9648 H   0  0  0  0  0  0  0  0  0  0  0  0
   -1.5254    8.5467    7.8065 H   0  0  0  0  0  0  0  0  0  0  0  0
    0.6161    8.4411    7.9642 C   0  0  0  0  0  3  0  0  0  0  0  0
    0.5794    7.6712    8.7353 H   0  0  0  0  0  0  0  0  0  0  0  0
    1.9154    9.1754    7.9084 C   0  0  0  0  0  0  0  0  0  0  0  0
    2.7203    8.5181    7.5715 H   0  0  0  0  0  0  0  0  0  0  0  0
    2.1763    9.5076    8.9132 H   0  0  0  0  0  0  0  0  0  0  0  0
    1.8647   10.0405    7.2538 H   0  0  0  0  0  0  0  0  0  0  0  0
  1  3  1  0  0  0  0
  1 27  1  0  0  0  0
  3 11  1  0  0  0  0
  3 15  1  0  0  0  0
  4  8  1  0  0  0  0
  4  1  1  0  0  0  0
  5  6  1  0  0  0  0
  5  3  1  0  0  0  0
  7  5  1  0  0  0  0
  8 10  1  0  0  0  0
  8  5  1  0  0  0  0
  9  8  1  0  0  0  0
 11 13  1  0  0  0  0
 11 14  1  0  0  0  0
 12 11  1  0  0  0  0
 15 18  1  0  0  0  0
 15 17  1  0  0  0  0
 16 15  1  0  0  0  0
 19 21  1  0  0  0  0
 19  4  1  0  0  0  0
 20 19  1  0  0  0  0
 22 19  1  0  0  0  0
 23  4  1  0  0  0  0
 23 24  1  0  0  0  0
 25 23  1  0  0  0  0
 26 23  1  0  0  0  0
 27 29  1  0  0  0  0
 27 30  1  0  0  0  0
 28 27  1  0  0  0  0
 30 31  1  0  0  0  0
 32 30  1  0  0  0  0
 32 34  1  0  0  0  0
 33 32  1  0  0  0  0
 35 32  1  0  0  0  0
M  END
$$$$
