CSD_code = AKOTAW | q = 0 | S = 0 | Stoichiometry = C37H32ClNP2PdS | MND = 4
 OpenBabel04212202003D

 75 81  0  0  0  0  0  0  0  0999 V2000
    5.9238    2.7167    8.8269 Pd  0  0  2  0  0  0  0  0  0  0  0  0
    7.1754    3.4384    6.9987 Cl  0  0  0  0  0  0  0  0  0  0  0  0
    4.6303    2.2569   10.7167 S   0  0  0  0  0  0  0  0  0  0  0  0
    4.3615    0.5217    8.4439 P   0  0  0  0  0  4  0  0  0  0  0  0
    6.2345    4.8673    9.2654 P   0  0  0  0  0  4  0  0  0  0  0  0
    5.9471    0.6522    8.3533 N   0  0  0  0  0  0  0  0  0  0  0  0
    4.0317    0.6064   10.2234 C   0  0  0  0  0  0  0  0  0  0  0  0
    4.6002   -0.1801   10.7319 H   0  0  0  0  0  0  0  0  0  0  0  0
    2.9713    0.5101   10.4674 H   0  0  0  0  0  0  0  0  0  0  0  0
    3.3690    1.8421    7.6550 C   0  0  0  0  0  0  0  0  0  0  0  0
    2.0859    2.1595    8.0911 C   0  0  0  0  0  0  0  0  0  0  0  0
    1.6341    1.6032    8.9009 H   0  0  0  0  0  0  0  0  0  0  0  0
    1.3919    3.1903    7.4812 C   0  0  0  0  0  0  0  0  0  0  0  0
    0.3970    3.4386    7.8213 H   0  0  0  0  0  0  0  0  0  0  0  0
    1.9699    3.9009    6.4420 C   0  0  0  0  0  0  0  0  0  0  0  0
    1.4214    4.7022    5.9692 H   0  0  0  0  0  0  0  0  0  0  0  0
    3.2463    3.5849    6.0016 C   0  0  0  0  0  0  0  0  0  0  0  0
    3.6974    4.1387    5.1919 H   0  0  0  0  0  0  0  0  0  0  0  0
    3.9508    2.5549    6.6019 C   0  0  0  0  0  0  0  0  0  0  0  0
    4.9338    2.2776    6.2260 H   0  0  0  0  0  0  0  0  0  0  0  0
    3.6943   -1.0763    7.8939 C   0  0  0  0  0  0  0  0  0  0  0  0
    4.4038   -2.2025    8.2960 C   0  0  0  0  0  0  0  0  0  0  0  0
    5.3082   -2.0749    8.8771 H   0  0  0  0  0  0  0  0  0  0  0  0
    3.9598   -3.4603    7.9363 C   0  0  0  0  0  0  0  0  0  0  0  0
    4.5104   -4.3367    8.2444 H   0  0  0  0  0  0  0  0  0  0  0  0
    2.8075   -3.5926    7.1766 C   0  0  0  0  0  0  0  0  0  0  0  0
    2.4595   -4.5749    6.8939 H   0  0  0  0  0  0  0  0  0  0  0  0
    2.1034   -2.4695    6.7732 C   0  0  0  0  0  0  0  0  0  0  0  0
    1.2090   -2.5776    6.1772 H   0  0  0  0  0  0  0  0  0  0  0  0
    2.5438   -1.2068    7.1290 C   0  0  0  0  0  0  0  0  0  0  0  0
    2.0039   -0.3252    6.8110 H   0  0  0  0  0  0  0  0  0  0  0  0
    6.7789    0.2488    7.3127 C   0  0  0  0  0  0  0  0  0  0  0  0
    6.3176   -0.2700    6.1067 C   0  0  0  0  0  0  0  0  0  0  0  0
    5.2469   -0.3308    5.9342 H   0  0  0  0  0  0  0  0  0  0  0  0
    7.2139   -0.6786    5.1381 C   0  0  0  0  0  0  0  0  0  0  0  0
    6.8426   -1.0763    4.2044 H   0  0  0  0  0  0  0  0  0  0  0  0
    8.5762   -0.5671    5.3549 C   0  0  0  0  0  0  0  0  0  0  0  0
    9.2726   -0.8785    4.5909 H   0  0  0  0  0  0  0  0  0  0  0  0
    9.0422   -0.0398    6.5496 C   0  0  0  0  0  0  0  0  0  0  0  0
   10.1042    0.0618    6.7180 H   0  0  0  0  0  0  0  0  0  0  0  0
    8.1548    0.3602    7.5256 C   0  0  0  0  0  0  0  0  0  0  0  0
    8.5015    0.7815    8.4643 H   0  0  0  0  0  0  0  0  0  0  0  0
    5.6582    5.5934   10.8385 C   0  0  0  0  0  0  0  0  0  0  0  0
    5.0009    6.8103   10.9589 C   0  0  0  0  0  0  0  0  0  0  0  0
    4.7468    7.3823   10.0775 H   0  0  0  0  0  0  0  0  0  0  0  0
    4.6706    7.2910   12.2148 C   0  0  0  0  0  0  0  0  0  0  0  0
    4.1570    8.2373   12.3065 H   0  0  0  0  0  0  0  0  0  0  0  0
    4.9958    6.5670   13.3490 C   0  0  0  0  0  0  0  0  0  0  0  0
    4.7310    6.9467   14.3250 H   0  0  0  0  0  0  0  0  0  0  0  0
    5.6610    5.3564   13.2320 C   0  0  0  0  0  0  0  0  0  0  0  0
    5.9162    4.7903   14.1154 H   0  0  0  0  0  0  0  0  0  0  0  0
    5.9944    4.8736   11.9824 C   0  0  0  0  0  0  0  0  0  0  0  0
    6.5084    3.9247   11.8737 H   0  0  0  0  0  0  0  0  0  0  0  0
    5.6105    5.9927    7.9976 C   0  0  0  0  0  0  0  0  0  0  0  0
    4.2210    6.0715    7.9131 C   0  0  0  0  0  0  0  0  0  0  0  0
    3.6203    5.4905    8.6065 H   0  0  0  0  0  0  0  0  0  0  0  0
    3.6315    6.8748    6.9561 C   0  0  0  0  0  0  0  0  0  0  0  0
    2.5555    6.9500    6.9004 H   0  0  0  0  0  0  0  0  0  0  0  0
    4.4249    7.5806    6.0651 C   0  0  0  0  0  0  0  0  0  0  0  0
    3.9656    8.2063    5.3135 H   0  0  0  0  0  0  0  0  0  0  0  0
    5.8048    7.4720    6.1246 C   0  0  0  0  0  0  0  0  0  0  0  0
    6.4186    8.0048    5.4130 H   0  0  0  0  0  0  0  0  0  0  0  0
    6.4037    6.6790    7.0883 C   0  0  0  0  0  0  0  0  0  0  0  0
    7.4773    6.5709    7.1219 H   0  0  0  0  0  0  0  0  0  0  0  0
    8.0125    5.1001    9.5389 C   0  0  0  0  0  0  0  0  0  0  0  0
    8.6056    6.3552    9.6024 C   0  0  0  0  0  0  0  0  0  0  0  0
    8.0093    7.2415    9.4332 H   0  0  0  0  0  0  0  0  0  0  0  0
    9.9558    6.4599    9.8861 C   0  0  0  0  0  0  0  0  0  0  0  0
   10.4232    7.4333    9.9221 H   0  0  0  0  0  0  0  0  0  0  0  0
   10.7072    5.3215   10.1284 C   0  0  0  0  0  0  0  0  0  0  0  0
   11.7616    5.4096   10.3460 H   0  0  0  0  0  0  0  0  0  0  0  0
   10.1093    4.0711   10.1022 C   0  0  0  0  0  0  0  0  0  0  0  0
   10.6968    3.1880   10.3073 H   0  0  0  0  0  0  0  0  0  0  0  0
    8.7627    3.9589    9.8123 C   0  0  0  0  0  0  0  0  0  0  0  0
    8.2686    2.9757    9.7861 H   0  0  0  0  0  0  0  0  0  0  0  0
  1  2  1  6  0  0  0
  1  5  1  0  0  0  0
  1  3  1  0  0  0  0
  4  7  1  0  0  0  0
  5 65  1  0  0  0  0
  5 43  1  0  0  0  0
  6  4  1  0  0  0  0
  6  1  1  0  0  0  0
  7  9  1  0  0  0  0
  7  3  1  0  0  0  0
  7  8  1  0  0  0  0
 10 11  1  0  0  0  0
 10  4  1  0  0  0  0
 11 12  1  0  0  0  0
 13 14  1  0  0  0  0
 13 11  2  0  0  0  0
 15 13  1  0  0  0  0
 16 15  1  0  0  0  0
 17 15  2  0  0  0  0
 17 19  1  0  0  0  0
 18 17  1  0  0  0  0
 19 10  2  0  0  0  0
 20 19  1  0  0  0  0
 21 22  1  0  0  0  0
 21  4  1  0  0  0  0
 22 23  1  0  0  0  0
 24 25  1  0  0  0  0
 24 22  2  0  0  0  0
 26 24  1  0  0  0  0
 27 26  1  0  0  0  0
 28 30  1  0  0  0  0
 28 26  2  0  0  0  0
 29 28  1  0  0  0  0
 30 21  2  0  0  0  0
 31 30  1  0  0  0  0
 32 41  1  0  0  0  0
 32  6  1  0  0  0  0
 33 32  2  0  0  0  0
 34 33  1  0  0  0  0
 35 37  2  0  0  0  0
 35 33  1  0  0  0  0
 36 35  1  0  0  0  0
 37 39  1  0  0  0  0
 38 37  1  0  0  0  0
 39 40  1  0  0  0  0
 39 41  2  0  0  0  0
 41 42  1  0  0  0  0
 43 44  2  0  0  0  0
 43 52  1  0  0  0  0
 44 46  1  0  0  0  0
 45 44  1  0  0  0  0
 46 47  1  0  0  0  0
 46 48  2  0  0  0  0
 48 49  1  0  0  0  0
 50 48  1  0  0  0  0
 50 51  1  0  0  0  0
 52 50  2  0  0  0  0
 53 52  1  0  0  0  0
 54  5  1  0  0  0  0
 55 54  1  0  0  0  0
 55 56  1  0  0  0  0
 57 55  2  0  0  0  0
 58 57  1  0  0  0  0
 59 61  2  0  0  0  0
 59 57  1  0  0  0  0
 60 59  1  0  0  0  0
 61 63  1  0  0  0  0
 62 61  1  0  0  0  0
 63 64  1  0  0  0  0
 63 54  2  0  0  0  0
 65 66  2  0  0  0  0
 65 74  1  0  0  0  0
 66 68  1  0  0  0  0
 67 66  1  0  0  0  0
 68 69  1  0  0  0  0
 68 70  2  0  0  0  0
 70 71  1  0  0  0  0
 72 70  1  0  0  0  0
 72 73  1  0  0  0  0
 74 72  2  0  0  0  0
 75 74  1  0  0  0  0
M  END
$$$$
