CSD_code = AKUHAQ | q = 0 | S = 0 | Stoichiometry = C14H14AuClN2O4 | MND = 4
 OpenBabel04212202003D

 36 38  0  0  0  0  0  0  0  0999 V2000
    0.6132    1.2011    4.2111 Au  0  0  2  0  0  0  0  0  0  0  0  0
    1.1361    3.3225    3.4132 Cl  0  0  0  0  0  0  0  0  0  0  0  0
    0.6045    3.6488    6.1349 O   0  0  0  0  0  0  0  0  0  0  0  0
    0.9990   -4.3593    6.4914 O   0  0  0  0  0  0  0  0  0  0  0  0
    0.0518    0.6612    2.4408 O   0  0  0  0  0  0  0  0  0  0  0  0
    0.2651    0.1390    0.3365 O   0  0  0  0  0  0  0  0  0  0  0  0
    1.0459    1.4647    6.1607 N   0  0  0  0  0  0  0  0  0  0  0  0
    1.2156   -2.0813    6.6360 N   0  0  0  0  0  0  0  0  0  0  0  0
    1.1248    2.6418    6.8000 C   0  0  0  0  0  0  0  0  0  0  0  0
    1.6843    2.7165    8.0839 C   0  0  0  0  0  0  0  0  0  0  0  0
    2.0834    1.5568    8.7151 C   0  0  0  0  0  0  0  0  0  0  0  0
    1.8918    0.3345    8.0875 C   0  0  0  0  0  0  0  0  0  0  0  0
    1.3663    0.3214    6.8080 C   0  0  0  0  0  0  0  0  0  0  0  0
    1.0502   -0.8854    6.0662 C   0  0  0  0  0  0  0  0  0  0  0  0
    0.5198   -0.7031    4.7935 C   0  0  0  0  0  0  0  0  0  0  0  0
    0.1344   -1.8317    4.0800 C   0  0  0  0  0  0  0  0  0  0  0  0
    0.2845   -3.0726    4.6607 C   0  0  0  0  0  0  0  0  0  0  0  0
    0.8446   -3.1479    5.9495 C   0  0  0  0  0  0  0  0  0  0  0  0
    0.7822    4.9839    6.5693 C   0  0  0  0  0  0  0  0  0  0  0  0
    1.5620   -4.4054    7.7895 C   0  0  0  0  0  0  0  0  0  0  0  0
    0.7856    0.5035    1.3617 C   0  0  0  0  0  0  0  0  0  0  0  0
    2.2721    0.7639    1.4799 C   0  0  0  0  0  0  0  0  0  0  0  0
    1.7799    3.6721    8.5713 H   0  0  0  0  0  0  0  0  0  0  0  0
    2.5167    1.6029    9.7025 H   0  0  0  0  0  0  0  0  0  0  0  0
    2.1362   -0.6049    8.5530 H   0  0  0  0  0  0  0  0  0  0  0  0
   -0.2816   -1.7262    3.0892 H   0  0  0  0  0  0  0  0  0  0  0  0
   -0.0058   -3.9813    4.1597 H   0  0  0  0  0  0  0  0  0  0  0  0
    0.3951    5.5933    5.7550 H   0  0  0  0  0  0  0  0  0  0  0  0
    0.2172    5.1797    7.4849 H   0  0  0  0  0  0  0  0  0  0  0  0
    1.8391    5.2135    6.7200 H   0  0  0  0  0  0  0  0  0  0  0  0
    1.6040   -5.4583    8.0587 H   0  0  0  0  0  0  0  0  0  0  0  0
    2.5646   -3.9724    7.7899 H   0  0  0  0  0  0  0  0  0  0  0  0
    0.9390   -3.8556    8.4984 H   0  0  0  0  0  0  0  0  0  0  0  0
    2.7622    0.4946    0.5486 H   0  0  0  0  0  0  0  0  0  0  0  0
    2.4277    1.8222    1.6816 H   0  0  0  0  0  0  0  0  0  0  0  0
    2.6895    0.1855    2.3042 H   0  0  0  0  0  0  0  0  0  0  0  0
  1  2  1  6  0  0  0
  1 15  2  0  0  0  0
  1  7  1  0  0  0  0
  3 19  1  0  0  0  0
  3  9  1  0  0  0  0
  4 20  1  0  0  0  0
  5  1  1  0  0  0  0
  6 21  2  0  0  0  0
  7  9  1  0  0  0  0
  7 13  1  0  0  0  0
  9 10  2  0  0  0  0
 10 23  1  0  0  0  0
 10 11  1  0  0  0  0
 11 24  1  0  0  0  0
 12 25  1  0  0  0  0
 12 11  2  0  0  0  0
 13 12  1  0  0  0  0
 14  8  1  0  0  0  0
 14 13  2  0  0  0  0
 15 14  1  0  0  0  0
 16 17  2  0  0  0  0
 16 15  1  0  0  0  0
 17 18  1  0  0  0  0
 18  4  1  0  0  0  0
 18  8  2  0  0  0  0
 19 30  1  0  0  0  0
 19 29  1  0  0  0  0
 20 32  1  0  0  0  0
 20 31  1  0  0  0  0
 20 33  1  0  0  0  0
 21 22  1  0  0  0  0
 21  5  1  0  0  0  0
 22 35  1  0  0  0  0
 22 36  1  0  0  0  0
 26 16  1  0  0  0  0
 27 17  1  0  0  0  0
 28 19  1  0  0  0  0
 34 22  1  0  0  0  0
M  END
$$$$
