CSD_code = AKULAT | q = 0 | S = 0 | Stoichiometry = C39H49Br2N2NiP | MND = 4
 OpenBabel04212202003D

 94 98  0  0  1  0  0  0  0  0999 V2000
    1.5255   10.3158    5.8173 Ni  0  0  0  0  0  0  0  0  0  0  0  0
   -0.2133   11.6116    6.0013 Br  0  0  0  0  0  0  0  0  0  0  0  0
    3.1114   11.9048    5.9100 Br  0  0  0  0  0  0  0  0  0  0  0  0
    2.2531    8.7699    2.9576 P   0  0  0  0  0  4  0  0  0  0  0  0
    1.1656    9.7119    3.6128 N   0  0  0  0  0  0  0  0  0  0  0  0
    2.6843    8.9151    6.2498 N   0  0  0  0  0  0  0  0  0  0  0  0
    1.8638    6.9808    2.7600 C   0  0  0  0  0  0  0  0  0  0  0  0
    2.1318    6.2572    1.6048 C   0  0  0  0  0  0  0  0  0  0  0  0
    2.6065    6.7371    0.7616 H   0  0  0  0  0  0  0  0  0  0  0  0
    1.7903    4.9177    1.5347 C   0  0  0  0  0  0  0  0  0  0  0  0
    1.9954    4.3617    0.6319 H   0  0  0  0  0  0  0  0  0  0  0  0
    1.1864    4.2905    2.6119 C   0  0  0  0  0  0  0  0  0  0  0  0
    0.9163    3.2472    2.5480 H   0  0  0  0  0  0  0  0  0  0  0  0
    0.9300    5.0032    3.7718 C   0  0  0  0  0  0  0  0  0  0  0  0
    0.4646    4.5174    4.6169 H   0  0  0  0  0  0  0  0  0  0  0  0
    1.2695    6.3407    3.8408 C   0  0  0  0  0  0  0  0  0  0  0  0
    1.0735    6.9084    4.7377 H   0  0  0  0  0  0  0  0  0  0  0  0
    2.8358    9.2399    1.3034 C   0  0  0  0  0  0  0  0  0  0  0  0
    4.1330    9.6345    1.0067 C   0  0  0  0  0  0  0  0  0  0  0  0
    4.8815    9.6909    1.7826 H   0  0  0  0  0  0  0  0  0  0  0  0
    4.4669    9.9604   -0.2968 C   0  0  0  0  0  0  0  0  0  0  0  0
    5.4769   10.2623   -0.5302 H   0  0  0  0  0  0  0  0  0  0  0  0
    3.5118    9.9047   -1.2988 C   0  0  0  0  0  0  0  0  0  0  0  0
    3.7795   10.1597   -2.3130 H   0  0  0  0  0  0  0  0  0  0  0  0
    2.2093    9.5353   -0.9990 C   0  0  0  0  0  0  0  0  0  0  0  0
    1.4590    9.5078   -1.7748 H   0  0  0  0  0  0  0  0  0  0  0  0
    1.8705    9.2045    0.2996 C   0  0  0  0  0  0  0  0  0  0  0  0
    0.8565    8.9177    0.5470 H   0  0  0  0  0  0  0  0  0  0  0  0
    0.1808   10.3459    2.7938 C   0  0  0  0  0  0  0  0  0  0  0  0
    0.4613   11.5746    2.1747 C   0  0  0  0  0  0  0  0  0  0  0  0
   -0.5194   12.1606    1.3870 C   0  0  0  0  0  0  0  0  0  0  0  0
   -0.3140   13.1065    0.9103 H   0  0  0  0  0  0  0  0  0  0  0  0
   -1.7504   11.5648    1.2039 C   0  0  0  0  0  0  0  0  0  0  0  0
   -2.4963   12.0352    0.5800 H   0  0  0  0  0  0  0  0  0  0  0  0
   -2.0287   10.3737    1.8424 C   0  0  0  0  0  0  0  0  0  0  0  0
   -2.9988    9.9162    1.7186 H   0  0  0  0  0  0  0  0  0  0  0  0
   -1.0799    9.7558    2.6429 C   0  0  0  0  0  0  0  0  0  0  0  0
    1.7599   12.3148    2.3819 C   0  0  0  0  0  0  0  0  0  0  0  0
    2.4509   11.6660    2.9337 H   0  0  0  0  0  0  0  0  0  0  0  0
    1.5112   13.5730    3.2182 C   0  0  0  0  0  0  0  0  0  0  0  0
    0.9876   13.3307    4.1363 H   0  0  0  0  0  0  0  0  0  0  0  0
    0.9033   14.2844    2.6643 H   0  0  0  0  0  0  0  0  0  0  0  0
    2.4579   14.0407    3.4767 H   0  0  0  0  0  0  0  0  0  0  0  0
    2.4268   12.7124    1.0634 C   0  0  0  0  0  0  0  0  0  0  0  0
    2.4811   11.8748    0.3738 H   0  0  0  0  0  0  0  0  0  0  0  0
    3.4355   13.0704    1.2577 H   0  0  0  0  0  0  0  0  0  0  0  0
    1.8750   13.5141    0.5788 H   0  0  0  0  0  0  0  0  0  0  0  0
   -1.4354    8.4704    3.3500 C   0  0  0  0  0  0  0  0  0  0  0  0
   -0.5796    8.1714    3.9608 H   0  0  0  0  0  0  0  0  0  0  0  0
   -1.7150    7.3465    2.3505 C   0  0  0  0  0  0  0  0  0  0  0  0
   -0.8586    7.1900    1.6949 H   0  0  0  0  0  0  0  0  0  0  0  0
   -2.5784    7.5849    1.7341 H   0  0  0  0  0  0  0  0  0  0  0  0
   -1.9145    6.4132    2.8748 H   0  0  0  0  0  0  0  0  0  0  0  0
   -2.6276    8.6851    4.2838 C   0  0  0  0  0  0  0  0  0  0  0  0
   -2.4297    9.5187    4.9541 H   0  0  0  0  0  0  0  0  0  0  0  0
   -2.8137    7.7879    4.8732 H   0  0  0  0  0  0  0  0  0  0  0  0
   -3.5286    8.9126    3.7201 H   0  0  0  0  0  0  0  0  0  0  0  0
    3.7128    8.7557    4.0884 C   0  0  0  0  0  0  0  0  0  0  0  0
    4.5056    8.1660    3.6239 H   0  0  0  0  0  0  0  0  0  0  0  0
    4.0080    9.8114    4.1710 H   0  0  0  0  0  0  0  0  0  0  0  0
    3.3913    8.2229    5.4410 C   0  0  1  0  0  3  0  0  0  0  0  0
    3.9656    6.8811    5.7762 C   0  0  0  0  0  0  0  0  0  0  0  0
    3.6144    6.5289    6.7445 H   0  0  0  0  0  0  0  0  0  0  0  0
    5.0533    6.9408    5.7946 H   0  0  0  0  0  0  0  0  0  0  0  0
    3.6851    6.1629    5.0050 H   0  0  0  0  0  0  0  0  0  0  0  0
    2.5732    8.6116    7.6289 C   0  0  0  0  0  0  0  0  0  0  0  0
    1.3464    8.1986    8.1750 C   0  0  0  0  0  0  0  0  0  0  0  0
    1.2834    7.8947    9.5271 C   0  0  0  0  0  0  0  0  0  0  0  0
    0.3521    7.5539    9.9503 H   0  0  0  0  0  0  0  0  0  0  0  0
    2.3905    8.0283   10.3399 C   0  0  0  0  0  0  0  0  0  0  0  0
    2.3233    7.7920   11.3909 H   0  0  0  0  0  0  0  0  0  0  0  0
    3.5790    8.4829    9.8041 C   0  0  0  0  0  0  0  0  0  0  0  0
    4.4342    8.6090   10.4488 H   0  0  0  0  0  0  0  0  0  0  0  0
    3.7026    8.7800    8.4550 C   0  0  0  0  0  0  0  0  0  0  0  0
   -1.1163    8.7019    7.9649 C   0  0  0  0  0  0  0  0  0  0  0  0
   -0.8964    9.7334    8.2297 H   0  0  0  0  0  0  0  0  0  0  0  0
   -1.4343    8.1759    8.8618 H   0  0  0  0  0  0  0  0  0  0  0  0
   -1.9455    8.7024    7.2615 H   0  0  0  0  0  0  0  0  0  0  0  0
   -0.1697    6.5412    7.1080 C   0  0  0  0  0  0  0  0  0  0  0  0
    0.7233    6.0201    6.7636 H   0  0  0  0  0  0  0  0  0  0  0  0
   -0.9638    6.4033    6.3766 H   0  0  0  0  0  0  0  0  0  0  0  0
   -0.4820    6.0791    8.0426 H   0  0  0  0  0  0  0  0  0  0  0  0
    0.1031    8.0317    7.3296 C   0  0  0  0  0  0  0  0  0  0  0  0
    0.2629    8.5130    6.3450 H   0  0  0  0  0  0  0  0  0  0  0  0
    5.0241    9.3184    7.9569 C   0  0  0  0  0  0  0  0  0  0  0  0
    4.9770    9.4841    6.8773 H   0  0  0  0  0  0  0  0  0  0  0  0
    6.1690    8.3427    8.2477 C   0  0  0  0  0  0  0  0  0  0  0  0
    5.9335    7.3352    7.9105 H   0  0  0  0  0  0  0  0  0  0  0  0
    6.3774    8.2985    9.3134 H   0  0  0  0  0  0  0  0  0  0  0  0
    7.0728    8.6763    7.7429 H   0  0  0  0  0  0  0  0  0  0  0  0
    5.3143   10.6735    8.6090 C   0  0  0  0  0  0  0  0  0  0  0  0
    4.5236   11.3816    8.3811 H   0  0  0  0  0  0  0  0  0  0  0  0
    6.2457   11.0751    8.2191 H   0  0  0  0  0  0  0  0  0  0  0  0
    5.4001   10.5783    9.6882 H   0  0  0  0  0  0  0  0  0  0  0  0
  1  3  1  0  0  0  0
  1  2  1  0  0  0  0
  1  6  1  0  0  0  0
  4  5  1  0  0  0  0
  4 58  1  0  0  0  0
  5  1  1  0  0  0  0
  6 66  1  0  0  0  0
  7  4  1  0  0  0  0
  7 16  1  0  0  0  0
  8  7  2  0  0  0  0
  9  8  1  0  0  0  0
 10  8  1  0  0  0  0
 10 12  2  0  0  0  0
 11 10  1  0  0  0  0
 12 14  1  0  0  0  0
 13 12  1  0  0  0  0
 14 16  2  0  0  0  0
 14 15  1  0  0  0  0
 16 17  1  0  0  0  0
 18  4  1  0  0  0  0
 19 18  1  0  0  0  0
 19 20  1  0  0  0  0
 21 19  2  0  0  0  0
 22 21  1  0  0  0  0
 23 25  2  0  0  0  0
 23 21  1  0  0  0  0
 24 23  1  0  0  0  0
 25 27  1  0  0  0  0
 26 25  1  0  0  0  0
 27 28  1  0  0  0  0
 27 18  2  0  0  0  0
 29  5  1  0  0  0  0
 30 38  1  0  0  0  0
 30 29  2  0  0  0  0
 31 30  1  0  0  0  0
 32 31  1  0  0  0  0
 33 31  2  0  0  0  0
 33 35  1  0  0  0  0
 34 33  1  0  0  0  0
 35 37  2  0  0  0  0
 36 35  1  0  0  0  0
 37 29  1  0  0  0  0
 37 48  1  0  0  0  0
 38 39  1  0  0  0  0
 38 40  1  0  0  0  0
 40 43  1  0  0  0  0
 40 41  1  0  0  0  0
 42 40  1  0  0  0  0
 44 46  1  0  0  0  0
 44 38  1  0  0  0  0
 45 44  1  0  0  0  0
 47 44  1  0  0  0  0
 48 49  1  0  0  0  0
 48 54  1  0  0  0  0
 50 53  1  0  0  0  0
 50 48  1  0  0  0  0
 51 50  1  0  0  0  0
 52 50  1  0  0  0  0
 54 56  1  0  0  0  0
 54 55  1  0  0  0  0
 57 54  1  0  0  0  0
 58 60  1  0  0  0  0
 58 61  1  0  0  0  0
 59 58  1  0  0  0  0
 61 62  1  1  0  0  0
 61  6  1  0  0  0  0
 62 64  1  0  0  0  0
 62 63  1  0  0  0  0
 65 62  1  0  0  0  0
 66 67  2  0  0  0  0
 66 74  1  0  0  0  0
 67 68  1  0  0  0  0
 68 69  1  0  0  0  0
 68 70  2  0  0  0  0
 70 71  1  0  0  0  0
 72 70  1  0  0  0  0
 72 73  1  0  0  0  0
 74 72  2  0  0  0  0
 75 76  1  0  0  0  0
 75 77  1  0  0  0  0
 78 75  1  0  0  0  0
 79 83  1  0  0  0  0
 79 82  1  0  0  0  0
 80 79  1  0  0  0  0
 81 79  1  0  0  0  0
 83 75  1  0  0  0  0
 83 67  1  0  0  0  0
 84 83  1  0  0  0  0
 85 87  1  0  0  0  0
 85 74  1  0  0  0  0
 85 91  1  0  0  0  0
 86 85  1  0  0  0  0
 87 89  1  0  0  0  0
 88 87  1  0  0  0  0
 90 87  1  0  0  0  0
 91 94  1  0  0  0  0
 92 91  1  0  0  0  0
 93 91  1  0  0  0  0
M  END
$$$$
