CSD_code = ALANUX | q = 0 | S = 0 | Stoichiometry = C45H45ClN2Pt | MND = 4
 OpenBabel04212202003D

 94102  0  0  0  0  0  0  0  0999 V2000
   14.1465    8.3762    5.6868 Pt  0  0  1  0  0  0  0  0  0  0  0  0
   15.1112   10.1324    4.7328 Cl  0  0  0  0  0  0  0  0  0  0  0  0
   13.4036    6.8291    6.5182 N   0  0  0  0  0  0  0  0  0  0  0  0
   15.9395    7.2755    6.0875 N   0  0  0  0  0  0  0  0  0  0  0  0
   12.2288    8.9206    5.5745 C   0  0  0  0  0  0  0  0  0  0  0  0
   11.6531   10.0687    5.0449 C   0  0  0  0  0  3  0  0  0  0  0  0
   12.2741   10.8347    4.6038 H   0  0  0  0  0  0  0  0  0  0  0  0
   10.2757   10.2270    5.0866 C   0  0  0  0  0  0  0  0  0  0  0  0
    9.4367   11.3131    4.6117 C   0  0  0  0  0  0  0  0  0  0  0  0
    9.7663   12.4972    3.9731 C   0  0  0  0  0  0  0  0  0  0  0  0
   10.7959   12.7362    3.7538 H   0  0  0  0  0  0  0  0  0  0  0  0
    8.7460   13.3668    3.6231 C   0  0  0  0  0  0  0  0  0  0  0  0
    8.9813   14.2949    3.1226 H   0  0  0  0  0  0  0  0  0  0  0  0
    7.4241   13.0619    3.9106 C   0  0  0  0  0  0  0  0  0  0  0  0
    6.6442   13.7562    3.6328 H   0  0  0  0  0  0  0  0  0  0  0  0
    7.0901   11.8759    4.5511 C   0  0  0  0  0  0  0  0  0  0  0  0
    6.0565   11.6493    4.7699 H   0  0  0  0  0  0  0  0  0  0  0  0
    8.0975   10.9990    4.8926 C   0  0  0  0  0  0  0  0  0  0  0  0
    9.4477    9.2480    5.6606 C   0  0  0  0  0  0  0  0  0  0  0  0
    9.9906    8.1022    6.1894 C   0  0  0  0  0  0  0  0  0  0  0  0
    9.3572    7.3459    6.6301 H   0  0  0  0  0  0  0  0  0  0  0  0
   11.3781    7.9324    6.1460 C   0  0  0  0  0  0  0  0  0  0  0  0
   12.0622    6.7581    6.6651 C   0  0  0  0  0  0  0  0  0  0  0  0
   11.4946    5.6368    7.2564 C   0  0  0  0  0  0  0  0  0  0  0  0
   10.4271    5.5792    7.3924 H   0  0  0  0  0  0  0  0  0  0  0  0
   12.3071    4.5926    7.6976 C   0  0  0  0  0  0  0  0  0  0  0  0
   11.7241    3.3953    8.3152 C   0  0  0  0  0  0  0  0  0  0  0  0
   10.5501    2.8402    7.8095 C   0  0  0  0  0  0  0  0  0  0  0  0
   10.0788    3.2854    6.9456 H   0  0  0  0  0  0  0  0  0  0  0  0
   10.0047    1.7081    8.3848 C   0  0  0  0  0  0  0  0  0  0  0  0
    9.0987    1.2834    7.9782 H   0  0  0  0  0  0  0  0  0  0  0  0
   10.6173    1.1175    9.4777 C   0  0  0  0  0  0  0  0  0  0  0  0
   10.1888    0.2345    9.9278 H   0  0  0  0  0  0  0  0  0  0  0  0
   11.7814    1.6644    9.9914 C   0  0  0  0  0  0  0  0  0  0  0  0
   12.2599    1.2111   10.8471 H   0  0  0  0  0  0  0  0  0  0  0  0
   12.3336    2.7921    9.4134 C   0  0  0  0  0  0  0  0  0  0  0  0
   13.2306    3.2256    9.8317 H   0  0  0  0  0  0  0  0  0  0  0  0
   13.6885    4.7076    7.5343 C   0  0  0  0  0  0  0  0  0  0  0  0
   14.3313    3.9031    7.8513 H   0  0  0  0  0  0  0  0  0  0  0  0
   14.2172    5.8445    6.9356 C   0  0  0  0  0  0  0  0  0  0  0  0
   15.6458    6.0871    6.7014 C   0  0  0  0  0  0  0  0  0  0  0  0
   16.6484    5.2150    7.0601 C   0  0  0  0  0  0  0  0  0  0  0  0
   16.4197    4.2779    7.5428 H   0  0  0  0  0  0  0  0  0  0  0  0
   17.9951    5.5339    6.8023 C   0  0  0  0  0  0  0  0  0  0  0  0
   19.0685    4.6874    7.1479 C   0  0  0  0  0  0  0  0  0  0  0  0
   18.8565    3.7458    7.6330 H   0  0  0  0  0  0  0  0  0  0  0  0
   20.3545    5.0604    6.8708 C   0  0  0  0  0  0  0  0  0  0  0  0
   21.1756    4.4116    7.1371 H   0  0  0  0  0  0  0  0  0  0  0  0
   20.6280    6.2861    6.2390 C   0  0  0  0  0  0  0  0  0  0  0  0
   21.6529    6.5548    6.0322 H   0  0  0  0  0  0  0  0  0  0  0  0
   19.6099    7.1294    5.8901 C   0  0  0  0  0  0  0  0  0  0  0  0
   19.8067    8.0733    5.4044 H   0  0  0  0  0  0  0  0  0  0  0  0
   18.2746    6.7726    6.1643 C   0  0  0  0  0  0  0  0  0  0  0  0
   17.1802    7.5960    5.8342 C   0  0  0  0  0  0  0  0  0  0  0  0
   17.3388    8.5506    5.3458 H   0  0  0  0  0  0  0  0  0  0  0  0
    7.9976    9.6664    5.5951 C   0  0  0  0  0  0  0  0  0  0  0  0
    7.4146    9.8468    7.0115 C   0  0  0  0  0  0  0  0  0  0  0  0
    6.3750   10.1714    6.9239 H   0  0  0  0  0  0  0  0  0  0  0  0
    7.4194    8.8790    7.5188 H   0  0  0  0  0  0  0  0  0  0  0  0
    8.1889   10.8558    7.8558 C   0  0  0  0  0  0  0  0  0  0  0  0
    8.1732   11.8308    7.3640 H   0  0  0  0  0  0  0  0  0  0  0  0
    9.2323   10.5412    7.9307 H   0  0  0  0  0  0  0  0  0  0  0  0
    7.5953   10.9869    9.2563 C   0  0  0  0  0  0  0  0  0  0  0  0
    6.5499   11.2893    9.1720 H   0  0  0  0  0  0  0  0  0  0  0  0
    7.6224   10.0137    9.7537 H   0  0  0  0  0  0  0  0  0  0  0  0
    8.3610   12.0039   10.0994 C   0  0  0  0  0  0  0  0  0  0  0  0
    8.2803   12.9899    9.6358 H   0  0  0  0  0  0  0  0  0  0  0  0
    9.4184   11.7278   10.1018 H   0  0  0  0  0  0  0  0  0  0  0  0
    7.8717   12.0841   11.5460 C   0  0  0  0  0  0  0  0  0  0  0  0
    7.8991   11.0866   11.9916 H   0  0  0  0  0  0  0  0  0  0  0  0
    8.5612   12.7162   12.1110 H   0  0  0  0  0  0  0  0  0  0  0  0
    6.4650   12.6578   11.6738 C   0  0  0  0  0  0  0  0  0  0  0  0
    6.1961   12.7694   12.7220 H   0  0  0  0  0  0  0  0  0  0  0  0
    5.7329   12.0052   11.2052 H   0  0  0  0  0  0  0  0  0  0  0  0
    6.4089   13.6356   11.1996 H   0  0  0  0  0  0  0  0  0  0  0  0
    7.1324    8.6439    4.8326 C   0  0  0  0  0  0  0  0  0  0  0  0
    7.0187    7.7660    5.4741 H   0  0  0  0  0  0  0  0  0  0  0  0
    6.1384    9.0705    4.6807 H   0  0  0  0  0  0  0  0  0  0  0  0
    7.6932    8.1812    3.4859 C   0  0  0  0  0  0  0  0  0  0  0  0
    8.7471    7.9199    3.6003 H   0  0  0  0  0  0  0  0  0  0  0  0
    7.1585    7.2720    3.1957 H   0  0  0  0  0  0  0  0  0  0  0  0
    7.5446    9.2017    2.3605 C   0  0  0  0  0  0  0  0  0  0  0  0
    8.1503   10.0816    2.5744 H   0  0  0  0  0  0  0  0  0  0  0  0
    6.5019    9.5238    2.2987 H   0  0  0  0  0  0  0  0  0  0  0  0
    7.9737    8.6234    1.0145 C   0  0  0  0  0  0  0  0  0  0  0  0
    9.0120    8.2902    1.0819 H   0  0  0  0  0  0  0  0  0  0  0  0
    7.3600    7.7495    0.7795 H   0  0  0  0  0  0  0  0  0  0  0  0
    7.8449    9.6466   -0.1110 C   0  0  0  0  0  0  0  0  0  0  0  0
    8.4644   10.5151    0.1233 H   0  0  0  0  0  0  0  0  0  0  0  0
    6.8084    9.9874   -0.1710 H   0  0  0  0  0  0  0  0  0  0  0  0
    8.2668    9.0689   -1.4563 C   0  0  0  0  0  0  0  0  0  0  0  0
    8.1686    9.8142   -2.2422 H   0  0  0  0  0  0  0  0  0  0  0  0
    7.6469    8.2129   -1.7155 H   0  0  0  0  0  0  0  0  0  0  0  0
    9.3035    8.7414   -1.4212 H   0  0  0  0  0  0  0  0  0  0  0  0
  1  2  1  6  0  0  0
  1  4  1  0  0  0  0
  1  3  1  0  0  0  0
  3 23  1  0  0  0  0
  3 40  1  0  0  0  0
  4 41  1  0  0  0  0
  5  1  2  0  0  0  0
  5 22  1  0  0  0  0
  6  8  1  0  0  0  0
  6  5  1  0  0  0  0
  7  6  1  0  0  0  0
  8 19  2  0  0  0  0
  9 18  1  0  0  0  0
  9  8  1  0  0  0  0
 10  9  2  0  0  0  0
 11 10  1  0  0  0  0
 12 14  2  0  0  0  0
 12 10  1  0  0  0  0
 13 12  1  0  0  0  0
 14 16  1  0  0  0  0
 15 14  1  0  0  0  0
 16 17  1  0  0  0  0
 16 18  2  0  0  0  0
 18 56  1  0  0  0  0
 19 20  1  0  0  0  0
 20 21  1  0  0  0  0
 22 20  2  0  0  0  0
 22 23  1  0  0  0  0
 23 24  2  0  0  0  0
 24 25  1  0  0  0  0
 24 26  1  0  0  0  0
 26 27  1  0  0  0  0
 27 36  1  0  0  0  0
 28 27  2  0  0  0  0
 28 30  1  0  0  0  0
 29 28  1  0  0  0  0
 30 32  2  0  0  0  0
 31 30  1  0  0  0  0
 32 33  1  0  0  0  0
 32 34  1  0  0  0  0
 34 35  1  0  0  0  0
 36 37  1  0  0  0  0
 36 34  2  0  0  0  0
 38 26  2  0  0  0  0
 38 39  1  0  0  0  0
 40 38  1  0  0  0  0
 41 40  2  0  0  0  0
 41 42  1  0  0  0  0
 42 43  1  0  0  0  0
 44 42  2  0  0  0  0
 44 45  1  0  0  0  0
 45 46  1  0  0  0  0
 47 48  1  0  0  0  0
 47 45  2  0  0  0  0
 49 47  1  0  0  0  0
 50 49  1  0  0  0  0
 51 53  1  0  0  0  0
 51 49  2  0  0  0  0
 52 51  1  0  0  0  0
 53 44  1  0  0  0  0
 54  4  1  0  0  0  0
 54 53  2  0  0  0  0
 55 54  1  0  0  0  0
 56 19  1  0  0  0  0
 56 57  1  0  0  0  0
 57 59  1  0  0  0  0
 57 60  1  0  0  0  0
 58 57  1  0  0  0  0
 60 62  1  0  0  0  0
 60 63  1  0  0  0  0
 61 60  1  0  0  0  0
 63 65  1  0  0  0  0
 63 66  1  0  0  0  0
 64 63  1  0  0  0  0
 66 68  1  0  0  0  0
 66 69  1  0  0  0  0
 67 66  1  0  0  0  0
 69 72  1  0  0  0  0
 69 70  1  0  0  0  0
 69 71  1  0  0  0  0
 72 73  1  0  0  0  0
 74 72  1  0  0  0  0
 75 72  1  0  0  0  0
 76 77  1  0  0  0  0
 76 56  1  0  0  0  0
 78 76  1  0  0  0  0
 79 80  1  0  0  0  0
 79 76  1  0  0  0  0
 81 79  1  0  0  0  0
 82 83  1  0  0  0  0
 82 79  1  0  0  0  0
 84 82  1  0  0  0  0
 85 86  1  0  0  0  0
 85 82  1  0  0  0  0
 87 85  1  0  0  0  0
 88 89  1  0  0  0  0
 88 85  1  0  0  0  0
 90 88  1  0  0  0  0
 91 94  1  0  0  0  0
 91 88  1  0  0  0  0
 92 91  1  0  0  0  0
 93 91  1  0  0  0  0
M  END
$$$$
