CSD_code = ALAQUA | q = 0 | S = 0 | Stoichiometry = C24H18Cl4N4O2Pd | MND = 4
 OpenBabel04212202003D

 53 56  0  0  0  0  0  0  0  0999 V2000
   -0.6005    5.5840    2.1534 Cl  0  0  0  0  0  0  0  0  0  0  0  0
    0.0001    5.0880    0.0002 Pd  0  0  0  0  0  0  0  0  0  0  0  0
    9.4246    7.4471    6.9743 Cl  0  0  0  0  0  0  0  0  0  0  0  0
    5.0266    5.3002    2.1638 O   0  0  0  0  0  0  0  0  0  0  0  0
    1.4926    6.2949    0.1764 N   0  0  0  0  0  0  0  0  0  0  0  0
    3.5418    6.8944    1.2366 C   0  0  0  0  0  0  0  0  0  0  0  0
    4.6447    6.4485    2.1521 C   0  0  0  0  0  0  0  0  0  0  0  0
    5.1291    7.4526    2.9343 N   0  0  0  0  0  0  0  0  0  0  0  0
    2.5089    5.9993    0.9806 C   0  0  0  0  0  3  0  0  0  0  0  0
    2.5070    5.0192    1.4563 H   0  0  0  0  0  0  0  0  0  0  0  0
    6.1504    7.3989    3.8888 C   0  0  0  0  0  0  0  0  0  0  0  0
    3.5227    8.1298    0.5936 C   0  0  0  0  0  0  0  0  0  0  0  0
    4.3241    8.8421    0.7269 H   0  0  0  0  0  0  0  0  0  0  0  0
    2.4687    8.4182   -0.2596 C   0  0  0  0  0  0  0  0  0  0  0  0
    2.4238    9.3599   -0.7831 H   0  0  0  0  0  0  0  0  0  0  0  0
    7.4179    8.5743    5.5689 C   0  0  0  0  0  0  0  0  0  0  0  0
    7.6189    9.4705    6.1340 H   0  0  0  0  0  0  0  0  0  0  0  0
    1.4676    7.4793   -0.4368 C   0  0  0  0  0  0  0  0  0  0  0  0
    0.6220    7.6651   -1.0979 H   0  0  0  0  0  0  0  0  0  0  0  0
    6.4144    8.5555    4.6213 C   0  0  0  0  0  0  0  0  0  0  0  0
    5.8287    9.4475    4.4489 H   0  0  0  0  0  0  0  0  0  0  0  0
    8.1670    7.4286    5.7900 C   0  0  0  0  0  0  0  0  0  0  0  0
    7.9133    6.2720    5.0699 C   0  0  0  0  0  0  0  0  0  0  0  0
    8.5001    5.3854    5.2497 H   0  0  0  0  0  0  0  0  0  0  0  0
    6.9089    6.2547    4.1208 C   0  0  0  0  0  0  0  0  0  0  0  0
    6.7081    5.3572    3.5608 H   0  0  0  0  0  0  0  0  0  0  0  0
    4.6597    8.3462    2.8774 H   0  0  0  0  0  0  0  0  0  0  0  0
    0.6001    4.5928   -2.1523 Cl  0  0  0  0  0  0  0  0  0  0  0  0
   -9.4246    2.7291   -6.9743 Cl  0  0  0  0  0  0  0  0  0  0  0  0
   -5.0265    4.8760   -2.1639 O   0  0  0  0  0  0  0  0  0  0  0  0
   -1.4924    3.8812   -0.1769 N   0  0  0  0  0  0  0  0  0  0  0  0
   -3.5418    3.2818   -1.2368 C   0  0  0  0  0  0  0  0  0  0  0  0
   -4.6447    3.7277   -2.1521 C   0  0  0  0  0  0  0  0  0  0  0  0
   -5.1292    2.7236   -2.9342 N   0  0  0  0  0  0  0  0  0  0  0  0
   -2.5087    4.1768   -0.9810 C   0  0  0  0  0  3  0  0  0  0  0  0
   -2.5070    5.1570   -1.4565 H   0  0  0  0  0  0  0  0  0  0  0  0
   -6.1505    2.7772   -3.8888 C   0  0  0  0  0  0  0  0  0  0  0  0
   -3.5227    2.0464   -0.5936 C   0  0  0  0  0  0  0  0  0  0  0  0
   -4.3240    1.3341   -0.7269 H   0  0  0  0  0  0  0  0  0  0  0  0
   -2.4687    1.7581    0.2596 C   0  0  0  0  0  0  0  0  0  0  0  0
   -2.4238    0.8164    0.7831 H   0  0  0  0  0  0  0  0  0  0  0  0
   -7.4179    1.6018   -5.5689 C   0  0  0  0  0  0  0  0  0  0  0  0
   -7.6190    0.7056   -6.1339 H   0  0  0  0  0  0  0  0  0  0  0  0
   -1.4675    2.6969    0.4366 C   0  0  0  0  0  0  0  0  0  0  0  0
   -0.6220    2.5112    1.0978 H   0  0  0  0  0  0  0  0  0  0  0  0
   -6.4144    1.6207   -4.6213 C   0  0  0  0  0  0  0  0  0  0  0  0
   -5.8288    0.7286   -4.4488 H   0  0  0  0  0  0  0  0  0  0  0  0
   -8.1670    2.7475   -5.7900 C   0  0  0  0  0  0  0  0  0  0  0  0
   -7.9133    3.9041   -5.0699 C   0  0  0  0  0  0  0  0  0  0  0  0
   -8.5000    4.7907   -5.2498 H   0  0  0  0  0  0  0  0  0  0  0  0
   -6.9089    3.9215   -4.1208 C   0  0  0  0  0  0  0  0  0  0  0  0
   -6.7081    4.8190   -3.5609 H   0  0  0  0  0  0  0  0  0  0  0  0
   -4.6598    1.8300   -2.8773 H   0  0  0  0  0  0  0  0  0  0  0  0
  2  5  1  0  0  0  0
  2  1  1  0  0  0  0
  5  9  1  0  0  0  0
  6  7  1  0  0  0  0
  7  4  2  0  0  0  0
  7  8  1  0  0  0  0
  8 11  1  0  0  0  0
  9  6  1  0  0  0  0
  9 10  1  0  0  0  0
 11 25  2  0  0  0  0
 11 20  1  0  0  0  0
 12 13  1  0  0  0  0
 12  6  2  0  0  0  0
 14 12  1  0  0  0  0
 15 14  1  0  0  0  0
 16 22  1  0  0  0  0
 16 17  1  0  0  0  0
 18 14  2  0  0  0  0
 18  5  1  0  0  0  0
 19 18  1  0  0  0  0
 20 16  2  0  0  0  0
 21 20  1  0  0  0  0
 22  3  1  0  0  0  0
 23 24  1  0  0  0  0
 23 22  2  0  0  0  0
 25 23  1  0  0  0  0
 26 25  1  0  0  0  0
 27  8  1  0  0  0  0
 28  2  1  0  0  0  0
 29 48  1  0  0  0  0
 30 33  2  0  0  0  0
 31  2  1  0  0  0  0
 31 44  1  0  0  0  0
 32 35  1  0  0  0  0
 32 38  2  0  0  0  0
 33 32  1  0  0  0  0
 34 53  1  0  0  0  0
 34 33  1  0  0  0  0
 35 31  1  0  0  0  0
 36 35  1  0  0  0  0
 37 34  1  0  0  0  0
 38 40  1  0  0  0  0
 39 38  1  0  0  0  0
 40 44  2  0  0  0  0
 40 41  1  0  0  0  0
 42 46  1  0  0  0  0
 43 42  1  0  0  0  0
 44 45  1  0  0  0  0
 46 47  1  0  0  0  0
 46 37  2  0  0  0  0
 48 42  2  0  0  0  0
 48 49  1  0  0  0  0
 49 51  2  0  0  0  0
 50 49  1  0  0  0  0
 51 37  1  0  0  0  0
 51 52  1  0  0  0  0
M  END
$$$$
