CSD_code = ALAWAM | q = 1 | S = 0 | Stoichiometry = C16H26ClN2O3RuS3(1+) | MND = 6
 OpenBabel04212202003D

 52 54  0  0  0  0  0  0  0  0999 V2000
    8.2403    3.4429    1.0719 Ru  0  0  0  0  0  0  0  0  0  0  0  0
    7.9749    4.4778    3.1343 Cl  0  0  0  0  0  0  0  0  0  0  0  0
    9.3426    1.6828    1.9190 S   0  0  0  0  0  0  0  0  0  0  0  0
   10.2204    4.6784    1.0071 S   0  0  0  0  0  0  0  0  0  0  0  0
    6.0291    5.6221    1.2559 S   0  0  0  0  0  3  0  0  0  0  0  0
   10.7301    1.6953    1.5111 O   0  0  0  0  0  1  0  0  0  0  0  0
   11.0550    4.4793   -0.1626 O   0  0  0  0  0  1  0  0  0  0  0  0
    7.1447    5.1912    0.3254 O   0  0  0  0  0  0  0  0  0  0  0  0
    8.2661    2.6568   -0.7563 N   0  0  0  0  0  0  0  0  0  0  0  0
    6.4594    2.5273    1.0801 N   0  0  0  0  0  0  0  0  0  0  0  0
    7.0781    2.1666   -1.1718 C   0  0  0  0  0  0  0  0  0  0  0  0
    6.9070    1.6871   -2.4684 C   0  0  0  0  0  0  0  0  0  0  0  0
    7.9797    1.6969   -3.3431 C   0  0  0  0  0  0  0  0  0  0  0  0
    9.2000    2.1746   -2.8896 C   0  0  0  0  0  0  0  0  0  0  0  0
    9.2967    2.6461   -1.5897 C   0  0  0  0  0  0  0  0  0  0  0  0
    6.0421    2.1257   -0.1393 C   0  0  0  0  0  0  0  0  0  0  0  0
    4.7384    1.6718   -0.3354 C   0  0  0  0  0  0  0  0  0  0  0  0
    3.8659    1.6198    0.7368 C   0  0  0  0  0  0  0  0  0  0  0  0
    4.3183    2.0189    1.9880 C   0  0  0  0  0  0  0  0  0  0  0  0
    5.6197    2.4692    2.1120 C   0  0  0  0  0  0  0  0  0  0  0  0
    9.3028    1.4599    3.7205 C   0  0  0  0  0  0  0  0  0  0  0  0
    8.6660    0.0561    1.4474 C   0  0  0  0  0  0  0  0  0  0  0  0
    9.9078    6.4683    1.0814 C   0  0  0  0  0  0  0  0  0  0  0  0
   11.3127    4.5653    2.4513 C   0  0  0  0  0  0  0  0  0  0  0  0
    4.7866    6.1961    0.0407 C   0  0  0  0  0  0  0  0  0  0  0  0
    6.5012    7.2786    1.8442 C   0  0  0  0  0  0  0  0  0  0  0  0
    5.9504    1.3092   -2.7890 H   0  0  0  0  0  0  0  0  0  0  0  0
    7.8647    1.3340   -4.3521 H   0  0  0  0  0  0  0  0  0  0  0  0
   10.0675    2.1918   -3.5282 H   0  0  0  0  0  0  0  0  0  0  0  0
   10.2287    3.0452   -1.2082 H   0  0  0  0  0  0  0  0  0  0  0  0
    4.4104    1.3673   -1.3152 H   0  0  0  0  0  0  0  0  0  0  0  0
    2.8541    1.2729    0.6006 H   0  0  0  0  0  0  0  0  0  0  0  0
    3.6747    1.9871    2.8513 H   0  0  0  0  0  0  0  0  0  0  0  0
    6.0089    2.8128    3.0628 H   0  0  0  0  0  0  0  0  0  0  0  0
    8.2931    1.1978    4.0135 H   0  0  0  0  0  0  0  0  0  0  0  0
   10.0100    0.6800    3.9792 H   0  0  0  0  0  0  0  0  0  0  0  0
    9.5885    2.3977    4.1866 H   0  0  0  0  0  0  0  0  0  0  0  0
    7.6393   -0.0125    1.7914 H   0  0  0  0  0  0  0  0  0  0  0  0
    8.7160   -0.0242    0.3657 H   0  0  0  0  0  0  0  0  0  0  0  0
    9.2816   -0.7144    1.8980 H   0  0  0  0  0  0  0  0  0  0  0  0
   10.8465    6.9774    0.8953 H   0  0  0  0  0  0  0  0  0  0  0  0
    9.1939    6.7018    0.2979 H   0  0  0  0  0  0  0  0  0  0  0  0
    9.5114    6.7099    2.0603 H   0  0  0  0  0  0  0  0  0  0  0  0
   10.7314    4.7720    3.3429 H   0  0  0  0  0  0  0  0  0  0  0  0
   11.7188    3.5594    2.4668 H   0  0  0  0  0  0  0  0  0  0  0  0
   12.1112    5.2866    2.3226 H   0  0  0  0  0  0  0  0  0  0  0  0
    5.2457    6.8992   -0.6446 H   0  0  0  0  0  0  0  0  0  0  0  0
    4.4371    5.3270   -0.5071 H   0  0  0  0  0  0  0  0  0  0  0  0
    3.9583    6.6544    0.5678 H   0  0  0  0  0  0  0  0  0  0  0  0
    7.1903    7.1460    2.6714 H   0  0  0  0  0  0  0  0  0  0  0  0
    6.9676    7.8327    1.0374 H   0  0  0  0  0  0  0  0  0  0  0  0
    5.6090    7.7836    2.1959 H   0  0  0  0  0  0  0  0  0  0  0  0
  1 10  1  0  0  0  0
  1  3  1  0  0  0  0
  1  2  1  0  0  0  0
  3 21  1  0  0  0  0
  4  1  1  0  0  0  0
  4 23  1  0  0  0  0
  4 24  1  0  0  0  0
  5 26  1  0  0  0  0
  6  3  1  0  0  0  0
  7  4  1  0  0  0  0
  8  1  1  0  0  0  0
  8  5  1  0  0  0  0
  9  1  1  0  0  0  0
 10 20  1  0  0  0  0
 11  9  1  0  0  0  0
 11 16  2  0  0  0  0
 12 11  1  0  0  0  0
 13 14  1  0  0  0  0
 13 12  2  0  0  0  0
 14 15  2  0  0  0  0
 15 30  1  0  0  0  0
 15  9  1  0  0  0  0
 16 10  1  0  0  0  0
 17 16  1  0  0  0  0
 17 18  2  0  0  0  0
 18 19  1  0  0  0  0
 19 20  2  0  0  0  0
 19 33  1  0  0  0  0
 20 34  1  0  0  0  0
 21 36  1  0  0  0  0
 21 35  1  0  0  0  0
 21 37  1  0  0  0  0
 22 38  1  0  0  0  0
 22 40  1  0  0  0  0
 22  3  1  0  0  0  0
 23 43  1  0  0  0  0
 24 45  1  0  0  0  0
 24 44  1  0  0  0  0
 25 49  1  0  0  0  0
 25  5  1  0  0  0  0
 26 52  1  0  0  0  0
 26 50  1  0  0  0  0
 27 12  1  0  0  0  0
 28 13  1  0  0  0  0
 29 14  1  0  0  0  0
 31 17  1  0  0  0  0
 32 18  1  0  0  0  0
 39 22  1  0  0  0  0
 41 23  1  0  0  0  0
 42 23  1  0  0  0  0
 46 24  1  0  0  0  0
 47 25  1  0  0  0  0
 48 25  1  0  0  0  0
 51 26  1  0  0  0  0
M  END
$$$$
