CSD_code = ALAWEQ | q = 1 | S = 0 | Stoichiometry = C15H24ClN2O3RuS2(1+) | MND = 6
 OpenBabel04212202003D

 48 49  0  0  0  0  0  0  0  0999 V2000
    9.5723    3.5115   15.1497 Ru  0  0  0  0  0  0  0  0  0  0  0  0
   10.7465    5.0670   16.4282 Cl  0  0  0  0  0  0  0  0  0  0  0  0
   10.8502    3.8772   13.3126 S   0  0  0  0  0  0  0  0  0  0  0  0
    8.1319    5.2586   14.7317 S   0  0  0  0  0  0  0  0  0  0  0  0
   10.9489    2.6295   12.5765 O   0  0  0  0  0  1  0  0  0  0  0  0
    7.6504    5.2325   13.3551 O   0  0  0  0  0  1  0  0  0  0  0  0
    8.5225    3.2253   17.1368 O   0  0  0  0  0  0  0  0  0  0  0  0
    8.6017    2.0616   14.1328 N   0  0  0  0  0  0  0  0  0  0  0  0
   10.7815    1.9446   15.5333 N   0  0  0  0  0  0  0  0  0  0  0  0
    9.2432    0.8765   14.0889 C   0  0  0  0  0  0  0  0  0  0  0  0
    8.7469   -0.1894   13.3431 C   0  0  0  0  0  0  0  0  0  0  0  0
    7.5724   -0.0341   12.6285 C   0  0  0  0  0  0  0  0  0  0  0  0
    6.9239    1.1893   12.6824 C   0  0  0  0  0  0  0  0  0  0  0  0
    7.4778    2.2052   13.4436 C   0  0  0  0  0  0  0  0  0  0  0  0
   10.4748    0.8097   14.8779 C   0  0  0  0  0  0  0  0  0  0  0  0
   11.2902   -0.3157   14.9819 C   0  0  0  0  0  0  0  0  0  0  0  0
   12.4247   -0.2653   15.7724 C   0  0  0  0  0  0  0  0  0  0  0  0
   12.7163    0.9090   16.4522 C   0  0  0  0  0  0  0  0  0  0  0  0
   11.8675    1.9909   16.2994 C   0  0  0  0  0  0  0  0  0  0  0  0
   12.5508    4.3834   13.7038 C   0  0  0  0  0  0  0  0  0  0  0  0
   10.4381    5.1800   12.1234 C   0  0  0  0  0  0  0  0  0  0  0  0
    6.6597    5.2159   15.8020 C   0  0  0  0  0  0  0  0  0  0  0  0
    8.6051    6.9799   15.0602 C   0  0  0  0  0  0  0  0  0  0  0  0
    8.3519    1.9662   17.7751 C   0  0  0  0  0  0  0  0  0  0  0  0
    9.2771   -1.1260   13.3119 H   0  0  0  0  0  0  0  0  0  0  0  0
    7.1785   -0.8461   12.0383 H   0  0  0  0  0  0  0  0  0  0  0  0
    6.0115    1.3654   12.1370 H   0  0  0  0  0  0  0  0  0  0  0  0
    7.0137    3.1806   13.4686 H   0  0  0  0  0  0  0  0  0  0  0  0
   11.0464   -1.2175   14.4466 H   0  0  0  0  0  0  0  0  0  0  0  0
   13.0699   -1.1253   15.8564 H   0  0  0  0  0  0  0  0  0  0  0  0
   13.5862    0.9910   17.0829 H   0  0  0  0  0  0  0  0  0  0  0  0
   12.0583    2.9329   16.8013 H   0  0  0  0  0  0  0  0  0  0  0  0
   13.0307    3.5599   14.2230 H   0  0  0  0  0  0  0  0  0  0  0  0
   12.5146    5.2584   14.3431 H   0  0  0  0  0  0  0  0  0  0  0  0
   13.0702    4.5893   12.7750 H   0  0  0  0  0  0  0  0  0  0  0  0
   10.9606    4.9477   11.2022 H   0  0  0  0  0  0  0  0  0  0  0  0
    9.3636    5.1739   11.9634 H   0  0  0  0  0  0  0  0  0  0  0  0
   10.7566    6.1335   12.5279 H   0  0  0  0  0  0  0  0  0  0  0  0
    6.2538    4.2088   15.7883 H   0  0  0  0  0  0  0  0  0  0  0  0
    6.9632    5.4832   16.8076 H   0  0  0  0  0  0  0  0  0  0  0  0
    5.9322    5.9182   15.4105 H   0  0  0  0  0  0  0  0  0  0  0  0
    8.8634    7.0796   16.1078 H   0  0  0  0  0  0  0  0  0  0  0  0
    9.4637    7.2236   14.4438 H   0  0  0  0  0  0  0  0  0  0  0  0
    7.7646    7.6090   14.7911 H   0  0  0  0  0  0  0  0  0  0  0  0
    7.7052    1.3629   17.1375 H   0  0  0  0  0  0  0  0  0  0  0  0
    9.3042    1.4493   17.9238 H   0  0  0  0  0  0  0  0  0  0  0  0
    7.8644    2.1125   18.7429 H   0  0  0  0  0  0  0  0  0  0  0  0
    9.1264    3.7749   17.6793 H   0  0  0  0  0  0  0  0  0  0  0  0
  1  9  1  0  0  0  0
  1  2  1  0  0  0  0
  3 20  1  0  0  0  0
  3  1  1  0  0  0  0
  4 23  1  0  0  0  0
  4  1  1  0  0  0  0
  4 22  1  0  0  0  0
  5  3  1  0  0  0  0
  6  4  1  0  0  0  0
  7 48  1  0  0  0  0
  7 24  1  0  0  0  0
  8  1  1  0  0  0  0
  9 19  1  0  0  0  0
 10  8  1  0  0  0  0
 10 15  2  0  0  0  0
 11 10  1  0  0  0  0
 12 13  1  0  0  0  0
 12 11  2  0  0  0  0
 13 14  2  0  0  0  0
 14 28  1  0  0  0  0
 14  8  1  0  0  0  0
 15 16  1  0  0  0  0
 15  9  1  0  0  0  0
 16 17  2  0  0  0  0
 17 30  1  0  0  0  0
 17 18  1  0  0  0  0
 18 31  1  0  0  0  0
 19 18  2  0  0  0  0
 19 32  1  0  0  0  0
 20 33  1  0  0  0  0
 20 34  1  0  0  0  0
 21 38  1  0  0  0  0
 21  3  1  0  0  0  0
 22 40  1  0  0  0  0
 23 42  1  0  0  0  0
 24 46  1  0  0  0  0
 24 47  1  0  0  0  0
 25 11  1  0  0  0  0
 26 12  1  0  0  0  0
 27 13  1  0  0  0  0
 29 16  1  0  0  0  0
 35 20  1  0  0  0  0
 36 21  1  0  0  0  0
 37 21  1  0  0  0  0
 39 22  1  0  0  0  0
 41 22  1  0  0  0  0
 43 23  1  0  0  0  0
 44 23  1  0  0  0  0
 45 24  1  0  0  0  0
M  END
$$$$
