CSD_code = ALAWIU | q = 1 | S = 0 | Stoichiometry = C16H23ClN3O2RuS2(1+) | MND = 6
 OpenBabel04212202003D

 48 50  0  0  0  0  0  0  0  0999 V2000
    2.3817    6.3251    5.0854 Ru  0  0  0  0  0  0  0  0  0  0  0  0
    2.4582    4.5417    6.5946 Cl  0  0  0  0  0  0  0  0  0  0  0  0
    4.0957    7.2877    6.2396 S   0  0  0  0  0  0  0  0  0  0  0  0
    0.8369    7.1630    6.6606 S   0  0  0  0  0  0  0  0  0  0  0  0
    3.6387    8.5778    6.7222 O   0  0  0  0  0  1  0  0  0  0  0  0
    0.2052    8.4173    6.2866 O   0  0  0  0  0  1  0  0  0  0  0  0
    2.4780    7.8557    3.7751 N   0  0  0  0  0  0  0  0  0  0  0  0
    3.6489    5.5435    3.7207 N   0  0  0  0  0  0  0  0  0  0  0  0
    0.9180    5.4593    4.1407 N   0  0  0  0  0  2  0  0  0  0  0  0
    3.2911    7.6562    2.7149 C   0  0  0  0  0  0  0  0  0  0  0  0
    3.5232    8.6657    1.7843 C   0  0  0  0  0  0  0  0  0  0  0  0
    2.9158    9.8988    1.9535 C   0  0  0  0  0  0  0  0  0  0  0  0
    2.0879   10.0859    3.0494 C   0  0  0  0  0  0  0  0  0  0  0  0
    1.8948    9.0352    3.9331 C   0  0  0  0  0  0  0  0  0  0  0  0
    3.9100    6.3287    2.6554 C   0  0  0  0  0  0  0  0  0  0  0  0
    4.7162    5.8722    1.6145 C   0  0  0  0  0  0  0  0  0  0  0  0
    5.2557    4.5991    1.6794 C   0  0  0  0  0  0  0  0  0  0  0  0
    4.9757    3.8071    2.7843 C   0  0  0  0  0  0  0  0  0  0  0  0
    4.1628    4.3187    3.7809 C   0  0  0  0  0  0  0  0  0  0  0  0
    5.6266    7.6061    5.2946 C   0  0  0  0  0  0  0  0  0  0  0  0
    4.8764    6.4183    7.6265 C   0  0  0  0  0  0  0  0  0  0  0  0
    1.3624    7.3240    8.3876 C   0  0  0  0  0  0  0  0  0  0  0  0
   -0.5268    5.9888    6.9387 C   0  0  0  0  0  0  0  0  0  0  0  0
    0.1151    4.7596    3.7013 C   0  0  0  0  0  2  0  0  0  0  0  0
   -0.8948    3.9114    3.1602 C   0  0  0  0  0  0  0  0  0  0  0  0
    4.1760    8.4944    0.9445 H   0  0  0  0  0  0  0  0  0  0  0  0
    3.0890   10.6937    1.2455 H   0  0  0  0  0  0  0  0  0  0  0  0
    1.5953   11.0277    3.2251 H   0  0  0  0  0  0  0  0  0  0  0  0
    1.2464    9.1419    4.7948 H   0  0  0  0  0  0  0  0  0  0  0  0
    4.9132    6.4996    0.7614 H   0  0  0  0  0  0  0  0  0  0  0  0
    5.8804    4.2312    0.8810 H   0  0  0  0  0  0  0  0  0  0  0  0
    5.3740    2.8099    2.8730 H   0  0  0  0  0  0  0  0  0  0  0  0
    3.9062    3.7386    4.6604 H   0  0  0  0  0  0  0  0  0  0  0  0
    6.0365    6.6607    4.9555 H   0  0  0  0  0  0  0  0  0  0  0  0
    6.3237    8.1195    5.9473 H   0  0  0  0  0  0  0  0  0  0  0  0
    5.3835    8.2463    4.4519 H   0  0  0  0  0  0  0  0  0  0  0  0
    4.1036    6.0829    8.3093 H   0  0  0  0  0  0  0  0  0  0  0  0
    5.5463    7.1109    8.1233 H   0  0  0  0  0  0  0  0  0  0  0  0
    5.4054    5.5585    7.2324 H   0  0  0  0  0  0  0  0  0  0  0  0
    1.6652    6.3436    8.7378 H   0  0  0  0  0  0  0  0  0  0  0  0
    0.5189    7.7039    8.9527 H   0  0  0  0  0  0  0  0  0  0  0  0
    2.1816    8.0350    8.4208 H   0  0  0  0  0  0  0  0  0  0  0  0
   -1.1184    5.9534    6.0300 H   0  0  0  0  0  0  0  0  0  0  0  0
   -1.1341    6.3529    7.7592 H   0  0  0  0  0  0  0  0  0  0  0  0
   -0.1001    5.0170    7.1626 H   0  0  0  0  0  0  0  0  0  0  0  0
   -1.8501    4.4360    3.1355 H   0  0  0  0  0  0  0  0  0  0  0  0
   -0.9894    3.0203    3.7818 H   0  0  0  0  0  0  0  0  0  0  0  0
   -0.6256    3.6124    2.1473 H   0  0  0  0  0  0  0  0  0  0  0  0
  1  3  1  0  0  0  0
  1  2  1  0  0  0  0
  1  4  1  0  0  0  0
  3  5  1  0  0  0  0
  3 21  1  0  0  0  0
  4 23  1  0  0  0  0
  4 22  1  0  0  0  0
  6  4  1  0  0  0  0
  7 14  1  0  0  0  0
  7  1  1  0  0  0  0
  8 19  1  0  0  0  0
  8  1  1  0  0  0  0
  9  1  1  0  0  0  0
 10  7  1  0  0  0  0
 11 12  2  0  0  0  0
 11 10  1  0  0  0  0
 12 13  1  0  0  0  0
 13 28  1  0  0  0  0
 13 14  2  0  0  0  0
 14 29  1  0  0  0  0
 15 10  2  0  0  0  0
 15  8  1  0  0  0  0
 16 17  2  0  0  0  0
 16 15  1  0  0  0  0
 17 18  1  0  0  0  0
 18 32  1  0  0  0  0
 18 19  2  0  0  0  0
 19 33  1  0  0  0  0
 20 35  1  0  0  0  0
 20  3  1  0  0  0  0
 21 38  1  0  0  0  0
 21 37  1  0  0  0  0
 22 42  1  0  0  0  0
 22 40  1  0  0  0  0
 22 41  1  0  0  0  0
 23 45  1  0  0  0  0
 23 44  1  0  0  0  0
 24  9  1  0  0  0  0
 25 24  1  0  0  0  0
 25 47  1  0  0  0  0
 26 11  1  0  0  0  0
 27 12  1  0  0  0  0
 30 16  1  0  0  0  0
 31 17  1  0  0  0  0
 34 20  1  0  0  0  0
 36 20  1  0  0  0  0
 39 21  1  0  0  0  0
 43 23  1  0  0  0  0
 46 25  1  0  0  0  0
 48 25  1  0  0  0  0
M  END
$$$$
