CSD_code = ALAXEQ | q = 0 | S = 0 | Stoichiometry = C40H40Cl2FeN3P | MND = 4
 OpenBabel04212202003D

 87 92  0  0  1  0  0  0  0  0999 V2000
   -0.1881    4.2498    6.0802 Fe  0  0  0  0  0  0  0  0  0  0  0  0
   -1.0837    6.0305    5.8115 Cl  0  0  0  0  0  0  0  0  0  0  0  0
    0.2182    2.3004    6.1636 Cl  0  0  0  0  0  0  0  0  0  0  0  0
    2.1984    6.0361    8.0386 P   0  0  0  0  0  4  0  0  0  0  0  0
    2.0184    5.4626    6.5795 N   0  0  0  0  0  2  0  0  0  0  0  0
   -0.0064    4.4945    8.5055 N   0  0  0  0  0  0  0  0  0  0  0  0
    0.7170    5.4145   10.3746 N   0  0  0  0  0  0  0  0  0  0  0  0
    1.8855    7.8236    8.3707 C   0  0  0  0  0  0  0  0  0  0  0  0
    0.6014    8.2600    8.0509 C   0  0  0  0  0  0  0  0  0  0  0  0
   -0.1086    7.5532    7.6389 H   0  0  0  0  0  0  0  0  0  0  0  0
    0.2490    9.5825    8.2410 C   0  0  0  0  0  0  0  0  0  0  0  0
   -0.7457    9.9146    7.9846 H   0  0  0  0  0  0  0  0  0  0  0  0
    1.1739   10.4780    8.7555 C   0  0  0  0  0  0  0  0  0  0  0  0
    0.9032   11.5133    8.8997 H   0  0  0  0  0  0  0  0  0  0  0  0
    2.4469   10.0452    9.0873 C   0  0  0  0  0  0  0  0  0  0  0  0
    3.1670   10.7407    9.4930 H   0  0  0  0  0  0  0  0  0  0  0  0
    2.8059    8.7211    8.8993 C   0  0  0  0  0  0  0  0  0  0  0  0
    3.7975    8.3888    9.1728 H   0  0  0  0  0  0  0  0  0  0  0  0
    3.8208    5.6696    8.7781 C   0  0  0  0  0  0  0  0  0  0  0  0
    4.0022    4.6663    9.7225 C   0  0  0  0  0  0  0  0  0  0  0  0
    3.1505    4.1024   10.0768 H   0  0  0  0  0  0  0  0  0  0  0  0
    5.2726    4.3789   10.1878 C   0  0  0  0  0  0  0  0  0  0  0  0
    5.4128    3.6061   10.9294 H   0  0  0  0  0  0  0  0  0  0  0  0
    6.3675    5.0715    9.6949 C   0  0  0  0  0  0  0  0  0  0  0  0
    7.3575    4.8457   10.0618 H   0  0  0  0  0  0  0  0  0  0  0  0
    6.1965    6.0308    8.7088 C   0  0  0  0  0  0  0  0  0  0  0  0
    7.0530    6.5432    8.2966 H   0  0  0  0  0  0  0  0  0  0  0  0
    4.9275    6.3244    8.2439 C   0  0  0  0  0  0  0  0  0  0  0  0
    4.7854    7.0503    7.4541 H   0  0  0  0  0  0  0  0  0  0  0  0
   -1.9508    3.2025    9.2802 C   0  0  0  0  0  0  0  0  0  0  0  0
   -2.6402    3.2369    8.0701 C   0  0  0  0  0  0  0  0  0  0  0  0
   -2.3616    3.9705    7.3181 H   0  0  0  0  0  0  0  0  0  0  0  0
   -3.6841    2.3625    7.8351 C   0  0  0  0  0  0  0  0  0  0  0  0
   -4.2110    2.3978    6.8934 H   0  0  0  0  0  0  0  0  0  0  0  0
   -4.0550    1.4452    8.8043 C   0  0  0  0  0  0  0  0  0  0  0  0
   -4.8711    0.7623    8.6205 H   0  0  0  0  0  0  0  0  0  0  0  0
   -3.3719    1.4020   10.0088 C   0  0  0  0  0  0  0  0  0  0  0  0
   -3.6519    0.6820   10.7638 H   0  0  0  0  0  0  0  0  0  0  0  0
   -2.3244    2.2710   10.2474 C   0  0  0  0  0  0  0  0  0  0  0  0
   -1.7822    2.2195   11.1800 H   0  0  0  0  0  0  0  0  0  0  0  0
   -0.9788    4.6264   12.0318 C   0  0  0  0  0  0  0  0  0  0  0  0
   -2.3462    4.8507   12.1915 C   0  0  0  0  0  0  0  0  0  0  0  0
   -2.9482    5.0732   11.3236 H   0  0  0  0  0  0  0  0  0  0  0  0
   -2.9205    4.7877   13.4459 C   0  0  0  0  0  0  0  0  0  0  0  0
   -3.9796    4.9640   13.5591 H   0  0  0  0  0  0  0  0  0  0  0  0
   -2.1423    4.5009   14.5566 C   0  0  0  0  0  0  0  0  0  0  0  0
   -2.5934    4.4517   15.5361 H   0  0  0  0  0  0  0  0  0  0  0  0
   -0.7856    4.2714   14.4056 C   0  0  0  0  0  0  0  0  0  0  0  0
   -0.1767    4.0379   15.2665 H   0  0  0  0  0  0  0  0  0  0  0  0
   -0.2040    4.3339   13.1521 C   0  0  0  0  0  0  0  0  0  0  0  0
    0.8501    4.1261   13.0400 H   0  0  0  0  0  0  0  0  0  0  0  0
   -0.8362    4.1139    9.5099 C   0  0  0  0  0  0  0  0  0  0  0  0
   -0.3973    4.6848   10.6955 C   0  0  0  0  0  0  0  0  0  0  0  0
    0.9193    5.2634    9.0392 C   0  0  2  0  0  3  0  0  0  0  0  0
    1.4750    6.2449   11.2679 C   0  0  0  0  0  0  0  0  0  0  0  0
    1.8791    7.0947   10.7183 H   0  0  0  0  0  0  0  0  0  0  0  0
    2.3046    5.6939   11.7176 H   0  0  0  0  0  0  0  0  0  0  0  0
    0.8217    6.6072   12.0622 H   0  0  0  0  0  0  0  0  0  0  0  0
    3.0445    5.6249    5.6124 C   0  0  0  0  0  0  0  0  0  0  0  0
    3.9732    4.5916    5.4094 C   0  0  0  0  0  0  0  0  0  0  0  0
    4.9794    4.7648    4.4700 C   0  0  0  0  0  0  0  0  0  0  0  0
    5.7004    3.9765    4.3149 H   0  0  0  0  0  0  0  0  0  0  0  0
    5.0751    5.9240    3.7261 C   0  0  0  0  0  0  0  0  0  0  0  0
    5.8719    6.0466    3.0068 H   0  0  0  0  0  0  0  0  0  0  0  0
    4.1262    6.9136    3.8903 C   0  0  0  0  0  0  0  0  0  0  0  0
    4.1784    7.8055    3.2837 H   0  0  0  0  0  0  0  0  0  0  0  0
    3.1066    6.7815    4.8213 C   0  0  0  0  0  0  0  0  0  0  0  0
    2.0567    7.8594    4.9302 C   0  0  0  0  0  0  0  0  0  0  0  0
    1.3745    7.5935    5.7410 H   0  0  0  0  0  0  0  0  0  0  0  0
    1.2299    7.9139    3.6442 C   0  0  0  0  0  0  0  0  0  0  0  0
    0.7641    6.9476    3.4644 H   0  0  0  0  0  0  0  0  0  0  0  0
    1.8514    8.1652    2.7875 H   0  0  0  0  0  0  0  0  0  0  0  0
    0.4440    8.6599    3.7384 H   0  0  0  0  0  0  0  0  0  0  0  0
    2.6701    9.2251    5.2421 C   0  0  0  0  0  0  0  0  0  0  0  0
    3.3020    9.1718    6.1275 H   0  0  0  0  0  0  0  0  0  0  0  0
    1.8834    9.9530    5.4302 H   0  0  0  0  0  0  0  0  0  0  0  0
    3.2744    9.5818    4.4114 H   0  0  0  0  0  0  0  0  0  0  0  0
    5.1555    2.8484    6.8083 C   0  0  0  0  0  0  0  0  0  0  0  0
    5.5458    3.6486    7.4317 H   0  0  0  0  0  0  0  0  0  0  0  0
    5.9138    2.5880    6.0736 H   0  0  0  0  0  0  0  0  0  0  0  0
    4.9801    1.9755    7.4337 H   0  0  0  0  0  0  0  0  0  0  0  0
    3.4178    2.2012    5.1189 C   0  0  0  0  0  0  0  0  0  0  0  0
    2.4964    2.5044    4.6278 H   0  0  0  0  0  0  0  0  0  0  0  0
    3.2378    1.2565    5.6259 H   0  0  0  0  0  0  0  0  0  0  0  0
    4.1839    2.0534    4.3604 H   0  0  0  0  0  0  0  0  0  0  0  0
    3.8530    3.2691    6.1260 C   0  0  0  0  0  0  0  0  0  0  0  0
    3.0699    3.3566    6.8875 H   0  0  0  0  0  0  0  0  0  0  0  0
  1  3  1  0  0  0  0
  1  6  1  0  0  0  0
  2  1  1  0  0  0  0
  4  8  1  0  0  0  0
  4 19  1  0  0  0  0
  5  4  1  0  0  0  0
  6 54  1  0  0  0  0
  6 52  1  0  0  0  0
  7 53  1  0  0  0  0
  7 55  1  0  0  0  0
  8 17  1  0  0  0  0
  9 11  1  0  0  0  0
  9  8  2  0  0  0  0
 10  9  1  0  0  0  0
 11 13  2  0  0  0  0
 12 11  1  0  0  0  0
 13 14  1  0  0  0  0
 13 15  1  0  0  0  0
 15 16  1  0  0  0  0
 17 15  2  0  0  0  0
 17 18  1  0  0  0  0
 19 20  1  0  0  0  0
 20 21  1  0  0  0  0
 20 22  2  0  0  0  0
 22 23  1  0  0  0  0
 24 25  1  0  0  0  0
 24 22  1  0  0  0  0
 26 24  2  0  0  0  0
 27 26  1  0  0  0  0
 28 26  1  0  0  0  0
 28 19  2  0  0  0  0
 29 28  1  0  0  0  0
 30 52  1  0  0  0  0
 30 39  1  0  0  0  0
 31 30  2  0  0  0  0
 32 31  1  0  0  0  0
 33 31  1  0  0  0  0
 33 35  2  0  0  0  0
 34 33  1  0  0  0  0
 35 37  1  0  0  0  0
 36 35  1  0  0  0  0
 37 39  2  0  0  0  0
 37 38  1  0  0  0  0
 39 40  1  0  0  0  0
 41 42  2  0  0  0  0
 41 50  1  0  0  0  0
 42 44  1  0  0  0  0
 43 42  1  0  0  0  0
 44 45  1  0  0  0  0
 44 46  2  0  0  0  0
 46 47  1  0  0  0  0
 48 46  1  0  0  0  0
 48 49  1  0  0  0  0
 50 48  2  0  0  0  0
 51 50  1  0  0  0  0
 52 53  2  0  0  0  0
 53 41  1  0  0  0  0
 54  4  1  6  0  0  0
 54  7  1  0  0  0  0
 55 57  1  0  0  0  0
 55 58  1  0  0  0  0
 56 55  1  0  0  0  0
 59  5  1  0  0  0  0
 60 59  1  0  0  0  0
 60 86  1  0  0  0  0
 61 60  2  0  0  0  0
 62 61  1  0  0  0  0
 63 65  2  0  0  0  0
 63 61  1  0  0  0  0
 64 63  1  0  0  0  0
 65 67  1  0  0  0  0
 66 65  1  0  0  0  0
 67 68  1  0  0  0  0
 67 59  2  0  0  0  0
 68 74  1  0  0  0  0
 68 69  1  0  0  0  0
 70 73  1  0  0  0  0
 70 68  1  0  0  0  0
 71 70  1  0  0  0  0
 72 70  1  0  0  0  0
 74 76  1  0  0  0  0
 74 75  1  0  0  0  0
 77 74  1  0  0  0  0
 78 79  1  0  0  0  0
 78 81  1  0  0  0  0
 80 78  1  0  0  0  0
 82 84  1  0  0  0  0
 82 86  1  0  0  0  0
 83 82  1  0  0  0  0
 85 82  1  0  0  0  0
 86 78  1  0  0  0  0
 86 87  1  0  0  0  0
M  END
$$$$
