CSD_code = ALAXIU | q = 0 | S = 0 | Stoichiometry = C32H40Cl2FeN3P | MND = 4
 OpenBabel04212202003D

 79 81  0  0  0  0  0  0  0  0999 V2000
    1.4950    3.9942    3.6156 Fe  0  0  0  0  0  0  0  0  0  0  0  0
    3.2620    4.9669    3.5951 Cl  0  0  0  0  0  0  0  0  0  0  0  0
   -0.4267    3.5514    3.9145 Cl  0  0  0  0  0  0  0  0  0  0  0  0
    2.3199    1.5296    3.4584 N   0  0  0  0  0  2  0  0  0  0  0  0
    1.9696    3.3269    1.2597 N   0  0  0  0  0  0  0  0  0  0  0  0
    3.7053    2.8376   -0.0077 N   0  0  0  0  0  0  0  0  0  0  0  0
    3.3382    1.2236    2.2998 P   0  0  0  0  0  4  0  0  0  0  0  0
    3.0225    2.5432    1.1238 C   0  0  0  0  0  0  0  0  0  0  0  0
    3.0427    3.8688   -0.6038 C   0  0  0  0  0  0  0  0  0  0  0  0
    3.3886    4.2960   -1.5225 H   0  0  0  0  0  0  0  0  0  0  0  0
    1.9611    4.1629    0.1884 C   0  0  0  0  0  0  0  0  0  0  0  0
    4.9304    2.2413   -0.4586 C   0  0  0  0  0  0  0  0  0  0  0  0
    4.9640    1.1934   -0.1602 H   0  0  0  0  0  0  0  0  0  0  0  0
    5.7917    2.7570   -0.0253 H   0  0  0  0  0  0  0  0  0  0  0  0
    4.9886    2.3077   -1.5452 H   0  0  0  0  0  0  0  0  0  0  0  0
    0.8669    5.1754   -0.0014 C   0  0  0  0  0  0  0  0  0  0  0  0
    1.0095    5.8663   -1.3594 C   0  0  0  0  0  0  0  0  0  0  0  0
    0.9752    5.1392   -2.1675 H   0  0  0  0  0  0  0  0  0  0  0  0
    1.9482    6.4121   -1.4180 H   0  0  0  0  0  0  0  0  0  0  0  0
    0.1946    6.5720   -1.5002 H   0  0  0  0  0  0  0  0  0  0  0  0
   -0.4796    4.4481    0.0832 C   0  0  0  0  0  0  0  0  0  0  0  0
   -0.5631    3.9366    1.0394 H   0  0  0  0  0  0  0  0  0  0  0  0
   -0.5673    3.7121   -0.7133 H   0  0  0  0  0  0  0  0  0  0  0  0
   -1.2971    5.1587   -0.0084 H   0  0  0  0  0  0  0  0  0  0  0  0
    0.9482    6.2214    1.1158 C   0  0  0  0  0  0  0  0  0  0  0  0
    0.7784    5.7453    2.0893 H   0  0  0  0  0  0  0  0  0  0  0  0
    0.1862    6.9836    0.9740 H   0  0  0  0  0  0  0  0  0  0  0  0
    1.9261    6.6975    1.1286 H   0  0  0  0  0  0  0  0  0  0  0  0
    5.1552    1.3142    2.6329 C   0  0  0  0  0  0  0  0  0  0  0  0
    6.0521    0.2690    2.4417 C   0  0  0  0  0  0  0  0  0  0  0  0
    5.7195   -0.6713    2.0270 H   0  0  0  0  0  0  0  0  0  0  0  0
    7.3871    0.4303    2.7699 C   0  0  0  0  0  0  0  0  0  0  0  0
    8.0743   -0.3902    2.6221 H   0  0  0  0  0  0  0  0  0  0  0  0
    7.8419    1.6328    3.2843 C   0  0  0  0  0  0  0  0  0  0  0  0
    8.8836    1.7500    3.5437 H   0  0  0  0  0  0  0  0  0  0  0  0
    6.9568    2.6842    3.4589 C   0  0  0  0  0  0  0  0  0  0  0  0
    7.3032    3.6298    3.8484 H   0  0  0  0  0  0  0  0  0  0  0  0
    5.6219    2.5260    3.1359 C   0  0  0  0  0  0  0  0  0  0  0  0
    4.9303    3.3472    3.2663 H   0  0  0  0  0  0  0  0  0  0  0  0
    3.1692   -0.3701    1.4165 C   0  0  0  0  0  0  0  0  0  0  0  0
    2.7210   -0.4744    0.1056 C   0  0  0  0  0  0  0  0  0  0  0  0
    2.4459    0.4163   -0.4426 H   0  0  0  0  0  0  0  0  0  0  0  0
    2.6171   -1.7182   -0.4911 C   0  0  0  0  0  0  0  0  0  0  0  0
    2.2713   -1.7969   -1.5114 H   0  0  0  0  0  0  0  0  0  0  0  0
    2.9576   -2.8608    0.2147 C   0  0  0  0  0  0  0  0  0  0  0  0
    2.8850   -3.8286   -0.2581 H   0  0  0  0  0  0  0  0  0  0  0  0
    3.3716   -2.7639    1.5339 C   0  0  0  0  0  0  0  0  0  0  0  0
    3.6139   -3.6558    2.0931 H   0  0  0  0  0  0  0  0  0  0  0  0
    3.4659   -1.5231    2.1380 C   0  0  0  0  0  0  0  0  0  0  0  0
    3.7574   -1.4356    3.1771 H   0  0  0  0  0  0  0  0  0  0  0  0
    1.9057    0.6400    4.4680 C   0  0  0  0  0  0  0  0  0  0  0  0
    2.4667    0.7605    5.7495 C   0  0  0  0  0  0  0  0  0  0  0  0
    2.0080   -0.0523    6.7731 C   0  0  0  0  0  0  0  0  0  0  0  0
    2.4291    0.0435    7.7624 H   0  0  0  0  0  0  0  0  0  0  0  0
    1.0112   -0.9818    6.5457 C   0  0  0  0  0  0  0  0  0  0  0  0
    0.6642   -1.6145    7.3497 H   0  0  0  0  0  0  0  0  0  0  0  0
    0.4449   -1.0802    5.2902 C   0  0  0  0  0  0  0  0  0  0  0  0
   -0.3532   -1.7883    5.1264 H   0  0  0  0  0  0  0  0  0  0  0  0
    0.8703   -0.2807    4.2386 C   0  0  0  0  0  0  0  0  0  0  0  0
    3.4994    1.8287    6.0152 C   0  0  0  0  0  0  0  0  0  0  0  0
    3.9174    2.1407    5.0534 H   0  0  0  0  0  0  0  0  0  0  0  0
    4.6562    1.3523    6.8916 C   0  0  0  0  0  0  0  0  0  0  0  0
    5.0866    0.4371    6.4893 H   0  0  0  0  0  0  0  0  0  0  0  0
    4.3327    1.1643    7.9123 H   0  0  0  0  0  0  0  0  0  0  0  0
    5.4335    2.1133    6.9189 H   0  0  0  0  0  0  0  0  0  0  0  0
    2.8022    3.0427    6.6357 C   0  0  0  0  0  0  0  0  0  0  0  0
    2.0023    3.3934    5.9694 H   0  0  0  0  0  0  0  0  0  0  0  0
    3.5102    3.8549    6.7842 H   0  0  0  0  0  0  0  0  0  0  0  0
    2.3534    2.7817    7.5918 H   0  0  0  0  0  0  0  0  0  0  0  0
    0.1691   -0.3809    2.9050 C   0  0  0  0  0  0  0  0  0  0  0  0
    0.7421    0.1963    2.1699 H   0  0  0  0  0  0  0  0  0  0  0  0
   -1.2274    0.2383    2.9983 C   0  0  0  0  0  0  0  0  0  0  0  0
   -1.1609    1.2819    3.2874 H   0  0  0  0  0  0  0  0  0  0  0  0
   -1.8281   -0.2864    3.7384 H   0  0  0  0  0  0  0  0  0  0  0  0
   -1.7293    0.1747    2.0346 H   0  0  0  0  0  0  0  0  0  0  0  0
    0.0533   -1.8271    2.4164 C   0  0  0  0  0  0  0  0  0  0  0  0
   -0.2314   -1.8439    1.3659 H   0  0  0  0  0  0  0  0  0  0  0  0
   -0.7073   -2.3642    2.9779 H   0  0  0  0  0  0  0  0  0  0  0  0
    0.9959   -2.3570    2.5254 H   0  0  0  0  0  0  0  0  0  0  0  0
  1  3  1  0  0  0  0
  2  1  1  0  0  0  0
  4 51  1  0  0  0  0
  6  8  1  0  0  0  0
  7 29  1  0  0  0  0
  7  4  1  0  0  0  0
  8  5  2  0  0  0  0
  8  7  1  0  0  0  0
  9  6  1  0  0  0  0
  9 11  2  0  0  0  0
 10  9  1  0  0  0  0
 11  5  1  0  0  0  0
 12 13  1  0  0  0  0
 12 14  1  0  0  0  0
 12  6  1  0  0  0  0
 15 12  1  0  0  0  0
 16 21  1  0  0  0  0
 16 11  1  0  0  0  0
 16 25  1  0  0  0  0
 17 16  1  0  0  0  0
 18 17  1  0  0  0  0
 19 17  1  0  0  0  0
 20 17  1  0  0  0  0
 21 22  1  0  0  0  0
 23 21  1  0  0  0  0
 24 21  1  0  0  0  0
 25 28  1  0  0  0  0
 25 26  1  0  0  0  0
 27 25  1  0  0  0  0
 29 38  1  0  0  0  0
 30 29  2  0  0  0  0
 30 32  1  0  0  0  0
 31 30  1  0  0  0  0
 32 34  2  0  0  0  0
 33 32  1  0  0  0  0
 34 36  1  0  0  0  0
 34 35  1  0  0  0  0
 36 37  1  0  0  0  0
 38 39  1  0  0  0  0
 38 36  2  0  0  0  0
 40 49  1  0  0  0  0
 40  7  1  0  0  0  0
 41 40  2  0  0  0  0
 42 41  1  0  0  0  0
 43 41  1  0  0  0  0
 43 45  2  0  0  0  0
 44 43  1  0  0  0  0
 45 47  1  0  0  0  0
 46 45  1  0  0  0  0
 47 48  1  0  0  0  0
 47 49  2  0  0  0  0
 49 50  1  0  0  0  0
 51 52  1  0  0  0  0
 52 60  1  0  0  0  0
 52 53  2  0  0  0  0
 53 54  1  0  0  0  0
 55 53  1  0  0  0  0
 55 56  1  0  0  0  0
 57 55  2  0  0  0  0
 58 57  1  0  0  0  0
 59 51  2  0  0  0  0
 59 57  1  0  0  0  0
 60 66  1  0  0  0  0
 60 62  1  0  0  0  0
 61 60  1  0  0  0  0
 62 65  1  0  0  0  0
 62 64  1  0  0  0  0
 63 62  1  0  0  0  0
 66 68  1  0  0  0  0
 66 69  1  0  0  0  0
 67 66  1  0  0  0  0
 70 72  1  0  0  0  0
 70 59  1  0  0  0  0
 71 70  1  0  0  0  0
 72 73  1  0  0  0  0
 72 74  1  0  0  0  0
 75 72  1  0  0  0  0
 76 79  1  0  0  0  0
 76 70  1  0  0  0  0
 76 78  1  0  0  0  0
 77 76  1  0  0  0  0
M  END
$$$$
