CSD_code = ALEGIH | q = 0 | S = 0 | Stoichiometry = C36H34Cl2N2O3Ru | MND = 6
 OpenBabel04212202003D

 78 84  0  0  1  0  0  0  0  0999 V2000
    2.8884    6.0076    3.2533 Ru  0  0  0  0  0  0  0  0  0  0  0  0
    0.7603    4.9787    3.1011 Cl  0  0  0  0  0  0  0  0  0  0  0  0
    4.9506    7.0102    3.5632 Cl  0  0  0  0  0  0  0  0  0  0  0  0
    4.1020    3.9507    1.5964 C   0  0  0  0  0  0  0  0  0  0  0  0
    4.7547    5.1581    0.8631 C   0  0  0  0  0  0  0  0  0  0  0  0
    5.4499    5.6004    1.5874 H   0  0  0  0  0  0  0  0  0  0  0  0
    5.3293    4.8046    0.0065 H   0  0  0  0  0  0  0  0  0  0  0  0
    3.7776    6.2047    0.4366 C   0  0  1  0  0  3  0  0  0  0  0  0
    3.8475    6.6945   -0.8639 C   0  0  0  0  0  0  0  0  0  0  0  0
    4.6220    6.3335   -1.5223 H   0  0  0  0  0  0  0  0  0  0  0  0
    2.9306    7.6301   -1.2983 C   0  0  0  0  0  0  0  0  0  0  0  0
    2.9627    8.0142   -2.3061 H   0  0  0  0  0  0  0  0  0  0  0  0
    1.9661    8.0536   -0.4059 C   0  0  0  0  0  0  0  0  0  0  0  0
    1.2122    8.7637   -0.7065 H   0  0  0  0  0  0  0  0  0  0  0  0
    1.9608    7.5626    0.8953 C   0  0  0  0  0  0  0  0  0  0  0  0
    0.9191    8.0465    1.8479 C   0  0  0  0  0  0  0  0  0  0  0  0
    0.2845    7.1974    2.1282 H   0  0  0  0  0  0  0  0  0  0  0  0
    0.2947    8.8066    1.3782 H   0  0  0  0  0  0  0  0  0  0  0  0
    1.5041    8.5958    3.1841 C   0  0  0  0  0  0  0  0  0  0  0  0
    5.2087    2.9081    1.7787 C   0  0  0  0  0  0  0  0  0  0  0  0
    5.4345    1.9005    0.8526 C   0  0  0  0  0  0  0  0  0  0  0  0
    4.8021    1.8148   -0.0193 H   0  0  0  0  0  0  0  0  0  0  0  0
    6.4657    0.9986    1.0507 C   0  0  0  0  0  0  0  0  0  0  0  0
    6.6364    0.2142    0.3275 H   0  0  0  0  0  0  0  0  0  0  0  0
    7.2742    1.0968    2.1704 C   0  0  0  0  0  0  0  0  0  0  0  0
    8.0767    0.3893    2.3211 H   0  0  0  0  0  0  0  0  0  0  0  0
    7.0507    2.1031    3.0948 C   0  0  0  0  0  0  0  0  0  0  0  0
    7.6796    2.1860    3.9691 H   0  0  0  0  0  0  0  0  0  0  0  0
    6.0239    3.0081    2.8979 C   0  0  0  0  0  0  0  0  0  0  0  0
    5.8348    3.7989    3.6107 H   0  0  0  0  0  0  0  0  0  0  0  0
    2.9229    3.3369    0.8429 C   0  0  0  0  0  0  0  0  0  0  0  0
    2.0497    2.5411    1.5770 C   0  0  0  0  0  0  0  0  0  0  0  0
    2.2400    2.3915    2.6299 H   0  0  0  0  0  0  0  0  0  0  0  0
    0.9508    1.9605    0.9725 C   0  0  0  0  0  0  0  0  0  0  0  0
    0.2726    1.3594    1.5593 H   0  0  0  0  0  0  0  0  0  0  0  0
    0.7189    2.1555   -0.3779 C   0  0  0  0  0  0  0  0  0  0  0  0
   -0.1412    1.7070   -0.8531 H   0  0  0  0  0  0  0  0  0  0  0  0
    1.5978    2.9252   -1.1187 C   0  0  0  0  0  0  0  0  0  0  0  0
    1.4316    3.0724   -2.1764 H   0  0  0  0  0  0  0  0  0  0  0  0
    2.6958    3.5147   -0.5143 C   0  0  0  0  0  0  0  0  0  0  0  0
    3.3717    4.1017   -1.1164 H   0  0  0  0  0  0  0  0  0  0  0  0
    2.6189    9.6151    2.9675 C   0  0  0  0  0  0  0  0  0  0  0  0
    2.7248   10.4036    1.8301 C   0  0  0  0  0  0  0  0  0  0  0  0
    1.9885   10.3392    1.0446 H   0  0  0  0  0  0  0  0  0  0  0  0
    3.7709   11.3009    1.6995 C   0  0  0  0  0  0  0  0  0  0  0  0
    3.8426   11.9078    0.8080 H   0  0  0  0  0  0  0  0  0  0  0  0
    4.7192   11.4220    2.7000 C   0  0  0  0  0  0  0  0  0  0  0  0
    5.5391   12.1162    2.5881 H   0  0  0  0  0  0  0  0  0  0  0  0
    4.6064   10.6549    3.8459 C   0  0  0  0  0  0  0  0  0  0  0  0
    5.3372   10.7454    4.6353 H   0  0  0  0  0  0  0  0  0  0  0  0
    3.5587    9.7633    3.9817 C   0  0  0  0  0  0  0  0  0  0  0  0
    3.4596    9.1664    4.8772 H   0  0  0  0  0  0  0  0  0  0  0  0
    0.3322    9.2118    3.9541 C   0  0  0  0  0  0  0  0  0  0  0  0
    0.1781   10.5792    4.1255 C   0  0  0  0  0  0  0  0  0  0  0  0
    0.9002   11.2625    3.7033 H   0  0  0  0  0  0  0  0  0  0  0  0
   -0.8992   11.0723    4.8429 C   0  0  0  0  0  0  0  0  0  0  0  0
   -1.0114   12.1391    4.9709 H   0  0  0  0  0  0  0  0  0  0  0  0
   -1.8261   10.2069    5.3969 C   0  0  0  0  0  0  0  0  0  0  0  0
   -2.6634   10.5959    5.9577 H   0  0  0  0  0  0  0  0  0  0  0  0
   -1.6759    8.8405    5.2275 C   0  0  0  0  0  0  0  0  0  0  0  0
   -2.3986    8.1588    5.6523 H   0  0  0  0  0  0  0  0  0  0  0  0
   -0.6046    8.3461    4.5070 C   0  0  0  0  0  0  0  0  0  0  0  0
   -0.4868    7.2804    4.3634 H   0  0  0  0  0  0  0  0  0  0  0  0
    2.0051    5.5319    6.0181 C   0  0  0  0  0  3  0  0  0  0  0  0
    1.1354    6.1222    5.7025 H   0  0  0  0  0  0  0  0  0  0  0  0
    1.9354    5.0685    7.2606 N   0  0  0  0  0  0  0  0  0  0  0  0
    3.0070    4.2725    7.8145 C   0  0  0  0  0  0  0  0  0  0  0  0
    2.6319    3.2924    8.1139 H   0  0  0  0  0  0  0  0  0  0  0  0
    3.4367    4.7712    8.6853 H   0  0  0  0  0  0  0  0  0  0  0  0
    3.7726    4.1508    7.0508 H   0  0  0  0  0  0  0  0  0  0  0  0
    0.8043    5.3175    8.1147 C   0  0  0  0  0  0  0  0  0  0  0  0
    0.3408    4.3732    8.4099 H   0  0  0  0  0  0  0  0  0  0  0  0
    0.0689    5.9238    7.5908 H   0  0  0  0  0  0  0  0  0  0  0  0
    1.1228    5.8454    9.0168 H   0  0  0  0  0  0  0  0  0  0  0  0
    2.8567    6.6521    1.3001 N   0  0  0  0  0  0  0  0  0  0  0  0
    3.6662    4.3440    2.8385 O   0  0  0  0  0  0  0  0  0  0  0  0
    1.9950    7.5507    3.9354 O   0  0  0  0  0  0  0  0  0  0  0  0
    2.9696    5.3306    5.2824 O   0  0  0  0  0  0  0  0  0  0  0  0
  1  3  1  0  0  0  0
  1 77  1  0  0  0  0
  1 78  1  0  0  0  0
  2  1  1  0  0  0  0
  4 20  1  0  0  0  0
  4 76  1  0  0  0  0
  5  6  1  0  0  0  0
  5  4  1  0  0  0  0
  7  5  1  0  0  0  0
  8  9  1  6  0  0  0
  8  5  1  0  0  0  0
  8 75  1  0  0  0  0
 10  9  1  0  0  0  0
 11  9  2  0  0  0  0
 11 13  1  0  0  0  0
 12 11  1  0  0  0  0
 13 15  2  0  0  0  0
 14 13  1  0  0  0  0
 15 75  1  0  0  0  0
 15 16  1  0  0  0  0
 16 17  1  0  0  0  0
 16 19  1  0  0  0  0
 18 16  1  0  0  0  0
 19 77  1  0  0  0  0
 19 53  1  0  0  0  0
 20 29  1  0  0  0  0
 21 23  1  0  0  0  0
 21 20  2  0  0  0  0
 22 21  1  0  0  0  0
 23 25  2  0  0  0  0
 24 23  1  0  0  0  0
 25 26  1  0  0  0  0
 25 27  1  0  0  0  0
 27 28  1  0  0  0  0
 29 27  2  0  0  0  0
 29 30  1  0  0  0  0
 31 32  1  0  0  0  0
 31  4  1  0  0  0  0
 32 33  1  0  0  0  0
 34 35  1  0  0  0  0
 34 32  2  0  0  0  0
 36 34  1  0  0  0  0
 37 36  1  0  0  0  0
 38 40  1  0  0  0  0
 38 36  2  0  0  0  0
 39 38  1  0  0  0  0
 40 31  2  0  0  0  0
 41 40  1  0  0  0  0
 42 19  1  0  0  0  0
 42 51  1  0  0  0  0
 43 42  2  0  0  0  0
 44 43  1  0  0  0  0
 45 43  1  0  0  0  0
 45 47  2  0  0  0  0
 46 45  1  0  0  0  0
 47 49  1  0  0  0  0
 48 47  1  0  0  0  0
 49 51  2  0  0  0  0
 49 50  1  0  0  0  0
 51 52  1  0  0  0  0
 53 54  2  0  0  0  0
 53 62  1  0  0  0  0
 54 56  1  0  0  0  0
 55 54  1  0  0  0  0
 56 57  1  0  0  0  0
 56 58  2  0  0  0  0
 58 59  1  0  0  0  0
 60 58  1  0  0  0  0
 60 61  1  0  0  0  0
 62 60  2  0  0  0  0
 63 62  1  0  0  0  0
 64 66  1  0  0  0  0
 65 64  1  0  0  0  0
 66 67  1  0  0  0  0
 66 71  1  0  0  0  0
 67 68  1  0  0  0  0
 67 69  1  0  0  0  0
 70 67  1  0  0  0  0
 71 72  1  0  0  0  0
 71 74  1  0  0  0  0
 73 71  1  0  0  0  0
 75  1  1  0  0  0  0
 76  1  1  0  0  0  0
 78 64  1  0  0  0  0
M  END
$$$$
