CSD_code = ALENOW | q = 1 | S = 0 | Stoichiometry = C26H24AuBr2P2S(1+) | MND = 4
 OpenBabel04212202003D

 56 60  0  0  0  0  0  0  0  0999 V2000
    3.0796    1.1607   12.1180 Au  0  0  0  0  0  0  0  0  0  0  0  0
    1.9237    1.6953   10.0334 Br  0  0  0  0  0  0  0  0  0  0  0  0
    3.6203    3.4833   12.5970 Br  0  0  0  0  0  0  0  0  0  0  0  0
    4.5053   -1.7704   11.8064 P   0  0  0  0  0  4  0  0  0  0  0  0
    4.2781    0.8381   14.0820 P   0  0  0  0  0  4  0  0  0  0  0  0
    2.5810   -1.1684   11.9072 S   0  0  0  0  0  0  0  0  0  0  0  0
    5.2610   -1.7117   13.5028 C   0  0  0  0  0  0  0  0  0  0  0  0
    5.3807   -2.7525   13.8234 H   0  0  0  0  0  0  0  0  0  0  0  0
    6.2548   -1.2599   13.4280 H   0  0  0  0  0  0  0  0  0  0  0  0
    4.4105   -0.9487   14.5113 C   0  0  0  0  0  0  0  0  0  0  0  0
    4.8573   -1.0155   15.5111 H   0  0  0  0  0  0  0  0  0  0  0  0
    3.3985   -1.3659   14.5596 H   0  0  0  0  0  0  0  0  0  0  0  0
    4.4611   -3.4951   11.2910 C   0  0  0  0  0  0  0  0  0  0  0  0
    3.7651   -4.4038   12.0870 C   0  0  0  0  0  0  0  0  0  0  0  0
    3.2831   -4.0711   12.9968 H   0  0  0  0  0  0  0  0  0  0  0  0
    3.6815   -5.7239   11.6897 C   0  0  0  0  0  0  0  0  0  0  0  0
    3.1417   -6.4340   12.2968 H   0  0  0  0  0  0  0  0  0  0  0  0
    4.2840   -6.1321   10.5080 C   0  0  0  0  0  0  0  0  0  0  0  0
    4.2121   -7.1635   10.1996 H   0  0  0  0  0  0  0  0  0  0  0  0
    4.9700   -5.2231    9.7181 C   0  0  0  0  0  0  0  0  0  0  0  0
    5.4314   -5.5446    8.7973 H   0  0  0  0  0  0  0  0  0  0  0  0
    5.0608   -3.8968   10.1022 C   0  0  0  0  0  0  0  0  0  0  0  0
    5.5895   -3.1808    9.4890 H   0  0  0  0  0  0  0  0  0  0  0  0
    5.4681   -0.7959   10.6255 C   0  0  0  0  0  0  0  0  0  0  0  0
    4.7946   -0.2984    9.5100 C   0  0  0  0  0  0  0  0  0  0  0  0
    3.7434   -0.5093    9.3669 H   0  0  0  0  0  0  0  0  0  0  0  0
    5.4797    0.4625    8.5803 C   0  0  0  0  0  0  0  0  0  0  0  0
    4.9507    0.8632    7.7302 H   0  0  0  0  0  0  0  0  0  0  0  0
    6.8335    0.7083    8.7525 C   0  0  0  0  0  0  0  0  0  0  0  0
    7.3659    1.3094    8.0320 H   0  0  0  0  0  0  0  0  0  0  0  0
    7.5101    0.1739    9.8392 C   0  0  0  0  0  0  0  0  0  0  0  0
    8.5693    0.3440    9.9563 H   0  0  0  0  0  0  0  0  0  0  0  0
    6.8353   -0.5813   10.7818 C   0  0  0  0  0  0  0  0  0  0  0  0
    7.3729   -1.0041   11.6186 H   0  0  0  0  0  0  0  0  0  0  0  0
    3.4356    1.5869   15.4774 C   0  0  0  0  0  0  0  0  0  0  0  0
    3.8870    2.7965   16.0046 C   0  0  0  0  0  0  0  0  0  0  0  0
    4.7782    3.2630   15.6095 H   0  0  0  0  0  0  0  0  0  0  0  0
    3.1742    3.3940   17.0270 C   0  0  0  0  0  0  0  0  0  0  0  0
    3.5204    4.3280   17.4413 H   0  0  0  0  0  0  0  0  0  0  0  0
    2.0134    2.8058   17.5061 C   0  0  0  0  0  0  0  0  0  0  0  0
    1.4567    3.2827   18.2977 H   0  0  0  0  0  0  0  0  0  0  0  0
    1.5528    1.6157   16.9620 C   0  0  0  0  0  0  0  0  0  0  0  0
    0.6401    1.1700   17.3263 H   0  0  0  0  0  0  0  0  0  0  0  0
    2.2541    1.0044   15.9404 C   0  0  0  0  0  0  0  0  0  0  0  0
    1.8811    0.0907   15.4968 H   0  0  0  0  0  0  0  0  0  0  0  0
    5.9963    1.3794   14.0530 C   0  0  0  0  0  0  0  0  0  0  0  0
    6.6014    1.8355   12.8870 C   0  0  0  0  0  0  0  0  0  0  0  0
    6.0349    1.9138   11.9689 H   0  0  0  0  0  0  0  0  0  0  0  0
    7.9325    2.2123   12.9134 C   0  0  0  0  0  0  0  0  0  0  0  0
    8.3993    2.5795   12.0130 H   0  0  0  0  0  0  0  0  0  0  0  0
    8.6546    2.1321   14.0931 C   0  0  0  0  0  0  0  0  0  0  0  0
    9.6896    2.4358   14.1117 H   0  0  0  0  0  0  0  0  0  0  0  0
    8.0506    1.6727   15.2549 C   0  0  0  0  0  0  0  0  0  0  0  0
    8.6131    1.6184   16.1742 H   0  0  0  0  0  0  0  0  0  0  0  0
    6.7226    1.2923   15.2421 C   0  0  0  0  0  0  0  0  0  0  0  0
    6.2400    0.9498   16.1482 H   0  0  0  0  0  0  0  0  0  0  0  0
  1  3  1  0  0  0  0
  1  5  1  0  0  0  0
  2  1  1  0  0  0  0
  4  6  1  0  0  0  0
  4  7  1  0  0  0  0
  5 10  1  0  0  0  0
  5 35  1  0  0  0  0
  6  1  1  0  0  0  0
  7  8  1  0  0  0  0
  7 10  1  0  0  0  0
  9  7  1  0  0  0  0
 10 12  1  0  0  0  0
 10 11  1  0  0  0  0
 13  4  1  0  0  0  0
 13 14  1  0  0  0  0
 14 15  1  0  0  0  0
 16 14  2  0  0  0  0
 16 17  1  0  0  0  0
 18 16  1  0  0  0  0
 19 18  1  0  0  0  0
 20 22  1  0  0  0  0
 20 18  2  0  0  0  0
 21 20  1  0  0  0  0
 22 13  2  0  0  0  0
 23 22  1  0  0  0  0
 24 33  1  0  0  0  0
 24  4  1  0  0  0  0
 25 24  2  0  0  0  0
 26 25  1  0  0  0  0
 27 29  2  0  0  0  0
 27 25  1  0  0  0  0
 28 27  1  0  0  0  0
 29 31  1  0  0  0  0
 30 29  1  0  0  0  0
 31 32  1  0  0  0  0
 31 33  2  0  0  0  0
 33 34  1  0  0  0  0
 35 44  2  0  0  0  0
 35 36  1  0  0  0  0
 36 38  2  0  0  0  0
 37 36  1  0  0  0  0
 38 39  1  0  0  0  0
 38 40  1  0  0  0  0
 40 41  1  0  0  0  0
 42 43  1  0  0  0  0
 42 40  2  0  0  0  0
 44 42  1  0  0  0  0
 45 44  1  0  0  0  0
 46  5  1  0  0  0  0
 46 55  1  0  0  0  0
 47 49  1  0  0  0  0
 47 46  2  0  0  0  0
 48 47  1  0  0  0  0
 49 51  2  0  0  0  0
 50 49  1  0  0  0  0
 51 52  1  0  0  0  0
 51 53  1  0  0  0  0
 53 54  1  0  0  0  0
 55 53  2  0  0  0  0
 55 56  1  0  0  0  0
M  END
$$$$
