CSD_code = ALEZOG | q = 0 | S = 0 | Stoichiometry = C9H9BrN3O4ReS | MND = 6
 OpenBabel04212202003D

 28 29  0  0  1  0  0  0  0  0999 V2000
    1.8119    7.5636    2.0870 Re  0  0  0  0  0  0  0  0  0  0  0  0
    1.6478    6.7115    4.4900 Br  0  0  0  0  0  0  0  0  0  0  0  0
    6.3253    5.0346    3.6985 O   0  0  0  0  0  0  0  0  0  0  0  0
    3.8692    8.8492    2.9272 S   0  0  0  0  0  0  0  0  0  0  0  0
    5.9154    7.6750    4.0364 N   0  0  0  0  0  0  0  0  0  0  0  0
    4.5154    6.2809    2.8011 N   0  0  1  0  0  0  0  0  0  0  0  0
    4.8106    7.5332    3.2965 C   0  0  2  0  0  3  0  0  0  0  0  0
    2.3347    8.5560   -0.7853 O   0  0  0  0  0  1  0  0  0  0  0  0
    3.4298    6.0709    2.0080 N   0  0  0  0  0  0  0  0  0  0  0  0
    5.2019    5.1024    2.9497 C   0  0  1  0  0  3  0  0  0  0  0  0
   -0.0697    9.8811    2.8701 O   0  0  0  0  0  1  0  0  0  0  0  0
   -0.5950    5.7673    1.3525 O   0  0  0  0  0  1  0  0  0  0  0  0
    4.5500    4.1378    2.2256 C   0  0  0  0  0  0  0  0  0  0  0  0
    0.5878    9.0177    2.5149 C   0  0  0  0  0  2  0  0  0  0  0  0
    4.9038    2.6985    2.0833 C   0  0  0  0  0  0  0  0  0  0  0  0
    5.8714    2.4807    2.5333 H   0  0  0  0  0  0  0  0  0  0  0  0
    4.9469    2.4225    1.0309 H   0  0  0  0  0  0  0  0  0  0  0  0
    4.1504    2.0753    2.5638 H   0  0  0  0  0  0  0  0  0  0  0  0
    3.4382    4.8028    1.6508 C   0  0  0  0  0  0  0  0  0  0  0  0
    2.4086    4.2010    0.7729 C   0  0  0  0  0  0  0  0  0  0  0  0
    1.6240    3.7476    1.3791 H   0  0  0  0  0  0  0  0  0  0  0  0
    2.8512    3.4255    0.1525 H   0  0  0  0  0  0  0  0  0  0  0  0
    1.9561    4.9650    0.1425 H   0  0  0  0  0  0  0  0  0  0  0  0
    2.1298    8.1869    0.2805 C   0  0  0  0  0  2  0  0  0  0  0  0
    0.3083    6.4370    1.5881 C   0  0  0  0  0  2  0  0  0  0  0  0
    6.4504    6.8750    4.3365 H   0  0  0  0  0  0  0  0  0  0  0  0
    6.0738    8.5688    4.4703 H   0  0  0  0  0  0  0  0  0  0  0  0
    6.6130    4.1137    3.7450 H   0  0  0  0  0  0  0  0  0  0  0  0
  1 14  1  0  0  0  0
  1  4  1  0  0  0  0
  1  2  1  0  0  0  0
  3 28  1  0  0  0  0
  4  7  1  0  0  0  0
  5 26  1  0  0  0  0
  5 27  1  0  0  0  0
  6  9  1  6  0  0  0
  6 10  1  0  0  0  0
  6  7  1  0  0  0  0
  7  5  1  6  0  0  0
  8 24  1  0  0  0  0
  9  1  1  0  0  0  0
 10  3  1  6  0  0  0
 12 25  1  0  0  0  0
 13 10  1  0  0  0  0
 14 11  1  0  0  0  0
 15 13  1  0  0  0  0
 15 16  1  0  0  0  0
 15 18  1  0  0  0  0
 17 15  1  0  0  0  0
 19  9  1  0  0  0  0
 19 13  2  0  0  0  0
 20 21  1  0  0  0  0
 20 19  1  0  0  0  0
 22 20  1  0  0  0  0
 23 20  1  0  0  0  0
 24  1  1  0  0  0  0
 25  1  1  0  0  0  0
M  END
$$$$
