CSD_code = ALILOX | q = 0 | S = 0 | Stoichiometry = C16H12FeIN3S3 | MND = 6
 OpenBabel04212202003D

 36 41  0  0  1  0  0  0  0  0999 V2000
    1.2841    0.2427   11.3206 Fe  0  0  0  0  0  0  0  0  0  0  0  0
    2.9115    0.4027    9.4118 I   0  0  0  0  0  0  0  0  0  0  0  0
    0.0447    1.4834   10.8553 C   0  0  1  0  0  3  0  0  0  0  0  0
   -0.9597   -0.6095    9.7717 C   0  0  1  0  0  3  0  0  0  0  0  0
   -1.8035   -1.4385    9.0417 C   0  0  0  0  0  0  0  0  0  0  0  0
   -2.7169   -1.0328    8.6377 H   0  0  0  0  0  0  0  0  0  0  0  0
   -1.4403   -2.7556    8.8490 C   0  0  0  0  0  0  0  0  0  0  0  0
   -2.0708   -3.4249    8.2852 H   0  0  0  0  0  0  0  0  0  0  0  0
   -0.2351   -3.1892    9.3884 C   0  0  0  0  0  0  0  0  0  0  0  0
    0.1057   -4.2025    9.2534 H   0  0  0  0  0  0  0  0  0  0  0  0
    0.5374   -2.2959   10.0997 C   0  0  0  0  0  0  0  0  0  0  0  0
    1.4869   -2.6008   10.5125 H   0  0  0  0  0  0  0  0  0  0  0  0
    1.6263    2.9132   12.2760 C   0  0  2  0  0  3  0  0  0  0  0  0
    2.1934    4.0081   12.9178 C   0  0  0  0  0  0  0  0  0  0  0  0
    1.6753    4.9533   12.8992 H   0  0  0  0  0  0  0  0  0  0  0  0
    3.4083    3.8523   13.5530 C   0  0  0  0  0  0  0  0  0  0  0  0
    3.8766    4.6818   14.0591 H   0  0  0  0  0  0  0  0  0  0  0  0
    4.0160    2.6033   13.5092 C   0  0  0  0  0  0  0  0  0  0  0  0
    4.9732    2.4301   13.9728 H   0  0  0  0  0  0  0  0  0  0  0  0
    3.3790    1.5743   12.8488 C   0  0  0  0  0  0  0  0  0  0  0  0
    3.8384    0.6000   12.7816 H   0  0  0  0  0  0  0  0  0  0  0  0
    0.1916   -1.0255   10.3141 N   0  0  0  0  0  0  0  0  0  0  0  0
    2.1938    1.7008   12.2498 N   0  0  0  0  0  0  0  0  0  0  0  0
   -1.3948    1.0703   10.0101 S   0  0  0  0  0  0  0  0  0  0  0  0
    0.0930    3.0965   11.4495 S   0  0  0  0  0  0  0  0  0  0  0  0
    0.1425   -0.2909   13.2571 S   0  0  0  0  0  0  0  0  0  0  0  0
    2.3036   -1.2061   12.3104 N   0  0  0  0  0  0  0  0  0  0  0  0
    1.4867   -1.3491   13.3683 C   0  0  1  0  0  3  0  0  0  0  0  0
    1.7545   -2.2591   14.3939 C   0  0  0  0  0  0  0  0  0  0  0  0
    1.0697   -2.3376   15.2227 H   0  0  0  0  0  0  0  0  0  0  0  0
    2.8951   -3.0253   14.3013 C   0  0  0  0  0  0  0  0  0  0  0  0
    3.1359   -3.7393   15.0748 H   0  0  0  0  0  0  0  0  0  0  0  0
    3.7380   -2.8722   13.2000 C   0  0  0  0  0  0  0  0  0  0  0  0
    4.6368   -3.4583   13.1013 H   0  0  0  0  0  0  0  0  0  0  0  0
    3.4019   -1.9503   12.2295 C   0  0  0  0  0  0  0  0  0  0  0  0
    4.0204   -1.7915   11.3557 H   0  0  0  0  0  0  0  0  0  0  0  0
  1 23  1  0  0  0  0
  1 27  1  0  0  0  0
  1 26  1  0  0  0  0
  2  1  1  0  0  0  0
  3 24  1  1  0  0  0
  3  1  1  0  0  0  0
  3 25  1  0  0  0  0
  4  5  1  6  0  0  0
  4 24  1  0  0  0  0
  4 22  1  0  0  0  0
  6  5  1  0  0  0  0
  7  5  2  0  0  0  0
  7  9  1  0  0  0  0
  8  7  1  0  0  0  0
  9 11  2  0  0  0  0
 10  9  1  0  0  0  0
 11 22  1  0  0  0  0
 11 12  1  0  0  0  0
 13 25  1  6  0  0  0
 13 14  1  0  0  0  0
 14 16  2  0  0  0  0
 15 14  1  0  0  0  0
 16 17  1  0  0  0  0
 18 16  1  0  0  0  0
 18 19  1  0  0  0  0
 20 18  2  0  0  0  0
 21 20  1  0  0  0  0
 22  1  1  0  0  0  0
 23 13  1  0  0  0  0
 23 20  1  0  0  0  0
 27 28  1  0  0  0  0
 28 26  1  1  0  0  0
 28 29  1  0  0  0  0
 29 30  1  0  0  0  0
 31 29  2  0  0  0  0
 31 32  1  0  0  0  0
 33 31  1  0  0  0  0
 34 33  1  0  0  0  0
 35 27  1  0  0  0  0
 35 33  2  0  0  0  0
 36 35  1  0  0  0  0
M  END
$$$$
