CSD_code = ALIPUH | q = 1 | S = 0 | Stoichiometry = C18H15AuClN2(1+) | MND = 4
 OpenBabel04212202003D

 37 41  0  0  1  0  0  0  0  0999 V2000
    1.3405   -1.9659    0.3359 Au  0  0  2  0  0  0  0  0  0  0  0  0
    1.1153   -0.5613   -1.5196 Cl  0  0  0  0  0  0  0  0  0  0  0  0
   -0.1214   -3.1687   -0.3205 N   0  0  0  0  0  0  0  0  0  0  0  0
    2.8127   -0.8344    1.0874 N   0  0  0  0  0  0  0  0  0  0  0  0
    0.4032   -3.6809    2.5163 C   0  0  0  0  0  0  0  0  0  0  0  0
    1.5373   -3.1669    1.9162 C   0  0  0  0  0  0  0  0  0  0  0  0
    2.8043   -3.4668    2.3795 C   0  0  0  0  0  0  0  0  0  0  0  0
    2.9359   -4.3083    3.4777 C   0  0  0  0  0  0  0  0  0  0  0  0
    1.8090   -4.8325    4.0857 C   0  0  0  0  0  0  0  0  0  0  0  0
    0.5463   -4.5240    3.6116 C   0  0  0  0  0  0  0  0  0  0  0  0
   -0.9560   -3.3166    1.9716 C   0  0  0  0  0  0  0  0  0  0  0  0
   -1.0627   -3.6348    0.5120 C   0  0  2  0  0  3  0  0  0  0  0  0
   -2.1115   -4.4063    0.0262 C   0  0  0  0  0  0  0  0  0  0  0  0
   -2.1897   -4.6966   -1.3243 C   0  0  0  0  0  0  0  0  0  0  0  0
   -1.1997   -4.2106   -2.1666 C   0  0  0  0  0  0  0  0  0  0  0  0
   -0.1838   -3.4512   -1.6266 C   0  0  0  0  0  0  0  0  0  0  0  0
    4.0093   -2.8799    1.6864 C   0  0  0  0  0  0  0  0  0  0  0  0
    3.9211   -1.3874    1.5993 C   0  0  2  0  0  3  0  0  0  0  0  0
    4.9645   -0.5856    2.0463 C   0  0  0  0  0  0  0  0  0  0  0  0
    4.8645    0.7917    1.9625 C   0  0  0  0  0  0  0  0  0  0  0  0
    3.7046    1.3427    1.4363 C   0  0  0  0  0  0  0  0  0  0  0  0
    2.7030    0.4966    1.0104 C   0  0  0  0  0  0  0  0  0  0  0  0
    3.9186   -4.5576    3.8470 H   0  0  0  0  0  0  0  0  0  0  0  0
    1.9158   -5.4870    4.9363 H   0  0  0  0  0  0  0  0  0  0  0  0
   -0.3298   -4.9287    4.0944 H   0  0  0  0  0  0  0  0  0  0  0  0
   -1.1170   -2.2415    2.1097 H   0  0  0  0  0  0  0  0  0  0  0  0
   -1.7350   -3.8436    2.5214 H   0  0  0  0  0  0  0  0  0  0  0  0
   -2.8630   -4.7667    0.7104 H   0  0  0  0  0  0  0  0  0  0  0  0
   -3.0041   -5.2891   -1.7112 H   0  0  0  0  0  0  0  0  0  0  0  0
   -1.2122   -4.4098   -3.2254 H   0  0  0  0  0  0  0  0  0  0  0  0
    0.5918   -3.0338   -2.2492 H   0  0  0  0  0  0  0  0  0  0  0  0
    4.0685   -3.2879    0.6711 H   0  0  0  0  0  0  0  0  0  0  0  0
    4.9200   -3.1639    2.2128 H   0  0  0  0  0  0  0  0  0  0  0  0
    5.8510   -1.0489    2.4495 H   0  0  0  0  0  0  0  0  0  0  0  0
    5.6728    1.4213    2.3004 H   0  0  0  0  0  0  0  0  0  0  0  0
    3.5752    2.4089    1.3506 H   0  0  0  0  0  0  0  0  0  0  0  0
    1.7958    0.8826    0.5732 H   0  0  0  0  0  0  0  0  0  0  0  0
  1  2  1  6  0  0  0
  1  4  1  0  0  0  0
  1  6  1  0  0  0  0
  3  1  1  0  0  0  0
  3 12  1  0  0  0  0
  4 18  1  0  0  0  0
  5 10  1  0  0  0  0
  6  7  1  0  0  0  0
  6  5  2  0  0  0  0
  7  8  2  0  0  0  0
  8 23  1  0  0  0  0
  8  9  1  0  0  0  0
  9 24  1  0  0  0  0
 10  9  2  0  0  0  0
 10 25  1  0  0  0  0
 11 26  1  0  0  0  0
 11  5  1  0  0  0  0
 11 27  1  0  0  0  0
 12 13  1  1  0  0  0
 12 11  1  0  0  0  0
 13 28  1  0  0  0  0
 14 13  2  0  0  0  0
 15 16  2  0  0  0  0
 15 14  1  0  0  0  0
 16  3  1  0  0  0  0
 17 33  1  0  0  0  0
 17  7  1  0  0  0  0
 18 17  1  0  0  0  0
 18 19  1  1  0  0  0
 19 34  1  0  0  0  0
 20 19  2  0  0  0  0
 20 35  1  0  0  0  0
 21 20  1  0  0  0  0
 22  4  1  0  0  0  0
 22 21  2  0  0  0  0
 29 14  1  0  0  0  0
 30 15  1  0  0  0  0
 31 16  1  0  0  0  0
 32 17  1  0  0  0  0
 36 21  1  0  0  0  0
 37 22  1  0  0  0  0
M  END
$$$$
