CSD_code = ALIROE | q = 0 | S = 0 | Stoichiometry = C17H21BrCuN5 | MND = 4
 OpenBabel04212202003D

 45 49  0  0  1  0  0  0  0  0999 V2000
    4.1841    3.6702    0.2814 Cu  0  0  1  0  0  0  0  0  0  0  0  0
    2.3898    5.0635    0.1760 Br  0  0  0  0  0  0  0  0  0  0  0  0
    5.7781    3.8644   -1.0085 N   0  0  0  0  0  0  0  0  0  0  0  0
    6.6172    3.8966    1.9347 N   0  0  1  0  0  0  0  0  0  0  0  0
    5.3185    3.5827    1.9650 N   0  0  0  0  0  0  0  0  0  0  0  0
    3.4846    2.1190   -2.0860 N   0  0  1  0  0  0  0  0  0  0  0  0
    3.5847    1.9305   -0.7665 N   0  0  0  0  0  0  0  0  0  0  0  0
    5.5865    3.2382   -2.1760 C   0  0  1  0  0  3  0  0  0  0  0  0
    6.6034    2.5637   -2.8279 C   0  0  0  0  0  0  0  0  0  0  0  0
    6.4141    2.0762   -3.7719 H   0  0  0  0  0  0  0  0  0  0  0  0
    7.8707    2.5398   -2.2594 C   0  0  0  0  0  0  0  0  0  0  0  0
    8.6854    2.0290   -2.7484 H   0  0  0  0  0  0  0  0  0  0  0  0
    8.0681    3.1994   -1.0531 C   0  0  0  0  0  0  0  0  0  0  0  0
    9.0418    3.2155   -0.5875 H   0  0  0  0  0  0  0  0  0  0  0  0
    7.0038    3.8635   -0.4708 C   0  0  0  0  0  0  0  0  0  0  0  0
    7.1466    4.6376    0.8151 C   0  0  0  0  0  0  0  0  0  0  0  0
    8.1922    4.8736    1.0121 H   0  0  0  0  0  0  0  0  0  0  0  0
    6.5673    5.5647    0.7208 H   0  0  0  0  0  0  0  0  0  0  0  0
    7.2269    3.5479    3.0892 C   0  0  2  0  0  3  0  0  0  0  0  0
    6.2538    2.9845    3.8891 C   0  0  0  0  0  0  0  0  0  0  0  0
    6.3776    2.5973    4.8795 H   0  0  0  0  0  0  0  0  0  0  0  0
    5.0664    3.0340    3.1438 C   0  0  0  0  0  0  0  0  0  0  0  0
    3.6984    2.6253    3.5474 C   0  0  0  0  0  0  0  0  0  0  0  0
    2.9991    2.8630    2.7496 H   0  0  0  0  0  0  0  0  0  0  0  0
    3.4025    3.1644    4.4463 H   0  0  0  0  0  0  0  0  0  0  0  0
    3.6553    1.5588    3.7639 H   0  0  0  0  0  0  0  0  0  0  0  0
    8.6702    3.7755    3.3553 C   0  0  0  0  0  0  0  0  0  0  0  0
    9.2890    3.2818    2.6061 H   0  0  0  0  0  0  0  0  0  0  0  0
    8.9229    3.3725    4.3318 H   0  0  0  0  0  0  0  0  0  0  0  0
    8.9051    4.8402    3.3513 H   0  0  0  0  0  0  0  0  0  0  0  0
    4.1709    3.2368   -2.6900 C   0  0  0  0  0  0  0  0  0  0  0  0
    3.6730    4.1664   -2.3867 H   0  0  0  0  0  0  0  0  0  0  0  0
    4.1376    3.1335   -3.7743 H   0  0  0  0  0  0  0  0  0  0  0  0
    2.7295    1.1647   -2.6648 C   0  0  1  0  0  3  0  0  0  0  0  0
    2.3252    0.3221   -1.6479 C   0  0  0  0  0  0  0  0  0  0  0  0
    1.7070   -0.5474   -1.7372 H   0  0  0  0  0  0  0  0  0  0  0  0
    2.8818    0.8450   -0.4737 C   0  0  0  0  0  0  0  0  0  0  0  0
    2.7570    0.3298    0.9131 C   0  0  0  0  0  0  0  0  0  0  0  0
    3.6590    0.5598    1.4746 H   0  0  0  0  0  0  0  0  0  0  0  0
    2.5946   -0.7453    0.9023 H   0  0  0  0  0  0  0  0  0  0  0  0
    1.9104    0.8021    1.4114 H   0  0  0  0  0  0  0  0  0  0  0  0
    2.4351    1.1270   -4.1194 C   0  0  0  0  0  0  0  0  0  0  0  0
    1.9259    2.0382   -4.4320 H   0  0  0  0  0  0  0  0  0  0  0  0
    1.7911    0.2792   -4.3347 H   0  0  0  0  0  0  0  0  0  0  0  0
    3.3497    1.0237   -4.7044 H   0  0  0  0  0  0  0  0  0  0  0  0
  1  2  1  6  0  0  0
  1  5  1  0  0  0  0
  3 15  1  0  0  0  0
  3  1  1  0  0  0  0
  4 16  1  1  0  0  0
  4  5  1  0  0  0  0
  4 19  1  0  0  0  0
  5 22  1  0  0  0  0
  6 31  1  6  0  0  0
  6  7  1  0  0  0  0
  7 37  1  0  0  0  0
  7  1  1  0  0  0  0
  8  9  1  1  0  0  0
  8  3  1  0  0  0  0
  9 11  2  0  0  0  0
 10  9  1  0  0  0  0
 11 13  1  0  0  0  0
 12 11  1  0  0  0  0
 13 14  1  0  0  0  0
 13 15  2  0  0  0  0
 15 16  1  0  0  0  0
 16 17  1  0  0  0  0
 18 16  1  0  0  0  0
 19 27  1  1  0  0  0
 19 20  1  0  0  0  0
 20 21  1  0  0  0  0
 22 23  1  0  0  0  0
 22 20  2  0  0  0  0
 23 26  1  0  0  0  0
 23 25  1  0  0  0  0
 24 23  1  0  0  0  0
 27 29  1  0  0  0  0
 28 27  1  0  0  0  0
 30 27  1  0  0  0  0
 31 32  1  0  0  0  0
 31  8  1  0  0  0  0
 33 31  1  0  0  0  0
 34 42  1  1  0  0  0
 34  6  1  0  0  0  0
 34 35  1  0  0  0  0
 35 37  2  0  0  0  0
 36 35  1  0  0  0  0
 37 38  1  0  0  0  0
 38 41  1  0  0  0  0
 38 39  1  0  0  0  0
 40 38  1  0  0  0  0
 43 42  1  0  0  0  0
 44 42  1  0  0  0  0
 45 42  1  0  0  0  0
M  END
$$$$
