CSD_code = ALIVAU | q = 0 | S = 0 | Stoichiometry = C28H28Cl2N2OP2Pt | MND = 4
 OpenBabel04212202003D

 64 69  0  0  0  0  0  0  0  0999 V2000
    4.4886   10.5373    3.3529 Pt  0  0  0  0  0  0  0  0  0  0  0  0
    5.1230   11.0082    1.2203 Cl  0  0  0  0  0  0  0  0  0  0  0  0
    6.4315   11.3650    4.1915 Cl  0  0  0  0  0  0  0  0  0  0  0  0
    2.4521    9.5932    2.9162 P   0  0  0  0  0  4  0  0  0  0  0  0
    3.5650   10.0734    5.3896 P   0  0  0  0  0  4  0  0  0  0  0  0
   -1.3687    8.6039    6.7472 O   0  0  0  0  0  0  0  0  0  0  0  0
    2.1175    9.4973    4.6176 N   0  0  0  0  0  0  0  0  0  0  0  0
    0.8396    9.1562    5.0771 N   0  0  0  0  0  0  0  0  0  0  0  0
    0.1714   10.2213    5.8091 C   0  0  0  0  0  0  0  0  0  0  0  0
    0.2251   11.1368    5.2160 H   0  0  0  0  0  0  0  0  0  0  0  0
    0.6481   10.3938    6.7850 H   0  0  0  0  0  0  0  0  0  0  0  0
   -1.2865    9.8176    6.0401 C   0  0  0  0  0  0  0  0  0  0  0  0
   -1.7945   10.5656    6.6504 H   0  0  0  0  0  0  0  0  0  0  0  0
   -1.8027    9.7259    5.0734 H   0  0  0  0  0  0  0  0  0  0  0  0
   -0.7097    7.5761    6.0510 C   0  0  0  0  0  0  0  0  0  0  0  0
   -1.1964    7.4083    5.0779 H   0  0  0  0  0  0  0  0  0  0  0  0
   -0.8060    6.6777    6.6623 H   0  0  0  0  0  0  0  0  0  0  0  0
    0.7671    7.9090    5.8192 C   0  0  0  0  0  0  0  0  0  0  0  0
    1.2852    7.9837    6.7888 H   0  0  0  0  0  0  0  0  0  0  0  0
    1.2253    7.1202    5.2195 H   0  0  0  0  0  0  0  0  0  0  0  0
    3.0918   11.5072    6.3965 C   0  0  0  0  0  0  0  0  0  0  0  0
    2.7651   11.4618    7.7485 C   0  0  0  0  0  0  0  0  0  0  0  0
    2.7956   10.5229    8.2852 H   0  0  0  0  0  0  0  0  0  0  0  0
    2.4022   12.6251    8.4026 C   0  0  0  0  0  0  0  0  0  0  0  0
    2.1511   12.5928    9.4526 H   0  0  0  0  0  0  0  0  0  0  0  0
    2.3636   13.8297    7.7169 C   0  0  0  0  0  0  0  0  0  0  0  0
    2.0849   14.7338    8.2372 H   0  0  0  0  0  0  0  0  0  0  0  0
    2.6904   13.8776    6.3709 C   0  0  0  0  0  0  0  0  0  0  0  0
    2.6701   14.8177    5.8408 H   0  0  0  0  0  0  0  0  0  0  0  0
    3.0558   12.7185    5.7123 C   0  0  0  0  0  0  0  0  0  0  0  0
    3.3407   12.7349    4.6622 H   0  0  0  0  0  0  0  0  0  0  0  0
    4.2063    8.8295    6.5363 C   0  0  0  0  0  0  0  0  0  0  0  0
    5.0616    9.2555    7.5520 C   0  0  0  0  0  0  0  0  0  0  0  0
    5.2393   10.3127    7.6910 H   0  0  0  0  0  0  0  0  0  0  0  0
    5.6932    8.3268    8.3575 C   0  0  0  0  0  0  0  0  0  0  0  0
    6.3506    8.6603    9.1464 H   0  0  0  0  0  0  0  0  0  0  0  0
    5.4950    6.9715    8.1454 C   0  0  0  0  0  0  0  0  0  0  0  0
    5.9883    6.2483    8.7773 H   0  0  0  0  0  0  0  0  0  0  0  0
    4.6845    6.5440    7.1057 C   0  0  0  0  0  0  0  0  0  0  0  0
    4.5526    5.4881    6.9203 H   0  0  0  0  0  0  0  0  0  0  0  0
    4.0539    7.4674    6.2931 C   0  0  0  0  0  0  0  0  0  0  0  0
    3.4492    7.1365    5.4607 H   0  0  0  0  0  0  0  0  0  0  0  0
    1.0359   10.3953    2.1234 C   0  0  0  0  0  0  0  0  0  0  0  0
   -0.2928   10.0674    2.3767 C   0  0  0  0  0  0  0  0  0  0  0  0
   -0.5245    9.3020    3.1014 H   0  0  0  0  0  0  0  0  0  0  0  0
   -1.3003   10.7400    1.7091 C   0  0  0  0  0  0  0  0  0  0  0  0
   -2.3337   10.4916    1.9051 H   0  0  0  0  0  0  0  0  0  0  0  0
   -0.9898   11.7252    0.7842 C   0  0  0  0  0  0  0  0  0  0  0  0
   -1.7829   12.2412    0.2635 H   0  0  0  0  0  0  0  0  0  0  0  0
    0.3329   12.0480    0.5274 C   0  0  0  0  0  0  0  0  0  0  0  0
    0.5733   12.8151   -0.1931 H   0  0  0  0  0  0  0  0  0  0  0  0
    1.3474   11.3882    1.1978 C   0  0  0  0  0  0  0  0  0  0  0  0
    2.3874   11.6263    1.0122 H   0  0  0  0  0  0  0  0  0  0  0  0
    2.4181    7.8464    2.4182 C   0  0  0  0  0  0  0  0  0  0  0  0
    1.3494    7.1996    1.8116 C   0  0  0  0  0  0  0  0  0  0  0  0
    0.4547    7.7484    1.5579 H   0  0  0  0  0  0  0  0  0  0  0  0
    1.4454    5.8489    1.5210 C   0  0  0  0  0  0  0  0  0  0  0  0
    0.6150    5.3424    1.0512 H   0  0  0  0  0  0  0  0  0  0  0  0
    2.6011    5.1474    1.8231 C   0  0  0  0  0  0  0  0  0  0  0  0
    2.6676    4.0948    1.5912 H   0  0  0  0  0  0  0  0  0  0  0  0
    3.6798    5.7972    2.4046 C   0  0  0  0  0  0  0  0  0  0  0  0
    4.5891    5.2558    2.6188 H   0  0  0  0  0  0  0  0  0  0  0  0
    3.5899    7.1446    2.6952 C   0  0  0  0  0  0  0  0  0  0  0  0
    4.4335    7.6826    3.1230 H   0  0  0  0  0  0  0  0  0  0  0  0
  1  3  1  0  0  0  0
  1  5  1  0  0  0  0
  2  1  1  0  0  0  0
  4  1  1  0  0  0  0
  4  7  1  0  0  0  0
  5 21  1  0  0  0  0
  5 32  1  0  0  0  0
  7  8  1  0  0  0  0
  7  5  1  0  0  0  0
  8  9  1  0  0  0  0
  8 18  1  0  0  0  0
  9 12  1  0  0  0  0
  9 11  1  0  0  0  0
 10  9  1  0  0  0  0
 12 13  1  0  0  0  0
 12  6  1  0  0  0  0
 14 12  1  0  0  0  0
 15 17  1  0  0  0  0
 15  6  1  0  0  0  0
 16 15  1  0  0  0  0
 18 15  1  0  0  0  0
 18 19  1  0  0  0  0
 20 18  1  0  0  0  0
 21 22  1  0  0  0  0
 22 23  1  0  0  0  0
 22 24  2  0  0  0  0
 24 25  1  0  0  0  0
 26 27  1  0  0  0  0
 26 24  1  0  0  0  0
 28 26  2  0  0  0  0
 29 28  1  0  0  0  0
 30 28  1  0  0  0  0
 30 21  2  0  0  0  0
 31 30  1  0  0  0  0
 32 33  1  0  0  0  0
 33 34  1  0  0  0  0
 33 35  2  0  0  0  0
 35 36  1  0  0  0  0
 37 35  1  0  0  0  0
 37 38  1  0  0  0  0
 39 37  2  0  0  0  0
 40 39  1  0  0  0  0
 41 32  2  0  0  0  0
 41 39  1  0  0  0  0
 42 41  1  0  0  0  0
 43 44  1  0  0  0  0
 43  4  1  0  0  0  0
 44 45  1  0  0  0  0
 46 47  1  0  0  0  0
 46 44  2  0  0  0  0
 48 46  1  0  0  0  0
 49 48  1  0  0  0  0
 50 48  2  0  0  0  0
 50 52  1  0  0  0  0
 51 50  1  0  0  0  0
 52 43  2  0  0  0  0
 53 52  1  0  0  0  0
 54 63  1  0  0  0  0
 54  4  1  0  0  0  0
 55 54  2  0  0  0  0
 56 55  1  0  0  0  0
 57 55  1  0  0  0  0
 57 59  2  0  0  0  0
 58 57  1  0  0  0  0
 59 61  1  0  0  0  0
 60 59  1  0  0  0  0
 61 62  1  0  0  0  0
 61 63  2  0  0  0  0
 63 64  1  0  0  0  0
M  END
$$$$
