CSD_code = ALIWAU | q = 0 | S = 0 | Stoichiometry = C23H29ClFeN2O2 | MND = 5
 OpenBabel04212202003D

 58 63  0  0  1  0  0  0  0  0999 V2000
   -0.0007    3.9128    2.2711 Fe  0  0  0  0  0  0  0  0  0  0  0  0
    0.0027    5.6464    3.4384 Cl  0  0  0  0  0  0  0  0  0  0  0  0
    1.3148    2.9253    3.2214 O   0  0  0  0  0  0  0  0  0  0  0  0
    3.2666    3.5001    1.9699 C   0  0  0  0  0  0  0  0  0  0  0  0
    1.2899    4.5874    0.9373 N   0  0  2  0  0  4  0  0  0  0  0  0
    3.1922    1.5369    3.4036 C   0  0  0  0  0  0  0  0  0  0  0  0
    2.5433    2.6913    2.8812 C   0  0  0  0  0  0  0  0  0  0  0  0
    1.2613    3.5011   -0.1153 C   0  0  0  0  0  0  0  0  0  0  0  0
    1.4112    2.5621    0.4395 H   0  0  0  0  0  0  0  0  0  0  0  0
    2.1185    3.6337   -0.7840 H   0  0  0  0  0  0  0  0  0  0  0  0
    4.5518    3.1476    1.5914 C   0  0  0  0  0  0  0  0  0  0  0  0
    5.0833    3.7796    0.8918 H   0  0  0  0  0  0  0  0  0  0  0  0
    4.4745    1.2322    3.0073 C   0  0  0  0  0  0  0  0  0  0  0  0
    4.9509    0.3517    3.4164 H   0  0  0  0  0  0  0  0  0  0  0  0
    2.6507    4.7697    1.4586 C   0  0  0  0  0  0  0  0  0  0  0  0
    3.2973    5.2062    0.6847 H   0  0  0  0  0  0  0  0  0  0  0  0
    2.5618    5.4810    2.2884 H   0  0  0  0  0  0  0  0  0  0  0  0
    5.1768    2.0187    2.0957 C   0  0  0  0  0  0  0  0  0  0  0  0
    0.7710    5.8459    0.3907 C   0  0  0  0  0  0  0  0  0  0  0  0
    1.1704    6.0112   -0.6173 H   0  0  0  0  0  0  0  0  0  0  0  0
    1.1129    6.6480    1.0450 H   0  0  0  0  0  0  0  0  0  0  0  0
    6.5604    1.6380    1.6636 C   0  0  0  0  0  0  0  0  0  0  0  0
    7.1152    1.2017    2.4910 H   0  0  0  0  0  0  0  0  0  0  0  0
    7.1035    2.5039    1.2931 H   0  0  0  0  0  0  0  0  0  0  0  0
    6.5159    0.8973    0.8638 H   0  0  0  0  0  0  0  0  0  0  0  0
    2.4508    0.6977    4.3964 C   0  0  0  0  0  0  0  0  0  0  0  0
    2.5982    1.0941    5.4011 H   0  0  0  0  0  0  0  0  0  0  0  0
    2.7967   -0.3331    4.3758 H   0  0  0  0  0  0  0  0  0  0  0  0
    1.3849    0.7402    4.1845 H   0  0  0  0  0  0  0  0  0  0  0  0
   -0.0004    3.5193   -0.8691 C   0  0  0  0  0  3  0  0  0  0  0  0
   -0.0028    3.9873   -1.8402 H   0  0  0  0  0  0  0  0  0  0  0  0
   -1.3189    2.9335    3.2310 O   0  0  0  0  0  0  0  0  0  0  0  0
   -3.2672    3.5014    1.9714 C   0  0  0  0  0  0  0  0  0  0  0  0
   -1.2895    4.5878    0.9394 N   0  0  1  0  0  4  0  0  0  0  0  0
   -3.1940    1.5414    3.4090 C   0  0  0  0  0  0  0  0  0  0  0  0
   -2.5454    2.6959    2.8865 C   0  0  0  0  0  0  0  0  0  0  0  0
   -1.2589    3.4977   -0.1107 C   0  0  0  0  0  0  0  0  0  0  0  0
   -1.4023    2.5598    0.4479 H   0  0  0  0  0  0  0  0  0  0  0  0
   -2.1193    3.6243   -0.7763 H   0  0  0  0  0  0  0  0  0  0  0  0
   -4.5510    3.1468    1.5902 C   0  0  0  0  0  0  0  0  0  0  0  0
   -5.0815    3.7768    0.8879 H   0  0  0  0  0  0  0  0  0  0  0  0
   -4.4748    1.2342    3.0098 C   0  0  0  0  0  0  0  0  0  0  0  0
   -4.9509    0.3537    3.4192 H   0  0  0  0  0  0  0  0  0  0  0  0
   -2.6510    4.7704    1.4589 C   0  0  0  0  0  0  0  0  0  0  0  0
   -3.2967    5.2057    0.6835 H   0  0  0  0  0  0  0  0  0  0  0  0
   -2.5631    5.4830    2.2877 H   0  0  0  0  0  0  0  0  0  0  0  0
   -5.1759    2.0182    2.0953 C   0  0  0  0  0  0  0  0  0  0  0  0
   -0.7711    5.8451    0.3898 C   0  0  0  0  0  0  0  0  0  0  0  0
   -1.1696    6.0072   -0.6191 H   0  0  0  0  0  0  0  0  0  0  0  0
   -1.1145    6.6488    1.0414 H   0  0  0  0  0  0  0  0  0  0  0  0
   -6.5582    1.6352    1.6607 C   0  0  0  0  0  0  0  0  0  0  0  0
   -7.1139    1.1986    2.4873 H   0  0  0  0  0  0  0  0  0  0  0  0
   -7.1020    2.5002    1.2890 H   0  0  0  0  0  0  0  0  0  0  0  0
   -6.5114    0.8943    0.8613 H   0  0  0  0  0  0  0  0  0  0  0  0
   -2.4536    0.7044    4.4044 C   0  0  0  0  0  0  0  0  0  0  0  0
   -2.6045    1.1011    5.4085 H   0  0  0  0  0  0  0  0  0  0  0  0
   -2.7973   -0.3272    4.3836 H   0  0  0  0  0  0  0  0  0  0  0  0
   -1.3872    0.7490    4.1954 H   0  0  0  0  0  0  0  0  0  0  0  0
  1  3  1  0  0  0  0
  1 32  1  0  0  0  0
  1  2  1  0  0  0  0
  4  7  1  0  0  0  0
  5  8  1  6  0  0  0
  5 15  1  0  0  0  0
  5  1  1  0  0  0  0
  6 26  1  0  0  0  0
  7  3  1  0  0  0  0
  7  6  2  0  0  0  0
  8  9  1  0  0  0  0
 10  8  1  0  0  0  0
 11  4  2  0  0  0  0
 11 18  1  0  0  0  0
 12 11  1  0  0  0  0
 13  6  1  0  0  0  0
 13 14  1  0  0  0  0
 15  4  1  0  0  0  0
 15 17  1  0  0  0  0
 16 15  1  0  0  0  0
 18 13  2  0  0  0  0
 19  5  1  0  0  0  0
 19 21  1  0  0  0  0
 20 19  1  0  0  0  0
 22 18  1  0  0  0  0
 22 23  1  0  0  0  0
 24 22  1  0  0  0  0
 25 22  1  0  0  0  0
 26 27  1  0  0  0  0
 28 26  1  0  0  0  0
 29 26  1  0  0  0  0
 30  8  1  0  0  0  0
 30 37  1  0  0  0  0
 31 30  1  0  0  0  0
 33 36  1  0  0  0  0
 34 37  1  6  0  0  0
 34 44  1  0  0  0  0
 34  1  1  0  0  0  0
 35 55  1  0  0  0  0
 36 32  1  0  0  0  0
 36 35  2  0  0  0  0
 37 38  1  0  0  0  0
 39 37  1  0  0  0  0
 40 33  2  0  0  0  0
 40 47  1  0  0  0  0
 41 40  1  0  0  0  0
 42 35  1  0  0  0  0
 42 43  1  0  0  0  0
 44 33  1  0  0  0  0
 44 46  1  0  0  0  0
 45 44  1  0  0  0  0
 47 42  2  0  0  0  0
 48 19  1  0  0  0  0
 48 34  1  0  0  0  0
 48 50  1  0  0  0  0
 49 48  1  0  0  0  0
 51 47  1  0  0  0  0
 51 52  1  0  0  0  0
 53 51  1  0  0  0  0
 54 51  1  0  0  0  0
 55 56  1  0  0  0  0
 57 55  1  0  0  0  0
 58 55  1  0  0  0  0
M  END
$$$$
