CSD_code = ALIYOJ | q = 0 | S = 0 | Stoichiometry = C15H11F3MnN3 | MND = 6
 OpenBabel04212202003D

 33 37  0  0  1  0  0  0  0  0999 V2000
    2.2938    9.1958    2.4777 Mn  0  0  0  0  0  0  0  0  0  0  0  0
    2.4195    9.7344    0.6655 N   0  0  0  0  0  0  0  0  0  0  0  0
    0.9450   10.4816    2.5198 N   0  0  0  0  0  0  0  0  0  0  0  0
    3.9419    7.8805    1.7056 N   0  0  0  0  0  0  0  0  0  0  0  0
    4.6448    6.9545    2.3243 C   0  0  0  0  0  3  0  0  0  0  0  0
    4.4099    6.8122    3.3701 H   0  0  0  0  0  0  0  0  0  0  0  0
    5.6240    6.2067    1.6823 C   0  0  0  0  0  0  0  0  0  0  0  0
    6.1796    5.4559    2.2204 H   0  0  0  0  0  0  0  0  0  0  0  0
    5.8605    6.4544    0.3405 C   0  0  0  0  0  0  0  0  0  0  0  0
    6.6118    5.8965   -0.1990 H   0  0  0  0  0  0  0  0  0  0  0  0
    5.1199    7.4291   -0.3076 C   0  0  0  0  0  0  0  0  0  0  0  0
    5.2919    7.6318   -1.3522 H   0  0  0  0  0  0  0  0  0  0  0  0
    4.1535    8.1380    0.4051 C   0  0  0  0  0  0  0  0  0  0  0  0
    3.3068    9.1900   -0.1868 C   0  0  1  0  0  3  0  0  0  0  0  0
    3.3750    9.6183   -1.5002 C   0  0  0  0  0  0  0  0  0  0  0  0
    4.0830    9.1922   -2.1913 H   0  0  0  0  0  0  0  0  0  0  0  0
    2.5053   10.6266   -1.9334 C   0  0  0  0  0  0  0  0  0  0  0  0
    2.5518   10.9674   -2.9562 H   0  0  0  0  0  0  0  0  0  0  0  0
    1.6004   11.1748   -1.0558 C   0  0  0  0  0  0  0  0  0  0  0  0
    0.9241   11.9514   -1.3739 H   0  0  0  0  0  0  0  0  0  0  0  0
    1.5689   10.7092    0.2671 C   0  0  0  0  0  0  0  0  0  0  0  0
    0.7135   11.1403    1.3340 C   0  0  1  0  0  3  0  0  0  0  0  0
   -0.2751   12.1268    1.2279 C   0  0  0  0  0  0  0  0  0  0  0  0
   -0.4271   12.6202    0.2809 H   0  0  0  0  0  0  0  0  0  0  0  0
   -1.0377   12.4547    2.3211 C   0  0  0  0  0  0  0  0  0  0  0  0
   -1.8042   13.2108    2.2587 H   0  0  0  0  0  0  0  0  0  0  0  0
   -0.7952   11.7797    3.5248 C   0  0  0  0  0  0  0  0  0  0  0  0
   -1.3712   12.0064    4.4074 H   0  0  0  0  0  0  0  0  0  0  0  0
    0.1856   10.8218    3.5754 C   0  0  0  0  0  0  0  0  0  0  0  0
    0.3970   10.2833    4.4897 H   0  0  0  0  0  0  0  0  0  0  0  0
    2.1521    8.7098    4.1941 F   0  0  0  0  0  0  0  0  0  0  0  0
    3.6115   10.2742    2.7639 F   0  0  0  0  0  0  0  0  0  0  0  0
    1.3157    7.8953    1.9001 F   0  0  0  0  0  0  0  0  0  0  0  0
  1  3  1  0  0  0  0
  1 32  1  0  0  0  0
  1 31  1  0  0  0  0
  2  1  1  0  0  0  0
  3 29  1  0  0  0  0
  4  5  1  0  0  0  0
  4  1  1  0  0  0  0
  5  6  1  0  0  0  0
  7  8  1  0  0  0  0
  7  5  1  0  0  0  0
  9  7  2  0  0  0  0
 10  9  1  0  0  0  0
 11  9  1  0  0  0  0
 11 13  2  0  0  0  0
 12 11  1  0  0  0  0
 13  4  1  0  0  0  0
 14 15  1  6  0  0  0
 14 13  1  0  0  0  0
 14  2  1  0  0  0  0
 16 15  1  0  0  0  0
 17 15  2  0  0  0  0
 17 19  1  0  0  0  0
 18 17  1  0  0  0  0
 19 21  2  0  0  0  0
 20 19  1  0  0  0  0
 21  2  1  0  0  0  0
 22 21  1  6  0  0  0
 22  3  1  0  0  0  0
 23 22  1  0  0  0  0
 23 25  2  0  0  0  0
 24 23  1  0  0  0  0
 25 27  1  0  0  0  0
 26 25  1  0  0  0  0
 27 29  2  0  0  0  0
 27 28  1  0  0  0  0
 29 30  1  0  0  0  0
 33  1  1  0  0  0  0
M  END
$$$$
