CSD_code = ALOBUY | q = 0 | S = 0 | Stoichiometry = C16H18BCl2N7Os | MND = 6
 OpenBabel04212202003D

 45 50  0  0  1  0  0  0  0  0999 V2000
    7.3679    2.0037    2.5879 Os  0  0  0  0  0  0  0  0  0  0  0  0
    8.3326    2.0761    4.6665 Cl  0  0  0  0  0  0  0  0  0  0  0  0
    6.8209   -0.2316    2.7461 Cl  0  0  0  0  0  0  0  0  0  0  0  0
    9.1895    1.4493    1.7426 N   0  0  2  0  0  0  0  0  0  0  0  0
    9.6238    2.0770    0.6403 N   0  0  0  0  0  0  0  0  0  0  0  0
    8.0112    3.9370    2.2725 N   0  0  2  0  0  0  0  0  0  0  0  0
    8.5761    4.2613    1.1055 N   0  0  0  0  0  0  0  0  0  0  0  0
    6.6839    2.0033    0.6441 N   0  0  2  0  0  0  0  0  0  0  0  0
    7.4075    2.5984   -0.3083 N   0  0  0  0  0  0  0  0  0  0  0  0
    5.6586    2.4136    3.3352 N   0  0  0  0  0  0  0  0  0  0  0  0
    5.4438    1.8277    4.1494 H   0  0  0  0  0  0  0  0  0  0  0  0
   10.0884    0.5309    2.0727 C   0  0  0  0  0  3  0  0  0  0  0  0
    9.9441   -0.0973    2.9305 H   0  0  0  0  0  0  0  0  0  0  0  0
   11.1392    0.5617    1.1605 C   0  0  0  0  0  0  0  0  0  0  0  0
   12.0147   -0.0532    1.1540 H   0  0  0  0  0  0  0  0  0  0  0  0
   10.8005    1.5600    0.2681 C   0  0  0  0  0  0  0  0  0  0  0  0
   11.3193    1.9259   -0.5948 H   0  0  0  0  0  0  0  0  0  0  0  0
    7.9919    5.0206    3.0386 C   0  0  0  0  0  3  0  0  0  0  0  0
    7.5829    4.9867    4.0302 H   0  0  0  0  0  0  0  0  0  0  0  0
    8.5617    6.0854    2.3449 C   0  0  0  0  0  0  0  0  0  0  0  0
    8.6942    7.0901    2.6880 H   0  0  0  0  0  0  0  0  0  0  0  0
    8.9210    5.5557    1.1220 C   0  0  0  0  0  0  0  0  0  0  0  0
    9.3947    6.0141    0.2781 H   0  0  0  0  0  0  0  0  0  0  0  0
    5.5761    1.5310    0.0875 C   0  0  0  0  0  3  0  0  0  0  0  0
    4.8465    1.0024    0.6703 H   0  0  0  0  0  0  0  0  0  0  0  0
    5.5791    1.8312   -1.2726 C   0  0  0  0  0  0  0  0  0  0  0  0
    4.8293    1.5861   -1.9952 H   0  0  0  0  0  0  0  0  0  0  0  0
    6.7635    2.5079   -1.4797 C   0  0  0  0  0  0  0  0  0  0  0  0
    7.1808    2.9211   -2.3752 H   0  0  0  0  0  0  0  0  0  0  0  0
    4.5852    3.1528    2.9789 C   0  0  0  0  0  0  0  0  0  0  0  0
    4.6755    4.1125    1.9488 C   0  0  0  0  0  0  0  0  0  0  0  0
    5.6272    4.2715    1.4683 H   0  0  0  0  0  0  0  0  0  0  0  0
    3.5808    4.8513    1.5644 C   0  0  0  0  0  0  0  0  0  0  0  0
    3.6757    5.5798    0.7731 H   0  0  0  0  0  0  0  0  0  0  0  0
    2.3583    4.6630    2.1940 C   0  0  0  0  0  0  0  0  0  0  0  0
    1.4965    5.2389    1.8940 H   0  0  0  0  0  0  0  0  0  0  0  0
    2.2496    3.7318    3.2156 C   0  0  0  0  0  0  0  0  0  0  0  0
    1.2956    3.5912    3.7034 H   0  0  0  0  0  0  0  0  0  0  0  0
    3.3301    2.9742    3.6268 C   0  0  0  0  0  0  0  0  0  0  0  0
    3.1769    1.9676    4.7255 C   0  0  0  0  0  0  0  0  0  0  0  0
    2.1499    1.9521    5.0811 H   0  0  0  0  0  0  0  0  0  0  0  0
    3.8246    2.2087    5.5694 H   0  0  0  0  0  0  0  0  0  0  0  0
    3.4326    0.9669    4.3761 H   0  0  0  0  0  0  0  0  0  0  0  0
    8.7855    3.2005    0.0118 B   0  0  2  0  0  0  0  0  0  0  0  0
    9.2998    3.6557   -0.9472 H   0  0  0  0  0  0  0  0  0  0  0  0
  1  3  1  0  0  0  0
  1 10  1  0  0  0  0
  1  2  1  0  0  0  0
  4 12  1  6  0  0  0
  4  1  1  0  0  0  0
  5  4  1  0  0  0  0
  6  1  1  0  0  0  0
  6 18  1  1  0  0  0
  7 22  1  0  0  0  0
  7  6  1  0  0  0  0
  8 24  1  1  0  0  0
  8  1  1  0  0  0  0
  9 44  1  0  0  0  0
  9  8  1  0  0  0  0
 10 11  1  0  0  0  0
 12 13  1  0  0  0  0
 14 12  1  0  0  0  0
 15 14  1  0  0  0  0
 16  5  1  0  0  0  0
 16 14  2  0  0  0  0
 17 16  1  0  0  0  0
 18 19  1  0  0  0  0
 20 21  1  0  0  0  0
 20 18  1  0  0  0  0
 22 20  2  0  0  0  0
 23 22  1  0  0  0  0
 24 25  1  0  0  0  0
 26 24  1  0  0  0  0
 27 26  1  0  0  0  0
 28 26  2  0  0  0  0
 28  9  1  0  0  0  0
 29 28  1  0  0  0  0
 30 10  1  0  0  0  0
 30 39  1  0  0  0  0
 31 30  2  0  0  0  0
 32 31  1  0  0  0  0
 33 31  1  0  0  0  0
 33 35  2  0  0  0  0
 34 33  1  0  0  0  0
 35 37  1  0  0  0  0
 36 35  1  0  0  0  0
 37 39  2  0  0  0  0
 37 38  1  0  0  0  0
 39 40  1  0  0  0  0
 40 41  1  0  0  0  0
 40 42  1  0  0  0  0
 43 40  1  0  0  0  0
 44 45  1  6  0  0  0
 44  5  1  0  0  0  0
 44  7  1  0  0  0  0
M  END
$$$$
