CSD_code = ALOBOT | q = 0 | S = 0 | Stoichiometry = C13H24Cl5N2NbO | MND = 6
 OpenBabel04212202003D

 46 47  0  0  0  0  0  0  0  0999 V2000
   -3.3909    7.9530   12.7064 Nb  0  0  0  0  0  0  0  0  0  0  0  0
   -3.1323    6.2345   11.0508 Cl  0  0  0  0  0  0  0  0  0  0  0  0
   -4.4555    6.3998   14.1069 Cl  0  0  0  0  0  0  0  0  0  0  0  0
   -4.0635    9.7658   13.9773 Cl  0  0  0  0  0  0  0  0  0  0  0  0
   -2.5140    9.4654   10.9961 Cl  0  0  0  0  0  0  0  0  0  0  0  0
   -1.3839    7.6607   13.5987 Cl  0  0  0  0  0  0  0  0  0  0  0  0
   -5.2013    8.2292   11.7585 O   0  0  0  0  0  0  0  0  0  0  0  0
   -5.6245    7.9279   10.5981 C   0  0  0  0  0  3  0  0  0  0  0  0
   -6.5908    7.0158   10.4667 N   0  0  0  0  0  0  0  0  0  0  0  0
   -6.8680    6.7174    9.5445 H   0  0  0  0  0  0  0  0  0  0  0  0
   -7.0638    6.2121   11.5863 C   0  0  0  0  0  0  0  0  0  0  0  0
   -6.7360    6.7228   12.4996 H   0  0  0  0  0  0  0  0  0  0  0  0
   -8.5873    6.1232   11.5639 C   0  0  0  0  0  0  0  0  0  0  0  0
   -8.9095    5.6421   10.6366 H   0  0  0  0  0  0  0  0  0  0  0  0
   -9.0170    7.1259   11.5955 H   0  0  0  0  0  0  0  0  0  0  0  0
   -9.0710    5.3038   12.7580 C   0  0  0  0  0  0  0  0  0  0  0  0
   -8.7816    5.8100   13.6805 H   0  0  0  0  0  0  0  0  0  0  0  0
  -10.1600    5.2340   12.7389 H   0  0  0  0  0  0  0  0  0  0  0  0
   -8.4554    3.9081   12.7336 C   0  0  0  0  0  0  0  0  0  0  0  0
   -8.7936    3.3414   13.6022 H   0  0  0  0  0  0  0  0  0  0  0  0
   -8.7905    3.3787   11.8383 H   0  0  0  0  0  0  0  0  0  0  0  0
   -6.9324    3.9961   12.7340 C   0  0  0  0  0  0  0  0  0  0  0  0
   -6.4998    2.9958   12.6913 H   0  0  0  0  0  0  0  0  0  0  0  0
   -6.5905    4.4709   13.6547 H   0  0  0  0  0  0  0  0  0  0  0  0
   -6.4420    4.8152   11.5440 C   0  0  0  0  0  0  0  0  0  0  0  0
   -5.3535    4.9040   11.5718 H   0  0  0  0  0  0  0  0  0  0  0  0
   -6.7254    4.3198   10.6115 H   0  0  0  0  0  0  0  0  0  0  0  0
   -5.1417    8.5999    9.5526 N   0  0  0  0  0  0  0  0  0  0  0  0
   -4.3187    9.1658    9.7900 H   0  0  0  0  0  0  0  0  0  0  0  0
   -5.2619    8.2434    8.1490 C   0  0  0  0  0  0  0  0  0  0  0  0
   -6.3095    7.9958    7.9363 H   0  0  0  0  0  0  0  0  0  0  0  0
   -4.8618    9.4537    7.3073 C   0  0  0  0  0  0  0  0  0  0  0  0
   -5.5136   10.2960    7.5436 H   0  0  0  0  0  0  0  0  0  0  0  0
   -3.8382    9.7340    7.5615 H   0  0  0  0  0  0  0  0  0  0  0  0
   -4.9460    9.1193    5.8200 C   0  0  0  0  0  0  0  0  0  0  0  0
   -4.6423    9.9873    5.2336 H   0  0  0  0  0  0  0  0  0  0  0  0
   -5.9798    8.8836    5.5565 H   0  0  0  0  0  0  0  0  0  0  0  0
   -4.0524    7.9278    5.4897 C   0  0  0  0  0  0  0  0  0  0  0  0
   -4.1337    7.6862    4.4287 H   0  0  0  0  0  0  0  0  0  0  0  0
   -3.0129    8.1871    5.6969 H   0  0  0  0  0  0  0  0  0  0  0  0
   -4.4469    6.7174    6.3300 C   0  0  0  0  0  0  0  0  0  0  0  0
   -3.7892    5.8769    6.1062 H   0  0  0  0  0  0  0  0  0  0  0  0
   -5.4682    6.4192    6.0796 H   0  0  0  0  0  0  0  0  0  0  0  0
   -4.3604    7.0501    7.8166 C   0  0  0  0  0  0  0  0  0  0  0  0
   -4.6404    6.1853    8.4208 H   0  0  0  0  0  0  0  0  0  0  0  0
   -3.3336    7.3093    8.0802 H   0  0  0  0  0  0  0  0  0  0  0  0
  1  6  1  0  0  0  0
  1  4  1  0  0  0  0
  1  3  1  0  0  0  0
  2  1  1  0  0  0  0
  5  1  1  0  0  0  0
  7  1  1  0  0  0  0
  8  7  1  0  0  0  0
  9  8  1  0  0  0  0
  9 11  1  0  0  0  0
 10  9  1  0  0  0  0
 11 12  1  0  0  0  0
 13 11  1  0  0  0  0
 13 15  1  0  0  0  0
 13 16  1  0  0  0  0
 14 13  1  0  0  0  0
 16 17  1  0  0  0  0
 18 16  1  0  0  0  0
 19 22  1  0  0  0  0
 19 16  1  0  0  0  0
 19 20  1  0  0  0  0
 21 19  1  0  0  0  0
 22 24  1  0  0  0  0
 23 22  1  0  0  0  0
 25 26  1  0  0  0  0
 25 11  1  0  0  0  0
 25 22  1  0  0  0  0
 27 25  1  0  0  0  0
 28 29  1  0  0  0  0
 28  8  1  0  0  0  0
 30 28  1  0  0  0  0
 31 30  1  0  0  0  0
 32 33  1  0  0  0  0
 32 34  1  0  0  0  0
 32 30  1  0  0  0  0
 35 32  1  0  0  0  0
 36 35  1  0  0  0  0
 37 35  1  0  0  0  0
 38 40  1  0  0  0  0
 38 35  1  0  0  0  0
 38 41  1  0  0  0  0
 39 38  1  0  0  0  0
 41 44  1  0  0  0  0
 42 41  1  0  0  0  0
 43 41  1  0  0  0  0
 44 46  1  0  0  0  0
 44 30  1  0  0  0  0
 44 45  1  0  0  0  0
M  END
$$$$
