CSD_code = ALOBAF | q = 0 | S = 0 | Stoichiometry = C19H16ClN2O5Re | MND = 6
 OpenBabel04212202003D

 44 46  0  0  0  0  0  0  0  0999 V2000
    4.7915    7.8415    0.5979 Re  0  0  0  0  0  0  0  0  0  0  0  0
    5.3872    5.2268   -0.9411 O   0  0  0  0  0  1  0  0  0  0  0  0
    2.0988    8.2809   -0.8655 O   0  0  0  0  0  1  0  0  0  0  0  0
    3.3366    6.6041    3.0260 O   0  0  0  0  0  1  0  0  0  0  0  0
    4.4799    9.8766    1.7902 Cl  0  0  0  0  0  0  0  0  0  0  0  0
    4.7123   11.0929   -5.6329 O   0  0  0  0  0  0  0  0  0  0  0  0
    7.5558    5.5231    6.5494 O   0  0  0  0  0  0  0  0  0  0  0  0
    6.6780    7.8952    1.6252 N   0  0  0  0  0  0  0  0  0  0  0  0
    6.0424    9.0307   -0.6647 N   0  0  0  0  0  0  0  0  0  0  0  0
    7.5284    8.7263    1.1057 C   0  0  0  0  0  0  0  0  0  0  0  0
    8.4701    8.9706    1.5894 H   0  0  0  0  0  0  0  0  0  0  0  0
    7.2038    9.2992   -0.1517 C   0  0  0  0  0  0  0  0  0  0  0  0
    7.9114    9.9549   -0.6524 H   0  0  0  0  0  0  0  0  0  0  0  0
    6.9285    7.3404    2.8755 C   0  0  0  0  0  0  0  0  0  0  0  0
    7.4942    8.0814    3.9125 C   0  0  0  0  0  0  0  0  0  0  0  0
    7.7149    9.1289    3.7659 H   0  0  0  0  0  0  0  0  0  0  0  0
    7.7051    7.5159    5.1548 C   0  0  0  0  0  0  0  0  0  0  0  0
    8.1160    8.1289    5.9412 H   0  0  0  0  0  0  0  0  0  0  0  0
    7.3783    6.1809    5.3807 C   0  0  0  0  0  0  0  0  0  0  0  0
    6.8122    5.4342    4.3394 C   0  0  0  0  0  0  0  0  0  0  0  0
    6.5582    4.4039    4.5296 H   0  0  0  0  0  0  0  0  0  0  0  0
    6.5758    6.0059    3.1147 C   0  0  0  0  0  0  0  0  0  0  0  0
    6.1373    5.4265    2.3141 H   0  0  0  0  0  0  0  0  0  0  0  0
    3.1020    8.0989   -0.3471 C   0  0  0  0  0  2  0  0  0  0  0  0
    3.8483    6.9862    2.0795 C   0  0  0  0  0  2  0  0  0  0  0  0
    5.5545   10.9708   -6.7547 C   0  0  0  0  0  0  0  0  0  0  0  0
    5.0213   11.4472   -7.5756 H   0  0  0  0  0  0  0  0  0  0  0  0
    5.7397    9.9215   -7.0049 H   0  0  0  0  0  0  0  0  0  0  0  0
    6.5091   11.4834   -6.5986 H   0  0  0  0  0  0  0  0  0  0  0  0
    5.1169   10.5707   -4.4504 C   0  0  0  0  0  0  0  0  0  0  0  0
    6.3290    9.9192   -4.2374 C   0  0  0  0  0  0  0  0  0  0  0  0
    7.0371    9.7830   -5.0393 H   0  0  0  0  0  0  0  0  0  0  0  0
    6.6412    9.4300   -2.9832 C   0  0  0  0  0  0  0  0  0  0  0  0
    7.5742    8.9040   -2.8351 H   0  0  0  0  0  0  0  0  0  0  0  0
    5.7418    9.5490   -1.9265 C   0  0  0  0  0  0  0  0  0  0  0  0
    4.5242   10.1996   -2.1439 C   0  0  0  0  0  0  0  0  0  0  0  0
    3.8437   10.3326   -1.3166 H   0  0  0  0  0  0  0  0  0  0  0  0
    4.2244   10.7129   -3.3816 C   0  0  0  0  0  0  0  0  0  0  0  0
    3.2953   11.2307   -3.5565 H   0  0  0  0  0  0  0  0  0  0  0  0
    8.1045    6.2159    7.6463 C   0  0  0  0  0  0  0  0  0  0  0  0
    8.1459    5.4929    8.4593 H   0  0  0  0  0  0  0  0  0  0  0  0
    7.4738    7.0591    7.9442 H   0  0  0  0  0  0  0  0  0  0  0  0
    9.1159    6.5741    7.4293 H   0  0  0  0  0  0  0  0  0  0  0  0
    5.1427    6.1932   -0.3686 C   0  0  0  0  0  2  0  0  0  0  0  0
  1  8  1  0  0  0  0
  1  5  1  0  0  0  0
  1 25  1  0  0  0  0
  2 44  1  0  0  0  0
  3 24  1  0  0  0  0
  6 30  1  0  0  0  0
  7 40  1  0  0  0  0
  8 14  1  0  0  0  0
  9 12  1  0  0  0  0
  9  1  1  0  0  0  0
 10 11  1  0  0  0  0
 10  8  1  0  0  0  0
 12 10  2  0  0  0  0
 13 12  1  0  0  0  0
 14 22  2  0  0  0  0
 14 15  1  0  0  0  0
 15 17  2  0  0  0  0
 16 15  1  0  0  0  0
 17 19  1  0  0  0  0
 17 18  1  0  0  0  0
 19  7  1  0  0  0  0
 20 21  1  0  0  0  0
 20 19  2  0  0  0  0
 22 20  1  0  0  0  0
 23 22  1  0  0  0  0
 24  1  1  0  0  0  0
 25  4  1  0  0  0  0
 26 29  1  0  0  0  0
 26  6  1  0  0  0  0
 27 26  1  0  0  0  0
 28 26  1  0  0  0  0
 30 31  2  0  0  0  0
 30 38  1  0  0  0  0
 31 33  1  0  0  0  0
 32 31  1  0  0  0  0
 33 34  1  0  0  0  0
 33 35  2  0  0  0  0
 35  9  1  0  0  0  0
 36 35  1  0  0  0  0
 36 37  1  0  0  0  0
 38 36  2  0  0  0  0
 39 38  1  0  0  0  0
 40 42  1  0  0  0  0
 40 41  1  0  0  0  0
 43 40  1  0  0  0  0
 44  1  1  0  0  0  0
M  END
$$$$
