CSD_code = ALOCOV | q = 0 | S = 0 | Stoichiometry = C13H16BrN2O3ReS | MND = 6
 OpenBabel04212202003D

 37 38  0  0  0  0  0  0  0  0999 V2000
    0.3916    6.4635    8.2495 Re  0  0  0  0  0  0  0  0  0  0  0  0
    1.2836    5.2019   10.2749 Br  0  0  0  0  0  0  0  0  0  0  0  0
   -4.1764    9.9534   12.9305 S   0  0  0  0  0  0  0  0  0  0  0  0
    2.7377    5.4499    6.5092 O   0  0  0  0  0  1  0  0  0  0  0  0
    1.9837    8.9527    9.1623 O   0  0  0  0  0  1  0  0  0  0  0  0
   -1.0676    7.9185    5.9542 O   0  0  0  0  0  1  0  0  0  0  0  0
   -0.8788    4.7006    8.0292 N   0  0  0  0  0  0  0  0  0  0  0  0
   -1.4298    6.8521    9.6425 N   0  0  0  0  0  4  0  0  0  0  0  0
   -1.1229    6.3925   10.5104 H   0  0  0  0  0  0  0  0  0  0  0  0
   -0.4389    3.5362    7.5546 C   0  0  0  0  0  3  0  0  0  0  0  0
    0.5491    3.5383    7.1133 H   0  0  0  0  0  0  0  0  0  0  0  0
   -1.1769    2.3696    7.6193 C   0  0  0  0  0  0  0  0  0  0  0  0
   -0.7682    1.4535    7.2258 H   0  0  0  0  0  0  0  0  0  0  0  0
   -2.4321    2.4061    8.2050 C   0  0  0  0  0  0  0  0  0  0  0  0
   -3.0356    1.5154    8.2830 H   0  0  0  0  0  0  0  0  0  0  0  0
   -2.8919    3.6143    8.6997 C   0  0  0  0  0  0  0  0  0  0  0  0
   -3.8601    3.6888    9.1702 H   0  0  0  0  0  0  0  0  0  0  0  0
   -2.0902    4.7412    8.5950 C   0  0  0  0  0  0  0  0  0  0  0  0
   -2.5586    6.0790    9.1113 C   0  0  0  0  0  0  0  0  0  0  0  0
   -3.3438    5.9239    9.8618 H   0  0  0  0  0  0  0  0  0  0  0  0
   -2.9911    6.6436    8.2727 H   0  0  0  0  0  0  0  0  0  0  0  0
   -1.7852    8.2318    9.9907 C   0  0  0  0  0  0  0  0  0  0  0  0
   -2.1187    8.7440    9.0823 H   0  0  0  0  0  0  0  0  0  0  0  0
   -0.8720    8.7256   10.3370 H   0  0  0  0  0  0  0  0  0  0  0  0
   -2.8521    8.3462   11.0852 C   0  0  0  0  0  0  0  0  0  0  0  0
   -2.6149    7.6643   11.9065 H   0  0  0  0  0  0  0  0  0  0  0  0
   -3.8343    8.0765   10.6902 H   0  0  0  0  0  0  0  0  0  0  0  0
   -2.9053    9.7640   11.6357 C   0  0  0  0  0  0  0  0  0  0  0  0
   -3.1160   10.4909   10.8511 H   0  0  0  0  0  0  0  0  0  0  0  0
   -1.9629   10.0234   12.1168 H   0  0  0  0  0  0  0  0  0  0  0  0
   -5.6504   10.1828   11.8962 C   0  0  0  0  0  0  0  0  0  0  0  0
   -5.5141   11.0525   11.2595 H   0  0  0  0  0  0  0  0  0  0  0  0
   -6.4800   10.3477   12.5752 H   0  0  0  0  0  0  0  0  0  0  0  0
   -5.8356    9.2937   11.3004 H   0  0  0  0  0  0  0  0  0  0  0  0
    1.8669    5.8655    7.1273 C   0  0  0  0  0  2  0  0  0  0  0  0
    1.4087    8.0437    8.7701 C   0  0  0  0  0  2  0  0  0  0  0  0
   -0.5122    7.3736    6.7993 C   0  0  0  0  0  2  0  0  0  0  0  0
  1 36  1  0  0  0  0
  1  8  1  0  0  0  0
  1  2  1  0  0  0  0
  4 35  1  0  0  0  0
  6 37  1  0  0  0  0
  7  1  1  0  0  0  0
  7 18  1  0  0  0  0
  8 22  1  0  0  0  0
  8  9  1  0  0  0  0
 10 12  1  0  0  0  0
 10  7  1  0  0  0  0
 11 10  1  0  0  0  0
 12 14  2  0  0  0  0
 13 12  1  0  0  0  0
 14 15  1  0  0  0  0
 14 16  1  0  0  0  0
 16 17  1  0  0  0  0
 18 16  2  0  0  0  0
 18 19  1  0  0  0  0
 19  8  1  0  0  0  0
 19 20  1  0  0  0  0
 21 19  1  0  0  0  0
 22 24  1  0  0  0  0
 22 25  1  0  0  0  0
 23 22  1  0  0  0  0
 25 28  1  0  0  0  0
 25 26  1  0  0  0  0
 27 25  1  0  0  0  0
 28 30  1  0  0  0  0
 28  3  1  0  0  0  0
 29 28  1  0  0  0  0
 31 33  1  0  0  0  0
 31  3  1  0  0  0  0
 32 31  1  0  0  0  0
 34 31  1  0  0  0  0
 35  1  1  0  0  0  0
 36  5  1  0  0  0  0
 37  1  1  0  0  0  0
M  END
$$$$
