CSD_code = ALODIQ | q = 0 | S = 0 | Stoichiometry = C17H15CdCl2N3 | MND = 5
 OpenBabel04212202003D

 38 42  0  0  1  0  0  0  0  0999 V2000
    0.6811   11.3257    8.6940 Cd  0  0  0  0  0  0  0  0  0  0  0  0
    2.1867   13.1404    8.5409 Cl  0  0  0  0  0  0  0  0  0  0  0  0
   -1.3563   11.5553    9.8518 Cl  0  0  0  0  0  0  0  0  0  0  0  0
   -0.0931   11.2424    6.4316 N   0  0  0  0  0  0  0  0  0  0  0  0
   -0.5911   12.3246    5.8451 C   0  0  1  0  0  3  0  0  0  0  0  0
   -0.8966   13.4907    6.7157 C   0  0  0  0  0  0  0  0  0  0  0  0
   -1.4859   13.1688    7.5773 H   0  0  0  0  0  0  0  0  0  0  0  0
   -1.4301   14.2652    6.1716 H   0  0  0  0  0  0  0  0  0  0  0  0
    0.0385   13.9031    7.1054 H   0  0  0  0  0  0  0  0  0  0  0  0
   -0.8071   12.3546    4.4641 C   0  0  0  0  0  0  0  0  0  0  0  0
   -1.2153   13.2397    4.0020 H   0  0  0  0  0  0  0  0  0  0  0  0
   -0.4830   11.2466    3.7062 C   0  0  0  0  0  0  0  0  0  0  0  0
   -0.6269   11.2514    2.6357 H   0  0  0  0  0  0  0  0  0  0  0  0
    0.0310   10.1225    4.3354 C   0  0  0  0  0  0  0  0  0  0  0  0
    0.3077    9.2548    3.7589 H   0  0  0  0  0  0  0  0  0  0  0  0
    0.2050   10.1571    5.7161 C   0  0  0  0  0  0  0  0  0  0  0  0
    0.7312    9.0013    6.4726 C   0  0  1  0  0  3  0  0  0  0  0  0
    1.2572    9.2691    7.6618 N   0  0  0  0  0  0  0  0  0  0  0  0
    1.7520    8.3047    8.4286 C   0  0  0  0  0  0  0  0  0  0  0  0
    1.7250    6.9715    8.0148 C   0  0  0  0  0  0  0  0  0  0  0  0
    2.0986    6.1840    8.6485 H   0  0  0  0  0  0  0  0  0  0  0  0
    1.1711    6.6726    6.7818 C   0  0  0  0  0  0  0  0  0  0  0  0
    1.1222    5.6484    6.4425 H   0  0  0  0  0  0  0  0  0  0  0  0
    0.6696    7.6922    5.9911 C   0  0  0  0  0  0  0  0  0  0  0  0
    0.2162    7.4699    5.0391 H   0  0  0  0  0  0  0  0  0  0  0  0
    2.3028    8.7261    9.7340 C   0  0  2  0  0  3  0  0  0  0  0  0
    1.8844    9.9048   10.1969 N   0  0  0  0  0  0  0  0  0  0  0  0
    2.3059   10.3599   11.3709 C   0  0  0  0  0  0  0  0  0  0  0  0
    1.7910   11.6832   11.8124 C   0  0  0  0  0  0  0  0  0  0  0  0
    2.1739   12.4597   11.1440 H   0  0  0  0  0  0  0  0  0  0  0  0
    2.0916   11.9078   12.8320 H   0  0  0  0  0  0  0  0  0  0  0  0
    0.7017   11.7045   11.7335 H   0  0  0  0  0  0  0  0  0  0  0  0
    3.2020    9.6177   12.1461 C   0  0  0  0  0  0  0  0  0  0  0  0
    3.5318    9.9978   13.1002 H   0  0  0  0  0  0  0  0  0  0  0  0
    3.6624    8.4058   11.6705 C   0  0  0  0  0  0  0  0  0  0  0  0
    4.3672    7.8218   12.2439 H   0  0  0  0  0  0  0  0  0  0  0  0
    3.2093    7.9435   10.4439 C   0  0  0  0  0  0  0  0  0  0  0  0
    3.5722    7.0095   10.0467 H   0  0  0  0  0  0  0  0  0  0  0  0
  1  3  1  0  0  0  0
  1 27  1  0  0  0  0
  2  1  1  0  0  0  0
  4  1  1  0  0  0  0
  5  4  1  0  0  0  0
  5  6  1  6  0  0  0
  6  9  1  0  0  0  0
  6  7  1  0  0  0  0
  8  6  1  0  0  0  0
 10  5  1  0  0  0  0
 11 10  1  0  0  0  0
 12 14  1  0  0  0  0
 12 10  2  0  0  0  0
 13 12  1  0  0  0  0
 14 16  2  0  0  0  0
 15 14  1  0  0  0  0
 16  4  1  0  0  0  0
 17 16  1  1  0  0  0
 17 18  1  0  0  0  0
 18 19  1  0  0  0  0
 18  1  1  0  0  0  0
 20 19  2  0  0  0  0
 20 21  1  0  0  0  0
 22 20  1  0  0  0  0
 23 22  1  0  0  0  0
 24 17  1  0  0  0  0
 24 22  2  0  0  0  0
 25 24  1  0  0  0  0
 26 19  1  6  0  0  0
 26 27  1  0  0  0  0
 26 37  1  0  0  0  0
 27 28  1  0  0  0  0
 28 29  1  0  0  0  0
 28 33  2  0  0  0  0
 29 31  1  0  0  0  0
 30 29  1  0  0  0  0
 32 29  1  0  0  0  0
 33 34  1  0  0  0  0
 35 33  1  0  0  0  0
 35 36  1  0  0  0  0
 37 35  2  0  0  0  0
 38 37  1  0  0  0  0
M  END
$$$$
