CSD_code = ALOLAO | q = 0 | S = 0 | Stoichiometry = C48H43ClN2O2Ru | MND = 5
 OpenBabel04212202003D

 97105  0  0  1  0  0  0  0  0999 V2000
    4.9755    0.6446    6.6106 Ru  0  0  1  0  0  0  0  0  0  0  0  0
    3.4800   -0.7592    7.6613 Cl  0  0  0  0  0  0  0  0  0  0  0  0
    4.4965    2.1001    7.8739 C   0  0  1  0  0  3  0  0  0  0  0  0
    6.5756    0.0329    7.4077 C   0  0  0  0  0  3  0  0  0  0  0  0
    7.0344    0.3763    8.3354 H   0  0  0  0  0  0  0  0  0  0  0  0
    3.3471    2.7148    7.5850 N   0  0  0  0  0  0  0  0  0  0  0  0
    7.5323   -2.4189    4.7678 C   0  0  0  0  0  0  0  0  0  0  0  0
    8.4785   -1.5255    7.2501 C   0  0  0  0  0  0  0  0  0  0  0  0
    8.8432   -1.1490    8.1944 H   0  0  0  0  0  0  0  0  0  0  0  0
    2.5843    2.4141    6.4260 C   0  0  0  0  0  0  0  0  0  0  0  0
    5.9646    1.2901   10.7446 C   0  0  0  0  0  0  0  0  0  0  0  0
    7.2869   -0.9931    6.7334 C   0  0  0  0  0  0  0  0  0  0  0  0
    6.1246    2.2309    9.7276 C   0  0  0  0  0  0  0  0  0  0  0  0
    9.1580   -2.5127    6.5724 C   0  0  0  0  0  0  0  0  0  0  0  0
   10.0622   -2.9355    6.9837 H   0  0  0  0  0  0  0  0  0  0  0  0
    2.9492    2.9651    5.2133 C   0  0  0  0  0  0  0  0  0  0  0  0
    7.2465   -2.8439    3.3802 C   0  0  0  0  0  0  0  0  0  0  0  0
    4.1553    3.8215    5.1254 C   0  0  0  0  0  0  0  0  0  0  0  0
    4.9949    2.6476    8.9772 N   0  0  0  0  0  0  0  0  0  0  0  0
    8.4588    2.4061   10.2157 C   0  0  0  0  0  0  0  0  0  0  0  0
    9.4325    2.8226   10.0008 H   0  0  0  0  0  0  0  0  0  0  0  0
    7.0764    0.9388   11.4982 C   0  0  0  0  0  0  0  0  0  0  0  0
    6.9651    0.2076   12.2860 H   0  0  0  0  0  0  0  0  0  0  0  0
    4.1686    3.7396    9.4922 C   0  0  0  0  0  0  0  0  0  0  0  0
    4.7482    4.6672    9.5189 H   0  0  0  0  0  0  0  0  0  0  0  0
    3.8358    3.5155   10.5096 H   0  0  0  0  0  0  0  0  0  0  0  0
    1.4255    1.6208    6.5554 C   0  0  0  0  0  0  0  0  0  0  0  0
    1.1741    1.2216    7.5270 H   0  0  0  0  0  0  0  0  0  0  0  0
    8.3236    1.4928   11.2540 C   0  0  0  0  0  0  0  0  0  0  0  0
    7.5271    3.7067    8.2748 C   0  0  0  0  0  0  0  0  0  0  0  0
    8.5693    3.9759    8.1292 H   0  0  0  0  0  0  0  0  0  0  0  0
    6.9487    4.6197    8.4079 H   0  0  0  0  0  0  0  0  0  0  0  0
    7.1593    3.2072    7.3779 H   0  0  0  0  0  0  0  0  0  0  0  0
    1.0135    1.8624    4.1895 C   0  0  0  0  0  0  0  0  0  0  0  0
    8.6953   -2.9402    5.3403 C   0  0  0  0  0  0  0  0  0  0  0  0
    9.2537   -3.6737    4.7772 H   0  0  0  0  0  0  0  0  0  0  0  0
    6.7901   -1.4864    5.4931 C   0  0  0  0  0  0  0  0  0  0  0  0
    9.5144    1.1137   12.0811 C   0  0  0  0  0  0  0  0  0  0  0  0
    9.2883    0.2694   12.7270 H   0  0  0  0  0  0  0  0  0  0  0  0
    9.8193    1.9534   12.7055 H   0  0  0  0  0  0  0  0  0  0  0  0
   10.3563    0.8524   11.4426 H   0  0  0  0  0  0  0  0  0  0  0  0
    0.6611    1.3509    5.4578 C   0  0  0  0  0  0  0  0  0  0  0  0
   -0.2213    0.7340    5.5440 H   0  0  0  0  0  0  0  0  0  0  0  0
    3.0107    3.8000    8.4918 C   0  0  0  0  0  0  0  0  0  0  0  0
    2.0352    3.6236    8.9565 H   0  0  0  0  0  0  0  0  0  0  0  0
    2.9724    4.7500    7.9470 H   0  0  0  0  0  0  0  0  0  0  0  0
    6.8671   -4.5765    1.7531 C   0  0  0  0  0  0  0  0  0  0  0  0
    6.7181   -5.6208    1.5206 H   0  0  0  0  0  0  0  0  0  0  0  0
    4.6372    0.6407   10.9802 C   0  0  0  0  0  0  0  0  0  0  0  0
    4.2434    0.2539   10.0400 H   0  0  0  0  0  0  0  0  0  0  0  0
    3.9149    1.3490   11.3847 H   0  0  0  0  0  0  0  0  0  0  0  0
    4.7345   -0.1833   11.6810 H   0  0  0  0  0  0  0  0  0  0  0  0
    7.0666   -4.1861    3.0654 C   0  0  0  0  0  0  0  0  0  0  0  0
    7.0746   -4.9231    3.8561 H   0  0  0  0  0  0  0  0  0  0  0  0
    6.8621   -3.6335    0.7395 C   0  0  0  0  0  0  0  0  0  0  0  0
    6.7094   -3.9398   -0.2848 H   0  0  0  0  0  0  0  0  0  0  0  0
    7.0598   -2.2960    1.0416 C   0  0  0  0  0  0  0  0  0  0  0  0
    7.0660   -1.5576    0.2530 H   0  0  0  0  0  0  0  0  0  0  0  0
    2.5131    3.1810    2.7896 C   0  0  0  0  0  0  0  0  0  0  0  0
    3.3954    3.7974    2.6981 H   0  0  0  0  0  0  0  0  0  0  0  0
    7.3738    2.7837    9.4419 C   0  0  0  0  0  0  0  0  0  0  0  0
    2.1672    2.6799    4.0617 C   0  0  0  0  0  0  0  0  0  0  0  0
    0.2490    1.5808    3.0388 C   0  0  0  0  0  0  0  0  0  0  0  0
   -0.6279    0.9574    3.1417 H   0  0  0  0  0  0  0  0  0  0  0  0
    7.2517   -1.9018    2.3530 C   0  0  0  0  0  0  0  0  0  0  0  0
    7.4118   -0.8596    2.5924 H   0  0  0  0  0  0  0  0  0  0  0  0
    1.7506    2.8867    1.6939 C   0  0  0  0  0  0  0  0  0  0  0  0
    2.0242    3.2726    0.7229 H   0  0  0  0  0  0  0  0  0  0  0  0
    0.6088    2.0811    1.8188 C   0  0  0  0  0  0  0  0  0  0  0  0
    0.0177    1.8586    0.9424 H   0  0  0  0  0  0  0  0  0  0  0  0
    5.5998   -0.9228    5.1327 O   0  0  0  0  0  0  0  0  0  0  0  0
    4.6663   -1.5814    4.2746 C   0  0  0  0  0  0  0  0  0  0  0  0
    5.1371   -1.7798    3.3041 H   0  0  0  0  0  0  0  0  0  0  0  0
    4.1874   -2.8864    4.9035 C   0  0  0  0  0  0  0  0  0  0  0  0
    5.0129   -3.5860    5.0137 H   0  0  0  0  0  0  0  0  0  0  0  0
    3.4273   -3.3406    4.2740 H   0  0  0  0  0  0  0  0  0  0  0  0
    3.7637   -2.6879    5.8872 H   0  0  0  0  0  0  0  0  0  0  0  0
    5.2087    6.0232    4.9687 C   0  0  0  0  0  0  0  0  0  0  0  0
    6.4644    5.3798    4.9109 C   0  0  0  0  0  0  0  0  0  0  0  0
    7.3532    5.9880    4.8145 H   0  0  0  0  0  0  0  0  0  0  0  0
    6.5646    4.0247    4.9754 C   0  0  0  0  0  0  0  0  0  0  0  0
    7.5222    3.5262    4.9240 H   0  0  0  0  0  0  0  0  0  0  0  0
    4.0365    5.2263    5.0651 C   0  0  0  0  0  0  0  0  0  0  0  0
    5.0834    7.4245    4.9263 C   0  0  0  0  0  0  0  0  0  0  0  0
    5.9824    8.0208    4.8523 H   0  0  0  0  0  0  0  0  0  0  0  0
    3.5244   -0.5919    4.0765 C   0  0  0  0  0  0  0  0  0  0  0  0
    3.9202    0.3584    3.7155 H   0  0  0  0  0  0  0  0  0  0  0  0
    2.9952   -0.4340    5.0196 H   0  0  0  0  0  0  0  0  0  0  0  0
    2.8139   -0.9703    3.3463 H   0  0  0  0  0  0  0  0  0  0  0  0
    2.7820    5.8756    5.1160 C   0  0  0  0  0  0  0  0  0  0  0  0
    1.8857    5.2746    5.1890 H   0  0  0  0  0  0  0  0  0  0  0  0
    3.8547    8.0235    4.9766 C   0  0  0  0  0  0  0  0  0  0  0  0
    3.7678    9.0996    4.9428 H   0  0  0  0  0  0  0  0  0  0  0  0
    5.5358    1.9024    5.1274 O   0  0  0  0  0  0  0  0  0  0  0  0
    5.4092    3.2027    5.1103 C   0  0  0  0  0  0  0  0  0  0  0  0
    2.6958    7.2388    5.0717 C   0  0  0  0  0  0  0  0  0  0  0  0
    1.7297    7.7217    5.1101 H   0  0  0  0  0  0  0  0  0  0  0  0
  1  4  1  0  0  0  0
  1  2  1  6  0  0  0
  1  3  1  0  0  0  0
  3  6  1  1  0  0  0
  3 19  1  0  0  0  0
  4  5  1  0  0  0  0
  6 44  1  0  0  0  0
  7 35  2  0  0  0  0
  7 37  1  0  0  0  0
  8  9  1  0  0  0  0
 10 27  1  0  0  0  0
 10  6  1  0  0  0  0
 11 49  1  0  0  0  0
 11 22  1  0  0  0  0
 12  8  1  0  0  0  0
 12  4  1  0  0  0  0
 13 11  2  0  0  0  0
 14 15  1  0  0  0  0
 14  8  2  0  0  0  0
 16 10  2  0  0  0  0
 17  7  1  0  0  0  0
 18 16  1  0  0  0  0
 19 24  1  0  0  0  0
 19 13  1  0  0  0  0
 20 29  1  0  0  0  0
 21 20  1  0  0  0  0
 22 23  1  0  0  0  0
 24 25  1  0  0  0  0
 24 26  1  0  0  0  0
 27 28  1  0  0  0  0
 29 22  2  0  0  0  0
 29 38  1  0  0  0  0
 30 32  1  0  0  0  0
 30 61  1  0  0  0  0
 31 30  1  0  0  0  0
 33 30  1  0  0  0  0
 34 42  1  0  0  0  0
 35 14  1  0  0  0  0
 36 35  1  0  0  0  0
 37 12  2  0  0  0  0
 38 40  1  0  0  0  0
 38 39  1  0  0  0  0
 41 38  1  0  0  0  0
 42 43  1  0  0  0  0
 42 27  2  0  0  0  0
 44 45  1  0  0  0  0
 44 24  1  0  0  0  0
 46 44  1  0  0  0  0
 47 53  2  0  0  0  0
 48 47  1  0  0  0  0
 49 51  1  0  0  0  0
 49 52  1  0  0  0  0
 50 49  1  0  0  0  0
 53 17  1  0  0  0  0
 53 54  1  0  0  0  0
 55 57  2  0  0  0  0
 55 47  1  0  0  0  0
 56 55  1  0  0  0  0
 57 65  1  0  0  0  0
 58 57  1  0  0  0  0
 59 62  2  0  0  0  0
 60 59  1  0  0  0  0
 61 13  1  0  0  0  0
 61 20  2  0  0  0  0
 62 34  1  0  0  0  0
 62 16  1  0  0  0  0
 63 64  1  0  0  0  0
 63 34  2  0  0  0  0
 65 66  1  0  0  0  0
 65 17  2  0  0  0  0
 67 69  2  0  0  0  0
 67 59  1  0  0  0  0
 68 67  1  0  0  0  0
 69 63  1  0  0  0  0
 70 69  1  0  0  0  0
 71 37  1  0  0  0  0
 72 74  1  0  0  0  0
 72 71  1  0  0  0  0
 73 72  1  0  0  0  0
 74 75  1  0  0  0  0
 74 77  1  0  0  0  0
 76 74  1  0  0  0  0
 78 83  1  0  0  0  0
 79 78  2  0  0  0  0
 79 81  1  0  0  0  0
 80 79  1  0  0  0  0
 81 95  2  0  0  0  0
 82 81  1  0  0  0  0
 83 90  1  0  0  0  0
 83 18  2  0  0  0  0
 84 78  1  0  0  0  0
 84 92  2  0  0  0  0
 85 84  1  0  0  0  0
 86 72  1  0  0  0  0
 86 88  1  0  0  0  0
 87 86  1  0  0  0  0
 89 86  1  0  0  0  0
 90 91  1  0  0  0  0
 92 96  1  0  0  0  0
 93 92  1  0  0  0  0
 94  1  1  0  0  0  0
 95 18  1  0  0  0  0
 95 94  1  0  0  0  0
 96 97  1  0  0  0  0
 96 90  2  0  0  0  0
M  END
$$$$
