CSD_code = ALOZUX | q = 1 | S = 0 | Stoichiometry = C42H36Cl2NP2Pd(1+) | MND = 4
 OpenBabel04212202003D

 84 90  0  0  1  0  0  0  0  0999 V2000
   12.0907   16.4028    4.0173 C   0  0  0  0  0  0  0  0  0  0  0  0
   11.7518   17.3892    3.0761 C   0  0  0  0  0  0  0  0  0  0  0  0
   10.7150   17.6553    2.9061 H   0  0  0  0  0  0  0  0  0  0  0  0
   12.7145   18.0269    2.3335 C   0  0  1  0  0  3  0  0  0  0  0  0
   14.3911   16.8169    3.4011 C   0  0  0  0  0  0  0  0  0  0  0  0
   15.4505   16.6300    3.4958 H   0  0  0  0  0  0  0  0  0  0  0  0
   13.4717   16.1460    4.1537 C   0  0  0  0  0  0  0  0  0  0  0  0
   13.8234   15.4067    4.8645 H   0  0  0  0  0  0  0  0  0  0  0  0
   15.0274   18.4246    1.6955 C   0  0  0  0  0  0  0  0  0  0  0  0
   14.9666   19.5022    1.8522 H   0  0  0  0  0  0  0  0  0  0  0  0
   14.8645   18.2211    0.6362 H   0  0  0  0  0  0  0  0  0  0  0  0
   16.0185   18.0790    1.9776 H   0  0  0  0  0  0  0  0  0  0  0  0
   10.9473   14.7161    1.6269 C   0  0  0  0  0  0  0  0  0  0  0  0
   10.2598   15.4906    0.7006 C   0  0  0  0  0  0  0  0  0  0  0  0
    9.2074   15.6942    0.8432 H   0  0  0  0  0  0  0  0  0  0  0  0
   10.9212   15.9888   -0.4095 C   0  0  0  0  0  0  0  0  0  0  0  0
   10.3818   16.5816   -1.1331 H   0  0  0  0  0  0  0  0  0  0  0  0
   12.2682   15.7265   -0.5946 C   0  0  0  0  0  0  0  0  0  0  0  0
   12.7792   16.1152   -1.4626 H   0  0  0  0  0  0  0  0  0  0  0  0
   12.9589   14.9543    0.3282 C   0  0  0  0  0  0  0  0  0  0  0  0
   14.0069   14.7391    0.1782 H   0  0  0  0  0  0  0  0  0  0  0  0
   12.3026   14.4540    1.4351 C   0  0  0  0  0  0  0  0  0  0  0  0
   12.8303   13.8490    2.1634 H   0  0  0  0  0  0  0  0  0  0  0  0
    8.4350   14.4477    2.9954 C   0  0  0  0  0  0  0  0  0  0  0  0
    7.9825   15.7019    3.4109 C   0  0  0  0  0  0  0  0  0  0  0  0
    8.6990   16.4243    3.8287 H   0  0  0  0  0  0  0  0  0  0  0  0
    6.6413   16.0179    3.3163 C   0  0  0  0  0  0  0  0  0  0  0  0
    6.2871   16.9855    3.6401 H   0  0  0  0  0  0  0  0  0  0  0  0
    5.7469   15.0821    2.8164 C   0  0  0  0  0  0  0  0  0  0  0  0
    4.6972   15.3246    2.7518 H   0  0  0  0  0  0  0  0  0  0  0  0
    6.1930   13.8337    2.4166 C   0  0  0  0  0  0  0  0  0  0  0  0
    5.4910   13.1038    2.0432 H   0  0  0  0  0  0  0  0  0  0  0  0
    7.5371   13.5102    2.5038 C   0  0  0  0  0  0  0  0  0  0  0  0
    7.8828   12.5295    2.2101 H   0  0  0  0  0  0  0  0  0  0  0  0
   10.5218   12.3759    3.1821 C   0  0  0  0  0  0  0  0  0  0  0  0
   10.3977   11.6421    2.0039 C   0  0  0  0  0  0  0  0  0  0  0  0
   10.1224   12.1404    1.0836 H   0  0  0  0  0  0  0  0  0  0  0  0
   10.6418   10.2819    2.0204 C   0  0  0  0  0  0  0  0  0  0  0  0
   10.5427    9.7075    1.1116 H   0  0  0  0  0  0  0  0  0  0  0  0
   11.0153    9.6552    3.2001 C   0  0  0  0  0  0  0  0  0  0  0  0
   11.2021    8.5922    3.2058 H   0  0  0  0  0  0  0  0  0  0  0  0
   11.1543   10.3880    4.3677 C   0  0  0  0  0  0  0  0  0  0  0  0
   11.4491    9.8967    5.2826 H   0  0  0  0  0  0  0  0  0  0  0  0
   10.9123   11.7500    4.3614 C   0  0  0  0  0  0  0  0  0  0  0  0
   11.0066   12.3365    5.2701 H   0  0  0  0  0  0  0  0  0  0  0  0
   12.5086   17.7126    6.8584 C   0  0  0  0  0  0  0  0  0  0  0  0
   12.3318   18.8553    6.0803 C   0  0  0  0  0  0  0  0  0  0  0  0
   11.3647   19.0369    5.6251 H   0  0  0  0  0  0  0  0  0  0  0  0
   13.3725   19.7446    5.9028 C   0  0  0  0  0  0  0  0  0  0  0  0
   13.2279   20.6349    5.3084 H   0  0  0  0  0  0  0  0  0  0  0  0
   14.6016   19.4958    6.4965 C   0  0  0  0  0  0  0  0  0  0  0  0
   15.4154   20.1921    6.3621 H   0  0  0  0  0  0  0  0  0  0  0  0
   14.7825   18.3611    7.2690 C   0  0  0  0  0  0  0  0  0  0  0  0
   15.7370   18.1737    7.7375 H   0  0  0  0  0  0  0  0  0  0  0  0
   13.7412   17.4654    7.4488 C   0  0  0  0  0  0  0  0  0  0  0  0
   13.8820   16.5807    8.0544 H   0  0  0  0  0  0  0  0  0  0  0  0
    9.7807   17.5381    7.6241 C   0  0  0  0  0  0  0  0  0  0  0  0
    8.4895   17.3868    7.1285 C   0  0  0  0  0  0  0  0  0  0  0  0
    8.3002   16.6669    6.3387 H   0  0  0  0  0  0  0  0  0  0  0  0
    7.4574   18.1376    7.6620 C   0  0  0  0  0  0  0  0  0  0  0  0
    6.4530   18.0157    7.2855 H   0  0  0  0  0  0  0  0  0  0  0  0
    7.7129   19.0417    8.6804 C   0  0  0  0  0  0  0  0  0  0  0  0
    6.9065   19.6248    9.0984 H   0  0  0  0  0  0  0  0  0  0  0  0
    9.0030   19.2057    9.1626 C   0  0  0  0  0  0  0  0  0  0  0  0
    9.1994   19.9177    9.9502 H   0  0  0  0  0  0  0  0  0  0  0  0
   10.0411   18.4603    8.6362 C   0  0  0  0  0  0  0  0  0  0  0  0
   11.0523   18.5960    8.9967 H   0  0  0  0  0  0  0  0  0  0  0  0
   11.6148   15.2907    8.1264 C   0  0  0  0  0  0  0  0  0  0  0  0
   12.2636   14.1721    7.6004 C   0  0  0  0  0  0  0  0  0  0  0  0
   12.4232   14.1010    6.5148 H   0  0  0  0  0  0  0  0  0  0  0  0
   12.6767   13.1560    8.4396 C   0  0  0  0  0  0  0  0  0  0  0  0
   13.1758   12.2871    8.0364 H   0  0  0  0  0  0  0  0  0  0  0  0
   12.4361   13.2479    9.8029 C   0  0  0  0  0  0  0  0  0  0  0  0
   12.7488   12.4490   10.4576 H   0  0  0  0  0  0  0  0  0  0  0  0
   11.7827   14.3521   10.3241 C   0  0  0  0  0  0  0  0  0  0  0  0
   11.5860   14.4121   11.3838 H   0  0  0  0  0  0  0  0  0  0  0  0
   11.3694   15.3778    9.4902 C   0  0  0  0  0  0  0  0  0  0  0  0
   10.8441   16.2317    9.8934 H   0  0  0  0  0  0  0  0  0  0  0  0
   14.0295   17.7475    2.4912 N   0  0  0  0  0  0  0  0  0  0  0  0
   10.2131   14.1550    3.1967 P   0  0  0  0  0  4  0  0  0  0  0  0
   11.1139   16.5444    6.9168 P   0  0  0  0  0  4  0  0  0  0  0  0
   10.7613   15.3973    5.0042 Pd  0  0  0  0  0  0  0  0  0  0  0  0
    9.2237   14.1689    6.1451 Cl  0  0  0  0  0  0  0  0  0  0  0  0
   12.2926   19.1991    1.1514 Cl  0  0  0  0  0  0  0  0  0  0  0  0
  1  7  1  0  0  0  0
  1 82  1  0  0  0  0
  2  1  2  0  0  0  0
  3  2  1  0  0  0  0
  4 84  1  6  0  0  0
  4 79  1  0  0  0  0
  4  2  1  0  0  0  0
  5  6  1  0  0  0  0
  5  7  2  0  0  0  0
  7  8  1  0  0  0  0
  9 10  1  0  0  0  0
  9 12  1  0  0  0  0
  9 79  1  0  0  0  0
 11  9  1  0  0  0  0
 13 80  1  0  0  0  0
 14 15  1  0  0  0  0
 14 13  2  0  0  0  0
 16 14  1  0  0  0  0
 17 16  1  0  0  0  0
 18 16  2  0  0  0  0
 18 20  1  0  0  0  0
 19 18  1  0  0  0  0
 20 22  2  0  0  0  0
 21 20  1  0  0  0  0
 22 13  1  0  0  0  0
 22 23  1  0  0  0  0
 24 80  1  0  0  0  0
 24 25  1  0  0  0  0
 25 26  1  0  0  0  0
 27 25  2  0  0  0  0
 27 28  1  0  0  0  0
 29 27  1  0  0  0  0
 30 29  1  0  0  0  0
 31 33  1  0  0  0  0
 31 29  2  0  0  0  0
 32 31  1  0  0  0  0
 33 24  2  0  0  0  0
 34 33  1  0  0  0  0
 35 80  1  0  0  0  0
 35 44  1  0  0  0  0
 36 38  1  0  0  0  0
 36 35  2  0  0  0  0
 37 36  1  0  0  0  0
 38 40  2  0  0  0  0
 39 38  1  0  0  0  0
 40 41  1  0  0  0  0
 40 42  1  0  0  0  0
 42 43  1  0  0  0  0
 44 42  2  0  0  0  0
 44 45  1  0  0  0  0
 46 81  1  0  0  0  0
 46 55  1  0  0  0  0
 47 46  2  0  0  0  0
 48 47  1  0  0  0  0
 49 47  1  0  0  0  0
 49 51  2  0  0  0  0
 50 49  1  0  0  0  0
 51 53  1  0  0  0  0
 52 51  1  0  0  0  0
 53 55  2  0  0  0  0
 53 54  1  0  0  0  0
 55 56  1  0  0  0  0
 57 66  1  0  0  0  0
 58 57  2  0  0  0  0
 58 60  1  0  0  0  0
 59 58  1  0  0  0  0
 60 62  2  0  0  0  0
 61 60  1  0  0  0  0
 62 63  1  0  0  0  0
 62 64  1  0  0  0  0
 64 65  1  0  0  0  0
 66 67  1  0  0  0  0
 66 64  2  0  0  0  0
 68 77  1  0  0  0  0
 69 68  2  0  0  0  0
 69 71  1  0  0  0  0
 70 69  1  0  0  0  0
 71 73  2  0  0  0  0
 72 71  1  0  0  0  0
 73 75  1  0  0  0  0
 73 74  1  0  0  0  0
 75 76  1  0  0  0  0
 77 78  1  0  0  0  0
 77 75  2  0  0  0  0
 79  5  1  0  0  0  0
 80 82  1  0  0  0  0
 81 57  1  0  0  0  0
 81 68  1  0  0  0  0
 82 83  1  0  0  0  0
 82 81  1  0  0  0  0
M  END
$$$$
