CSD_code = ALUVIN | q = 0 | S = 0 | Stoichiometry = C12H4Cl8CrN2 | MND = 4
 OpenBabel04212202003D

 27 28  0  0  0  0  0  0  0  0999 V2000
    6.6989    2.1139    3.6299 Cr  0  0  0  0  0  0  0  0  0  0  0  0
    5.9044    2.9722    4.8055 N   0  0  0  0  0  2  0  0  0  0  0  0
    3.1108    3.0465    5.8060 Cl  0  0  0  0  0  0  0  0  0  0  0  0
    4.7440    7.5949    8.1629 Cl  0  0  0  0  0  0  0  0  0  0  0  0
    8.1080    4.7319    5.0622 Cl  0  0  0  0  0  0  0  0  0  0  0  0
    8.1159    0.9172    4.5804 Cl  0  0  0  0  0  0  0  0  0  0  0  0
    5.5986    4.0093    5.5606 C   0  0  0  0  0  0  0  0  0  0  0  0
    4.3258    4.2087    6.1386 C   0  0  0  0  0  0  0  0  0  0  0  0
    4.0623    5.3067    6.9332 C   0  0  0  0  0  0  0  0  0  0  0  0
    3.0830    5.4382    7.3640 H   0  0  0  0  0  0  0  0  0  0  0  0
    5.0695    6.2340    7.1696 C   0  0  0  0  0  0  0  0  0  0  0  0
    6.3358    6.0870    6.6115 C   0  0  0  0  0  0  0  0  0  0  0  0
    7.1077    6.8164    6.7926 H   0  0  0  0  0  0  0  0  0  0  0  0
    6.5866    4.9940    5.8121 C   0  0  0  0  0  0  0  0  0  0  0  0
    7.4921    2.9725    2.4539 N   0  0  0  0  0  2  0  0  0  0  0  0
   10.2850    3.0455    1.4509 Cl  0  0  0  0  0  0  0  0  0  0  0  0
    8.6519    7.5949   -0.9041 Cl  0  0  0  0  0  0  0  0  0  0  0  0
    5.2892    4.7329    2.1991 Cl  0  0  0  0  0  0  0  0  0  0  0  0
    5.2821    0.9170    2.6796 Cl  0  0  0  0  0  0  0  0  0  0  0  0
    7.7978    4.0096    1.6987 C   0  0  0  0  0  0  0  0  0  0  0  0
    9.0702    4.2084    1.1196 C   0  0  0  0  0  0  0  0  0  0  0  0
    9.3335    5.3063    0.3250 C   0  0  0  0  0  0  0  0  0  0  0  0
   10.3125    5.4373   -0.1067 H   0  0  0  0  0  0  0  0  0  0  0  0
    8.3266    6.2341    0.0896 C   0  0  0  0  0  0  0  0  0  0  0  0
    7.0607    6.0876    0.6488 C   0  0  0  0  0  0  0  0  0  0  0  0
    6.2890    6.8172    0.4681 H   0  0  0  0  0  0  0  0  0  0  0  0
    6.8101    4.9946    1.4482 C   0  0  0  0  0  0  0  0  0  0  0  0
  1  6  1  0  0  0  0
  1  2  1  0  0  0  0
  2  7  1  0  0  0  0
  3  8  1  0  0  0  0
  5 14  1  0  0  0  0
  7 14  2  0  0  0  0
  7  8  1  0  0  0  0
  8  9  2  0  0  0  0
  9 11  1  0  0  0  0
  9 10  1  0  0  0  0
 11  4  1  0  0  0  0
 12 13  1  0  0  0  0
 12 11  2  0  0  0  0
 14 12  1  0  0  0  0
 15  1  1  0  0  0  0
 17 24  1  0  0  0  0
 19  1  1  0  0  0  0
 20 15  1  0  0  0  0
 21 16  1  0  0  0  0
 21 20  2  0  0  0  0
 22 21  1  0  0  0  0
 23 22  1  0  0  0  0
 24 22  2  0  0  0  0
 24 25  1  0  0  0  0
 25 27  2  0  0  0  0
 26 25  1  0  0  0  0
 27 20  1  0  0  0  0
 27 18  1  0  0  0  0
M  END
$$$$
