CSD_code = AMASOX | q = 0 | S = 0 | Stoichiometry = C32H24Cl2N2Pt | MND = 4
 OpenBabel04212202003D

 61 67  0  0  0  0  0  0  0  0999 V2000
   -3.6738    1.7039    6.1257 Pt  0  0  0  0  0  0  0  0  0  0  0  0
   -2.2360    0.1220    6.7997 Cl  0  0  0  0  0  0  0  0  0  0  0  0
   -2.4811    3.1942    6.7160 N   0  0  0  0  0  0  0  0  0  0  0  0
   -3.1725    4.4704    6.7028 C   0  0  0  0  0  0  0  0  0  0  0  0
   -2.4686    5.3057    6.6092 H   0  0  0  0  0  0  0  0  0  0  0  0
   -3.7153    4.5819    7.6489 H   0  0  0  0  0  0  0  0  0  0  0  0
   -1.2566    3.1092    7.0675 C   0  0  0  0  0  3  0  0  0  0  0  0
   -0.8200    2.1124    7.0282 H   0  0  0  0  0  0  0  0  0  0  0  0
   -0.3975    4.2133    7.5074 C   0  0  0  0  0  0  0  0  0  0  0  0
   -0.6495    4.8807    8.7176 C   0  0  0  0  0  0  0  0  0  0  0  0
   -1.6903    4.4869    9.5980 C   0  0  0  0  0  0  0  0  0  0  0  0
   -2.2844    3.6197    9.3484 H   0  0  0  0  0  0  0  0  0  0  0  0
   -1.9148    5.1595   10.7609 C   0  0  0  0  0  0  0  0  0  0  0  0
   -2.7075    4.8476   11.4244 H   0  0  0  0  0  0  0  0  0  0  0  0
   -1.1088    6.2590   11.1221 C   0  0  0  0  0  0  0  0  0  0  0  0
   -1.3084    6.7780   12.0478 H   0  0  0  0  0  0  0  0  0  0  0  0
   -0.0766    6.6428   10.3229 C   0  0  0  0  0  0  0  0  0  0  0  0
    0.5652    7.4653   10.6039 H   0  0  0  0  0  0  0  0  0  0  0  0
    0.1971    5.9651    9.1069 C   0  0  0  0  0  0  0  0  0  0  0  0
    1.2709    6.3219    8.2966 C   0  0  0  0  0  0  0  0  0  0  0  0
    1.9052    7.1451    8.5942 H   0  0  0  0  0  0  0  0  0  0  0  0
    1.5537    5.6380    7.1173 C   0  0  0  0  0  0  0  0  0  0  0  0
    2.6574    5.9856    6.2972 C   0  0  0  0  0  0  0  0  0  0  0  0
    3.2941    6.7985    6.6151 H   0  0  0  0  0  0  0  0  0  0  0  0
    2.9087    5.3135    5.1407 C   0  0  0  0  0  0  0  0  0  0  0  0
    3.7529    5.5817    4.5232 H   0  0  0  0  0  0  0  0  0  0  0  0
    2.0655    4.2590    4.7337 C   0  0  0  0  0  0  0  0  0  0  0  0
    2.2807    3.7384    3.8126 H   0  0  0  0  0  0  0  0  0  0  0  0
    0.9912    3.8984    5.4895 C   0  0  0  0  0  0  0  0  0  0  0  0
    0.3454    3.0933    5.1716 H   0  0  0  0  0  0  0  0  0  0  0  0
    0.7064    4.5620    6.7104 C   0  0  0  0  0  0  0  0  0  0  0  0
   -5.1105    0.1208    5.4478 Cl  0  0  0  0  0  0  0  0  0  0  0  0
   -4.8652    3.1941    5.5318 N   0  0  0  0  0  0  0  0  0  0  0  0
   -4.1737    4.4703    5.5447 C   0  0  0  0  0  0  0  0  0  0  0  0
   -4.8776    5.3056    5.6383 H   0  0  0  0  0  0  0  0  0  0  0  0
   -3.6309    4.5818    4.5986 H   0  0  0  0  0  0  0  0  0  0  0  0
   -6.0898    3.1093    5.1803 C   0  0  0  0  0  3  0  0  0  0  0  0
   -6.5264    2.1125    5.2192 H   0  0  0  0  0  0  0  0  0  0  0  0
   -6.9488    4.2134    4.7403 C   0  0  0  0  0  0  0  0  0  0  0  0
   -6.6967    4.8809    3.5301 C   0  0  0  0  0  0  0  0  0  0  0  0
   -5.6561    4.4870    2.6496 C   0  0  0  0  0  0  0  0  0  0  0  0
   -5.0620    3.6199    2.8992 H   0  0  0  0  0  0  0  0  0  0  0  0
   -5.4317    5.1596    1.4867 C   0  0  0  0  0  0  0  0  0  0  0  0
   -4.6388    4.8478    0.8233 H   0  0  0  0  0  0  0  0  0  0  0  0
   -6.2379    6.2590    1.1254 C   0  0  0  0  0  0  0  0  0  0  0  0
   -6.0380    6.7782    0.1999 H   0  0  0  0  0  0  0  0  0  0  0  0
   -7.2701    6.6427    1.9247 C   0  0  0  0  0  0  0  0  0  0  0  0
   -7.9117    7.4654    1.6438 H   0  0  0  0  0  0  0  0  0  0  0  0
   -7.5435    5.9651    3.1408 C   0  0  0  0  0  0  0  0  0  0  0  0
   -8.6173    6.3220    3.9511 C   0  0  0  0  0  0  0  0  0  0  0  0
   -9.2517    7.1451    3.6535 H   0  0  0  0  0  0  0  0  0  0  0  0
   -8.9000    5.6380    5.1304 C   0  0  0  0  0  0  0  0  0  0  0  0
  -10.0038    5.9856    5.9506 C   0  0  0  0  0  0  0  0  0  0  0  0
  -10.6404    6.7985    5.6327 H   0  0  0  0  0  0  0  0  0  0  0  0
  -10.2550    5.3135    7.1071 C   0  0  0  0  0  0  0  0  0  0  0  0
  -11.0991    5.5818    7.7247 H   0  0  0  0  0  0  0  0  0  0  0  0
   -9.4118    4.2589    7.5140 C   0  0  0  0  0  0  0  0  0  0  0  0
   -9.6268    3.7384    8.4351 H   0  0  0  0  0  0  0  0  0  0  0  0
   -8.3375    3.8984    6.7581 C   0  0  0  0  0  0  0  0  0  0  0  0
   -7.6917    3.0933    7.0760 H   0  0  0  0  0  0  0  0  0  0  0  0
   -8.0527    4.5620    5.5373 C   0  0  0  0  0  0  0  0  0  0  0  0
  1  3  1  0  0  0  0
  1  2  1  0  0  0  0
  3  7  1  0  0  0  0
  4  3  1  0  0  0  0
  4  6  1  0  0  0  0
  5  4  1  0  0  0  0
  7  9  1  0  0  0  0
  8  7  1  0  0  0  0
  9 10  1  0  0  0  0
 10 19  2  0  0  0  0
 10 11  1  0  0  0  0
 11 13  2  0  0  0  0
 12 11  1  0  0  0  0
 13 15  1  0  0  0  0
 13 14  1  0  0  0  0
 15 16  1  0  0  0  0
 17 18  1  0  0  0  0
 17 15  2  0  0  0  0
 19 17  1  0  0  0  0
 20 21  1  0  0  0  0
 20 19  1  0  0  0  0
 22 20  2  0  0  0  0
 23 24  1  0  0  0  0
 23 22  1  0  0  0  0
 25 23  2  0  0  0  0
 26 25  1  0  0  0  0
 27 25  1  0  0  0  0
 27 29  2  0  0  0  0
 28 27  1  0  0  0  0
 29 31  1  0  0  0  0
 30 29  1  0  0  0  0
 31 22  1  0  0  0  0
 31  9  2  0  0  0  0
 32  1  1  0  0  0  0
 33 34  1  0  0  0  0
 33  1  1  0  0  0  0
 34 35  1  0  0  0  0
 34  4  1  0  0  0  0
 36 34  1  0  0  0  0
 37 38  1  0  0  0  0
 37 33  1  0  0  0  0
 39 37  1  0  0  0  0
 39 61  1  0  0  0  0
 40 39  2  0  0  0  0
 41 42  1  0  0  0  0
 41 40  1  0  0  0  0
 43 41  2  0  0  0  0
 44 43  1  0  0  0  0
 45 43  1  0  0  0  0
 45 47  2  0  0  0  0
 46 45  1  0  0  0  0
 47 49  1  0  0  0  0
 48 47  1  0  0  0  0
 49 40  1  0  0  0  0
 49 50  2  0  0  0  0
 50 52  1  0  0  0  0
 51 50  1  0  0  0  0
 52 61  2  0  0  0  0
 52 53  1  0  0  0  0
 53 55  2  0  0  0  0
 54 53  1  0  0  0  0
 55 57  1  0  0  0  0
 55 56  1  0  0  0  0
 57 58  1  0  0  0  0
 59 60  1  0  0  0  0
 59 57  2  0  0  0  0
 61 59  1  0  0  0  0
M  END
$$$$
