CSD_code = AMAXUH | q = 0 | S = 0 | Stoichiometry = C26H27Br2N2PPd | MND = 4
 OpenBabel04212202003D

 59 63  0  0  0  0  0  0  0  0999 V2000
   -0.7249   -0.1096    2.6790 C   0  0  0  0  0  0  0  0  0  0  0  0
   -2.0954   -1.5982    1.7544 C   0  0  0  0  0  0  0  0  0  0  0  0
   -2.8339   -1.9686    1.0736 H   0  0  0  0  0  0  0  0  0  0  0  0
   -1.4285   -2.2153    2.7566 C   0  0  0  0  0  0  0  0  0  0  0  0
   -1.4960   -3.2180    3.1251 H   0  0  0  0  0  0  0  0  0  0  0  0
   -2.1404    0.7445    0.8615 C   0  0  0  0  0  0  0  0  0  0  0  0
   -2.7118    0.2875    0.0487 H   0  0  0  0  0  0  0  0  0  0  0  0
   -1.2880    1.2866    0.4282 H   0  0  0  0  0  0  0  0  0  0  0  0
   -3.0150    1.7133    1.6629 C   0  0  0  0  0  0  0  0  0  0  0  0
   -3.7766    1.1532    2.2143 H   0  0  0  0  0  0  0  0  0  0  0  0
   -3.5070    2.4073    0.9770 H   0  0  0  0  0  0  0  0  0  0  0  0
   -1.4300    4.0342    1.7822 C   0  0  0  0  0  0  0  0  0  0  0  0
   -0.2188    3.8888    1.1046 C   0  0  0  0  0  0  0  0  0  0  0  0
    0.4103    3.0025    1.2689 H   0  0  0  0  0  0  0  0  0  0  0  0
    0.2218    4.8831    0.2519 C   0  0  0  0  0  0  0  0  0  0  0  0
    1.1644    4.7703   -0.2625 H   0  0  0  0  0  0  0  0  0  0  0  0
   -0.5360    6.0301    0.0769 C   0  0  0  0  0  0  0  0  0  0  0  0
   -0.1851    6.8126   -0.5790 H   0  0  0  0  0  0  0  0  0  0  0  0
   -1.7325    6.1825    0.7570 C   0  0  0  0  0  0  0  0  0  0  0  0
   -2.3146    7.0839    0.6333 H   0  0  0  0  0  0  0  0  0  0  0  0
   -2.1835    5.1887    1.6077 C   0  0  0  0  0  0  0  0  0  0  0  0
   -3.1080    5.3198    2.1522 H   0  0  0  0  0  0  0  0  0  0  0  0
   -3.1930    3.3728    3.9962 C   0  0  0  0  0  0  0  0  0  0  0  0
   -4.4994    3.6423    3.5928 C   0  0  0  0  0  0  0  0  0  0  0  0
   -4.8154    3.4419    2.5794 H   0  0  0  0  0  0  0  0  0  0  0  0
   -5.4037    4.1756    4.4926 C   0  0  0  0  0  0  0  0  0  0  0  0
   -6.4137    4.3870    4.1722 H   0  0  0  0  0  0  0  0  0  0  0  0
   -5.0195    4.4410    5.7972 C   0  0  0  0  0  0  0  0  0  0  0  0
   -5.7311    4.8596    6.4931 H   0  0  0  0  0  0  0  0  0  0  0  0
   -3.7247    4.1684    6.2045 C   0  0  0  0  0  0  0  0  0  0  0  0
   -3.4194    4.3733    7.2193 H   0  0  0  0  0  0  0  0  0  0  0  0
   -2.8154    3.6335    5.3101 C   0  0  0  0  0  0  0  0  0  0  0  0
   -1.8014    3.4321    5.6267 H   0  0  0  0  0  0  0  0  0  0  0  0
    0.3268   -1.5569    4.3734 C   0  0  0  0  0  0  0  0  0  0  0  0
    1.3877   -2.4335    4.1256 C   0  0  0  0  0  0  0  0  0  0  0  0
    2.2724   -2.7036    5.1549 C   0  0  0  0  0  0  0  0  0  0  0  0
    3.1037   -3.3672    4.9688 H   0  0  0  0  0  0  0  0  0  0  0  0
    2.1369   -2.1170    6.4060 C   0  0  0  0  0  0  0  0  0  0  0  0
    1.0870   -1.2386    6.6173 C   0  0  0  0  0  0  0  0  0  0  0  0
    0.9826   -0.7545    7.5773 H   0  0  0  0  0  0  0  0  0  0  0  0
    0.1713   -0.9416    5.6164 C   0  0  0  0  0  0  0  0  0  0  0  0
   -0.9168    0.0573    5.8923 C   0  0  0  0  0  0  0  0  0  0  0  0
   -1.8160   -0.1311    5.2995 H   0  0  0  0  0  0  0  0  0  0  0  0
   -0.5372    1.0751    5.6729 H   0  0  0  0  0  0  0  0  0  0  0  0
   -1.1865    0.0397    6.9462 H   0  0  0  0  0  0  0  0  0  0  0  0
    3.1329   -2.3922    7.4882 C   0  0  0  0  0  0  0  0  0  0  0  0
    3.9581   -1.6845    7.4090 H   0  0  0  0  0  0  0  0  0  0  0  0
    3.5405   -3.3961    7.3963 H   0  0  0  0  0  0  0  0  0  0  0  0
    2.6833   -2.2775    8.4716 H   0  0  0  0  0  0  0  0  0  0  0  0
    1.6165   -2.9997    2.7578 C   0  0  0  0  0  0  0  0  0  0  0  0
    1.7283   -2.1834    2.0444 H   0  0  0  0  0  0  0  0  0  0  0  0
    0.7930   -3.6329    2.4308 H   0  0  0  0  0  0  0  0  0  0  0  0
    2.5292   -3.5876    2.7448 H   0  0  0  0  0  0  0  0  0  0  0  0
   -0.5908   -1.2849    3.3164 N   0  0  0  0  0  0  0  0  0  0  0  0
   -1.6441   -0.3036    1.7159 N   0  0  0  0  0  0  0  0  0  0  0  0
   -1.9522    2.6655    2.8710 P   0  0  0  0  0  4  0  0  0  0  0  0
    2.2716    0.8078    3.0178 Br  0  0  0  0  0  0  0  0  0  0  0  0
    0.7177    3.6368    4.4608 Br  0  0  0  0  0  0  0  0  0  0  0  0
    0.0103    1.6132    3.3240 Pd  0  0  0  0  0  0  0  0  0  0  0  0
  1 54  1  0  0  0  0
  1 59  2  0  0  0  0
  2  4  2  0  0  0  0
  3  2  1  0  0  0  0
  4  5  1  0  0  0  0
  4 54  1  0  0  0  0
  6  9  1  0  0  0  0
  6 55  1  0  0  0  0
  7  6  1  0  0  0  0
  8  6  1  0  0  0  0
  9 10  1  0  0  0  0
  9 56  1  0  0  0  0
 11  9  1  0  0  0  0
 12 56  1  0  0  0  0
 13 14  1  0  0  0  0
 13 12  2  0  0  0  0
 15 13  1  0  0  0  0
 16 15  1  0  0  0  0
 17 15  2  0  0  0  0
 17 19  1  0  0  0  0
 18 17  1  0  0  0  0
 19 21  2  0  0  0  0
 20 19  1  0  0  0  0
 21 12  1  0  0  0  0
 21 22  1  0  0  0  0
 23 32  1  0  0  0  0
 24 23  2  0  0  0  0
 24 26  1  0  0  0  0
 25 24  1  0  0  0  0
 26 28  2  0  0  0  0
 27 26  1  0  0  0  0
 28 30  1  0  0  0  0
 28 29  1  0  0  0  0
 30 31  1  0  0  0  0
 32 33  1  0  0  0  0
 32 30  2  0  0  0  0
 34 41  1  0  0  0  0
 35 34  2  0  0  0  0
 35 36  1  0  0  0  0
 36 38  2  0  0  0  0
 37 36  1  0  0  0  0
 38 39  1  0  0  0  0
 38 46  1  0  0  0  0
 39 40  1  0  0  0  0
 41 42  1  0  0  0  0
 41 39  2  0  0  0  0
 42 45  1  0  0  0  0
 43 42  1  0  0  0  0
 44 42  1  0  0  0  0
 46 49  1  0  0  0  0
 47 46  1  0  0  0  0
 48 46  1  0  0  0  0
 50 35  1  0  0  0  0
 51 50  1  0  0  0  0
 52 50  1  0  0  0  0
 53 50  1  0  0  0  0
 54 34  1  0  0  0  0
 55  2  1  0  0  0  0
 55  1  1  0  0  0  0
 56 59  1  0  0  0  0
 56 23  1  0  0  0  0
 57 59  1  0  0  0  0
 59 58  1  0  0  0  0
M  END
$$$$
