CSD_code = AMEBEB | q = 0 | S = 0 | Stoichiometry = C15H14AuClN4 | MND = 2
 OpenBabel04212202003D

 35 37  0  0  1  0  0  0  0  0999 V2000
    3.4625    5.6153    4.5402 Au  0  0  0  0  0  0  0  0  0  0  0  0
    4.6838    3.9686    5.4488 Cl  0  0  0  0  0  0  0  0  0  0  0  0
    2.2925    7.0730    3.8135 C   0  0  2  0  0  3  0  0  0  0  0  0
    2.0051    8.2384    4.4255 N   0  0  0  0  0  0  0  0  0  0  0  0
    1.5353    7.0523    2.7035 N   0  0  0  0  0  0  0  0  0  0  0  0
    1.0786    8.9399    3.7052 C   0  0  0  0  0  0  0  0  0  0  0  0
    0.7098    9.8962    4.0144 H   0  0  0  0  0  0  0  0  0  0  0  0
    0.7818    8.1914    2.6164 C   0  0  0  0  0  0  0  0  0  0  0  0
    0.1080    8.3744    1.8053 H   0  0  0  0  0  0  0  0  0  0  0  0
    1.5086    5.9927    1.7359 C   0  0  0  0  0  0  0  0  0  0  0  0
    2.1957    5.2115    2.0582 H   0  0  0  0  0  0  0  0  0  0  0  0
    1.8160    6.3646    0.7573 H   0  0  0  0  0  0  0  0  0  0  0  0
    0.5028    5.5772    1.6567 H   0  0  0  0  0  0  0  0  0  0  0  0
    2.6048    8.6878    5.6606 C   0  0  0  0  0  0  0  0  0  0  0  0
    2.0760    9.5931    5.9778 H   0  0  0  0  0  0  0  0  0  0  0  0
    3.6542    8.9460    5.4805 H   0  0  0  0  0  0  0  0  0  0  0  0
    2.5308    7.6389    6.7395 C   0  0  0  0  0  0  0  0  0  0  0  0
    3.6436    7.3228    7.5151 C   0  0  0  0  0  0  0  0  0  0  0  0
    4.5818    7.8454    7.3742 H   0  0  0  0  0  0  0  0  0  0  0  0
    1.3492    6.9516    7.0051 C   0  0  0  0  0  0  0  0  0  0  0  0
    0.4501    7.1757    6.4457 H   0  0  0  0  0  0  0  0  0  0  0  0
    1.3481    5.9643    7.9683 C   0  0  0  0  0  0  0  0  0  0  0  0
    0.4667    5.3893    8.1994 H   0  0  0  0  0  0  0  0  0  0  0  0
    2.5348    5.6943    8.6541 C   0  0  0  0  0  0  0  0  0  0  0  0
    2.6016    4.6072    9.6372 C   0  0  0  0  0  0  0  0  0  0  0  0
    3.8360    4.1487   10.0980 C   0  0  0  0  0  0  0  0  0  0  0  0
    4.7369    4.6067    9.7251 H   0  0  0  0  0  0  0  0  0  0  0  0
    3.8564    3.1065   11.0065 C   0  0  0  0  0  0  0  0  0  0  0  0
    4.7944    2.7213   11.3800 H   0  0  0  0  0  0  0  0  0  0  0  0
    2.6521    2.5613   11.4260 C   0  0  0  0  0  0  0  0  0  0  0  0
    2.6220    1.7467   12.1332 H   0  0  0  0  0  0  0  0  0  0  0  0
    1.4784    3.0888   10.9063 C   0  0  0  0  0  0  0  0  0  0  0  0
    0.5122    2.6969   11.1996 H   0  0  0  0  0  0  0  0  0  0  0  0
    3.6471    6.3918    8.4412 N   0  0  0  0  0  0  0  0  0  0  0  0
    1.4455    4.0801   10.0378 N   0  0  0  0  0  0  0  0  0  0  0  0
  1  2  1  0  0  0  0
  3  4  1  0  0  0  0
  3  1  1  1  0  0  0
  4 14  1  0  0  0  0
  5  3  1  0  0  0  0
  6  7  1  0  0  0  0
  6  4  1  0  0  0  0
  8  5  1  0  0  0  0
  8  6  2  0  0  0  0
  9  8  1  0  0  0  0
 10 11  1  0  0  0  0
 10  5  1  0  0  0  0
 12 10  1  0  0  0  0
 13 10  1  0  0  0  0
 14 15  1  0  0  0  0
 14 17  1  0  0  0  0
 16 14  1  0  0  0  0
 17 20  2  0  0  0  0
 17 18  1  0  0  0  0
 18 34  2  0  0  0  0
 19 18  1  0  0  0  0
 20 22  1  0  0  0  0
 21 20  1  0  0  0  0
 22 23  1  0  0  0  0
 22 24  2  0  0  0  0
 24 25  1  0  0  0  0
 25 35  2  0  0  0  0
 25 26  1  0  0  0  0
 26 28  2  0  0  0  0
 27 26  1  0  0  0  0
 28 29  1  0  0  0  0
 28 30  1  0  0  0  0
 30 31  1  0  0  0  0
 32 33  1  0  0  0  0
 32 30  2  0  0  0  0
 34 24  1  0  0  0  0
 35 32  1  0  0  0  0
M  END
$$$$
