CSD_code = AMEBEA | q = 0 | S = 0 | Stoichiometry = C29H28BrIrN2 | MND = 6
 OpenBabel04212202003D

 61 64  0  0  1  0  0  0  0  0999 V2000
    1.0122    1.0927    3.9219 Ir  0  0  0  0  0  0  0  0  0  0  0  0
    3.1884    1.8718    3.0187 Br  0  0  0  0  0 15  0  0  0  0  0  0
    2.0200   -1.6375    3.5674 N   0  0  0  0  0  0  0  0  0  0  0  0
    2.5079   -2.8413    3.8516 N   0  0  0  0  0  2  0  0  0  0  0  0
    1.9198   -0.5951    4.4156 C   0  0  0  0  0  0  0  0  0  0  0  0
    2.9968   -3.0727    5.0200 C   0  0  0  0  0  0  0  0  0  0  0  0
    3.3597   -4.0758    5.1902 H   0  0  0  0  0  0  0  0  0  0  0  0
    3.0864   -2.0711    6.0303 C   0  0  0  0  0  0  0  0  0  0  0  0
    3.6900   -2.2796    7.2746 C   0  0  0  0  0  0  0  0  0  0  0  0
    4.1041   -3.2512    7.5019 H   0  0  0  0  0  0  0  0  0  0  0  0
    3.7594   -1.2500    8.1832 C   0  0  0  0  0  0  0  0  0  0  0  0
    4.2257   -1.4064    9.1445 H   0  0  0  0  0  0  0  0  0  0  0  0
    3.2390    0.0058    7.8632 C   0  0  0  0  0  0  0  0  0  0  0  0
    3.3163    0.8103    8.5791 H   0  0  0  0  0  0  0  0  0  0  0  0
    2.6384    0.2259    6.6468 C   0  0  0  0  0  0  0  0  0  0  0  0
    2.2561    1.2029    6.3864 H   0  0  0  0  0  0  0  0  0  0  0  0
    2.5374   -0.8095    5.7042 C   0  0  0  0  0  0  0  0  0  0  0  0
    1.5864   -1.5117    2.1734 C   0  0  0  0  0  0  0  0  0  0  0  0
    1.5862   -0.4360    1.9490 H   0  0  0  0  0  0  0  0  0  0  0  0
    0.1903   -2.0372    1.9513 C   0  0  0  0  0  0  0  0  0  0  0  0
   -0.3522   -3.0594    2.7186 C   0  0  0  0  0  0  0  0  0  0  0  0
    0.2335   -3.5130    3.5050 H   0  0  0  0  0  0  0  0  0  0  0  0
   -1.6409   -3.5050    2.4784 C   0  0  0  0  0  0  0  0  0  0  0  0
   -2.0547   -4.2972    3.0851 H   0  0  0  0  0  0  0  0  0  0  0  0
   -2.3967   -2.9403    1.4659 C   0  0  0  0  0  0  0  0  0  0  0  0
   -3.4029   -3.2870    1.2828 H   0  0  0  0  0  0  0  0  0  0  0  0
   -1.8549   -1.9320    0.6860 C   0  0  0  0  0  0  0  0  0  0  0  0
   -2.4377   -1.4917   -0.1098 H   0  0  0  0  0  0  0  0  0  0  0  0
   -0.5695   -1.4839    0.9279 C   0  0  0  0  0  0  0  0  0  0  0  0
   -0.1438   -0.7016    0.3167 H   0  0  0  0  0  0  0  0  0  0  0  0
    2.6132   -2.1836    1.2829 C   0  0  0  0  0  0  0  0  0  0  0  0
    2.4499   -3.4857    0.8327 C   0  0  0  0  0  0  0  0  0  0  0  0
    1.5632   -4.0408    1.0984 H   0  0  0  0  0  0  0  0  0  0  0  0
    3.4221   -4.0734    0.0429 C   0  0  0  0  0  0  0  0  0  0  0  0
    3.2879   -5.0869   -0.3062 H   0  0  0  0  0  0  0  0  0  0  0  0
    4.5634   -3.3680   -0.2982 C   0  0  0  0  0  0  0  0  0  0  0  0
    5.3208   -3.8297   -0.9147 H   0  0  0  0  0  0  0  0  0  0  0  0
    4.7314   -2.0704    0.1542 C   0  0  0  0  0  0  0  0  0  0  0  0
    5.6198   -1.5146   -0.1055 H   0  0  0  0  0  0  0  0  0  0  0  0
    3.7607   -1.4783    0.9421 C   0  0  0  0  0  0  0  0  0  0  0  0
    3.8985   -0.4666    1.2944 H   0  0  0  0  0  0  0  0  0  0  0  0
   -0.5093    0.8127    5.3979 C   0  0  2  0  0  0  0  0  0  0  0  0
   -0.2048    0.0929    6.1571 H   0  0  0  0  0  0  0  0  0  0  0  0
   -0.9685    0.2945    4.1805 C   0  0  0  0  0  3  0  0  0  0  0  0
   -0.9628   -0.7879    4.0789 H   0  0  0  0  0  0  0  0  0  0  0  0
   -2.0099    0.9786    3.3217 C   0  0  0  0  0  0  0  0  0  0  0  0
   -2.5822    0.2137    2.7926 H   0  0  0  0  0  0  0  0  0  0  0  0
   -2.7077    1.5147    3.9678 H   0  0  0  0  0  0  0  0  0  0  0  0
   -1.3966    1.9360    2.2822 C   0  0  0  0  0  0  0  0  0  0  0  0
   -1.2263    1.3831    1.3563 H   0  0  0  0  0  0  0  0  0  0  0  0
   -2.1045    2.7394    2.0505 H   0  0  0  0  0  0  0  0  0  0  0  0
   -0.0839    2.5428    2.7139 C   0  0  0  0  0  3  0  0  0  0  0  0
    0.5646    2.8141    1.8828 H   0  0  0  0  0  0  0  0  0  0  0  0
    0.1478    3.1327    3.9346 C   0  0  0  0  0  3  0  0  0  0  0  0
    0.9908    3.8144    4.0201 H   0  0  0  0  0  0  0  0  0  0  0  0
   -0.9159    3.3008    4.9933 C   0  0  0  0  0  0  0  0  0  0  0  0
   -1.8876    3.4053    4.5079 H   0  0  0  0  0  0  0  0  0  0  0  0
   -0.7293    4.2268    5.5411 H   0  0  0  0  0  0  0  0  0  0  0  0
   -0.9425    2.1309    5.9940 C   0  0  0  0  0  0  0  0  0  0  0  0
   -0.2717    2.3585    6.8261 H   0  0  0  0  0  0  0  0  0  0  0  0
   -1.9481    2.0231    6.4159 H   0  0  0  0  0  0  0  0  0  0  0  0
  1  5  1  0  0  0  0
  1 42  1  0  0  0  0
  3  4  1  0  0  0  0
  3  5  1  0  0  0  0
  4  6  1  0  0  0  0
  5 17  2  0  0  0  0
  6  7  1  0  0  0  0
  6  8  2  0  0  0  0
  8  9  1  0  0  0  0
  9 10  1  0  0  0  0
  9 11  2  0  0  0  0
 11 12  1  0  0  0  0
 13 11  1  0  0  0  0
 13 14  1  0  0  0  0
 15 13  2  0  0  0  0
 16 15  1  0  0  0  0
 17  8  1  0  0  0  0
 17 15  1  0  0  0  0
 18  3  1  0  0  0  0
 19 18  1  0  0  0  0
 20 18  1  0  0  0  0
 20 21  1  0  0  0  0
 21 22  1  0  0  0  0
 23 21  2  0  0  0  0
 23 24  1  0  0  0  0
 25 23  1  0  0  0  0
 26 25  1  0  0  0  0
 27 29  1  0  0  0  0
 27 25  2  0  0  0  0
 28 27  1  0  0  0  0
 29 20  2  0  0  0  0
 30 29  1  0  0  0  0
 31 18  1  0  0  0  0
 32 33  1  0  0  0  0
 32 31  2  0  0  0  0
 34 32  1  0  0  0  0
 35 34  1  0  0  0  0
 36 34  2  0  0  0  0
 36 38  1  0  0  0  0
 37 36  1  0  0  0  0
 38 40  2  0  0  0  0
 39 38  1  0  0  0  0
 40 31  1  0  0  0  0
 40 41  1  0  0  0  0
 42 59  1  0  0  0  0
 42 43  1  1  0  0  0
 44 42  1  0  0  0  0
 45 44  1  0  0  0  0
 46 48  1  0  0  0  0
 46 44  1  0  0  0  0
 47 46  1  0  0  0  0
 49 52  1  0  0  0  0
 49 46  1  0  0  0  0
 50 49  1  0  0  0  0
 51 49  1  0  0  0  0
 52 54  1  0  0  0  0
 53 52  1  0  0  0  0
 54 55  1  0  0  0  0
 54 56  1  0  0  0  0
 56 58  1  0  0  0  0
 56 59  1  0  0  0  0
 57 56  1  0  0  0  0
 59 61  1  0  0  0  0
 59 60  1  0  0  0  0
M  END
$$$$
