CSD_code = AMEBOL | q = 0 | S = 0 | Stoichiometry = C17H16AuClN2S | MND = 2
 OpenBabel04212202003D

 38 40  0  0  1  0  0  0  0  0999 V2000
    2.0526    2.6222    2.6818 Au  0  0  0  0  0  0  0  0  0  0  0  0
    4.0922    3.4176    2.1928 Cl  0  0  0  0  0  0  0  0  0  0  0  0
    0.2388    1.8965    3.1292 C   0  0  1  0  0  3  0  0  0  0  0  0
   -0.9430    2.5466    3.0767 N   0  0  0  0  0  0  0  0  0  0  0  0
   -0.0582    0.6404    3.5020 N   0  0  0  0  0  0  0  0  0  0  0  0
   -1.9683    1.6986    3.4097 C   0  0  0  0  0  0  0  0  0  0  0  0
   -2.9891    2.0182    3.4403 H   0  0  0  0  0  0  0  0  0  0  0  0
   -1.4064    0.4998    3.6884 C   0  0  0  0  0  0  0  0  0  0  0  0
   -1.8493   -0.4236    3.9986 H   0  0  0  0  0  0  0  0  0  0  0  0
   -1.1192    3.8972    2.7111 C   0  0  0  0  0  0  0  0  0  0  0  0
   -0.3286    4.8933    3.2772 C   0  0  0  0  0  0  0  0  0  0  0  0
    0.4218    4.6348    4.0069 H   0  0  0  0  0  0  0  0  0  0  0  0
   -0.5128    6.2063    2.9055 C   0  0  0  0  0  0  0  0  0  0  0  0
    0.0986    6.9841    3.3352 H   0  0  0  0  0  0  0  0  0  0  0  0
   -1.4900    6.5497    1.9705 C   0  0  0  0  0  0  0  0  0  0  0  0
   -2.2853    5.5541    1.4164 C   0  0  0  0  0  0  0  0  0  0  0  0
   -3.0493    5.7875    0.6931 H   0  0  0  0  0  0  0  0  0  0  0  0
   -2.0978    4.2356    1.7867 C   0  0  0  0  0  0  0  0  0  0  0  0
   -2.7073    3.4635    1.3403 H   0  0  0  0  0  0  0  0  0  0  0  0
   -1.6340    8.2599    1.5851 S   0  0  0  0  0  0  0  0  0  0  0  0
   -2.8916    8.3147    0.2762 C   0  0  0  0  0  0  0  0  0  0  0  0
   -2.5687    7.7186   -0.5721 H   0  0  0  0  0  0  0  0  0  0  0  0
   -2.9622    9.3585   -0.0137 H   0  0  0  0  0  0  0  0  0  0  0  0
   -3.8492    7.9757    0.6605 H   0  0  0  0  0  0  0  0  0  0  0  0
    0.9037   -0.4071    3.7512 C   0  0  0  0  0  0  0  0  0  0  0  0
    1.8389   -0.1164    3.2640 H   0  0  0  0  0  0  0  0  0  0  0  0
    0.5370   -1.3372    3.3086 H   0  0  0  0  0  0  0  0  0  0  0  0
    1.1185   -0.5749    5.2364 C   0  0  0  0  0  0  0  0  0  0  0  0
    0.6348   -1.6883    5.9077 C   0  0  0  0  0  0  0  0  0  0  0  0
    0.1237   -2.4680    5.3602 H   0  0  0  0  0  0  0  0  0  0  0  0
    0.8149   -1.8118    7.2750 C   0  0  0  0  0  0  0  0  0  0  0  0
    0.4405   -2.6846    7.7888 H   0  0  0  0  0  0  0  0  0  0  0  0
    1.4724   -0.8191    7.9800 C   0  0  0  0  0  0  0  0  0  0  0  0
    1.6119   -0.9156    9.0462 H   0  0  0  0  0  0  0  0  0  0  0  0
    1.9551    0.2961    7.3148 C   0  0  0  0  0  0  0  0  0  0  0  0
    2.4731    1.0704    7.8600 H   0  0  0  0  0  0  0  0  0  0  0  0
    1.7792    0.4183    5.9488 C   0  0  0  0  0  0  0  0  0  0  0  0
    2.1607    1.2828    5.4233 H   0  0  0  0  0  0  0  0  0  0  0  0
  2  1  1  0  0  0  0
  3  1  1  6  0  0  0
  3  5  1  0  0  0  0
  4  3  1  0  0  0  0
  4  6  1  0  0  0  0
  5  8  1  0  0  0  0
  5 25  1  0  0  0  0
  6  7  1  0  0  0  0
  6  8  2  0  0  0  0
  8  9  1  0  0  0  0
 10  4  1  0  0  0  0
 10 11  1  0  0  0  0
 11 12  1  0  0  0  0
 13 11  2  0  0  0  0
 13 14  1  0  0  0  0
 15 13  1  0  0  0  0
 16 18  1  0  0  0  0
 16 15  2  0  0  0  0
 17 16  1  0  0  0  0
 18 10  2  0  0  0  0
 19 18  1  0  0  0  0
 20 15  1  0  0  0  0
 21 24  1  0  0  0  0
 21 20  1  0  0  0  0
 22 21  1  0  0  0  0
 23 21  1  0  0  0  0
 25 28  1  0  0  0  0
 26 25  1  0  0  0  0
 27 25  1  0  0  0  0
 28 29  2  0  0  0  0
 28 37  1  0  0  0  0
 29 31  1  0  0  0  0
 30 29  1  0  0  0  0
 31 32  1  0  0  0  0
 31 33  2  0  0  0  0
 33 34  1  0  0  0  0
 35 36  1  0  0  0  0
 35 33  1  0  0  0  0
 37 35  2  0  0  0  0
 38 37  1  0  0  0  0
M  END
$$$$
