CSD_code = AMEJUX | q = 0 | S = 0 | Stoichiometry = C11H16Cl2HgN4 | MND = 4
 OpenBabel04212202003D

 34 36  0  0  1  0  0  0  0  0999 V2000
   10.4112    5.4958   -5.8978 Hg  0  0  0  0  0  0  0  0  0  0  0  0
    9.4135    6.2528   -7.7892 Cl  0  0  0  0  0  0  0  0  0  0  0  0
   11.6585    6.1635   -4.0842 Cl  0  0  0  0  0  0  0  0  0  0  0  0
    8.9918    3.9085   -4.6795 N   0  0  2  0  0  0  0  0  0  0  0  0
    9.5713    2.9207   -3.9727 N   0  0  0  0  0  0  0  0  0  0  0  0
   11.5163    3.3359   -6.2387 N   0  0  1  0  0  0  0  0  0  0  0  0
   11.5300    2.4431   -5.2315 N   0  0  0  0  0  0  0  0  0  0  0  0
   11.0074    2.8068   -3.9397 C   0  0  0  0  0  0  0  0  0  0  0  0
   11.2917    2.0507   -3.2074 H   0  0  0  0  0  0  0  0  0  0  0  0
   11.4255    3.7880   -3.6643 H   0  0  0  0  0  0  0  0  0  0  0  0
   12.0372    2.7368   -7.2991 C   0  0  2  0  0  3  0  0  0  0  0  0
   12.3994    1.4230   -6.9624 C   0  0  0  0  0  0  0  0  0  0  0  0
   12.8498    0.6948   -7.6048 H   0  0  0  0  0  0  0  0  0  0  0  0
   12.0597    1.2653   -5.6370 C   0  0  0  0  0  0  0  0  0  0  0  0
   12.1911    3.4246   -8.6038 C   0  0  0  0  0  0  0  0  0  0  0  0
   11.8049    2.8011   -9.4071 H   0  0  0  0  0  0  0  0  0  0  0  0
   13.2438    3.6224   -8.8013 H   0  0  0  0  0  0  0  0  0  0  0  0
   11.6511    4.3698   -8.5934 H   0  0  0  0  0  0  0  0  0  0  0  0
   12.2204    0.0856   -4.7500 C   0  0  0  0  0  0  0  0  0  0  0  0
   11.2519   -0.3033   -4.4366 H   0  0  0  0  0  0  0  0  0  0  0  0
   12.7986    0.3380   -3.8618 H   0  0  0  0  0  0  0  0  0  0  0  0
   12.7433   -0.6986   -5.2896 H   0  0  0  0  0  0  0  0  0  0  0  0
    7.6813    3.7655   -4.5483 C   0  0  1  0  0  3  0  0  0  0  0  0
    7.4120    2.6580   -3.7289 C   0  0  0  0  0  0  0  0  0  0  0  0
    6.4494    2.2944   -3.4339 H   0  0  0  0  0  0  0  0  0  0  0  0
    8.6393    2.1394   -3.3789 C   0  0  0  0  0  0  0  0  0  0  0  0
    6.7143    4.6857   -5.1942 C   0  0  0  0  0  0  0  0  0  0  0  0
    7.2290    5.3270   -5.9078 H   0  0  0  0  0  0  0  0  0  0  0  0
    6.2325    5.3105   -4.4432 H   0  0  0  0  0  0  0  0  0  0  0  0
    5.9430    4.1198   -5.7124 H   0  0  0  0  0  0  0  0  0  0  0  0
    8.9678    0.9820   -2.5089 C   0  0  0  0  0  0  0  0  0  0  0  0
    8.0484    0.5601   -2.1136 H   0  0  0  0  0  0  0  0  0  0  0  0
    9.5941    1.2892   -1.6719 H   0  0  0  0  0  0  0  0  0  0  0  0
    9.4894    0.2040   -3.0654 H   0  0  0  0  0  0  0  0  0  0  0  0
  1  4  1  0  0  0  0
  1  3  1  0  0  0  0
  2  1  1  0  0  0  0
  4 23  1  0  0  0  0
  4  5  1  6  0  0  0
  5  8  1  0  0  0  0
  5 26  1  0  0  0  0
  6  1  1  0  0  0  0
  6  7  1  6  0  0  0
  7  8  1  0  0  0  0
  8 10  1  0  0  0  0
  8  9  1  0  0  0  0
 11 15  1  1  0  0  0
 11 12  1  0  0  0  0
 11  6  1  0  0  0  0
 12 14  2  0  0  0  0
 13 12  1  0  0  0  0
 14  7  1  0  0  0  0
 14 19  1  0  0  0  0
 15 18  1  0  0  0  0
 16 15  1  0  0  0  0
 17 15  1  0  0  0  0
 19 20  1  0  0  0  0
 19 21  1  0  0  0  0
 22 19  1  0  0  0  0
 23 27  1  1  0  0  0
 23 24  1  0  0  0  0
 24 25  1  0  0  0  0
 24 26  2  0  0  0  0
 26 31  1  0  0  0  0
 27 29  1  0  0  0  0
 28 27  1  0  0  0  0
 30 27  1  0  0  0  0
 31 32  1  0  0  0  0
 31 33  1  0  0  0  0
 34 31  1  0  0  0  0
M  END
$$$$
