CSD_code = AMEKEI | q = 0 | S = 0 | Stoichiometry = C10H16Cl2O4RuS2 | MND = 6
 OpenBabel04212202003D

 35 36  0  0  0  0  0  0  0  0999 V2000
    9.0546    4.0963    6.6603 Ru  0  0  0  0  0  0  0  0  0  0  0  0
    7.9455    2.0600    6.5808 Cl  0  0  0  0  0  0  0  0  0  0  0  0
    9.5835    3.7207    8.9456 Cl  0  0  0  0  0  0  0  0  0  0  0  0
    6.7746    3.9427    8.6389 S   0  0  0  0  0  3  0  0  0  0  0  0
    8.0877    4.3420    4.5454 S   0  0  0  0  0  0  0  0  0  0  0  0
   10.0986    6.8917    6.8800 O   0  0  0  0  0  1  0  0  0  0  0  0
   11.6028    2.8540    5.7201 O   0  0  0  0  0  1  0  0  0  0  0  0
    7.1780    4.7877    7.4497 O   0  0  0  0  0  0  0  0  0  0  0  0
    8.4352    5.5713    3.8576 O   0  0  0  0  0  1  0  0  0  0  0  0
    9.7412    5.8210    6.7701 C   0  0  0  0  0  2  0  0  0  0  0  0
   10.6411    3.3566    6.0637 C   0  0  0  0  0  2  0  0  0  0  0  0
    4.9321    4.0924    8.5322 C   0  0  0  0  0  0  0  0  0  0  0  0
    4.7481    4.6405    7.6105 H   0  0  0  0  0  0  0  0  0  0  0  0
    4.5119    3.0930    8.4568 H   0  0  0  0  0  0  0  0  0  0  0  0
    4.4576    4.8601    9.7530 C   0  0  0  0  0  0  0  0  0  0  0  0
    3.4910    5.3313    9.5712 H   0  0  0  0  0  0  0  0  0  0  0  0
    4.3553    4.1849   10.6045 H   0  0  0  0  0  0  0  0  0  0  0  0
    5.5455    5.8882   10.0408 C   0  0  0  0  0  0  0  0  0  0  0  0
    5.5709    6.6320    9.2422 H   0  0  0  0  0  0  0  0  0  0  0  0
    5.3803    6.4021   10.9880 H   0  0  0  0  0  0  0  0  0  0  0  0
    6.8454    5.1098   10.0499 C   0  0  0  0  0  0  0  0  0  0  0  0
    6.9563    4.4958   10.9411 H   0  0  0  0  0  0  0  0  0  0  0  0
    7.7351    5.7185    9.9174 H   0  0  0  0  0  0  0  0  0  0  0  0
    8.3720    2.9596    3.3697 C   0  0  0  0  0  0  0  0  0  0  0  0
    8.7493    3.4324    2.4650 H   0  0  0  0  0  0  0  0  0  0  0  0
    9.1214    2.2978    3.7969 H   0  0  0  0  0  0  0  0  0  0  0  0
    7.0252    2.2889    3.1752 C   0  0  0  0  0  0  0  0  0  0  0  0
    6.9871    1.7482    2.2295 H   0  0  0  0  0  0  0  0  0  0  0  0
    6.8530    1.5856    3.9915 H   0  0  0  0  0  0  0  0  0  0  0  0
    5.9819    3.4020    3.2307 C   0  0  0  0  0  0  0  0  0  0  0  0
    6.1018    4.0701    2.3755 H   0  0  0  0  0  0  0  0  0  0  0  0
    4.9684    3.0005    3.2233 H   0  0  0  0  0  0  0  0  0  0  0  0
    6.2654    4.1584    4.5122 C   0  0  0  0  0  0  0  0  0  0  0  0
    6.0034    3.5745    5.3926 H   0  0  0  0  0  0  0  0  0  0  0  0
    5.8381    5.1561    4.5591 H   0  0  0  0  0  0  0  0  0  0  0  0
  1 10  1  0  0  0  0
  1  8  1  0  0  0  0
  1  3  1  0  0  0  0
  2  1  1  0  0  0  0
  4 21  1  0  0  0  0
  5  1  1  0  0  0  0
  7 11  1  0  0  0  0
  8  4  1  0  0  0  0
  9  5  1  0  0  0  0
 10  6  1  0  0  0  0
 11  1  1  0  0  0  0
 12  4  1  0  0  0  0
 12 15  1  0  0  0  0
 13 12  1  0  0  0  0
 14 12  1  0  0  0  0
 15 18  1  0  0  0  0
 15 17  1  0  0  0  0
 16 15  1  0  0  0  0
 18 21  1  0  0  0  0
 18 20  1  0  0  0  0
 19 18  1  0  0  0  0
 21 22  1  0  0  0  0
 23 21  1  0  0  0  0
 24 26  1  0  0  0  0
 24  5  1  0  0  0  0
 25 24  1  0  0  0  0
 27 30  1  0  0  0  0
 27 24  1  0  0  0  0
 27 29  1  0  0  0  0
 28 27  1  0  0  0  0
 30 33  1  0  0  0  0
 31 30  1  0  0  0  0
 32 30  1  0  0  0  0
 33  5  1  0  0  0  0
 33 35  1  0  0  0  0
 33 34  1  0  0  0  0
M  END
$$$$
