CSD_code = AMEMUA | q = 0 | S = 0 | Stoichiometry = C10H7BrNO4Re | MND = 6
 OpenBabel04212202003D

 24 25  0  0  0  0  0  0  0  0999 V2000
    0.0824   -1.5879   -1.4915 Br  0  0  0  0  0  0  0  0  0  0  0  0
   -1.5397   -1.5708   -3.4622 Re  0  0  0  0  0  0  0  0  0  0  0  0
   -0.2136    1.0167   -3.7294 C   0  0  0  0  0  0  0  0  0  0  0  0
   -1.2827    1.3270   -2.7668 C   0  0  0  0  0  0  0  0  0  0  0  0
   -1.4069    2.5401   -2.0925 C   0  0  0  0  0  0  0  0  0  0  0  0
   -0.6850    3.3235   -2.2549 H   0  0  0  0  0  0  0  0  0  0  0  0
   -2.4523    2.7106   -1.2059 C   0  0  0  0  0  0  0  0  0  0  0  0
   -2.5648    3.6345   -0.6604 H   0  0  0  0  0  0  0  0  0  0  0  0
   -3.3510    1.6661   -1.0294 C   0  0  0  0  0  0  0  0  0  0  0  0
   -4.1816    1.7541   -0.3484 H   0  0  0  0  0  0  0  0  0  0  0  0
   -3.1635    0.4911   -1.7352 C   0  0  0  0  0  0  0  0  0  0  0  0
   -3.8428   -0.3424   -1.6128 H   0  0  0  0  0  0  0  0  0  0  0  0
    0.8196    2.0434   -4.0707 C   0  0  0  0  0  0  0  0  0  0  0  0
    1.4807    1.6468   -4.8378 H   0  0  0  0  0  0  0  0  0  0  0  0
    1.4080    2.2788   -3.1844 H   0  0  0  0  0  0  0  0  0  0  0  0
    0.3512    2.9577   -4.4306 H   0  0  0  0  0  0  0  0  0  0  0  0
   -2.7519   -2.7447   -2.4869 C   0  0  0  0  0  2  0  0  0  0  0  0
   -0.5764   -3.0903   -4.2335 C   0  0  0  0  0  2  0  0  0  0  0  0
   -2.7474   -1.4219   -4.9761 C   0  0  0  0  0  2  0  0  0  0  0  0
   -2.1546    0.3109   -2.5808 N   0  0  0  0  0  0  0  0  0  0  0  0
   -0.1952   -0.0988   -4.2449 O   0  0  0  0  0  0  0  0  0  0  0  0
   -3.4409   -3.3865   -1.8339 O   0  0  0  0  0  1  0  0  0  0  0  0
    0.0967   -3.9126   -4.6443 O   0  0  0  0  0  1  0  0  0  0  0  0
   -3.4491   -1.3019   -5.8720 O   0  0  0  0  0  1  0  0  0  0  0  0
  2 20  1  0  0  0  0
  2 17  1  0  0  0  0
  2  1  1  0  0  0  0
  3  4  2  0  0  0  0
  4 20  1  0  0  0  0
  4  5  1  0  0  0  0
  5  7  2  0  0  0  0
  6  5  1  0  0  0  0
  7  9  1  0  0  0  0
  7  8  1  0  0  0  0
  9 10  1  0  0  0  0
 11 12  1  0  0  0  0
 11  9  2  0  0  0  0
 13  3  1  0  0  0  0
 13 15  1  0  0  0  0
 14 13  1  0  0  0  0
 16 13  1  0  0  0  0
 17 22  1  0  0  0  0
 18  2  1  0  0  0  0
 19  2  1  0  0  0  0
 20 11  1  0  0  0  0
 21  3  1  0  0  0  0
 21  2  1  0  0  0  0
 23 18  1  0  0  0  0
 24 19  1  0  0  0  0
M  END
$$$$
