CSD_code = AMIPIV | q = 1 | S = 0 | Stoichiometry = C24H16Cl2IrN4(1+) | MND = 6
 OpenBabel04212202003D

 47 54  0  0  0  0  0  0  0  0999 V2000
   15.5902    2.5750    3.1604 Ir  0  0  0  0  0  0  0  0  0  0  0  0
   13.9465    0.9791    2.8197 Cl  0  0  0  0  0  0  0  0  0  0  0  0
   17.0866    3.9432    3.6175 N   0  0  0  0  0  0  0  0  0  0  0  0
   15.4201    2.5639    5.1719 N   0  0  0  0  0  0  0  0  0  0  0  0
   17.9147    4.5885    2.8200 C   0  0  0  0  0  0  0  0  0  0  0  0
   19.0039    5.3198    3.2971 C   0  0  0  0  0  0  0  0  0  0  0  0
   19.2417    5.3806    4.6507 C   0  0  0  0  0  0  0  0  0  0  0  0
   18.3767    4.7020    5.5249 C   0  0  0  0  0  0  0  0  0  0  0  0
   17.3053    3.9881    4.9500 C   0  0  0  0  0  0  0  0  0  0  0  0
   18.5325    4.6823    6.9417 C   0  0  0  0  0  0  0  0  0  0  0  0
   17.6796    3.9864    7.7336 C   0  0  0  0  0  0  0  0  0  0  0  0
   16.5946    3.2447    7.1808 C   0  0  0  0  0  0  0  0  0  0  0  0
   16.4113    3.2531    5.7838 C   0  0  0  0  0  0  0  0  0  0  0  0
   15.6967    2.4801    7.9454 C   0  0  0  0  0  0  0  0  0  0  0  0
   14.6968    1.7876    7.3035 C   0  0  0  0  0  0  0  0  0  0  0  0
   14.5910    1.8505    5.9119 C   0  0  0  0  0  0  0  0  0  0  0  0
   17.7211    4.5281    1.7584 H   0  0  0  0  0  0  0  0  0  0  0  0
   19.6504    5.8221    2.5959 H   0  0  0  0  0  0  0  0  0  0  0  0
   20.0814    5.9313    5.0460 H   0  0  0  0  0  0  0  0  0  0  0  0
   19.3570    5.2319    7.3689 H   0  0  0  0  0  0  0  0  0  0  0  0
   17.8106    3.9709    8.8046 H   0  0  0  0  0  0  0  0  0  0  0  0
   15.8078    2.4369    9.0181 H   0  0  0  0  0  0  0  0  0  0  0  0
   13.9958    1.1828    7.8555 H   0  0  0  0  0  0  0  0  0  0  0  0
   13.8259    1.2969    5.3838 H   0  0  0  0  0  0  0  0  0  0  0  0
   17.2353    0.9809    3.5031 Cl  0  0  0  0  0  0  0  0  0  0  0  0
   14.0933    3.9422    2.7013 N   0  0  0  0  0  0  0  0  0  0  0  0
   13.2637    4.5870    3.4976 C   0  0  0  0  0  0  0  0  0  0  0  0
   12.1757    5.3190    3.0190 C   0  0  0  0  0  0  0  0  0  0  0  0
   11.9409    5.3813    1.6649 C   0  0  0  0  0  0  0  0  0  0  0  0
   12.8073    4.7029    0.7919 C   0  0  0  0  0  0  0  0  0  0  0  0
   13.8772    3.9880    1.3684 C   0  0  0  0  0  0  0  0  0  0  0  0
   14.7723    3.2531    0.5359 C   0  0  0  0  0  0  0  0  0  0  0  0
   15.7617    2.5627    1.1492 N   0  0  0  0  0  0  0  0  0  0  0  0
   16.5919    1.8493    0.4104 C   0  0  0  0  0  0  0  0  0  0  0  0
   16.4892    1.7879   -0.9815 C   0  0  0  0  0  0  0  0  0  0  0  0
   15.4914    2.4819   -1.6250 C   0  0  0  0  0  0  0  0  0  0  0  0
   14.5922    3.2462   -0.8616 C   0  0  0  0  0  0  0  0  0  0  0  0
   13.5090    3.9893   -1.4160 C   0  0  0  0  0  0  0  0  0  0  0  0
   12.6547    4.6849   -0.6253 C   0  0  0  0  0  0  0  0  0  0  0  0
   11.8315    5.2354   -1.0537 H   0  0  0  0  0  0  0  0  0  0  0  0
   13.3805    3.9752   -2.4874 H   0  0  0  0  0  0  0  0  0  0  0  0
   15.3829    2.4401   -2.6979 H   0  0  0  0  0  0  0  0  0  0  0  0
   17.1911    1.1833   -1.5325 H   0  0  0  0  0  0  0  0  0  0  0  0
   17.3555    1.2947    0.9397 H   0  0  0  0  0  0  0  0  0  0  0  0
   11.1023    5.9329    1.2683 H   0  0  0  0  0  0  0  0  0  0  0  0
   11.5280    5.8210    3.7192 H   0  0  0  0  0  0  0  0  0  0  0  0
   13.4550    4.5254    4.5597 H   0  0  0  0  0  0  0  0  0  0  0  0
  1 25  1  0  0  0  0
  1  3  1  0  0  0  0
  1  4  1  0  0  0  0
  2  1  1  0  0  0  0
  3  9  1  0  0  0  0
  4 13  1  0  0  0  0
  4 16  1  0  0  0  0
  5  6  2  0  0  0  0
  5  3  1  0  0  0  0
  6  7  1  0  0  0  0
  7 19  1  0  0  0  0
  7  8  2  0  0  0  0
  8 10  1  0  0  0  0
  9  8  1  0  0  0  0
  9 13  2  0  0  0  0
 10 20  1  0  0  0  0
 10 11  2  0  0  0  0
 11 21  1  0  0  0  0
 12 11  1  0  0  0  0
 12 14  2  0  0  0  0
 13 12  1  0  0  0  0
 14 22  1  0  0  0  0
 15 23  1  0  0  0  0
 15 14  1  0  0  0  0
 16 15  2  0  0  0  0
 17  5  1  0  0  0  0
 18  6  1  0  0  0  0
 24 16  1  0  0  0  0
 26  1  1  0  0  0  0
 26 27  1  0  0  0  0
 27 47  1  0  0  0  0
 28 27  2  0  0  0  0
 28 46  1  0  0  0  0
 29 28  1  0  0  0  0
 30 31  1  0  0  0  0
 30 29  2  0  0  0  0
 31 26  1  0  0  0  0
 32 33  1  0  0  0  0
 32 31  2  0  0  0  0
 33  1  1  0  0  0  0
 34 44  1  0  0  0  0
 34 33  1  0  0  0  0
 35 34  2  0  0  0  0
 36 35  1  0  0  0  0
 36 37  2  0  0  0  0
 37 32  1  0  0  0  0
 38 37  1  0  0  0  0
 38 39  2  0  0  0  0
 39 30  1  0  0  0  0
 40 39  1  0  0  0  0
 41 38  1  0  0  0  0
 42 36  1  0  0  0  0
 43 35  1  0  0  0  0
 45 29  1  0  0  0  0
M  END
$$$$
