CSD_code = AMIQOC | q = 0 | S = 0 | Stoichiometry = C15H26Cl2N2Zn | MND = 4
 OpenBabel04212202003D

 46 50  0  0  1  0  0  0  0  0999 V2000
   -0.0559   -0.0559    0.0000 Zn  0  0  0  0  0  0  0  0  0  0  0  0
   -1.8018    0.1362    1.3772 Cl  0  0  0  0  0  0  0  0  0  0  0  0
    2.0073    0.1606    0.6207 N   0  0  2  0  0  4  0  0  0  0  0  0
    2.4608   -1.1430    1.1242 C   0  0  0  0  0  0  0  0  0  0  0  0
    3.5309   -1.0873    1.3779 H   0  0  0  0  0  0  0  0  0  0  0  0
    2.3318   -1.8762    0.3259 H   0  0  0  0  0  0  0  0  0  0  0  0
    1.6676   -1.5657    2.3516 C   0  0  0  0  0  0  0  0  0  0  0  0
    2.0230   -2.5402    2.6891 H   0  0  0  0  0  0  0  0  0  0  0  0
    0.6117   -1.6671    2.0827 H   0  0  0  0  0  0  0  0  0  0  0  0
    1.8155   -0.5240    3.4533 C   0  0  0  0  0  0  0  0  0  0  0  0
    1.1931   -0.7875    4.3084 H   0  0  0  0  0  0  0  0  0  0  0  0
    2.8557   -0.4888    3.7897 H   0  0  0  0  0  0  0  0  0  0  0  0
    1.3977    0.8365    2.9063 C   0  0  0  0  0  0  0  0  0  0  0  0
    1.5562    1.6127    3.6573 H   0  0  0  0  0  0  0  0  0  0  0  0
    0.3354    0.8066    2.6657 H   0  0  0  0  0  0  0  0  0  0  0  0
    2.2094    1.1790    1.6588 C   0  0  2  0  0  0  0  0  0  0  0  0
    3.2791    1.1753    1.9417 H   0  0  0  0  0  0  0  0  0  0  0  0
    1.9004    2.5813    1.1168 C   0  0  1  0  0  0  0  0  0  0  0  0
    2.0341    3.2855    1.9453 H   0  0  0  0  0  0  0  0  0  0  0  0
    2.7860    0.4803   -0.5841 C   0  0  0  0  0  0  0  0  0  0  0  0
    2.5246   -0.2529   -1.3485 H   0  0  0  0  0  0  0  0  0  0  0  0
    3.8581    0.3670   -0.3584 H   0  0  0  0  0  0  0  0  0  0  0  0
    2.8916    2.8916    0.0000 C   0  0  0  0  0  0  0  0  0  0  0  0
    3.9186    2.7735    0.3508 H   0  0  0  0  0  0  0  0  0  0  0  0
    0.1361   -1.8018   -1.3772 Cl  0  0  0  0  0  0  0  0  0  0  0  0
    2.5812    1.9004   -1.1168 C   0  0  2  0  0  0  0  0  0  0  0  0
    1.1790    2.2094   -1.6588 C   0  0  2  0  0  0  0  0  0  0  0  0
    0.1606    2.0073   -0.6207 N   0  0  1  0  0  4  0  0  0  0  0  0
   -1.1430    2.4608   -1.1242 C   0  0  0  0  0  0  0  0  0  0  0  0
   -1.0873    3.5309   -1.3780 H   0  0  0  0  0  0  0  0  0  0  0  0
   -1.8762    2.3318   -0.3259 H   0  0  0  0  0  0  0  0  0  0  0  0
   -1.5657    1.6675   -2.3516 C   0  0  0  0  0  0  0  0  0  0  0  0
   -2.5402    2.0230   -2.6891 H   0  0  0  0  0  0  0  0  0  0  0  0
   -1.6671    0.6117   -2.0827 H   0  0  0  0  0  0  0  0  0  0  0  0
   -0.5240    1.8155   -3.4533 C   0  0  0  0  0  0  0  0  0  0  0  0
   -0.7875    1.1931   -4.3084 H   0  0  0  0  0  0  0  0  0  0  0  0
   -0.4888    2.8557   -3.7897 H   0  0  0  0  0  0  0  0  0  0  0  0
    0.8365    1.3977   -2.9063 C   0  0  0  0  0  0  0  0  0  0  0  0
    1.6127    1.5561   -3.6573 H   0  0  0  0  0  0  0  0  0  0  0  0
    0.8066    0.3354   -2.6657 H   0  0  0  0  0  0  0  0  0  0  0  0
    1.1753    3.2791   -1.9417 H   0  0  0  0  0  0  0  0  0  0  0  0
    0.4803    2.7860    0.5841 C   0  0  0  0  0  0  0  0  0  0  0  0
    3.2855    2.0341   -1.9453 H   0  0  0  0  0  0  0  0  0  0  0  0
    2.7735    3.9186   -0.3507 H   0  0  0  0  0  0  0  0  0  0  0  0
   -0.2529    2.5245    1.3485 H   0  0  0  0  0  0  0  0  0  0  0  0
    0.3670    3.8581    0.3584 H   0  0  0  0  0  0  0  0  0  0  0  0
  1  3  1  0  0  0  0
  1  2  1  0  0  0  0
  3 20  1  6  0  0  0
  3  4  1  0  0  0  0
  3 16  1  0  0  0  0
  4  5  1  0  0  0  0
  4  7  1  0  0  0  0
  6  4  1  0  0  0  0
  7  8  1  0  0  0  0
  7 10  1  0  0  0  0
  9  7  1  0  0  0  0
 10 12  1  0  0  0  0
 10 11  1  0  0  0  0
 13 10  1  0  0  0  0
 13 14  1  0  0  0  0
 15 13  1  0  0  0  0
 16 17  1  1  0  0  0
 16 13  1  0  0  0  0
 18 16  1  0  0  0  0
 18 19  1  1  0  0  0
 20 22  1  0  0  0  0
 21 20  1  0  0  0  0
 23 24  1  0  0  0  0
 23 18  1  0  0  0  0
 25  1  1  0  0  0  0
 26 43  1  6  0  0  0
 26 20  1  0  0  0  0
 26 23  1  0  0  0  0
 27 41  1  6  0  0  0
 27 26  1  0  0  0  0
 27 28  1  0  0  0  0
 28 29  1  6  0  0  0
 28  1  1  0  0  0  0
 28 42  1  0  0  0  0
 29 31  1  0  0  0  0
 30 29  1  0  0  0  0
 32 34  1  0  0  0  0
 32 29  1  0  0  0  0
 33 32  1  0  0  0  0
 35 38  1  0  0  0  0
 35 32  1  0  0  0  0
 36 35  1  0  0  0  0
 37 35  1  0  0  0  0
 38 40  1  0  0  0  0
 38 27  1  0  0  0  0
 39 38  1  0  0  0  0
 42 18  1  0  0  0  0
 42 45  1  0  0  0  0
 44 23  1  0  0  0  0
 46 42  1  0  0  0  0
M  END
$$$$
