CSD_code = AMISAR | q = 0 | S = 0 | Stoichiometry = C29H34Cl2P2Pt | MND = 4
 OpenBabel04212202003D

 68 72  0  0  0  0  0  0  0  0999 V2000
   18.1267    1.3698    4.6374 Pt  0  0  0  0  0  0  0  0  0  0  0  0
   20.3899    1.0808    5.0904 Cl  0  0  0  0  0  0  0  0  0  0  0  0
   18.5661    2.8374    2.9133 Cl  0  0  0  0  0  0  0  0  0  0  0  0
   15.8531    1.2609    4.4388 P   0  0  0  0  0  4  0  0  0  0  0  0
   17.9891   -0.0007    6.4148 P   0  0  0  0  0  4  0  0  0  0  0  0
   13.9534   -0.4087    6.1009 C   0  0  0  0  0  0  0  0  0  0  0  0
   13.3649    0.4019    6.5387 H   0  0  0  0  0  0  0  0  0  0  0  0
   13.3789   -0.8050    5.2647 H   0  0  0  0  0  0  0  0  0  0  0  0
   15.3318    0.0694    5.7198 C   0  0  0  0  0  0  0  0  0  0  0  0
   16.2636   -0.5517    6.4950 C   0  0  0  0  0  0  0  0  0  0  0  0
   15.6217   -1.5339    7.3521 C   0  0  0  0  0  0  0  0  0  0  0  0
   16.1370   -2.4703    8.2374 C   0  0  0  0  0  0  0  0  0  0  0  0
   17.2020   -2.5741    8.3825 H   0  0  0  0  0  0  0  0  0  0  0  0
   15.2552   -3.2972    8.9116 C   0  0  0  0  0  0  0  0  0  0  0  0
   15.6393   -4.0321    9.6033 H   0  0  0  0  0  0  0  0  0  0  0  0
   13.8856   -3.2009    8.7083 C   0  0  0  0  0  0  0  0  0  0  0  0
   13.2191   -3.8571    9.2476 H   0  0  0  0  0  0  0  0  0  0  0  0
   13.3649   -2.2816    7.8093 C   0  0  0  0  0  0  0  0  0  0  0  0
   12.2997   -2.2196    7.6409 H   0  0  0  0  0  0  0  0  0  0  0  0
   14.2379   -1.4580    7.1298 C   0  0  0  0  0  0  0  0  0  0  0  0
   14.8417    2.8115    4.7965 C   0  0  0  0  0  0  0  0  0  0  0  0
   15.0892    3.0768    6.2852 C   0  0  0  0  0  0  0  0  0  0  0  0
   14.6868    4.0488    6.5651 H   0  0  0  0  0  0  0  0  0  0  0  0
   16.1627    3.0818    6.4838 H   0  0  0  0  0  0  0  0  0  0  0  0
   14.6300    2.3222    6.9208 H   0  0  0  0  0  0  0  0  0  0  0  0
   13.3492    2.7053    4.5000 C   0  0  0  0  0  0  0  0  0  0  0  0
   12.8570    3.6195    4.8310 H   0  0  0  0  0  0  0  0  0  0  0  0
   12.8847    1.8700    5.0169 H   0  0  0  0  0  0  0  0  0  0  0  0
   13.1704    2.6023    3.4325 H   0  0  0  0  0  0  0  0  0  0  0  0
   15.4492    3.9659    4.0001 C   0  0  0  0  0  0  0  0  0  0  0  0
   15.0784    4.9147    4.3846 H   0  0  0  0  0  0  0  0  0  0  0  0
   15.1966    3.9068    2.9462 H   0  0  0  0  0  0  0  0  0  0  0  0
   16.5356    3.9586    4.0840 H   0  0  0  0  0  0  0  0  0  0  0  0
   15.4350    0.4158    2.8036 C   0  0  0  0  0  0  0  0  0  0  0  0
   16.5511   -0.6215    2.6431 C   0  0  0  0  0  0  0  0  0  0  0  0
   16.4340   -1.1609    1.7049 H   0  0  0  0  0  0  0  0  0  0  0  0
   16.5300   -1.3443    3.4604 H   0  0  0  0  0  0  0  0  0  0  0  0
   17.5297   -0.1288    2.6328 H   0  0  0  0  0  0  0  0  0  0  0  0
   15.5542    1.4594    1.6953 C   0  0  0  0  0  0  0  0  0  0  0  0
   15.6270    0.9625    0.7291 H   0  0  0  0  0  0  0  0  0  0  0  0
   16.4537    2.0599    1.8377 H   0  0  0  0  0  0  0  0  0  0  0  0
   14.6844    2.1120    1.6714 H   0  0  0  0  0  0  0  0  0  0  0  0
   14.0814   -0.2886    2.7347 C   0  0  0  0  0  0  0  0  0  0  0  0
   13.8891   -0.5745    1.7010 H   0  0  0  0  0  0  0  0  0  0  0  0
   13.2664    0.3519    3.0596 H   0  0  0  0  0  0  0  0  0  0  0  0
   14.0853   -1.1995    3.3293 H   0  0  0  0  0  0  0  0  0  0  0  0
   18.9765   -1.4948    6.6355 C   0  0  0  0  0  0  0  0  0  0  0  0
   18.6131   -2.6523    5.9525 C   0  0  0  0  0  0  0  0  0  0  0  0
   17.7134   -2.6565    5.3509 H   0  0  0  0  0  0  0  0  0  0  0  0
   19.3971   -3.7856    6.0515 C   0  0  0  0  0  0  0  0  0  0  0  0
   19.1137   -4.6851    5.5249 H   0  0  0  0  0  0  0  0  0  0  0  0
   20.5508   -3.7639    6.8200 C   0  0  0  0  0  0  0  0  0  0  0  0
   21.1653   -4.6490    6.8926 H   0  0  0  0  0  0  0  0  0  0  0  0
   20.9230   -2.6070    7.4857 C   0  0  0  0  0  0  0  0  0  0  0  0
   21.8292   -2.5893    8.0729 H   0  0  0  0  0  0  0  0  0  0  0  0
   20.1424   -1.4692    7.3929 C   0  0  0  0  0  0  0  0  0  0  0  0
   20.4348   -0.5567    7.8929 H   0  0  0  0  0  0  0  0  0  0  0  0
   18.1788    0.9595    7.9449 C   0  0  0  0  0  0  0  0  0  0  0  0
   17.9642    0.4167    9.2078 C   0  0  0  0  0  0  0  0  0  0  0  0
   17.6925   -0.6225    9.3140 H   0  0  0  0  0  0  0  0  0  0  0  0
   18.1016    1.2131   10.3301 C   0  0  0  0  0  0  0  0  0  0  0  0
   17.9372    0.7894   11.3102 H   0  0  0  0  0  0  0  0  0  0  0  0
   18.4510    2.5482   10.2014 C   0  0  0  0  0  0  0  0  0  0  0  0
   18.5598    3.1632   11.0825 H   0  0  0  0  0  0  0  0  0  0  0  0
   18.6642    3.0921    8.9454 C   0  0  0  0  0  0  0  0  0  0  0  0
   18.9411    4.1308    8.8436 H   0  0  0  0  0  0  0  0  0  0  0  0
   18.5265    2.3010    7.8196 C   0  0  0  0  0  0  0  0  0  0  0  0
   18.7112    2.7102    6.8290 H   0  0  0  0  0  0  0  0  0  0  0  0
  1  2  1  0  0  0  0
  1  5  1  0  0  0  0
  3  1  1  0  0  0  0
  4  1  1  0  0  0  0
  4 21  1  0  0  0  0
  4  9  1  0  0  0  0
  5 10  1  0  0  0  0
  5 47  1  0  0  0  0
  5 58  1  0  0  0  0
  6  7  1  0  0  0  0
  6 20  1  0  0  0  0
  8  6  1  0  0  0  0
  9  6  1  0  0  0  0
  9 10  2  0  0  0  0
 10 11  1  0  0  0  0
 11 12  1  0  0  0  0
 12 13  1  0  0  0  0
 12 14  2  0  0  0  0
 14 15  1  0  0  0  0
 16 14  1  0  0  0  0
 16 17  1  0  0  0  0
 18 16  2  0  0  0  0
 19 18  1  0  0  0  0
 20 11  2  0  0  0  0
 20 18  1  0  0  0  0
 21 22  1  0  0  0  0
 22 24  1  0  0  0  0
 22 23  1  0  0  0  0
 22 25  1  0  0  0  0
 26 21  1  0  0  0  0
 26 27  1  0  0  0  0
 26 28  1  0  0  0  0
 29 26  1  0  0  0  0
 30 33  1  0  0  0  0
 30 31  1  0  0  0  0
 30 21  1  0  0  0  0
 32 30  1  0  0  0  0
 34  4  1  0  0  0  0
 35 34  1  0  0  0  0
 35 37  1  0  0  0  0
 36 35  1  0  0  0  0
 38 35  1  0  0  0  0
 39 41  1  0  0  0  0
 39 34  1  0  0  0  0
 40 39  1  0  0  0  0
 42 39  1  0  0  0  0
 43 34  1  0  0  0  0
 43 45  1  0  0  0  0
 43 46  1  0  0  0  0
 44 43  1  0  0  0  0
 47 56  1  0  0  0  0
 48 50  1  0  0  0  0
 48 47  2  0  0  0  0
 49 48  1  0  0  0  0
 50 52  2  0  0  0  0
 51 50  1  0  0  0  0
 52 53  1  0  0  0  0
 52 54  1  0  0  0  0
 54 55  1  0  0  0  0
 56 54  2  0  0  0  0
 56 57  1  0  0  0  0
 58 59  1  0  0  0  0
 59 60  1  0  0  0  0
 59 61  2  0  0  0  0
 61 62  1  0  0  0  0
 63 61  1  0  0  0  0
 63 64  1  0  0  0  0
 65 63  2  0  0  0  0
 66 65  1  0  0  0  0
 67 58  2  0  0  0  0
 67 65  1  0  0  0  0
 68 67  1  0  0  0  0
M  END
$$$$
