CSD_code = AMOMOE | q = 0 | S = 0 | Stoichiometry = C4H8ClOS3Tc | MND = 5
 OpenBabel04212202003D

 18 19  0  0  0  0  0  0  0  0999 V2000
   -4.8992   -1.6061   -5.3628 Tc  0  0  0  0  0  0  0  0  0  0  0  0
   -3.5367   -2.9731   -4.2131 Cl  0  0  0  0  0  0  0  0  0  0  0  0
   -2.9888   -0.8939   -6.4442 S   0  0  0  0  0  0  0  0  0  0  0  0
   -6.1077   -0.4768   -7.2358 S   0  0  0  0  0  3  0  0  0  0  0  0
   -5.8538   -3.5385   -6.1889 S   0  0  0  0  0  0  0  0  0  0  0  0
   -5.6207   -0.7138   -4.1934 O   0  0  0  0  0  1  0  0  0  0  0  0
   -3.5605    0.4803   -7.5151 C   0  0  0  0  0  0  0  0  0  0  0  0
   -3.8064    1.3260   -6.8726 H   0  0  0  0  0  0  0  0  0  0  0  0
   -2.7160    0.7455   -8.1517 H   0  0  0  0  0  0  0  0  0  0  0  0
   -4.7492    0.0616   -8.3522 C   0  0  0  0  0  0  0  0  0  0  0  0
   -4.4870   -0.7731   -9.0027 H   0  0  0  0  0  0  0  0  0  0  0  0
   -5.1326    0.8919   -8.9459 H   0  0  0  0  0  0  0  0  0  0  0  0
   -6.8346   -1.8816   -8.1737 C   0  0  0  0  0  0  0  0  0  0  0  0
   -7.6804   -1.4872   -8.7379 H   0  0  0  0  0  0  0  0  0  0  0  0
   -6.0776   -2.2685   -8.8564 H   0  0  0  0  0  0  0  0  0  0  0  0
   -7.2688   -2.9519   -7.1967 C   0  0  0  0  0  0  0  0  0  0  0  0
   -7.6512   -3.8246   -7.7269 H   0  0  0  0  0  0  0  0  0  0  0  0
   -8.0349   -2.5800   -6.5160 H   0  0  0  0  0  0  0  0  0  0  0  0
  1  2  1  0  0  0  0
  1  6  1  0  0  0  0
  3  1  1  0  0  0  0
  4  1  1  0  0  0  0
  5  1  1  0  0  0  0
  7  8  1  0  0  0  0
  7  3  1  0  0  0  0
  9  7  1  0  0  0  0
 10  7  1  0  0  0  0
 10  4  1  0  0  0  0
 11 10  1  0  0  0  0
 12 10  1  0  0  0  0
 13  4  1  0  0  0  0
 13 16  1  0  0  0  0
 14 13  1  0  0  0  0
 15 13  1  0  0  0  0
 16 18  1  0  0  0  0
 16  5  1  0  0  0  0
 17 16  1  0  0  0  0
M  END
$$$$
