CSD_code = AMOXEF | q = 0 | S = 0 | Stoichiometry = C16H22Cl3OP2Re | MND = 6
 OpenBabel04212202003D

 45 46  0  0  0  0  0  0  0  0999 V2000
    6.9276    1.4849    7.9099 Re  0  0  0  0  0  0  0  0  0  0  0  0
    5.0655   -0.0032    8.4952 P   0  0  0  0  0  4  0  0  0  0  0  0
    7.7066    0.5111    5.7892 P   0  0  0  0  0  4  0  0  0  0  0  0
    5.2542    2.4262    6.7226 Cl  0  0  0  0  0  0  0  0  0  0  0  0
    6.3451    2.7716    9.7663 Cl  0  0  0  0  0  0  0  0  0  0  0  0
    8.3322    3.1971    7.1859 Cl  0  0  0  0  0  0  0  0  0  0  0  0
    8.0292    0.4912    8.6649 O   0  0  0  0  0  1  0  0  0  0  0  0
    4.1269   -0.7033    7.0983 C   0  0  0  0  0  0  0  0  0  0  0  0
    4.7433   -1.3981    6.5330 H   0  0  0  0  0  0  0  0  0  0  0  0
    3.8296    0.1229    6.4539 H   0  0  0  0  0  0  0  0  0  0  0  0
    3.2386   -1.2069    7.4771 H   0  0  0  0  0  0  0  0  0  0  0  0
    3.7738    0.8190    9.4766 C   0  0  0  0  0  0  0  0  0  0  0  0
    4.2193    1.2194   10.3859 H   0  0  0  0  0  0  0  0  0  0  0  0
    2.9911    0.0996    9.7176 H   0  0  0  0  0  0  0  0  0  0  0  0
    3.3671    1.6438    8.8921 H   0  0  0  0  0  0  0  0  0  0  0  0
    5.5722   -1.3895    9.5463 C   0  0  0  0  0  0  0  0  0  0  0  0
    6.3989   -1.0711   10.6213 C   0  0  0  0  0  0  0  0  0  0  0  0
    6.7049   -0.0415   10.7613 H   0  0  0  0  0  0  0  0  0  0  0  0
    6.8385   -2.0651   11.4742 C   0  0  0  0  0  0  0  0  0  0  0  0
    7.4804   -1.8177   12.3061 H   0  0  0  0  0  0  0  0  0  0  0  0
    6.4612   -3.3813   11.2544 C   0  0  0  0  0  0  0  0  0  0  0  0
    6.8080   -4.1604   11.9171 H   0  0  0  0  0  0  0  0  0  0  0  0
    5.6465   -3.7003   10.1812 C   0  0  0  0  0  0  0  0  0  0  0  0
    5.3579   -4.7270   10.0080 H   0  0  0  0  0  0  0  0  0  0  0  0
    5.2006   -2.7087    9.3236 C   0  0  0  0  0  0  0  0  0  0  0  0
    4.5721   -2.9672    8.4848 H   0  0  0  0  0  0  0  0  0  0  0  0
    7.2370    1.3924    4.2745 C   0  0  0  0  0  0  0  0  0  0  0  0
    6.1589    1.3436    4.1323 H   0  0  0  0  0  0  0  0  0  0  0  0
    7.7623    0.9720    3.4176 H   0  0  0  0  0  0  0  0  0  0  0  0
    7.5272    2.4348    4.4120 H   0  0  0  0  0  0  0  0  0  0  0  0
    9.5266    0.4687    5.7267 C   0  0  0  0  0  0  0  0  0  0  0  0
    9.8944   -0.0458    6.6137 H   0  0  0  0  0  0  0  0  0  0  0  0
    9.8930    1.4945    5.7342 H   0  0  0  0  0  0  0  0  0  0  0  0
    9.8518   -0.0519    4.8257 H   0  0  0  0  0  0  0  0  0  0  0  0
    7.2701   -1.2376    5.5820 C   0  0  0  0  0  0  0  0  0  0  0  0
    7.4910   -2.0536    6.6903 C   0  0  0  0  0  0  0  0  0  0  0  0
    7.8860   -1.6081    7.5959 H   0  0  0  0  0  0  0  0  0  0  0  0
    7.1891   -3.4004    6.6332 C   0  0  0  0  0  0  0  0  0  0  0  0
    7.3658   -4.0291    7.4928 H   0  0  0  0  0  0  0  0  0  0  0  0
    6.6490   -3.9373    5.4735 C   0  0  0  0  0  0  0  0  0  0  0  0
    6.4069   -4.9885    5.4268 H   0  0  0  0  0  0  0  0  0  0  0  0
    6.4131   -3.1258    4.3763 C   0  0  0  0  0  0  0  0  0  0  0  0
    5.9859   -3.5445    3.4769 H   0  0  0  0  0  0  0  0  0  0  0  0
    6.7222   -1.7762    4.4253 C   0  0  0  0  0  0  0  0  0  0  0  0
    6.5333   -1.1495    3.5668 H   0  0  0  0  0  0  0  0  0  0  0  0
  1  2  1  0  0  0  0
  1  7  1  0  0  0  0
  1  5  1  0  0  0  0
  2 12  1  0  0  0  0
  2 16  1  0  0  0  0
  3  1  1  0  0  0  0
  4  1  1  0  0  0  0
  6  1  1  0  0  0  0
  8 11  1  0  0  0  0
  8  2  1  0  0  0  0
  9  8  1  0  0  0  0
 10  8  1  0  0  0  0
 12 14  1  0  0  0  0
 12 13  1  0  0  0  0
 15 12  1  0  0  0  0
 16 17  1  0  0  0  0
 17 18  1  0  0  0  0
 17 19  2  0  0  0  0
 19 20  1  0  0  0  0
 21 19  1  0  0  0  0
 21 22  1  0  0  0  0
 23 21  2  0  0  0  0
 24 23  1  0  0  0  0
 25 16  2  0  0  0  0
 25 23  1  0  0  0  0
 26 25  1  0  0  0  0
 27 30  1  0  0  0  0
 27  3  1  0  0  0  0
 28 27  1  0  0  0  0
 29 27  1  0  0  0  0
 31 33  1  0  0  0  0
 31  3  1  0  0  0  0
 31 32  1  0  0  0  0
 34 31  1  0  0  0  0
 35  3  1  0  0  0  0
 35 36  1  0  0  0  0
 36 37  1  0  0  0  0
 38 36  2  0  0  0  0
 38 39  1  0  0  0  0
 40 38  1  0  0  0  0
 41 40  1  0  0  0  0
 42 44  1  0  0  0  0
 42 40  2  0  0  0  0
 43 42  1  0  0  0  0
 44 35  2  0  0  0  0
 45 44  1  0  0  0  0
M  END
$$$$
