CSD_code = AMUNAZ | q = 0 | S = 0 | Stoichiometry = C17H16ClN3Pd | MND = 4
 OpenBabel04212202003D

 38 41  0  0  0  0  0  0  0  0999 V2000
    5.6695    7.2875    3.9426 Pd  0  0  1  0  0  0  0  0  0  0  0  0
    6.8090    8.4054    2.2137 Cl  0  0  0  0  0  0  0  0  0  0  0  0
    6.6860    8.4662    5.1924 N   0  0  0  0  0  0  0  0  0  0  0  0
    4.5770    6.1134    2.7687 N   0  0  0  0  0  0  0  0  0  0  0  0
    8.5088    7.1698    4.6887 N   0  0  0  0  0  0  0  0  0  0  0  0
    7.8935    6.7949    3.9496 H   0  0  0  0  0  0  0  0  0  0  0  0
    9.4951    7.1522    4.4880 H   0  0  0  0  0  0  0  0  0  0  0  0
    6.1031    9.5070    5.7882 C   0  0  0  0  0  3  0  0  0  0  0  0
    5.0274    9.5957    5.6550 H   0  0  0  0  0  0  0  0  0  0  0  0
    6.8212   10.4190    6.5290 C   0  0  0  0  0  0  0  0  0  0  0  0
    6.3291   11.2572    6.9938 H   0  0  0  0  0  0  0  0  0  0  0  0
    8.1953   10.2314    6.6612 C   0  0  0  0  0  0  0  0  0  0  0  0
    8.7821   10.9295    7.2398 H   0  0  0  0  0  0  0  0  0  0  0  0
    8.8138    9.1591    6.0531 C   0  0  0  0  0  0  0  0  0  0  0  0
    8.0085    8.2808    5.2957 C   0  0  0  0  0  0  0  0  0  0  0  0
   10.2871    8.9182    6.1686 C   0  0  0  0  0  0  0  0  0  0  0  0
   10.7415    9.6618    6.8175 H   0  0  0  0  0  0  0  0  0  0  0  0
   10.7640    8.9810    5.1901 H   0  0  0  0  0  0  0  0  0  0  0  0
   10.4817    7.9291    6.5816 H   0  0  0  0  0  0  0  0  0  0  0  0
    4.6620    6.0929    1.4424 C   0  0  0  0  0  0  0  0  0  0  0  0
    5.4088    6.7413    0.9954 H   0  0  0  0  0  0  0  0  0  0  0  0
    3.8478    5.2964    0.6554 C   0  0  0  0  0  0  0  0  0  0  0  0
    3.9515    5.3125   -0.4174 H   0  0  0  0  0  0  0  0  0  0  0  0
    2.9054    4.4907    1.2772 C   0  0  0  0  0  0  0  0  0  0  0  0
    2.2495    3.8597    0.6960 H   0  0  0  0  0  0  0  0  0  0  0  0
    2.8202    4.5070    2.6560 C   0  0  0  0  0  0  0  0  0  0  0  0
    2.0973    3.8880    3.1621 H   0  0  0  0  0  0  0  0  0  0  0  0
    3.6710    5.3285    3.3960 C   0  0  0  0  0  0  0  0  0  0  0  0
    3.6988    5.4215    4.8519 C   0  0  0  0  0  0  0  0  0  0  0  0
    2.8720    4.6825    5.6982 C   0  0  0  0  0  0  0  0  0  0  0  0
    2.1374    4.0012    5.2939 H   0  0  0  0  0  0  0  0  0  0  0  0
    2.9890    4.8191    7.0668 C   0  0  0  0  0  0  0  0  0  0  0  0
    2.3490    4.2479    7.7237 H   0  0  0  0  0  0  0  0  0  0  0  0
    3.9307    5.6878    7.5959 C   0  0  0  0  0  0  0  0  0  0  0  0
    4.0246    5.7889    8.6683 H   0  0  0  0  0  0  0  0  0  0  0  0
    4.7515    6.4285    6.7584 C   0  0  0  0  0  0  0  0  0  0  0  0
    5.4784    7.0986    7.2041 H   0  0  0  0  0  0  0  0  0  0  0  0
    4.6565    6.3184    5.3743 C   0  0  0  0  0  0  0  0  0  0  0  0
  1  2  1  1  0  0  0
  1  3  1  0  0  0  0
  1 38  2  0  0  0  0
  3 15  1  0  0  0  0
  3  8  1  0  0  0  0
  4 28  1  0  0  0  0
  4  1  1  0  0  0  0
  5 15  1  0  0  0  0
  6  5  1  0  0  0  0
  7  5  1  0  0  0  0
  8 10  1  0  0  0  0
  9  8  1  0  0  0  0
 10 12  2  0  0  0  0
 10 11  1  0  0  0  0
 12 13  1  0  0  0  0
 14 16  1  0  0  0  0
 14 12  1  0  0  0  0
 15 14  2  0  0  0  0
 16 19  1  0  0  0  0
 16 17  1  0  0  0  0
 18 16  1  0  0  0  0
 20  4  1  0  0  0  0
 21 20  1  0  0  0  0
 22 24  1  0  0  0  0
 22 20  2  0  0  0  0
 23 22  1  0  0  0  0
 24 26  2  0  0  0  0
 25 24  1  0  0  0  0
 26 27  1  0  0  0  0
 26 28  1  0  0  0  0
 28 29  2  0  0  0  0
 29 38  1  0  0  0  0
 29 30  1  0  0  0  0
 30 32  2  0  0  0  0
 31 30  1  0  0  0  0
 32 34  1  0  0  0  0
 32 33  1  0  0  0  0
 34 35  1  0  0  0  0
 36 37  1  0  0  0  0
 36 34  2  0  0  0  0
 38 36  1  0  0  0  0
M  END
$$$$
