CSD_code = AMUNON | q = 0 | S = 0 | Stoichiometry = C15H13ClN4Pd | MND = 4
 OpenBabel04212202003D

 34 37  0  0  1  0  0  0  0  0999 V2000
    3.7356    7.2310   10.4555 Pd  0  0  1  0  0  0  0  0  0  0  0  0
    5.7629    6.2012    9.8493 Cl  0  0  0  0  0  0  0  0  0  0  0  0
    6.4835   10.1844   11.4432 N   0  0  0  0  0  0  0  0  0  0  0  0
    2.6438    5.5748   10.4847 N   0  0  0  0  0  0  0  0  0  0  0  0
    4.7525    8.9377   10.4142 N   0  0  0  0  0  0  0  0  0  0  0  0
    3.1324    4.3552   10.2813 C   0  0  0  0  0  0  0  0  0  0  0  0
    4.2046    4.2817   10.1301 H   0  0  0  0  0  0  0  0  0  0  0  0
    5.6837    9.1228   11.3776 C   0  0  2  0  0  3  0  0  0  0  0  0
    6.3843   11.0864   10.4858 C   0  0  0  0  0  0  0  0  0  0  0  0
    7.0532   11.9320   10.5700 H   0  0  0  0  0  0  0  0  0  0  0  0
    0.9126    7.1215   10.9300 C   0  0  0  0  0  0  0  0  0  0  0  0
    5.7508    8.1938   12.3499 N   0  0  0  0  0  0  0  0  0  0  0  0
    6.5380    8.2567   12.9756 H   0  0  0  0  0  0  0  0  0  0  0  0
    5.4126    7.2572   12.0850 H   0  0  0  0  0  0  0  0  0  0  0  0
    2.3317    3.2264   10.2539 C   0  0  0  0  0  0  0  0  0  0  0  0
    2.7719    2.2572   10.0846 H   0  0  0  0  0  0  0  0  0  0  0  0
    4.6653    9.8454    9.4496 C   0  0  0  0  0  0  0  0  0  0  0  0
    3.9158    9.6702    8.6817 H   0  0  0  0  0  0  0  0  0  0  0  0
    1.9667    8.0616   10.9169 C   0  0  0  0  0  0  0  0  0  0  0  0
    1.6501    9.3907   11.1802 C   0  0  0  0  0  0  0  0  0  0  0  0
    2.4274   10.1471   11.1925 H   0  0  0  0  0  0  0  0  0  0  0  0
    5.4865   10.9617    9.4333 C   0  0  0  0  0  0  0  0  0  0  0  0
    5.4237   11.6937    8.6474 H   0  0  0  0  0  0  0  0  0  0  0  0
    0.9659    3.3753   10.4435 C   0  0  0  0  0  0  0  0  0  0  0  0
    0.3094    2.5182   10.4229 H   0  0  0  0  0  0  0  0  0  0  0  0
    0.3443    9.7804   11.4409 C   0  0  0  0  0  0  0  0  0  0  0  0
    0.1241   10.8187   11.6464 H   0  0  0  0  0  0  0  0  0  0  0  0
    1.3160    5.7410   10.6833 C   0  0  0  0  0  0  0  0  0  0  0  0
    0.4580    4.6413   10.6622 C   0  0  0  0  0  0  0  0  0  0  0  0
   -0.5995    4.7828   10.8153 H   0  0  0  0  0  0  0  0  0  0  0  0
   -0.3996    7.5190   11.1863 C   0  0  0  0  0  0  0  0  0  0  0  0
   -1.2033    6.7971   11.1898 H   0  0  0  0  0  0  0  0  0  0  0  0
   -0.6801    8.8471   11.4385 C   0  0  0  0  0  0  0  0  0  0  0  0
   -1.6958    9.1566   11.6367 H   0  0  0  0  0  0  0  0  0  0  0  0
  1  2  1  6  0  0  0
  1  4  1  0  0  0  0
  1 19  2  0  0  0  0
  4 28  1  0  0  0  0
  5  1  1  0  0  0  0
  5  8  1  0  0  0  0
  6  4  1  0  0  0  0
  7  6  1  0  0  0  0
  8  3  1  0  0  0  0
  8 12  1  1  0  0  0
  9 10  1  0  0  0  0
  9  3  2  0  0  0  0
 11 31  1  0  0  0  0
 12 13  1  0  0  0  0
 14 12  1  0  0  0  0
 15  6  2  0  0  0  0
 15 24  1  0  0  0  0
 16 15  1  0  0  0  0
 17  5  1  0  0  0  0
 18 17  1  0  0  0  0
 19 11  1  0  0  0  0
 19 20  1  0  0  0  0
 20 21  1  0  0  0  0
 20 26  2  0  0  0  0
 22 17  2  0  0  0  0
 22  9  1  0  0  0  0
 23 22  1  0  0  0  0
 24 29  2  0  0  0  0
 25 24  1  0  0  0  0
 26 27  1  0  0  0  0
 28 11  2  0  0  0  0
 29 28  1  0  0  0  0
 29 30  1  0  0  0  0
 31 32  1  0  0  0  0
 31 33  2  0  0  0  0
 33 26  1  0  0  0  0
 33 34  1  0  0  0  0
M  END
$$$$
