CSD_code = ANAWIW | q = 0 | S = 0 | Stoichiometry = C24H22BCl3N6O3Zr | MND = 6
 OpenBabel04212202003D

 60 67  0  0  1  0  0  0  0  0999 V2000
    5.9236   10.8196   12.2598 Zr  0  0  0  0  0  0  0  0  0  0  0  0
    4.0483    9.8021    9.1378 B   0  0  2  0  0  0  0  0  0  0  0  0
    3.4615    9.4841    8.1614 H   0  0  0  0  0  0  0  0  0  0  0  0
    5.5388    8.9349   11.6126 O   0  0  0  0  0  0  0  0  0  0  0  0
    6.3983   11.2644   10.3379 O   0  0  0  0  0  0  0  0  0  0  0  0
    4.0049   11.2634   11.7751 O   0  0  0  0  0  0  0  0  0  0  0  0
    5.3249    8.9433    9.2899 N   0  0  0  0  0  0  0  0  0  0  0  0
    7.0836    7.9468   10.2151 N   0  0  0  0  0  0  0  0  0  0  0  0
    4.4543   11.2915    9.0484 N   0  0  0  0  0  0  0  0  0  0  0  0
    5.5294   13.1988    9.4340 N   0  0  0  0  0  0  0  0  0  0  0  0
    3.1524    9.5986   10.3814 N   0  0  0  0  0  0  0  0  0  0  0  0
    2.3532    9.8019   12.4460 N   0  0  0  0  0  0  0  0  0  0  0  0
    5.9451    8.6439   10.4513 C   0  0  2  0  0  3  0  0  0  0  0  0
    7.2358    7.8272    8.8486 C   0  0  0  0  0  0  0  0  0  0  0  0
    8.2243    7.2385    8.0802 C   0  0  0  0  0  0  0  0  0  0  0  0
    9.0782    6.7621    8.5336 H   0  0  0  0  0  0  0  0  0  0  0  0
    8.0738    7.2986    6.7057 C   0  0  0  0  0  0  0  0  0  0  0  0
    8.8253    6.8538    6.0721 H   0  0  0  0  0  0  0  0  0  0  0  0
    6.9768    7.9264    6.1234 C   0  0  0  0  0  0  0  0  0  0  0  0
    6.8992    7.9567    5.0474 H   0  0  0  0  0  0  0  0  0  0  0  0
    5.9861    8.5179    6.8884 C   0  0  0  0  0  0  0  0  0  0  0  0
    5.1431    9.0107    6.4341 H   0  0  0  0  0  0  0  0  0  0  0  0
    6.1223    8.4597    8.2652 C   0  0  0  0  0  0  0  0  0  0  0  0
    7.9816    7.4852   11.2430 C   0  0  0  0  0  0  0  0  0  0  0  0
    7.4980    7.6411   12.2109 H   0  0  0  0  0  0  0  0  0  0  0  0
    8.9084    8.0621   11.2250 H   0  0  0  0  0  0  0  0  0  0  0  0
    8.1938    6.4253   11.0967 H   0  0  0  0  0  0  0  0  0  0  0  0
    5.5133   11.8625    9.6614 C   0  0  2  0  0  3  0  0  0  0  0  0
    4.4166   13.5179    8.6825 C   0  0  0  0  0  0  0  0  0  0  0  0
    3.9469   14.7265    8.1999 C   0  0  0  0  0  0  0  0  0  0  0  0
    4.4687   15.6492    8.3949 H   0  0  0  0  0  0  0  0  0  0  0  0
    2.7738   14.6991    7.4660 C   0  0  0  0  0  0  0  0  0  0  0  0
    2.3739   15.6216    7.0748 H   0  0  0  0  0  0  0  0  0  0  0  0
    2.0958   13.5075    7.2274 C   0  0  0  0  0  0  0  0  0  0  0  0
    1.1812   13.5294    6.6550 H   0  0  0  0  0  0  0  0  0  0  0  0
    2.5611   12.2962    7.7101 C   0  0  0  0  0  0  0  0  0  0  0  0
    2.0290   11.3771    7.5310 H   0  0  0  0  0  0  0  0  0  0  0  0
    3.7373   12.3095    8.4409 C   0  0  0  0  0  0  0  0  0  0  0  0
    6.5249   14.0992    9.9580 C   0  0  0  0  0  0  0  0  0  0  0  0
    7.3274   13.4996   10.3954 H   0  0  0  0  0  0  0  0  0  0  0  0
    6.0960   14.7245   10.7433 H   0  0  0  0  0  0  0  0  0  0  0  0
    6.9182   14.7208    9.1525 H   0  0  0  0  0  0  0  0  0  0  0  0
    3.2385   10.2858   11.5405 C   0  0  2  0  0  3  0  0  0  0  0  0
    1.6970    8.7319   11.8723 C   0  0  0  0  0  0  0  0  0  0  0  0
    0.7249    7.8779   12.3620 C   0  0  0  0  0  0  0  0  0  0  0  0
    0.3451    7.9770   13.3658 H   0  0  0  0  0  0  0  0  0  0  0  0
    0.2702    6.8859   11.5107 C   0  0  0  0  0  0  0  0  0  0  0  0
   -0.4856    6.1983   11.8569 H   0  0  0  0  0  0  0  0  0  0  0  0
    0.7723    6.7526   10.2197 C   0  0  0  0  0  0  0  0  0  0  0  0
    0.3954    5.9624    9.5889 H   0  0  0  0  0  0  0  0  0  0  0  0
    1.7463    7.6039    9.7262 C   0  0  0  0  0  0  0  0  0  0  0  0
    2.1386    7.4923    8.7294 H   0  0  0  0  0  0  0  0  0  0  0  0
    2.2052    8.6045   10.5662 C   0  0  0  0  0  0  0  0  0  0  0  0
    2.2036   10.3097   13.7861 C   0  0  0  0  0  0  0  0  0  0  0  0
    2.7788   11.2359   13.8641 H   0  0  0  0  0  0  0  0  0  0  0  0
    2.6018    9.5958   14.5097 H   0  0  0  0  0  0  0  0  0  0  0  0
    1.1499   10.5051   13.9891 H   0  0  0  0  0  0  0  0  0  0  0  0
    8.2165   10.4619   12.5308 Cl  0  0  0  0  0  0  0  0  0  0  0  0
    6.0339   13.0365   12.9940 Cl  0  0  0  0  0  0  0  0  0  0  0  0
    5.3871    9.9851   14.3761 Cl  0  0  0  0  0  0  0  0  0  0  0  0
  1 58  1  0  0  0  0
  1 59  1  0  0  0  0
  1 60  1  0  0  0  0
  2  3  1  6  0  0  0
  2  7  1  0  0  0  0
  2 11  1  0  0  0  0
  4  1  1  0  0  0  0
  5  1  1  0  0  0  0
  6  1  1  0  0  0  0
  7 13  1  0  0  0  0
  8 13  1  0  0  0  0
  8 24  1  0  0  0  0
  9  2  1  0  0  0  0
  9 28  1  0  0  0  0
 10 28  1  0  0  0  0
 10 39  1  0  0  0  0
 11 53  1  0  0  0  0
 11 43  1  0  0  0  0
 12 54  1  0  0  0  0
 13  4  1  1  0  0  0
 14  8  1  0  0  0  0
 15 16  1  0  0  0  0
 15 14  2  0  0  0  0
 17 15  1  0  0  0  0
 18 17  1  0  0  0  0
 19 17  2  0  0  0  0
 19 21  1  0  0  0  0
 20 19  1  0  0  0  0
 21 23  2  0  0  0  0
 22 21  1  0  0  0  0
 23 14  1  0  0  0  0
 23  7  1  0  0  0  0
 24 25  1  0  0  0  0
 26 24  1  0  0  0  0
 27 24  1  0  0  0  0
 28  5  1  6  0  0  0
 29 10  1  0  0  0  0
 30 31  1  0  0  0  0
 30 29  2  0  0  0  0
 32 30  1  0  0  0  0
 33 32  1  0  0  0  0
 34 32  2  0  0  0  0
 34 36  1  0  0  0  0
 35 34  1  0  0  0  0
 36 38  2  0  0  0  0
 37 36  1  0  0  0  0
 38 29  1  0  0  0  0
 38  9  1  0  0  0  0
 39 40  1  0  0  0  0
 39 41  1  0  0  0  0
 42 39  1  0  0  0  0
 43  6  1  6  0  0  0
 43 12  1  0  0  0  0
 44 45  1  0  0  0  0
 44 12  1  0  0  0  0
 45 46  1  0  0  0  0
 47 48  1  0  0  0  0
 47 45  2  0  0  0  0
 49 47  1  0  0  0  0
 50 49  1  0  0  0  0
 51 49  2  0  0  0  0
 51 53  1  0  0  0  0
 52 51  1  0  0  0  0
 53 44  2  0  0  0  0
 54 55  1  0  0  0  0
 54 57  1  0  0  0  0
 54 56  1  0  0  0  0
M  END
$$$$
