CSD_code = ANEGOR | q = 0 | S = 0 | Stoichiometry = C16H28CuIN6 | MND = 3
 OpenBabel04212202003D

 52 53  0  0  0  0  0  0  0  0999 V2000
    7.2017    3.4636   16.4841 I   0  0  0  0  0  0  0  0  0  0  0  0
    6.7853    4.1646   14.1539 Cu  0  0  0  0  0  0  0  0  0  0  0  0
    7.2272    5.7490   13.0173 N   0  0  0  0  0  0  0  0  0  0  0  0
    7.1687    8.0028   13.7451 N   0  0  0  0  0  0  0  0  0  0  0  0
    8.9816    6.6339   14.2260 N   0  0  0  0  0  0  0  0  0  0  0  0
    5.4082    3.7894   12.7536 N   0  0  0  0  0  0  0  0  0  0  0  0
    3.0808    3.5975   13.1522 N   0  0  0  0  0  0  0  0  0  0  0  0
    4.5204    1.8265   13.5791 N   0  0  0  0  0  0  0  0  0  0  0  0
    7.7594    6.7686   13.6292 C   0  0  0  0  0  3  0  0  0  0  0  0
    7.9312    9.2266   13.6960 C   0  0  0  0  0  0  0  0  0  0  0  0
    8.9916    8.9998   13.6286 H   0  0  0  0  0  0  0  0  0  0  0  0
    7.7485    9.8392   14.5838 H   0  0  0  0  0  0  0  0  0  0  0  0
    7.6381    9.8082   12.8147 H   0  0  0  0  0  0  0  0  0  0  0  0
    5.7440    8.1648   13.6219 C   0  0  0  0  0  0  0  0  0  0  0  0
    5.4378    8.4583   12.6105 H   0  0  0  0  0  0  0  0  0  0  0  0
    5.4182    8.9347   14.3254 H   0  0  0  0  0  0  0  0  0  0  0  0
    5.2467    7.2310   13.8773 H   0  0  0  0  0  0  0  0  0  0  0  0
    9.7779    5.4743   13.8942 C   0  0  0  0  0  0  0  0  0  0  0  0
    9.4989    4.5999   14.4907 H   0  0  0  0  0  0  0  0  0  0  0  0
   10.8248    5.7102   14.0866 H   0  0  0  0  0  0  0  0  0  0  0  0
    9.6463    5.2342   12.8414 H   0  0  0  0  0  0  0  0  0  0  0  0
    9.2042    7.1209   15.5734 C   0  0  0  0  0  0  0  0  0  0  0  0
    8.4260    7.8220   15.8587 H   0  0  0  0  0  0  0  0  0  0  0  0
   10.1768    7.6132   15.6361 H   0  0  0  0  0  0  0  0  0  0  0  0
    9.1895    6.2853   16.2794 H   0  0  0  0  0  0  0  0  0  0  0  0
    4.3646    3.1104   13.1369 C   0  0  0  0  0  3  0  0  0  0  0  0
    2.8178    5.0116   13.1986 C   0  0  0  0  0  0  0  0  0  0  0  0
    3.6646    5.5261   13.6486 H   0  0  0  0  0  0  0  0  0  0  0  0
    1.9370    5.1826   13.8223 H   0  0  0  0  0  0  0  0  0  0  0  0
    2.6360    5.4405   12.2056 H   0  0  0  0  0  0  0  0  0  0  0  0
    1.9428    2.7724   12.8272 C   0  0  0  0  0  0  0  0  0  0  0  0
    1.4603    3.1514   11.9192 H   0  0  0  0  0  0  0  0  0  0  0  0
    1.2049    2.7845   13.6348 H   0  0  0  0  0  0  0  0  0  0  0  0
    2.2650    1.7499   12.6512 H   0  0  0  0  0  0  0  0  0  0  0  0
    5.7758    1.1618   13.3131 C   0  0  0  0  0  0  0  0  0  0  0  0
    6.1413    1.4580   12.3323 H   0  0  0  0  0  0  0  0  0  0  0  0
    5.6045    0.0852   13.3287 H   0  0  0  0  0  0  0  0  0  0  0  0
    6.5375    1.4077   14.0599 H   0  0  0  0  0  0  0  0  0  0  0  0
    3.8799    1.3833   14.8020 C   0  0  0  0  0  0  0  0  0  0  0  0
    3.0855    2.0668   15.0853 H   0  0  0  0  0  0  0  0  0  0  0  0
    4.6108    1.3501   15.6153 H   0  0  0  0  0  0  0  0  0  0  0  0
    3.4655    0.3825   14.6645 H   0  0  0  0  0  0  0  0  0  0  0  0
    6.3658    5.8200   11.9357 C   0  0  0  0  0  0  0  0  0  0  0  0
    6.4894    6.7736   10.9302 C   0  0  0  0  0  0  0  0  0  0  0  0
    7.2532    7.5345   11.0186 H   0  0  0  0  0  0  0  0  0  0  0  0
    5.6733    6.7294    9.8140 C   0  0  0  0  0  0  0  0  0  0  0  0
    5.7809    7.4777    9.0424 H   0  0  0  0  0  0  0  0  0  0  0  0
    4.7361    5.7197    9.6782 C   0  0  0  0  0  0  0  0  0  0  0  0
    4.1086    5.6759    8.8000 H   0  0  0  0  0  0  0  0  0  0  0  0
    4.6121    4.7512   10.6581 C   0  0  0  0  0  0  0  0  0  0  0  0
    3.9125    3.9354   10.5345 H   0  0  0  0  0  0  0  0  0  0  0  0
    5.4100    4.7904   11.7972 C   0  0  0  0  0  0  0  0  0  0  0  0
  2  1  1  0  0  0  0
  3  9  1  0  0  0  0
  3  2  1  0  0  0  0
  5 22  1  0  0  0  0
  6 26  1  0  0  0  0
  6  2  1  0  0  0  0
  7 27  1  0  0  0  0
  8 39  1  0  0  0  0
  9  4  1  0  0  0  0
  9  5  1  0  0  0  0
 10  4  1  0  0  0  0
 10 12  1  0  0  0  0
 11 10  1  0  0  0  0
 13 10  1  0  0  0  0
 14  4  1  0  0  0  0
 14 17  1  0  0  0  0
 14 16  1  0  0  0  0
 15 14  1  0  0  0  0
 18 20  1  0  0  0  0
 18  5  1  0  0  0  0
 18 19  1  0  0  0  0
 21 18  1  0  0  0  0
 22 24  1  0  0  0  0
 22 23  1  0  0  0  0
 22 25  1  0  0  0  0
 26  7  1  0  0  0  0
 26  8  1  0  0  0  0
 27 28  1  0  0  0  0
 27 29  1  0  0  0  0
 30 27  1  0  0  0  0
 31  7  1  0  0  0  0
 31 33  1  0  0  0  0
 32 31  1  0  0  0  0
 34 31  1  0  0  0  0
 35 37  1  0  0  0  0
 35  8  1  0  0  0  0
 35 38  1  0  0  0  0
 36 35  1  0  0  0  0
 39 40  1  0  0  0  0
 39 41  1  0  0  0  0
 42 39  1  0  0  0  0
 43  3  1  0  0  0  0
 44 45  1  0  0  0  0
 44 43  2  0  0  0  0
 46 44  1  0  0  0  0
 47 46  1  0  0  0  0
 48 46  2  0  0  0  0
 48 50  1  0  0  0  0
 49 48  1  0  0  0  0
 50 52  2  0  0  0  0
 51 50  1  0  0  0  0
 52 43  1  0  0  0  0
 52  6  1  0  0  0  0
M  END
$$$$
