CSD_code = ANICAC | q = 0 | S = 0 | Stoichiometry = C6H14Cl2O3Zn | MND = 5
 OpenBabel04212202003D

 26 24  0  0  0  0  0  0  0  0999 V2000
    8.6159    2.4680    3.6488 Zn  0  0  0  0  0  0  0  0  0  0  0  0
    9.3315    2.4672    1.5703 Cl  0  0  0  0  0  0  0  0  0  0  0  0
    6.8681    2.4687    4.9770 Cl  0  0  0  0  0  0  0  0  0  0  0  0
    9.2217    4.7043    4.0519 O   0  0  0  0  0  0  0  0  0  0  0  0
   10.7198    2.4678    4.6249 O   0  0  0  0  0  0  0  0  0  0  0  0
    8.2978    5.6669    4.5188 C   0  0  0  0  0  0  0  0  0  0  0  0
    8.1267    5.5587    5.5945 H   0  0  0  0  0  0  0  0  0  0  0  0
    7.3654    5.4901    3.9885 H   0  0  0  0  0  0  0  0  0  0  0  0
    8.6624    6.6771    4.3041 H   0  0  0  0  0  0  0  0  0  0  0  0
   10.4910    4.8174    4.6556 C   0  0  0  0  0  0  0  0  0  0  0  0
   10.3922    4.7709    5.7499 H   0  0  0  0  0  0  0  0  0  0  0  0
   10.9591    5.7709    4.3729 H   0  0  0  0  0  0  0  0  0  0  0  0
   11.3453    3.6546    4.1731 C   0  0  0  0  0  0  0  0  0  0  0  0
   11.3912    3.6628    3.0773 H   0  0  0  0  0  0  0  0  0  0  0  0
   12.3583    3.7254    4.5909 H   0  0  0  0  0  0  0  0  0  0  0  0
    9.2212    0.2322    4.0535 O   0  0  0  0  0  0  0  0  0  0  0  0
    8.2980   -0.7308    4.5210 C   0  0  0  0  0  0  0  0  0  0  0  0
    8.1311   -0.6256    5.5976 H   0  0  0  0  0  0  0  0  0  0  0  0
    7.3639   -0.5515    3.9947 H   0  0  0  0  0  0  0  0  0  0  0  0
    8.6608   -1.7407    4.3020 H   0  0  0  0  0  0  0  0  0  0  0  0
   10.4917    0.1181    4.6543 C   0  0  0  0  0  0  0  0  0  0  0  0
   10.3951    0.1629    5.7489 H   0  0  0  0  0  0  0  0  0  0  0  0
   10.9591   -0.8351    4.3694 H   0  0  0  0  0  0  0  0  0  0  0  0
   11.3453    1.2814    4.1718 C   0  0  0  0  0  0  0  0  0  0  0  0
   11.3903    1.2740    3.0760 H   0  0  0  0  0  0  0  0  0  0  0  0
   12.3586    1.2106    4.5888 H   0  0  0  0  0  0  0  0  0  0  0  0
  1  3  1  0  0  0  0
  2  1  1  0  0  0  0
  4  6  1  0  0  0  0
  4 10  1  0  0  0  0
  6  7  1  0  0  0  0
  8  6  1  0  0  0  0
  9  6  1  0  0  0  0
 10 11  1  0  0  0  0
 12 10  1  0  0  0  0
 13 15  1  0  0  0  0
 13  5  1  0  0  0  0
 13 10  1  0  0  0  0
 14 13  1  0  0  0  0
 16 17  1  0  0  0  0
 16 21  1  0  0  0  0
 17 18  1  0  0  0  0
 19 17  1  0  0  0  0
 20 17  1  0  0  0  0
 21 22  1  0  0  0  0
 23 21  1  0  0  0  0
 24 26  1  0  0  0  0
 24  5  1  0  0  0  0
 24 21  1  0  0  0  0
 25 24  1  0  0  0  0
M  END
$$$$
