CSD_code = ANIFEJ | q = 0 | S = 0 | Stoichiometry = C15H25Cl2N3O3RuS2 | MND = 6
 OpenBabel04212202003D

 51 53  0  0  1  0  0  0  0  0999 V2000
    4.6019    3.6941   21.0738 Ru  0  0  0  0  0  0  0  0  0  0  0  0
    3.6292    2.9429   19.0942 Cl  0  0  0  0  0  0  0  0  0  0  0  0
    5.8039    4.2247   23.0099 Cl  0  0  0  0  0  0  0  0  0  0  0  0
    4.8125    5.7435   20.2594 S   0  0  0  0  0  0  0  0  0  0  0  0
    2.6720    4.3665   21.9161 S   0  0  0  0  0  0  0  0  0  0  0  0
    4.4435    1.7006   22.0639 O   0  0  0  0  0  0  0  0  0  0  0  0
    4.5631    6.7792   21.2395 O   0  0  0  0  0  1  0  0  0  0  0  0
    1.8524    5.1398   21.0047 O   0  0  0  0  0  1  0  0  0  0  0  0
    6.4373    2.6656   20.1704 N   0  0  0  0  0  4  0  0  0  0  0  0
    5.8775    2.2581   19.4017 H   0  0  0  0  0  0  0  0  0  0  0  0
    7.2904    3.0835   19.8052 H   0  0  0  0  0  0  0  0  0  0  0  0
    7.5426    0.3292   22.7249 N   0  0  0  0  0  0  0  0  0  0  0  0
    6.1974    0.5266   23.0142 N   0  0  0  0  0  0  0  0  0  0  0  0
    5.6396    1.3664   22.1032 C   0  0  1  0  0  3  0  0  0  0  0  0
    6.7022    1.7299   21.1999 C   0  0  0  0  0  0  0  0  0  0  0  0
    7.8421    1.1296   21.6412 C   0  0  0  0  0  0  0  0  0  0  0  0
    9.2326    1.2374   21.1267 C   0  0  0  0  0  0  0  0  0  0  0  0
    9.2327    1.7040   20.1453 H   0  0  0  0  0  0  0  0  0  0  0  0
    9.6869    0.2523   21.0416 H   0  0  0  0  0  0  0  0  0  0  0  0
    9.8423    1.8436   21.7968 H   0  0  0  0  0  0  0  0  0  0  0  0
    8.4571    0.1543   23.8286 C   0  0  0  0  0  0  0  0  0  0  0  0
    9.4198   -0.1617   23.4348 H   0  0  0  0  0  0  0  0  0  0  0  0
    8.0773   -0.6178   24.4946 H   0  0  0  0  0  0  0  0  0  0  0  0
    8.5808    1.0827   24.3948 H   0  0  0  0  0  0  0  0  0  0  0  0
    5.5483    0.0343   24.1622 C   0  0  0  0  0  0  0  0  0  0  0  0
    5.6031   -1.3139   24.4935 C   0  0  0  0  0  0  0  0  0  0  0  0
    6.1522   -2.0030   23.8686 H   0  0  0  0  0  0  0  0  0  0  0  0
    4.9318   -1.7615   25.6179 C   0  0  0  0  0  0  0  0  0  0  0  0
    4.9709   -2.8076   25.8821 H   0  0  0  0  0  0  0  0  0  0  0  0
    4.2025   -0.8754   26.3935 C   0  0  0  0  0  0  0  0  0  0  0  0
    3.6754   -1.2327   27.2651 H   0  0  0  0  0  0  0  0  0  0  0  0
    4.1465    0.4666   26.0513 C   0  0  0  0  0  0  0  0  0  0  0  0
    3.5806    1.1557   26.6597 H   0  0  0  0  0  0  0  0  0  0  0  0
    4.8241    0.9308   24.9391 C   0  0  0  0  0  0  0  0  0  0  0  0
    4.8124    1.9740   24.6600 H   0  0  0  0  0  0  0  0  0  0  0  0
    6.4780    6.0638   19.5694 C   0  0  0  0  0  0  0  0  0  0  0  0
    6.5433    7.1063   19.2811 H   0  0  0  0  0  0  0  0  0  0  0  0
    6.6170    5.4068   18.7179 H   0  0  0  0  0  0  0  0  0  0  0  0
    7.1925    5.8495   20.3585 H   0  0  0  0  0  0  0  0  0  0  0  0
    3.8323    6.1627   18.7986 C   0  0  0  0  0  0  0  0  0  0  0  0
    2.7940    6.0633   19.1021 H   0  0  0  0  0  0  0  0  0  0  0  0
    4.0620    5.4514   18.0147 H   0  0  0  0  0  0  0  0  0  0  0  0
    4.0574    7.1843   18.5179 H   0  0  0  0  0  0  0  0  0  0  0  0
    1.6737    2.9512   22.4694 C   0  0  0  0  0  0  0  0  0  0  0  0
    0.7442    3.3139   22.8921 H   0  0  0  0  0  0  0  0  0  0  0  0
    2.2642    2.3928   23.1872 H   0  0  0  0  0  0  0  0  0  0  0  0
    1.4835    2.3427   21.5908 H   0  0  0  0  0  0  0  0  0  0  0  0
    2.7471    5.3045   23.4619 C   0  0  0  0  0  0  0  0  0  0  0  0
    3.3224    6.1994   23.2409 H   0  0  0  0  0  0  0  0  0  0  0  0
    3.2611    4.7022   24.2011 H   0  0  0  0  0  0  0  0  0  0  0  0
    1.7371    5.5576   23.7609 H   0  0  0  0  0  0  0  0  0  0  0  0
  1  5  1  0  0  0  0
  1  6  1  0  0  0  0
  1  3  1  0  0  0  0
  2  1  1  0  0  0  0
  4  1  1  0  0  0  0
  4  7  1  0  0  0  0
  5 44  1  0  0  0  0
  5 48  1  0  0  0  0
  6 14  1  0  0  0  0
  8  5  1  0  0  0  0
  9  1  1  0  0  0  0
  9 15  1  0  0  0  0
 10  9  1  0  0  0  0
 11  9  1  0  0  0  0
 12 13  1  0  0  0  0
 12 21  1  0  0  0  0
 13 25  1  0  0  0  0
 14 15  1  6  0  0  0
 14 13  1  0  0  0  0
 15 16  2  0  0  0  0
 16 12  1  0  0  0  0
 17 16  1  0  0  0  0
 17 20  1  0  0  0  0
 18 17  1  0  0  0  0
 19 17  1  0  0  0  0
 21 24  1  0  0  0  0
 21 23  1  0  0  0  0
 22 21  1  0  0  0  0
 25 26  2  0  0  0  0
 25 34  1  0  0  0  0
 26 28  1  0  0  0  0
 27 26  1  0  0  0  0
 28 29  1  0  0  0  0
 28 30  2  0  0  0  0
 30 31  1  0  0  0  0
 32 30  1  0  0  0  0
 32 33  1  0  0  0  0
 34 32  2  0  0  0  0
 35 34  1  0  0  0  0
 36  4  1  0  0  0  0
 36 39  1  0  0  0  0
 37 36  1  0  0  0  0
 38 36  1  0  0  0  0
 40 41  1  0  0  0  0
 40  4  1  0  0  0  0
 42 40  1  0  0  0  0
 43 40  1  0  0  0  0
 44 45  1  0  0  0  0
 44 46  1  0  0  0  0
 47 44  1  0  0  0  0
 48 51  1  0  0  0  0
 48 50  1  0  0  0  0
 49 48  1  0  0  0  0
M  END
$$$$
