CSD_code = ANIHAH | q = 0 | S = 0 | Stoichiometry = C38H45F3NPPt | MND = 6
 OpenBabel04212202003D

 89 98  0  0  1  0  0  0  0  0999 V2000
    5.1593   11.0207    8.5624 Pt  0  0  0  0  0  0  0  0  0  0  0  0
    4.0972   10.0338    6.7492 P   0  0  2  0  0  4  0  0  0  0  0  0
    5.1109    9.5816    5.2144 C   0  0  2  0  0  0  0  0  0  0  0  0
    5.1971   10.7720    4.2581 C   0  0  0  0  0  0  0  0  0  0  0  0
    5.5905   11.6337    4.8017 H   0  0  0  0  0  0  0  0  0  0  0  0
    4.2122   11.0254    3.8643 H   0  0  0  0  0  0  0  0  0  0  0  0
    6.1082   10.4281    3.0783 C   0  0  1  0  0  0  0  0  0  0  0  0
    6.1454   11.2851    2.3965 H   0  0  0  0  0  0  0  0  0  0  0  0
    7.5144   10.1129    3.5793 C   0  0  0  0  0  0  0  0  0  0  0  0
    8.1711    9.8841    2.7370 H   0  0  0  0  0  0  0  0  0  0  0  0
    7.9222   10.9793    4.1024 H   0  0  0  0  0  0  0  0  0  0  0  0
    7.4415    8.9230    4.5319 C   0  0  2  0  0  0  0  0  0  0  0  0
    8.4411    8.6972    4.9188 H   0  0  0  0  0  0  0  0  0  0  0  0
    6.8882    7.7044    3.7977 C   0  0  0  0  0  0  0  0  0  0  0  0
    6.8589    6.8444    4.4710 H   0  0  0  0  0  0  0  0  0  0  0  0
    7.5349    7.4480    2.9558 H   0  0  0  0  0  0  0  0  0  0  0  0
    5.4824    8.0241    3.2958 C   0  0  1  0  0  0  0  0  0  0  0  0
    5.0749    7.1536    2.7680 H   0  0  0  0  0  0  0  0  0  0  0  0
    4.5709    8.3487    4.4848 C   0  0  0  0  0  0  0  0  0  0  0  0
    3.5589    8.5142    4.1183 H   0  0  0  0  0  0  0  0  0  0  0  0
    4.5509    7.4884    5.1565 H   0  0  0  0  0  0  0  0  0  0  0  0
    5.5393    9.2159    2.3417 C   0  0  0  0  0  0  0  0  0  0  0  0
    6.1689    8.9716    1.4834 H   0  0  0  0  0  0  0  0  0  0  0  0
    4.5380    9.4414    1.9662 H   0  0  0  0  0  0  0  0  0  0  0  0
    6.5290    9.2784    5.7045 C   0  0  0  0  0  0  0  0  0  0  0  0
    6.9225   10.1633    6.2017 H   0  0  0  0  0  0  0  0  0  0  0  0
    6.5215    8.4536    6.4211 H   0  0  0  0  0  0  0  0  0  0  0  0
    2.4315   10.8150    6.3067 C   0  0  2  0  0  0  0  0  0  0  0  0
    1.5308   10.7072    7.5435 C   0  0  0  0  0  0  0  0  0  0  0  0
    1.3449    9.6615    7.7961 H   0  0  0  0  0  0  0  0  0  0  0  0
    2.0145   11.1848    8.3942 H   0  0  0  0  0  0  0  0  0  0  0  0
    0.1912   11.3943    7.2809 C   0  0  1  0  0  0  0  0  0  0  0  0
   -0.4293   11.3088    8.1800 H   0  0  0  0  0  0  0  0  0  0  0  0
    0.4277   12.8671    6.9604 C   0  0  0  0  0  0  0  0  0  0  0  0
    0.9327   13.3450    7.8007 H   0  0  0  0  0  0  0  0  0  0  0  0
   -0.5254   13.3759    6.7974 H   0  0  0  0  0  0  0  0  0  0  0  0
    1.3031   12.9698    5.7148 C   0  0  2  0  0  0  0  0  0  0  0  0
    1.4747   14.0244    5.4736 H   0  0  0  0  0  0  0  0  0  0  0  0
    0.6112   12.2850    4.5370 C   0  0  0  0  0  0  0  0  0  0  0  0
    1.2285   12.3712    3.6389 H   0  0  0  0  0  0  0  0  0  0  0  0
   -0.3455   12.7702    4.3308 H   0  0  0  0  0  0  0  0  0  0  0  0
    0.3805   10.8130    4.8741 C   0  0  1  0  0  0  0  0  0  0  0  0
   -0.1081   10.3149    4.0272 H   0  0  0  0  0  0  0  0  0  0  0  0
    1.7276   10.1287    5.1338 C   0  0  0  0  0  0  0  0  0  0  0  0
    2.3245   10.2044    4.2243 H   0  0  0  0  0  0  0  0  0  0  0  0
    1.5591    9.0708    5.3532 H   0  0  0  0  0  0  0  0  0  0  0  0
   -0.5084   10.7087    6.1100 C   0  0  0  0  0  0  0  0  0  0  0  0
   -1.4717   11.1851    5.9149 H   0  0  0  0  0  0  0  0  0  0  0  0
   -0.6970    9.6589    6.3493 H   0  0  0  0  0  0  0  0  0  0  0  0
    2.6487   12.2968    5.9816 C   0  0  0  0  0  0  0  0  0  0  0  0
    3.1405   12.7812    6.8234 H   0  0  0  0  0  0  0  0  0  0  0  0
    3.2888   12.4162    5.1084 H   0  0  0  0  0  0  0  0  0  0  0  0
    3.6729    8.4160    7.5242 C   0  0  0  0  0  0  0  0  0  0  0  0
    2.8395    7.9202    7.0210 H   0  0  0  0  0  0  0  0  0  0  0  0
    4.5547    7.7726    7.4363 H   0  0  0  0  0  0  0  0  0  0  0  0
    3.3733    8.6731    8.9784 C   0  0  0  0  0  0  0  0  0  0  0  0
    2.5169    7.8286    9.6725 C   0  0  0  0  0  0  0  0  0  0  0  0
    2.0740    6.9831    9.1630 H   0  0  0  0  0  0  0  0  0  0  0  0
    2.2172    8.0647   11.0027 C   0  0  0  0  0  0  0  0  0  0  0  0
    1.5493    7.4020   11.5326 H   0  0  0  0  0  0  0  0  0  0  0  0
    2.7633    9.1636   11.6378 C   0  0  0  0  0  0  0  0  0  0  0  0
    2.5175    9.3736   12.6685 H   0  0  0  0  0  0  0  0  0  0  0  0
    3.6254   10.0061   10.9502 C   0  0  0  0  0  0  0  0  0  0  0  0
    4.0155   10.8740   11.4628 H   0  0  0  0  0  0  0  0  0  0  0  0
    3.9586    9.7655    9.6282 C   0  0  0  0  0  0  0  0  0  0  0  0
    6.0692   11.9954   10.1609 N   0  0  0  0  0  0  0  0  0  0  0  0
    6.5938   11.4459   11.2535 C   0  0  0  0  0  3  0  0  0  0  0  0
    6.5119   10.3714   11.3522 H   0  0  0  0  0  0  0  0  0  0  0  0
    7.2203   12.2012   12.2273 C   0  0  0  0  0  0  0  0  0  0  0  0
    7.6323   11.7181   13.0989 H   0  0  0  0  0  0  0  0  0  0  0  0
    7.3064   13.5760   12.0593 C   0  0  0  0  0  0  0  0  0  0  0  0
    7.7905   14.1916   12.8024 H   0  0  0  0  0  0  0  0  0  0  0  0
    6.7589   14.1364   10.9184 C   0  0  0  0  0  0  0  0  0  0  0  0
    6.8014   15.1991   10.7418 H   0  0  0  0  0  0  0  0  0  0  0  0
    6.1471   13.3095    9.9894 C   0  0  0  0  0  0  0  0  0  0  0  0
    5.7087   13.7085    9.0837 H   0  0  0  0  0  0  0  0  0  0  0  0
    6.7415    9.7211    8.7298 C   0  0  0  0  0  0  0  0  0  0  0  0
    8.0020   10.2638    8.4872 C   0  0  0  0  0  0  0  0  0  0  0  0
    8.0936   11.2625    8.0853 H   0  0  0  0  0  0  0  0  0  0  0  0
    9.1641    9.5504    8.7256 C   0  0  0  0  0  0  0  0  0  0  0  0
   10.1347    9.9782    8.5279 H   0  0  0  0  0  0  0  0  0  0  0  0
    9.0633    8.2680    9.2279 C   0  0  0  0  0  0  0  0  0  0  0  0
    7.8358    7.6983    9.4978 C   0  0  0  0  0  0  0  0  0  0  0  0
    7.7825    6.6977    9.8987 H   0  0  0  0  0  0  0  0  0  0  0  0
    6.6844    8.4322    9.2517 C   0  0  0  0  0  0  0  0  0  0  0  0
    5.7389    7.9692    9.4915 H   0  0  0  0  0  0  0  0  0  0  0  0
   10.1912    7.5569    9.4696 F   0  0  0  0  0  0  0  0  0  0  0  0
    3.7081   12.4897    8.8614 F   0  0  0  0  0  0  0  0  0  0  0  0
    6.2361   12.2896    7.2933 F   0  0  0  0  0  0  0  0  0  0  0  0
  1 77  1  0  0  0  0
  1 88  1  0  0  0  0
  1 65  1  0  0  0  0
  1 66  1  0  0  0  0
  2 53  1  1  0  0  0
  2  1  1  0  0  0  0
  3  4  1  6  0  0  0
  3 25  1  0  0  0  0
  3  2  1  0  0  0  0
  4  5  1  0  0  0  0
  6  4  1  0  0  0  0
  7  8  1  6  0  0  0
  7  9  1  0  0  0  0
  7  4  1  0  0  0  0
  9 11  1  0  0  0  0
  9 12  1  0  0  0  0
 10  9  1  0  0  0  0
 12 13  1  1  0  0  0
 12 25  1  0  0  0  0
 14 15  1  0  0  0  0
 14 12  1  0  0  0  0
 16 14  1  0  0  0  0
 17 18  1  6  0  0  0
 17 14  1  0  0  0  0
 17 19  1  0  0  0  0
 19 21  1  0  0  0  0
 19  3  1  0  0  0  0
 20 19  1  0  0  0  0
 22  7  1  0  0  0  0
 22 17  1  0  0  0  0
 23 22  1  0  0  0  0
 24 22  1  0  0  0  0
 25 26  1  0  0  0  0
 25 27  1  0  0  0  0
 28 44  1  6  0  0  0
 28  2  1  0  0  0  0
 28 29  1  0  0  0  0
 29 30  1  0  0  0  0
 29 31  1  0  0  0  0
 32 29  1  0  0  0  0
 32 33  1  1  0  0  0
 34 32  1  0  0  0  0
 34 35  1  0  0  0  0
 36 34  1  0  0  0  0
 37 38  1  6  0  0  0
 37 50  1  0  0  0  0
 37 34  1  0  0  0  0
 39 42  1  0  0  0  0
 39 37  1  0  0  0  0
 40 39  1  0  0  0  0
 41 39  1  0  0  0  0
 42 43  1  6  0  0  0
 42 44  1  0  0  0  0
 42 47  1  0  0  0  0
 44 46  1  0  0  0  0
 45 44  1  0  0  0  0
 47 49  1  0  0  0  0
 47 32  1  0  0  0  0
 48 47  1  0  0  0  0
 50 28  1  0  0  0  0
 50 51  1  0  0  0  0
 52 50  1  0  0  0  0
 53 56  1  0  0  0  0
 54 53  1  0  0  0  0
 55 53  1  0  0  0  0
 56 65  2  0  0  0  0
 56 57  1  0  0  0  0
 57 59  2  0  0  0  0
 58 57  1  0  0  0  0
 59 60  1  0  0  0  0
 59 61  1  0  0  0  0
 61 62  1  0  0  0  0
 63 64  1  0  0  0  0
 63 61  2  0  0  0  0
 65 63  1  0  0  0  0
 66 67  1  0  0  0  0
 67 68  1  0  0  0  0
 67 69  1  0  0  0  0
 69 70  1  0  0  0  0
 71 69  2  0  0  0  0
 71 72  1  0  0  0  0
 73 71  1  0  0  0  0
 74 73  1  0  0  0  0
 75 66  1  0  0  0  0
 75 73  2  0  0  0  0
 76 75  1  0  0  0  0
 77 85  1  0  0  0  0
 78 80  1  0  0  0  0
 78 77  2  0  0  0  0
 79 78  1  0  0  0  0
 80 82  2  0  0  0  0
 81 80  1  0  0  0  0
 82 87  1  0  0  0  0
 82 83  1  0  0  0  0
 83 84  1  0  0  0  0
 85 86  1  0  0  0  0
 85 83  2  0  0  0  0
 89  1  1  0  0  0  0
M  END
$$$$
