CSD_code = ANIMIV | q = 1 | S = 0 | Stoichiometry = C51H39BrNO2OsP2(1+) | MND = 6
 OpenBabel04212202003D

 97106  0  0  0  0  0  0  0  0999 V2000
   -0.8089   -2.9987    2.1108 Os  0  0  0  0  0  0  0  0  0  0  0  0
   -0.7729   -0.5082    2.0122 Br  0  0  0  0  0  0  0  0  0  0  0  0
   -1.5675   -3.2043    4.1179 O   0  0  0  0  0  0  0  0  0  0  0  0
   -1.7062   -4.4060    4.4774 C   0  0  0  0  0  0  0  0  0  0  0  0
   -2.1955   -4.7777    5.7774 C   0  0  0  0  0  0  0  0  0  0  0  0
   -2.5342   -3.7760    6.6948 C   0  0  0  0  0  0  0  0  0  0  0  0
   -2.4194   -2.7436    6.3998 H   0  0  0  0  0  0  0  0  0  0  0  0
   -3.0024   -4.1014    7.9459 C   0  0  0  0  0  0  0  0  0  0  0  0
   -3.2629   -3.3289    8.6521 H   0  0  0  0  0  0  0  0  0  0  0  0
   -3.1354   -5.4417    8.2901 C   0  0  0  0  0  0  0  0  0  0  0  0
   -3.5012   -5.7096    9.2696 H   0  0  0  0  0  0  0  0  0  0  0  0
   -2.8048   -6.4376    7.3927 C   0  0  0  0  0  0  0  0  0  0  0  0
   -2.9251   -7.4613    7.7063 H   0  0  0  0  0  0  0  0  0  0  0  0
   -2.3268   -6.1423    6.1125 C   0  0  0  0  0  0  0  0  0  0  0  0
   -1.9722   -7.1740    5.1469 C   0  0  0  0  0  0  0  0  0  0  0  0
   -2.0959   -8.5348    5.4423 C   0  0  0  0  0  0  0  0  0  0  0  0
   -2.4629   -8.8482    6.4054 H   0  0  0  0  0  0  0  0  0  0  0  0
   -1.7595   -9.5099    4.5271 C   0  0  0  0  0  0  0  0  0  0  0  0
   -1.8679  -10.5510    4.7885 H   0  0  0  0  0  0  0  0  0  0  0  0
   -1.2826   -9.1558    3.2721 C   0  0  0  0  0  0  0  0  0  0  0  0
   -1.0187   -9.9171    2.5547 H   0  0  0  0  0  0  0  0  0  0  0  0
   -1.1499   -7.8248    2.9501 C   0  0  0  0  0  0  0  0  0  0  0  0
   -0.7785   -7.5609    1.9699 H   0  0  0  0  0  0  0  0  0  0  0  0
   -1.4873   -6.8220    3.8667 C   0  0  0  0  0  0  0  0  0  0  0  0
   -1.3509   -5.4306    3.5265 C   0  0  0  0  0  0  0  0  0  0  0  0
   -0.9156   -4.9383    2.3827 N   0  0  0  0  0  0  0  0  0  0  0  0
   -0.6560   -5.6411    1.6917 H   0  0  0  0  0  0  0  0  0  0  0  0
   -0.1459   -3.1756    0.3730 C   0  0  0  0  0  2  0  0  0  0  0  0
    0.2564   -3.4231   -0.6713 O   0  0  0  0  0  1  0  0  0  0  0  0
    1.3422   -2.8401    3.1774 P   0  0  0  0  0  4  0  0  0  0  0  0
    1.6010   -1.4987    4.3767 C   0  0  0  0  0  0  0  0  0  0  0  0
    0.5418   -1.0574    5.1665 C   0  0  0  0  0  0  0  0  0  0  0  0
   -0.4409   -1.4884    5.0421 H   0  0  0  0  0  0  0  0  0  0  0  0
    0.7409   -0.0547    6.0960 C   0  0  0  0  0  0  0  0  0  0  0  0
   -0.0839    0.2892    6.7015 H   0  0  0  0  0  0  0  0  0  0  0  0
    1.9942    0.5177    6.2399 C   0  0  0  0  0  0  0  0  0  0  0  0
    2.1470    1.3075    6.9590 H   0  0  0  0  0  0  0  0  0  0  0  0
    3.0483    0.0842    5.4531 C   0  0  0  0  0  0  0  0  0  0  0  0
    4.0238    0.5337    5.5589 H   0  0  0  0  0  0  0  0  0  0  0  0
    2.8584   -0.9193    4.5205 C   0  0  0  0  0  0  0  0  0  0  0  0
    3.6831   -1.2446    3.9037 H   0  0  0  0  0  0  0  0  0  0  0  0
    2.7882   -2.7392    2.0871 C   0  0  0  0  0  0  0  0  0  0  0  0
    3.9721   -3.4203    2.3586 C   0  0  0  0  0  0  0  0  0  0  0  0
    4.0443   -4.0640    3.2245 H   0  0  0  0  0  0  0  0  0  0  0  0
    5.0601   -3.2629    1.5188 C   0  0  0  0  0  0  0  0  0  0  0  0
    5.9766   -3.7934    1.7287 H   0  0  0  0  0  0  0  0  0  0  0  0
    4.9778   -2.4248    0.4182 C   0  0  0  0  0  0  0  0  0  0  0  0
    5.8308   -2.3068   -0.2320 H   0  0  0  0  0  0  0  0  0  0  0  0
    3.8060   -1.7320    0.1572 C   0  0  0  0  0  0  0  0  0  0  0  0
    3.7447   -1.0687   -0.6915 H   0  0  0  0  0  0  0  0  0  0  0  0
    2.7117   -1.8864    0.9879 C   0  0  0  0  0  0  0  0  0  0  0  0
    1.8003   -1.3344    0.7959 H   0  0  0  0  0  0  0  0  0  0  0  0
    1.5442   -4.3694    4.1439 C   0  0  0  0  0  0  0  0  0  0  0  0
    1.2254   -4.4108    5.4970 C   0  0  0  0  0  0  0  0  0  0  0  0
    0.9945   -3.4960    6.0258 H   0  0  0  0  0  0  0  0  0  0  0  0
    1.2144   -5.6219    6.1693 C   0  0  0  0  0  0  0  0  0  0  0  0
    0.9624   -5.6472    7.2189 H   0  0  0  0  0  0  0  0  0  0  0  0
    1.5181   -6.7937    5.4985 C   0  0  0  0  0  0  0  0  0  0  0  0
    1.5041   -7.7366    6.0229 H   0  0  0  0  0  0  0  0  0  0  0  0
    1.8391   -6.7579    4.1490 C   0  0  0  0  0  0  0  0  0  0  0  0
    2.0797   -7.6718    3.6270 H   0  0  0  0  0  0  0  0  0  0  0  0
    1.8391   -5.5553    3.4699 C   0  0  0  0  0  0  0  0  0  0  0  0
    2.0697   -5.5221    2.4119 H   0  0  0  0  0  0  0  0  0  0  0  0
   -3.1267   -2.8383    1.4870 P   0  0  0  0  0  4  0  0  0  0  0  0
   -4.1107   -1.4944    2.2152 C   0  0  0  0  0  0  0  0  0  0  0  0
   -5.1379   -0.9009    1.4871 C   0  0  0  0  0  0  0  0  0  0  0  0
   -5.3427   -1.2170    0.4749 H   0  0  0  0  0  0  0  0  0  0  0  0
   -5.8930    0.1053    2.0619 C   0  0  0  0  0  0  0  0  0  0  0  0
   -6.6860    0.5659    1.4928 H   0  0  0  0  0  0  0  0  0  0  0  0
   -5.6296    0.5276    3.3543 C   0  0  0  0  0  0  0  0  0  0  0  0
   -6.2167    1.3192    3.7935 H   0  0  0  0  0  0  0  0  0  0  0  0
   -4.6048   -0.0584    4.0794 C   0  0  0  0  0  0  0  0  0  0  0  0
   -4.3917    0.2769    5.0832 H   0  0  0  0  0  0  0  0  0  0  0  0
   -3.8448   -1.0635    3.5131 C   0  0  0  0  0  0  0  0  0  0  0  0
   -3.0329   -1.5046    4.0729 H   0  0  0  0  0  0  0  0  0  0  0  0
   -3.4900   -2.7413   -0.2874 C   0  0  0  0  0  0  0  0  0  0  0  0
   -4.5679   -3.4114   -0.8605 C   0  0  0  0  0  0  0  0  0  0  0  0
   -5.2049   -4.0391   -0.2526 H   0  0  0  0  0  0  0  0  0  0  0  0
   -4.8249   -3.2646   -2.2119 C   0  0  0  0  0  0  0  0  0  0  0  0
   -5.6591   -3.7866   -2.6557 H   0  0  0  0  0  0  0  0  0  0  0  0
   -4.0210   -2.4479   -2.9913 C   0  0  0  0  0  0  0  0  0  0  0  0
   -4.2274   -2.3386   -4.0448 H   0  0  0  0  0  0  0  0  0  0  0  0
   -2.9601   -1.7645   -2.4182 C   0  0  0  0  0  0  0  0  0  0  0  0
   -2.3419   -1.1175   -3.0207 H   0  0  0  0  0  0  0  0  0  0  0  0
   -2.6927   -1.9081   -1.0693 C   0  0  0  0  0  0  0  0  0  0  0  0
   -1.8744   -1.3637   -0.6154 H   0  0  0  0  0  0  0  0  0  0  0  0
   -3.9226   -4.3658    2.0771 C   0  0  0  0  0  0  0  0  0  0  0  0
   -4.5759   -4.4084    3.3041 C   0  0  0  0  0  0  0  0  0  0  0  0
   -4.7466   -3.4948    3.8574 H   0  0  0  0  0  0  0  0  0  0  0  0
   -5.0184   -5.6190    3.8117 C   0  0  0  0  0  0  0  0  0  0  0  0
   -5.5214   -5.6452    4.7667 H   0  0  0  0  0  0  0  0  0  0  0  0
   -4.8115   -6.7891    3.1023 C   0  0  0  0  0  0  0  0  0  0  0  0
   -5.1527   -7.7316    3.5016 H   0  0  0  0  0  0  0  0  0  0  0  0
   -4.1621   -6.7521    1.8765 C   0  0  0  0  0  0  0  0  0  0  0  0
   -4.0044   -7.6646    1.3215 H   0  0  0  0  0  0  0  0  0  0  0  0
   -3.7066   -5.5502    1.3714 C   0  0  0  0  0  0  0  0  0  0  0  0
   -3.1820   -5.5163    0.4241 H   0  0  0  0  0  0  0  0  0  0  0  0
  1 26  1  0  0  0  0
  1 30  1  0  0  0  0
  1  3  1  0  0  0  0
  2  1  1  0  0  0  0
  3  4  1  0  0  0  0
  4  5  1  0  0  0  0
  5 14  2  0  0  0  0
  5  6  1  0  0  0  0
  6  8  2  0  0  0  0
  7  6  1  0  0  0  0
  8 10  1  0  0  0  0
  8  9  1  0  0  0  0
 10 11  1  0  0  0  0
 12 13  1  0  0  0  0
 12 10  2  0  0  0  0
 14 12  1  0  0  0  0
 15 16  1  0  0  0  0
 15 14  1  0  0  0  0
 16 17  1  0  0  0  0
 18 19  1  0  0  0  0
 18 16  2  0  0  0  0
 20 18  1  0  0  0  0
 21 20  1  0  0  0  0
 22 20  2  0  0  0  0
 22 24  1  0  0  0  0
 23 22  1  0  0  0  0
 24 15  2  0  0  0  0
 25 24  1  0  0  0  0
 25  4  2  0  0  0  0
 26 25  1  0  0  0  0
 27 26  1  0  0  0  0
 28  1  1  0  0  0  0
 29 28  1  0  0  0  0
 30 53  1  0  0  0  0
 30 31  1  0  0  0  0
 31 40  2  0  0  0  0
 31 32  1  0  0  0  0
 32 34  2  0  0  0  0
 33 32  1  0  0  0  0
 34 36  1  0  0  0  0
 34 35  1  0  0  0  0
 36 37  1  0  0  0  0
 38 39  1  0  0  0  0
 38 36  2  0  0  0  0
 40 38  1  0  0  0  0
 41 40  1  0  0  0  0
 42 43  1  0  0  0  0
 42 30  1  0  0  0  0
 43 44  1  0  0  0  0
 45 46  1  0  0  0  0
 45 43  2  0  0  0  0
 47 45  1  0  0  0  0
 48 47  1  0  0  0  0
 49 47  2  0  0  0  0
 49 51  1  0  0  0  0
 50 49  1  0  0  0  0
 51 42  2  0  0  0  0
 52 51  1  0  0  0  0
 53 54  1  0  0  0  0
 54 55  1  0  0  0  0
 54 56  2  0  0  0  0
 56 57  1  0  0  0  0
 58 59  1  0  0  0  0
 58 56  1  0  0  0  0
 60 58  2  0  0  0  0
 61 60  1  0  0  0  0
 62 53  2  0  0  0  0
 62 60  1  0  0  0  0
 63 62  1  0  0  0  0
 64 87  1  0  0  0  0
 64  1  1  0  0  0  0
 64 65  1  0  0  0  0
 65 74  1  0  0  0  0
 66 68  1  0  0  0  0
 66 65  2  0  0  0  0
 67 66  1  0  0  0  0
 68 70  2  0  0  0  0
 69 68  1  0  0  0  0
 70 71  1  0  0  0  0
 70 72  1  0  0  0  0
 72 73  1  0  0  0  0
 74 75  1  0  0  0  0
 74 72  2  0  0  0  0
 76 64  1  0  0  0  0
 77 76  1  0  0  0  0
 77 78  1  0  0  0  0
 79 77  2  0  0  0  0
 80 79  1  0  0  0  0
 81 83  2  0  0  0  0
 81 79  1  0  0  0  0
 82 81  1  0  0  0  0
 83 85  1  0  0  0  0
 84 83  1  0  0  0  0
 85 86  1  0  0  0  0
 85 76  2  0  0  0  0
 87 88  1  0  0  0  0
 88 90  2  0  0  0  0
 88 89  1  0  0  0  0
 90 91  1  0  0  0  0
 92 93  1  0  0  0  0
 92 90  1  0  0  0  0
 94 92  2  0  0  0  0
 95 94  1  0  0  0  0
 96 94  1  0  0  0  0
 96 87  2  0  0  0  0
 97 96  1  0  0  0  0
M  END
$$$$
