CSD_code = APICUY | q = 0 | S = 0 | Stoichiometry = C11H12Cl2N4O2Pd | MND = 4
 OpenBabel04212202003D

 32 34  0  0  1  0  0  0  0  0999 V2000
    6.0299    8.3616    7.0082 Pd  0  0  0  0  0  0  0  0  0  0  0  0
    7.3478    8.5096    5.2420 Cl  0  0  0  0  0  0  0  0  0  0  0  0
    6.6663   10.3751    7.6733 Cl  0  0  0  0  0  0  0  0  0  0  0  0
    2.5742   10.1000   11.4336 O   0  0  0  0  0  0  0  0  0  0  0  0
    3.8565   11.9182   11.1935 O   0  0  0  0  0  0  0  0  0  0  0  0
    5.3141    6.5177    6.4978 N   0  0  0  0  0  0  0  0  0  0  0  0
    4.7409    8.0876    8.5796 N   0  0  0  0  0  0  0  0  0  0  0  0
    3.2507    7.8683   10.1237 N   0  0  0  0  0  0  0  0  0  0  0  0
    3.1089    6.7866    9.3574 N   0  0  0  0  0  2  0  0  0  0  0  0
    5.6734    5.7733    5.4544 C   0  0  0  0  0  0  0  0  0  0  0  0
    5.0872    4.5486    5.1824 C   0  0  0  0  0  0  0  0  0  0  0  0
    4.0867    4.0708    6.0200 C   0  0  0  0  0  0  0  0  0  0  0  0
    3.7090    4.8384    7.1069 C   0  0  0  0  0  0  0  0  0  0  0  0
    4.3455    6.0571    7.3169 C   0  0  0  0  0  0  0  0  0  0  0  0
    4.0287    6.9319    8.4253 C   0  0  0  0  0  0  0  0  0  0  0  0
    4.2320    8.6622    9.6571 C   0  0  1  0  0  3  0  0  0  0  0  0
    4.6757    9.9413   10.2539 C   0  0  0  0  0  0  0  0  0  0  0  0
    3.5717   10.6449   11.0188 C   0  0  0  0  0  0  0  0  0  0  0  0
    2.9155   12.7151   11.9247 C   0  0  0  0  0  0  0  0  0  0  0  0
    3.5654   14.0492   12.2348 C   0  0  0  0  0  0  0  0  0  0  0  0
    2.6198    8.0920   10.8856 H   0  0  0  0  0  0  0  0  0  0  0  0
    6.4536    6.1887    4.8256 H   0  0  0  0  0  0  0  0  0  0  0  0
    5.4110    3.9806    4.3253 H   0  0  0  0  0  0  0  0  0  0  0  0
    3.6126    3.1207    5.8283 H   0  0  0  0  0  0  0  0  0  0  0  0
    2.9403    4.5278    7.7956 H   0  0  0  0  0  0  0  0  0  0  0  0
    5.5017    9.7581   10.9499 H   0  0  0  0  0  0  0  0  0  0  0  0
    5.0966   10.5772    9.4595 H   0  0  0  0  0  0  0  0  0  0  0  0
    2.6329   12.1794   12.8375 H   0  0  0  0  0  0  0  0  0  0  0  0
    2.0180   12.8424   11.3100 H   0  0  0  0  0  0  0  0  0  0  0  0
    2.8642   14.6796   12.7733 H   0  0  0  0  0  0  0  0  0  0  0  0
    4.4531   13.9028   12.8438 H   0  0  0  0  0  0  0  0  0  0  0  0
    3.8558   14.5444   11.3127 H   0  0  0  0  0  0  0  0  0  0  0  0
  1  3  1  0  0  0  0
  1  7  1  0  0  0  0
  2  1  1  0  0  0  0
  5 19  1  0  0  0  0
  6  1  1  0  0  0  0
  6 14  1  0  0  0  0
  7 16  1  0  0  0  0
  8 21  1  0  0  0  0
  9  8  1  0  0  0  0
 10  6  1  0  0  0  0
 11 10  2  0  0  0  0
 11 12  1  0  0  0  0
 12 13  2  0  0  0  0
 13 14  1  0  0  0  0
 13 25  1  0  0  0  0
 14 15  2  0  0  0  0
 15  7  1  0  0  0  0
 15  9  1  0  0  0  0
 16  8  1  0  0  0  0
 16 17  1  1  0  0  0
 17 26  1  0  0  0  0
 17 18  1  0  0  0  0
 18  5  1  0  0  0  0
 18  4  2  0  0  0  0
 19 20  1  0  0  0  0
 19 28  1  0  0  0  0
 20 30  1  0  0  0  0
 20 31  1  0  0  0  0
 22 10  1  0  0  0  0
 23 11  1  0  0  0  0
 24 12  1  0  0  0  0
 27 17  1  0  0  0  0
 29 19  1  0  0  0  0
 32 20  1  0  0  0  0
M  END
$$$$
