CSD_code = APIKER | q = 0 | S = 0 | Stoichiometry = C31H30Cl2N4Pt | MND = 4
 OpenBabel04212202003D

 68 71  0  0  0  0  0  0  0  0999 V2000
   12.2985    6.3950   11.2421 C   0  0  0  0  0  2  0  0  0  0  0  0
   11.8342    8.8693   11.3024 C   0  0  0  0  0  0  0  0  0  0  0  0
   12.7312    9.6553   12.0396 C   0  0  0  0  0  0  0  0  0  0  0  0
   12.5485   11.0296   12.0159 C   0  0  0  0  0  0  0  0  0  0  0  0
   13.2259   11.6598   12.5726 H   0  0  0  0  0  0  0  0  0  0  0  0
   11.5166   11.5989   11.2893 C   0  0  0  0  0  0  0  0  0  0  0  0
   11.3924   12.6713   11.2844 H   0  0  0  0  0  0  0  0  0  0  0  0
   10.6434   10.8027   10.5665 C   0  0  0  0  0  0  0  0  0  0  0  0
    9.8440   11.2563    9.9993 H   0  0  0  0  0  0  0  0  0  0  0  0
   10.7854    9.4252   10.5593 C   0  0  0  0  0  0  0  0  0  0  0  0
    9.8733    8.5316    9.7781 C   0  0  0  0  0  0  0  0  0  0  0  0
    9.0902    9.1104    9.2957 H   0  0  0  0  0  0  0  0  0  0  0  0
    9.4147    7.7890   10.4309 H   0  0  0  0  0  0  0  0  0  0  0  0
   10.4381    7.9952    9.0153 H   0  0  0  0  0  0  0  0  0  0  0  0
   13.8307    9.0078   12.8133 C   0  0  0  0  0  0  0  0  0  0  0  0
   14.5127    9.7526   13.2132 H   0  0  0  0  0  0  0  0  0  0  0  0
   14.3880    8.3103   12.1862 H   0  0  0  0  0  0  0  0  0  0  0  0
   13.4197    8.4301   13.6417 H   0  0  0  0  0  0  0  0  0  0  0  0
   11.6092    3.5409   10.3600 C   0  0  0  0  0  0  0  0  0  0  0  0
   10.3890    1.4317   10.3674 C   0  0  0  0  0  0  0  0  0  0  0  0
   10.9671    0.1827   10.1141 C   0  0  0  0  0  0  0  0  0  0  0  0
   10.1980   -0.7851    9.4853 C   0  0  0  0  0  0  0  0  0  0  0  0
   10.6329   -1.7510    9.2767 H   0  0  0  0  0  0  0  0  0  0  0  0
    8.8902   -0.5219    9.1159 C   0  0  0  0  0  0  0  0  0  0  0  0
    8.3070   -1.2820    8.6185 H   0  0  0  0  0  0  0  0  0  0  0  0
    8.3270    0.7086    9.3924 C   0  0  0  0  0  0  0  0  0  0  0  0
    7.3020    0.9107    9.1190 H   0  0  0  0  0  0  0  0  0  0  0  0
    9.0620    1.7026   10.0288 C   0  0  0  0  0  0  0  0  0  0  0  0
    8.4065    3.0160   10.3458 C   0  0  0  0  0  0  0  0  0  0  0  0
    8.9927    3.5970   11.0533 H   0  0  0  0  0  0  0  0  0  0  0  0
    7.4216    2.8376   10.7729 H   0  0  0  0  0  0  0  0  0  0  0  0
    8.2670    3.6105    9.4416 H   0  0  0  0  0  0  0  0  0  0  0  0
   12.3842   -0.0832   10.5097 C   0  0  0  0  0  0  0  0  0  0  0  0
   13.0437    0.7246   10.1880 H   0  0  0  0  0  0  0  0  0  0  0  0
   12.7331   -1.0160   10.0760 H   0  0  0  0  0  0  0  0  0  0  0  0
   12.4669   -0.1630   11.5948 H   0  0  0  0  0  0  0  0  0  0  0  0
   11.1205    5.2535    7.3790 C   0  0  0  0  0  0  0  0  0  0  0  0
   11.6170    6.5110    6.8257 C   0  0  0  0  0  0  0  0  0  0  0  0
   12.5394    7.2719    7.5524 C   0  0  0  0  0  0  0  0  0  0  0  0
   12.9017    6.8929    8.4979 H   0  0  0  0  0  0  0  0  0  0  0  0
   12.9900    8.4788    7.0588 C   0  0  0  0  0  0  0  0  0  0  0  0
   13.6975    9.0590    7.6316 H   0  0  0  0  0  0  0  0  0  0  0  0
   12.5403    8.9416    5.8307 C   0  0  0  0  0  0  0  0  0  0  0  0
   12.8929    9.8868    5.4455 H   0  0  0  0  0  0  0  0  0  0  0  0
   11.6482    8.1820    5.0917 C   0  0  0  0  0  0  0  0  0  0  0  0
   11.3099    8.5317    4.1273 H   0  0  0  0  0  0  0  0  0  0  0  0
   11.1887    6.9732    5.5809 C   0  0  0  0  0  0  0  0  0  0  0  0
   10.4993    6.3839    4.9939 H   0  0  0  0  0  0  0  0  0  0  0  0
   10.1352    4.4261    6.6380 C   0  0  0  0  0  0  0  0  0  0  0  0
    8.8390    4.8921    6.4366 C   0  0  0  0  0  0  0  0  0  0  0  0
    8.5773    5.8895    6.7598 H   0  0  0  0  0  0  0  0  0  0  0  0
    7.8932    4.0781    5.8394 C   0  0  0  0  0  0  0  0  0  0  0  0
    6.8904    4.4475    5.6840 H   0  0  0  0  0  0  0  0  0  0  0  0
    8.2279    2.7925    5.4464 C   0  0  0  0  0  0  0  0  0  0  0  0
    7.4862    2.1585    4.9845 H   0  0  0  0  0  0  0  0  0  0  0  0
    9.5149    2.3217    5.6454 C   0  0  0  0  0  0  0  0  0  0  0  0
    9.7801    1.3206    5.3411 H   0  0  0  0  0  0  0  0  0  0  0  0
   10.4653    3.1316    6.2417 C   0  0  0  0  0  0  0  0  0  0  0  0
   11.4739    2.7705    6.3876 H   0  0  0  0  0  0  0  0  0  0  0  0
   12.0074    7.5267   11.2816 N   0  0  0  0  0  2  0  0  0  0  0  0
   11.1090    3.7962    9.1496 N   0  0  0  0  0  0  0  0  0  0  0  0
   10.4943    3.1449    8.6526 H   0  0  0  0  0  0  0  0  0  0  0  0
   11.5332    4.9183    8.5440 N   0  0  0  0  0  0  0  0  0  0  0  0
   11.1993    2.4365   10.9710 N   0  0  0  0  0  0  0  0  0  0  0  0
   11.7134    2.1633   11.7991 H   0  0  0  0  0  0  0  0  0  0  0  0
   14.3087    2.9328   10.1072 Cl  0  0  0  0  0  0  0  0  0  0  0  0
   15.0643    6.0265   11.0530 Cl  0  0  0  0  0  0  0  0  0  0  0  0
   13.1410    4.7570   10.8014 Pt  0  0  0  0  0  0  0  0  0  0  0  0
  1 60  1  0  0  0  0
  2  3  1  0  0  0  0
  3 15  1  0  0  0  0
  4  3  2  0  0  0  0
  4  5  1  0  0  0  0
  6  4  1  0  0  0  0
  7  6  1  0  0  0  0
  8  6  2  0  0  0  0
  9  8  1  0  0  0  0
 10  8  1  0  0  0  0
 10  2  2  0  0  0  0
 11 13  1  0  0  0  0
 11 10  1  0  0  0  0
 12 11  1  0  0  0  0
 14 11  1  0  0  0  0
 15 16  1  0  0  0  0
 15 18  1  0  0  0  0
 17 15  1  0  0  0  0
 19 68  2  0  0  0  0
 19 64  1  0  0  0  0
 20 64  1  0  0  0  0
 21 20  1  0  0  0  0
 21 33  1  0  0  0  0
 22 21  2  0  0  0  0
 23 22  1  0  0  0  0
 24 26  2  0  0  0  0
 24 22  1  0  0  0  0
 25 24  1  0  0  0  0
 26 28  1  0  0  0  0
 27 26  1  0  0  0  0
 28 29  1  0  0  0  0
 28 20  2  0  0  0  0
 29 31  1  0  0  0  0
 29 30  1  0  0  0  0
 32 29  1  0  0  0  0
 33 36  1  0  0  0  0
 34 33  1  0  0  0  0
 35 33  1  0  0  0  0
 37 63  2  0  0  0  0
 38 37  1  0  0  0  0
 38 39  1  0  0  0  0
 39 40  1  0  0  0  0
 41 39  2  0  0  0  0
 41 42  1  0  0  0  0
 43 41  1  0  0  0  0
 44 43  1  0  0  0  0
 45 47  1  0  0  0  0
 45 43  2  0  0  0  0
 46 45  1  0  0  0  0
 47 38  2  0  0  0  0
 48 47  1  0  0  0  0
 49 37  1  0  0  0  0
 50 49  1  0  0  0  0
 50 51  1  0  0  0  0
 52 50  2  0  0  0  0
 53 52  1  0  0  0  0
 54 56  2  0  0  0  0
 54 52  1  0  0  0  0
 55 54  1  0  0  0  0
 56 58  1  0  0  0  0
 57 56  1  0  0  0  0
 58 59  1  0  0  0  0
 58 49  2  0  0  0  0
 60  2  1  0  0  0  0
 61 19  1  0  0  0  0
 62 61  1  0  0  0  0
 63 61  1  0  0  0  0
 64 65  1  0  0  0  0
 66 68  1  0  0  0  0
 68 67  1  0  0  0  0
 68  1  1  0  0  0  0
M  END
$$$$
