CSD_code = APIRIC | q = 0 | S = 0 | Stoichiometry = C28H20ClN7Ru | MND = 6
 OpenBabel04212202003D

 57 65  0  0  1  0  0  0  0  0999 V2000
    2.8003    4.7016   15.4923 C   0  0  0  0  0  3  0  0  0  0  0  0
    3.3270    5.6302   15.3077 H   0  0  0  0  0  0  0  0  0  0  0  0
    1.7500    4.6857   16.3809 C   0  0  0  0  0  0  0  0  0  0  0  0
    1.4756    5.5860   16.9064 H   0  0  0  0  0  0  0  0  0  0  0  0
    1.0598    3.4889   16.5791 C   0  0  0  0  0  0  0  0  0  0  0  0
    0.2534    3.4279   17.2946 H   0  0  0  0  0  0  0  0  0  0  0  0
    1.4051    2.4123   15.8082 C   0  0  0  0  0  0  0  0  0  0  0  0
    0.8768    1.4743   15.8555 H   0  0  0  0  0  0  0  0  0  0  0  0
    2.4592    2.5046   14.8707 C   0  0  0  0  0  0  0  0  0  0  0  0
    3.4185    1.3442   13.0672 C   0  0  0  0  0  0  0  0  0  0  0  0
    3.3363    0.3083   12.0334 C   0  0  0  0  0  0  0  0  0  0  0  0
    2.4374   -0.7122   11.7994 C   0  0  0  0  0  0  0  0  0  0  0  0
    1.6027   -0.8726   12.4630 H   0  0  0  0  0  0  0  0  0  0  0  0
    2.6492   -1.5129   10.6837 C   0  0  0  0  0  0  0  0  0  0  0  0
    1.9635   -2.3205   10.4720 H   0  0  0  0  0  0  0  0  0  0  0  0
    3.7221   -1.2920    9.8308 C   0  0  0  0  0  0  0  0  0  0  0  0
    3.8527   -1.9306    8.9695 H   0  0  0  0  0  0  0  0  0  0  0  0
    4.6276   -0.2636   10.0627 C   0  0  0  0  0  0  0  0  0  0  0  0
    5.4602   -0.0810    9.4023 H   0  0  0  0  0  0  0  0  0  0  0  0
    4.4221    0.5302   11.1720 C   0  0  0  0  0  0  0  0  0  0  0  0
    5.1465    1.6818   11.7182 C   0  0  0  0  0  0  0  0  0  0  0  0
    7.0126    3.1239   11.7111 C   0  0  0  0  0  0  0  0  0  0  0  0
    8.0709    3.5267   10.8679 C   0  0  0  0  0  0  0  0  0  0  0  0
    8.0576    3.1528    9.8575 H   0  0  0  0  0  0  0  0  0  0  0  0
    9.0650    4.3440   11.3353 C   0  0  0  0  0  0  0  0  0  0  0  0
    9.8717    4.6672   10.6954 H   0  0  0  0  0  0  0  0  0  0  0  0
    9.0240    4.7186   12.6784 C   0  0  0  0  0  0  0  0  0  0  0  0
    9.8071    5.3143   13.1194 H   0  0  0  0  0  0  0  0  0  0  0  0
    7.9484    4.3266   13.4410 C   0  0  0  0  0  0  0  0  0  0  0  0
    7.9144    4.6087   14.4883 H   0  0  0  0  0  0  0  0  0  0  0  0
    5.7279    1.2466   15.5989 C   0  0  0  0  0  3  0  0  0  0  0  0
    5.6188    0.7001   14.6704 H   0  0  0  0  0  0  0  0  0  0  0  0
    5.9093    0.5788   16.7903 C   0  0  0  0  0  0  0  0  0  0  0  0
    5.9388   -0.4985   16.8049 H   0  0  0  0  0  0  0  0  0  0  0  0
    6.0389    1.3179   17.9644 C   0  0  0  0  0  0  0  0  0  0  0  0
    6.1652    0.8253   18.9155 H   0  0  0  0  0  0  0  0  0  0  0  0
    6.0080    2.6947   17.8821 C   0  0  0  0  0  0  0  0  0  0  0  0
    6.1136    3.2954   18.7711 H   0  0  0  0  0  0  0  0  0  0  0  0
    5.8260    3.3120   16.6438 C   0  0  0  0  0  0  0  0  0  0  0  0
    5.8467    4.7459   16.4194 C   0  0  1  0  0  3  0  0  0  0  0  0
    6.1094    5.7070   17.3975 C   0  0  0  0  0  0  0  0  0  0  0  0
    6.2460    5.4090   18.4246 H   0  0  0  0  0  0  0  0  0  0  0  0
    6.1917    7.0376   17.0418 C   0  0  0  0  0  0  0  0  0  0  0  0
    6.3883    7.7943   17.7849 H   0  0  0  0  0  0  0  0  0  0  0  0
    6.0213    7.3815   15.7010 C   0  0  0  0  0  0  0  0  0  0  0  0
    6.0845    8.4084   15.3796 H   0  0  0  0  0  0  0  0  0  0  0  0
    5.7585    6.3884   14.7830 C   0  0  0  0  0  0  0  0  0  0  0  0
    5.5937    6.6074   13.7343 H   0  0  0  0  0  0  0  0  0  0  0  0
    4.3282    5.0308   12.2107 Cl  0  0  0  0  0  0  0  0  0  0  0  0
    3.2130    3.6360   14.7981 N   0  0  0  0  0  0  0  0  0  0  0  0
    2.5653    1.4462   14.0462 N   0  0  0  0  0  2  0  0  0  0  0  0
    4.5032    2.1077   12.8326 N   0  0  0  0  0  0  0  0  0  0  0  0
    6.2204    2.1673   11.1847 N   0  0  0  0  0  0  0  0  0  0  0  0
    6.9208    3.6007   12.9821 N   0  0  0  0  0  0  0  0  0  0  0  0
    5.6629    2.5770   15.5090 N   0  0  0  0  0  0  0  0  0  0  0  0
    5.6548    5.0985   15.1196 N   0  0  0  0  0  0  0  0  0  0  0  0
    5.1047    3.6405   13.9450 Ru  0  0  0  0  0  0  0  0  0  0  0  0
  1  3  1  0  0  0  0
  2  1  1  0  0  0  0
  3  5  2  0  0  0  0
  3  4  1  0  0  0  0
  5  6  1  0  0  0  0
  7  8  1  0  0  0  0
  7  5  1  0  0  0  0
  9  7  2  0  0  0  0
 10 51  1  0  0  0  0
 11 10  2  0  0  0  0
 12 11  1  0  0  0  0
 12 13  1  0  0  0  0
 14 12  2  0  0  0  0
 15 14  1  0  0  0  0
 16 18  2  0  0  0  0
 16 14  1  0  0  0  0
 17 16  1  0  0  0  0
 18 20  1  0  0  0  0
 19 18  1  0  0  0  0
 20 21  2  0  0  0  0
 20 11  1  0  0  0  0
 21 52  1  0  0  0  0
 22 54  1  0  0  0  0
 23 25  2  0  0  0  0
 23 22  1  0  0  0  0
 24 23  1  0  0  0  0
 25 27  1  0  0  0  0
 26 25  1  0  0  0  0
 27 28  1  0  0  0  0
 27 29  2  0  0  0  0
 29 30  1  0  0  0  0
 31 33  1  0  0  0  0
 32 31  1  0  0  0  0
 33 34  1  0  0  0  0
 33 35  2  0  0  0  0
 35 36  1  0  0  0  0
 37 35  1  0  0  0  0
 37 38  1  0  0  0  0
 39 37  2  0  0  0  0
 40 39  1  6  0  0  0
 40 41  1  0  0  0  0
 41 42  1  0  0  0  0
 43 41  2  0  0  0  0
 43 44  1  0  0  0  0
 45 43  1  0  0  0  0
 46 45  1  0  0  0  0
 47 56  1  0  0  0  0
 47 45  2  0  0  0  0
 48 47  1  0  0  0  0
 49 57  1  0  0  0  0
 50  9  1  0  0  0  0
 50  1  1  0  0  0  0
 51  9  1  0  0  0  0
 52 10  1  0  0  0  0
 52 57  1  0  0  0  0
 53 22  2  0  0  0  0
 53 21  1  0  0  0  0
 54 29  1  0  0  0  0
 54 57  1  0  0  0  0
 55 31  1  0  0  0  0
 55 39  1  0  0  0  0
 56 40  1  0  0  0  0
 57 50  1  0  0  0  0
 57 56  1  0  0  0  0
 57 55  1  0  0  0  0
M  END
$$$$
