CSD_code = APIYEE | q = 0 | S = 0 | Stoichiometry = C16H24Br2N2O2Zn | MND = 4
 OpenBabel04212202003D

 47 49  0  0  0  0  0  0  0  0999 V2000
   -0.2632    3.7196    6.5857 Zn  0  0  0  0  0  0  0  0  0  0  0  0
   -2.3455    4.2450    5.5764 Br  0  0  0  0  0  0  0  0  0  0  0  0
    0.3674    5.5274    8.0503 Br  0  0  0  0  0  0  0  0  0  0  0  0
    0.9048    2.6347    5.7004 O   0  0  0  0  0  0  0  0  0  0  0  0
    2.1907    1.5175    3.7692 O   0  0  0  0  0  0  0  0  0  0  0  0
   -0.8134    2.3153    8.0206 N   0  0  0  0  0  0  0  0  0  0  0  0
   -2.5741    4.8733    9.2750 N   0  0  0  0  0  4  0  0  0  0  0  0
    0.1718    0.5592    6.6442 C   0  0  0  0  0  0  0  0  0  0  0  0
    0.8579    1.3554    5.6853 C   0  0  0  0  0  0  0  0  0  0  0  0
    1.5731    0.6734    4.6368 C   0  0  0  0  0  0  0  0  0  0  0  0
    1.5842   -0.6951    4.5663 C   0  0  0  0  0  0  0  0  0  0  0  0
    2.1143   -1.2038    3.7763 H   0  0  0  0  0  0  0  0  0  0  0  0
    0.9051   -1.4631    5.5253 C   0  0  0  0  0  0  0  0  0  0  0  0
    0.9319   -2.5391    5.4504 H   0  0  0  0  0  0  0  0  0  0  0  0
    0.2257   -0.8538    6.5345 C   0  0  0  0  0  0  0  0  0  0  0  0
   -0.2981   -1.4440    7.2733 H   0  0  0  0  0  0  0  0  0  0  0  0
   -0.5481    1.0807    7.7459 C   0  0  0  0  0  3  0  0  0  0  0  0
   -0.9074    0.3196    8.4507 H   0  0  0  0  0  0  0  0  0  0  0  0
   -1.4901    2.5917    9.2693 C   0  0  0  0  0  0  0  0  0  0  0  0
   -0.7880    3.1349    9.9122 H   0  0  0  0  0  0  0  0  0  0  0  0
   -1.7462    1.6491    9.7734 H   0  0  0  0  0  0  0  0  0  0  0  0
   -2.7730    3.4195    9.0831 C   0  0  0  0  0  0  0  0  0  0  0  0
   -3.1512    3.2582    8.0708 H   0  0  0  0  0  0  0  0  0  0  0  0
   -3.5356    3.0892    9.7919 H   0  0  0  0  0  0  0  0  0  0  0  0
   -2.4484    5.2466   10.6982 C   0  0  0  0  0  0  0  0  0  0  0  0
   -3.4094    5.0583   11.1859 H   0  0  0  0  0  0  0  0  0  0  0  0
   -1.6873    4.6216   11.1655 H   0  0  0  0  0  0  0  0  0  0  0  0
   -2.0589    6.7138   10.8236 C   0  0  0  0  0  0  0  0  0  0  0  0
   -1.9638    6.9652   11.8794 H   0  0  0  0  0  0  0  0  0  0  0  0
   -1.0908    6.8670   10.3448 H   0  0  0  0  0  0  0  0  0  0  0  0
   -3.1075    7.5944   10.1539 C   0  0  0  0  0  0  0  0  0  0  0  0
   -2.7958    8.6363   10.1956 H   0  0  0  0  0  0  0  0  0  0  0  0
   -4.0612    7.5064   10.6792 H   0  0  0  0  0  0  0  0  0  0  0  0
   -3.2704    7.1557    8.7037 C   0  0  0  0  0  0  0  0  0  0  0  0
   -4.0495    7.7335    8.2091 H   0  0  0  0  0  0  0  0  0  0  0  0
   -2.3360    7.3198    8.1667 H   0  0  0  0  0  0  0  0  0  0  0  0
   -3.6348    5.6801    8.6303 C   0  0  0  0  0  0  0  0  0  0  0  0
   -4.5780    5.4833    9.1458 H   0  0  0  0  0  0  0  0  0  0  0  0
   -3.7227    5.3733    7.5859 H   0  0  0  0  0  0  0  0  0  0  0  0
    2.9060    0.9727    2.6832 C   0  0  0  0  0  0  0  0  0  0  0  0
    2.2374    0.3624    2.0582 H   0  0  0  0  0  0  0  0  0  0  0  0
    3.7212    0.3321    3.0511 H   0  0  0  0  0  0  0  0  0  0  0  0
    3.4700    2.1306    1.8746 C   0  0  0  0  0  0  0  0  0  0  0  0
    2.6596    2.7574    1.5123 H   0  0  0  0  0  0  0  0  0  0  0  0
    4.0367    1.7516    1.0286 H   0  0  0  0  0  0  0  0  0  0  0  0
    4.1199    2.7360    2.5007 H   0  0  0  0  0  0  0  0  0  0  0  0
   -1.6641    5.1536    8.8219 H   0  0  0  0  0  0  0  0  0  0  0  0
  1  6  1  0  0  0  0
  1  3  1  0  0  0  0
  2  1  1  0  0  0  0
  4  1  1  0  0  0  0
  5 10  1  0  0  0  0
  6 19  1  0  0  0  0
  7 25  1  0  0  0  0
  8 17  1  0  0  0  0
  9  4  1  0  0  0  0
  9  8  2  0  0  0  0
 10  9  1  0  0  0  0
 11 10  2  0  0  0  0
 11 13  1  0  0  0  0
 12 11  1  0  0  0  0
 13 15  2  0  0  0  0
 14 13  1  0  0  0  0
 15  8  1  0  0  0  0
 15 16  1  0  0  0  0
 17  6  1  0  0  0  0
 17 18  1  0  0  0  0
 19 21  1  0  0  0  0
 19 20  1  0  0  0  0
 22 19  1  0  0  0  0
 22  7  1  0  0  0  0
 22 24  1  0  0  0  0
 23 22  1  0  0  0  0
 25 28  1  0  0  0  0
 25 27  1  0  0  0  0
 25 26  1  0  0  0  0
 28 29  1  0  0  0  0
 30 28  1  0  0  0  0
 31 32  1  0  0  0  0
 31 33  1  0  0  0  0
 31 28  1  0  0  0  0
 34 31  1  0  0  0  0
 35 34  1  0  0  0  0
 36 34  1  0  0  0  0
 37 34  1  0  0  0  0
 37 38  1  0  0  0  0
 37  7  1  0  0  0  0
 39 37  1  0  0  0  0
 40 42  1  0  0  0  0
 40  5  1  0  0  0  0
 41 40  1  0  0  0  0
 43 46  1  0  0  0  0
 43 40  1  0  0  0  0
 44 43  1  0  0  0  0
 45 43  1  0  0  0  0
 47  7  1  0  0  0  0
M  END
$$$$
