CSD_code = APOFIW | q = 0 | S = 0 | Stoichiometry = C32H28Cl2N2Pd | MND = 4
 OpenBabel04212202003D

 65 71  0  0  1  0  0  0  0  0999 V2000
    2.6570    7.0333    4.7882 Pd  0  0  0  0  0  0  0  0  0  0  0  0
    1.7894    7.4388    6.5277 N   0  0  0  0  0  0  0  0  0  0  0  0
    3.7356    6.6865    2.8823 Cl  0  0  0  0  0  0  0  0  0  0  0  0
    1.4294    5.2282    4.4002 Cl  0  0  0  0  0  0  0  0  0  0  0  0
    3.8919   10.3447    7.1407 C   0  0  1  0  0  0  0  0  0  0  0  0
    4.6942   10.8595    6.6124 H   0  0  0  0  0  0  0  0  0  0  0  0
    2.6566   11.1923    7.3494 C   0  0  0  0  0  0  0  0  0  0  0  0
    2.4885   12.4887    6.9071 C   0  0  0  0  0  0  0  0  0  0  0  0
    3.2835   12.9910    6.3758 H   0  0  0  0  0  0  0  0  0  0  0  0
    1.9559    9.1150    8.4214 C   0  0  1  0  0  0  0  0  0  0  0  0
    1.1518    8.6094    8.9558 H   0  0  0  0  0  0  0  0  0  0  0  0
    4.2895    9.8223    8.5025 C   0  0  0  0  0  0  0  0  0  0  0  0
    3.2606    9.1686    9.1830 C   0  0  0  0  0  0  0  0  0  0  0  0
    1.6277   10.5388    8.0300 C   0  0  0  0  0  0  0  0  0  0  0  0
    3.4855    8.6214   10.4299 C   0  0  0  0  0  0  0  0  0  0  0  0
    2.6892    8.1141   10.9547 H   0  0  0  0  0  0  0  0  0  0  0  0
    5.5436    9.9289    9.0686 C   0  0  0  0  0  0  0  0  0  0  0  0
    6.3396   10.4332    8.5404 H   0  0  0  0  0  0  0  0  0  0  0  0
    4.7472    8.7312   10.9979 C   0  0  0  0  0  0  0  0  0  0  0  0
    4.9322    8.3052   11.9722 H   0  0  0  0  0  0  0  0  0  0  0  0
    5.7671    9.3791   10.3234 C   0  0  0  0  0  0  0  0  0  0  0  0
    6.7451    9.4570   10.7731 H   0  0  0  0  0  0  0  0  0  0  0  0
    0.2644   12.4865    7.8266 C   0  0  0  0  0  0  0  0  0  0  0  0
   -0.6692   12.9966    8.0085 H   0  0  0  0  0  0  0  0  0  0  0  0
    0.4299   11.1812    8.2691 C   0  0  0  0  0  0  0  0  0  0  0  0
   -0.3671   10.6724    8.7910 H   0  0  0  0  0  0  0  0  0  0  0  0
    1.2843   13.1343    7.1518 C   0  0  0  0  0  0  0  0  0  0  0  0
    1.1437   14.1480    6.8091 H   0  0  0  0  0  0  0  0  0  0  0  0
    3.3739    9.1293    6.4154 C   0  0  0  0  0  0  0  0  0  0  0  0
    2.3178    8.4589    7.1137 C   0  0  0  0  0  0  0  0  0  0  0  0
    3.7030    8.6529    5.2630 N   0  0  0  0  0  0  0  0  0  0  0  0
    4.6720    9.2528    4.4450 C   0  0  0  0  0  0  0  0  0  0  0  0
    6.0111    8.8845    4.5864 C   0  0  0  0  0  0  0  0  0  0  0  0
    6.5481   10.4002    2.7962 C   0  0  0  0  0  0  0  0  0  0  0  0
    7.2858   10.8551    2.1526 H   0  0  0  0  0  0  0  0  0  0  0  0
    5.2095   10.7151    2.6373 C   0  0  0  0  0  0  0  0  0  0  0  0
    4.9038   11.4026    1.8628 H   0  0  0  0  0  0  0  0  0  0  0  0
    4.2483   10.1406    3.4531 C   0  0  0  0  0  0  0  0  0  0  0  0
    6.9433    9.4791    3.7509 C   0  0  0  0  0  0  0  0  0  0  0  0
    7.9841    9.2060    3.8406 H   0  0  0  0  0  0  0  0  0  0  0  0
    6.3673    7.8237    5.5830 C   0  0  0  0  0  0  0  0  0  0  0  0
    7.3977    7.5042    5.4550 H   0  0  0  0  0  0  0  0  0  0  0  0
    5.7063    6.9580    5.4365 H   0  0  0  0  0  0  0  0  0  0  0  0
    6.2348    8.1778    6.6073 H   0  0  0  0  0  0  0  0  0  0  0  0
    2.7799   10.3876    3.2833 C   0  0  0  0  0  0  0  0  0  0  0  0
    2.2567    9.4191    3.2142 H   0  0  0  0  0  0  0  0  0  0  0  0
    2.5861   10.9551    2.3776 H   0  0  0  0  0  0  0  0  0  0  0  0
    2.3683   10.9336    4.1350 H   0  0  0  0  0  0  0  0  0  0  0  0
    0.7054    6.7322    7.0697 C   0  0  0  0  0  0  0  0  0  0  0  0
    0.9488    5.6623    7.9329 C   0  0  0  0  0  0  0  0  0  0  0  0
    2.3673    5.2739    8.2203 C   0  0  0  0  0  0  0  0  0  0  0  0
    2.9144    5.1858    7.2710 H   0  0  0  0  0  0  0  0  0  0  0  0
    2.4086    4.3202    8.7388 H   0  0  0  0  0  0  0  0  0  0  0  0
    2.8715    6.0263    8.8300 H   0  0  0  0  0  0  0  0  0  0  0  0
   -1.4294    5.3264    8.0802 C   0  0  0  0  0  0  0  0  0  0  0  0
   -2.2680    4.7780    8.4818 H   0  0  0  0  0  0  0  0  0  0  0  0
   -0.5849    7.0720    6.6562 C   0  0  0  0  0  0  0  0  0  0  0  0
   -0.1405    4.9704    8.4380 C   0  0  0  0  0  0  0  0  0  0  0  0
    0.0251    4.1373    9.1047 H   0  0  0  0  0  0  0  0  0  0  0  0
   -1.6486    6.3575    7.1830 C   0  0  0  0  0  0  0  0  0  0  0  0
   -2.6543    6.6023    6.8753 H   0  0  0  0  0  0  0  0  0  0  0  0
   -0.7546    8.1498    5.6288 C   0  0  0  0  0  0  0  0  0  0  0  0
   -1.7802    8.1857    5.2727 H   0  0  0  0  0  0  0  0  0  0  0  0
   -0.0892    7.9419    4.7744 H   0  0  0  0  0  0  0  0  0  0  0  0
   -0.4886    9.1289    6.0332 H   0  0  0  0  0  0  0  0  0  0  0  0
  1 31  1  0  0  0  0
  1  2  1  0  0  0  0
  2 49  1  0  0  0  0
  2 30  1  0  0  0  0
  3  1  1  0  0  0  0
  4  1  1  0  0  0  0
  5  6  1  6  0  0  0
  5  7  1  0  0  0  0
  5 12  1  0  0  0  0
  7 14  1  0  0  0  0
  8 27  1  0  0  0  0
  8  7  2  0  0  0  0
  9  8  1  0  0  0  0
 10 11  1  1  0  0  0
 10 13  1  0  0  0  0
 12 17  2  0  0  0  0
 12 13  1  0  0  0  0
 13 15  2  0  0  0  0
 14 25  2  0  0  0  0
 14 10  1  0  0  0  0
 15 16  1  0  0  0  0
 15 19  1  0  0  0  0
 17 21  1  0  0  0  0
 18 17  1  0  0  0  0
 19 20  1  0  0  0  0
 21 22  1  0  0  0  0
 21 19  2  0  0  0  0
 23 24  1  0  0  0  0
 23 25  1  0  0  0  0
 25 26  1  0  0  0  0
 27 23  2  0  0  0  0
 28 27  1  0  0  0  0
 29 30  2  0  0  0  0
 29  5  1  0  0  0  0
 30 10  1  0  0  0  0
 31 29  1  0  0  0  0
 32 33  1  0  0  0  0
 32 31  1  0  0  0  0
 33 41  1  0  0  0  0
 34 39  1  0  0  0  0
 35 34  1  0  0  0  0
 36 34  2  0  0  0  0
 36 38  1  0  0  0  0
 37 36  1  0  0  0  0
 38 32  2  0  0  0  0
 39 40  1  0  0  0  0
 39 33  2  0  0  0  0
 41 44  1  0  0  0  0
 42 41  1  0  0  0  0
 43 41  1  0  0  0  0
 45 38  1  0  0  0  0
 45 48  1  0  0  0  0
 46 45  1  0  0  0  0
 47 45  1  0  0  0  0
 49 50  1  0  0  0  0
 50 51  1  0  0  0  0
 50 58  2  0  0  0  0
 51 53  1  0  0  0  0
 51 54  1  0  0  0  0
 52 51  1  0  0  0  0
 55 58  1  0  0  0  0
 55 56  1  0  0  0  0
 57 49  2  0  0  0  0
 57 60  1  0  0  0  0
 58 59  1  0  0  0  0
 60 55  2  0  0  0  0
 61 60  1  0  0  0  0
 62 65  1  0  0  0  0
 62 57  1  0  0  0  0
 63 62  1  0  0  0  0
 64 62  1  0  0  0  0
M  END
$$$$
