CSD_code = APOFOC | q = 0 | S = 0 | Stoichiometry = C40H44Cl2N2Pd | MND = 4
 OpenBabel04212202003D

 89 95  0  0  1  0  0  0  0  0999 V2000
    8.6822    0.4831    3.3597 Pd  0  0  0  0  0  0  0  0  0  0  0  0
    7.1100    2.6767    7.4900 C   0  0  0  0  0  0  0  0  0  0  0  0
    7.5292    2.5481    8.7989 C   0  0  0  0  0  0  0  0  0  0  0  0
    7.2894    1.6596    9.3634 H   0  0  0  0  0  0  0  0  0  0  0  0
    7.4165    3.8263    6.7598 C   0  0  0  0  0  0  0  0  0  0  0  0
    8.1422    4.8480    7.3386 C   0  0  0  0  0  0  0  0  0  0  0  0
    8.3764    5.7380    6.7741 H   0  0  0  0  0  0  0  0  0  0  0  0
    4.4005    4.3133    4.9264 C   0  0  0  0  0  0  0  0  0  0  0  0
    4.6385    5.2055    4.3661 H   0  0  0  0  0  0  0  0  0  0  0  0
    5.1026    2.3851    6.1883 C   0  0  0  0  0  0  0  0  0  0  0  0
    5.4084    3.5349    5.4593 C   0  0  0  0  0  0  0  0  0  0  0  0
    7.4676    2.5531    4.7395 C   0  0  0  0  0  0  0  0  0  0  0  0
    6.8903    3.8111    5.3412 C   0  0  2  0  0  0  0  0  0  0  0  0
    7.1245    4.7112    4.7727 H   0  0  0  0  0  0  0  0  0  0  0  0
    7.3569   -0.9909    5.6229 C   0  0  0  0  0  0  0  0  0  0  0  0
    8.0797   -1.3582    6.7685 C   0  0  0  0  0  0  0  0  0  0  0  0
    8.5673    4.7140    8.6528 C   0  0  0  0  0  0  0  0  0  0  0  0
    9.1384    5.5067    9.1114 H   0  0  0  0  0  0  0  0  0  0  0  0
    6.4643   -1.8698    4.9943 C   0  0  0  0  0  0  0  0  0  0  0  0
    8.1515    2.3902    3.6585 N   0  0  0  0  0  0  0  0  0  0  0  0
    9.5680    4.2958    3.1615 C   0  0  0  0  0  0  0  0  0  0  0  0
    8.5215    3.4335    2.8002 C   0  0  0  0  0  0  0  0  0  0  0  0
   10.3237    4.0613    4.4530 C   0  0  0  0  0  0  0  0  0  0  0  0
    9.6118    3.7764    5.2363 H   0  0  0  0  0  0  0  0  0  0  0  0
    8.2635    3.5742    9.3765 C   0  0  0  0  0  0  0  0  0  0  0  0
    8.5983    3.4799   10.3983 H   0  0  0  0  0  0  0  0  0  0  0  0
    6.9216   -3.4707    6.7325 C   0  0  0  0  0  0  0  0  0  0  0  0
    6.7454   -4.4400    7.1746 H   0  0  0  0  0  0  0  0  0  0  0  0
    9.1440   -0.4298    7.3160 C   0  0  0  0  0  0  0  0  0  0  0  0
    8.7753    0.6016    7.2699 H   0  0  0  0  0  0  0  0  0  0  0  0
    9.5082   -0.7146    8.7726 C   0  0  0  0  0  0  0  0  0  0  0  0
    8.6165   -0.7793    9.3928 H   0  0  0  0  0  0  0  0  0  0  0  0
   10.1331    0.0904    9.1542 H   0  0  0  0  0  0  0  0  0  0  0  0
   10.0664   -1.6429    8.8617 H   0  0  0  0  0  0  0  0  0  0  0  0
    7.8458   -2.6148    7.3040 C   0  0  0  0  0  0  0  0  0  0  0  0
    8.3917   -2.9386    8.1750 H   0  0  0  0  0  0  0  0  0  0  0  0
    6.2452   -3.1052    5.5846 C   0  0  0  0  0  0  0  0  0  0  0  0
    5.5506   -3.7973    5.1374 H   0  0  0  0  0  0  0  0  0  0  0  0
    9.2725    5.4209    1.0517 C   0  0  0  0  0  0  0  0  0  0  0  0
    9.5631    6.2063    0.3701 H   0  0  0  0  0  0  0  0  0  0  0  0
    8.2666    4.5417    0.6990 C   0  0  0  0  0  0  0  0  0  0  0  0
    7.7857    4.6466   -0.2597 H   0  0  0  0  0  0  0  0  0  0  0  0
    9.9307    5.2845    2.2605 C   0  0  0  0  0  0  0  0  0  0  0  0
   10.7399    5.9562    2.4962 H   0  0  0  0  0  0  0  0  0  0  0  0
    3.0801    3.9337    5.1214 C   0  0  0  0  0  0  0  0  0  0  0  0
    2.2861    4.5354    4.7065 H   0  0  0  0  0  0  0  0  0  0  0  0
    5.7624   -1.4589    3.7176 C   0  0  0  0  0  0  0  0  0  0  0  0
    6.3988   -0.7154    3.1927 H   0  0  0  0  0  0  0  0  0  0  0  0
   10.3973   -0.5207    6.4352 C   0  0  0  0  0  0  0  0  0  0  0  0
   10.7648   -1.5438    6.4101 H   0  0  0  0  0  0  0  0  0  0  0  0
   11.1790    0.1261    6.8288 H   0  0  0  0  0  0  0  0  0  0  0  0
   10.1817   -0.2150    5.3996 H   0  0  0  0  0  0  0  0  0  0  0  0
    3.7880    2.0120    6.3850 C   0  0  0  0  0  0  0  0  0  0  0  0
    3.5518    1.1245    6.9534 H   0  0  0  0  0  0  0  0  0  0  0  0
    5.5765   -2.6307    2.7552 C   0  0  0  0  0  0  0  0  0  0  0  0
    6.5261   -3.1394    2.6098 H   0  0  0  0  0  0  0  0  0  0  0  0
    5.2337   -2.2599    1.7915 H   0  0  0  0  0  0  0  0  0  0  0  0
    4.8402   -3.3413    3.1231 H   0  0  0  0  0  0  0  0  0  0  0  0
   11.0729    5.2965    4.9514 C   0  0  0  0  0  0  0  0  0  0  0  0
   11.9325    5.5132    4.3226 H   0  0  0  0  0  0  0  0  0  0  0  0
   11.4334    5.1188    5.9626 H   0  0  0  0  0  0  0  0  0  0  0  0
   10.4212    6.1678    4.9681 H   0  0  0  0  0  0  0  0  0  0  0  0
    7.1554    1.3724    5.4908 C   0  0  0  0  0  0  0  0  0  0  0  0
    6.8099    2.5216    1.1790 C   0  0  0  0  0  0  0  0  0  0  0  0
    7.0119    1.5720    1.7184 H   0  0  0  0  0  0  0  0  0  0  0  0
    7.8855    3.5188    1.5538 C   0  0  0  0  0  0  0  0  0  0  0  0
    6.3151    1.6499    6.7134 C   0  0  1  0  0  0  0  0  0  0  0  0
    6.0714    0.7542    7.2848 H   0  0  0  0  0  0  0  0  0  0  0  0
    2.7766    2.7933    5.8441 C   0  0  0  0  0  0  0  0  0  0  0  0
    1.7464    2.5075    5.9914 H   0  0  0  0  0  0  0  0  0  0  0  0
   11.3013    2.8943    4.2603 C   0  0  0  0  0  0  0  0  0  0  0  0
   10.7687    1.9667    3.9992 H   0  0  0  0  0  0  0  0  0  0  0  0
   11.8640    2.7224    5.1758 H   0  0  0  0  0  0  0  0  0  0  0  0
   11.9970    3.1167    3.4545 H   0  0  0  0  0  0  0  0  0  0  0  0
    9.8722    0.8647    1.5097 Cl  0  0  0  0  0  0  0  0  0  0  0  0
    7.5904    0.2529    5.0219 N   0  0  0  0  0  0  0  0  0  0  0  0
    9.2054   -1.6749    3.1303 Cl  0  0  0  0  0  0  0  0  0  0  0  0
    4.4186   -0.7976    4.0379 C   0  0  0  0  0  0  0  0  0  0  0  0
    3.7791   -1.4903    4.5823 H   0  0  0  0  0  0  0  0  0  0  0  0
    3.9122   -0.5109    3.1188 H   0  0  0  0  0  0  0  0  0  0  0  0
    4.5542    0.0962    4.6445 H   0  0  0  0  0  0  0  0  0  0  0  0
    6.8194    2.1874   -0.3116 C   0  0  0  0  0  0  0  0  0  0  0  0
    6.1574    1.3451   -0.5002 H   0  0  0  0  0  0  0  0  0  0  0  0
    7.8243    1.9102   -0.6191 H   0  0  0  0  0  0  0  0  0  0  0  0
    6.4766    3.0251   -0.9140 H   0  0  0  0  0  0  0  0  0  0  0  0
    5.4336    3.0349    1.6125 C   0  0  0  0  0  0  0  0  0  0  0  0
    5.3885    3.1805    2.6903 H   0  0  0  0  0  0  0  0  0  0  0  0
    4.6611    2.3216    1.3337 H   0  0  0  0  0  0  0  0  0  0  0  0
    5.2168    3.9848    1.1270 H   0  0  0  0  0  0  0  0  0  0  0  0
  1 20  1  0  0  0  0
  1 76  1  0  0  0  0
  2  3  1  0  0  0  0
  3  4  1  0  0  0  0
  3 25  2  0  0  0  0
  5  6  1  0  0  0  0
  5  2  2  0  0  0  0
  6 17  2  0  0  0  0
  7  6  1  0  0  0  0
  8 45  2  0  0  0  0
  8 11  1  0  0  0  0
  9  8  1  0  0  0  0
 10 53  1  0  0  0  0
 10 67  1  0  0  0  0
 11 10  2  0  0  0  0
 12 13  1  0  0  0  0
 12 63  2  0  0  0  0
 13 14  1  6  0  0  0
 13 11  1  0  0  0  0
 13  5  1  0  0  0  0
 15 16  1  0  0  0  0
 16 35  2  0  0  0  0
 16 29  1  0  0  0  0
 17 18  1  0  0  0  0
 17 25  1  0  0  0  0
 19 37  1  0  0  0  0
 19 15  2  0  0  0  0
 20 12  1  0  0  0  0
 21 23  1  0  0  0  0
 22 21  1  0  0  0  0
 22 20  1  0  0  0  0
 23 59  1  0  0  0  0
 23 24  1  0  0  0  0
 25 26  1  0  0  0  0
 27 28  1  0  0  0  0
 27 35  1  0  0  0  0
 29 31  1  0  0  0  0
 30 29  1  0  0  0  0
 31 34  1  0  0  0  0
 31 33  1  0  0  0  0
 31 32  1  0  0  0  0
 35 36  1  0  0  0  0
 37 27  2  0  0  0  0
 38 37  1  0  0  0  0
 39 43  1  0  0  0  0
 40 39  1  0  0  0  0
 41 39  2  0  0  0  0
 41 66  1  0  0  0  0
 42 41  1  0  0  0  0
 43 44  1  0  0  0  0
 43 21  2  0  0  0  0
 45 69  1  0  0  0  0
 46 45  1  0  0  0  0
 47 78  1  0  0  0  0
 47 19  1  0  0  0  0
 48 47  1  0  0  0  0
 49 51  1  0  0  0  0
 49 29  1  0  0  0  0
 50 49  1  0  0  0  0
 52 49  1  0  0  0  0
 53 54  1  0  0  0  0
 55 58  1  0  0  0  0
 55 47  1  0  0  0  0
 56 55  1  0  0  0  0
 57 55  1  0  0  0  0
 59 62  1  0  0  0  0
 59 61  1  0  0  0  0
 60 59  1  0  0  0  0
 63 67  1  0  0  0  0
 64 66  1  0  0  0  0
 64 86  1  0  0  0  0
 64 65  1  0  0  0  0
 66 22  2  0  0  0  0
 67 68  1  1  0  0  0
 67  2  1  0  0  0  0
 69 70  1  0  0  0  0
 69 53  2  0  0  0  0
 71 23  1  0  0  0  0
 71 73  1  0  0  0  0
 72 71  1  0  0  0  0
 74 71  1  0  0  0  0
 75  1  1  0  0  0  0
 76 63  1  0  0  0  0
 76 15  1  0  0  0  0
 77  1  1  0  0  0  0
 78 79  1  0  0  0  0
 78 81  1  0  0  0  0
 80 78  1  0  0  0  0
 82 64  1  0  0  0  0
 83 82  1  0  0  0  0
 84 82  1  0  0  0  0
 85 82  1  0  0  0  0
 86 87  1  0  0  0  0
 88 86  1  0  0  0  0
 89 86  1  0  0  0  0
M  END
$$$$
