CSD_code = APOTOO | q = 0 | S = 0 | Stoichiometry = C33H27ClNNiP | MND = 7
 OpenBabel04212202003D

 64 68  0  0  1  0  0  0  0  0999 V2000
    7.6807    7.7337    9.7754 Ni  0  0  0  0  0  0  0  0  0  0  0  0
    6.8165    8.4945   11.5168 Cl  0  0  0  0  0 15  0  0  0  0  0  0
    7.2013    9.4801    8.6263 P   0  0  0  0  0  0  0  0  0  0  0  0
   10.1466    3.9344   11.7754 N   0  0  0  0  0  0  0  0  0  0  0  0
    8.1205    5.8806   10.5385 C   0  0  2  0  0  0  0  0  0  0  0  0
    9.2050    6.3245    9.7436 C   0  0  0  0  0  3  0  0  0  0  0  0
    8.7291    6.5641    8.4438 C   0  0  1  0  0  0  0  0  0  0  0  0
    7.3975    5.9871    8.3319 C   0  0  0  0  0  0  0  0  0  0  0  0
    6.5475    5.7939    7.2488 C   0  0  0  0  0  0  0  0  0  0  0  0
    5.3302    5.1728    7.4697 C   0  0  0  0  0  0  0  0  0  0  0  0
    4.9510    4.7611    8.7444 C   0  0  0  0  0  0  0  0  0  0  0  0
    5.7772    4.9520    9.8388 C   0  0  0  0  0  0  0  0  0  0  0  0
    7.0137    5.5576    9.6409 C   0  0  0  0  0  0  0  0  0  0  0  0
    8.2450    5.3976   11.9540 C   0  0  0  0  0  0  0  0  0  0  0  0
    8.8276    4.0096   11.8941 C   0  0  0  0  0  0  0  0  0  0  0  0
    8.0203    2.8761   11.9128 C   0  0  0  0  0  0  0  0  0  0  0  0
    8.6170    1.6317   11.8099 C   0  0  0  0  0  0  0  0  0  0  0  0
    9.9960    1.5577   11.6890 C   0  0  0  0  0  0  0  0  0  0  0  0
   10.7109    2.7450   11.6781 C   0  0  0  0  0  0  0  0  0  0  0  0
    8.0659   11.0385    8.9824 C   0  0  0  0  0  0  0  0  0  0  0  0
    8.0939   12.0868    8.0660 C   0  0  0  0  0  0  0  0  0  0  0  0
    8.7429   13.2643    8.3887 C   0  0  0  0  0  0  0  0  0  0  0  0
    9.3680   13.4018    9.6185 C   0  0  0  0  0  0  0  0  0  0  0  0
    9.3502   12.3568   10.5273 C   0  0  0  0  0  0  0  0  0  0  0  0
    8.7031   11.1758   10.2105 C   0  0  0  0  0  0  0  0  0  0  0  0
    7.3913    9.3378    6.8181 C   0  0  0  0  0  0  0  0  0  0  0  0
    6.3227    9.0535    5.9770 C   0  0  0  0  0  0  0  0  0  0  0  0
    6.5397    8.8696    4.6219 C   0  0  0  0  0  0  0  0  0  0  0  0
    7.8196    8.9579    4.1012 C   0  0  0  0  0  0  0  0  0  0  0  0
    8.8911    9.2287    4.9392 C   0  0  0  0  0  0  0  0  0  0  0  0
    8.6792    9.4105    6.2918 C   0  0  0  0  0  0  0  0  0  0  0  0
    5.4332    9.8830    8.8015 C   0  0  0  0  0  0  0  0  0  0  0  0
    4.5726    8.8069    9.0036 C   0  0  0  0  0  0  0  0  0  0  0  0
    3.2119    9.0156    9.1161 C   0  0  0  0  0  0  0  0  0  0  0  0
    2.7037   10.3026    9.0359 C   0  0  0  0  0  0  0  0  0  0  0  0
    3.5584   11.3759    8.8481 C   0  0  0  0  0  0  0  0  0  0  0  0
    4.9225   11.1718    8.7297 C   0  0  0  0  0  0  0  0  0  0  0  0
   10.2153    6.4606   10.0973 H   0  0  0  0  0  0  0  0  0  0  0  0
    9.3322    6.8427    7.5912 H   0  0  0  0  0  0  0  0  0  0  0  0
    6.8360    6.1190    6.2589 H   0  0  0  0  0  0  0  0  0  0  0  0
    4.6610    5.0035    6.6387 H   0  0  0  0  0  0  0  0  0  0  0  0
    3.9926    4.2818    8.8807 H   0  0  0  0  0  0  0  0  0  0  0  0
    5.4618    4.6427   10.8245 H   0  0  0  0  0  0  0  0  0  0  0  0
    7.2720    5.3930   12.4454 H   0  0  0  0  0  0  0  0  0  0  0  0
    8.9251    6.0479   12.5059 H   0  0  0  0  0  0  0  0  0  0  0  0
    6.9498    2.9683   12.0116 H   0  0  0  0  0  0  0  0  0  0  0  0
    8.0164    0.7331   11.8245 H   0  0  0  0  0  0  0  0  0  0  0  0
   10.5006    0.6076   11.6073 H   0  0  0  0  0  0  0  0  0  0  0  0
   11.7901    2.7488   11.5897 H   0  0  0  0  0  0  0  0  0  0  0  0
    7.6171   11.9747    7.1015 H   0  0  0  0  0  0  0  0  0  0  0  0
    8.7619   14.0783    7.6785 H   0  0  0  0  0  0  0  0  0  0  0  0
    9.8726   14.3245    9.8644 H   0  0  0  0  0  0  0  0  0  0  0  0
    9.8422   12.4614   11.4826 H   0  0  0  0  0  0  0  0  0  0  0  0
    8.6784   10.3494   10.9104 H   0  0  0  0  0  0  0  0  0  0  0  0
    5.3242    8.9774    6.3834 H   0  0  0  0  0  0  0  0  0  0  0  0
    5.7054    8.6522    3.9709 H   0  0  0  0  0  0  0  0  0  0  0  0
    7.9849    8.8114    3.0440 H   0  0  0  0  0  0  0  0  0  0  0  0
    9.8911    9.2921    4.5353 H   0  0  0  0  0  0  0  0  0  0  0  0
    9.5094    9.6158    6.9560 H   0  0  0  0  0  0  0  0  0  0  0  0
    4.9877    7.8064    9.0879 H   0  0  0  0  0  0  0  0  0  0  0  0
    2.5487    8.1782    9.2743 H   0  0  0  0  0  0  0  0  0  0  0  0
    1.6409   10.4702    9.1302 H   0  0  0  0  0  0  0  0  0  0  0  0
    3.1618   12.3795    8.7983 H   0  0  0  0  0  0  0  0  0  0  0  0
    5.5864   12.0133    8.5961 H   0  0  0  0  0  0  0  0  0  0  0  0
  1  5  1  0  0  0  0
  3 32  1  0  0  0  0
  3 20  1  0  0  0  0
  4 15  1  0  0  0  0
  5 14  1  1  0  0  0
  6 38  1  0  0  0  0
  6  5  1  0  0  0  0
  7 39  1  6  0  0  0
  7  6  1  0  0  0  0
  7  1  1  0  0  0  0
  8  7  1  0  0  0  0
  8 13  1  0  0  0  0
  9 10  1  0  0  0  0
  9  8  2  0  0  0  0
 10 11  2  0  0  0  0
 11 42  1  0  0  0  0
 11 12  1  0  0  0  0
 12 43  1  0  0  0  0
 13 12  2  0  0  0  0
 13  5  1  0  0  0  0
 14 44  1  0  0  0  0
 14 45  1  0  0  0  0
 15 16  2  0  0  0  0
 15 14  1  0  0  0  0
 16 46  1  0  0  0  0
 17 47  1  0  0  0  0
 17 16  1  0  0  0  0
 18 17  2  0  0  0  0
 19 18  1  0  0  0  0
 19  4  2  0  0  0  0
 20 25  1  0  0  0  0
 21 22  1  0  0  0  0
 21 20  2  0  0  0  0
 22 23  2  0  0  0  0
 23 52  1  0  0  0  0
 23 24  1  0  0  0  0
 24 53  1  0  0  0  0
 25 24  2  0  0  0  0
 25 54  1  0  0  0  0
 26  3  1  0  0  0  0
 27 55  1  0  0  0  0
 27 26  2  0  0  0  0
 28 27  1  0  0  0  0
 29 28  2  0  0  0  0
 29 30  1  0  0  0  0
 30 31  2  0  0  0  0
 31 26  1  0  0  0  0
 31 59  1  0  0  0  0
 32 33  1  0  0  0  0
 33 60  1  0  0  0  0
 33 34  2  0  0  0  0
 34 61  1  0  0  0  0
 35 34  1  0  0  0  0
 35 62  1  0  0  0  0
 36 35  2  0  0  0  0
 37 32  2  0  0  0  0
 37 36  1  0  0  0  0
 40  9  1  0  0  0  0
 41 10  1  0  0  0  0
 48 18  1  0  0  0  0
 49 19  1  0  0  0  0
 50 21  1  0  0  0  0
 51 22  1  0  0  0  0
 56 28  1  0  0  0  0
 57 29  1  0  0  0  0
 58 30  1  0  0  0  0
 63 36  1  0  0  0  0
 64 37  1  0  0  0  0
M  END
$$$$
