CSD_code = APUCIX | q = 0 | S = 0 | Stoichiometry = C30H35ClNO2PPd | MND = 4
 OpenBabel04212202003D

 71 76  0  0  1  0  0  0  0  0999 V2000
    2.2439    4.0098    1.6551 Pd  0  0  2  0  0  0  0  0  0  0  0  0
    0.8739    3.9674    3.5672 Cl  0  0  0  0  0  0  0  0  0  0  0  0
    3.8842    4.5889    3.0253 P   0  0  1  0  0  4  0  0  0  0  0  0
    3.3553    3.8115    0.0119 C   0  0  0  0  0  0  0  0  0  0  0  0
    4.7607    3.7849   -0.0765 C   0  0  0  0  0  0  0  0  0  0  0  0
    5.3952    3.5959   -1.2726 C   0  0  0  0  0  0  0  0  0  0  0  0
    4.6584    3.4221   -2.4611 C   0  0  0  0  0  0  0  0  0  0  0  0
    5.3010    3.2488   -3.7041 C   0  0  0  0  0  0  0  0  0  0  0  0
    4.5798    3.0853   -4.8521 C   0  0  0  0  0  0  0  0  0  0  0  0
    3.1784    3.0884   -4.8002 C   0  0  0  0  0  0  0  0  0  0  0  0
    2.5255    3.2519   -3.6107 C   0  0  0  0  0  0  0  0  0  0  0  0
    3.2373    3.4226   -2.4014 C   0  0  0  0  0  0  0  0  0  0  0  0
    2.6148    3.6041   -1.1392 C   0  0  0  0  0  0  0  0  0  0  0  0
    1.1082    3.6565   -0.9892 C   0  0  1  0  0  0  0  0  0  0  0  0
    0.7725    3.2276    0.3889 N   0  0  0  0  0  4  0  0  0  0  0  0
    0.6571    5.0943   -1.2661 C   0  0  0  0  0  0  0  0  0  0  0  0
   -0.6045    3.5619    0.7486 C   0  0  0  0  0  0  0  0  0  0  0  0
    0.9404    1.7752    0.5030 C   0  0  0  0  0  0  0  0  0  0  0  0
    4.0813    1.9306    3.4149 C   0  0  0  0  0  0  0  0  0  0  0  0
    4.6585    0.7152    3.7297 C   0  0  0  0  0  0  0  0  0  0  0  0
    5.9942    0.6612    4.0961 C   0  0  0  0  0  0  0  0  0  0  0  0
    6.7461    1.8232    4.1440 C   0  0  0  0  0  0  0  0  0  0  0  0
    6.1711    3.0448    3.8382 C   0  0  0  0  0  0  0  0  0  0  0  0
    4.8289    3.1076    3.4819 C   0  0  0  0  0  0  0  0  0  0  0  0
    5.0185    6.0586    2.8086 C   0  0  2  0  0  0  0  0  0  0  0  0
    5.7241    6.1449    4.1364 C   0  0  0  0  0  0  0  0  0  0  0  0
    4.8878    5.8300    5.1305 C   0  0  0  0  0  0  0  0  0  0  0  0
    3.5190    5.5269    4.5875 C   0  0  1  0  0  0  0  0  0  0  0  0
    2.9665    6.8183    3.9438 C   0  0  0  0  0  0  0  0  0  0  0  0
    3.9345    7.1802    2.8047 C   0  0  2  0  0  0  0  0  0  0  0  0
    7.1293    6.6443    4.2034 C   0  0  0  0  0  0  0  0  0  0  0  0
    5.1253    5.8227    6.5999 C   0  0  0  0  0  0  0  0  0  0  0  0
    3.2699    7.1426    1.4473 C   0  0  0  0  0  0  0  0  0  0  0  0
    2.2014    6.6316    1.2048 O   0  0  0  0  0  0  0  0  0  0  0  0
    4.0431    7.6977    0.5105 O   0  0  0  0  0  0  0  0  0  0  0  0
    3.5981    7.5524   -0.8335 C   0  0  0  0  0  0  0  0  0  0  0  0
    5.3544    3.9090    0.8260 H   0  0  0  0  0  0  0  0  0  0  0  0
    6.4756    3.5788   -1.3265 H   0  0  0  0  0  0  0  0  0  0  0  0
    6.3819    3.2493   -3.7283 H   0  0  0  0  0  0  0  0  0  0  0  0
    5.0782    2.9539   -5.8013 H   0  0  0  0  0  0  0  0  0  0  0  0
    2.6141    2.9608   -5.7130 H   0  0  0  0  0  0  0  0  0  0  0  0
    1.4460    3.2560   -3.6024 H   0  0  0  0  0  0  0  0  0  0  0  0
    0.6026    2.9738   -1.6930 H   0  0  0  0  0  0  0  0  0  0  0  0
   -0.4213    5.1684   -1.3856 H   0  0  0  0  0  0  0  0  0  0  0  0
    1.1259    5.4436   -2.1842 H   0  0  0  0  0  0  0  0  0  0  0  0
    0.9796    5.7341   -0.4433 H   0  0  0  0  0  0  0  0  0  0  0  0
   -1.3102    3.1742    0.0010 H   0  0  0  0  0  0  0  0  0  0  0  0
   -0.7205    4.6411    0.8439 H   0  0  0  0  0  0  0  0  0  0  0  0
   -0.8375    3.1207    1.7185 H   0  0  0  0  0  0  0  0  0  0  0  0
    0.2015    1.2498   -0.1206 H   0  0  0  0  0  0  0  0  0  0  0  0
    0.7938    1.4730    1.5445 H   0  0  0  0  0  0  0  0  0  0  0  0
    1.9426    1.4804    0.1783 H   0  0  0  0  0  0  0  0  0  0  0  0
    3.0314    1.9887    3.1177 H   0  0  0  0  0  0  0  0  0  0  0  0
    4.0731   -0.1914    3.6848 H   0  0  0  0  0  0  0  0  0  0  0  0
    6.4513   -0.2873    4.3371 H   0  0  0  0  0  0  0  0  0  0  0  0
    7.7901    1.7786    4.4188 H   0  0  0  0  0  0  0  0  0  0  0  0
    6.7673    3.9421    3.8753 H   0  0  0  0  0  0  0  0  0  0  0  0
    5.6660    6.1047    1.9337 H   0  0  0  0  0  0  0  0  0  0  0  0
    2.8223    5.0654    5.2839 H   0  0  0  0  0  0  0  0  0  0  0  0
    2.8879    7.6192    4.6792 H   0  0  0  0  0  0  0  0  0  0  0  0
    1.9705    6.6137    3.5369 H   0  0  0  0  0  0  0  0  0  0  0  0
    4.4114    8.1546    2.9365 H   0  0  0  0  0  0  0  0  0  0  0  0
    7.5732    6.4488    5.1760 H   0  0  0  0  0  0  0  0  0  0  0  0
    7.1505    7.7210    4.0275 H   0  0  0  0  0  0  0  0  0  0  0  0
    7.7434    6.1754    3.4350 H   0  0  0  0  0  0  0  0  0  0  0  0
    6.1607    6.0467    6.8413 H   0  0  0  0  0  0  0  0  0  0  0  0
    4.8704    4.8455    7.0094 H   0  0  0  0  0  0  0  0  0  0  0  0
    4.4867    6.5610    7.0849 H   0  0  0  0  0  0  0  0  0  0  0  0
    4.3343    8.0569   -1.4534 H   0  0  0  0  0  0  0  0  0  0  0  0
    2.6140    8.0075   -0.9597 H   0  0  0  0  0  0  0  0  0  0  0  0
    3.5406    6.4920   -1.0920 H   0  0  0  0  0  0  0  0  0  0  0  0
  1  3  1  0  0  0  0
  1  2  1  6  0  0  0
  3 24  1  1  0  0  0
  3 28  1  0  0  0  0
  4  1  1  0  0  0  0
  5  4  1  0  0  0  0
  5 37  1  0  0  0  0
  6  5  2  0  0  0  0
  7 12  1  0  0  0  0
  7  6  1  0  0  0  0
  8  7  2  0  0  0  0
  9 10  2  0  0  0  0
  9  8  1  0  0  0  0
 10 11  1  0  0  0  0
 11 42  1  0  0  0  0
 11 12  2  0  0  0  0
 12 13  1  0  0  0  0
 13 14  1  0  0  0  0
 13  4  2  0  0  0  0
 14 43  1  6  0  0  0
 14 15  1  0  0  0  0
 15 18  1  0  0  0  0
 15 17  1  0  0  0  0
 15  1  1  0  0  0  0
 16 14  1  0  0  0  0
 16 46  1  0  0  0  0
 17 48  1  0  0  0  0
 17 49  1  0  0  0  0
 18 51  1  0  0  0  0
 19 24  2  0  0  0  0
 19 20  1  0  0  0  0
 20 21  2  0  0  0  0
 21 22  1  0  0  0  0
 21 55  1  0  0  0  0
 22 56  1  0  0  0  0
 23 57  1  0  0  0  0
 23 22  2  0  0  0  0
 24 23  1  0  0  0  0
 25 58  1  6  0  0  0
 25  3  1  0  0  0  0
 25 26  1  0  0  0  0
 26 31  1  0  0  0  0
 26 27  2  0  0  0  0
 27 32  1  0  0  0  0
 28 27  1  0  0  0  0
 28 59  1  1  0  0  0
 29 28  1  0  0  0  0
 29 60  1  0  0  0  0
 30 25  1  0  0  0  0
 30 62  1  1  0  0  0
 30 29  1  0  0  0  0
 31 63  1  0  0  0  0
 32 66  1  0  0  0  0
 32 67  1  0  0  0  0
 32 68  1  0  0  0  0
 33 30  1  0  0  0  0
 34 33  2  0  0  0  0
 35 33  1  0  0  0  0
 36 35  1  0  0  0  0
 38  6  1  0  0  0  0
 39  8  1  0  0  0  0
 40  9  1  0  0  0  0
 41 10  1  0  0  0  0
 44 16  1  0  0  0  0
 45 16  1  0  0  0  0
 47 17  1  0  0  0  0
 50 18  1  0  0  0  0
 52 18  1  0  0  0  0
 53 19  1  0  0  0  0
 54 20  1  0  0  0  0
 61 29  1  0  0  0  0
 64 31  1  0  0  0  0
 65 31  1  0  0  0  0
 69 36  1  0  0  0  0
 70 36  1  0  0  0  0
 71 36  1  0  0  0  0
M  END
$$$$
