CSD_code = APUDUL | q = 0 | S = 0 | Stoichiometry = C21H28AuClN2 | MND = 2
 OpenBabel04212202003D

 53 54  0  0  0  0  0  0  0  0999 V2000
    0.9700    7.2719    1.8118 Au  0  0  0  0  0  0  0  0  0  0  0  0
   -0.7889    6.7213    3.1469 Cl  0  0  0  0  0  0  0  0  0  0  0  0
    3.0266    6.8164   -0.3130 N   0  0  0  0  0  0  0  0  0  0  0  0
    3.6896    8.3627    1.2586 N   0  0  0  0  0  0  0  0  0  0  0  0
    2.7041    7.6129    0.7106 C   0  0  0  0  0  3  0  0  0  0  0  0
    4.3263    6.7996   -0.9084 C   0  0  0  0  0  0  0  0  0  0  0  0
    5.1929    5.7320   -0.7096 C   0  0  0  0  0  0  0  0  0  0  0  0
    4.9052    4.9241   -0.0540 H   0  0  0  0  0  0  0  0  0  0  0  0
    6.4237    5.7183   -1.3377 C   0  0  0  0  0  0  0  0  0  0  0  0
    7.0978    4.8914   -1.1734 H   0  0  0  0  0  0  0  0  0  0  0  0
    6.7885    6.7552   -2.1804 C   0  0  0  0  0  0  0  0  0  0  0  0
    7.7482    6.7374   -2.6737 H   0  0  0  0  0  0  0  0  0  0  0  0
    5.9189    7.8101   -2.3941 C   0  0  0  0  0  0  0  0  0  0  0  0
    6.1959    8.6156   -3.0577 H   0  0  0  0  0  0  0  0  0  0  0  0
    4.6889    7.8337   -1.7616 C   0  0  0  0  0  0  0  0  0  0  0  0
    4.0037    8.6540   -1.9205 H   0  0  0  0  0  0  0  0  0  0  0  0
    2.0106    6.0096   -1.0509 C   0  0  0  0  0  0  0  0  0  0  0  0
    2.5824    5.4951   -2.3804 C   0  0  0  0  0  0  0  0  0  0  0  0
    3.4144    4.8119   -2.2342 H   0  0  0  0  0  0  0  0  0  0  0  0
    2.9094    6.3111   -3.0201 H   0  0  0  0  0  0  0  0  0  0  0  0
    1.7955    4.9543   -2.9006 H   0  0  0  0  0  0  0  0  0  0  0  0
    1.6084    4.7901   -0.2184 C   0  0  0  0  0  0  0  0  0  0  0  0
    1.1438    5.0918    0.7186 H   0  0  0  0  0  0  0  0  0  0  0  0
    2.4801    4.1795    0.0063 H   0  0  0  0  0  0  0  0  0  0  0  0
    0.8964    4.1846   -0.7718 H   0  0  0  0  0  0  0  0  0  0  0  0
    0.7979    6.8767   -1.4027 C   0  0  0  0  0  0  0  0  0  0  0  0
    0.2575    7.1911   -0.5144 H   0  0  0  0  0  0  0  0  0  0  0  0
    0.1162    6.3092   -2.0294 H   0  0  0  0  0  0  0  0  0  0  0  0
    1.1163    7.7629   -1.9471 H   0  0  0  0  0  0  0  0  0  0  0  0
    5.0207    7.8593    1.3888 C   0  0  0  0  0  0  0  0  0  0  0  0
    6.1314    8.4570    0.8034 C   0  0  0  0  0  0  0  0  0  0  0  0
    6.0122    9.3203    0.1691 H   0  0  0  0  0  0  0  0  0  0  0  0
    7.3913    7.9262    1.0073 C   0  0  0  0  0  0  0  0  0  0  0  0
    8.2456    8.3940    0.5414 H   0  0  0  0  0  0  0  0  0  0  0  0
    7.5617    6.8041    1.8004 C   0  0  0  0  0  0  0  0  0  0  0  0
    8.5488    6.3963    1.9570 H   0  0  0  0  0  0  0  0  0  0  0  0
    6.4610    6.2087    2.3904 C   0  0  0  0  0  0  0  0  0  0  0  0
    6.5834    5.3354    3.0136 H   0  0  0  0  0  0  0  0  0  0  0  0
    5.1976    6.7339    2.1886 C   0  0  0  0  0  0  0  0  0  0  0  0
    4.3339    6.2713    2.6449 H   0  0  0  0  0  0  0  0  0  0  0  0
    3.3651    9.5119    2.1466 C   0  0  0  0  0  0  0  0  0  0  0  0
    4.5278   10.5139    2.1547 C   0  0  0  0  0  0  0  0  0  0  0  0
    5.4413   10.0785    2.5495 H   0  0  0  0  0  0  0  0  0  0  0  0
    4.2565   11.3502    2.7939 H   0  0  0  0  0  0  0  0  0  0  0  0
    4.7158   10.9013    1.1569 H   0  0  0  0  0  0  0  0  0  0  0  0
    3.1387    9.0420    3.5856 C   0  0  0  0  0  0  0  0  0  0  0  0
    4.0421    8.5829    3.9822 H   0  0  0  0  0  0  0  0  0  0  0  0
    2.3262    8.3180    3.6319 H   0  0  0  0  0  0  0  0  0  0  0  0
    2.8744    9.8886    4.2130 H   0  0  0  0  0  0  0  0  0  0  0  0
    2.1442   10.2629    1.6077 C   0  0  0  0  0  0  0  0  0  0  0  0
    2.0739   11.2335    2.0909 H   0  0  0  0  0  0  0  0  0  0  0  0
    1.2211    9.7237    1.7985 H   0  0  0  0  0  0  0  0  0  0  0  0
    2.2397   10.4141    0.5348 H   0  0  0  0  0  0  0  0  0  0  0  0
  1  2  1  0  0  0  0
  3  5  1  0  0  0  0
  4 30  1  0  0  0  0
  4 41  1  0  0  0  0
  5  4  1  0  0  0  0
  5  1  1  0  0  0  0
  6  7  1  0  0  0  0
  6  3  1  0  0  0  0
  7  8  1  0  0  0  0
  9 10  1  0  0  0  0
  9  7  2  0  0  0  0
 11  9  1  0  0  0  0
 12 11  1  0  0  0  0
 13 11  2  0  0  0  0
 13 15  1  0  0  0  0
 14 13  1  0  0  0  0
 15  6  2  0  0  0  0
 16 15  1  0  0  0  0
 17  3  1  0  0  0  0
 17 22  1  0  0  0  0
 18 19  1  0  0  0  0
 18 17  1  0  0  0  0
 20 18  1  0  0  0  0
 21 18  1  0  0  0  0
 22 24  1  0  0  0  0
 22 23  1  0  0  0  0
 25 22  1  0  0  0  0
 26 17  1  0  0  0  0
 26 27  1  0  0  0  0
 28 26  1  0  0  0  0
 29 26  1  0  0  0  0
 30 39  1  0  0  0  0
 31 33  1  0  0  0  0
 31 30  2  0  0  0  0
 32 31  1  0  0  0  0
 33 35  2  0  0  0  0
 34 33  1  0  0  0  0
 35 36  1  0  0  0  0
 35 37  1  0  0  0  0
 37 38  1  0  0  0  0
 39 37  2  0  0  0  0
 39 40  1  0  0  0  0
 41 42  1  0  0  0  0
 41 46  1  0  0  0  0
 42 43  1  0  0  0  0
 42 44  1  0  0  0  0
 45 42  1  0  0  0  0
 46 48  1  0  0  0  0
 46 47  1  0  0  0  0
 46 49  1  0  0  0  0
 50 52  1  0  0  0  0
 50 51  1  0  0  0  0
 50 41  1  0  0  0  0
 53 50  1  0  0  0  0
M  END
$$$$
