CSD_code = APUNEF | q = 0 | S = 0 | Stoichiometry = C10H18Cl2N2Pt | MND = 4
 OpenBabel04212202003D

 33 32  0  0  0  0  0  0  0  0999 V2000
    2.8967    6.3198    0.0465 Pt  0  0  0  0  0  0  0  0  0  0  0  0
    1.2073    6.9171    1.5083 Cl  0  0  0  0  0  0  0  0  0  0  0  0
    4.5906    5.7178   -1.4117 Cl  0  0  0  0  0  0  0  0  0  0  0  0
    1.9879    4.7656   -0.3884 N   0  0  0  0  0  2  0  0  0  0  0  0
    3.8150    7.8691    0.4788 N   0  0  0  0  0  2  0  0  0  0  0  0
    1.4572    3.7870   -0.6779 C   0  0  0  0  0  2  0  0  0  0  0  0
    0.8021    2.5534   -1.0419 C   0  0  0  0  0  0  0  0  0  0  0  0
    1.4813    1.4119   -0.2715 C   0  0  0  0  0  0  0  0  0  0  0  0
    2.5389    1.3596   -0.5192 H   0  0  0  0  0  0  0  0  0  0  0  0
    1.0129    0.4671   -0.5366 H   0  0  0  0  0  0  0  0  0  0  0  0
    1.3838    1.5617    0.8012 H   0  0  0  0  0  0  0  0  0  0  0  0
    0.9657    2.3553   -2.5555 C   0  0  0  0  0  0  0  0  0  0  0  0
    0.4960    3.1695   -3.1023 H   0  0  0  0  0  0  0  0  0  0  0  0
    0.4975    1.4196   -2.8516 H   0  0  0  0  0  0  0  0  0  0  0  0
    2.0186    2.3216   -2.8256 H   0  0  0  0  0  0  0  0  0  0  0  0
   -0.6810    2.6592   -0.6615 C   0  0  0  0  0  0  0  0  0  0  0  0
   -0.7919    2.8287    0.4069 H   0  0  0  0  0  0  0  0  0  0  0  0
   -1.1903    1.7351   -0.9245 H   0  0  0  0  0  0  0  0  0  0  0  0
   -1.1550    3.4825   -1.1908 H   0  0  0  0  0  0  0  0  0  0  0  0
    4.3883    8.8273    0.7555 C   0  0  0  0  0  2  0  0  0  0  0  0
    5.1102   10.0258    1.1099 C   0  0  0  0  0  0  0  0  0  0  0  0
    5.9775   10.4394   -0.0871 C   0  0  0  0  0  0  0  0  0  0  0  0
    6.6699    9.6441   -0.3527 H   0  0  0  0  0  0  0  0  0  0  0  0
    6.5475   11.3295    0.1684 H   0  0  0  0  0  0  0  0  0  0  0  0
    5.3570   10.6582   -0.9530 H   0  0  0  0  0  0  0  0  0  0  0  0
    5.9863    9.7066    2.3298 C   0  0  0  0  0  0  0  0  0  0  0  0
    5.3731    9.3839    3.1679 H   0  0  0  0  0  0  0  0  0  0  0  0
    6.5379   10.5967    2.6227 H   0  0  0  0  0  0  0  0  0  0  0  0
    6.6962    8.9169    2.0957 H   0  0  0  0  0  0  0  0  0  0  0  0
    4.0887   11.1205    1.4480 C   0  0  0  0  0  0  0  0  0  0  0  0
    3.4575   11.3346    0.5888 H   0  0  0  0  0  0  0  0  0  0  0  0
    4.6123   12.0301    1.7323 H   0  0  0  0  0  0  0  0  0  0  0  0
    3.4523   10.8094    2.2732 H   0  0  0  0  0  0  0  0  0  0  0  0
  1  5  1  0  0  0  0
  1  2  1  0  0  0  0
  3  1  1  0  0  0  0
  4  1  1  0  0  0  0
  5 20  1  0  0  0  0
  6  4  1  0  0  0  0
  7  6  1  0  0  0  0
  7 16  1  0  0  0  0
  7  8  1  0  0  0  0
  8 11  1  0  0  0  0
  9  8  1  0  0  0  0
 10  8  1  0  0  0  0
 12  7  1  0  0  0  0
 13 12  1  0  0  0  0
 14 12  1  0  0  0  0
 15 12  1  0  0  0  0
 16 17  1  0  0  0  0
 18 16  1  0  0  0  0
 19 16  1  0  0  0  0
 20 21  1  0  0  0  0
 21 30  1  0  0  0  0
 21 26  1  0  0  0  0
 22 24  1  0  0  0  0
 22 21  1  0  0  0  0
 23 22  1  0  0  0  0
 25 22  1  0  0  0  0
 26 28  1  0  0  0  0
 26 27  1  0  0  0  0
 29 26  1  0  0  0  0
 30 32  1  0  0  0  0
 30 33  1  0  0  0  0
 31 30  1  0  0  0  0
M  END
$$$$
