CSD_code = APUTOW | q = 1 | S = 0 | Stoichiometry = C20H14ClN4Pt(1+) | MND = 4
 OpenBabel04212202003D

 40 45  0  0  0  0  0  0  0  0999 V2000
    1.7247   11.7997    5.5530 Pt  0  0  2  0  0  0  0  0  0  0  0  0
    3.3322   10.2888    5.8030 Cl  0  0  0  0  0  0  0  0  0  0  0  0
    0.3518   13.0893    5.3397 N   0  0  0  0  0  0  0  0  0  0  0  0
    0.9103   11.0632    3.8766 N   0  0  0  0  0  0  0  0  0  0  0  0
    2.1313   12.9181    7.1634 N   0  0  0  0  0  0  0  0  0  0  0  0
   -3.4440   15.6788    3.6995 N   0  0  0  0  0  0  0  0  0  0  0  0
   -0.4745   12.9706    4.2877 C   0  0  0  0  0  0  0  0  0  0  0  0
   -1.4864   13.8969    4.1106 C   0  0  0  0  0  0  0  0  0  0  0  0
   -2.1783   13.8532    3.2861 H   0  0  0  0  0  0  0  0  0  0  0  0
   -1.6358   14.9461    5.0307 C   0  0  0  0  0  0  0  0  0  0  0  0
   -0.7489   15.0298    6.1104 C   0  0  0  0  0  0  0  0  0  0  0  0
   -0.8327   15.8234    6.8325 H   0  0  0  0  0  0  0  0  0  0  0  0
    0.2500   14.0745    6.2436 C   0  0  0  0  0  0  0  0  0  0  0  0
   -0.1482   11.8075    3.4514 C   0  0  0  0  0  0  0  0  0  0  0  0
   -0.8469   11.4597    2.3016 C   0  0  0  0  0  0  0  0  0  0  0  0
   -1.6813   12.0609    1.9799 H   0  0  0  0  0  0  0  0  0  0  0  0
   -0.4610   10.3409    1.5801 C   0  0  0  0  0  0  0  0  0  0  0  0
   -0.9941   10.0594    0.6858 H   0  0  0  0  0  0  0  0  0  0  0  0
    0.6183    9.5940    2.0279 C   0  0  0  0  0  0  0  0  0  0  0  0
    0.9498    8.7172    1.4964 H   0  0  0  0  0  0  0  0  0  0  0  0
    1.2764    9.9906    3.1811 C   0  0  0  0  0  3  0  0  0  0  0  0
    2.1238    9.4362    3.5650 H   0  0  0  0  0  0  0  0  0  0  0  0
    1.2768   13.9719    7.2906 C   0  0  0  0  0  0  0  0  0  0  0  0
    1.4042   14.8615    8.3510 C   0  0  0  0  0  0  0  0  0  0  0  0
    0.7233   15.6916    8.4426 H   0  0  0  0  0  0  0  0  0  0  0  0
    2.4095   14.6745    9.2866 C   0  0  0  0  0  0  0  0  0  0  0  0
    2.5175   15.3587   10.1133 H   0  0  0  0  0  0  0  0  0  0  0  0
    3.2693   13.5965    9.1401 C   0  0  0  0  0  0  0  0  0  0  0  0
    4.0638   13.4157    9.8451 H   0  0  0  0  0  0  0  0  0  0  0  0
    3.0943   12.7425    8.0632 C   0  0  0  0  0  0  0  0  0  0  0  0
    3.7426   11.8884    7.9104 H   0  0  0  0  0  0  0  0  0  0  0  0
   -2.7254   15.9048    4.8029 C   0  0  0  0  0  0  0  0  0  0  0  0
   -3.0104   16.9718    5.6550 C   0  0  0  0  0  0  0  0  0  0  0  0
   -2.4345   17.1534    6.5478 H   0  0  0  0  0  0  0  0  0  0  0  0
   -4.0662   17.8132    5.3390 C   0  0  0  0  0  0  0  0  0  0  0  0
   -4.3069   18.6458    5.9826 H   0  0  0  0  0  0  0  0  0  0  0  0
   -4.8031   17.5702    4.1924 C   0  0  0  0  0  0  0  0  0  0  0  0
   -5.6308   18.2013    3.9134 H   0  0  0  0  0  0  0  0  0  0  0  0
   -4.4434   16.4806    3.4061 C   0  0  0  0  0  0  0  0  0  0  0  0
   -4.9821   16.2403    2.4995 H   0  0  0  0  0  0  0  0  0  0  0  0
  1  2  1  1  0  0  0
  1  5  1  0  0  0  0
  3  1  1  0  0  0  0
  3 13  1  0  0  0  0
  4  1  1  0  0  0  0
  5 23  1  0  0  0  0
  5 30  1  0  0  0  0
  6 32  1  0  0  0  0
  7  3  1  0  0  0  0
  8  7  2  0  0  0  0
  8 10  1  0  0  0  0
  9  8  1  0  0  0  0
 10 11  2  0  0  0  0
 11 13  1  0  0  0  0
 11 12  1  0  0  0  0
 13 23  2  0  0  0  0
 14  4  1  0  0  0  0
 14  7  1  0  0  0  0
 15 14  2  0  0  0  0
 16 15  1  0  0  0  0
 17 19  2  0  0  0  0
 17 15  1  0  0  0  0
 18 17  1  0  0  0  0
 19 21  1  0  0  0  0
 20 19  1  0  0  0  0
 21 22  1  0  0  0  0
 21  4  1  0  0  0  0
 23 24  1  0  0  0  0
 24 25  1  0  0  0  0
 24 26  2  0  0  0  0
 26 27  1  0  0  0  0
 28 26  1  0  0  0  0
 28 29  1  0  0  0  0
 30 28  2  0  0  0  0
 31 30  1  0  0  0  0
 32 10  1  0  0  0  0
 32 33  2  0  0  0  0
 33 34  1  0  0  0  0
 35 33  1  0  0  0  0
 35 36  1  0  0  0  0
 37 35  2  0  0  0  0
 38 37  1  0  0  0  0
 39  6  2  0  0  0  0
 39 37  1  0  0  0  0
 40 39  1  0  0  0  0
M  END
$$$$
