CSD_code = AQAFAB | q = 0 | S = 0 | Stoichiometry = C20H20INPtS | MND = 4
 OpenBabel04212202003D

 44 46  0  0  0  0  0  0  0  0999 V2000
    2.9523    2.2820    9.4828 Pt  0  0  0  0  0  0  0  0  0  0  0  0
    1.2486    0.2693    9.8254 I   0  0  0  0  0 15  0  0  0  0  0  0
    4.5997    1.4293   10.9414 S   0  0  0  0  0  3  0  0  0  0  0  0
    1.7285    3.3217    8.3601 N   0  0  0  0  0  0  0  0  0  0  0  0
    4.3561    3.4750    8.5347 C   0  0  0  0  0  0  0  0  0  0  0  0
    3.9222    4.3281    8.0108 H   0  0  0  0  0  0  0  0  0  0  0  0
    5.1877    3.8095    9.1544 H   0  0  0  0  0  0  0  0  0  0  0  0
    4.7438    2.3692    7.6467 C   0  0  0  0  0  0  0  0  0  0  0  0
    5.9791    1.7674    7.8596 C   0  0  0  0  0  0  0  0  0  0  0  0
    6.6083    2.1550    8.6498 H   0  0  0  0  0  0  0  0  0  0  0  0
    6.4450    0.7081    7.0852 C   0  0  0  0  0  0  0  0  0  0  0  0
    7.4128    0.2763    7.2970 H   0  0  0  0  0  0  0  0  0  0  0  0
    5.6869    0.2491    6.0448 C   0  0  0  0  0  0  0  0  0  0  0  0
    6.0446   -0.5431    5.4043 H   0  0  0  0  0  0  0  0  0  0  0  0
    4.4237    0.8162    5.7752 C   0  0  0  0  0  0  0  0  0  0  0  0
    3.6995    0.3480    4.6608 C   0  0  0  0  0  0  0  0  0  0  0  0
    4.1292   -0.4460    4.0675 H   0  0  0  0  0  0  0  0  0  0  0  0
    2.4932    0.8956    4.3221 C   0  0  0  0  0  0  0  0  0  0  0  0
    1.9526    0.5556    3.4520 H   0  0  0  0  0  0  0  0  0  0  0  0
    1.9482    1.8848    5.1322 C   0  0  0  0  0  0  0  0  0  0  0  0
    0.9716    2.2784    4.8880 H   0  0  0  0  0  0  0  0  0  0  0  0
    2.5812    2.3326    6.2876 C   0  0  0  0  0  0  0  0  0  0  0  0
    3.8973    1.8531    6.6034 C   0  0  0  0  0  0  0  0  0  0  0  0
    1.7541    3.2215    7.0748 C   0  0  0  0  0  3  0  0  0  0  0  0
    0.9911    3.7547    6.5055 H   0  0  0  0  0  0  0  0  0  0  0  0
    0.9254    4.2763    8.9965 C   0  0  0  0  0  0  0  0  0  0  0  0
    0.6498    5.5078    8.3976 C   0  0  0  0  0  0  0  0  0  0  0  0
    1.0660    5.7451    7.4293 H   0  0  0  0  0  0  0  0  0  0  0  0
   -0.1157    6.4475    9.0615 C   0  0  0  0  0  0  0  0  0  0  0  0
   -0.3146    7.3985    8.5901 H   0  0  0  0  0  0  0  0  0  0  0  0
   -0.6176    6.1794   10.3237 C   0  0  0  0  0  0  0  0  0  0  0  0
   -1.2164    6.9169   10.8360 H   0  0  0  0  0  0  0  0  0  0  0  0
   -0.3342    4.9664   10.9307 C   0  0  0  0  0  0  0  0  0  0  0  0
   -0.7131    4.7540   11.9189 H   0  0  0  0  0  0  0  0  0  0  0  0
    0.4366    4.0241   10.2801 C   0  0  0  0  0  0  0  0  0  0  0  0
    0.6523    3.0779   10.7593 H   0  0  0  0  0  0  0  0  0  0  0  0
    4.8634   -0.3110   10.5020 C   0  0  0  0  0  0  0  0  0  0  0  0
    5.2661   -0.3316    9.4929 H   0  0  0  0  0  0  0  0  0  0  0  0
    3.9236   -0.8554   10.5398 H   0  0  0  0  0  0  0  0  0  0  0  0
    5.5819   -0.7323   11.2001 H   0  0  0  0  0  0  0  0  0  0  0  0
    3.7396    1.1981   12.5252 C   0  0  0  0  0  0  0  0  0  0  0  0
    3.4312    2.1808   12.8717 H   0  0  0  0  0  0  0  0  0  0  0  0
    4.4354    0.7560   13.2338 H   0  0  0  0  0  0  0  0  0  0  0  0
    2.8715    0.5573   12.3910 H   0  0  0  0  0  0  0  0  0  0  0  0
  1  3  1  0  0  0  0
  3 41  1  0  0  0  0
  4 26  1  0  0  0  0
  4  1  1  0  0  0  0
  5  7  1  0  0  0  0
  5  1  1  0  0  0  0
  6  5  1  0  0  0  0
  8  9  1  0  0  0  0
  8  5  1  0  0  0  0
  9 10  1  0  0  0  0
 11 12  1  0  0  0  0
 11  9  2  0  0  0  0
 13 11  1  0  0  0  0
 14 13  1  0  0  0  0
 15 13  2  0  0  0  0
 15 23  1  0  0  0  0
 16 15  1  0  0  0  0
 17 16  1  0  0  0  0
 18 16  2  0  0  0  0
 18 20  1  0  0  0  0
 19 18  1  0  0  0  0
 20 22  2  0  0  0  0
 21 20  1  0  0  0  0
 22 23  1  0  0  0  0
 22 24  1  0  0  0  0
 23  8  2  0  0  0  0
 24  4  1  0  0  0  0
 25 24  1  0  0  0  0
 26 35  1  0  0  0  0
 27 26  2  0  0  0  0
 27 29  1  0  0  0  0
 28 27  1  0  0  0  0
 29 31  2  0  0  0  0
 30 29  1  0  0  0  0
 31 32  1  0  0  0  0
 31 33  1  0  0  0  0
 33 34  1  0  0  0  0
 35 36  1  0  0  0  0
 35 33  2  0  0  0  0
 37 39  1  0  0  0  0
 37  3  1  0  0  0  0
 37 40  1  0  0  0  0
 38 37  1  0  0  0  0
 41 42  1  0  0  0  0
 41 43  1  0  0  0  0
 44 41  1  0  0  0  0
M  END
$$$$
