CSD_code = AQAQIU | q = 0 | S = 0 | Stoichiometry = C23H21ClN2OPd | MND = 4
 OpenBabel04212202003D

 49 53  0  0  1  0  0  0  0  0999 V2000
   10.7210    7.8484    3.9903 Pd  0  0  1  0  0  0  0  0  0  0  0  0
   11.6079    5.7294    3.9434 Cl  0  0  0  0  0  0  0  0  0  0  0  0
   11.3629   10.5158    5.9381 O   0  0  0  0  0  0  0  0  0  0  0  0
    9.4111    7.7239    2.5331 N   0  0  0  0  0  0  0  0  0  0  0  0
   11.9370    8.3042    5.4943 N   0  0  0  0  0  0  0  0  0  0  0  0
   12.5646    7.5482    5.7707 H   0  0  0  0  0  0  0  0  0  0  0  0
   10.0216    9.6672    4.0727 C   0  0  0  0  0  0  0  0  0  0  0  0
   10.3932   10.6773    4.9449 C   0  0  0  0  0  0  0  0  0  0  0  0
    9.7993   11.9356    4.8787 C   0  0  0  0  0  0  0  0  0  0  0  0
   10.1037   12.7047    5.5723 H   0  0  0  0  0  0  0  0  0  0  0  0
    8.8239   12.1855    3.9240 C   0  0  0  0  0  0  0  0  0  0  0  0
    8.3691   13.1635    3.8791 H   0  0  0  0  0  0  0  0  0  0  0  0
    8.4296   11.1995    3.0357 C   0  0  0  0  0  0  0  0  0  0  0  0
    7.6684   11.4019    2.2961 H   0  0  0  0  0  0  0  0  0  0  0  0
    9.0269    9.9429    3.1103 C   0  0  0  0  0  0  0  0  0  0  0  0
    8.7396    8.7938    2.2847 C   0  0  0  0  0  0  0  0  0  0  0  0
    7.9878    8.8183    1.4953 H   0  0  0  0  0  0  0  0  0  0  0  0
    9.2369    6.5170    1.8389 C   0  0  0  0  0  0  0  0  0  0  0  0
    8.3810    5.5502    2.3715 C   0  0  0  0  0  0  0  0  0  0  0  0
    8.2475    4.3477    1.6989 C   0  0  0  0  0  0  0  0  0  0  0  0
    7.5910    3.5893    2.1011 H   0  0  0  0  0  0  0  0  0  0  0  0
    8.9600    4.0880    0.5353 C   0  0  0  0  0  0  0  0  0  0  0  0
    9.8553    5.0407    0.0669 C   0  0  0  0  0  0  0  0  0  0  0  0
   10.4554    4.8235   -0.8053 H   0  0  0  0  0  0  0  0  0  0  0  0
   10.0163    6.2559    0.7107 C   0  0  0  0  0  0  0  0  0  0  0  0
    7.7099    5.8309    3.6823 C   0  0  0  0  0  0  0  0  0  0  0  0
    6.9469    6.6042    3.5811 H   0  0  0  0  0  0  0  0  0  0  0  0
    8.4662    6.1934    4.4012 H   0  0  0  0  0  0  0  0  0  0  0  0
    7.2479    4.9320    4.0813 H   0  0  0  0  0  0  0  0  0  0  0  0
    8.8149    2.7710   -0.1657 C   0  0  0  0  0  0  0  0  0  0  0  0
    9.0256    2.8706   -1.2280 H   0  0  0  0  0  0  0  0  0  0  0  0
    7.8110    2.3722   -0.0393 H   0  0  0  0  0  0  0  0  0  0  0  0
    9.5189    2.0511    0.2523 H   0  0  0  0  0  0  0  0  0  0  0  0
   11.0459    7.2654    0.3004 C   0  0  0  0  0  0  0  0  0  0  0  0
   11.6252    7.5652    1.1886 H   0  0  0  0  0  0  0  0  0  0  0  0
   10.5826    8.1614   -0.1151 H   0  0  0  0  0  0  0  0  0  0  0  0
   11.7247    6.8477   -0.4380 H   0  0  0  0  0  0  0  0  0  0  0  0
   12.0537    9.4015    6.1564 C   0  0  1  0  0  3  0  0  0  0  0  0
   13.0139    9.5567    7.2719 C   0  0  0  0  0  0  0  0  0  0  0  0
   13.4186    8.4516    8.0202 C   0  0  0  0  0  0  0  0  0  0  0  0
   13.0112    7.4725    7.8130 H   0  0  0  0  0  0  0  0  0  0  0  0
   14.3201    8.6080    9.0560 C   0  0  0  0  0  0  0  0  0  0  0  0
   14.6241    7.7485    9.6339 H   0  0  0  0  0  0  0  0  0  0  0  0
   14.8304    9.8613    9.3541 C   0  0  0  0  0  0  0  0  0  0  0  0
   15.5371    9.9783   10.1618 H   0  0  0  0  0  0  0  0  0  0  0  0
   14.4293   10.9638    8.6171 C   0  0  0  0  0  0  0  0  0  0  0  0
   14.8243   11.9417    8.8483 H   0  0  0  0  0  0  0  0  0  0  0  0
   13.5230   10.8164    7.5844 C   0  0  0  0  0  0  0  0  0  0  0  0
   13.2111   11.6716    7.0053 H   0  0  0  0  0  0  0  0  0  0  0  0
  1  2  1  6  0  0  0
  1  7  2  0  0  0  0
  1  5  1  0  0  0  0
  3 38  1  0  0  0  0
  4  1  1  0  0  0  0
  5  6  1  0  0  0  0
  5 38  1  0  0  0  0
  7  8  1  0  0  0  0
  8  3  1  0  0  0  0
  9  8  2  0  0  0  0
  9 10  1  0  0  0  0
 11  9  1  0  0  0  0
 12 11  1  0  0  0  0
 13 15  1  0  0  0  0
 13 11  2  0  0  0  0
 14 13  1  0  0  0  0
 15  7  1  0  0  0  0
 16  4  1  0  0  0  0
 16 15  2  0  0  0  0
 17 16  1  0  0  0  0
 18 19  1  0  0  0  0
 18  4  1  0  0  0  0
 19 26  1  0  0  0  0
 20 21  1  0  0  0  0
 20 19  2  0  0  0  0
 22 20  1  0  0  0  0
 23 22  2  0  0  0  0
 23 25  1  0  0  0  0
 24 23  1  0  0  0  0
 25 18  2  0  0  0  0
 26 29  1  0  0  0  0
 26 28  1  0  0  0  0
 27 26  1  0  0  0  0
 30 32  1  0  0  0  0
 30 33  1  0  0  0  0
 30 22  1  0  0  0  0
 31 30  1  0  0  0  0
 34 25  1  0  0  0  0
 34 35  1  0  0  0  0
 36 34  1  0  0  0  0
 37 34  1  0  0  0  0
 38 39  1  6  0  0  0
 39 48  2  0  0  0  0
 39 40  1  0  0  0  0
 40 42  2  0  0  0  0
 41 40  1  0  0  0  0
 42 44  1  0  0  0  0
 42 43  1  0  0  0  0
 44 45  1  0  0  0  0
 46 47  1  0  0  0  0
 46 44  2  0  0  0  0
 48 46  1  0  0  0  0
 49 48  1  0  0  0  0
M  END
$$$$
