CSD_code = AQASER | q = 0 | S = 0 | Stoichiometry = C8H6Br2N4Pt | MND = 4
 OpenBabel04212202003D

 21 23  0  0  0  0  0  0  0  0999 V2000
   -1.2303   -0.3353    5.0194 Pt  0  0  0  0  0  0  0  0  0  0  0  0
   -0.9403   -2.6770    5.1520 Br  0  0  0  0  0  0  0  0  0  0  0  0
   -3.5587   -0.6457    4.7570 Br  0  0  0  0  0  0  0  0  0  0  0  0
   -1.3249    1.6861    4.9244 N   0  0  0  0  0  0  0  0  0  0  0  0
    0.0717    3.5979    5.0158 N   0  0  0  0  0  0  0  0  0  0  0  0
    2.2259    1.9257    5.3479 N   0  0  0  0  0  0  0  0  0  0  0  0
    0.7396    0.0837    5.2373 N   0  0  0  0  0  0  0  0  0  0  0  0
   -2.3888    2.4789    4.7639 C   0  0  0  0  0  0  0  0  0  0  0  0
   -3.3522    1.9947    4.6669 H   0  0  0  0  0  0  0  0  0  0  0  0
   -2.2616    3.8537    4.7243 C   0  0  0  0  0  0  0  0  0  0  0  0
   -3.1257    4.4830    4.5956 H   0  0  0  0  0  0  0  0  0  0  0  0
   -0.9768    4.3784    4.8581 C   0  0  0  0  0  0  0  0  0  0  0  0
   -0.7799    5.4407    4.8389 H   0  0  0  0  0  0  0  0  0  0  0  0
   -0.1219    2.2928    5.0454 C   0  0  0  0  0  0  0  0  0  0  0  0
    1.0191    1.4073    5.2197 C   0  0  0  0  0  0  0  0  0  0  0  0
    3.2421    1.1036    5.5051 C   0  0  0  0  0  0  0  0  0  0  0  0
    4.2143    1.5640    5.6080 H   0  0  0  0  0  0  0  0  0  0  0  0
    3.0625   -0.2787    5.5354 C   0  0  0  0  0  0  0  0  0  0  0  0
    3.8866   -0.9598    5.6628 H   0  0  0  0  0  0  0  0  0  0  0  0
    1.7719   -0.7504    5.3952 C   0  0  0  0  0  0  0  0  0  0  0  0
    1.5498   -1.8099    5.4082 H   0  0  0  0  0  0  0  0  0  0  0  0
  1  2  1  0  0  0  0
  1  7  1  0  0  0  0
  3  1  1  0  0  0  0
  4  1  1  0  0  0  0
  4 14  1  0  0  0  0
  5 14  1  0  0  0  0
  6 16  2  0  0  0  0
  7 20  1  0  0  0  0
  8  4  1  0  0  0  0
  9  8  1  0  0  0  0
 10  8  2  0  0  0  0
 10 12  1  0  0  0  0
 11 10  1  0  0  0  0
 12  5  2  0  0  0  0
 13 12  1  0  0  0  0
 14 15  2  0  0  0  0
 15  7  1  0  0  0  0
 15  6  1  0  0  0  0
 16 18  1  0  0  0  0
 16 17  1  0  0  0  0
 18 19  1  0  0  0  0
 20 21  1  0  0  0  0
 20 18  2  0  0  0  0
M  END
$$$$
