CSD_code = AQAVIZ | q = 0 | S = 0 | Stoichiometry = C20H38BrFeN3OP2 | MND = 6
 OpenBabel04212202003D

 66 68  0  0  1  0  0  0  0  0999 V2000
    7.9320    7.6277    6.3503 Fe  0  0  0  0  0  0  0  0  0  0  0  0
    9.7359    8.9308    5.7153 Br  0  0  0  0  0  0  0  0  0  0  0  0
    6.5098    8.9246    5.4056 P   0  0  0  0  0  4  0  0  0  0  0  0
    9.1792    5.9931    6.9569 P   0  0  0  0  0  4  0  0  0  0  0  0
    7.5891    8.7181    8.9979 O   0  0  0  0  0  1  0  0  0  0  0  0
    8.0196    6.7579    4.5577 N   0  0  0  0  0  0  0  0  0  0  0  0
    6.5780    8.3949    3.7741 N   0  0  0  0  0  0  0  0  0  0  0  0
    9.4950    5.2147    5.4598 N   0  0  0  0  0  0  0  0  0  0  0  0
    7.3393    7.2795    3.5211 C   0  0  1  0  0  3  0  0  0  0  0  0
    7.4093    6.7137    2.2472 C   0  0  0  0  0  0  0  0  0  0  0  0
    8.2067    5.6036    2.0562 C   0  0  0  0  0  0  0  0  0  0  0  0
    8.9148    5.0745    3.1161 C   0  0  0  0  0  0  0  0  0  0  0  0
    8.8048    5.6823    4.3676 C   0  0  0  0  0  0  0  0  0  0  0  0
    5.7223    8.9322    2.7363 C   0  0  0  0  0  0  0  0  0  0  0  0
   10.2562    3.9866    5.3582 C   0  0  0  0  0  0  0  0  0  0  0  0
    4.6869    8.6905    5.7730 C   0  0  0  0  0  0  0  0  0  0  0  0
    4.2721    7.2646    5.4305 C   0  0  0  0  0  0  0  0  0  0  0  0
    4.4234    8.9714    7.2475 C   0  0  0  0  0  0  0  0  0  0  0  0
    6.6039   10.7957    5.2848 C   0  0  0  0  0  0  0  0  0  0  0  0
    7.4977   11.3119    4.1600 C   0  0  0  0  0  0  0  0  0  0  0  0
    7.1204   11.3212    6.6252 C   0  0  0  0  0  0  0  0  0  0  0  0
    8.4134    4.5842    7.9278 C   0  0  0  0  0  0  0  0  0  0  0  0
    7.2595    3.9821    7.1347 C   0  0  0  0  0  0  0  0  0  0  0  0
    7.9102    5.1025    9.2697 C   0  0  0  0  0  0  0  0  0  0  0  0
   10.8630    6.1101    7.7776 C   0  0  0  0  0  0  0  0  0  0  0  0
   12.0217    6.3595    6.8157 C   0  0  0  0  0  0  0  0  0  0  0  0
   10.7997    7.2453    8.8006 C   0  0  0  0  0  0  0  0  0  0  0  0
    7.7740    8.3216    7.9320 C   0  0  0  0  0  2  0  0  0  0  0  0
    6.8635    7.1355    1.4226 H   0  0  0  0  0  0  0  0  0  0  0  0
    8.2787    5.1515    1.0789 H   0  0  0  0  0  0  0  0  0  0  0  0
    9.5455    4.2163    2.9703 H   0  0  0  0  0  0  0  0  0  0  0  0
    5.1558    9.7642    3.1487 H   0  0  0  0  0  0  0  0  0  0  0  0
    6.3128    9.2955    1.8909 H   0  0  0  0  0  0  0  0  0  0  0  0
    5.0151    8.1810    2.3703 H   0  0  0  0  0  0  0  0  0  0  0  0
   10.6686    3.7511    6.3368 H   0  0  0  0  0  0  0  0  0  0  0  0
    9.6275    3.1494    5.0383 H   0  0  0  0  0  0  0  0  0  0  0  0
   11.0801    4.0946    4.6477 H   0  0  0  0  0  0  0  0  0  0  0  0
    4.1090    9.3961    5.1596 H   0  0  0  0  0  0  0  0  0  0  0  0
    4.3423    7.0653    4.3630 H   0  0  0  0  0  0  0  0  0  0  0  0
    4.9225    6.5643    5.9523 H   0  0  0  0  0  0  0  0  0  0  0  0
    3.2463    7.0815    5.7466 H   0  0  0  0  0  0  0  0  0  0  0  0
    4.6022   10.0159    7.4933 H   0  0  0  0  0  0  0  0  0  0  0  0
    3.3899    8.7367    7.4998 H   0  0  0  0  0  0  0  0  0  0  0  0
    5.0768    8.3499    7.8577 H   0  0  0  0  0  0  0  0  0  0  0  0
    5.5759   11.1586    5.1360 H   0  0  0  0  0  0  0  0  0  0  0  0
    7.0838   11.1135    3.1758 H   0  0  0  0  0  0  0  0  0  0  0  0
    7.6096   12.3901    4.2653 H   0  0  0  0  0  0  0  0  0  0  0  0
    8.4880   10.8684    4.2206 H   0  0  0  0  0  0  0  0  0  0  0  0
    6.6001   10.8649    7.4655 H   0  0  0  0  0  0  0  0  0  0  0  0
    8.1816   11.1061    6.7249 H   0  0  0  0  0  0  0  0  0  0  0  0
    6.9867   12.4005    6.6827 H   0  0  0  0  0  0  0  0  0  0  0  0
    9.1794    3.8147    8.0986 H   0  0  0  0  0  0  0  0  0  0  0  0
    7.5997    3.5064    6.2173 H   0  0  0  0  0  0  0  0  0  0  0  0
    6.7360    3.2376    7.7324 H   0  0  0  0  0  0  0  0  0  0  0  0
    6.5541    4.7681    6.8704 H   0  0  0  0  0  0  0  0  0  0  0  0
    8.7310    5.4210    9.9084 H   0  0  0  0  0  0  0  0  0  0  0  0
    7.2443    5.9480    9.1050 H   0  0  0  0  0  0  0  0  0  0  0  0
    7.3563    4.3245    9.7937 H   0  0  0  0  0  0  0  0  0  0  0  0
   11.0245    5.1619    8.3122 H   0  0  0  0  0  0  0  0  0  0  0  0
   12.2093    5.5134    6.1614 H   0  0  0  0  0  0  0  0  0  0  0  0
   11.8334    7.2389    6.2056 H   0  0  0  0  0  0  0  0  0  0  0  0
   12.9262    6.5434    7.3939 H   0  0  0  0  0  0  0  0  0  0  0  0
    9.9095    7.1784    9.4235 H   0  0  0  0  0  0  0  0  0  0  0  0
   11.6752    7.2181    9.4475 H   0  0  0  0  0  0  0  0  0  0  0  0
   10.7864    8.2053    8.2900 H   0  0  0  0  0  0  0  0  0  0  0  0
    6.8235    6.7937    6.6768 H   0  0  0  0  0  0  0  0  0  0  0  0
  1 66  1  0  0  0  0
  1  4  1  0  0  0  0
  1 28  1  0  0  0  0
  2  1  1  0  0  0  0
  3 16  1  0  0  0  0
  3  1  1  0  0  0  0
  4 25  1  0  0  0  0
  4 22  1  0  0  0  0
  6  1  1  0  0  0  0
  7  3  1  0  0  0  0
  8  4  1  0  0  0  0
  9 10  1  6  0  0  0
  9  7  1  0  0  0  0
  9  6  1  0  0  0  0
 11 10  2  0  0  0  0
 11 12  1  0  0  0  0
 12 13  2  0  0  0  0
 13  6  1  0  0  0  0
 13  8  1  0  0  0  0
 14 32  1  0  0  0  0
 14  7  1  0  0  0  0
 15  8  1  0  0  0  0
 15 35  1  0  0  0  0
 16 18  1  0  0  0  0
 17 41  1  0  0  0  0
 17 16  1  0  0  0  0
 17 40  1  0  0  0  0
 18 42  1  0  0  0  0
 18 43  1  0  0  0  0
 18 44  1  0  0  0  0
 19  3  1  0  0  0  0
 19 21  1  0  0  0  0
 20 48  1  0  0  0  0
 20 47  1  0  0  0  0
 20 19  1  0  0  0  0
 21 51  1  0  0  0  0
 21 50  1  0  0  0  0
 21 49  1  0  0  0  0
 22 52  1  0  0  0  0
 22 24  1  0  0  0  0
 23 54  1  0  0  0  0
 23 22  1  0  0  0  0
 24 58  1  0  0  0  0
 24 56  1  0  0  0  0
 25 59  1  0  0  0  0
 25 27  1  0  0  0  0
 26 62  1  0  0  0  0
 26 25  1  0  0  0  0
 27 63  1  0  0  0  0
 27 64  1  0  0  0  0
 28  5  1  0  0  0  0
 29 10  1  0  0  0  0
 30 11  1  0  0  0  0
 31 12  1  0  0  0  0
 33 14  1  0  0  0  0
 34 14  1  0  0  0  0
 36 15  1  0  0  0  0
 37 15  1  0  0  0  0
 38 16  1  0  0  0  0
 39 17  1  0  0  0  0
 45 19  1  0  0  0  0
 46 20  1  0  0  0  0
 53 23  1  0  0  0  0
 55 23  1  0  0  0  0
 57 24  1  0  0  0  0
 60 26  1  0  0  0  0
 61 26  1  0  0  0  0
 65 27  1  0  0  0  0
M  END
$$$$
