CSD_code = AQAXOF | q = 0 | S = 0 | Stoichiometry = C16H26ClNO7RuS3 | MND = 6
 OpenBabel04212202003D

 55 55  0  0  0  0  0  0  0  0999 V2000
    8.6626    5.2168    3.2913 Ru  0  0  0  0  0  0  0  0  0  0  0  0
   10.7442    4.8889    4.2619 Cl  0  0  0  0  0  0  0  0  0  0  0  0
    8.9410    3.3603    2.0487 S   0  0  0  0  0  0  0  0  0  0  0  0
    6.5991    5.5529    2.4066 S   0  0  0  0  0  0  0  0  0  0  0  0
    7.8437    4.2047    5.1036 S   0  0  0  0  0  0  0  0  0  0  0  0
    8.3886    7.0146    4.4596 O   0  0  0  0  0  0  0  0  0  0  0  0
    9.3206    7.8773    4.5810 C   0  0  0  0  0  0  0  0  0  0  0  0
   10.8162    8.2053    2.6124 O   0  0  0  0  0  0  0  0  0  0  0  0
   10.4165    8.4034    3.7573 C   0  0  0  0  0  0  0  0  0  0  0  0
   11.6070   10.1873    5.0755 O   0  0  0  0  0  0  0  0  0  0  0  0
   10.7650    9.3422    4.8758 C   0  0  0  0  0  0  0  0  0  0  0  0
    9.6259    8.7890    5.6226 C   0  0  0  0  0  0  0  0  0  0  0  0
    8.9696    8.9827    6.7841 N   0  0  0  0  0  0  0  0  0  0  0  0
    8.1647    8.3798    6.9144 H   0  0  0  0  0  0  0  0  0  0  0  0
    8.3048    9.8801    8.8891 C   0  0  0  0  0  0  0  0  0  0  0  0
    7.4806    9.1790    8.8962 H   0  0  0  0  0  0  0  0  0  0  0  0
    8.4744   10.7587    9.9408 C   0  0  0  0  0  0  0  0  0  0  0  0
    7.7803   10.7416   10.7682 H   0  0  0  0  0  0  0  0  0  0  0  0
    9.5286   11.6574    9.9333 C   0  0  0  0  0  0  0  0  0  0  0  0
    9.6600   12.3445   10.7553 H   0  0  0  0  0  0  0  0  0  0  0  0
   10.4110   11.6671    8.8653 C   0  0  0  0  0  0  0  0  0  0  0  0
   11.2355   12.3639    8.8539 H   0  0  0  0  0  0  0  0  0  0  0  0
   10.2536   10.7932    7.8058 C   0  0  0  0  0  0  0  0  0  0  0  0
   10.9478   10.8107    6.9817 H   0  0  0  0  0  0  0  0  0  0  0  0
    9.1922    9.8914    7.8121 C   0  0  0  0  0  0  0  0  0  0  0  0
    7.9267    2.3480    2.3351 O   0  0  0  0  0  1  0  0  0  0  0  0
   10.5505    2.5219    2.0830 C   0  0  0  0  0  0  0  0  0  0  0  0
   10.7198    2.1583    3.0902 H   0  0  0  0  0  0  0  0  0  0  0  0
   11.3015    3.2634    1.8360 H   0  0  0  0  0  0  0  0  0  0  0  0
   10.5339    1.7030    1.3735 H   0  0  0  0  0  0  0  0  0  0  0  0
    8.8650    3.6706    0.2603 C   0  0  0  0  0  0  0  0  0  0  0  0
    7.9885    4.2814    0.0619 H   0  0  0  0  0  0  0  0  0  0  0  0
    8.7889    2.7156   -0.2461 H   0  0  0  0  0  0  0  0  0  0  0  0
    9.7627    4.2077   -0.0215 H   0  0  0  0  0  0  0  0  0  0  0  0
    6.7715    6.0753    1.0440 O   0  0  0  0  0  1  0  0  0  0  0  0
    5.3906    4.2081    2.2772 C   0  0  0  0  0  0  0  0  0  0  0  0
    5.8956    3.3374    1.8720 H   0  0  0  0  0  0  0  0  0  0  0  0
    4.5941    4.5366    1.6201 H   0  0  0  0  0  0  0  0  0  0  0  0
    5.0377    3.9922    3.2775 H   0  0  0  0  0  0  0  0  0  0  0  0
    5.5561    6.7445    3.2907 C   0  0  0  0  0  0  0  0  0  0  0  0
    6.1346    7.6542    3.4138 H   0  0  0  0  0  0  0  0  0  0  0  0
    5.3314    6.3041    4.2547 H   0  0  0  0  0  0  0  0  0  0  0  0
    4.6619    6.9327    2.7083 H   0  0  0  0  0  0  0  0  0  0  0  0
    6.3874    4.2247    5.1437 O   0  0  0  0  0  1  0  0  0  0  0  0
    8.3824    2.5007    5.4002 C   0  0  0  0  0  0  0  0  0  0  0  0
    8.0852    1.9108    4.5387 H   0  0  0  0  0  0  0  0  0  0  0  0
    7.9012    2.1335    6.2989 H   0  0  0  0  0  0  0  0  0  0  0  0
    9.4617    2.5288    5.5018 H   0  0  0  0  0  0  0  0  0  0  0  0
    8.4177    4.9294    6.6642 C   0  0  0  0  0  0  0  0  0  0  0  0
    8.0428    5.9460    6.6909 H   0  0  0  0  0  0  0  0  0  0  0  0
    9.5023    4.9260    6.6396 H   0  0  0  0  0  0  0  0  0  0  0  0
    8.0214    4.3501    7.4894 H   0  0  0  0  0  0  0  0  0  0  0  0
    9.5235    6.2679    1.5192 O   0  0  0  0  0  0  0  0  0  0  0  0
   10.0966    7.0351    1.8704 H   0  0  0  0  0  0  0  0  0  0  0  0
    8.7728    6.6615    1.0444 H   0  0  0  0  0  0  0  0  0  0  0  0
  1  2  1  0  0  0  0
  1  6  1  0  0  0  0
  1  5  1  0  0  0  0
  3 27  1  0  0  0  0
  3 26  1  0  0  0  0
  3  1  1  0  0  0  0
  4 40  1  0  0  0  0
  4  1  1  0  0  0  0
  5 44  1  0  0  0  0
  5 45  1  0  0  0  0
  5 49  1  0  0  0  0
  6  7  1  0  0  0  0
  7 12  2  0  0  0  0
  8  9  2  0  0  0  0
  9  7  1  0  0  0  0
  9 11  1  0  0  0  0
 11 10  2  0  0  0  0
 11 12  1  0  0  0  0
 12 13  1  0  0  0  0
 13 14  1  0  0  0  0
 13 25  1  0  0  0  0
 15 16  1  0  0  0  0
 15 17  1  0  0  0  0
 17 18  1  0  0  0  0
 19 17  2  0  0  0  0
 19 20  1  0  0  0  0
 21 19  1  0  0  0  0
 22 21  1  0  0  0  0
 23 25  1  0  0  0  0
 23 21  2  0  0  0  0
 24 23  1  0  0  0  0
 25 15  2  0  0  0  0
 27 28  1  0  0  0  0
 29 27  1  0  0  0  0
 30 27  1  0  0  0  0
 31  3  1  0  0  0  0
 32 31  1  0  0  0  0
 33 31  1  0  0  0  0
 34 31  1  0  0  0  0
 35  4  1  0  0  0  0
 36  4  1  0  0  0  0
 36 39  1  0  0  0  0
 37 36  1  0  0  0  0
 38 36  1  0  0  0  0
 40 41  1  0  0  0  0
 40 42  1  0  0  0  0
 43 40  1  0  0  0  0
 45 48  1  0  0  0  0
 45 47  1  0  0  0  0
 46 45  1  0  0  0  0
 49 50  1  0  0  0  0
 49 52  1  0  0  0  0
 51 49  1  0  0  0  0
 53 54  1  0  0  0  0
 55 53  1  0  0  0  0
M  END
$$$$
