CSD_code = AQEFIN | q = 0 | S = 0 | Stoichiometry = C11H12HgI3N3 | MND = 4
 OpenBabel04212202003D

 30 30  0  0  1  0  0  0  0  0999 V2000
    6.4102   -2.6282   11.0554 Hg  0  0  0  0  0  0  0  0  0  0  0  0
    8.8999   -1.8712   12.0171 I   0  0  0  0  0  0  0  0  0  0  0  0
    4.5433   -1.1365    9.9826 I   0  0  0  0  0  0  0  0  0  0  0  0
    6.3054   -5.2649   11.7133 I   0  0  0  0  0  0  0  0  0  0  0  0
    7.3997   -3.5007    8.3954 N   0  0  0  0  0  0  0  0  0  0  0  0
   10.4353   -5.0588   10.8127 N   0  0  0  0  0  0  0  0  0  0  0  0
   10.4578   -4.0542   10.9695 H   0  0  0  0  0  0  0  0  0  0  0  0
    9.7275   -5.1636   12.9967 N   0  0  0  0  0  0  0  0  0  0  0  0
    9.7972   -4.1375   13.0080 H   0  0  0  0  0  0  0  0  0  0  0  0
    8.6306   -3.8370    8.7451 C   0  0  0  0  0  0  0  0  0  0  0  0
    9.2861   -3.0129    9.0007 H   0  0  0  0  0  0  0  0  0  0  0  0
    9.0850   -5.1509    8.7996 C   0  0  0  0  0  0  0  0  0  0  0  0
    8.2158   -6.1488    8.3803 C   0  0  0  0  0  0  0  0  0  0  0  0
    8.5157   -7.1866    8.4068 H   0  0  0  0  0  0  0  0  0  0  0  0
    6.9552   -5.7943    7.9285 C   0  0  0  0  0  0  0  0  0  0  0  0
    6.2599   -6.5420    7.5825 H   0  0  0  0  0  0  0  0  0  0  0  0
    6.5813   -4.4605    7.9844 C   0  0  0  0  0  0  0  0  0  0  0  0
    5.5893   -4.1397    7.6956 H   0  0  0  0  0  0  0  0  0  0  0  0
   10.4364   -5.4377    9.4084 C   0  0  0  0  0  0  0  0  0  0  0  0
   10.6946   -6.4919    9.3070 H   0  0  0  0  0  0  0  0  0  0  0  0
   11.2089   -4.8408    8.9170 H   0  0  0  0  0  0  0  0  0  0  0  0
    9.9332   -5.7868   11.8146 C   0  0  2  0  0  3  0  0  0  0  0  0
    9.6651   -7.1709   11.7554 C   0  0  0  0  0  0  0  0  0  0  0  0
    9.8019   -7.7005   10.8293 H   0  0  0  0  0  0  0  0  0  0  0  0
    9.2016   -7.8244   12.8655 C   0  0  0  0  0  0  0  0  0  0  0  0
    8.9783   -8.8779   12.8137 H   0  0  0  0  0  0  0  0  0  0  0  0
    8.9959   -7.1287   14.0662 C   0  0  0  0  0  0  0  0  0  0  0  0
    8.6152   -7.6303   14.9382 H   0  0  0  0  0  0  0  0  0  0  0  0
    9.2590   -5.7903   14.0907 C   0  0  0  0  0  0  0  0  0  0  0  0
    9.1025   -5.1762   14.9635 H   0  0  0  0  0  0  0  0  0  0  0  0
  1  4  1  0  0  0  0
  1  2  1  0  0  0  0
  3  1  1  0  0  0  0
  5 10  1  0  0  0  0
  6  7  1  0  0  0  0
  8  9  1  0  0  0  0
  8 29  1  0  0  0  0
 10 12  2  0  0  0  0
 10 11  1  0  0  0  0
 12 19  1  0  0  0  0
 13 14  1  0  0  0  0
 13 12  1  0  0  0  0
 15 17  1  0  0  0  0
 15 13  2  0  0  0  0
 16 15  1  0  0  0  0
 17  5  2  0  0  0  0
 18 17  1  0  0  0  0
 19  6  1  0  0  0  0
 20 19  1  0  0  0  0
 21 19  1  0  0  0  0
 22  6  1  1  0  0  0
 22  8  1  0  0  0  0
 23 22  1  0  0  0  0
 23 25  2  0  0  0  0
 24 23  1  0  0  0  0
 25 27  1  0  0  0  0
 26 25  1  0  0  0  0
 27 29  2  0  0  0  0
 27 28  1  0  0  0  0
 29 30  1  0  0  0  0
M  END
$$$$
