CSD_code = AQEGOS | q = 0 | S = 0 | Stoichiometry = C18H13ClN2O2Pt | MND = 4
 OpenBabel04212202003D

 37 41  0  0  0  0  0  0  0  0999 V2000
    1.9781    9.9702    7.1695 Pt  0  0  1  0  0  0  0  0  0  0  0  0
    2.1881    7.7882    6.4446 Cl  0  0  0  0  0  0  0  0  0  0  0  0
    1.8029   11.7820    7.7715 C   0  0  0  0  0  0  0  0  0  0  0  0
    1.7423   16.0860   10.2600 O   0  0  0  0  0  0  0  0  0  0  0  0
    2.2113   12.0931    9.0714 C   0  0  0  0  0  0  0  0  0  0  0  0
    0.9134   16.5963    8.2407 O   0  0  0  0  0  0  0  0  0  0  0  0
    2.0772   13.4045    9.5031 C   0  0  0  0  0  0  0  0  0  0  0  0
    2.3656   13.7295   10.4917 H   0  0  0  0  0  0  0  0  0  0  0  0
    1.5449   14.3613    8.6307 C   0  0  0  0  0  0  0  0  0  0  0  0
    1.1413   14.0400    7.3306 C   0  0  0  0  0  0  0  0  0  0  0  0
    0.7387   14.8192    6.7024 H   0  0  0  0  0  0  0  0  0  0  0  0
    1.2707   12.7288    6.8914 C   0  0  0  0  0  0  0  0  0  0  0  0
    1.4229   15.7427    9.1466 C   0  0  0  0  0  0  0  0  0  0  0  0
    0.7697   17.9392    8.6756 C   0  0  0  0  0  0  0  0  0  0  0  0
    0.3870   18.4960    7.8239 H   0  0  0  0  0  0  0  0  0  0  0  0
    1.7338   18.3400    8.9958 H   0  0  0  0  0  0  0  0  0  0  0  0
    0.0725   17.9940    9.5145 H   0  0  0  0  0  0  0  0  0  0  0  0
    2.7123    9.7634    9.0383 N   0  0  0  0  0  0  0  0  0  0  0  0
    3.1633    8.6393    9.5868 C   0  0  0  0  0  3  0  0  0  0  0  0
    3.1252    7.7554    8.9614 H   0  0  0  0  0  0  0  0  0  0  0  0
    3.6565    8.5822   10.8786 C   0  0  0  0  0  0  0  0  0  0  0  0
    4.0111    7.6463   11.2786 H   0  0  0  0  0  0  0  0  0  0  0  0
    3.6831    9.7447   11.6360 C   0  0  0  0  0  0  0  0  0  0  0  0
    4.0620    9.7352   12.6466 H   0  0  0  0  0  0  0  0  0  0  0  0
    3.2147   10.9183   11.0731 C   0  0  0  0  0  0  0  0  0  0  0  0
    3.2205   11.8399   11.6328 H   0  0  0  0  0  0  0  0  0  0  0  0
    2.7294   10.9178    9.7697 C   0  0  0  0  0  0  0  0  0  0  0  0
    1.1863   10.7909    5.5060 N   0  0  0  0  0  0  0  0  0  0  0  0
    0.9086   10.1540    4.3725 C   0  0  0  0  0  0  0  0  0  0  0  0
    1.1330    9.0941    4.3544 H   0  0  0  0  0  0  0  0  0  0  0  0
    0.3648   10.7898    3.2701 C   0  0  0  0  0  0  0  0  0  0  0  0
    0.1570   10.2296    2.3731 H   0  0  0  0  0  0  0  0  0  0  0  0
    0.0972   12.1491    3.3477 C   0  0  0  0  0  0  0  0  0  0  0  0
   -0.3265   12.6762    2.5064 H   0  0  0  0  0  0  0  0  0  0  0  0
    0.3830   12.8190    4.5238 C   0  0  0  0  0  0  0  0  0  0  0  0
    0.1874   13.8753    4.6175 H   0  0  0  0  0  0  0  0  0  0  0  0
    0.9289   12.1301    5.6019 C   0  0  0  0  0  0  0  0  0  0  0  0
  1  2  1  1  0  0  0
  1  3  2  0  0  0  0
  1 18  1  0  0  0  0
  3  5  1  0  0  0  0
  5  7  2  0  0  0  0
  5 27  1  0  0  0  0
  6 14  1  0  0  0  0
  6 13  1  0  0  0  0
  7  8  1  0  0  0  0
  9 13  1  0  0  0  0
  9  7  1  0  0  0  0
 10  9  2  0  0  0  0
 11 10  1  0  0  0  0
 12 10  1  0  0  0  0
 12  3  1  0  0  0  0
 13  4  2  0  0  0  0
 14 16  1  0  0  0  0
 14 17  1  0  0  0  0
 15 14  1  0  0  0  0
 18 19  1  0  0  0  0
 18 27  1  0  0  0  0
 19 21  1  0  0  0  0
 20 19  1  0  0  0  0
 21 22  1  0  0  0  0
 21 23  2  0  0  0  0
 23 24  1  0  0  0  0
 25 26  1  0  0  0  0
 25 23  1  0  0  0  0
 27 25  2  0  0  0  0
 28 37  1  0  0  0  0
 28  1  1  0  0  0  0
 29 28  1  0  0  0  0
 30 29  1  0  0  0  0
 31 33  1  0  0  0  0
 31 29  2  0  0  0  0
 32 31  1  0  0  0  0
 33 35  2  0  0  0  0
 34 33  1  0  0  0  0
 35 36  1  0  0  0  0
 35 37  1  0  0  0  0
 37 12  2  0  0  0  0
M  END
$$$$
