CSD_code = AQEPUH | q = -1 | S = 0 | Stoichiometry = C12F10HgI(1-) | MND = 3
 OpenBabel04212202003D

 24 25  0  0  0  0  0  0  0  0999 V2000
    0.3408    2.4412    4.0798 Hg  0  0  0  0  0  0  0  0  0  0  0  0
   -0.5092    4.9348    4.3738 I   0  0  0  0  0  0  0  0  0  0  0  0
   -0.8223    1.1303    1.2189 F   0  0  0  0  0  0  0  0  0  0  0  0
   -2.6782   -0.7302    0.5578 F   0  0  0  0  0  0  0  0  0  0  0  0
   -4.0521   -2.0464    2.5203 F   0  0  0  0  0  0  0  0  0  0  0  0
   -3.5390   -1.4800    5.1445 F   0  0  0  0  0  0  0  0  0  0  0  0
   -1.6803    0.3835    5.7893 F   0  0  0  0  0  0  0  0  0  0  0  0
    2.2504    1.5402    6.6830 F   0  0  0  0  0  0  0  0  0  0  0  0
    4.8902    1.0723    7.0775 F   0  0  0  0  0  0  0  0  0  0  0  0
    6.6409    1.2779    4.9884 F   0  0  0  0  0  0  0  0  0  0  0  0
    5.7138    1.9509    2.5068 F   0  0  0  0  0  0  0  0  0  0  0  0
    3.0712    2.4163    2.1287 F   0  0  0  0  0  0  0  0  0  0  0  0
   -1.1833    0.8320    3.5292 C   0  0  0  0  0  0  0  0  0  0  0  0
   -1.4834    0.5000    2.2126 C   0  0  0  0  0  0  0  0  0  0  0  0
   -2.4312   -0.4508    1.8510 C   0  0  0  0  0  0  0  0  0  0  0  0
   -3.1309   -1.1220    2.8443 C   0  0  0  0  0  0  0  0  0  0  0  0
   -2.8675   -0.8307    4.1756 C   0  0  0  0  0  0  0  0  0  0  0  0
   -1.9097    0.1288    4.4840 C   0  0  0  0  0  0  0  0  0  0  0  0
    2.5598    2.0006    4.3920 C   0  0  0  0  0  0  0  0  0  0  0  0
    3.0877    1.6518    5.6303 C   0  0  0  0  0  0  0  0  0  0  0  0
    4.4378    1.4075    5.8550 C   0  0  0  0  0  0  0  0  0  0  0  0
    5.3304    1.5103    4.7969 C   0  0  0  0  0  0  0  0  0  0  0  0
    4.8552    1.8528    3.5385 C   0  0  0  0  0  0  0  0  0  0  0  0
    3.4955    2.0871    3.3669 C   0  0  0  0  0  0  0  0  0  0  0  0
  1  2  1  0  0  0  0
  1 19  1  0  0  0  0
  3 14  1  0  0  0  0
  4 15  1  0  0  0  0
  5 16  1  0  0  0  0
 11 23  1  0  0  0  0
 12 24  1  0  0  0  0
 13  1  1  0  0  0  0
 13 18  1  0  0  0  0
 14 13  2  0  0  0  0
 15 14  1  0  0  0  0
 15 16  2  0  0  0  0
 16 17  1  0  0  0  0
 17 18  2  0  0  0  0
 17  6  1  0  0  0  0
 18  7  1  0  0  0  0
 19 20  1  0  0  0  0
 20 21  2  0  0  0  0
 20  8  1  0  0  0  0
 21  9  1  0  0  0  0
 22 10  1  0  0  0  0
 22 21  1  0  0  0  0
 23 22  2  0  0  0  0
 24 23  1  0  0  0  0
 24 19  2  0  0  0  0
M  END
$$$$
