CSD_code = AQERIY | q = 0 | S = 0 | Stoichiometry = C30H34Cl2N2ORu | MND = 5
 OpenBabel04212202003D

 70 74  0  0  1  0  0  0  0  0999 V2000
   -0.0697    7.3096    6.9482 Ru  0  0  0  0  0  0  0  0  0  0  0  0
    1.0109    8.8428    5.5696 Cl  0  0  0  0  0  0  0  0  0  0  0  0
   -0.4488    5.9249    8.7557 Cl  0  0  0  0  0  0  0  0  0  0  0  0
   -0.6109    9.0863    8.3333 O   0  0  0  0  0  0  0  0  0  0  0  0
   -0.4261    5.1117    4.8529 N   0  0  0  0  0  0  0  0  0  0  0  0
    1.3271    4.9148    6.1022 N   0  0  0  0  0  0  0  0  0  0  0  0
   -1.8567    7.6891    6.4423 C   0  0  0  0  0  3  0  0  0  0  0  0
   -2.4231    7.2231    5.6393 H   0  0  0  0  0  0  0  0  0  0  0  0
   -2.5821    8.6618    7.1700 C   0  0  0  0  0  0  0  0  0  0  0  0
   -3.9425    8.9202    6.9316 C   0  0  0  0  0  0  0  0  0  0  0  0
   -4.4434    8.3558    6.1584 H   0  0  0  0  0  0  0  0  0  0  0  0
   -4.6224    9.8637    7.6683 C   0  0  0  0  0  0  0  0  0  0  0  0
   -5.6682   10.0521    7.4782 H   0  0  0  0  0  0  0  0  0  0  0  0
   -3.9605   10.5741    8.6598 C   0  0  0  0  0  0  0  0  0  0  0  0
   -4.4921   11.3116    9.2423 H   0  0  0  0  0  0  0  0  0  0  0  0
   -2.6154   10.3552    8.9154 C   0  0  0  0  0  0  0  0  0  0  0  0
   -2.1367   10.9267    9.6951 H   0  0  0  0  0  0  0  0  0  0  0  0
   -1.9190    9.4073    8.1808 C   0  0  0  0  0  0  0  0  0  0  0  0
    0.2343    9.9132    9.1325 C   0  0  0  0  0  0  0  0  0  0  0  0
   -0.2474   10.0701   10.1084 H   0  0  0  0  0  0  0  0  0  0  0  0
    0.4921   11.2407    8.4222 C   0  0  0  0  0  0  0  0  0  0  0  0
    0.9037   11.0410    7.4337 H   0  0  0  0  0  0  0  0  0  0  0  0
    1.2045   11.8330    8.9900 H   0  0  0  0  0  0  0  0  0  0  0  0
   -0.4253   11.8119    8.3009 H   0  0  0  0  0  0  0  0  0  0  0  0
    1.5292    9.1401    9.3315 C   0  0  0  0  0  0  0  0  0  0  0  0
    1.3084    8.1254    9.6658 H   0  0  0  0  0  0  0  0  0  0  0  0
    2.1498    9.6269   10.0795 H   0  0  0  0  0  0  0  0  0  0  0  0
    2.0754    9.1098    8.3895 H   0  0  0  0  0  0  0  0  0  0  0  0
    0.2651    5.7037    5.8220 C   0  0  2  0  0  3  0  0  0  0  0  0
    2.2010    5.0396    7.1824 C   0  0  0  0  0  0  0  0  0  0  0  0
    2.6208    6.3017    7.5970 C   0  0  0  0  0  0  0  0  0  0  0  0
    2.3005    7.1770    7.0286 H   0  0  0  0  0  0  0  0  0  0  0  0
    3.5076    6.4291    8.6498 C   0  0  0  0  0  0  0  0  0  0  0  0
    3.8432    7.4070    8.9599 H   0  0  0  0  0  0  0  0  0  0  0  0
    3.9788    5.2989    9.2964 C   0  0  0  0  0  0  0  0  0  0  0  0
    4.6680    5.3940   10.1217 H   0  0  0  0  0  0  0  0  0  0  0  0
    3.5680    4.0465    8.8785 C   0  0  0  0  0  0  0  0  0  0  0  0
    3.9350    3.1642    9.3833 H   0  0  0  0  0  0  0  0  0  0  0  0
    2.6835    3.8927    7.8212 C   0  0  0  0  0  0  0  0  0  0  0  0
    2.2712    2.5120    7.3822 C   0  0  0  0  0  0  0  0  0  0  0  0
    2.0539    1.9040    8.2622 H   0  0  0  0  0  0  0  0  0  0  0  0
    3.1150    2.0437    6.8631 H   0  0  0  0  0  0  0  0  0  0  0  0
    1.0582    2.5469    6.4579 C   0  0  0  0  0  0  0  0  0  0  0  0
    0.9067    1.5761    5.9835 H   0  0  0  0  0  0  0  0  0  0  0  0
    0.1645    2.8042    7.0308 H   0  0  0  0  0  0  0  0  0  0  0  0
    1.2898    3.6327    5.4093 C   0  0  1  0  0  0  0  0  0  0  0  0
    2.2479    3.4625    4.9036 H   0  0  0  0  0  0  0  0  0  0  0  0
    0.1447    3.8394    4.4227 C   0  0  0  0  0  0  0  0  0  0  0  0
    0.4912    3.9142    3.3865 H   0  0  0  0  0  0  0  0  0  0  0  0
   -0.6057    3.0464    4.4757 H   0  0  0  0  0  0  0  0  0  0  0  0
   -1.6284    5.5162    4.2176 C   0  0  0  0  0  0  0  0  0  0  0  0
   -1.5726    6.3613    3.1100 C   0  0  0  0  0  0  0  0  0  0  0  0
   -2.7588    6.6795    2.4649 C   0  0  0  0  0  0  0  0  0  0  0  0
   -2.7315    7.3388    1.6094 H   0  0  0  0  0  0  0  0  0  0  0  0
   -3.9775    6.1751    2.8962 C   0  0  0  0  0  0  0  0  0  0  0  0
   -4.0042    5.3504    4.0129 C   0  0  0  0  0  0  0  0  0  0  0  0
   -4.9511    4.9718    4.3707 H   0  0  0  0  0  0  0  0  0  0  0  0
   -2.8424    5.0124    4.6902 C   0  0  0  0  0  0  0  0  0  0  0  0
   -0.2660    6.9375    2.6664 C   0  0  0  0  0  0  0  0  0  0  0  0
   -0.4062    7.6041    1.8204 H   0  0  0  0  0  0  0  0  0  0  0  0
    0.4350    6.1548    2.3800 H   0  0  0  0  0  0  0  0  0  0  0  0
    0.1807    7.5015    3.4858 H   0  0  0  0  0  0  0  0  0  0  0  0
   -5.2492    6.5479    2.1964 C   0  0  0  0  0  0  0  0  0  0  0  0
   -5.6721    7.4451    2.6493 H   0  0  0  0  0  0  0  0  0  0  0  0
   -5.9852    5.7512    2.2775 H   0  0  0  0  0  0  0  0  0  0  0  0
   -5.0669    6.7569    1.1451 H   0  0  0  0  0  0  0  0  0  0  0  0
   -2.8866    4.1869    5.9394 C   0  0  0  0  0  0  0  0  0  0  0  0
   -2.2583    4.6411    6.7073 H   0  0  0  0  0  0  0  0  0  0  0  0
   -2.5289    3.1732    5.7582 H   0  0  0  0  0  0  0  0  0  0  0  0
   -3.9040    4.1222    6.3153 H   0  0  0  0  0  0  0  0  0  0  0  0
  1  3  1  0  0  0  0
  2  1  1  0  0  0  0
  4 19  1  0  0  0  0
  5 29  1  0  0  0  0
  6 30  1  0  0  0  0
  7  1  1  0  0  0  0
  7  9  1  0  0  0  0
  8  7  1  0  0  0  0
  9 18  1  0  0  0  0
 10  9  2  0  0  0  0
 10 12  1  0  0  0  0
 11 10  1  0  0  0  0
 12 14  2  0  0  0  0
 13 12  1  0  0  0  0
 14 16  1  0  0  0  0
 14 15  1  0  0  0  0
 16 17  1  0  0  0  0
 18  4  1  0  0  0  0
 18 16  2  0  0  0  0
 19 25  1  0  0  0  0
 19 20  1  0  0  0  0
 21 23  1  0  0  0  0
 21 19  1  0  0  0  0
 22 21  1  0  0  0  0
 24 21  1  0  0  0  0
 25 26  1  0  0  0  0
 25 27  1  0  0  0  0
 28 25  1  0  0  0  0
 29  6  1  0  0  0  0
 29  1  1  1  0  0  0
 30 31  2  0  0  0  0
 30 39  1  0  0  0  0
 31 33  1  0  0  0  0
 32 31  1  0  0  0  0
 33 34  1  0  0  0  0
 33 35  2  0  0  0  0
 35 36  1  0  0  0  0
 37 35  1  0  0  0  0
 37 38  1  0  0  0  0
 39 37  2  0  0  0  0
 40 39  1  0  0  0  0
 40 41  1  0  0  0  0
 42 40  1  0  0  0  0
 43 45  1  0  0  0  0
 43 40  1  0  0  0  0
 44 43  1  0  0  0  0
 46 47  1  6  0  0  0
 46  6  1  0  0  0  0
 46 43  1  0  0  0  0
 48 50  1  0  0  0  0
 48  5  1  0  0  0  0
 48 46  1  0  0  0  0
 49 48  1  0  0  0  0
 51 58  1  0  0  0  0
 51  5  1  0  0  0  0
 52 51  2  0  0  0  0
 53 55  2  0  0  0  0
 53 52  1  0  0  0  0
 54 53  1  0  0  0  0
 55 56  1  0  0  0  0
 56 57  1  0  0  0  0
 56 58  2  0  0  0  0
 58 67  1  0  0  0  0
 59 52  1  0  0  0  0
 59 62  1  0  0  0  0
 60 59  1  0  0  0  0
 61 59  1  0  0  0  0
 63 65  1  0  0  0  0
 63 64  1  0  0  0  0
 63 55  1  0  0  0  0
 66 63  1  0  0  0  0
 67 70  1  0  0  0  0
 67 68  1  0  0  0  0
 69 67  1  0  0  0  0
M  END
$$$$
