CSD_code = AQEZUS | q = 0 | S = 0 | Stoichiometry = C24H36Cl2F6O8P2Pt | MND = 4
 OpenBabel04212202003D

 79 84  0  0  1  0  0  0  0  0999 V2000
    6.4524    8.3832    7.6251 Pt  0  0  0  0  0  0  0  0  0  0  0  0
    4.2334    8.7656    8.1989 Cl  0  0  0  0  0  0  0  0  0  0  0  0
    6.3596    6.3540    8.7120 P   0  0  1  0  0  4  0  0  0  0  0  0
    5.2210    6.2745    5.9425 F   0  0  0  0  0  0  0  0  0  0  0  0
    4.5808    4.2281    6.0175 F   0  0  0  0  0  0  0  0  0  0  0  0
    3.1574    5.7773    5.5777 F   0  0  0  0  0  0  0  0  0  0  0  0
    8.8984    5.6509    9.0457 O   0  0  0  0  0  0  0  0  0  0  0  0
    6.3556    5.3160   11.2034 O   0  0  0  0  0  0  0  0  0  0  0  0
    8.6486    4.8673   11.2299 O   0  0  0  0  0  0  0  0  0  0  0  0
    5.0568    5.3840    8.5912 O   0  0  0  0  0  0  0  0  0  0  0  0
    7.9181    4.5972    7.1574 C   0  0  0  0  0  0  0  0  0  0  0  0
    8.1504    5.4570    6.5335 H   0  0  0  0  0  0  0  0  0  0  0  0
    7.0277    4.0998    6.7815 H   0  0  0  0  0  0  0  0  0  0  0  0
    8.7586    3.9080    7.1162 H   0  0  0  0  0  0  0  0  0  0  0  0
    7.6992    5.0465    8.5961 C   0  0  2  0  0  0  0  0  0  0  0  0
    7.3209    3.8758    9.5037 C   0  0  0  0  0  0  0  0  0  0  0  0
    6.3279    3.5028    9.2598 H   0  0  0  0  0  0  0  0  0  0  0  0
    8.0557    3.0782    9.3787 H   0  0  0  0  0  0  0  0  0  0  0  0
    7.3613    4.3534   10.9621 C   0  0  2  0  0  0  0  0  0  0  0  0
    7.1104    3.2134   11.9433 C   0  0  0  0  0  0  0  0  0  0  0  0
    7.8729    2.4519   11.8188 H   0  0  0  0  0  0  0  0  0  0  0  0
    6.1256    2.7953   11.7637 H   0  0  0  0  0  0  0  0  0  0  0  0
    7.1573    3.6067   12.9539 H   0  0  0  0  0  0  0  0  0  0  0  0
   10.3869    6.3987   10.7006 C   0  0  0  0  0  0  0  0  0  0  0  0
   11.0439    5.5692   10.4591 H   0  0  0  0  0  0  0  0  0  0  0  0
   10.4950    6.6519   11.7497 H   0  0  0  0  0  0  0  0  0  0  0  0
   10.6378    7.2505   10.0771 H   0  0  0  0  0  0  0  0  0  0  0  0
    8.9479    5.9841   10.4167 C   0  0  1  0  0  0  0  0  0  0  0  0
    7.9519    7.1029   10.7572 C   0  0  0  0  0  0  0  0  0  0  0  0
    8.1185    7.9600   10.0995 H   0  0  0  0  0  0  0  0  0  0  0  0
    8.1015    7.4031   11.7957 H   0  0  0  0  0  0  0  0  0  0  0  0
    6.5348    6.5669   10.5619 C   0  0  1  0  0  0  0  0  0  0  0  0
    5.4833    7.5170   11.1135 C   0  0  0  0  0  0  0  0  0  0  0  0
    4.4890    7.1349   10.8937 H   0  0  0  0  0  0  0  0  0  0  0  0
    5.6005    8.4976   10.6555 H   0  0  0  0  0  0  0  0  0  0  0  0
    5.5953    7.6017   12.1920 H   0  0  0  0  0  0  0  0  0  0  0  0
    3.9079    5.6369    7.8213 C   0  0  0  0  0  0  0  0  0  0  0  0
    3.5269    6.6574    7.9797 H   0  0  0  0  0  0  0  0  0  0  0  0
    3.1594    4.8911    8.1045 H   0  0  0  0  0  0  0  0  0  0  0  0
    4.2134    5.4762    6.3380 C   0  0  0  0  0  0  0  0  0  0  0  0
    8.6714    8.0009    7.0513 Cl  0  0  0  0  0  0  0  0  0  0  0  0
    6.5451   10.4125    6.5382 P   0  0  2  0  0  4  0  0  0  0  0  0
    7.6837   10.4920    9.3077 F   0  0  0  0  0  0  0  0  0  0  0  0
    8.3238   12.5383    9.2329 F   0  0  0  0  0  0  0  0  0  0  0  0
    9.7472   10.9892    9.6725 F   0  0  0  0  0  0  0  0  0  0  0  0
    4.0063   11.1155    6.2045 O   0  0  0  0  0  0  0  0  0  0  0  0
    6.5490   11.4507    4.0469 O   0  0  0  0  0  0  0  0  0  0  0  0
    4.2560   11.8992    4.0204 O   0  0  0  0  0  0  0  0  0  0  0  0
    7.8479   11.3825    6.6590 O   0  0  0  0  0  0  0  0  0  0  0  0
    4.9864   12.1692    8.0929 C   0  0  0  0  0  0  0  0  0  0  0  0
    4.7540   11.3094    8.7167 H   0  0  0  0  0  0  0  0  0  0  0  0
    5.8769   12.6664    8.4689 H   0  0  0  0  0  0  0  0  0  0  0  0
    4.1460   12.8584    8.1341 H   0  0  0  0  0  0  0  0  0  0  0  0
    5.2055   11.7199    6.6541 C   0  0  1  0  0  0  0  0  0  0  0  0
    5.5837   12.8907    5.7467 C   0  0  0  0  0  0  0  0  0  0  0  0
    6.5766   13.2638    5.9906 H   0  0  0  0  0  0  0  0  0  0  0  0
    4.8488   13.6883    5.8716 H   0  0  0  0  0  0  0  0  0  0  0  0
    5.5433   12.4132    4.2882 C   0  0  1  0  0  0  0  0  0  0  0  0
    5.7942   13.5533    3.3071 C   0  0  0  0  0  0  0  0  0  0  0  0
    5.0316   14.3147    3.4316 H   0  0  0  0  0  0  0  0  0  0  0  0
    6.7790   13.9714    3.4868 H   0  0  0  0  0  0  0  0  0  0  0  0
    5.7474   13.1601    2.2965 H   0  0  0  0  0  0  0  0  0  0  0  0
    2.5178   10.3678    4.5495 C   0  0  0  0  0  0  0  0  0  0  0  0
    1.8607   11.1971    4.7910 H   0  0  0  0  0  0  0  0  0  0  0  0
    2.4097   10.1145    3.5004 H   0  0  0  0  0  0  0  0  0  0  0  0
    2.2669    9.5159    5.1730 H   0  0  0  0  0  0  0  0  0  0  0  0
    3.9567   10.7824    4.8335 C   0  0  2  0  0  0  0  0  0  0  0  0
    4.9528    9.6636    4.4929 C   0  0  0  0  0  0  0  0  0  0  0  0
    4.7862    8.8065    5.1505 H   0  0  0  0  0  0  0  0  0  0  0  0
    4.8032    9.3635    3.4543 H   0  0  0  0  0  0  0  0  0  0  0  0
    6.3699   10.1997    4.6882 C   0  0  2  0  0  0  0  0  0  0  0  0
    7.4214    9.2497    4.1367 C   0  0  0  0  0  0  0  0  0  0  0  0
    8.4158    9.6319    4.3565 H   0  0  0  0  0  0  0  0  0  0  0  0
    7.3043    8.2690    4.5946 H   0  0  0  0  0  0  0  0  0  0  0  0
    7.3094    9.1650    3.0582 H   0  0  0  0  0  0  0  0  0  0  0  0
    8.9968   11.1297    7.4289 C   0  0  0  0  0  0  0  0  0  0  0  0
    9.3779   10.1093    7.2705 H   0  0  0  0  0  0  0  0  0  0  0  0
    9.7452   11.8756    7.1459 H   0  0  0  0  0  0  0  0  0  0  0  0
    8.6912   11.2903    8.9123 C   0  0  0  0  0  0  0  0  0  0  0  0
  1  2  1  0  0  0  0
  1  3  1  0  0  0  0
  3 10  1  6  0  0  0
  3 32  1  0  0  0  0
  4 40  1  0  0  0  0
  5 40  1  0  0  0  0
  6 40  1  0  0  0  0
  7 28  1  0  0  0  0
 12 11  1  0  0  0  0
 13 11  1  0  0  0  0
 14 11  1  0  0  0  0
 15 11  1  6  0  0  0
 15  3  1  0  0  0  0
 15  7  1  0  0  0  0
 15 16  1  0  0  0  0
 16 19  1  0  0  0  0
 17 16  1  0  0  0  0
 18 16  1  0  0  0  0
 19  8  1  0  0  0  0
 19  9  1  0  0  0  0
 19 20  1  1  0  0  0
 20 23  1  0  0  0  0
 21 20  1  0  0  0  0
 22 20  1  0  0  0  0
 24 26  1  0  0  0  0
 25 24  1  0  0  0  0
 27 24  1  0  0  0  0
 28 24  1  1  0  0  0
 28 29  1  0  0  0  0
 28  9  1  0  0  0  0
 29 31  1  0  0  0  0
 30 29  1  0  0  0  0
 32 29  1  0  0  0  0
 32 33  1  1  0  0  0
 32  8  1  0  0  0  0
 33 36  1  0  0  0  0
 34 33  1  0  0  0  0
 35 33  1  0  0  0  0
 37 38  1  0  0  0  0
 37 39  1  0  0  0  0
 37 10  1  0  0  0  0
 40 37  1  0  0  0  0
 41  1  1  0  0  0  0
 42 54  1  0  0  0  0
 42 49  1  1  0  0  0
 42  1  1  0  0  0  0
 46 54  1  0  0  0  0
 47 58  1  0  0  0  0
 47 71  1  0  0  0  0
 48 58  1  0  0  0  0
 48 67  1  0  0  0  0
 49 76  1  0  0  0  0
 50 53  1  0  0  0  0
 50 52  1  0  0  0  0
 50 51  1  0  0  0  0
 54 50  1  1  0  0  0
 55 57  1  0  0  0  0
 55 56  1  0  0  0  0
 55 54  1  0  0  0  0
 58 59  1  6  0  0  0
 58 55  1  0  0  0  0
 59 60  1  0  0  0  0
 59 61  1  0  0  0  0
 62 59  1  0  0  0  0
 63 64  1  0  0  0  0
 63 66  1  0  0  0  0
 65 63  1  0  0  0  0
 67 63  1  6  0  0  0
 67 46  1  0  0  0  0
 68 71  1  0  0  0  0
 68 67  1  0  0  0  0
 68 69  1  0  0  0  0
 70 68  1  0  0  0  0
 71 72  1  6  0  0  0
 71 42  1  0  0  0  0
 72 73  1  0  0  0  0
 72 74  1  0  0  0  0
 75 72  1  0  0  0  0
 76 79  1  0  0  0  0
 77 76  1  0  0  0  0
 78 76  1  0  0  0  0
 79 44  1  0  0  0  0
 79 43  1  0  0  0  0
 79 45  1  0  0  0  0
M  END
$$$$
