CSD_code = AQIDIP | q = 0 | S = 0 | Stoichiometry = C25H20BrN6O4Re | MND = 6
 OpenBabel04212202003D

 57 61  0  0  1  0  0  0  0  0999 V2000
   -0.2542    6.1413    3.6691 Re  0  0  0  0  0  0  0  0  0  0  0  0
   -1.2332    8.3472    2.7625 Br  0  0  0  0  0  0  0  0  0  0  0  0
   -1.6513    6.4599    5.2646 N   0  0  0  0  0  0  0  0  0  0  0  0
    0.7698    7.4487    5.0222 N   0  0  0  0  0  0  0  0  0  0  0  0
    3.5873   10.3094    7.9839 N   0  0  0  0  0  0  0  0  0  0  0  0
    4.7153   10.3134    7.2780 N   0  0  0  0  0  0  0  0  0  0  0  0
    5.6711    9.9096    8.0232 N   0  0  0  0  0  0  0  0  0  0  0  0
    6.4668   10.3213   11.1877 N   0  0  0  0  0  0  0  0  0  0  0  0
    7.2931   10.8124   10.8875 H   0  0  0  0  0  0  0  0  0  0  0  0
    0.9007    3.5963    4.9801 O   0  0  0  0  0  1  0  0  0  0  0  0
    1.8623    6.3022    1.4157 O   0  0  0  0  0  1  0  0  0  0  0  0
   -2.2336    4.6416    1.8211 O   0  0  0  0  0  1  0  0  0  0  0  0
    4.4562   10.5342   12.1915 O   0  0  0  0  0  0  0  0  0  0  0  0
   -2.8595    5.9069    5.3458 C   0  0  0  0  0  3  0  0  0  0  0  0
   -3.0775    5.1217    4.6333 H   0  0  0  0  0  0  0  0  0  0  0  0
   -3.8076    6.2923    6.2696 C   0  0  0  0  0  0  0  0  0  0  0  0
   -4.7731    5.8125    6.2789 H   0  0  0  0  0  0  0  0  0  0  0  0
   -3.5077    7.3066    7.1770 C   0  0  0  0  0  0  0  0  0  0  0  0
   -2.2429    7.8692    7.0996 C   0  0  0  0  0  0  0  0  0  0  0  0
   -1.9743    8.6543    7.7873 H   0  0  0  0  0  0  0  0  0  0  0  0
   -1.3349    7.4360    6.1371 C   0  0  0  0  0  0  0  0  0  0  0  0
   -4.5145    7.7781    8.1708 C   0  0  0  0  0  0  0  0  0  0  0  0
   -5.2129    8.4595    7.6842 H   0  0  0  0  0  0  0  0  0  0  0  0
   -4.0396    8.3070    8.9932 H   0  0  0  0  0  0  0  0  0  0  0  0
   -5.0871    6.9414    8.5646 H   0  0  0  0  0  0  0  0  0  0  0  0
    0.0131    7.9976    5.9916 C   0  0  2  0  0  3  0  0  0  0  0  0
    0.4959    9.0371    6.7854 C   0  0  0  0  0  0  0  0  0  0  0  0
   -0.1281    9.4761    7.5465 H   0  0  0  0  0  0  0  0  0  0  0  0
    1.7730    9.5264    6.5787 C   0  0  0  0  0  0  0  0  0  0  0  0
    2.5517    8.9304    5.5898 C   0  0  0  0  0  0  0  0  0  0  0  0
    3.5593    9.2710    5.4091 H   0  0  0  0  0  0  0  0  0  0  0  0
    2.0098    7.9024    4.8473 C   0  0  0  0  0  0  0  0  0  0  0  0
    2.5914    7.4270    4.0682 H   0  0  0  0  0  0  0  0  0  0  0  0
    0.4732    4.5381    4.4846 C   0  0  0  0  0  2  0  0  0  0  0  0
    1.0858    6.1826    2.2477 C   0  0  0  0  0  2  0  0  0  0  0  0
   -1.4636    5.1501    2.4988 C   0  0  0  0  0  2  0  0  0  0  0  0
    2.3282   10.6694    7.3898 C   0  0  0  0  0  0  0  0  0  0  0  0
    2.5041   11.5227    6.7259 H   0  0  0  0  0  0  0  0  0  0  0  0
    1.6339   10.9627    8.1803 H   0  0  0  0  0  0  0  0  0  0  0  0
    3.8327    9.8738    9.2379 C   0  0  0  0  0  0  0  0  0  0  0  0
    3.0922    9.7968   10.0042 H   0  0  0  0  0  0  0  0  0  0  0  0
    5.1887    9.6181    9.2502 C   0  0  0  0  0  0  0  0  0  0  0  0
    6.0477    9.1829   10.3898 C   0  0  0  0  0  0  0  0  0  0  0  0
    5.4736    8.5189   11.0416 H   0  0  0  0  0  0  0  0  0  0  0  0
    6.9348    8.6726   10.0143 H   0  0  0  0  0  0  0  0  0  0  0  0
    5.5877   10.9469   12.0117 C   0  0  0  0  0  0  0  0  0  0  0  0
    5.2189   13.1671   13.0339 C   0  0  0  0  0  0  0  0  0  0  0  0
    4.1756   13.0294   12.7924 H   0  0  0  0  0  0  0  0  0  0  0  0
    5.6577   14.3135   13.6694 C   0  0  0  0  0  0  0  0  0  0  0  0
    4.9542   15.0918   13.9250 H   0  0  0  0  0  0  0  0  0  0  0  0
    6.9990   14.4596   13.9827 C   0  0  0  0  0  0  0  0  0  0  0  0
    7.3442   15.3528   14.4820 H   0  0  0  0  0  0  0  0  0  0  0  0
    7.8973   13.4539   13.6650 C   0  0  0  0  0  0  0  0  0  0  0  0
    8.9405   13.5605   13.9237 H   0  0  0  0  0  0  0  0  0  0  0  0
    7.4636   12.3098   13.0197 C   0  0  0  0  0  0  0  0  0  0  0  0
    8.1690   11.5211   12.8007 H   0  0  0  0  0  0  0  0  0  0  0  0
    6.1191   12.1627   12.6917 C   0  0  0  0  0  0  0  0  0  0  0  0
  1 34  1  0  0  0  0
  1  4  1  0  0  0  0
  1  3  1  0  0  0  0
  2  1  1  0  0  0  0
  3 14  1  0  0  0  0
  3 21  1  0  0  0  0
  4 26  1  0  0  0  0
  5 40  1  0  0  0  0
  6  5  1  0  0  0  0
  6  7  2  0  0  0  0
  7 42  1  0  0  0  0
  8 46  1  0  0  0  0
  9  8  1  0  0  0  0
 11 35  1  0  0  0  0
 12 36  1  0  0  0  0
 14 16  1  0  0  0  0
 15 14  1  0  0  0  0
 16 17  1  0  0  0  0
 16 18  2  0  0  0  0
 18 22  1  0  0  0  0
 19 18  1  0  0  0  0
 19 20  1  0  0  0  0
 21 19  2  0  0  0  0
 22 25  1  0  0  0  0
 22 24  1  0  0  0  0
 23 22  1  0  0  0  0
 26 21  1  6  0  0  0
 26 27  1  0  0  0  0
 27 28  1  0  0  0  0
 29 27  2  0  0  0  0
 29 37  1  0  0  0  0
 30 29  1  0  0  0  0
 31 30  1  0  0  0  0
 32  4  1  0  0  0  0
 32 30  2  0  0  0  0
 33 32  1  0  0  0  0
 34 10  1  0  0  0  0
 35  1  1  0  0  0  0
 36  1  1  0  0  0  0
 37  5  1  0  0  0  0
 37 39  1  0  0  0  0
 38 37  1  0  0  0  0
 40 42  2  0  0  0  0
 40 41  1  0  0  0  0
 42 43  1  0  0  0  0
 43 44  1  0  0  0  0
 43  8  1  0  0  0  0
 45 43  1  0  0  0  0
 46 13  2  0  0  0  0
 46 57  1  0  0  0  0
 47 49  1  0  0  0  0
 48 47  1  0  0  0  0
 49 50  1  0  0  0  0
 49 51  2  0  0  0  0
 51 52  1  0  0  0  0
 53 54  1  0  0  0  0
 53 51  1  0  0  0  0
 55 53  2  0  0  0  0
 56 55  1  0  0  0  0
 57 55  1  0  0  0  0
 57 47  2  0  0  0  0
M  END
$$$$
