CSD_code = AQIMAP | q = 0 | S = 0 | Stoichiometry = C40H42Br2N4Pd | MND = 4
 OpenBabel04212202003D

 89 95  0  0  1  0  0  0  0  0999 V2000
   -0.1422    2.8574    5.2488 Pd  0  0  0  0  0  0  0  0  0  0  0  0
   -1.6266    1.1823    4.1932 Br  0  0  0  0  0  0  0  0  0  0  0  0
   -1.2564    5.3982    3.7779 N   0  0  0  0  0  0  0  0  0  0  0  0
   -0.2625    3.9390    2.5524 N   0  0  0  0  0  0  0  0  0  0  0  0
   -0.6531    4.1930    3.8176 C   0  0  1  0  0  3  0  0  0  0  0  0
   -1.2470    5.8922    2.4953 C   0  0  0  0  0  0  0  0  0  0  0  0
   -1.6945    6.8317    2.2481 H   0  0  0  0  0  0  0  0  0  0  0  0
   -0.6220    4.9717    1.7310 C   0  0  0  0  0  0  0  0  0  0  0  0
   -0.3937    4.9843    0.6866 H   0  0  0  0  0  0  0  0  0  0  0  0
   -1.7279    6.1587    4.8786 C   0  0  0  0  0  0  0  0  0  0  0  0
   -3.0431    6.0500    5.2947 C   0  0  0  0  0  0  0  0  0  0  0  0
   -3.7013    5.3544    4.7976 H   0  0  0  0  0  0  0  0  0  0  0  0
   -3.4835    6.8348    6.3470 C   0  0  0  0  0  0  0  0  0  0  0  0
   -4.5002    6.7456    6.6958 H   0  0  0  0  0  0  0  0  0  0  0  0
   -2.6250    7.7400    6.9403 C   0  0  0  0  0  0  0  0  0  0  0  0
   -2.9769    8.3611    7.7506 H   0  0  0  0  0  0  0  0  0  0  0  0
   -1.3077    7.8765    6.5142 C   0  0  0  0  0  0  0  0  0  0  0  0
   -0.8490    7.0645    5.4797 C   0  0  0  0  0  0  0  0  0  0  0  0
   -0.4246    8.9078    7.1496 C   0  0  0  0  0  0  0  0  0  0  0  0
    0.5905    8.8535    6.7645 H   0  0  0  0  0  0  0  0  0  0  0  0
   -0.4063    8.7780    8.2305 H   0  0  0  0  0  0  0  0  0  0  0  0
   -0.8163    9.9037    6.9440 H   0  0  0  0  0  0  0  0  0  0  0  0
    0.4122    2.7401    2.0701 C   0  0  0  0  0  0  0  0  0  0  0  0
   -0.2903    2.1775    1.4502 H   0  0  0  0  0  0  0  0  0  0  0  0
    0.6660    2.1138    2.9380 H   0  0  0  0  0  0  0  0  0  0  0  0
    1.6617    3.0959    1.3080 C   0  0  0  0  0  0  0  0  0  0  0  0
    2.8298    3.3781    2.0238 C   0  0  0  0  0  0  0  0  0  0  0  0
    3.9665    3.7769    1.3369 C   0  0  0  0  0  0  0  0  0  0  0  0
    4.8679    3.9983    1.8910 H   0  0  0  0  0  0  0  0  0  0  0  0
    3.9778    3.8814   -0.0456 C   0  0  0  0  0  0  0  0  0  0  0  0
    2.8276    3.5435   -0.7416 C   0  0  0  0  0  0  0  0  0  0  0  0
    2.8351    3.5841   -1.8220 H   0  0  0  0  0  0  0  0  0  0  0  0
    1.6694    3.1459   -0.0880 C   0  0  0  0  0  0  0  0  0  0  0  0
    0.4846    2.7192   -0.9086 C   0  0  0  0  0  0  0  0  0  0  0  0
    0.6713    2.9079   -1.9630 H   0  0  0  0  0  0  0  0  0  0  0  0
   -0.4317    3.2353   -0.6289 H   0  0  0  0  0  0  0  0  0  0  0  0
    0.3137    1.6498   -0.7832 H   0  0  0  0  0  0  0  0  0  0  0  0
    5.2208    4.2992   -0.7706 C   0  0  0  0  0  0  0  0  0  0  0  0
    5.8746    3.4380   -0.9114 H   0  0  0  0  0  0  0  0  0  0  0  0
    5.7699    5.0458   -0.2006 H   0  0  0  0  0  0  0  0  0  0  0  0
    4.9826    4.7060   -1.7505 H   0  0  0  0  0  0  0  0  0  0  0  0
    2.8963    3.1877    3.5075 C   0  0  0  0  0  0  0  0  0  0  0  0
    2.8300    2.1226    3.7481 H   0  0  0  0  0  0  0  0  0  0  0  0
    2.0859    3.7103    4.0340 H   0  0  0  0  0  0  0  0  0  0  0  0
    3.8447    3.5507    3.8949 H   0  0  0  0  0  0  0  0  0  0  0  0
    1.3423    1.1846    6.3060 Br  0  0  0  0  0  0  0  0  0  0  0  0
    0.9699    5.3994    6.7200 N   0  0  0  0  0  0  0  0  0  0  0  0
   -0.0254    3.9403    7.9447 N   0  0  0  0  0  0  0  0  0  0  0  0
    0.3655    4.1949    6.6797 C   0  0  1  0  0  3  0  0  0  0  0  0
    0.9606    5.8928    8.0028 C   0  0  0  0  0  0  0  0  0  0  0  0
    1.4085    6.8319    8.2508 H   0  0  0  0  0  0  0  0  0  0  0  0
    0.3345    4.9725    8.7666 C   0  0  0  0  0  0  0  0  0  0  0  0
    0.1063    4.9850    9.8110 H   0  0  0  0  0  0  0  0  0  0  0  0
    1.4428    6.1604    5.6203 C   0  0  0  0  0  0  0  0  0  0  0  0
    2.7590    6.0539    5.2071 C   0  0  0  0  0  0  0  0  0  0  0  0
    3.4173    5.3591    5.7052 H   0  0  0  0  0  0  0  0  0  0  0  0
    3.2005    6.8401    4.1563 C   0  0  0  0  0  0  0  0  0  0  0  0
    4.2185    6.7536    3.8104 H   0  0  0  0  0  0  0  0  0  0  0  0
    2.3417    7.7435    3.5608 C   0  0  0  0  0  0  0  0  0  0  0  0
    2.6942    8.3655    2.7514 H   0  0  0  0  0  0  0  0  0  0  0  0
    1.0230    7.8775    3.9837 C   0  0  0  0  0  0  0  0  0  0  0  0
    0.5636    7.0650    5.0175 C   0  0  0  0  0  0  0  0  0  0  0  0
    0.1393    8.9066    3.3459 C   0  0  0  0  0  0  0  0  0  0  0  0
   -0.8775    8.8480    3.7261 H   0  0  0  0  0  0  0  0  0  0  0  0
    0.1266    8.7785    2.2647 H   0  0  0  0  0  0  0  0  0  0  0  0
    0.5262    9.9037    3.5550 H   0  0  0  0  0  0  0  0  0  0  0  0
   -0.7000    2.7410    8.4262 C   0  0  0  0  0  0  0  0  0  0  0  0
    0.0021    2.1790    9.0471 H   0  0  0  0  0  0  0  0  0  0  0  0
   -0.9521    2.1145    7.5579 H   0  0  0  0  0  0  0  0  0  0  0  0
   -1.9507    3.0964    9.1866 C   0  0  0  0  0  0  0  0  0  0  0  0
   -3.1183    3.3772    8.4695 C   0  0  0  0  0  0  0  0  0  0  0  0
   -4.2556    3.7770    9.1547 C   0  0  0  0  0  0  0  0  0  0  0  0
   -5.1563    3.9984    8.5994 H   0  0  0  0  0  0  0  0  0  0  0  0
   -4.2684    3.8830   10.5371 C   0  0  0  0  0  0  0  0  0  0  0  0
   -3.1192    3.5453   11.2347 C   0  0  0  0  0  0  0  0  0  0  0  0
   -3.1281    3.5859   12.3150 H   0  0  0  0  0  0  0  0  0  0  0  0
   -1.9601    3.1473   10.5826 C   0  0  0  0  0  0  0  0  0  0  0  0
   -0.7767    2.7206   11.4050 C   0  0  0  0  0  0  0  0  0  0  0  0
   -0.9644    2.9103   12.4590 H   0  0  0  0  0  0  0  0  0  0  0  0
    0.1403    3.2358   11.1260 H   0  0  0  0  0  0  0  0  0  0  0  0
   -0.6063    1.6510   11.2807 H   0  0  0  0  0  0  0  0  0  0  0  0
   -5.5123    4.3017   11.2602 C   0  0  0  0  0  0  0  0  0  0  0  0
   -6.1661    3.4406   11.4016 H   0  0  0  0  0  0  0  0  0  0  0  0
   -6.0608    5.0474   10.6886 H   0  0  0  0  0  0  0  0  0  0  0  0
   -5.2751    4.7100   12.2399 H   0  0  0  0  0  0  0  0  0  0  0  0
   -3.1841    3.1835    6.9862 C   0  0  0  0  0  0  0  0  0  0  0  0
   -3.1200    2.1176    6.7487 H   0  0  0  0  0  0  0  0  0  0  0  0
   -2.3723    3.7029    6.4586 H   0  0  0  0  0  0  0  0  0  0  0  0
   -4.1316    3.5474    6.5973 H   0  0  0  0  0  0  0  0  0  0  0  0
  1 46  1  0  0  0  0
  1 49  1  0  0  0  0
  2  1  1  0  0  0  0
  3  5  1  0  0  0  0
  3 10  1  0  0  0  0
  5  4  1  1  0  0  0
  5  1  1  0  0  0  0
  6  3  1  0  0  0  0
  7  6  1  0  0  0  0
  8  6  2  0  0  0  0
  8  4  1  0  0  0  0
  9  8  1  0  0  0  0
 10 11  2  0  0  0  0
 10 18  1  0  0  0  0
 11 13  1  0  0  0  0
 12 11  1  0  0  0  0
 13 14  1  0  0  0  0
 13 15  2  0  0  0  0
 15 16  1  0  0  0  0
 17 15  1  0  0  0  0
 17 19  1  0  0  0  0
 18 17  2  0  0  0  0
 19 21  1  0  0  0  0
 20 19  1  0  0  0  0
 22 19  1  0  0  0  0
 23  4  1  0  0  0  0
 23 25  1  0  0  0  0
 24 23  1  0  0  0  0
 26 27  1  0  0  0  0
 26 23  1  0  0  0  0
 27 42  1  0  0  0  0
 28 29  1  0  0  0  0
 28 27  2  0  0  0  0
 30 28  1  0  0  0  0
 31 33  1  0  0  0  0
 31 30  2  0  0  0  0
 32 31  1  0  0  0  0
 33 26  2  0  0  0  0
 34 37  1  0  0  0  0
 34 36  1  0  0  0  0
 34 33  1  0  0  0  0
 35 34  1  0  0  0  0
 38 40  1  0  0  0  0
 38 30  1  0  0  0  0
 39 38  1  0  0  0  0
 41 38  1  0  0  0  0
 42 43  1  0  0  0  0
 42 45  1  0  0  0  0
 42 44  1  0  0  0  0
 47 50  1  0  0  0  0
 48 67  1  0  0  0  0
 48 52  1  0  0  0  0
 49 47  1  6  0  0  0
 49 48  1  0  0  0  0
 50 51  1  0  0  0  0
 50 52  2  0  0  0  0
 52 53  1  0  0  0  0
 54 47  1  0  0  0  0
 55 54  1  0  0  0  0
 55 56  1  0  0  0  0
 57 55  2  0  0  0  0
 58 57  1  0  0  0  0
 59 61  2  0  0  0  0
 59 57  1  0  0  0  0
 60 59  1  0  0  0  0
 61 62  1  0  0  0  0
 62 18  1  0  0  0  0
 62 54  2  0  0  0  0
 63 66  1  0  0  0  0
 63 64  1  0  0  0  0
 63 61  1  0  0  0  0
 65 63  1  0  0  0  0
 67 68  1  0  0  0  0
 67 70  1  0  0  0  0
 69 67  1  0  0  0  0
 70 77  1  0  0  0  0
 71 72  1  0  0  0  0
 71 70  2  0  0  0  0
 72 74  2  0  0  0  0
 73 72  1  0  0  0  0
 74 75  1  0  0  0  0
 74 82  1  0  0  0  0
 75 76  1  0  0  0  0
 77 75  2  0  0  0  0
 77 78  1  0  0  0  0
 78 79  1  0  0  0  0
 80 78  1  0  0  0  0
 81 78  1  0  0  0  0
 82 83  1  0  0  0  0
 82 85  1  0  0  0  0
 84 82  1  0  0  0  0
 86 71  1  0  0  0  0
 87 86  1  0  0  0  0
 88 86  1  0  0  0  0
 89 86  1  0  0  0  0
M  END
$$$$
