CSD_code = AQIQUN | q = 0 | S = 0 | Stoichiometry = C26H37BrN4O2Pt | MND = 4
 OpenBabel04212202003D

 71 75  0  0  0  0  0  0  0  0999 V2000
   10.9459    1.9576    4.6642 Pt  0  0  0  0  0  0  0  0  0  0  0  0
    9.2728    2.2104    2.9024 Br  0  0  0  0  0  0  0  0  0  0  0  0
   19.8747    2.5864   11.8034 O   0  0  0  0  0  0  0  0  0  0  0  0
   16.2298    2.1862    9.0594 O   0  0  0  0  0  0  0  0  0  0  0  0
   12.3789    3.3407    3.9563 N   0  0  0  0  0  4  0  0  0  0  0  0
    9.9511    0.5059    5.8425 N   0  0  0  0  0  4  0  0  0  0  0  0
   18.2825    1.0222   12.2496 N   0  0  0  0  0  0  0  0  0  0  0  0
   18.1253    2.4879   10.3673 N   0  0  0  0  0  0  0  0  0  0  0  0
   12.2689    1.7554    6.0668 C   0  0  0  0  0  0  0  0  0  0  0  0
   13.3438    2.6348    6.1159 C   0  0  0  0  0  0  0  0  0  0  0  0
   14.2922    2.4890    7.1085 C   0  0  0  0  0  0  0  0  0  0  0  0
   14.1475    1.4709    8.0620 C   0  0  0  0  0  0  0  0  0  0  0  0
   13.0536    0.5951    8.0069 C   0  0  0  0  0  0  0  0  0  0  0  0
   12.1195    0.7357    7.0000 C   0  0  0  0  0  0  0  0  0  0  0  0
   13.2979    3.7202    5.0697 C   0  0  0  0  0  0  0  0  0  0  0  0
   11.8326    4.5471    3.3336 C   0  0  0  0  0  0  0  0  0  0  0  0
   13.1223    2.5711    2.9528 C   0  0  0  0  0  0  0  0  0  0  0  0
   10.9368   -0.1646    6.7394 C   0  0  0  0  0  0  0  0  0  0  0  0
    9.0253    1.3080    6.6492 C   0  0  0  0  0  0  0  0  0  0  0  0
    9.1956   -0.5014    5.0971 C   0  0  0  0  0  0  0  0  0  0  0  0
   15.1417    1.3354    9.1026 C   0  0  0  0  0  0  0  0  0  0  0  0
   15.2193    0.4921   10.1722 C   0  0  0  0  0  0  0  0  0  0  0  0
   16.4259    0.8192   10.8547 C   0  0  0  0  0  0  0  0  0  0  0  0
   17.1281    0.4136   11.9593 C   0  0  0  0  0  0  0  0  0  0  0  0
   18.8266    2.1004   11.4536 C   0  0  0  0  0  0  0  0  0  0  0  0
   17.0072    1.8874   10.0997 C   0  0  0  0  0  0  0  0  0  0  0  0
   19.0344    0.6598   13.4322 C   0  0  0  0  0  0  0  0  0  0  0  0
   18.7667    1.6300   14.5866 C   0  0  0  0  0  0  0  0  0  0  0  0
   17.3172    1.6003   15.0643 C   0  0  0  0  0  0  0  0  0  0  0  0
   17.0970    2.5696   16.2243 C   0  0  0  0  0  0  0  0  0  0  0  0
   15.6351    2.6730   16.6600 C   0  0  0  0  0  0  0  0  0  0  0  0
   15.0983    1.3968   17.3051 C   0  0  0  0  0  0  0  0  0  0  0  0
   13.6807    1.5853   17.8407 C   0  0  0  0  0  0  0  0  0  0  0  0
   13.1424    0.3138   18.4854 C   0  0  0  0  0  0  0  0  0  0  0  0
   15.1433    3.1496    7.1735 H   0  0  0  0  0  0  0  0  0  0  0  0
   12.9554   -0.1878    8.7436 H   0  0  0  0  0  0  0  0  0  0  0  0
   14.2909    3.9556    4.6670 H   0  0  0  0  0  0  0  0  0  0  0  0
   12.9046    4.6283    5.5391 H   0  0  0  0  0  0  0  0  0  0  0  0
   11.2089    5.0832    4.0503 H   0  0  0  0  0  0  0  0  0  0  0  0
   11.2138    4.2734    2.4794 H   0  0  0  0  0  0  0  0  0  0  0  0
   12.6358    5.2084    2.9896 H   0  0  0  0  0  0  0  0  0  0  0  0
   13.5965    1.7095    3.4259 H   0  0  0  0  0  0  0  0  0  0  0  0
   13.8975    3.1896    2.4849 H   0  0  0  0  0  0  0  0  0  0  0  0
   12.4391    2.2225    2.1754 H   0  0  0  0  0  0  0  0  0  0  0  0
   10.4390   -0.4821    7.6646 H   0  0  0  0  0  0  0  0  0  0  0  0
   11.3000   -1.0638    6.2301 H   0  0  0  0  0  0  0  0  0  0  0  0
    9.5878    2.0120    7.2650 H   0  0  0  0  0  0  0  0  0  0  0  0
    8.4237    0.6658    7.3039 H   0  0  0  0  0  0  0  0  0  0  0  0
    8.3522    1.8640    5.9933 H   0  0  0  0  0  0  0  0  0  0  0  0
    9.8651   -1.0491    4.4325 H   0  0  0  0  0  0  0  0  0  0  0  0
    8.4335   -0.0148    4.4890 H   0  0  0  0  0  0  0  0  0  0  0  0
    8.7061   -1.2074    5.7776 H   0  0  0  0  0  0  0  0  0  0  0  0
   14.5184   -0.2655   10.4547 H   0  0  0  0  0  0  0  0  0  0  0  0
   16.7992   -0.3850   12.6119 H   0  0  0  0  0  0  0  0  0  0  0  0
   20.0942    0.7084   13.1691 H   0  0  0  0  0  0  0  0  0  0  0  0
   18.7697   -0.3614   13.7175 H   0  0  0  0  0  0  0  0  0  0  0  0
   19.4290    1.3628   15.4117 H   0  0  0  0  0  0  0  0  0  0  0  0
   19.0307    2.6353   14.2560 H   0  0  0  0  0  0  0  0  0  0  0  0
   17.0627    0.5857   15.3793 H   0  0  0  0  0  0  0  0  0  0  0  0
   16.6518    1.8766   14.2421 H   0  0  0  0  0  0  0  0  0  0  0  0
   17.7066    2.2585   17.0757 H   0  0  0  0  0  0  0  0  0  0  0  0
   17.4407    3.5600   15.9173 H   0  0  0  0  0  0  0  0  0  0  0  0
   15.5457    3.4901   17.3799 H   0  0  0  0  0  0  0  0  0  0  0  0
   15.0180    2.9292   15.7954 H   0  0  0  0  0  0  0  0  0  0  0  0
   15.7566    1.1044   18.1267 H   0  0  0  0  0  0  0  0  0  0  0  0
   15.0944    0.5845   16.5758 H   0  0  0  0  0  0  0  0  0  0  0  0
   13.6777    2.3930   18.5760 H   0  0  0  0  0  0  0  0  0  0  0  0
   13.0230    1.8836   17.0208 H   0  0  0  0  0  0  0  0  0  0  0  0
   12.1340    0.4717   18.8609 H   0  0  0  0  0  0  0  0  0  0  0  0
   13.7745    0.0114   19.3175 H   0  0  0  0  0  0  0  0  0  0  0  0
   13.1158   -0.4997   17.7634 H   0  0  0  0  0  0  0  0  0  0  0  0
  1  6  1  0  0  0  0
  1  9  1  0  0  0  0
  2  1  1  0  0  0  0
  4 21  1  0  0  0  0
  4 26  1  0  0  0  0
  5  1  1  0  0  0  0
  5 15  1  0  0  0  0
  6 19  1  0  0  0  0
  6 18  1  0  0  0  0
  7 27  1  0  0  0  0
  8 25  1  0  0  0  0
  9 10  2  0  0  0  0
  9 14  1  0  0  0  0
 10 11  1  0  0  0  0
 11 35  1  0  0  0  0
 11 12  2  0  0  0  0
 12 21  1  0  0  0  0
 13 12  1  0  0  0  0
 13 36  1  0  0  0  0
 14 13  2  0  0  0  0
 15 38  1  0  0  0  0
 15 10  1  0  0  0  0
 16  5  1  0  0  0  0
 16 39  1  0  0  0  0
 17 42  1  0  0  0  0
 17  5  1  0  0  0  0
 18 14  1  0  0  0  0
 18 45  1  0  0  0  0
 19 47  1  0  0  0  0
 19 48  1  0  0  0  0
 20 52  1  0  0  0  0
 20  6  1  0  0  0  0
 21 22  2  0  0  0  0
 22 53  1  0  0  0  0
 22 23  1  0  0  0  0
 23 24  2  0  0  0  0
 24  7  1  0  0  0  0
 24 54  1  0  0  0  0
 25  3  2  0  0  0  0
 25  7  1  0  0  0  0
 26  8  2  0  0  0  0
 26 23  1  0  0  0  0
 27 56  1  0  0  0  0
 27 28  1  0  0  0  0
 28 29  1  0  0  0  0
 28 57  1  0  0  0  0
 29 59  1  0  0  0  0
 29 30  1  0  0  0  0
 30 31  1  0  0  0  0
 30 61  1  0  0  0  0
 31 32  1  0  0  0  0
 31 63  1  0  0  0  0
 32 33  1  0  0  0  0
 32 65  1  0  0  0  0
 33 34  1  0  0  0  0
 33 67  1  0  0  0  0
 34 69  1  0  0  0  0
 34 70  1  0  0  0  0
 37 15  1  0  0  0  0
 40 16  1  0  0  0  0
 41 16  1  0  0  0  0
 43 17  1  0  0  0  0
 44 17  1  0  0  0  0
 46 18  1  0  0  0  0
 49 19  1  0  0  0  0
 50 20  1  0  0  0  0
 51 20  1  0  0  0  0
 55 27  1  0  0  0  0
 58 28  1  0  0  0  0
 60 29  1  0  0  0  0
 62 30  1  0  0  0  0
 64 31  1  0  0  0  0
 66 32  1  0  0  0  0
 68 33  1  0  0  0  0
 71 34  1  0  0  0  0
M  END
$$$$
