CSD_code = AQIYEF | q = 0 | S = 0 | Stoichiometry = C19H20AuClN2 | MND = 2
 OpenBabel04212202003D

 43 45  0  0  1  0  0  0  0  0999 V2000
   -3.2984    3.7588    5.7105 Au  0  0  0  0  0  0  0  0  0  0  0  0
   -5.4823    4.1897    5.9942 Cl  0  0  0  0  0  0  0  0  0  0  0  0
   -1.3552    3.3996    5.4279 C   0  0  2  0  0  3  0  0  0  0  0  0
   -0.2903    3.8454    6.1161 N   0  0  0  0  0  0  0  0  0  0  0  0
   -0.3421    4.7601    7.2310 C   0  0  0  0  0  0  0  0  0  0  0  0
    0.0455    6.1474    6.7779 C   0  0  0  0  0  0  0  0  0  0  0  0
   -0.7766    6.8286    5.8884 C   0  0  0  0  0  0  0  0  0  0  0  0
   -0.4204    8.0840    5.4317 C   0  0  0  0  0  0  0  0  0  0  0  0
    0.7597    8.6695    5.8606 C   0  0  0  0  0  0  0  0  0  0  0  0
    1.5808    7.9964    6.7482 C   0  0  0  0  0  0  0  0  0  0  0  0
    1.2272    6.7369    7.2021 C   0  0  0  0  0  0  0  0  0  0  0  0
    0.8692    3.3893    5.5491 C   0  0  0  0  0  0  0  0  0  0  0  0
    0.5137    2.6310    4.4851 C   0  0  0  0  0  0  0  0  0  0  0  0
   -0.8533    2.6537    4.4298 N   0  0  0  0  0  0  0  0  0  0  0  0
   -1.6452    1.9928    3.4520 C   0  0  0  0  0  0  0  0  0  0  0  0
   -2.0042    0.6614    3.6568 C   0  0  0  0  0  0  0  0  0  0  0  0
   -2.7755    0.0342    2.6921 C   0  0  0  0  0  0  0  0  0  0  0  0
   -3.1914    0.7036    1.5487 C   0  0  0  0  0  0  0  0  0  0  0  0
   -2.8217    2.0299    1.3775 C   0  0  0  0  0  0  0  0  0  0  0  0
   -2.0502    2.6944    2.3184 C   0  0  0  0  0  0  0  0  0  0  0  0
   -1.6879    4.1374    2.1465 C   0  0  0  0  0  0  0  0  0  0  0  0
   -4.0116   -0.0025    0.5143 C   0  0  0  0  0  0  0  0  0  0  0  0
   -1.5843   -0.0495    4.9067 C   0  0  0  0  0  0  0  0  0  0  0  0
   -1.3689    4.7576    7.6085 H   0  0  0  0  0  0  0  0  0  0  0  0
    0.3341    4.4085    8.0153 H   0  0  0  0  0  0  0  0  0  0  0  0
   -1.7005    6.3700    5.5636 H   0  0  0  0  0  0  0  0  0  0  0  0
   -1.0663    8.6074    4.7430 H   0  0  0  0  0  0  0  0  0  0  0  0
    1.0371    9.6506    5.5055 H   0  0  0  0  0  0  0  0  0  0  0  0
    2.4996    8.4507    7.0881 H   0  0  0  0  0  0  0  0  0  0  0  0
    1.8705    6.2152    7.8970 H   0  0  0  0  0  0  0  0  0  0  0  0
    1.8338    3.6383    5.9399 H   0  0  0  0  0  0  0  0  0  0  0  0
    1.1062    2.0902    3.7761 H   0  0  0  0  0  0  0  0  0  0  0  0
   -3.0670   -0.9955    2.8394 H   0  0  0  0  0  0  0  0  0  0  0  0
   -3.1484    2.5632    0.4968 H   0  0  0  0  0  0  0  0  0  0  0  0
   -1.9156    4.4717    1.1383 H   0  0  0  0  0  0  0  0  0  0  0  0
   -2.2615    4.7444    2.8482 H   0  0  0  0  0  0  0  0  0  0  0  0
   -0.6300    4.3081    2.3435 H   0  0  0  0  0  0  0  0  0  0  0  0
   -4.5770    0.7071   -0.0838 H   0  0  0  0  0  0  0  0  0  0  0  0
   -4.7021   -0.7008    0.9811 H   0  0  0  0  0  0  0  0  0  0  0  0
   -3.3610   -0.5685   -0.1533 H   0  0  0  0  0  0  0  0  0  0  0  0
   -1.9320   -1.0784    4.8965 H   0  0  0  0  0  0  0  0  0  0  0  0
   -2.0064    0.4510    5.7785 H   0  0  0  0  0  0  0  0  0  0  0  0
   -0.4994   -0.0492    5.0124 H   0  0  0  0  0  0  0  0  0  0  0  0
  1  2  1  0  0  0  0
  3  1  1  6  0  0  0
  3  4  1  0  0  0  0
  4  5  1  0  0  0  0
  5 24  1  0  0  0  0
  5 25  1  0  0  0  0
  6 11  1  0  0  0  0
  6  5  1  0  0  0  0
  7  6  2  0  0  0  0
  8  9  2  0  0  0  0
  8  7  1  0  0  0  0
  9 10  1  0  0  0  0
 10 29  1  0  0  0  0
 10 11  2  0  0  0  0
 11 30  1  0  0  0  0
 12 31  1  0  0  0  0
 12  4  1  0  0  0  0
 13 12  2  0  0  0  0
 14 13  1  0  0  0  0
 14  3  1  0  0  0  0
 15 16  1  0  0  0  0
 15 14  1  0  0  0  0
 16 23  1  0  0  0  0
 17 33  1  0  0  0  0
 17 16  2  0  0  0  0
 18 17  1  0  0  0  0
 19 18  2  0  0  0  0
 19 20  1  0  0  0  0
 20 15  2  0  0  0  0
 21 20  1  0  0  0  0
 21 37  1  0  0  0  0
 21 36  1  0  0  0  0
 22 39  1  0  0  0  0
 22 18  1  0  0  0  0
 23 43  1  0  0  0  0
 23 42  1  0  0  0  0
 26  7  1  0  0  0  0
 27  8  1  0  0  0  0
 28  9  1  0  0  0  0
 32 13  1  0  0  0  0
 34 19  1  0  0  0  0
 35 21  1  0  0  0  0
 38 22  1  0  0  0  0
 40 22  1  0  0  0  0
 41 23  1  0  0  0  0
M  END
$$$$
