CSD_code = AQOBOZ | q = 0 | S = 0 | Stoichiometry = C26H29ClIrN | MND = 8
 OpenBabel04212202003D

 58 64  0  0  1  0  0  0  0  0999 V2000
    8.5305    0.2044    8.3260 Ir  0  0  1  0  0  0  0  0  0  0  0  0
    6.8966   -1.4429    9.2277 Cl  0  0  0  0  0 15  0  0  0  0  0  0
    9.6339   -1.5423    8.5497 N   0  0  0  0  0  0  0  0  0  0  0  0
    6.9883   -0.3675    6.2134 C   0  0  0  0  0  0  0  0  0  0  0  0
    7.9521    0.4105    5.7072 C   0  0  0  0  0  0  0  0  0  0  0  0
    7.5522    1.8503    5.9795 C   0  0  1  0  0  0  0  0  0  0  0  0
    6.0251    1.7261    5.8317 C   0  0  0  0  0  0  0  0  0  0  0  0
    5.9495    0.5516    6.8245 C   0  0  2  0  0  0  0  0  0  0  0  0
    6.6386    1.2005    8.0280 C   0  0  2  0  0  0  0  0  0  0  0  0
    7.6509    2.0105    7.5077 C   0  0  0  0  0  3  0  0  0  0  0  0
    9.0429    0.9642   10.2240 C   0  0  2  0  0  0  0  0  0  0  0  0
    8.1868    2.0525   10.9205 C   0  0  2  0  0  0  0  0  0  0  0  0
    8.9404    3.3507   10.6286 C   0  0  0  0  0  0  0  0  0  0  0  0
   10.2623    2.8203   11.1867 C   0  0  1  0  0  0  0  0  0  0  0  0
    9.8011    2.3129   12.5285 C   0  0  0  0  0  0  0  0  0  0  0  0
    8.5641    1.8594   12.3733 C   0  0  0  0  0  0  0  0  0  0  0  0
   10.4704    1.5660   10.2968 C   0  0  2  0  0  0  0  0  0  0  0  0
   11.1590    0.8716   10.7836 H   0  0  0  0  0  0  0  0  0  0  0  0
   11.0255    1.9473    8.9158 C   0  0  1  0  0  0  0  0  0  0  0  0
   12.5146    1.5422    8.7530 C   0  0  2  0  0  0  0  0  0  0  0  0
   12.9537    2.1207    7.4339 C   0  0  0  0  0  0  0  0  0  0  0  0
   12.3528    1.4209    6.4799 C   0  0  0  0  0  0  0  0  0  0  0  0
   11.5017    0.3688    7.1528 C   0  0  1  0  0  0  0  0  0  0  0  0
   12.3763    0.0680    8.3715 C   0  0  0  0  0  0  0  0  0  0  0  0
   10.3296    1.2021    7.7450 C   0  0  1  0  0  0  0  0  0  0  0  0
    9.6314   -2.2898    7.4445 C   0  0  0  0  0  3  0  0  0  0  0  0
   10.0236   -3.6151    7.4202 C   0  0  0  0  0  0  0  0  0  0  0  0
   10.4514   -4.2118    8.5945 C   0  0  0  0  0  0  0  0  0  0  0  0
   10.4678   -3.4379    9.7425 C   0  0  0  0  0  0  0  0  0  0  0  0
   10.7892   -3.8479   10.6866 H   0  0  0  0  0  0  0  0  0  0  0  0
   10.0537   -2.1200    9.6747 C   0  0  0  0  0  0  0  0  0  0  0  0
    6.8861   -1.4374    6.1917 H   0  0  0  0  0  0  0  0  0  0  0  0
    8.8327    0.1351    5.1531 H   0  0  0  0  0  0  0  0  0  0  0  0
    8.0586    2.6089    5.3885 H   0  0  0  0  0  0  0  0  0  0  0  0
    5.4856    2.6107    6.1676 H   0  0  0  0  0  0  0  0  0  0  0  0
    5.7075    1.4599    4.8225 H   0  0  0  0  0  0  0  0  0  0  0  0
    4.9824    0.1033    7.0282 H   0  0  0  0  0  0  0  0  0  0  0  0
    6.0807    1.3598    8.9373 H   0  0  0  0  0  0  0  0  0  0  0  0
    7.9650    2.9567    7.9220 H   0  0  0  0  0  0  0  0  0  0  0  0
    8.9626    0.0711   10.8529 H   0  0  0  0  0  0  0  0  0  0  0  0
    7.1224    2.0267   10.7174 H   0  0  0  0  0  0  0  0  0  0  0  0
    8.5514    4.1929   11.1998 H   0  0  0  0  0  0  0  0  0  0  0  0
    8.9875    3.6102    9.5765 H   0  0  0  0  0  0  0  0  0  0  0  0
   11.1125    3.4988   11.1968 H   0  0  0  0  0  0  0  0  0  0  0  0
   10.4167    2.2877   13.4093 H   0  0  0  0  0  0  0  0  0  0  0  0
    7.9387    1.3602   13.0903 H   0  0  0  0  0  0  0  0  0  0  0  0
   10.9292    3.0266    8.7821 H   0  0  0  0  0  0  0  0  0  0  0  0
   13.1366    1.7823    9.6126 H   0  0  0  0  0  0  0  0  0  0  0  0
   13.5810    2.9873    7.3310 H   0  0  0  0  0  0  0  0  0  0  0  0
   12.3699    1.5910    5.4179 H   0  0  0  0  0  0  0  0  0  0  0  0
   11.2312   -0.4717    6.5175 H   0  0  0  0  0  0  0  0  0  0  0  0
   11.8898   -0.5324    9.1342 H   0  0  0  0  0  0  0  0  0  0  0  0
   13.3290   -0.3872    8.0981 H   0  0  0  0  0  0  0  0  0  0  0  0
   10.0722    1.9370    6.9786 H   0  0  0  0  0  0  0  0  0  0  0  0
    9.2868   -1.8221    6.5329 H   0  0  0  0  0  0  0  0  0  0  0  0
    9.9856   -4.1677    6.4945 H   0  0  0  0  0  0  0  0  0  0  0  0
   10.7565   -5.2466    8.6141 H   0  0  0  0  0  0  0  0  0  0  0  0
   10.0497   -1.5149   10.5687 H   0  0  0  0  0  0  0  0  0  0  0  0
  1  3  1  6  0  0  0
  1 11  1  0  0  0  0
  3 31  1  0  0  0  0
  4  8  1  0  0  0  0
  5  6  1  0  0  0  0
  5  4  2  0  0  0  0
  6 34  1  6  0  0  0
  6 10  1  0  0  0  0
  7  6  1  0  0  0  0
  7 35  1  0  0  0  0
  7  8  1  0  0  0  0
  8 37  1  1  0  0  0
  8  9  1  0  0  0  0
  9  1  1  0  0  0  0
  9 38  1  1  0  0  0
 10 39  1  0  0  0  0
 10  9  1  0  0  0  0
 11 17  1  0  0  0  0
 11 40  1  1  0  0  0
 11 12  1  0  0  0  0
 12 41  1  6  0  0  0
 12 16  1  0  0  0  0
 13 12  1  0  0  0  0
 13 14  1  0  0  0  0
 13 42  1  0  0  0  0
 14 44  1  1  0  0  0
 14 15  1  0  0  0  0
 15 45  1  0  0  0  0
 16 15  2  0  0  0  0
 16 46  1  0  0  0  0
 17 18  1  1  0  0  0
 17 14  1  0  0  0  0
 19 47  1  6  0  0  0
 19 17  1  0  0  0  0
 20 19  1  0  0  0  0
 20 48  1  1  0  0  0
 21 20  1  0  0  0  0
 22 23  1  0  0  0  0
 22 21  2  0  0  0  0
 23 51  1  6  0  0  0
 23 25  1  0  0  0  0
 23 24  1  0  0  0  0
 24 20  1  0  0  0  0
 24 52  1  0  0  0  0
 25 54  1  6  0  0  0
 25  1  1  0  0  0  0
 25 19  1  0  0  0  0
 26  3  1  0  0  0  0
 27 26  1  0  0  0  0
 27 28  2  0  0  0  0
 28 57  1  0  0  0  0
 28 29  1  0  0  0  0
 29 30  1  0  0  0  0
 31 29  2  0  0  0  0
 31 58  1  0  0  0  0
 32  4  1  0  0  0  0
 33  5  1  0  0  0  0
 36  7  1  0  0  0  0
 43 13  1  0  0  0  0
 49 21  1  0  0  0  0
 50 22  1  0  0  0  0
 53 24  1  0  0  0  0
 55 26  1  0  0  0  0
 56 27  1  0  0  0  0
M  END
$$$$
