CSD_code = AQOYIQ | q = 0 | S = 0 | Stoichiometry = C11H10ClI2NO2PtS | MND = 4
 OpenBabel04212202003D

 29 31  0  0  1  0  0  0  0  0999 V2000
   10.4192    6.1504   13.8307 Pt  0  0  1  0  0  0  0  0  0  0  0  0
    8.9370    4.5618   18.5197 I   0  0  0  0  0  0  0  0  0  0  0  0
   12.8793    8.8635   20.0538 I   0  0  0  0  0  0  0  0  0  0  0  0
    9.0493    4.6786   12.8693 Cl  0  0  0  0  0  0  0  0  0  0  0  0
    9.8821    5.5682   15.6963 O   0  0  0  0  0  0  0  0  0  0  0  0
   10.3102    6.0501   17.9666 C   0  0  0  0  0  0  0  0  0  0  0  0
   11.9244    7.7696   11.5191 O   0  0  0  0  0  1  0  0  0  0  0  0
   11.8879    7.7701   18.5377 C   0  0  0  0  0  0  0  0  0  0  0  0
   12.1446    8.0358   17.1794 C   0  0  0  0  0  0  0  0  0  0  0  0
   11.4375    7.2600   16.2218 C   0  0  1  0  0  3  0  0  0  0  0  0
   10.5052    6.2513   16.6035 C   0  0  0  0  0  0  0  0  0  0  0  0
   11.6021    7.4276   14.8829 N   0  0  0  0  0  0  0  0  0  0  0  0
   10.9912    6.7989   18.9174 C   0  0  0  0  0  0  0  0  0  0  0  0
   10.8078    6.6092   19.9640 H   0  0  0  0  0  0  0  0  0  0  0  0
   12.4460    8.3373   14.4450 C   0  0  0  0  0  0  0  0  0  0  0  0
   12.5501    8.4401   13.3732 H   0  0  0  0  0  0  0  0  0  0  0  0
   13.0380    9.0003   16.6737 C   0  0  0  0  0  0  0  0  0  0  0  0
   13.6006    9.6177   17.3579 H   0  0  0  0  0  0  0  0  0  0  0  0
   11.4730    5.2970   10.7179 C   0  0  0  0  0  0  0  0  0  0  0  0
   12.3900    4.9136   11.1532 H   0  0  0  0  0  0  0  0  0  0  0  0
   10.6900    4.5490   10.7623 H   0  0  0  0  0  0  0  0  0  0  0  0
   11.6559    5.6372    9.7052 H   0  0  0  0  0  0  0  0  0  0  0  0
    9.4644    7.1966   10.7576 C   0  0  0  0  0  0  0  0  0  0  0  0
    8.7533    6.3809   10.8190 H   0  0  0  0  0  0  0  0  0  0  0  0
    9.0534    8.0949   11.2067 H   0  0  0  0  0  0  0  0  0  0  0  0
    9.7671    7.3968    9.7363 H   0  0  0  0  0  0  0  0  0  0  0  0
   13.1840    9.1451   15.3190 C   0  0  0  0  0  0  0  0  0  0  0  0
   13.8620    9.8761   14.9097 H   0  0  0  0  0  0  0  0  0  0  0  0
   10.9326    6.7169   11.7092 S   0  0  0  0  0  0  0  0  0  0  0  0
  1  4  1  6  0  0  0
  1 12  1  0  0  0  0
  1  5  1  0  0  0  0
  5 11  1  0  0  0  0
  6  2  1  0  0  0  0
  6 13  1  0  0  0  0
  7 29  1  0  0  0  0
  8 13  2  0  0  0  0
  8  3  1  0  0  0  0
  9  8  1  0  0  0  0
 10 11  1  6  0  0  0
 10  9  1  0  0  0  0
 11  6  2  0  0  0  0
 12 10  1  0  0  0  0
 13 14  1  0  0  0  0
 15 12  1  0  0  0  0
 15 27  2  0  0  0  0
 16 15  1  0  0  0  0
 17  9  2  0  0  0  0
 17 18  1  0  0  0  0
 19 21  1  0  0  0  0
 19 20  1  0  0  0  0
 19 29  1  0  0  0  0
 22 19  1  0  0  0  0
 23 24  1  0  0  0  0
 23 25  1  0  0  0  0
 23 29  1  0  0  0  0
 26 23  1  0  0  0  0
 27 17  1  0  0  0  0
 28 27  1  0  0  0  0
 29  1  1  0  0  0  0
M  END
$$$$
