CSD_code = AQUHEZ | q = 0 | S = 0 | Stoichiometry = C16H32B14Br2P2Pt | MND = 4
 OpenBabel04212202003D

 67 72  0  0  1  0  0  0  0  0999 V2000
    7.5943    4.1267    5.5107 Pt  0  0  0  0  0  0  0  0  0  0  0  0
    8.0527    5.2061    7.6955 Br  0  0  0  0  0  0  0  0  0  0  0  0
   10.0193    3.7932    5.1654 Br  0  0  0  0  0  0  0  0  0  0  0  0
    7.3485    3.7520    3.2389 P   0  0  1  0  0  0  0  0  0  0  0  0
    8.0387    1.4174    1.2128 B   0  0  1  0  0  0  0  0  0  0  0  0
    7.2112    0.3530    2.3771 B   0  0  0  0  0  0  0  0  0  0  0  0
    6.2917    1.4803    1.3543 B   0  0  2  0  0  0  0  0  0  0  0  0
    7.2288    2.9128    1.1712 B   0  0  1  0  0  0  0  0  0  0  0  0
    8.6409    1.2108    2.8649 B   0  0  0  0  0  0  0  0  0  0  0  0
    7.3330    0.7600    4.1424 B   0  0  0  0  0  0  0  0  0  0  0  0
    5.7672    1.3827    3.0504 B   0  0  0  0  0  0  0  0  0  0  0  0
    5.9802    2.8664    2.3698 C   0  0  1  0  0  0  0  0  0  0  0  0
    8.5387    2.7212    2.2642 C   0  0  1  0  0  0  0  0  0  0  0  0
    7.4146    5.4516    2.5426 C   0  0  0  0  0  0  0  0  0  0  0  0
    8.4953    6.2483    2.9156 C   0  0  0  0  0  0  0  0  0  0  0  0
    9.2766    5.8438    3.5432 H   0  0  0  0  0  0  0  0  0  0  0  0
    8.5937    7.5559    2.4762 C   0  0  0  0  0  0  0  0  0  0  0  0
    9.4417    8.1554    2.7704 H   0  0  0  0  0  0  0  0  0  0  0  0
    7.6084    8.0900    1.6643 C   0  0  0  0  0  0  0  0  0  0  0  0
    7.6816    9.1104    1.3195 H   0  0  0  0  0  0  0  0  0  0  0  0
    6.5261    7.3092    1.2948 C   0  0  0  0  0  0  0  0  0  0  0  0
    5.7543    7.7186    0.6599 H   0  0  0  0  0  0  0  0  0  0  0  0
    6.4252    6.0026    1.7342 C   0  0  0  0  0  0  0  0  0  0  0  0
    5.5722    5.4146    1.4296 H   0  0  0  0  0  0  0  0  0  0  0  0
    5.3558    4.5019    5.9337 P   0  0  1  0  0  0  0  0  0  0  0  0
    2.8731    2.7610    6.8533 B   0  0  1  0  0  0  0  0  0  0  0  0
    3.9595    2.1431    8.1273 B   0  0  0  0  0  0  0  0  0  0  0  0
    3.3145    3.7898    8.2117 B   0  0  2  0  0  0  0  0  0  0  0  0
    3.2314    4.4075    6.6077 B   0  0  1  0  0  0  0  0  0  0  0  0
    4.3462    1.8686    6.4704 B   0  0  0  0  0  0  0  0  0  0  0  0
    5.7441    1.9843    7.7316 B   0  0  0  0  0  0  0  0  0  0  0  0
    5.0207    3.6281    8.6619 B   0  0  0  0  0  0  0  0  0  0  0  0
    4.5958    4.8018    7.5877 C   0  0  1  0  0  0  0  0  0  0  0  0
    4.0346    3.2341    5.6359 C   0  0  1  0  0  0  0  0  0  0  0  0
    4.9671    6.0120    4.9696 C   0  0  0  0  0  0  0  0  0  0  0  0
    4.0254    6.0844    3.9491 C   0  0  0  0  0  0  0  0  0  0  0  0
    3.4259    5.2203    3.6977 H   0  0  0  0  0  0  0  0  0  0  0  0
    3.8291    7.2702    3.2653 C   0  0  0  0  0  0  0  0  0  0  0  0
    3.0844    7.3210    2.4843 H   0  0  0  0  0  0  0  0  0  0  0  0
    4.5829    8.3892    3.5783 C   0  0  0  0  0  0  0  0  0  0  0  0
    4.4237    9.3138    3.0448 H   0  0  0  0  0  0  0  0  0  0  0  0
    5.5433    8.3185    4.5732 C   0  0  0  0  0  0  0  0  0  0  0  0
    6.1405    9.1844    4.8151 H   0  0  0  0  0  0  0  0  0  0  0  0
    5.7371    7.1356    5.2617 C   0  0  0  0  0  0  0  0  0  0  0  0
    6.4844    7.0858    6.0426 H   0  0  0  0  0  0  0  0  0  0  0  0
    8.7364    1.1309    0.3194 H   0  0  0  0  0  0  0  0  0  0  0  0
    7.1186   -0.7987    2.1726 H   0  0  0  0  0  0  0  0  0  0  0  0
    5.4740    1.2241    0.5549 H   0  0  0  0  0  0  0  0  0  0  0  0
    7.2298    3.7283    0.3333 H   0  0  0  0  0  0  0  0  0  0  0  0
    5.0791    3.4425    2.1757 H   0  0  0  0  0  0  0  0  0  0  0  0
    9.4774    3.2262    2.0507 H   0  0  0  0  0  0  0  0  0  0  0  0
    9.7051    0.7865    3.1053 H   0  0  0  0  0  0  0  0  0  0  0  0
    7.2061   -0.2406    4.7486 H   0  0  0  0  0  0  0  0  0  0  0  0
    4.6674    0.9702    3.1635 H   0  0  0  0  0  0  0  0  0  0  0  0
    8.0109    1.5248    4.7673 H   0  0  0  0  0  0  0  0  0  0  0  0
    6.2138    1.4273    4.2539 H   0  0  0  0  0  0  0  0  0  0  0  0
    1.8400    2.3447    6.4943 H   0  0  0  0  0  0  0  0  0  0  0  0
    3.5933    1.3348    8.8944 H   0  0  0  0  0  0  0  0  0  0  0  0
    2.6193    4.2601    9.0282 H   0  0  0  0  0  0  0  0  0  0  0  0
    2.5599    5.2518    6.1561 H   0  0  0  0  0  0  0  0  0  0  0  0
    4.6682    5.8269    7.9418 H   0  0  0  0  0  0  0  0  0  0  0  0
    3.7420    3.1118    4.5960 H   0  0  0  0  0  0  0  0  0  0  0  0
    4.3421    0.8549    5.8805 H   0  0  0  0  0  0  0  0  0  0  0  0
    6.1540    1.0999    8.3918 H   0  0  0  0  0  0  0  0  0  0  0  0
    5.2223    3.9325    9.7811 H   0  0  0  0  0  0  0  0  0  0  0  0
    6.4277    2.1085    6.7503 H   0  0  0  0  0  0  0  0  0  0  0  0
    6.1238    3.0934    8.2994 H   0  0  0  0  0  0  0  0  0  0  0  0
  1  2  1  0  0  0  0
  3  1  1  0  0  0  0
  4  1  1  1  0  0  0
  5 46  1  6  0  0  0
  5  7  1  0  0  0  0
  5 13  1  0  0  0  0
  6  9  1  0  0  0  0
  6 10  1  0  0  0  0
  7 48  1  6  0  0  0
  7 12  1  0  0  0  0
  8 49  1  6  0  0  0
  8  5  1  0  0  0  0
  8  7  1  0  0  0  0
  8 13  1  0  0  0  0
  9 52  1  0  0  0  0
 10 53  1  0  0  0  0
 10 55  1  0  0  0  0
 11 54  1  0  0  0  0
 11 56  1  0  0  0  0
 12 50  1  6  0  0  0
 12 11  1  0  0  0  0
 12  4  1  0  0  0  0
 13 51  1  6  0  0  0
 13  9  1  0  0  0  0
 14 15  1  0  0  0  0
 14  4  1  0  0  0  0
 15 16  1  0  0  0  0
 17 18  1  0  0  0  0
 17 15  2  0  0  0  0
 19 17  1  0  0  0  0
 20 19  1  0  0  0  0
 21 19  2  0  0  0  0
 21 23  1  0  0  0  0
 22 21  1  0  0  0  0
 23 14  2  0  0  0  0
 24 23  1  0  0  0  0
 25  1  1  1  0  0  0
 25 33  1  0  0  0  0
 26 57  1  6  0  0  0
 26 28  1  0  0  0  0
 27 58  1  0  0  0  0
 28 59  1  1  0  0  0
 29 60  1  6  0  0  0
 29 26  1  0  0  0  0
 29 28  1  0  0  0  0
 30 27  1  0  0  0  0
 31 27  1  0  0  0  0
 31 64  1  0  0  0  0
 32 65  1  0  0  0  0
 33 61  1  1  0  0  0
 33 28  1  0  0  0  0
 33 32  1  0  0  0  0
 34 62  1  6  0  0  0
 34 30  1  0  0  0  0
 34 29  1  0  0  0  0
 34 26  1  0  0  0  0
 35 44  1  0  0  0  0
 35 25  1  0  0  0  0
 36 35  2  0  0  0  0
 37 36  1  0  0  0  0
 38 40  2  0  0  0  0
 38 36  1  0  0  0  0
 39 38  1  0  0  0  0
 40 42  1  0  0  0  0
 41 40  1  0  0  0  0
 42 43  1  0  0  0  0
 42 44  2  0  0  0  0
 44 45  1  0  0  0  0
 47  6  1  0  0  0  0
 63 30  1  0  0  0  0
 66 31  1  0  0  0  0
 67 32  1  0  0  0  0
M  END
$$$$
