CSD_code = AQUROT | q = 0 | S = 0 | Stoichiometry = C8H21Cl2NO3RuS3 | MND = 6
 OpenBabel04212202003D

 39 38  0  0  0  0  0  0  0  0999 V2000
    6.2725    8.2363    9.3393 Ru  0  0  0  0  0  0  0  0  0  0  0  0
    6.3814    7.6682    7.0519 Cl  0  0  0  0  0  0  0  0  0  0  0  0
    7.0914    6.1479   10.0562 Cl  0  0  0  0  0  0  0  0  0  0  0  0
    6.1437    8.9051   11.5105 S   0  0  0  0  0  0  0  0  0  0  0  0
    4.7939    8.9380   12.0376 O   0  0  0  0  0  1  0  0  0  0  0  0
    5.4464   10.2085    8.5154 S   0  0  0  0  0  0  0  0  0  0  0  0
    5.1363   11.2201    9.5147 O   0  0  0  0  0  1  0  0  0  0  0  0
    4.2410    7.1968    9.4386 S   0  0  0  0  0  0  0  0  0  0  0  0
    3.0934    8.0430    9.1577 O   0  0  0  0  0  1  0  0  0  0  0  0
    8.1374    8.7967    9.1695 N   0  0  0  0  0  2  0  0  0  0  0  0
    9.2279    8.6184    8.8422 C   0  0  0  0  0  2  0  0  0  0  0  0
   10.5878    8.4266    8.4461 C   0  0  0  0  0  0  0  0  0  0  0  0
   10.6753    8.5942    7.3728 H   0  0  0  0  0  0  0  0  0  0  0  0
   10.8755    7.3992    8.6701 H   0  0  0  0  0  0  0  0  0  0  0  0
   11.2436    9.1145    8.9797 H   0  0  0  0  0  0  0  0  0  0  0  0
    7.1398    7.9502   12.7029 C   0  0  0  0  0  0  0  0  0  0  0  0
    6.8405    6.9100   12.6301 H   0  0  0  0  0  0  0  0  0  0  0  0
    6.9505    8.3376   13.6969 H   0  0  0  0  0  0  0  0  0  0  0  0
    8.1815    8.0471   12.4200 H   0  0  0  0  0  0  0  0  0  0  0  0
    6.8942   10.5266   11.8505 C   0  0  0  0  0  0  0  0  0  0  0  0
    6.3320   11.2536   11.2720 H   0  0  0  0  0  0  0  0  0  0  0  0
    7.9304   10.4920   11.5320 H   0  0  0  0  0  0  0  0  0  0  0  0
    6.8065   10.7355   12.9098 H   0  0  0  0  0  0  0  0  0  0  0  0
    6.6738   10.9762    7.3995 C   0  0  0  0  0  0  0  0  0  0  0  0
    7.5473   11.2288    7.9925 H   0  0  0  0  0  0  0  0  0  0  0  0
    6.2444   11.8706    6.9641 H   0  0  0  0  0  0  0  0  0  0  0  0
    6.9221   10.2392    6.6432 H   0  0  0  0  0  0  0  0  0  0  0  0
    4.0774   10.1610    7.3347 C   0  0  0  0  0  0  0  0  0  0  0  0
    3.2322    9.7061    7.8412 H   0  0  0  0  0  0  0  0  0  0  0  0
    4.3960    9.5493    6.4982 H   0  0  0  0  0  0  0  0  0  0  0  0
    3.8527   11.1791    7.0403 H   0  0  0  0  0  0  0  0  0  0  0  0
    4.1368    5.7804    8.3054 C   0  0  0  0  0  0  0  0  0  0  0  0
    4.2369    6.1529    7.2908 H   0  0  0  0  0  0  0  0  0  0  0  0
    3.1766    5.2977    8.4442 H   0  0  0  0  0  0  0  0  0  0  0  0
    4.9634    5.1182    8.5411 H   0  0  0  0  0  0  0  0  0  0  0  0
    3.8695    6.2873   10.9635 C   0  0  0  0  0  0  0  0  0  0  0  0
    3.7982    7.0166   11.7635 H   0  0  0  0  0  0  0  0  0  0  0  0
    4.6809    5.5889   11.1367 H   0  0  0  0  0  0  0  0  0  0  0  0
    2.9216    5.7809   10.8254 H   0  0  0  0  0  0  0  0  0  0  0  0
  1  8  1  0  0  0  0
  1  3  1  0  0  0  0
  1  4  1  0  0  0  0
  2  1  1  0  0  0  0
  4 20  1  0  0  0  0
  4  5  1  0  0  0  0
  4 16  1  0  0  0  0
  6  1  1  0  0  0  0
  6  7  1  0  0  0  0
  8 36  1  0  0  0  0
  9  8  1  0  0  0  0
 10  1  1  0  0  0  0
 11 10  1  0  0  0  0
 12 14  1  0  0  0  0
 12 11  1  0  0  0  0
 12 15  1  0  0  0  0
 13 12  1  0  0  0  0
 16 18  1  0  0  0  0
 17 16  1  0  0  0  0
 19 16  1  0  0  0  0
 20 23  1  0  0  0  0
 21 20  1  0  0  0  0
 22 20  1  0  0  0  0
 24 25  1  0  0  0  0
 24  6  1  0  0  0  0
 26 24  1  0  0  0  0
 27 24  1  0  0  0  0
 28 29  1  0  0  0  0
 28  6  1  0  0  0  0
 30 28  1  0  0  0  0
 31 28  1  0  0  0  0
 32 34  1  0  0  0  0
 32 35  1  0  0  0  0
 32  8  1  0  0  0  0
 33 32  1  0  0  0  0
 36 38  1  0  0  0  0
 36 37  1  0  0  0  0
 39 36  1  0  0  0  0
M  END
$$$$
