CSD_code = AQUSEL | q = 0 | S = 0 | Stoichiometry = C26H24ClCuN3PS2 | MND = 3
 OpenBabel04212202003D

 58 62  0  0  0  0  0  0  0  0999 V2000
    9.6649    8.2063    3.8928 Cu  0  0  2  0  0  0  0  0  0  0  0  0
    7.9516    8.9792    2.6857 P   0  0  0  0  0  4  0  0  0  0  0  0
    9.8522    6.2387    3.1068 S   0  0  0  0  0  0  0  0  0  0  0  0
   14.5594    8.0360    7.0963 S   0  0  0  0  0  0  0  0  0  0  0  0
    9.5460   10.2520    4.5101 Cl  0  0  0  0  0  0  0  0  0  0  0  0
   11.4240    6.3891    3.9552 C   0  0  0  0  0  0  0  0  0  0  0  0
   12.1018    7.8262    5.6124 N   0  0  0  0  0  0  0  0  0  0  0  0
   11.3523    7.6116    4.5691 N   0  0  0  0  0  0  0  0  0  0  0  0
   12.3745    5.5788    4.0217 N   0  0  0  0  0  0  0  0  0  0  0  0
   11.8554    8.3775    6.7360 C   0  0  0  0  0  0  0  0  0  0  0  0
   12.9884    8.5806    7.6007 C   0  0  0  0  0  0  0  0  0  0  0  0
    8.5730   10.2925    1.6162 C   0  0  0  0  0  0  0  0  0  0  0  0
    7.1089    7.8333    1.5397 C   0  0  0  0  0  0  0  0  0  0  0  0
    6.5177    9.6056    3.5963 C   0  0  0  0  0  0  0  0  0  0  0  0
   10.1116   10.8622   -0.1374 C   0  0  0  0  0  0  0  0  0  0  0  0
   10.8564   10.5702   -0.8629 H   0  0  0  0  0  0  0  0  0  0  0  0
    9.5324    9.9102    0.6795 C   0  0  0  0  0  0  0  0  0  0  0  0
    9.8179    8.8665    0.6095 H   0  0  0  0  0  0  0  0  0  0  0  0
    9.7416   12.1928   -0.0143 C   0  0  0  0  0  0  0  0  0  0  0  0
   10.1969   12.9380   -0.6496 H   0  0  0  0  0  0  0  0  0  0  0  0
    5.4749   10.1920    2.8833 C   0  0  0  0  0  0  0  0  0  0  0  0
    5.5507   10.2966    1.8090 H   0  0  0  0  0  0  0  0  0  0  0  0
    8.8024   12.5728    0.9311 C   0  0  0  0  0  0  0  0  0  0  0  0
    8.5305   13.6128    1.0346 H   0  0  0  0  0  0  0  0  0  0  0  0
    6.6596    6.6478    2.1163 C   0  0  0  0  0  0  0  0  0  0  0  0
    6.8499    6.4711    3.1682 H   0  0  0  0  0  0  0  0  0  0  0  0
    6.4173    9.4332    4.9705 C   0  0  0  0  0  0  0  0  0  0  0  0
    7.2325    8.9705    5.5097 H   0  0  0  0  0  0  0  0  0  0  0  0
    8.2183   11.6281    1.7561 C   0  0  0  0  0  0  0  0  0  0  0  0
    7.5086   11.9225    2.5156 H   0  0  0  0  0  0  0  0  0  0  0  0
   13.0452    9.1845    8.8316 C   0  0  0  0  0  0  0  0  0  0  0  0
   12.1925    9.6096    9.3291 H   0  0  0  0  0  0  0  0  0  0  0  0
    6.8939    8.0758    0.1889 C   0  0  0  0  0  0  0  0  0  0  0  0
    7.2432    8.9931   -0.2648 H   0  0  0  0  0  0  0  0  0  0  0  0
    6.2278    7.1331   -0.5745 C   0  0  0  0  0  0  0  0  0  0  0  0
    6.0594    7.3196   -1.6252 H   0  0  0  0  0  0  0  0  0  0  0  0
    5.7824    5.9543    0.0003 C   0  0  0  0  0  0  0  0  0  0  0  0
    5.2706    5.2209   -0.6050 H   0  0  0  0  0  0  0  0  0  0  0  0
   15.2590    8.6214    8.5508 C   0  0  0  0  0  0  0  0  0  0  0  0
   16.3110    8.5004    8.7172 H   0  0  0  0  0  0  0  0  0  0  0  0
    5.9972    5.7111    1.3482 C   0  0  0  0  0  0  0  0  0  0  0  0
    5.6551    4.7896    1.7948 H   0  0  0  0  0  0  0  0  0  0  0  0
   14.3437    9.2044    9.3715 C   0  0  0  0  0  0  0  0  0  0  0  0
   14.5855    9.6342   10.3272 H   0  0  0  0  0  0  0  0  0  0  0  0
    4.3520   10.6338    3.5565 C   0  0  0  0  0  0  0  0  0  0  0  0
    3.5456   11.0986    3.0086 H   0  0  0  0  0  0  0  0  0  0  0  0
    4.2587   10.4772    4.9312 C   0  0  0  0  0  0  0  0  0  0  0  0
    3.3791   10.8241    5.4527 H   0  0  0  0  0  0  0  0  0  0  0  0
    5.2867    9.8732    5.6358 C   0  0  0  0  0  0  0  0  0  0  0  0
    5.2083    9.7451    6.7050 H   0  0  0  0  0  0  0  0  0  0  0  0
   12.3326    4.3300    3.3365 C   0  0  0  0  0  0  0  0  0  0  0  0
   12.2971    3.5268    4.0747 H   0  0  0  0  0  0  0  0  0  0  0  0
   13.2492    4.2242    2.7552 H   0  0  0  0  0  0  0  0  0  0  0  0
   11.4570    4.2467    2.6781 H   0  0  0  0  0  0  0  0  0  0  0  0
   10.4919    8.7749    7.2205 C   0  0  0  0  0  0  0  0  0  0  0  0
    9.7324    8.2452    6.6431 H   0  0  0  0  0  0  0  0  0  0  0  0
   10.3339    9.8443    7.0882 H   0  0  0  0  0  0  0  0  0  0  0  0
   10.3828    8.5226    8.2722 H   0  0  0  0  0  0  0  0  0  0  0  0
  1  5  1  1  0  0  0
  1  8  1  0  0  0  0
  2 14  1  0  0  0  0
  2  1  1  0  0  0  0
  3  1  1  0  0  0  0
  3  6  1  0  0  0  0
  4 11  1  0  0  0  0
  4 39  1  0  0  0  0
  6  9  2  0  0  0  0
  6  8  1  0  0  0  0
  7 10  2  0  0  0  0
  8  7  1  0  0  0  0
 10 55  1  0  0  0  0
 10 11  1  0  0  0  0
 11 31  2  0  0  0  0
 12 29  1  0  0  0  0
 12  2  1  0  0  0  0
 13 25  1  0  0  0  0
 13  2  1  0  0  0  0
 14 27  1  0  0  0  0
 15 19  2  0  0  0  0
 15 17  1  0  0  0  0
 16 15  1  0  0  0  0
 17 12  2  0  0  0  0
 18 17  1  0  0  0  0
 19 23  1  0  0  0  0
 20 19  1  0  0  0  0
 21 45  1  0  0  0  0
 21 14  2  0  0  0  0
 22 21  1  0  0  0  0
 23 24  1  0  0  0  0
 23 29  2  0  0  0  0
 25 26  1  0  0  0  0
 27 28  1  0  0  0  0
 27 49  2  0  0  0  0
 29 30  1  0  0  0  0
 31 32  1  0  0  0  0
 31 43  1  0  0  0  0
 33 13  2  0  0  0  0
 34 33  1  0  0  0  0
 35 37  2  0  0  0  0
 35 33  1  0  0  0  0
 36 35  1  0  0  0  0
 37 41  1  0  0  0  0
 38 37  1  0  0  0  0
 39 40  1  0  0  0  0
 39 43  2  0  0  0  0
 41 42  1  0  0  0  0
 41 25  2  0  0  0  0
 43 44  1  0  0  0  0
 45 47  2  0  0  0  0
 46 45  1  0  0  0  0
 47 48  1  0  0  0  0
 47 49  1  0  0  0  0
 49 50  1  0  0  0  0
 51  9  1  0  0  0  0
 51 52  1  0  0  0  0
 53 51  1  0  0  0  0
 54 51  1  0  0  0  0
 55 58  1  0  0  0  0
 56 55  1  0  0  0  0
 57 55  1  0  0  0  0
M  END
$$$$
