CSD_code = AQUVIR | q = 0 | S = 0 | Stoichiometry = C11H19I2N4O2Rh | MND = 6
 OpenBabel04212202003D

 39 41  0  0  0  0  0  0  0  0999 V2000
    2.0958    0.5322   -7.4264 I   0  0  0  0  0  0  0  0  0  0  0  0
    3.8039    1.6557   -5.7014 Rh  0  0  0  0  0  0  0  0  0  0  0  0
    5.5381    2.7710   -3.9971 I   0  0  0  0  0  0  0  0  0  0  0  0
    3.4931    0.1920   -4.3441 N   0  0  0  0  0  0  0  0  0  0  0  0
    4.1216    3.0649   -6.9737 N   0  0  0  0  0  0  0  0  0  0  0  0
    2.2998    2.3903   -4.7055 N   0  0  0  0  0  0  0  0  0  0  0  0
    5.3425    0.8837   -6.6721 N   0  0  0  0  0  0  0  0  0  0  0  0
    3.3780    4.0922   -6.9640 O   0  0  0  0  0  1  0  0  0  0  0  0
    1.7344    3.5697   -5.0095 O   0  0  0  0  0  0  0  0  0  0  0  0
    4.3613   -0.9532   -4.2718 C   0  0  0  0  0  0  0  0  0  0  0  0
    3.8239   -1.8207   -3.8706 H   0  0  0  0  0  0  0  0  0  0  0  0
    5.1843   -0.7140   -3.5840 H   0  0  0  0  0  0  0  0  0  0  0  0
    4.9335   -1.3385   -5.6446 C   0  0  0  0  0  0  0  0  0  0  0  0
    5.4421   -2.2971   -5.5252 H   0  0  0  0  0  0  0  0  0  0  0  0
    4.1080   -1.4844   -6.3446 H   0  0  0  0  0  0  0  0  0  0  0  0
    5.9457   -0.3605   -6.2615 C   0  0  0  0  0  0  0  0  0  0  0  0
    6.7357   -0.1397   -5.5294 H   0  0  0  0  0  0  0  0  0  0  0  0
    6.4074   -0.8578   -7.1223 H   0  0  0  0  0  0  0  0  0  0  0  0
    1.8371    1.6872   -3.7187 C   0  0  0  0  0  0  0  0  0  0  0  0
    2.5552    0.4411   -3.4936 C   0  0  0  0  0  0  0  0  0  0  0  0
    5.1195    2.8838   -7.8063 C   0  0  0  0  0  0  0  0  0  0  0  0
    5.8245    1.6490   -7.6047 C   0  0  0  0  0  0  0  0  0  0  0  0
    0.6794    2.1304   -2.8894 C   0  0  0  0  0  0  0  0  0  0  0  0
    0.2750    3.0514   -3.3023 H   0  0  0  0  0  0  0  0  0  0  0  0
    0.9945    2.3168   -1.8632 H   0  0  0  0  0  0  0  0  0  0  0  0
   -0.1008    1.3709   -2.8865 H   0  0  0  0  0  0  0  0  0  0  0  0
    2.2299   -0.4456   -2.3372 C   0  0  0  0  0  0  0  0  0  0  0  0
    1.4308   -0.0326   -1.7325 H   0  0  0  0  0  0  0  0  0  0  0  0
    3.1145   -0.5746   -1.7131 H   0  0  0  0  0  0  0  0  0  0  0  0
    1.9249   -1.4297   -2.6950 H   0  0  0  0  0  0  0  0  0  0  0  0
    5.4604    3.9047   -8.8438 C   0  0  0  0  0  0  0  0  0  0  0  0
    4.7257    4.7058   -8.7873 H   0  0  0  0  0  0  0  0  0  0  0  0
    5.4319    3.4698   -9.8417 H   0  0  0  0  0  0  0  0  0  0  0  0
    6.4496    4.3257   -8.6665 H   0  0  0  0  0  0  0  0  0  0  0  0
    7.0393    1.3018   -8.4007 C   0  0  0  0  0  0  0  0  0  0  0  0
    7.8861    1.1407   -7.7338 H   0  0  0  0  0  0  0  0  0  0  0  0
    7.2857    2.0949   -9.0975 H   0  0  0  0  0  0  0  0  0  0  0  0
    6.8701    0.3827   -8.9626 H   0  0  0  0  0  0  0  0  0  0  0  0
    2.2727    3.9481   -5.8049 H   0  0  0  0  0  0  0  0  0  0  0  0
  1  2  1  0  0  0  0
  2  6  1  0  0  0  0
  2  4  1  0  0  0  0
  2  3  1  0  0  0  0
  4 10  1  0  0  0  0
  4 20  1  0  0  0  0
  5  8  1  0  0  0  0
  5  2  1  0  0  0  0
  6 19  1  0  0  0  0
  7 16  1  0  0  0  0
  7  2  1  0  0  0  0
  9  6  1  0  0  0  0
 10 11  1  0  0  0  0
 10 12  1  0  0  0  0
 13 14  1  0  0  0  0
 13 10  1  0  0  0  0
 15 13  1  0  0  0  0
 16 13  1  0  0  0  0
 16 17  1  0  0  0  0
 18 16  1  0  0  0  0
 19 20  2  0  0  0  0
 19 23  1  0  0  0  0
 20 27  1  0  0  0  0
 21 22  2  0  0  0  0
 21  5  1  0  0  0  0
 22  7  1  0  0  0  0
 23 26  1  0  0  0  0
 23 25  1  0  0  0  0
 24 23  1  0  0  0  0
 27 28  1  0  0  0  0
 27 29  1  0  0  0  0
 30 27  1  0  0  0  0
 31 32  1  0  0  0  0
 31 34  1  0  0  0  0
 31 21  1  0  0  0  0
 33 31  1  0  0  0  0
 35 36  1  0  0  0  0
 35 22  1  0  0  0  0
 37 35  1  0  0  0  0
 38 35  1  0  0  0  0
 39  9  1  0  0  0  0
M  END
$$$$
