CSD_code = AQUWEP | q = 0 | S = 0 | Stoichiometry = C18H16BrCl2FFeN4 | MND = 6
 OpenBabel04212202003D

 43 48  0  0  1  0  0  0  0  0999 V2000
   -0.1712   15.2928    1.4757 C   0  0  0  0  0  0  0  0  0  0  0  0
   -0.9214   15.7031    2.1638 H   0  0  0  0  0  0  0  0  0  0  0  0
    0.6174   16.0416    1.3495 H   0  0  0  0  0  0  0  0  0  0  0  0
   -0.7676   15.0398    0.1195 C   0  0  1  0  0  3  0  0  0  0  0  0
   -1.8260   15.7730   -0.3812 C   0  0  0  0  0  0  0  0  0  0  0  0
   -2.2846   16.5373    0.2280 H   0  0  0  0  0  0  0  0  0  0  0  0
   -2.2801   15.5169   -1.6678 C   0  0  0  0  0  0  0  0  0  0  0  0
   -3.1065   16.0745   -2.0792 H   0  0  0  0  0  0  0  0  0  0  0  0
   -1.6381   14.5311   -2.4044 C   0  0  0  0  0  0  0  0  0  0  0  0
   -1.9419   14.3014   -3.4123 H   0  0  0  0  0  0  0  0  0  0  0  0
   -0.5956   13.8333   -1.8294 C   0  0  0  0  0  0  0  0  0  0  0  0
   -0.0647   13.0517   -2.3527 H   0  0  0  0  0  0  0  0  0  0  0  0
   -0.4966   13.2772    2.8026 C   0  0  0  0  0  0  0  0  0  0  0  0
   -1.0310   13.8783    3.5498 H   0  0  0  0  0  0  0  0  0  0  0  0
    0.0958   12.5041    3.3042 H   0  0  0  0  0  0  0  0  0  0  0  0
   -1.4470   12.5557    1.8958 C   0  0  2  0  0  3  0  0  0  0  0  0
   -2.7893   12.4097    2.1888 C   0  0  0  0  0  0  0  0  0  0  0  0
   -3.1918   12.8509    3.0870 H   0  0  0  0  0  0  0  0  0  0  0  0
   -3.6038   11.6812    1.3309 C   0  0  0  0  0  0  0  0  0  0  0  0
   -4.6516   11.5442    1.5446 H   0  0  0  0  0  0  0  0  0  0  0  0
   -3.0328   11.1332    0.1962 C   0  0  0  0  0  0  0  0  0  0  0  0
   -3.5939   10.5488   -0.5135 H   0  0  0  0  0  0  0  0  0  0  0  0
   -1.6803   11.3433   -0.0165 C   0  0  0  0  0  0  0  0  0  0  0  0
    1.6953   14.3452    2.7006 C   0  0  0  0  0  0  0  0  0  0  0  0
    1.6290   15.2312    3.3468 H   0  0  0  0  0  0  0  0  0  0  0  0
    1.9461   13.4736    3.3095 H   0  0  0  0  0  0  0  0  0  0  0  0
    2.7994   14.5036    1.6903 C   0  0  2  0  0  3  0  0  0  0  0  0
    4.0420   14.9937    2.0488 C   0  0  0  0  0  0  0  0  0  0  0  0
    4.2384   15.2518    3.0771 H   0  0  0  0  0  0  0  0  0  0  0  0
    5.0247   15.1224    1.0756 C   0  0  0  0  0  0  0  0  0  0  0  0
    6.0183   15.4532    1.3329 H   0  0  0  0  0  0  0  0  0  0  0  0
    4.6846   14.8671   -0.2400 C   0  0  0  0  0  0  0  0  0  0  0  0
    5.3800   15.0188   -1.0492 H   0  0  0  0  0  0  0  0  0  0  0  0
    3.4020   14.4122   -0.5124 C   0  0  0  0  0  0  0  0  0  0  0  0
    0.4356   14.0714    2.0077 N   0  0  2  0  0  4  0  0  0  0  0  0
   -0.1656   14.0677   -0.5868 N   0  0  0  0  0  0  0  0  0  0  0  0
   -0.8822   12.0334    0.7873 N   0  0  0  0  0  0  0  0  0  0  0  0
    2.5031   14.1427    0.4302 N   0  0  0  0  0  0  0  0  0  0  0  0
   -1.1376   10.8306   -1.1107 F   0  0  0  0  0  0  0  0  0  0  0  0
    1.9258   11.5209    1.7957 Cl  0  0  0  0  0  0  0  0  0  0  0  0
    1.6137   11.6937   -1.2281 Cl  0  0  0  0  0  0  0  0  0  0  0  0
    0.9127   12.9158    0.4281 Fe  0  0  0  0  0  0  0  0  0  0  0  0
    2.8457   14.3627   -2.3062 Br  0  0  0  0  0  0  0  0  0  0  0  0
  1  2  1  0  0  0  0
  3  1  1  0  0  0  0
  4  5  1  6  0  0  0
  4  1  1  0  0  0  0
  5  6  1  0  0  0  0
  7  5  2  0  0  0  0
  8  7  1  0  0  0  0
  9 11  2  0  0  0  0
  9  7  1  0  0  0  0
 10  9  1  0  0  0  0
 11 36  1  0  0  0  0
 12 11  1  0  0  0  0
 13 15  1  0  0  0  0
 13 14  1  0  0  0  0
 16 17  1  1  0  0  0
 16 13  1  0  0  0  0
 17 18  1  0  0  0  0
 19 20  1  0  0  0  0
 19 17  2  0  0  0  0
 21 19  1  0  0  0  0
 22 21  1  0  0  0  0
 23 21  2  0  0  0  0
 23 37  1  0  0  0  0
 24 26  1  0  0  0  0
 24 25  1  0  0  0  0
 27 28  1  6  0  0  0
 27 24  1  0  0  0  0
 28 29  1  0  0  0  0
 30 31  1  0  0  0  0
 30 28  2  0  0  0  0
 32 30  1  0  0  0  0
 33 32  1  0  0  0  0
 34 32  2  0  0  0  0
 34 38  1  0  0  0  0
 35  1  1  6  0  0  0
 35 24  1  0  0  0  0
 35 13  1  0  0  0  0
 36  4  1  0  0  0  0
 36 42  1  0  0  0  0
 37 16  1  0  0  0  0
 38 27  1  0  0  0  0
 39 23  1  0  0  0  0
 41 42  1  0  0  0  0
 42 38  1  0  0  0  0
 42 37  1  0  0  0  0
 42 40  1  0  0  0  0
 42 35  1  0  0  0  0
 43 34  1  0  0  0  0
M  END
$$$$
