CSD_code = ARASIW | q = 1 | S = 0 | Stoichiometry = C42H30ClN8Zn(1+) | MND = 5
 OpenBabel04212202003D

 82 93  0  0  0  0  0  0  0  0999 V2000
    6.2572   -1.8279    3.6671 Zn  0  0  0  0  0  0  0  0  0  0  0  0
    8.0038   -1.2186    2.5909 Cl  0  0  0  0  0  0  0  0  0  0  0  0
    5.1809   -0.0900    4.2135 N   0  0  0  0  0  0  0  0  0  0  0  0
    6.2344   -1.9695    5.8491 N   0  0  0  0  0  0  0  0  0  0  0  0
    4.7516   -1.8551    2.2345 N   0  0  0  0  0  0  0  0  0  0  0  0
    4.4746   -2.9122    1.5520 N   0  0  0  0  0  2  0  0  0  0  0  0
    3.9922   -2.5437    0.3892 N   0  0  0  0  0  0  0  0  0  0  0  0
    6.5029   -3.8302    3.8548 N   0  0  0  0  0  0  0  0  0  0  0  0
    6.5150   -4.4661    2.7357 N   0  0  0  0  0  2  0  0  0  0  0  0
    7.1744   -5.5860    2.9005 N   0  0  0  0  0  0  0  0  0  0  0  0
    4.7554   -0.1522    5.4172 C   0  0  0  0  0  0  0  0  0  0  0  0
    3.7510    0.5826    6.1752 C   0  0  0  0  0  0  0  0  0  0  0  0
    2.8952    1.6269    5.9063 C   0  0  0  0  0  0  0  0  0  0  0  0
    2.9042    2.1409    4.9574 H   0  0  0  0  0  0  0  0  0  0  0  0
    1.9862    2.0249    6.9017 C   0  0  0  0  0  0  0  0  0  0  0  0
    1.3269    2.8523    6.6871 H   0  0  0  0  0  0  0  0  0  0  0  0
    1.9035    1.4005    8.1235 C   0  0  0  0  0  0  0  0  0  0  0  0
    1.1882    1.7362    8.8589 H   0  0  0  0  0  0  0  0  0  0  0  0
    2.7447    0.3057    8.4238 C   0  0  0  0  0  0  0  0  0  0  0  0
    3.6608   -0.0632    7.4321 C   0  0  0  0  0  0  0  0  0  0  0  0
    2.7504   -0.4727    9.6024 C   0  0  0  0  0  0  0  0  0  0  0  0
    2.0717   -0.2261   10.4047 H   0  0  0  0  0  0  0  0  0  0  0  0
    3.6027   -1.5450    9.7194 C   0  0  0  0  0  0  0  0  0  0  0  0
    3.5795   -2.1405   10.6195 H   0  0  0  0  0  0  0  0  0  0  0  0
    4.5136   -1.9047    8.7121 C   0  0  0  0  0  0  0  0  0  0  0  0
    5.1507   -2.7636    8.8564 H   0  0  0  0  0  0  0  0  0  0  0  0
    4.5634   -1.1475    7.5622 C   0  0  0  0  0  0  0  0  0  0  0  0
    5.2983   -1.2184    6.3030 C   0  0  0  0  0  0  0  0  0  0  0  0
    4.9514    0.9223    3.3082 C   0  0  0  0  0  0  0  0  0  0  0  0
    5.1497    2.2541    3.6851 C   0  0  0  0  0  0  0  0  0  0  0  0
    5.4476    2.4650    4.7017 H   0  0  0  0  0  0  0  0  0  0  0  0
    5.0348    3.2734    2.7633 C   0  0  0  0  0  0  0  0  0  0  0  0
    5.2114    4.2935    3.0670 H   0  0  0  0  0  0  0  0  0  0  0  0
    4.6994    2.9818    1.4494 C   0  0  0  0  0  0  0  0  0  0  0  0
    4.6052    3.7753    0.7252 H   0  0  0  0  0  0  0  0  0  0  0  0
    4.5054    1.6699    1.0627 C   0  0  0  0  0  0  0  0  0  0  0  0
    4.2655    1.4527    0.0343 H   0  0  0  0  0  0  0  0  0  0  0  0
    4.6419    0.6182    1.9679 C   0  0  0  0  0  0  0  0  0  0  0  0
    4.4443   -0.7469    1.5126 C   0  0  0  0  0  0  0  0  0  0  0  0
    3.9396   -1.2035    0.3032 C   0  0  0  0  0  0  0  0  0  0  0  0
    3.5708   -0.6966   -0.5625 H   0  0  0  0  0  0  0  0  0  0  0  0
    3.5339   -3.5168   -0.5671 C   0  0  0  0  0  0  0  0  0  0  0  0
    4.1706   -4.4005   -0.4631 H   0  0  0  0  0  0  0  0  0  0  0  0
    3.6476   -3.1066   -1.5722 H   0  0  0  0  0  0  0  0  0  0  0  0
    2.0915   -3.8951   -0.3080 C   0  0  0  0  0  0  0  0  0  0  0  0
    1.1646   -3.8930   -1.3396 C   0  0  0  0  0  0  0  0  0  0  0  0
    1.4675   -3.6100   -2.3370 H   0  0  0  0  0  0  0  0  0  0  0  0
   -0.1474   -4.2638   -1.0965 C   0  0  0  0  0  0  0  0  0  0  0  0
   -0.8618   -4.2646   -1.9050 H   0  0  0  0  0  0  0  0  0  0  0  0
   -0.5410   -4.6295    0.1791 C   0  0  0  0  0  0  0  0  0  0  0  0
   -1.5638   -4.9171    0.3675 H   0  0  0  0  0  0  0  0  0  0  0  0
    0.3804   -4.6253    1.2134 C   0  0  0  0  0  0  0  0  0  0  0  0
    0.0778   -4.9099    2.2099 H   0  0  0  0  0  0  0  0  0  0  0  0
    1.6932   -4.2616    0.9717 C   0  0  0  0  0  0  0  0  0  0  0  0
    2.4144   -4.2585    1.7774 H   0  0  0  0  0  0  0  0  0  0  0  0
    7.0143   -2.8076    6.6200 C   0  0  0  0  0  0  0  0  0  0  0  0
    7.4730   -2.3595    7.8661 C   0  0  0  0  0  0  0  0  0  0  0  0
    7.2018   -1.3648    8.1875 H   0  0  0  0  0  0  0  0  0  0  0  0
    8.2970   -3.1370    8.6499 C   0  0  0  0  0  0  0  0  0  0  0  0
    8.6457   -2.7620    9.5993 H   0  0  0  0  0  0  0  0  0  0  0  0
    8.6720   -4.3989    8.2121 C   0  0  0  0  0  0  0  0  0  0  0  0
    9.2981   -5.0250    8.8277 H   0  0  0  0  0  0  0  0  0  0  0  0
    8.2681   -4.8376    6.9675 C   0  0  0  0  0  0  0  0  0  0  0  0
    8.5942   -5.8051    6.6219 H   0  0  0  0  0  0  0  0  0  0  0  0
    7.4666   -4.0530    6.1354 C   0  0  0  0  0  0  0  0  0  0  0  0
    7.1828   -4.5309    4.7946 C   0  0  0  0  0  0  0  0  0  0  0  0
    7.6128   -5.6933    4.1656 C   0  0  0  0  0  0  0  0  0  0  0  0
    8.1791   -6.5331    4.5070 H   0  0  0  0  0  0  0  0  0  0  0  0
    7.3267   -6.5149    1.8120 C   0  0  0  0  0  0  0  0  0  0  0  0
    8.1541   -7.1897    2.0379 H   0  0  0  0  0  0  0  0  0  0  0  0
    7.5746   -5.9299    0.9204 H   0  0  0  0  0  0  0  0  0  0  0  0
    6.0547   -7.2969    1.5614 C   0  0  0  0  0  0  0  0  0  0  0  0
    4.8415   -6.6296    1.4434 C   0  0  0  0  0  0  0  0  0  0  0  0
    4.8122   -5.5564    1.5723 H   0  0  0  0  0  0  0  0  0  0  0  0
    3.6837   -7.3394    1.1766 C   0  0  0  0  0  0  0  0  0  0  0  0
    2.7432   -6.8172    1.0807 H   0  0  0  0  0  0  0  0  0  0  0  0
    3.7312   -8.7156    1.0254 C   0  0  0  0  0  0  0  0  0  0  0  0
    2.8283   -9.2670    0.8127 H   0  0  0  0  0  0  0  0  0  0  0  0
    4.9378   -9.3825    1.1477 C   0  0  0  0  0  0  0  0  0  0  0  0
    4.9792  -10.4546    1.0330 H   0  0  0  0  0  0  0  0  0  0  0  0
    6.0977   -8.6758    1.4177 C   0  0  0  0  0  0  0  0  0  0  0  0
    7.0380   -9.1999    1.5071 H   0  0  0  0  0  0  0  0  0  0  0  0
  1  8  1  0  0  0  0
  1  3  1  0  0  0  0
  1  4  1  0  0  0  0
  2  1  1  0  0  0  0
  3 11  1  0  0  0  0
  4 28  1  0  0  0  0
  4 56  1  0  0  0  0
  5  1  1  0  0  0  0
  6  5  1  0  0  0  0
  7  6  1  0  0  0  0
  8 66  1  0  0  0  0
  9 10  1  0  0  0  0
  9  8  1  0  0  0  0
 10 67  1  0  0  0  0
 11 12  1  0  0  0  0
 11 28  2  0  0  0  0
 12 20  2  0  0  0  0
 13 12  1  0  0  0  0
 13 15  2  0  0  0  0
 14 13  1  0  0  0  0
 15 17  1  0  0  0  0
 16 15  1  0  0  0  0
 17 19  2  0  0  0  0
 17 18  1  0  0  0  0
 19 21  1  0  0  0  0
 20 27  1  0  0  0  0
 20 19  1  0  0  0  0
 21 23  2  0  0  0  0
 21 22  1  0  0  0  0
 23 24  1  0  0  0  0
 25 26  1  0  0  0  0
 25 23  1  0  0  0  0
 27 25  2  0  0  0  0
 28 27  1  0  0  0  0
 29 30  1  0  0  0  0
 29  3  1  0  0  0  0
 30 31  1  0  0  0  0
 32 33  1  0  0  0  0
 32 30  2  0  0  0  0
 34 32  1  0  0  0  0
 35 34  1  0  0  0  0
 36 34  2  0  0  0  0
 36 38  1  0  0  0  0
 37 36  1  0  0  0  0
 38 29  2  0  0  0  0
 39 38  1  0  0  0  0
 39  5  1  0  0  0  0
 40  7  1  0  0  0  0
 40 39  2  0  0  0  0
 41 40  1  0  0  0  0
 42 43  1  0  0  0  0
 42 45  1  0  0  0  0
 42  7  1  0  0  0  0
 44 42  1  0  0  0  0
 45 54  1  0  0  0  0
 46 48  1  0  0  0  0
 46 45  2  0  0  0  0
 47 46  1  0  0  0  0
 48 50  2  0  0  0  0
 49 48  1  0  0  0  0
 50 51  1  0  0  0  0
 50 52  1  0  0  0  0
 52 53  1  0  0  0  0
 54 52  2  0  0  0  0
 54 55  1  0  0  0  0
 56 57  1  0  0  0  0
 57 58  1  0  0  0  0
 57 59  2  0  0  0  0
 59 60  1  0  0  0  0
 61 59  1  0  0  0  0
 61 62  1  0  0  0  0
 63 61  2  0  0  0  0
 64 63  1  0  0  0  0
 65 56  2  0  0  0  0
 65 63  1  0  0  0  0
 66 65  1  0  0  0  0
 67 68  1  0  0  0  0
 67 66  2  0  0  0  0
 69 70  1  0  0  0  0
 69 10  1  0  0  0  0
 71 69  1  0  0  0  0
 72 69  1  0  0  0  0
 73 72  1  0  0  0  0
 73 74  1  0  0  0  0
 75 73  2  0  0  0  0
 76 75  1  0  0  0  0
 77 79  2  0  0  0  0
 77 75  1  0  0  0  0
 78 77  1  0  0  0  0
 79 81  1  0  0  0  0
 80 79  1  0  0  0  0
 81 82  1  0  0  0  0
 81 72  2  0  0  0  0
M  END
$$$$
