CSD_code = ARAZUO | q = -1 | S = 0 | Stoichiometry = C3H5Cl2Pd(1-) | MND = 5
 OpenBabel04212202003D

 11  8  0  0  0  0  0  0  0  0999 V2000
    5.8607    8.9192    0.3007 Pd  0  0  0  0  0  0  0  0  0  0  0  0
    5.7402    9.5655    2.4876 Cl  0  0  0  0  0 15  0  0  0  0  0  0
    6.1579    6.7164    0.8206 Cl  0  0  0  0  0 15  0  0  0  0  0  0
    5.8224   10.8470   -0.5750 C   0  0  0  0  0  3  0  0  0  0  0  0
    5.3242    9.8697   -1.4586 C   0  0  0  0  0  0  0  0  0  0  0  0
    6.1269    8.7619   -1.7944 C   0  0  0  0  0  3  0  0  0  0  0  0
    6.8823   11.1094   -0.6145 H   0  0  0  0  0  0  0  0  0  0  0  0
    5.1704   11.6588   -0.2692 H   0  0  0  0  0  0  0  0  0  0  0  0
    4.2640    9.8676   -1.7198 H   0  0  0  0  0  0  0  0  0  0  0  0
    5.7068    7.9810   -2.4194 H   0  0  0  0  0  0  0  0  0  0  0  0
    7.2049    8.9003   -1.9066 H   0  0  0  0  0  0  0  0  0  0  0  0
  4  8  1  0  0  0  0
  5  4  1  0  0  0  0
  5  1  1  0  0  0  0
  6  5  1  0  0  0  0
  7  4  1  0  0  0  0
  9  5  1  0  0  0  0
 10  6  1  0  0  0  0
 11  6  1  0  0  0  0
M  END
$$$$
