CSD_code = AREKOY | q = 0 | S = 0 | Stoichiometry = C24H36Cl2N4Ni | MND = 4
 OpenBabel04212202003D

 67 69  0  0  1  0  0  0  0  0999 V2000
    2.6901    5.2844    5.0585 Ni  0  0  2  0  0  0  0  0  0  0  0  0
    1.2087    6.8534    5.0643 Cl  0  0  0  0  0  0  0  0  0  0  0  0
    1.9108    4.6180    3.4685 C   0  0  2  0  0  3  0  0  0  0  0  0
    2.1106    5.1024    2.2287 N   0  0  0  0  0  0  0  0  0  0  0  0
    0.8881    3.7492    3.3605 N   0  0  0  0  0  0  0  0  0  0  0  0
    1.2221    4.5423    1.3518 C   0  0  0  0  0  0  0  0  0  0  0  0
    1.2011    4.7848    0.3097 H   0  0  0  0  0  0  0  0  0  0  0  0
    0.4508    3.6908    2.0649 C   0  0  0  0  0  0  0  0  0  0  0  0
   -0.3589    3.0656    1.7513 H   0  0  0  0  0  0  0  0  0  0  0  0
    3.0626    6.1480    1.9180 C   0  0  0  0  0  0  0  0  0  0  0  0
    3.5998    6.3368    2.8608 H   0  0  0  0  0  0  0  0  0  0  0  0
    4.0463    5.6835    0.8490 C   0  0  0  0  0  0  0  0  0  0  0  0
    4.5130    4.7470    1.1475 H   0  0  0  0  0  0  0  0  0  0  0  0
    4.8224    6.4315    0.7099 H   0  0  0  0  0  0  0  0  0  0  0  0
    3.5416    5.5340   -0.1029 H   0  0  0  0  0  0  0  0  0  0  0  0
    2.3235    7.4235    1.5225 C   0  0  0  0  0  0  0  0  0  0  0  0
    1.6498    7.7133    2.3263 H   0  0  0  0  0  0  0  0  0  0  0  0
    1.7454    7.2739    0.6133 H   0  0  0  0  0  0  0  0  0  0  0  0
    3.0337    8.2290    1.3557 H   0  0  0  0  0  0  0  0  0  0  0  0
    0.2815    3.0783    4.4907 C   0  0  0  0  0  0  0  0  0  0  0  0
    0.9468    3.2888    5.3403 H   0  0  0  0  0  0  0  0  0  0  0  0
   -1.0872    3.6914    4.7785 C   0  0  0  0  0  0  0  0  0  0  0  0
   -0.9773    4.7624    4.9366 H   0  0  0  0  0  0  0  0  0  0  0  0
   -1.5160    3.2478    5.6731 H   0  0  0  0  0  0  0  0  0  0  0  0
   -1.7684    3.5274    3.9464 H   0  0  0  0  0  0  0  0  0  0  0  0
    0.2171    1.5720    4.2636 C   0  0  0  0  0  0  0  0  0  0  0  0
    1.2056    1.1868    4.0226 H   0  0  0  0  0  0  0  0  0  0  0  0
   -0.4636    1.3275    3.4515 H   0  0  0  0  0  0  0  0  0  0  0  0
   -0.1370    1.0791    5.1651 H   0  0  0  0  0  0  0  0  0  0  0  0
    3.4050    5.9977    6.6581 C   0  0  0  0  0  0  0  0  0  0  0  0
    4.3634    6.9319    6.7976 N   0  0  0  0  0  0  0  0  0  0  0  0
    2.8972    5.8085    7.8903 N   0  0  0  0  0  0  0  0  0  0  0  0
    4.4592    7.3208    8.1065 C   0  0  0  0  0  0  0  0  0  0  0  0
    5.1587    8.0563    8.4457 H   0  0  0  0  0  0  0  0  0  0  0  0
    3.5341    6.6139    8.7944 C   0  0  0  0  0  0  0  0  0  0  0  0
    3.2886    6.6283    9.8358 H   0  0  0  0  0  0  0  0  0  0  0  0
    5.1143    7.4879    5.6922 C   0  0  0  0  0  0  0  0  0  0  0  0
    4.7535    6.9521    4.8023 H   0  0  0  0  0  0  0  0  0  0  0  0
    6.6066    7.2264    5.8702 C   0  0  0  0  0  0  0  0  0  0  0  0
    6.7862    6.1603    5.9911 H   0  0  0  0  0  0  0  0  0  0  0  0
    6.9906    7.7488    6.7435 H   0  0  0  0  0  0  0  0  0  0  0  0
    7.1503    7.5738    4.9959 H   0  0  0  0  0  0  0  0  0  0  0  0
    4.7914    8.9712    5.5328 C   0  0  0  0  0  0  0  0  0  0  0  0
    3.7173    9.1004    5.4185 H   0  0  0  0  0  0  0  0  0  0  0  0
    5.2856    9.3667    4.6495 H   0  0  0  0  0  0  0  0  0  0  0  0
    5.1237    9.5386    6.3993 H   0  0  0  0  0  0  0  0  0  0  0  0
    1.7656    4.9492    8.1696 C   0  0  0  0  0  0  0  0  0  0  0  0
    1.5396    4.4522    7.2129 H   0  0  0  0  0  0  0  0  0  0  0  0
    0.5576    5.7924    8.5686 C   0  0  0  0  0  0  0  0  0  0  0  0
    0.3346    6.5004    7.7731 H   0  0  0  0  0  0  0  0  0  0  0  0
    0.7510    6.3415    9.4875 H   0  0  0  0  0  0  0  0  0  0  0  0
   -0.3086    5.1538    8.7192 H   0  0  0  0  0  0  0  0  0  0  0  0
    2.1253    3.9044    9.2209 C   0  0  0  0  0  0  0  0  0  0  0  0
    3.0210    3.3628    8.9239 H   0  0  0  0  0  0  0  0  0  0  0  0
    1.3091    3.1954    9.3317 H   0  0  0  0  0  0  0  0  0  0  0  0
    2.3048    4.3721   10.1864 H   0  0  0  0  0  0  0  0  0  0  0  0
    3.9987    3.9157    5.0525 C   0  0  0  0  0  0  0  0  0  0  0  0
    5.1843    4.0303    4.3175 C   0  0  0  0  0  0  0  0  0  0  0  0
    5.3777    4.9103    3.7163 H   0  0  0  0  0  0  0  0  0  0  0  0
    6.1568    3.0439    4.3154 C   0  0  0  0  0  0  0  0  0  0  0  0
    7.0605    3.1678    3.7369 H   0  0  0  0  0  0  0  0  0  0  0  0
    5.9617    1.8968    5.0601 C   0  0  0  0  0  0  0  0  0  0  0  0
    4.8056    1.7360    5.7989 C   0  0  0  0  0  0  0  0  0  0  0  0
    4.6541    0.8381    6.3800 H   0  0  0  0  0  0  0  0  0  0  0  0
    3.8466    2.7356    5.7890 C   0  0  0  0  0  0  0  0  0  0  0  0
    2.9579    2.5688    6.3856 H   0  0  0  0  0  0  0  0  0  0  0  0
    7.1762    0.6512    5.0676 Cl  0  0  0  0  0  0  0  0  0  0  0  0
  1  2  1  6  0  0  0
  1 30  2  0  0  0  0
  3  1  1  1  0  0  0
  4  3  1  0  0  0  0
  5  3  1  0  0  0  0
  5 20  1  0  0  0  0
  6  8  2  0  0  0  0
  6  4  1  0  0  0  0
  7  6  1  0  0  0  0
  8  5  1  0  0  0  0
  9  8  1  0  0  0  0
 10  4  1  0  0  0  0
 10 11  1  0  0  0  0
 12 13  1  0  0  0  0
 12 10  1  0  0  0  0
 14 12  1  0  0  0  0
 15 12  1  0  0  0  0
 16 10  1  0  0  0  0
 16 17  1  0  0  0  0
 18 16  1  0  0  0  0
 19 16  1  0  0  0  0
 20 22  1  0  0  0  0
 20 21  1  0  0  0  0
 22 23  1  0  0  0  0
 22 24  1  0  0  0  0
 25 22  1  0  0  0  0
 26 20  1  0  0  0  0
 26 29  1  0  0  0  0
 27 26  1  0  0  0  0
 28 26  1  0  0  0  0
 30 31  1  0  0  0  0
 30 32  1  0  0  0  0
 31 33  1  0  0  0  0
 32 47  1  0  0  0  0
 32 35  1  0  0  0  0
 33 34  1  0  0  0  0
 33 35  2  0  0  0  0
 35 36  1  0  0  0  0
 37 39  1  0  0  0  0
 37 31  1  0  0  0  0
 38 37  1  0  0  0  0
 39 40  1  0  0  0  0
 39 41  1  0  0  0  0
 42 39  1  0  0  0  0
 43 37  1  0  0  0  0
 43 46  1  0  0  0  0
 44 43  1  0  0  0  0
 45 43  1  0  0  0  0
 47 49  1  0  0  0  0
 47 53  1  0  0  0  0
 48 47  1  0  0  0  0
 49 52  1  0  0  0  0
 49 51  1  0  0  0  0
 50 49  1  0  0  0  0
 53 55  1  0  0  0  0
 53 56  1  0  0  0  0
 54 53  1  0  0  0  0
 57  1  1  0  0  0  0
 57 65  1  0  0  0  0
 58 57  2  0  0  0  0
 59 58  1  0  0  0  0
 60 58  1  0  0  0  0
 60 62  2  0  0  0  0
 61 60  1  0  0  0  0
 62 67  1  0  0  0  0
 62 63  1  0  0  0  0
 63 64  1  0  0  0  0
 65 63  2  0  0  0  0
 65 66  1  0  0  0  0
M  END
$$$$
