CSD_code = AREKUE | q = 0 | S = 0 | Stoichiometry = C24H36Cl2N4Ni | MND = 4
 OpenBabel04212202003D

 67 69  0  0  1  0  0  0  0  0999 V2000
    0.3111    1.3764   18.5473 Ni  0  0  2  0  0  0  0  0  0  0  0  0
    1.2206    3.1948   17.8342 Cl  0  0  0  0  0  0  0  0  0  0  0  0
    1.5508    1.3522   19.9782 C   0  0  0  0  0  0  0  0  0  0  0  0
    1.4335    1.9569   21.1747 N   0  0  0  0  0  0  0  0  0  0  0  0
    2.8154    0.8943   19.9231 N   0  0  0  0  0  0  0  0  0  0  0  0
    2.6122    1.8743   21.8653 C   0  0  0  0  0  0  0  0  0  0  0  0
    2.7440    2.2893   22.8428 H   0  0  0  0  0  0  0  0  0  0  0  0
    3.4834    1.2061   21.0759 C   0  0  0  0  0  0  0  0  0  0  0  0
    4.5054    0.9389   21.2471 H   0  0  0  0  0  0  0  0  0  0  0  0
    0.2480    2.6665   21.6074 C   0  0  0  0  0  0  0  0  0  0  0  0
   -0.4771    2.5377   20.7904 H   0  0  0  0  0  0  0  0  0  0  0  0
   -0.3116    2.0532   22.8868 C   0  0  0  0  0  0  0  0  0  0  0  0
   -0.5002    0.9915   22.7426 H   0  0  0  0  0  0  0  0  0  0  0  0
   -1.2470    2.5386   23.1519 H   0  0  0  0  0  0  0  0  0  0  0  0
    0.3852    2.1761   23.7131 H   0  0  0  0  0  0  0  0  0  0  0  0
    0.5542    4.1548   21.7526 C   0  0  0  0  0  0  0  0  0  0  0  0
    0.9518    4.5377   20.8152 H   0  0  0  0  0  0  0  0  0  0  0  0
    1.2824    4.3290   22.5416 H   0  0  0  0  0  0  0  0  0  0  0  0
   -0.3548    4.6996   21.9934 H   0  0  0  0  0  0  0  0  0  0  0  0
    3.3907    0.2641   18.7536 C   0  0  0  0  0  0  0  0  0  0  0  0
    2.5547    0.1590   18.0449 H   0  0  0  0  0  0  0  0  0  0  0  0
    4.4377    1.1835   18.1305 C   0  0  0  0  0  0  0  0  0  0  0  0
    3.9791    2.1406   17.8904 H   0  0  0  0  0  0  0  0  0  0  0  0
    4.8237    0.7429   17.2152 H   0  0  0  0  0  0  0  0  0  0  0  0
    5.2670    1.3503   18.8145 H   0  0  0  0  0  0  0  0  0  0  0  0
    3.9467   -1.1135   19.0981 C   0  0  0  0  0  0  0  0  0  0  0  0
    3.1809   -1.7185   19.5794 H   0  0  0  0  0  0  0  0  0  0  0  0
    4.7998   -1.0313   19.7680 H   0  0  0  0  0  0  0  0  0  0  0  0
    4.2716   -1.6182   18.1921 H   0  0  0  0  0  0  0  0  0  0  0  0
   -0.8991    1.4542   17.0938 C   0  0  1  0  0  3  0  0  0  0  0  0
   -2.0404    2.1654   17.0419 N   0  0  0  0  0  0  0  0  0  0  0  0
   -0.6978    0.9951   15.8446 N   0  0  0  0  0  0  0  0  0  0  0  0
   -2.5517    2.1497   15.7728 C   0  0  0  0  0  0  0  0  0  0  0  0
   -3.4571    2.6527   15.5040 H   0  0  0  0  0  0  0  0  0  0  0  0
   -1.7051    1.4136   15.0178 C   0  0  0  0  0  0  0  0  0  0  0  0
   -1.7448    1.1661   13.9775 H   0  0  0  0  0  0  0  0  0  0  0  0
   -2.5747    2.9132   18.1607 C   0  0  0  0  0  0  0  0  0  0  0  0
   -1.8940    2.6999   18.9990 H   0  0  0  0  0  0  0  0  0  0  0  0
   -3.9811    2.4361   18.5077 C   0  0  0  0  0  0  0  0  0  0  0  0
   -3.9815    1.3629   18.6861 H   0  0  0  0  0  0  0  0  0  0  0  0
   -4.6753    2.6561   17.6996 H   0  0  0  0  0  0  0  0  0  0  0  0
   -4.3314    2.9376   19.4059 H   0  0  0  0  0  0  0  0  0  0  0  0
   -2.5170    4.4091   17.8629 C   0  0  0  0  0  0  0  0  0  0  0  0
   -1.4932    4.6924   17.6279 H   0  0  0  0  0  0  0  0  0  0  0  0
   -2.8438    4.9741   18.7318 H   0  0  0  0  0  0  0  0  0  0  0  0
   -3.1564    4.6651   17.0209 H   0  0  0  0  0  0  0  0  0  0  0  0
    0.4821    0.2619   15.4381 C   0  0  0  0  0  0  0  0  0  0  0  0
    1.0343    0.0685   16.3697 H   0  0  0  0  0  0  0  0  0  0  0  0
    1.3480    1.1352   14.5336 C   0  0  0  0  0  0  0  0  0  0  0  0
    1.5964    2.0580   15.0537 H   0  0  0  0  0  0  0  0  0  0  0  0
    0.8244    1.3799   13.6120 H   0  0  0  0  0  0  0  0  0  0  0  0
    2.2695    0.6163   14.2839 H   0  0  0  0  0  0  0  0  0  0  0  0
    0.1016   -1.0646   14.7892 C   0  0  0  0  0  0  0  0  0  0  0  0
   -0.5446   -1.6350   15.4532 H   0  0  0  0  0  0  0  0  0  0  0  0
    0.9966   -1.6477   14.5890 H   0  0  0  0  0  0  0  0  0  0  0  0
   -0.4181   -0.9026   13.8476 H   0  0  0  0  0  0  0  0  0  0  0  0
   -0.4868   -0.2201   19.1702 C   0  0  0  0  0  0  0  0  0  0  0  0
   -1.5749   -0.1896   20.0495 C   0  0  0  0  0  0  0  0  0  0  0  0
   -1.9914    0.7463   20.3968 H   0  0  0  0  0  0  0  0  0  0  0  0
   -2.1586   -1.3570   20.5065 C   0  0  0  0  0  0  0  0  0  0  0  0
   -1.7008   -2.6015   20.1193 C   0  0  0  0  0  0  0  0  0  0  0  0
   -2.1689   -3.5020   20.4853 H   0  0  0  0  0  0  0  0  0  0  0  0
   -0.6259   -2.6508   19.2496 C   0  0  0  0  0  0  0  0  0  0  0  0
   -0.2463   -3.6117   18.9296 H   0  0  0  0  0  0  0  0  0  0  0  0
   -0.0336   -1.4884   18.7874 C   0  0  0  0  0  0  0  0  0  0  0  0
    0.8056   -1.5893   18.1100 H   0  0  0  0  0  0  0  0  0  0  0  0
   -3.5104   -1.2506   21.6013 Cl  0  0  0  0  0  0  0  0  0  0  0  0
  1  2  1  1  0  0  0
  1 57  1  0  0  0  0
  1  3  2  0  0  0  0
  3  4  1  0  0  0  0
  4 10  1  0  0  0  0
  4  6  1  0  0  0  0
  5  3  1  0  0  0  0
  5  8  1  0  0  0  0
  6  7  1  0  0  0  0
  8  9  1  0  0  0  0
  8  6  2  0  0  0  0
 10 16  1  0  0  0  0
 10 12  1  0  0  0  0
 11 10  1  0  0  0  0
 12 14  1  0  0  0  0
 12 15  1  0  0  0  0
 13 12  1  0  0  0  0
 16 19  1  0  0  0  0
 16 18  1  0  0  0  0
 17 16  1  0  0  0  0
 20 26  1  0  0  0  0
 20  5  1  0  0  0  0
 21 20  1  0  0  0  0
 22 20  1  0  0  0  0
 22 25  1  0  0  0  0
 23 22  1  0  0  0  0
 24 22  1  0  0  0  0
 26 27  1  0  0  0  0
 26 28  1  0  0  0  0
 29 26  1  0  0  0  0
 30  1  1  6  0  0  0
 31 30  1  0  0  0  0
 31 37  1  0  0  0  0
 32 30  1  0  0  0  0
 33 31  1  0  0  0  0
 34 33  1  0  0  0  0
 35 33  2  0  0  0  0
 35 32  1  0  0  0  0
 36 35  1  0  0  0  0
 37 39  1  0  0  0  0
 37 38  1  0  0  0  0
 39 40  1  0  0  0  0
 39 42  1  0  0  0  0
 41 39  1  0  0  0  0
 43 37  1  0  0  0  0
 43 45  1  0  0  0  0
 44 43  1  0  0  0  0
 46 43  1  0  0  0  0
 47 32  1  0  0  0  0
 47 48  1  0  0  0  0
 49 50  1  0  0  0  0
 49 47  1  0  0  0  0
 51 49  1  0  0  0  0
 52 49  1  0  0  0  0
 53 47  1  0  0  0  0
 53 54  1  0  0  0  0
 55 53  1  0  0  0  0
 56 53  1  0  0  0  0
 57 58  1  0  0  0  0
 58 59  1  0  0  0  0
 58 60  2  0  0  0  0
 60 67  1  0  0  0  0
 61 62  1  0  0  0  0
 61 60  1  0  0  0  0
 63 61  2  0  0  0  0
 64 63  1  0  0  0  0
 65 57  2  0  0  0  0
 65 63  1  0  0  0  0
 66 65  1  0  0  0  0
M  END
$$$$
