CSD_code = ARIBAG | q = 0 | S = 0 | Stoichiometry = C22H42ClFeNP2 | MND = 4
 OpenBabel04212202003D

 69 71  0  0  0  0  0  0  0  0999 V2000
    2.9829   11.7302   11.6976 Fe  0  0  0  0  0  0  0  0  0  0  0  0
    3.4455   13.5874   10.7740 Cl  0  0  0  0  0  0  0  0  0  0  0  0
    4.6859   10.5964   10.8732 P   0  0  0  0  0  4  0  0  0  0  0  0
    1.1674   12.4061   12.7524 P   0  0  0  0  0  4  0  0  0  0  0  0
    2.5723   10.0877   12.5116 N   0  0  0  0  0  0  0  0  0  0  0  0
    3.3628    8.9726   12.5322 C   0  0  0  0  0  0  0  0  0  0  0  0
    2.7297    7.9676   13.2211 C   0  0  0  0  0  0  0  0  0  0  0  0
    1.4855    8.4887   13.6451 C   0  0  0  0  0  0  0  0  0  0  0  0
    1.4272    9.7843   13.1940 C   0  0  0  0  0  0  0  0  0  0  0  0
    4.7086    9.0454   11.8882 C   0  0  0  0  0  0  0  0  0  0  0  0
    4.2306    9.9921    9.1381 C   0  0  0  0  0  0  0  0  0  0  0  0
    2.8021    9.4667    9.3370 C   0  0  0  0  0  0  0  0  0  0  0  0
    4.1568   11.1859    8.1834 C   0  0  0  0  0  0  0  0  0  0  0  0
    5.1244    8.9074    8.5456 C   0  0  0  0  0  0  0  0  0  0  0  0
    6.4639   11.2174   11.0140 C   0  0  0  0  0  0  0  0  0  0  0  0
    6.7429   12.2845    9.9577 C   0  0  0  0  0  0  0  0  0  0  0  0
    7.5340   10.1291   10.9529 C   0  0  0  0  0  0  0  0  0  0  0  0
    6.4598   11.8891   12.3942 C   0  0  0  0  0  0  0  0  0  0  0  0
    0.3602   10.8255   13.2873 C   0  0  0  0  0  0  0  0  0  0  0  0
   -0.2307   13.3130   11.8642 C   0  0  0  0  0  0  0  0  0  0  0  0
    0.1277   14.7844   11.6673 C   0  0  0  0  0  0  0  0  0  0  0  0
   -0.2376   12.6266   10.4913 C   0  0  0  0  0  0  0  0  0  0  0  0
   -1.6011   13.1924   12.5281 C   0  0  0  0  0  0  0  0  0  0  0  0
    1.6803   13.2225   14.3815 C   0  0  0  0  0  0  0  0  0  0  0  0
    2.7233   12.2395   14.9311 C   0  0  0  0  0  0  0  0  0  0  0  0
    0.5680   13.4508   15.4001 C   0  0  0  0  0  0  0  0  0  0  0  0
    2.3981   14.5418   14.0876 C   0  0  0  0  0  0  0  0  0  0  0  0
    3.1039    6.9779   13.4045 H   0  0  0  0  0  0  0  0  0  0  0  0
    0.7342    7.9691   14.2099 H   0  0  0  0  0  0  0  0  0  0  0  0
    4.9328    8.1547   11.2967 H   0  0  0  0  0  0  0  0  0  0  0  0
    5.4819    9.1389   12.6575 H   0  0  0  0  0  0  0  0  0  0  0  0
    2.7729    8.6236   10.0245 H   0  0  0  0  0  0  0  0  0  0  0  0
    2.1683   10.2675    9.7495 H   0  0  0  0  0  0  0  0  0  0  0  0
    2.3766    9.1498    8.3856 H   0  0  0  0  0  0  0  0  0  0  0  0
    3.5702   10.9196    7.3046 H   0  0  0  0  0  0  0  0  0  0  0  0
    3.6792   12.0371    8.6674 H   0  0  0  0  0  0  0  0  0  0  0  0
    5.1409   11.4936    7.8442 H   0  0  0  0  0  0  0  0  0  0  0  0
    5.2176    8.0490    9.2070 H   0  0  0  0  0  0  0  0  0  0  0  0
    4.6946    8.5590    7.6066 H   0  0  0  0  0  0  0  0  0  0  0  0
    6.1182    9.2940    8.3324 H   0  0  0  0  0  0  0  0  0  0  0  0
    6.9190   11.8364    8.9831 H   0  0  0  0  0  0  0  0  0  0  0  0
    5.9092   12.9802    9.8876 H   0  0  0  0  0  0  0  0  0  0  0  0
    7.6343   12.8485   10.2306 H   0  0  0  0  0  0  0  0  0  0  0  0
    8.5171   10.5888   11.0533 H   0  0  0  0  0  0  0  0  0  0  0  0
    7.4238    9.4028   11.7542 H   0  0  0  0  0  0  0  0  0  0  0  0
    7.5069    9.5998   10.0043 H   0  0  0  0  0  0  0  0  0  0  0  0
    7.4369   12.3150   12.6168 H   0  0  0  0  0  0  0  0  0  0  0  0
    5.7230   12.6963   12.4076 H   0  0  0  0  0  0  0  0  0  0  0  0
    6.2108   11.1803   13.1846 H   0  0  0  0  0  0  0  0  0  0  0  0
   -0.0709   10.8873   14.2892 H   0  0  0  0  0  0  0  0  0  0  0  0
   -0.4492   10.5894   12.5891 H   0  0  0  0  0  0  0  0  0  0  0  0
   -0.0161   15.3502   12.5843 H   0  0  0  0  0  0  0  0  0  0  0  0
    1.1608   14.8858   11.3409 H   0  0  0  0  0  0  0  0  0  0  0  0
   -0.5145   15.2210   10.9028 H   0  0  0  0  0  0  0  0  0  0  0  0
   -1.0023   13.0608    9.8492 H   0  0  0  0  0  0  0  0  0  0  0  0
    0.7332   12.7617   10.0080 H   0  0  0  0  0  0  0  0  0  0  0  0
   -0.4350   11.5576   10.5784 H   0  0  0  0  0  0  0  0  0  0  0  0
   -1.5929   13.6075   13.5323 H   0  0  0  0  0  0  0  0  0  0  0  0
   -2.3325   13.7474   11.9408 H   0  0  0  0  0  0  0  0  0  0  0  0
   -1.9366   12.1600   12.5863 H   0  0  0  0  0  0  0  0  0  0  0  0
    2.2875   11.2669   15.1506 H   0  0  0  0  0  0  0  0  0  0  0  0
    3.5234   12.0966   14.1881 H   0  0  0  0  0  0  0  0  0  0  0  0
    3.1708   12.6300   15.8443 H   0  0  0  0  0  0  0  0  0  0  0  0
    1.0027   13.7948   16.3384 H   0  0  0  0  0  0  0  0  0  0  0  0
   -0.1253   14.2147   15.0558 H   0  0  0  0  0  0  0  0  0  0  0  0
    0.0105   12.5399   15.6065 H   0  0  0  0  0  0  0  0  0  0  0  0
    2.9874   14.8421   14.9537 H   0  0  0  0  0  0  0  0  0  0  0  0
    3.0715   14.4322   13.2381 H   0  0  0  0  0  0  0  0  0  0  0  0
    1.6992   15.3425   13.8681 H   0  0  0  0  0  0  0  0  0  0  0  0
  1  5  1  0  0  0  0
  1  4  1  0  0  0  0
  2  1  1  0  0  0  0
  3 15  1  0  0  0  0
  3  1  1  0  0  0  0
  3 10  1  0  0  0  0
  4 19  1  0  0  0  0
  4 24  1  0  0  0  0
  5  6  1  0  0  0  0
  5  9  1  0  0  0  0
  6  7  2  0  0  0  0
  7 28  1  0  0  0  0
  7  8  1  0  0  0  0
  8 29  1  0  0  0  0
  9 19  1  0  0  0  0
  9  8  2  0  0  0  0
 10  6  1  0  0  0  0
 10 31  1  0  0  0  0
 11 12  1  0  0  0  0
 11  3  1  0  0  0  0
 12 33  1  0  0  0  0
 12 32  1  0  0  0  0
 13 36  1  0  0  0  0
 13 11  1  0  0  0  0
 14 11  1  0  0  0  0
 14 38  1  0  0  0  0
 15 18  1  0  0  0  0
 16 43  1  0  0  0  0
 16 15  1  0  0  0  0
 17 15  1  0  0  0  0
 17 44  1  0  0  0  0
 17 45  1  0  0  0  0
 18 48  1  0  0  0  0
 18 47  1  0  0  0  0
 18 49  1  0  0  0  0
 19 50  1  0  0  0  0
 20 23  1  0  0  0  0
 20  4  1  0  0  0  0
 21 20  1  0  0  0  0
 21 52  1  0  0  0  0
 22 57  1  0  0  0  0
 22 20  1  0  0  0  0
 23 60  1  0  0  0  0
 23 58  1  0  0  0  0
 24 25  1  0  0  0  0
 24 26  1  0  0  0  0
 25 61  1  0  0  0  0
 25 63  1  0  0  0  0
 26 66  1  0  0  0  0
 26 64  1  0  0  0  0
 27 24  1  0  0  0  0
 27 67  1  0  0  0  0
 30 10  1  0  0  0  0
 34 12  1  0  0  0  0
 35 13  1  0  0  0  0
 37 13  1  0  0  0  0
 39 14  1  0  0  0  0
 40 14  1  0  0  0  0
 41 16  1  0  0  0  0
 42 16  1  0  0  0  0
 46 17  1  0  0  0  0
 51 19  1  0  0  0  0
 53 21  1  0  0  0  0
 54 21  1  0  0  0  0
 55 22  1  0  0  0  0
 56 22  1  0  0  0  0
 59 23  1  0  0  0  0
 62 25  1  0  0  0  0
 65 26  1  0  0  0  0
 68 27  1  0  0  0  0
 69 27  1  0  0  0  0
M  END
$$$$
