CSD_code = ARIFIS | q = 0 | S = 0 | Stoichiometry = C37H35ClNRh | MND = 8
 OpenBabel04212202003D

 75 81  0  0  1  0  0  0  0  0999 V2000
    4.8195    6.5677    8.4720 Rh  0  0  2  0  0  0  0  0  0  0  0  0
    2.5790    7.1118    8.4261 Cl  0  0  0  0  0 15  0  0  0  0  0  0
    4.2888    5.1073    9.7104 N   0  0  2  0  0  0  0  0  0  0  0  0
    4.3605    5.1127    7.1893 C   0  0  0  0  0  0  0  0  0  0  0  0
    6.9485    6.9786    8.8492 C   0  0  1  0  0  0  0  0  0  0  0  0
    3.9434    3.9001    7.7787 C   0  0  0  0  0  0  0  0  0  0  0  0
    6.1045    3.8945   11.6069 C   0  0  0  0  0  0  0  0  0  0  0  0
    5.9416    3.3602   10.6834 H   0  0  0  0  0  0  0  0  0  0  0  0
    7.1618    3.5264   12.4226 C   0  0  0  0  0  0  0  0  0  0  0  0
    7.7998    2.7056   12.1294 H   0  0  0  0  0  0  0  0  0  0  0  0
    5.4867    8.7536    8.8362 C   0  0  0  0  0  0  0  0  0  0  0  0
    3.9321    3.9526    9.2223 C   0  0  2  0  0  3  0  0  0  0  0  0
    5.1771    9.0781    6.2805 C   0  0  0  0  0  0  0  0  0  0  0  0
    5.3531    8.5414    5.3514 H   0  0  0  0  0  0  0  0  0  0  0  0
    5.6948   10.0381    6.2246 H   0  0  0  0  0  0  0  0  0  0  0  0
    4.1097    9.2721    6.3697 H   0  0  0  0  0  0  0  0  0  0  0  0
    2.4681    5.0734   13.0134 C   0  0  0  0  0  0  0  0  0  0  0  0
    5.6742    8.3040    7.4651 C   0  0  2  0  0  0  0  0  0  0  0  0
    3.4551    2.9952    5.6081 C   0  0  0  0  0  0  0  0  0  0  0  0
    3.0872    2.1901    4.9890 H   0  0  0  0  0  0  0  0  0  0  0  0
    2.8085    3.2493   11.2774 C   0  0  0  0  0  0  0  0  0  0  0  0
    3.6848    1.5283    9.8286 C   0  0  0  0  0  0  0  0  0  0  0  0
    4.2980    1.2382    8.9894 H   0  0  0  0  0  0  0  0  0  0  0  0
    5.2738    4.9480   11.9644 C   0  0  0  0  0  0  0  0  0  0  0  0
    7.4032    4.2049   13.6038 C   0  0  0  0  0  0  0  0  0  0  0  0
    8.2269    3.9143   14.2388 H   0  0  0  0  0  0  0  0  0  0  0  0
    6.2766    7.9599    9.6760 C   0  0  0  0  0  0  0  0  0  0  0  0
    3.4718    2.8772   10.1004 C   0  0  0  0  0  0  0  0  0  0  0  0
    1.6294    6.1444   13.2974 C   0  0  0  0  0  0  0  0  0  0  0  0
    1.1639    6.6842   12.4850 H   0  0  0  0  0  0  0  0  0  0  0  0
    4.3058    5.2376    5.8073 C   0  0  0  0  0  0  0  0  0  0  0  0
    4.5687    6.1724    5.3313 H   0  0  0  0  0  0  0  0  0  0  0  0
    2.7531    4.7202   11.5806 C   0  0  2  0  0  0  0  0  0  0  0  0
    1.9789    5.1715   10.9431 H   0  0  0  0  0  0  0  0  0  0  0  0
    2.2290    2.2717   12.0675 C   0  0  0  0  0  0  0  0  0  0  0  0
    1.6551    2.5549   12.9369 H   0  0  0  0  0  0  0  0  0  0  0  0
    3.8853    4.1783    5.0220 C   0  0  0  0  0  0  0  0  0  0  0  0
    3.8613    4.2835    3.9465 H   0  0  0  0  0  0  0  0  0  0  0  0
    8.0466    6.0731    9.3159 C   0  0  0  0  0  0  0  0  0  0  0  0
    7.8427    5.6800   10.3103 H   0  0  0  0  0  0  0  0  0  0  0  0
    8.9861    6.6290    9.3556 H   0  0  0  0  0  0  0  0  0  0  0  0
    8.1758    5.2356    8.6339 H   0  0  0  0  0  0  0  0  0  0  0  0
    2.3867    0.9317   11.7522 C   0  0  0  0  0  0  0  0  0  0  0  0
    1.9323    0.1773   12.3770 H   0  0  0  0  0  0  0  0  0  0  0  0
    5.5356    5.6378   13.1452 C   0  0  0  0  0  0  0  0  0  0  0  0
    4.9109    6.4734   13.4251 H   0  0  0  0  0  0  0  0  0  0  0  0
    3.1495    0.5603   10.6582 C   0  0  0  0  0  0  0  0  0  0  0  0
    3.3173   -0.4846   10.4432 H   0  0  0  0  0  0  0  0  0  0  0  0
    7.4077    6.7146    6.3058 C   0  0  0  0  0  0  0  0  0  0  0  0
    7.4844    5.6305    6.3653 H   0  0  0  0  0  0  0  0  0  0  0  0
    8.4186    7.1270    6.2930 H   0  0  0  0  0  0  0  0  0  0  0  0
    6.9246    6.9720    5.3674 H   0  0  0  0  0  0  0  0  0  0  0  0
    4.0944    5.3719   11.1198 C   0  0  2  0  0  0  0  0  0  0  0  0
    3.9723    6.4590   11.2277 H   0  0  0  0  0  0  0  0  0  0  0  0
    6.5880    5.2660   13.9612 C   0  0  0  0  0  0  0  0  0  0  0  0
    6.7742    5.8096   14.8756 H   0  0  0  0  0  0  0  0  0  0  0  0
    3.4608    2.8599    6.9794 C   0  0  0  0  0  0  0  0  0  0  0  0
    3.0502    1.9697    7.4300 H   0  0  0  0  0  0  0  0  0  0  0  0
    6.5468    8.1956   11.1302 C   0  0  0  0  0  0  0  0  0  0  0  0
    5.6617    8.5612   11.6476 H   0  0  0  0  0  0  0  0  0  0  0  0
    7.3322    8.9477   11.2341 H   0  0  0  0  0  0  0  0  0  0  0  0
    6.8832    7.2866   11.6228 H   0  0  0  0  0  0  0  0  0  0  0  0
    4.6678    9.9478    9.2079 C   0  0  0  0  0  0  0  0  0  0  0  0
    3.6396    9.8273    8.8670 H   0  0  0  0  0  0  0  0  0  0  0  0
    5.0806   10.8386    8.7312 H   0  0  0  0  0  0  0  0  0  0  0  0
    4.6601   10.0997   10.2844 H   0  0  0  0  0  0  0  0  0  0  0  0
    6.6650    7.2823    7.4768 C   0  0  1  0  0  3  0  0  0  0  0  0
    3.0698    4.3945   14.0688 C   0  0  0  0  0  0  0  0  0  0  0  0
    3.7315    3.5644   13.8692 H   0  0  0  0  0  0  0  0  0  0  0  0
    1.3874    6.5249   14.6056 C   0  0  0  0  0  0  0  0  0  0  0  0
    0.7319    7.3586   14.8100 H   0  0  0  0  0  0  0  0  0  0  0  0
    2.8245    4.7730   15.3766 C   0  0  0  0  0  0  0  0  0  0  0  0
    3.2962    4.2345   16.1857 H   0  0  0  0  0  0  0  0  0  0  0  0
    1.9840    5.8387   15.6496 C   0  0  0  0  0  0  0  0  0  0  0  0
    1.7952    6.1333   16.6713 H   0  0  0  0  0  0  0  0  0  0  0  0
  1  5  1  0  0  0  0
  1  3  1  0  0  0  0
  3 53  1  0  0  0  0
  4  6  1  0  0  0  0
  4  1  1  0  0  0  0
  5 39  1  0  0  0  0
  5 27  1  0  0  0  0
  6 12  1  0  0  0  0
  7 24  2  0  0  0  0
  7  9  1  0  0  0  0
  8  7  1  0  0  0  0
  9 25  2  0  0  0  0
 10  9  1  0  0  0  0
 11 63  1  0  0  0  0
 11 27  2  0  0  0  0
 12  3  1  0  0  0  0
 12 28  1  0  0  0  0
 13 16  1  0  0  0  0
 13 18  1  0  0  0  0
 14 13  1  0  0  0  0
 15 13  1  0  0  0  0
 17 29  2  0  0  0  0
 17 68  1  0  0  0  0
 18 67  1  0  0  0  0
 18  1  1  0  0  0  0
 18 11  1  0  0  0  0
 19 57  1  0  0  0  0
 20 19  1  0  0  0  0
 21 33  1  0  0  0  0
 21 35  1  0  0  0  0
 22 28  1  0  0  0  0
 22 47  2  0  0  0  0
 23 22  1  0  0  0  0
 24 45  1  0  0  0  0
 25 55  1  0  0  0  0
 25 26  1  0  0  0  0
 27 59  1  0  0  0  0
 28 21  2  0  0  0  0
 29 70  1  0  0  0  0
 30 29  1  0  0  0  0
 31  4  2  0  0  0  0
 32 31  1  0  0  0  0
 33 17  1  0  0  0  0
 34 33  1  0  0  0  0
 35 36  1  0  0  0  0
 37 19  2  0  0  0  0
 37 31  1  0  0  0  0
 38 37  1  0  0  0  0
 39 41  1  0  0  0  0
 39 40  1  0  0  0  0
 42 39  1  0  0  0  0
 43 35  2  0  0  0  0
 43 44  1  0  0  0  0
 45 46  1  0  0  0  0
 45 55  2  0  0  0  0
 47 43  1  0  0  0  0
 48 47  1  0  0  0  0
 49 50  1  0  0  0  0
 49 67  1  0  0  0  0
 51 49  1  0  0  0  0
 52 49  1  0  0  0  0
 53 54  1  0  0  0  0
 53 33  1  0  0  0  0
 53 24  1  0  0  0  0
 55 56  1  0  0  0  0
 57 58  1  0  0  0  0
 57  6  2  0  0  0  0
 59 61  1  0  0  0  0
 59 62  1  0  0  0  0
 59 60  1  0  0  0  0
 63 66  1  0  0  0  0
 64 63  1  0  0  0  0
 65 63  1  0  0  0  0
 67  5  1  0  0  0  0
 68 72  2  0  0  0  0
 69 68  1  0  0  0  0
 70 71  1  0  0  0  0
 70 74  2  0  0  0  0
 72 74  1  0  0  0  0
 72 73  1  0  0  0  0
 74 75  1  0  0  0  0
M  END
$$$$
