CSD_code = ARITAW | q = 0 | S = 0 | Stoichiometry = C18H18ClN3O3Pd | MND = 4
 OpenBabel04212202003D

 44 46  0  0  0  0  0  0  0  0999 V2000
    5.8377    0.3348    3.8237 Pd  0  0  2  0  0  0  0  0  0  0  0  0
    6.6225    1.7774    2.1373 Cl  0  0  0  0  0  0  0  0  0  0  0  0
    4.9882    4.3500    6.4207 O   0  0  0  0  0  0  0  0  0  0  0  0
    4.2658   -3.9823    6.7325 O   0  0  0  0  0  0  0  0  0  0  0  0
    3.8468    0.4921    8.5683 O   0  0  0  0  0  0  0  0  0  0  0  0
    5.4715    1.8217    5.0652 N   0  0  0  0  0  0  0  0  0  0  0  0
    6.1671   -1.1016    2.6450 N   0  0  0  0  0  2  0  0  0  0  0  0
    5.7466    3.0973    4.6694 N   0  0  0  0  0  0  0  0  0  0  0  0
    6.1810    3.0970    3.7326 H   0  0  0  0  0  0  0  0  0  0  0  0
    5.1158   -0.7472    5.3664 C   0  0  0  0  0  0  0  0  0  0  0  0
    4.9364   -2.1067    5.5184 C   0  0  0  0  0  0  0  0  0  0  0  0
    5.2086   -2.8109    4.7440 H   0  0  0  0  0  0  0  0  0  0  0  0
    4.3900   -2.6289    6.6997 C   0  0  0  0  0  0  0  0  0  0  0  0
    4.0139   -1.7852    7.7396 C   0  0  0  0  0  0  0  0  0  0  0  0
    3.5922   -2.1942    8.6423 H   0  0  0  0  0  0  0  0  0  0  0  0
    4.1832   -0.4108    7.6130 C   0  0  0  0  0  0  0  0  0  0  0  0
    4.7353    0.1088    6.4288 C   0  0  0  0  0  0  0  0  0  0  0  0
    4.9520    1.5096    6.2084 C   0  0  0  0  0  0  0  0  0  0  0  0
    4.6958    2.2547    6.9515 H   0  0  0  0  0  0  0  0  0  0  0  0
    5.4783    4.2735    5.3086 C   0  0  0  0  0  0  0  0  0  0  0  0
    5.8663    5.4780    4.5209 C   0  0  0  0  0  0  0  0  0  0  0  0
    6.1129    6.6466    5.2384 C   0  0  0  0  0  0  0  0  0  0  0  0
    6.0229    6.6175    6.3141 H   0  0  0  0  0  0  0  0  0  0  0  0
    6.4665    7.8111    4.5849 C   0  0  0  0  0  0  0  0  0  0  0  0
    6.6631    8.7096    5.1511 H   0  0  0  0  0  0  0  0  0  0  0  0
    6.5647    7.8233    3.2032 C   0  0  0  0  0  0  0  0  0  0  0  0
    6.8391    8.7321    2.6879 H   0  0  0  0  0  0  0  0  0  0  0  0
    6.3026    6.6698    2.4820 C   0  0  0  0  0  0  0  0  0  0  0  0
    6.3679    6.6814    1.4042 H   0  0  0  0  0  0  0  0  0  0  0  0
    5.9549    5.4980    3.1305 C   0  0  0  0  0  0  0  0  0  0  0  0
    5.7393    4.6208    2.5392 H   0  0  0  0  0  0  0  0  0  0  0  0
    3.7310   -4.5951    7.8802 C   0  0  0  0  0  0  0  0  0  0  0  0
    4.3440   -4.3971    8.7655 H   0  0  0  0  0  0  0  0  0  0  0  0
    3.7366   -5.6642    7.6731 H   0  0  0  0  0  0  0  0  0  0  0  0
    2.7024   -4.2707    8.0682 H   0  0  0  0  0  0  0  0  0  0  0  0
    3.2697    0.0397    9.7688 C   0  0  0  0  0  0  0  0  0  0  0  0
    2.3220   -0.4785    9.5900 H   0  0  0  0  0  0  0  0  0  0  0  0
    3.0825    0.9356   10.3585 H   0  0  0  0  0  0  0  0  0  0  0  0
    3.9489   -0.6189   10.3201 H   0  0  0  0  0  0  0  0  0  0  0  0
    6.4694   -1.6788    1.6959 C   0  0  0  0  0  2  0  0  0  0  0  0
    6.8346   -2.4252    0.5312 C   0  0  0  0  0  0  0  0  0  0  0  0
    7.5803   -3.1760    0.7920 H   0  0  0  0  0  0  0  0  0  0  0  0
    7.2504   -1.7474   -0.2146 H   0  0  0  0  0  0  0  0  0  0  0  0
    5.9539   -2.9174    0.1188 H   0  0  0  0  0  0  0  0  0  0  0  0
  1  2  1  6  0  0  0
  1  6  1  0  0  0  0
  1 10  2  0  0  0  0
  4 32  1  0  0  0  0
  5 36  1  0  0  0  0
  6 18  1  0  0  0  0
  7  1  1  0  0  0  0
  8  6  1  0  0  0  0
  8 20  1  0  0  0  0
  9  8  1  0  0  0  0
 10 11  1  0  0  0  0
 10 17  1  0  0  0  0
 11 13  2  0  0  0  0
 12 11  1  0  0  0  0
 13  4  1  0  0  0  0
 13 14  1  0  0  0  0
 14 15  1  0  0  0  0
 16 14  2  0  0  0  0
 16  5  1  0  0  0  0
 17 16  1  0  0  0  0
 18 17  2  0  0  0  0
 18 19  1  0  0  0  0
 20  3  2  0  0  0  0
 21 22  1  0  0  0  0
 21 20  1  0  0  0  0
 22 23  1  0  0  0  0
 24 25  1  0  0  0  0
 24 22  2  0  0  0  0
 26 24  1  0  0  0  0
 27 26  1  0  0  0  0
 28 30  1  0  0  0  0
 28 26  2  0  0  0  0
 29 28  1  0  0  0  0
 30 21  2  0  0  0  0
 31 30  1  0  0  0  0
 32 35  1  0  0  0  0
 32 33  1  0  0  0  0
 34 32  1  0  0  0  0
 36 39  1  0  0  0  0
 36 38  1  0  0  0  0
 37 36  1  0  0  0  0
 40  7  1  0  0  0  0
 41 42  1  0  0  0  0
 41 40  1  0  0  0  0
 43 41  1  0  0  0  0
 44 41  1  0  0  0  0
M  END
$$$$
