CSD_code = ARIVEE | q = 0 | S = 0 | Stoichiometry = C19H20BrN3Ni | MND = 4
 OpenBabel04212202003D

 44 48  0  0  1  0  0  0  0  0999 V2000
    3.1974   24.5582    0.3920 Br  0  0  0  0  0  0  0  0  0  0  0  0
    4.5816   24.5468    2.1260 Ni  0  0  2  0  0  0  0  0  0  0  0  0
    5.6343   24.4699    3.6642 N   0  0  0  0  0  0  0  0  0  0  0  0
    4.3573   26.4048    2.6058 N   0  0  0  0  0  0  0  0  0  0  0  0
    5.0891   22.5652    1.9339 N   0  0  0  0  0  4  0  0  0  0  0  0
    5.4939   25.5332    4.4889 C   0  0  0  0  0  0  0  0  0  0  0  0
    5.8390   25.6732    5.8320 C   0  0  0  0  0  0  0  0  0  0  0  0
    6.2368   24.8406    6.3879 H   0  0  0  0  0  0  0  0  0  0  0  0
    5.6293   26.8829    6.4883 C   0  0  0  0  0  0  0  0  0  0  0  0
    5.9172   26.9574    7.5273 H   0  0  0  0  0  0  0  0  0  0  0  0
    5.0780   27.9748    5.8613 C   0  0  0  0  0  0  0  0  0  0  0  0
    4.9452   28.9092    6.3837 H   0  0  0  0  0  0  0  0  0  0  0  0
    4.6422   27.8653    4.5295 C   0  0  0  0  0  0  0  0  0  0  0  0
    4.0076   28.8979    3.8109 C   0  0  0  0  0  0  0  0  0  0  0  0
    3.8554   29.8574    4.2836 H   0  0  0  0  0  0  0  0  0  0  0  0
    3.5908   28.6615    2.5284 C   0  0  0  0  0  0  0  0  0  0  0  0
    3.1069   29.4282    1.9444 H   0  0  0  0  0  0  0  0  0  0  0  0
    3.7727   27.3962    1.9587 C   0  0  0  0  0  0  0  0  0  0  0  0
    3.4140   27.2061    0.9569 H   0  0  0  0  0  0  0  0  0  0  0  0
    4.8214   26.6291    3.8623 C   0  0  2  0  0  3  0  0  0  0  0  0
    6.3721   23.3365    3.8585 C   0  0  0  0  0  0  0  0  0  0  0  0
    7.4229   23.1570    4.7693 C   0  0  0  0  0  0  0  0  0  0  0  0
    7.7714   23.9832    5.3663 H   0  0  0  0  0  0  0  0  0  0  0  0
    8.0524   21.9333    4.8660 C   0  0  0  0  0  0  0  0  0  0  0  0
    8.8569   21.8092    5.5761 H   0  0  0  0  0  0  0  0  0  0  0  0
    7.6725   20.8687    4.0651 C   0  0  0  0  0  0  0  0  0  0  0  0
    8.1589   19.9107    4.1620 H   0  0  0  0  0  0  0  0  0  0  0  0
    6.6885   21.0510    3.1060 C   0  0  0  0  0  0  0  0  0  0  0  0
    6.4307   20.2304    2.4518 H   0  0  0  0  0  0  0  0  0  0  0  0
    6.0648   22.2766    2.9851 C   0  0  0  0  0  0  0  0  0  0  0  0
    5.7301   22.3772    0.6159 C   0  0  0  0  0  0  0  0  0  0  0  0
    4.9597   22.4436   -0.1560 H   0  0  0  0  0  0  0  0  0  0  0  0
    6.1956   21.3871    0.5542 H   0  0  0  0  0  0  0  0  0  0  0  0
    6.7751   23.4623    0.3828 C   0  0  0  0  0  0  0  0  0  0  0  0
    6.3212   24.4543    0.5510 H   0  0  0  0  0  0  0  0  0  0  0  0
    7.1346   23.4250   -0.6418 H   0  0  0  0  0  0  0  0  0  0  0  0
    7.6192   23.3472    1.0603 H   0  0  0  0  0  0  0  0  0  0  0  0
    3.9055   21.6990    2.0931 C   0  0  0  0  0  0  0  0  0  0  0  0
    4.2103   20.6514    2.1987 H   0  0  0  0  0  0  0  0  0  0  0  0
    3.2858   21.7907    1.1976 H   0  0  0  0  0  0  0  0  0  0  0  0
    3.1017   22.1378    3.3110 C   0  0  0  0  0  0  0  0  0  0  0  0
    3.6567   21.9625    4.2309 H   0  0  0  0  0  0  0  0  0  0  0  0
    2.1601   21.5977    3.3574 H   0  0  0  0  0  0  0  0  0  0  0  0
    2.8765   23.2134    3.2343 H   0  0  0  0  0  0  0  0  0  0  0  0
  2  1  1  1  0  0  0
  2  4  1  0  0  0  0
  2  3  1  0  0  0  0
  3 21  1  0  0  0  0
  3  6  1  0  0  0  0
  4 20  1  0  0  0  0
  5 38  1  0  0  0  0
  5  2  1  0  0  0  0
  5 30  1  0  0  0  0
  6  7  2  0  0  0  0
  7  8  1  0  0  0  0
  7  9  1  0  0  0  0
  9 10  1  0  0  0  0
 11 12  1  0  0  0  0
 11  9  2  0  0  0  0
 13 11  1  0  0  0  0
 14 15  1  0  0  0  0
 14 13  2  0  0  0  0
 16 14  1  0  0  0  0
 17 16  1  0  0  0  0
 18 16  2  0  0  0  0
 18  4  1  0  0  0  0
 19 18  1  0  0  0  0
 20  6  1  1  0  0  0
 20 13  1  0  0  0  0
 21 22  1  0  0  0  0
 22 24  2  0  0  0  0
 22 23  1  0  0  0  0
 24 25  1  0  0  0  0
 26 27  1  0  0  0  0
 26 24  1  0  0  0  0
 28 26  2  0  0  0  0
 29 28  1  0  0  0  0
 30 28  1  0  0  0  0
 30 21  2  0  0  0  0
 31  5  1  0  0  0  0
 32 31  1  0  0  0  0
 33 31  1  0  0  0  0
 34 35  1  0  0  0  0
 34 31  1  0  0  0  0
 34 37  1  0  0  0  0
 36 34  1  0  0  0  0
 38 39  1  0  0  0  0
 38 41  1  0  0  0  0
 40 38  1  0  0  0  0
 41 43  1  0  0  0  0
 41 42  1  0  0  0  0
 44 41  1  0  0  0  0
M  END
$$$$
