CSD_code = AROFAQ | q = 0 | S = 0 | Stoichiometry = C27H34Cl2N3O2Rh | MND = 6
 OpenBabel04212202003D

 69 73  0  0  1  0  0  0  0  0999 V2000
   10.3901    0.4059    1.2235 Rh  0  0  0  0  0  0  0  0  0  0  0  0
    8.5077    1.6456    1.5849 Cl  0  0  0  0  0  0  0  0  0  0  0  0
   12.2922   -0.8701    0.9100 Cl  0  0  0  0  0  0  0  0  0  0  0  0
    9.3607   -1.1709    0.4251 N   0  0  1  0  0  0  0  0  0  0  0  0
   11.7953    2.9929    0.9751 N   0  0  0  0  0  0  0  0  0  0  0  0
   12.2605    2.1202    2.8805 N   0  0  0  0  0  0  0  0  0  0  0  0
    8.8877   -2.2509   -1.4625 O   0  0  0  0  0  0  0  0  0  0  0  0
   10.3114   -0.9251    3.2829 O   0  0  0  0  0  0  0  0  0  0  0  0
   10.3952    0.9863   -0.6689 C   0  0  0  0  0  0  0  0  0  0  0  0
    9.9266   -0.0119   -1.5438 C   0  0  0  0  0  0  0  0  0  0  0  0
    9.9395    0.1724   -2.9300 C   0  0  0  0  0  0  0  0  0  0  0  0
   10.4012    1.3866   -3.4074 C   0  0  0  0  0  0  0  0  0  0  0  0
   10.4209    1.5522   -4.4752 H   0  0  0  0  0  0  0  0  0  0  0  0
   10.8074    2.4132   -2.5641 C   0  0  0  0  0  0  0  0  0  0  0  0
   10.8099    2.2081   -1.1796 C   0  0  0  0  0  0  0  0  0  0  0  0
    9.4612   -0.8889   -3.8674 C   0  0  0  0  0  0  0  0  0  0  0  0
    8.4077   -1.1011   -3.6931 H   0  0  0  0  0  0  0  0  0  0  0  0
   10.0093   -1.8148   -3.7054 H   0  0  0  0  0  0  0  0  0  0  0  0
    9.5919   -0.5743   -4.9001 H   0  0  0  0  0  0  0  0  0  0  0  0
   11.2182    3.7262   -3.1647 C   0  0  0  0  0  0  0  0  0  0  0  0
   11.1279    3.6877   -4.2471 H   0  0  0  0  0  0  0  0  0  0  0  0
   12.2541    3.9611   -2.9207 H   0  0  0  0  0  0  0  0  0  0  0  0
   10.5863    4.5337   -2.7976 H   0  0  0  0  0  0  0  0  0  0  0  0
    9.3937   -1.1685   -0.8602 C   0  0  1  0  0  3  0  0  0  0  0  0
    8.4834   -3.1502   -0.4299 C   0  0  0  0  0  0  0  0  0  0  0  0
    9.0861   -4.0594   -0.5120 H   0  0  0  0  0  0  0  0  0  0  0  0
    7.4329   -3.4023   -0.5882 H   0  0  0  0  0  0  0  0  0  0  0  0
    8.7381   -2.3906    0.8925 C   0  0  2  0  0  0  0  0  0  0  0  0
    9.4501   -2.9318    1.5276 H   0  0  0  0  0  0  0  0  0  0  0  0
    6.4335   -1.3029    0.9570 C   0  0  0  0  0  0  0  0  0  0  0  0
    6.8525   -0.3740    0.5773 H   0  0  0  0  0  0  0  0  0  0  0  0
    5.6048   -1.0505    1.6139 H   0  0  0  0  0  0  0  0  0  0  0  0
    6.0399   -1.8804    0.1224 H   0  0  0  0  0  0  0  0  0  0  0  0
    7.4899   -2.0773    1.7397 C   0  0  0  0  0  0  0  0  0  0  0  0
    7.8406   -1.4344    2.5542 H   0  0  0  0  0  0  0  0  0  0  0  0
    6.9175   -3.3606    2.3336 C   0  0  0  0  0  0  0  0  0  0  0  0
    6.0754   -3.1272    2.9803 H   0  0  0  0  0  0  0  0  0  0  0  0
    7.6691   -3.8808    2.9233 H   0  0  0  0  0  0  0  0  0  0  0  0
    6.5696   -4.0324    1.5511 H   0  0  0  0  0  0  0  0  0  0  0  0
   11.1319    3.3566   -0.2543 C   0  0  0  0  0  0  0  0  0  0  0  0
   11.7666    4.0884   -0.7560 H   0  0  0  0  0  0  0  0  0  0  0  0
   10.1791    3.8410    0.0069 H   0  0  0  0  0  0  0  0  0  0  0  0
   11.5119    1.9442    1.7696 C   0  0  2  0  0  3  0  0  0  0  0  0
   13.0048    3.2652    2.7769 C   0  0  0  0  0  0  0  0  0  0  0  0
   13.6619    3.5876    3.5584 H   0  0  0  0  0  0  0  0  0  0  0  0
   12.7097    3.8132    1.5780 C   0  0  0  0  0  0  0  0  0  0  0  0
   13.0726    4.7084    1.1160 H   0  0  0  0  0  0  0  0  0  0  0  0
   12.2208    1.3390    4.0665 C   0  0  0  0  0  0  0  0  0  0  0  0
   11.1646    1.5458    4.9605 C   0  0  0  0  0  0  0  0  0  0  0  0
   11.1299    0.7824    6.1210 C   0  0  0  0  0  0  0  0  0  0  0  0
   10.3180    0.9265    6.8190 H   0  0  0  0  0  0  0  0  0  0  0  0
   12.1194   -0.1501    6.4069 C   0  0  0  0  0  0  0  0  0  0  0  0
   13.1703   -0.3058    5.5139 C   0  0  0  0  0  0  0  0  0  0  0  0
   13.9526   -1.0170    5.7354 H   0  0  0  0  0  0  0  0  0  0  0  0
   13.2475    0.4341    4.3409 C   0  0  0  0  0  0  0  0  0  0  0  0
   10.0986    2.5514    4.6652 C   0  0  0  0  0  0  0  0  0  0  0  0
   10.5354    3.5243    4.4421 H   0  0  0  0  0  0  0  0  0  0  0  0
    9.4261    2.6563    5.5119 H   0  0  0  0  0  0  0  0  0  0  0  0
    9.5115    2.2488    3.7943 H   0  0  0  0  0  0  0  0  0  0  0  0
   12.0685   -0.9477    7.6737 C   0  0  0  0  0  0  0  0  0  0  0  0
   12.5866   -0.4124    8.4700 H   0  0  0  0  0  0  0  0  0  0  0  0
   12.5551   -1.9116    7.5453 H   0  0  0  0  0  0  0  0  0  0  0  0
   11.0407   -1.1078    7.9907 H   0  0  0  0  0  0  0  0  0  0  0  0
   14.3779    0.2481    3.3833 C   0  0  0  0  0  0  0  0  0  0  0  0
   13.9967   -0.1733    2.4502 H   0  0  0  0  0  0  0  0  0  0  0  0
   15.1226   -0.4276    3.7942 H   0  0  0  0  0  0  0  0  0  0  0  0
   14.8554    1.1977    3.1480 H   0  0  0  0  0  0  0  0  0  0  0  0
   11.1543   -1.3602    3.0820 H   0  0  0  0  0  0  0  0  0  0  0  0
   10.4127   -0.4628    4.1221 H   0  0  0  0  0  0  0  0  0  0  0  0
  1  2  1  0  0  0  0
  1 43  1  0  0  0  0
  3  1  1  0  0  0  0
  4 28  1  0  0  0  0
  4  1  1  1  0  0  0
  5 46  1  0  0  0  0
  6 48  1  0  0  0  0
  7 24  1  0  0  0  0
  7 25  1  0  0  0  0
  8 69  1  0  0  0  0
  9  1  1  0  0  0  0
 10  9  2  0  0  0  0
 11 10  1  0  0  0  0
 12 11  2  0  0  0  0
 12 14  1  0  0  0  0
 13 12  1  0  0  0  0
 14 15  2  0  0  0  0
 15  9  1  0  0  0  0
 15 40  1  0  0  0  0
 16 18  1  0  0  0  0
 16 17  1  0  0  0  0
 16 11  1  0  0  0  0
 19 16  1  0  0  0  0
 20 22  1  0  0  0  0
 20 23  1  0  0  0  0
 20 14  1  0  0  0  0
 21 20  1  0  0  0  0
 24 10  1  6  0  0  0
 24  4  1  0  0  0  0
 25 28  1  0  0  0  0
 26 25  1  0  0  0  0
 27 25  1  0  0  0  0
 28 29  1  1  0  0  0
 28 34  1  0  0  0  0
 30 32  1  0  0  0  0
 30 34  1  0  0  0  0
 31 30  1  0  0  0  0
 33 30  1  0  0  0  0
 34 36  1  0  0  0  0
 34 35  1  0  0  0  0
 36 38  1  0  0  0  0
 36 37  1  0  0  0  0
 39 36  1  0  0  0  0
 40 42  1  0  0  0  0
 40  5  1  0  0  0  0
 41 40  1  0  0  0  0
 43  5  1  6  0  0  0
 43  6  1  0  0  0  0
 44  6  1  0  0  0  0
 44 45  1  0  0  0  0
 46 44  2  0  0  0  0
 47 46  1  0  0  0  0
 48 55  2  0  0  0  0
 48 49  1  0  0  0  0
 49 50  2  0  0  0  0
 50 52  1  0  0  0  0
 50 51  1  0  0  0  0
 52 60  1  0  0  0  0
 53 54  1  0  0  0  0
 53 52  2  0  0  0  0
 55 53  1  0  0  0  0
 56 49  1  0  0  0  0
 56 58  1  0  0  0  0
 57 56  1  0  0  0  0
 59 56  1  0  0  0  0
 60 63  1  0  0  0  0
 60 61  1  0  0  0  0
 62 60  1  0  0  0  0
 64 66  1  0  0  0  0
 64 55  1  0  0  0  0
 65 64  1  0  0  0  0
 67 64  1  0  0  0  0
 68  8  1  0  0  0  0
M  END
$$$$
