CSD_code = AROGOF | q = 0 | S = 0 | Stoichiometry = C15H7Cl7OTi | MND = 8
 OpenBabel04212202003D

 31 34  0  0  1  0  0  0  0  0999 V2000
    2.4752    3.4921    5.0311 Ti  0  0  0  0  0  0  0  0  0  0  0  0
    1.0415    5.0931    5.3054 Cl  0  0  0  0  0  0  0  0  0  0  0  0
    4.1988    6.1162    6.9231 Cl  0  0  0  0  0  0  0  0  0  0  0  0
    6.9243    6.1950    8.6699 Cl  0  0  0  0  0  0  0  0  0  0  0  0
    8.2008    3.4925    9.5350 Cl  0  0  0  0  0  0  0  0  0  0  0  0
    3.2369    3.5145    6.5385 O   0  0  0  0  0  0  0  0  0  0  0  0
    4.5465    3.4935    3.9854 C   0  0  0  0  0  3  0  0  0  0  0  0
    3.8322    4.6475    3.5909 C   0  0  1  0  0  0  0  0  0  0  0  0
    2.6986    4.2175    2.8258 C   0  0  0  0  0  0  0  0  0  0  0  0
    1.7071    4.9198    2.1103 C   0  0  0  0  0  0  0  0  0  0  0  0
    0.7577    4.2038    1.4277 C   0  0  0  0  0  0  0  0  0  0  0  0
    4.3610    3.5100    7.1988 C   0  0  0  0  0  0  0  0  0  0  0  0
    4.9860    4.7185    7.5329 C   0  0  0  0  0  0  0  0  0  0  0  0
    6.1722    4.7187    8.2559 C   0  0  0  0  0  0  0  0  0  0  0  0
    6.7490    3.4991    8.6284 C   0  0  0  0  0  0  0  0  0  0  0  0
    5.5214    3.4921    4.4638 H   0  0  0  0  0  0  0  0  0  0  0  0
    4.1815    5.6694    3.6742 H   0  0  0  0  0  0  0  0  0  0  0  0
    1.7146    6.0013    2.0932 H   0  0  0  0  0  0  0  0  0  0  0  0
   -0.0054    4.7239    0.8686 H   0  0  0  0  0  0  0  0  0  0  0  0
    4.1881    0.9081    6.8984 Cl  0  0  0  0  0  0  0  0  0  0  0  0
    6.9146    0.8024    8.6457 Cl  0  0  0  0  0  0  0  0  0  0  0  0
    4.9817    2.2963    7.5219 C   0  0  0  0  0  0  0  0  0  0  0  0
    6.1678    2.2850    8.2450 C   0  0  0  0  0  0  0  0  0  0  0  0
    3.8303    2.3417    3.5881 C   0  0  2  0  0  0  0  0  0  0  0  0
    2.6973    2.7757    2.8243 C   0  0  0  0  0  0  0  0  0  0  0  0
    1.7035    2.0766    2.1086 C   0  0  0  0  0  0  0  0  0  0  0  0
    0.7556    2.7958    1.4274 C   0  0  0  0  0  0  0  0  0  0  0  0
    4.1779    1.3189    3.6683 H   0  0  0  0  0  0  0  0  0  0  0  0
    1.7075    0.9951    2.0912 H   0  0  0  0  0  0  0  0  0  0  0  0
   -0.0091    2.2782    0.8680 H   0  0  0  0  0  0  0  0  0  0  0  0
    1.0625    1.8768    5.3224 Cl  0  0  0  0  0  0  0  0  0  0  0  0
  1  2  1  0  0  0  0
  1 31  1  0  0  0  0
  1  6  1  0  0  0  0
  3 13  1  0  0  0  0
  6 12  1  0  0  0  0
  7 16  1  0  0  0  0
  8 17  1  1  0  0  0
  8  7  1  0  0  0  0
  8  1  1  0  0  0  0
  9  8  1  0  0  0  0
 10  9  2  0  0  0  0
 11 10  1  0  0  0  0
 12 22  2  0  0  0  0
 12 13  1  0  0  0  0
 13 14  2  0  0  0  0
 14 15  1  0  0  0  0
 14  4  1  0  0  0  0
 15  5  1  0  0  0  0
 18 10  1  0  0  0  0
 19 11  1  0  0  0  0
 20 22  1  0  0  0  0
 22 23  1  0  0  0  0
 23 15  2  0  0  0  0
 23 21  1  0  0  0  0
 24 28  1  1  0  0  0
 24  7  1  0  0  0  0
 24  1  1  0  0  0  0
 25  9  1  0  0  0  0
 25 24  1  0  0  0  0
 26 25  2  0  0  0  0
 27 11  2  0  0  0  0
 27 26  1  0  0  0  0
 29 26  1  0  0  0  0
 30 27  1  0  0  0  0
M  END
$$$$
