CSD_code = AROHIA | q = 0 | S = 0 | Stoichiometry = C23H19Cl3N4OZr | MND = 10
 OpenBabel04212202003D

 51 55  0  0  1  0  0  0  0  0999 V2000
    4.9767    9.8658    3.3182 Zr  0  0  0  0  0  0  0  0  0  0  0  0
    7.2301   10.0627    4.2168 Cl  0  0  0  0  0  0  0  0  0  0  0  0
    4.9147   12.2084    3.0491 Cl  0  0  0  0  0  0  0  0  0  0  0  0
    3.6744    9.5901    1.3122 Cl  0  0  0  0  0  0  0  0  0  0  0  0
    5.5815    7.9310    2.8684 O   0  0  0  0  0  0  0  0  0  0  0  0
    6.5817    7.7334    2.1326 C   0  0  0  0  0  0  0  0  0  0  0  0
    7.1440    6.5572    1.9595 N   0  0  0  0  0  2  0  0  0  0  0  0
    7.1747    5.5046    2.7321 C   0  0  1  0  0  3  0  0  0  0  0  0
    7.1643    4.2642    2.2520 N   0  0  0  0  0  0  0  0  0  0  0  0
    7.2787    3.5702    2.9947 H   0  0  0  0  0  0  0  0  0  0  0  0
    3.0844    8.6506    4.3861 C   0  0  0  0  0  0  0  0  0  0  0  0
    2.4894    7.9351    3.8310 H   0  0  0  0  0  0  0  0  0  0  0  0
    2.8214   10.0356    4.4982 C   0  0  1  0  0  0  0  0  0  0  0  0
    1.9874   10.5641    4.0486 H   0  0  0  0  0  0  0  0  0  0  0  0
    3.7609   10.5833    5.4045 C   0  0  0  0  0  0  0  0  0  0  0  0
    3.7705   11.6039    5.7700 H   0  0  0  0  0  0  0  0  0  0  0  0
    4.6057    9.5431    5.8397 C   0  0  0  0  0  0  0  0  0  0  0  0
    5.3770    9.6295    6.5946 H   0  0  0  0  0  0  0  0  0  0  0  0
    4.1870    8.3479    5.2162 C   0  0  0  0  0  0  0  0  0  0  0  0
    4.5770    7.3568    5.4161 H   0  0  0  0  0  0  0  0  0  0  0  0
    7.0725    8.8417    1.2725 C   0  0  0  0  0  0  0  0  0  0  0  0
    6.4705   10.0147    1.5015 N   0  0  0  0  0  0  0  0  0  0  0  0
    6.8083   11.0597    0.7604 C   0  0  0  0  0  0  0  0  0  0  0  0
    6.2908   11.9881    0.9826 H   0  0  0  0  0  0  0  0  0  0  0  0
    7.7723   10.9812   -0.2386 C   0  0  0  0  0  0  0  0  0  0  0  0
    8.0199   11.8577   -0.8159 H   0  0  0  0  0  0  0  0  0  0  0  0
    8.4042    9.7702   -0.4718 C   0  0  0  0  0  0  0  0  0  0  0  0
    9.1604    9.6794   -1.2371 H   0  0  0  0  0  0  0  0  0  0  0  0
    8.0464    8.6725    0.2956 C   0  0  0  0  0  0  0  0  0  0  0  0
    8.4998    7.7040    0.1559 H   0  0  0  0  0  0  0  0  0  0  0  0
    7.3627    5.5693    4.1993 C   0  0  0  0  0  0  0  0  0  0  0  0
    7.2845    4.3818    4.8118 N   0  0  0  0  0  0  0  0  0  0  0  0
    7.3811    4.3379    6.1238 C   0  0  0  0  0  0  0  0  0  0  0  0
    7.3067    3.3518    6.5631 H   0  0  0  0  0  0  0  0  0  0  0  0
    7.5603    5.4707    6.9104 C   0  0  0  0  0  0  0  0  0  0  0  0
    7.6173    5.3865    7.9839 H   0  0  0  0  0  0  0  0  0  0  0  0
    7.6702    6.6964    6.2759 C   0  0  0  0  0  0  0  0  0  0  0  0
    7.8249    7.6061    6.8347 H   0  0  0  0  0  0  0  0  0  0  0  0
    7.5806    6.7558    4.8915 C   0  0  0  0  0  0  0  0  0  0  0  0
    7.6835    7.7076    4.3912 H   0  0  0  0  0  0  0  0  0  0  0  0
    6.9637    3.7796    0.9614 C   0  0  0  0  0  0  0  0  0  0  0  0
    6.6877    4.6000   -0.1293 C   0  0  0  0  0  0  0  0  0  0  0  0
    6.6061    5.6649    0.0075 H   0  0  0  0  0  0  0  0  0  0  0  0
    6.5096    4.0375   -1.3805 C   0  0  0  0  0  0  0  0  0  0  0  0
    6.2935    4.6785   -2.2215 H   0  0  0  0  0  0  0  0  0  0  0  0
    6.5988    2.6671   -1.5590 C   0  0  0  0  0  0  0  0  0  0  0  0
    6.4560    2.2370   -2.5381 H   0  0  0  0  0  0  0  0  0  0  0  0
    6.8668    1.8487   -0.4727 C   0  0  0  0  0  0  0  0  0  0  0  0
    6.9329    0.7793   -0.6030 H   0  0  0  0  0  0  0  0  0  0  0  0
    7.0487    2.3984    0.7807 C   0  0  0  0  0  0  0  0  0  0  0  0
    7.2572    1.7623    1.6290 H   0  0  0  0  0  0  0  0  0  0  0  0
  1  2  1  0  0  0  0
  1 13  1  0  0  0  0
  3  1  1  0  0  0  0
  4  1  1  0  0  0  0
  5  1  1  0  0  0  0
  6  5  1  0  0  0  0
  7  6  1  0  0  0  0
  8  7  1  6  0  0  0
  8 31  1  0  0  0  0
  9  8  1  0  0  0  0
  9 10  1  0  0  0  0
 11 13  1  0  0  0  0
 11 19  2  0  0  0  0
 12 11  1  0  0  0  0
 13 14  1  6  0  0  0
 13 15  1  0  0  0  0
 15 16  1  0  0  0  0
 15 17  2  0  0  0  0
 17 18  1  0  0  0  0
 19 20  1  0  0  0  0
 19 17  1  0  0  0  0
 21 22  1  0  0  0  0
 21  6  2  0  0  0  0
 22  1  1  0  0  0  0
 23 24  1  0  0  0  0
 23 22  1  0  0  0  0
 25 23  2  0  0  0  0
 26 25  1  0  0  0  0
 27 25  1  0  0  0  0
 27 29  2  0  0  0  0
 28 27  1  0  0  0  0
 29 21  1  0  0  0  0
 30 29  1  0  0  0  0
 31 32  2  0  0  0  0
 31 39  1  0  0  0  0
 32 33  1  0  0  0  0
 33 34  1  0  0  0  0
 33 35  2  0  0  0  0
 35 36  1  0  0  0  0
 37 38  1  0  0  0  0
 37 35  1  0  0  0  0
 39 37  2  0  0  0  0
 40 39  1  0  0  0  0
 41  9  1  0  0  0  0
 42 43  1  0  0  0  0
 42 41  2  0  0  0  0
 44 42  1  0  0  0  0
 45 44  1  0  0  0  0
 46 44  2  0  0  0  0
 46 48  1  0  0  0  0
 47 46  1  0  0  0  0
 48 50  2  0  0  0  0
 49 48  1  0  0  0  0
 50 41  1  0  0  0  0
 50 51  1  0  0  0  0
M  END
$$$$
