CSD_code = AROJUM | q = 1 | S = 0 | Stoichiometry = C8H19ClN4ORe(1+) | MND = 6
 OpenBabel04212202003D

 34 37  0  0  1  0  0  0  0  0999 V2000
   -4.1941    7.2643   11.8057 Re  0  0  0  0  0  0  0  0  0  0  0  0
   -4.4948    7.7852   14.0803 Cl  0  0  0  0  0  0  0  0  0  0  0  0
   -3.3868    5.8662   12.2293 O   0  0  0  0  0  1  0  0  0  0  0  0
   -4.3009    7.4493    9.9263 N   0  0  2  0  0  0  0  0  0  0  0  0
   -2.6530    8.7876   11.4661 N   0  0  1  0  0  4  0  0  0  0  0  0
   -1.8691    8.6087   12.0981 H   0  0  0  0  0  0  0  0  0  0  0  0
   -5.3521    9.2701   11.7920 N   0  0  1  0  0  4  0  0  0  0  0  0
   -5.4128    9.3753   12.8148 H   0  0  0  0  0  0  0  0  0  0  0  0
   -3.3195    8.1748    9.1570 C   0  0  0  0  0  0  0  0  0  0  0  0
   -3.7737    9.0614    8.6882 H   0  0  0  0  0  0  0  0  0  0  0  0
   -2.9327    7.5502    8.3420 H   0  0  0  0  0  0  0  0  0  0  0  0
   -2.1603    8.5601   10.0852 C   0  0  0  0  0  0  0  0  0  0  0  0
   -1.6318    9.4407    9.7108 H   0  0  0  0  0  0  0  0  0  0  0  0
   -1.4653    7.7191   10.1317 H   0  0  0  0  0  0  0  0  0  0  0  0
   -3.1209   10.1594   11.7608 C   0  0  0  0  0  0  0  0  0  0  0  0
   -2.4447   10.8975   11.3189 H   0  0  0  0  0  0  0  0  0  0  0  0
   -3.1141   10.2806   12.8477 H   0  0  0  0  0  0  0  0  0  0  0  0
   -4.5528   10.3736   11.2640 C   0  0  0  0  0  0  0  0  0  0  0  0
   -4.9159   11.3502   11.6057 H   0  0  0  0  0  0  0  0  0  0  0  0
   -4.5954   10.3628   10.1723 H   0  0  0  0  0  0  0  0  0  0  0  0
   -6.2838    6.6914   11.4661 N   0  0  2  0  0  4  0  0  0  0  0  0
   -6.5208    5.9230   12.0981 H   0  0  0  0  0  0  0  0  0  0  0  0
   -6.3331    6.1510   10.0852 C   0  0  0  0  0  0  0  0  0  0  0  0
   -5.4199    6.9621    9.1570 C   0  0  0  0  0  0  0  0  0  0  0  0
   -5.9606    7.7988    8.6882 H   0  0  0  0  0  0  0  0  0  0  0  0
   -5.0724    6.3149    8.3420 H   0  0  0  0  0  0  0  0  0  0  0  0
   -7.3600    6.1336    9.7109 H   0  0  0  0  0  0  0  0  0  0  0  0
   -5.9523    5.1286   10.1317 H   0  0  0  0  0  0  0  0  0  0  0  0
   -7.2378    7.7825   11.7608 C   0  0  0  0  0  0  0  0  0  0  0  0
   -8.2152    7.5660   11.3189 H   0  0  0  0  0  0  0  0  0  0  0  0
   -7.3462    7.8372   12.8477 H   0  0  0  0  0  0  0  0  0  0  0  0
   -6.7074    9.1296   11.2640 C   0  0  0  0  0  0  0  0  0  0  0  0
   -7.3716    9.9324   11.6057 H   0  0  0  0  0  0  0  0  0  0  0  0
   -6.6767    9.1611   10.1723 H   0  0  0  0  0  0  0  0  0  0  0  0
  1  3  1  0  0  0  0
  1  2  1  0  0  0  0
  4  9  1  1  0  0  0
  4  1  1  0  0  0  0
  5 15  1  0  0  0  0
  5  1  1  0  0  0  0
  5  6  1  1  0  0  0
  7  1  1  0  0  0  0
  7  8  1  1  0  0  0
  9 12  1  0  0  0  0
 10  9  1  0  0  0  0
 11  9  1  0  0  0  0
 12 14  1  0  0  0  0
 12  5  1  0  0  0  0
 13 12  1  0  0  0  0
 15 17  1  0  0  0  0
 16 15  1  0  0  0  0
 18 19  1  0  0  0  0
 18 15  1  0  0  0  0
 18  7  1  0  0  0  0
 20 18  1  0  0  0  0
 21 29  1  0  0  0  0
 21  1  1  0  0  0  0
 21 22  1  1  0  0  0
 23 28  1  0  0  0  0
 23 21  1  0  0  0  0
 24  4  1  0  0  0  0
 24 23  1  0  0  0  0
 25 24  1  0  0  0  0
 26 24  1  0  0  0  0
 27 23  1  0  0  0  0
 29 31  1  0  0  0  0
 30 29  1  0  0  0  0
 32 33  1  0  0  0  0
 32 29  1  0  0  0  0
 32  7  1  0  0  0  0
 34 32  1  0  0  0  0
M  END
$$$$
