CSD_code = AROKAT | q = 1 | S = 0 | Stoichiometry = C8H19IN4ORe(1+) | MND = 6
 OpenBabel04212202003D

 34 37  0  0  1  0  0  0  0  0999 V2000
   -0.0000   11.6013    0.9239 Re  0  0  0  0  0  0  0  0  0  0  0  0
   -0.0000   11.1940   -1.7575 I   0  0  0  0  0  0  0  0  0  0  0  0
    0.0000    9.1880    0.8849 N   0  0  2  0  0  4  0  0  0  0  0  0
    0.0000    8.9557   -0.1142 H   0  0  0  0  0  0  0  0  0  0  0  0
   -2.1149   11.0043    1.2670 N   0  0  1  0  0  4  0  0  0  0  0  0
   -2.7230   11.5440    0.6438 H   0  0  0  0  0  0  0  0  0  0  0  0
   -2.3880    9.5777    0.9815 C   0  0  0  0  0  0  0  0  0  0  0  0
   -2.4894    9.4678   -0.1027 H   0  0  0  0  0  0  0  0  0  0  0  0
   -3.3296    9.2718    1.4478 H   0  0  0  0  0  0  0  0  0  0  0  0
    0.0000   11.2774    2.7930 N   0  0  2  0  0  0  0  0  0  0  0  0
   -1.2466    8.6730    1.4583 C   0  0  0  0  0  0  0  0  0  0  0  0
   -1.1719    8.6825    2.5474 H   0  0  0  0  0  0  0  0  0  0  0  0
   -1.4488    7.6423    1.1441 H   0  0  0  0  0  0  0  0  0  0  0  0
   -2.4098   11.4460    2.6508 C   0  0  0  0  0  0  0  0  0  0  0  0
   -2.5756   12.5255    2.6103 H   0  0  0  0  0  0  0  0  0  0  0  0
   -3.3143   10.9618    3.0293 H   0  0  0  0  0  0  0  0  0  0  0  0
   -1.2113   11.1731    3.5675 C   0  0  0  0  0  0  0  0  0  0  0  0
   -1.2092   11.9108    4.3807 H   0  0  0  0  0  0  0  0  0  0  0  0
   -1.2834   10.1820    4.0429 H   0  0  0  0  0  0  0  0  0  0  0  0
    0.0000   13.2421    0.6348 O   0  0  0  0  0  1  0  0  0  0  0  0
    2.1149   11.0043    1.2670 N   0  0  2  0  0  4  0  0  0  0  0  0
    2.7230   11.5440    0.6438 H   0  0  0  0  0  0  0  0  0  0  0  0
    2.3880    9.5777    0.9815 C   0  0  0  0  0  0  0  0  0  0  0  0
    2.4894    9.4678   -0.1027 H   0  0  0  0  0  0  0  0  0  0  0  0
    3.3296    9.2718    1.4478 H   0  0  0  0  0  0  0  0  0  0  0  0
    1.2466    8.6730    1.4583 C   0  0  0  0  0  0  0  0  0  0  0  0
    1.1719    8.6825    2.5474 H   0  0  0  0  0  0  0  0  0  0  0  0
    1.4488    7.6423    1.1441 H   0  0  0  0  0  0  0  0  0  0  0  0
    2.4098   11.4460    2.6508 C   0  0  0  0  0  0  0  0  0  0  0  0
    2.5756   12.5255    2.6103 H   0  0  0  0  0  0  0  0  0  0  0  0
    3.3143   10.9618    3.0293 H   0  0  0  0  0  0  0  0  0  0  0  0
    1.2113   11.1731    3.5675 C   0  0  0  0  0  0  0  0  0  0  0  0
    1.2092   11.9108    4.3807 H   0  0  0  0  0  0  0  0  0  0  0  0
    1.2834   10.1820    4.0429 H   0  0  0  0  0  0  0  0  0  0  0  0
  1  5  1  0  0  0  0
  1 21  1  0  0  0  0
  1 10  1  0  0  0  0
  2  1  1  0  0  0  0
  3  4  1  6  0  0  0
  3  1  1  0  0  0  0
  3 26  1  0  0  0  0
  3 11  1  0  0  0  0
  5  6  1  6  0  0  0
  5 14  1  0  0  0  0
  7  5  1  0  0  0  0
  7  9  1  0  0  0  0
  7 11  1  0  0  0  0
  8  7  1  0  0  0  0
 10 17  1  1  0  0  0
 10 32  1  0  0  0  0
 11 12  1  0  0  0  0
 13 11  1  0  0  0  0
 14 16  1  0  0  0  0
 14 17  1  0  0  0  0
 15 14  1  0  0  0  0
 17 19  1  0  0  0  0
 17 18  1  0  0  0  0
 20  1  1  0  0  0  0
 21 22  1  6  0  0  0
 21 29  1  0  0  0  0
 23 21  1  0  0  0  0
 23 25  1  0  0  0  0
 23 26  1  0  0  0  0
 24 23  1  0  0  0  0
 26 27  1  0  0  0  0
 28 26  1  0  0  0  0
 29 31  1  0  0  0  0
 29 32  1  0  0  0  0
 30 29  1  0  0  0  0
 32 34  1  0  0  0  0
 32 33  1  0  0  0  0
M  END
$$$$
