CSD_code = AROMOK | q = 0 | S = 0 | Stoichiometry = C9H15Cl2CoN6O3 | MND = 6
 OpenBabel04212202003D

 36 38  0  0  0  0  0  0  0  0999 V2000
    8.7055   12.6407    7.7839 Co  0  0  0  0  0  0  0  0  0  0  0  0
    9.4601   14.1325    9.2035 Cl  0  0  0  0  0  0  0  0  0  0  0  0
    7.9100   11.1202    6.4187 Cl  0  0  0  0  0  0  0  0  0  0  0  0
   11.1649   12.4737    6.5989 O   0  0  0  0  0  1  0  0  0  0  0  0
    5.5420   11.4565   10.8211 O   0  0  0  0  0  0  0  0  0  0  0  0
    9.6406   14.1743    5.5857 O   0  0  0  0  0  0  0  0  0  0  0  0
   10.4239   13.5366    5.8445 H   0  0  0  0  0  0  0  0  0  0  0  0
    8.6644   13.8935    6.4493 N   0  0  0  0  0  0  0  0  0  0  0  0
   10.3943   12.0332    7.5031 N   0  0  0  0  0  0  0  0  0  0  0  0
    7.6013   11.1555    9.9899 N   0  0  0  0  0  0  0  0  0  0  0  0
    7.7020   10.4343   10.6983 H   0  0  0  0  0  0  0  0  0  0  0  0
    8.6470   11.3931    9.1632 N   0  0  0  0  0  0  0  0  0  0  0  0
    6.1206   12.7706    9.0992 N   0  0  0  0  0  0  0  0  0  0  0  0
    5.1901   13.1685    9.1984 H   0  0  0  0  0  0  0  0  0  0  0  0
    6.9339   13.2321    8.1379 N   0  0  0  0  0  0  0  0  0  0  0  0
    7.5528   14.5491    6.3651 C   0  0  0  0  0  0  0  0  0  0  0  0
    7.3202   15.6075    5.3366 C   0  0  0  0  0  0  0  0  0  0  0  0
    8.1950   15.6817    4.6964 H   0  0  0  0  0  0  0  0  0  0  0  0
    7.1517   16.5708    5.8156 H   0  0  0  0  0  0  0  0  0  0  0  0
    6.4541   15.3594    4.7255 H   0  0  0  0  0  0  0  0  0  0  0  0
    6.5581   14.1773    7.3388 C   0  0  0  0  0  0  0  0  0  0  0  0
    5.2148   14.8324    7.4139 C   0  0  0  0  0  0  0  0  0  0  0  0
    4.4251   14.0979    7.2489 H   0  0  0  0  0  0  0  0  0  0  0  0
    5.1212   15.6089    6.6638 H   0  0  0  0  0  0  0  0  0  0  0  0
    5.0703   15.2852    8.3959 H   0  0  0  0  0  0  0  0  0  0  0  0
    6.3858   11.7744   10.0109 C   0  0  0  0  0  0  0  0  0  0  0  0
    9.7513   10.7218    9.2785 C   0  0  0  0  0  0  0  0  0  0  0  0
    9.9618    9.6577   10.3085 C   0  0  0  0  0  0  0  0  0  0  0  0
    9.8409   10.0699   11.3110 H   0  0  0  0  0  0  0  0  0  0  0  0
   10.9603    9.2436   10.2273 H   0  0  0  0  0  0  0  0  0  0  0  0
    9.2421    8.8496   10.1715 H   0  0  0  0  0  0  0  0  0  0  0  0
   10.7524   11.0888    8.3296 C   0  0  0  0  0  0  0  0  0  0  0  0
   12.1107   10.4634    8.2602 C   0  0  0  0  0  0  0  0  0  0  0  0
   12.6571   10.6231    9.1883 H   0  0  0  0  0  0  0  0  0  0  0  0
   12.6598   10.9286    7.4448 H   0  0  0  0  0  0  0  0  0  0  0  0
   12.0351    9.3943    8.0693 H   0  0  0  0  0  0  0  0  0  0  0  0
  1 15  1  0  0  0  0
  1 12  1  0  0  0  0
  1  2  1  0  0  0  0
  3  1  1  0  0  0  0
  4  9  1  0  0  0  0
  6  7  1  0  0  0  0
  6  8  1  0  0  0  0
  8  1  1  0  0  0  0
  9  1  1  0  0  0  0
  9 32  1  0  0  0  0
 10 26  1  0  0  0  0
 10 11  1  0  0  0  0
 12 27  1  0  0  0  0
 12 10  1  0  0  0  0
 13 14  1  0  0  0  0
 13 26  1  0  0  0  0
 15 13  1  0  0  0  0
 16  8  1  0  0  0  0
 16 21  2  0  0  0  0
 17 19  1  0  0  0  0
 17 16  1  0  0  0  0
 18 17  1  0  0  0  0
 20 17  1  0  0  0  0
 21 22  1  0  0  0  0
 21 15  1  0  0  0  0
 22 25  1  0  0  0  0
 23 22  1  0  0  0  0
 24 22  1  0  0  0  0
 26  5  2  0  0  0  0
 27 28  1  0  0  0  0
 28 29  1  0  0  0  0
 30 28  1  0  0  0  0
 31 28  1  0  0  0  0
 32 27  2  0  0  0  0
 33 32  1  0  0  0  0
 33 34  1  0  0  0  0
 35 33  1  0  0  0  0
 36 33  1  0  0  0  0
M  END
$$$$
