CSD_code = AROTUY | q = 0 | S = 0 | Stoichiometry = C25H45BClNPRh | MND = 6
 OpenBabel04212202003D

 75 74  0  0  1  0  0  0  0  0999 V2000
   -0.4253    6.9645    9.5676 Rh  0  0  0  0  0  0  0  0  0  0  0  0
    0.8176    5.5872    8.2619 P   0  0  0  0  0  0  0  0  0  0  0  0
    0.2261    5.6800   11.3513 Cl  0  0  0  0  0 15  0  0  0  0  0  0
   -1.5411    8.5083   10.3936 N   0  0  0  0  0  0  0  0  0  0  0  0
   -2.5497    7.7458    9.5995 B   0  0  0  0  0  0  0  0  0  0  0  0
   -0.9218    8.9010    9.1584 C   0  0  2  0  0  0  0  0  0  0  0  0
   -1.7586    8.1240    8.3218 C   0  0  0  0  0  0  0  0  0  0  0  0
   -1.8134    8.1854    7.2472 H   0  0  0  0  0  0  0  0  0  0  0  0
   -0.0734   10.0606    8.8496 C   0  0  0  0  0  0  0  0  0  0  0  0
   -0.6620   11.2206    8.3531 C   0  0  0  0  0  0  0  0  0  0  0  0
   -1.7361   11.2666    8.2393 H   0  0  0  0  0  0  0  0  0  0  0  0
    1.3116    9.9972    8.9714 C   0  0  0  0  0  0  0  0  0  0  0  0
    1.7638    9.0856    9.3384 H   0  0  0  0  0  0  0  0  0  0  0  0
    2.0934   11.0814    8.6195 C   0  0  0  0  0  0  0  0  0  0  0  0
    3.1675   11.0226    8.7160 H   0  0  0  0  0  0  0  0  0  0  0  0
    1.5009   12.2398    8.1439 C   0  0  0  0  0  0  0  0  0  0  0  0
    2.1111   13.0882    7.8723 H   0  0  0  0  0  0  0  0  0  0  0  0
    0.1239   12.3063    8.0110 C   0  0  0  0  0  0  0  0  0  0  0  0
   -0.3406   13.2057    7.6339 H   0  0  0  0  0  0  0  0  0  0  0  0
   -1.4118    9.1793   11.6798 C   0  0  0  0  0  0  0  0  0  0  0  0
   -4.4285    6.3760    8.5665 C   0  0  0  0  0  0  0  0  0  0  0  0
   -5.3864    5.8791    8.7128 H   0  0  0  0  0  0  0  0  0  0  0  0
   -3.7132    5.6439    8.2038 H   0  0  0  0  0  0  0  0  0  0  0  0
   -4.5529    7.1414    7.8039 H   0  0  0  0  0  0  0  0  0  0  0  0
   -2.0095    8.2905   12.7717 C   0  0  0  0  0  0  0  0  0  0  0  0
   -1.8181    8.7223   13.7509 H   0  0  0  0  0  0  0  0  0  0  0  0
   -1.5517    7.3042   12.7314 H   0  0  0  0  0  0  0  0  0  0  0  0
   -3.0833    8.1922   12.6470 H   0  0  0  0  0  0  0  0  0  0  0  0
   -2.1579   10.5199   11.6161 C   0  0  0  0  0  0  0  0  0  0  0  0
   -2.1336   11.0043   12.5890 H   0  0  0  0  0  0  0  0  0  0  0  0
   -3.1962   10.3632   11.3305 H   0  0  0  0  0  0  0  0  0  0  0  0
   -1.6945   11.1844   10.8895 H   0  0  0  0  0  0  0  0  0  0  0  0
    0.0690    9.4124   12.0035 C   0  0  0  0  0  0  0  0  0  0  0  0
    0.1769    9.7402   13.0345 H   0  0  0  0  0  0  0  0  0  0  0  0
    0.5047   10.1718   11.3591 H   0  0  0  0  0  0  0  0  0  0  0  0
    0.6181    8.4770   11.8841 H   0  0  0  0  0  0  0  0  0  0  0  0
   -3.9369    6.9957    9.8861 C   0  0  0  0  0  0  0  0  0  0  0  0
   -3.7858    5.8617   10.9139 C   0  0  0  0  0  0  0  0  0  0  0  0
   -4.6392    5.1869   10.8623 H   0  0  0  0  0  0  0  0  0  0  0  0
   -3.7224    6.2482   11.9259 H   0  0  0  0  0  0  0  0  0  0  0  0
   -2.8809    5.2880   10.7195 H   0  0  0  0  0  0  0  0  0  0  0  0
   -5.0227    7.9721   10.3667 C   0  0  0  0  0  0  0  0  0  0  0  0
   -5.9644    7.4431   10.5074 H   0  0  0  0  0  0  0  0  0  0  0  0
   -5.1808    8.7605    9.6326 H   0  0  0  0  0  0  0  0  0  0  0  0
   -4.7544    8.4364   11.3128 H   0  0  0  0  0  0  0  0  0  0  0  0
    1.0961    6.0165    6.4558 C   0  0  0  0  0  0  0  0  0  0  0  0
    1.8402    5.3215    6.0535 H   0  0  0  0  0  0  0  0  0  0  0  0
    1.6224    7.4443    6.3527 C   0  0  0  0  0  0  0  0  0  0  0  0
    1.6884    7.7528    5.3098 H   0  0  0  0  0  0  0  0  0  0  0  0
    2.6123    7.5355    6.7909 H   0  0  0  0  0  0  0  0  0  0  0  0
    0.9521    8.1284    6.8716 H   0  0  0  0  0  0  0  0  0  0  0  0
   -0.1828    5.8813    5.6359 C   0  0  0  0  0  0  0  0  0  0  0  0
   -0.0239    6.2814    4.6348 H   0  0  0  0  0  0  0  0  0  0  0  0
   -0.9921    6.4393    6.1010 H   0  0  0  0  0  0  0  0  0  0  0  0
   -0.4855    4.8426    5.5337 H   0  0  0  0  0  0  0  0  0  0  0  0
    2.5518    5.3198    8.9210 C   0  0  0  0  0  0  0  0  0  0  0  0
    2.3821    4.6549    9.7744 H   0  0  0  0  0  0  0  0  0  0  0  0
    3.1371    6.6061    9.4981 C   0  0  0  0  0  0  0  0  0  0  0  0
    4.0413    6.3818   10.0624 H   0  0  0  0  0  0  0  0  0  0  0  0
    2.4141    7.0532   10.1824 H   0  0  0  0  0  0  0  0  0  0  0  0
    3.3922    7.3244    8.7224 H   0  0  0  0  0  0  0  0  0  0  0  0
    3.5253    4.6534    7.9549 C   0  0  0  0  0  0  0  0  0  0  0  0
    4.4148    4.3360    8.4982 H   0  0  0  0  0  0  0  0  0  0  0  0
    3.8418    5.3439    7.1760 H   0  0  0  0  0  0  0  0  0  0  0  0
    3.0858    3.7756    7.4859 H   0  0  0  0  0  0  0  0  0  0  0  0
    0.1746    3.8296    8.1024 C   0  0  0  0  0  0  0  0  0  0  0  0
    0.4882    3.4419    7.1246 H   0  0  0  0  0  0  0  0  0  0  0  0
    0.6603    2.8824    9.1958 C   0  0  0  0  0  0  0  0  0  0  0  0
    0.0969    1.9514    9.1410 H   0  0  0  0  0  0  0  0  0  0  0  0
    0.4914    3.3211   10.1771 H   0  0  0  0  0  0  0  0  0  0  0  0
    1.7143    2.6390    9.0912 H   0  0  0  0  0  0  0  0  0  0  0  0
   -1.3502    3.9084    8.1642 C   0  0  0  0  0  0  0  0  0  0  0  0
   -1.7961    2.9234    8.0317 H   0  0  0  0  0  0  0  0  0  0  0  0
   -1.7486    4.5750    7.4040 H   0  0  0  0  0  0  0  0  0  0  0  0
   -1.6397    4.2916    9.1435 H   0  0  0  0  0  0  0  0  0  0  0  0
  2 56  1  0  0  0  0
  4 20  1  0  0  0  0
  5 37  1  0  0  0  0
  5  4  1  0  0  0  0
  6  1  1  1  0  0  0
  6  4  1  0  0  0  0
  7  6  1  0  0  0  0
  7  5  2  0  0  0  0
  8  7  1  0  0  0  0
  9 12  1  0  0  0  0
  9  6  1  0  0  0  0
 10  9  2  0  0  0  0
 11 10  1  0  0  0  0
 12 13  1  0  0  0  0
 14 15  1  0  0  0  0
 14 12  2  0  0  0  0
 16 14  1  0  0  0  0
 17 16  1  0  0  0  0
 18 16  2  0  0  0  0
 18 10  1  0  0  0  0
 19 18  1  0  0  0  0
 20 33  1  0  0  0  0
 20 25  1  0  0  0  0
 21 22  1  0  0  0  0
 21 37  1  0  0  0  0
 23 21  1  0  0  0  0
 24 21  1  0  0  0  0
 25 26  1  0  0  0  0
 27 25  1  0  0  0  0
 28 25  1  0  0  0  0
 29 20  1  0  0  0  0
 29 30  1  0  0  0  0
 31 29  1  0  0  0  0
 32 29  1  0  0  0  0
 33 34  1  0  0  0  0
 35 33  1  0  0  0  0
 36 33  1  0  0  0  0
 37 42  1  0  0  0  0
 37 38  1  0  0  0  0
 38 40  1  0  0  0  0
 39 38  1  0  0  0  0
 41 38  1  0  0  0  0
 42 43  1  0  0  0  0
 42 45  1  0  0  0  0
 44 42  1  0  0  0  0
 46  2  1  0  0  0  0
 47 46  1  0  0  0  0
 48 46  1  0  0  0  0
 48 50  1  0  0  0  0
 48 51  1  0  0  0  0
 49 48  1  0  0  0  0
 52 54  1  0  0  0  0
 52 46  1  0  0  0  0
 53 52  1  0  0  0  0
 55 52  1  0  0  0  0
 56 58  1  0  0  0  0
 56 57  1  0  0  0  0
 58 59  1  0  0  0  0
 58 60  1  0  0  0  0
 61 58  1  0  0  0  0
 62 63  1  0  0  0  0
 62 56  1  0  0  0  0
 64 62  1  0  0  0  0
 65 62  1  0  0  0  0
 66 72  1  0  0  0  0
 66  2  1  0  0  0  0
 66 68  1  0  0  0  0
 67 66  1  0  0  0  0
 68 70  1  0  0  0  0
 69 68  1  0  0  0  0
 71 68  1  0  0  0  0
 72 75  1  0  0  0  0
 73 72  1  0  0  0  0
 74 72  1  0  0  0  0
M  END
$$$$
