CSD_code = ARUFOJ | q = 0 | S = 0 | Stoichiometry = C40H52Cl2FeN2 | MND = 4
 OpenBabel04212202003D

 97101  0  0  1  0  0  0  0  0999 V2000
    4.9568   10.2465   -0.5016 C   0  0  1  0  0  3  0  0  0  0  0  0
    6.0579   10.7184   -1.2075 C   0  0  0  0  0  0  0  0  0  0  0  0
    6.5257   11.6410   -0.9022 H   0  0  0  0  0  0  0  0  0  0  0  0
    6.5207   10.0036   -2.3026 C   0  0  0  0  0  0  0  0  0  0  0  0
    7.3824   10.3441   -2.8569 H   0  0  0  0  0  0  0  0  0  0  0  0
    5.8555    8.8528   -2.6731 C   0  0  0  0  0  0  0  0  0  0  0  0
    6.1951    8.2643   -3.5098 H   0  0  0  0  0  0  0  0  0  0  0  0
    4.7513    8.4379   -1.9282 C   0  0  0  0  0  0  0  0  0  0  0  0
    3.9876    7.2411   -2.2198 C   0  0  2  0  0  3  0  0  0  0  0  0
    3.9658    6.5852   -3.4504 C   0  0  0  0  0  0  0  0  0  0  0  0
    4.5479    6.9692   -4.2723 H   0  0  0  0  0  0  0  0  0  0  0  0
    3.1853    5.4596   -3.6068 C   0  0  0  0  0  0  0  0  0  0  0  0
    3.1559    4.9343   -4.5484 H   0  0  0  0  0  0  0  0  0  0  0  0
    2.4270    5.0107   -2.5245 C   0  0  0  0  0  0  0  0  0  0  0  0
    1.8069    4.1319   -2.6062 H   0  0  0  0  0  0  0  0  0  0  0  0
    2.4858    5.6959   -1.3296 C   0  0  0  0  0  0  0  0  0  0  0  0
    1.7128    5.3095   -0.1210 C   0  0  0  0  0  0  0  0  0  0  0  0
    2.1220    4.2212    0.6579 C   0  0  0  0  0  0  0  0  0  0  0  0
    1.3915    3.9042    1.7928 C   0  0  0  0  0  0  0  0  0  0  0  0
    1.7036    3.0677    2.3973 H   0  0  0  0  0  0  0  0  0  0  0  0
    0.2765    4.6355    2.1708 C   0  0  0  0  0  0  0  0  0  0  0  0
   -0.1290    5.6916    1.3690 C   0  0  0  0  0  0  0  0  0  0  0  0
   -1.0102    6.2463    1.6496 H   0  0  0  0  0  0  0  0  0  0  0  0
    0.5706    6.0506    0.2259 C   0  0  0  0  0  0  0  0  0  0  0  0
    4.4053   11.0431    0.6203 C   0  0  0  0  0  0  0  0  0  0  0  0
    4.9530   10.9419    1.8982 C   0  0  0  0  0  0  0  0  0  0  0  0
    4.4195   11.7239    2.9127 C   0  0  0  0  0  0  0  0  0  0  0  0
    4.8374   11.6590    3.9062 H   0  0  0  0  0  0  0  0  0  0  0  0
    3.3477   12.5718    2.6902 C   0  0  0  0  0  0  0  0  0  0  0  0
    2.8167   12.6507    1.4110 C   0  0  0  0  0  0  0  0  0  0  0  0
    1.9761   13.3008    1.2293 H   0  0  0  0  0  0  0  0  0  0  0  0
    3.3374   11.9089    0.3646 C   0  0  0  0  0  0  0  0  0  0  0  0
    3.3081    3.3714    0.2644 C   0  0  0  0  0  0  0  0  0  0  0  0
    3.8325    3.8616   -0.5610 H   0  0  0  0  0  0  0  0  0  0  0  0
    4.3089    3.2168    1.4094 C   0  0  0  0  0  0  0  0  0  0  0  0
    4.6535    4.1954    1.7318 H   0  0  0  0  0  0  0  0  0  0  0  0
    5.1698    2.6466    1.0678 H   0  0  0  0  0  0  0  0  0  0  0  0
    3.8714    2.6960    2.2570 H   0  0  0  0  0  0  0  0  0  0  0  0
    2.8175    2.0016   -0.2157 C   0  0  0  0  0  0  0  0  0  0  0  0
    2.3133    1.4718    0.5892 H   0  0  0  0  0  0  0  0  0  0  0  0
    3.6584    1.3987   -0.5508 H   0  0  0  0  0  0  0  0  0  0  0  0
    2.1177    2.1087   -1.0420 H   0  0  0  0  0  0  0  0  0  0  0  0
   -0.4868    4.2964    3.4274 C   0  0  0  0  0  0  0  0  0  0  0  0
   -1.3434    4.9757    3.5003 H   0  0  0  0  0  0  0  0  0  0  0  0
    0.3982    4.5128    4.6569 C   0  0  0  0  0  0  0  0  0  0  0  0
    1.2500    3.8376    4.6430 H   0  0  0  0  0  0  0  0  0  0  0  0
   -0.1697    4.3326    5.5672 H   0  0  0  0  0  0  0  0  0  0  0  0
    0.7723    5.5338    4.6760 H   0  0  0  0  0  0  0  0  0  0  0  0
   -1.0198    2.8629    3.3837 C   0  0  0  0  0  0  0  0  0  0  0  0
   -1.6315    2.7120    2.4966 H   0  0  0  0  0  0  0  0  0  0  0  0
   -1.6290    2.6625    4.2624 H   0  0  0  0  0  0  0  0  0  0  0  0
   -0.2041    2.1448    3.3642 H   0  0  0  0  0  0  0  0  0  0  0  0
    0.0382    7.1203   -0.7075 C   0  0  0  0  0  0  0  0  0  0  0  0
    0.8855    7.5987   -1.2164 H   0  0  0  0  0  0  0  0  0  0  0  0
   -0.7461    8.2225    0.0019 C   0  0  0  0  0  0  0  0  0  0  0  0
   -1.6991    7.8546    0.3737 H   0  0  0  0  0  0  0  0  0  0  0  0
   -0.9507    9.0292   -0.6986 H   0  0  0  0  0  0  0  0  0  0  0  0
   -0.1694    8.6250    0.8306 H   0  0  0  0  0  0  0  0  0  0  0  0
   -0.8422    6.4487   -1.7682 C   0  0  0  0  0  0  0  0  0  0  0  0
   -0.2720    5.7229   -2.3434 H   0  0  0  0  0  0  0  0  0  0  0  0
   -1.2425    7.1942   -2.4518 H   0  0  0  0  0  0  0  0  0  0  0  0
   -1.6734    5.9335   -1.2912 H   0  0  0  0  0  0  0  0  0  0  0  0
    6.1029   10.0029    2.1778 C   0  0  0  0  0  0  0  0  0  0  0  0
    6.2233    9.3343    1.3193 H   0  0  0  0  0  0  0  0  0  0  0  0
    5.8317    9.1270    3.4014 C   0  0  0  0  0  0  0  0  0  0  0  0
    5.8525    9.7071    4.3208 H   0  0  0  0  0  0  0  0  0  0  0  0
    6.5851    8.3460    3.4683 H   0  0  0  0  0  0  0  0  0  0  0  0
    4.8584    8.6505    3.3112 H   0  0  0  0  0  0  0  0  0  0  0  0
    7.3982   10.7981    2.3599 C   0  0  0  0  0  0  0  0  0  0  0  0
    7.6204   11.3818    1.4690 H   0  0  0  0  0  0  0  0  0  0  0  0
    8.2295   10.1221    2.5464 H   0  0  0  0  0  0  0  0  0  0  0  0
    7.3106   11.4806    3.2026 H   0  0  0  0  0  0  0  0  0  0  0  0
    2.7635   13.3793    3.8235 C   0  0  0  0  0  0  0  0  0  0  0  0
    3.3367   13.1578    4.7307 H   0  0  0  0  0  0  0  0  0  0  0  0
    1.3083   12.9772    4.0714 C   0  0  0  0  0  0  0  0  0  0  0  0
    0.6851   13.2384    3.2199 H   0  0  0  0  0  0  0  0  0  0  0  0
    0.9192   13.4861    4.9510 H   0  0  0  0  0  0  0  0  0  0  0  0
    1.2384   11.9034    4.2279 H   0  0  0  0  0  0  0  0  0  0  0  0
    2.8761   14.8796    3.5448 C   0  0  0  0  0  0  0  0  0  0  0  0
    2.2981   15.1547    2.6661 H   0  0  0  0  0  0  0  0  0  0  0  0
    3.9142   15.1558    3.3718 H   0  0  0  0  0  0  0  0  0  0  0  0
    2.5027   15.4497    4.3930 H   0  0  0  0  0  0  0  0  0  0  0  0
    2.7412   11.9968   -1.0233 C   0  0  0  0  0  0  0  0  0  0  0  0
    3.4959   11.6622   -1.7442 H   0  0  0  0  0  0  0  0  0  0  0  0
    1.5403   11.0522   -1.1196 C   0  0  0  0  0  0  0  0  0  0  0  0
    1.8543   10.0289   -0.9128 H   0  0  0  0  0  0  0  0  0  0  0  0
    1.1009   11.0944   -2.1148 H   0  0  0  0  0  0  0  0  0  0  0  0
    0.7855   11.3294   -0.3878 H   0  0  0  0  0  0  0  0  0  0  0  0
    2.3385   13.4217   -1.4072 C   0  0  0  0  0  0  0  0  0  0  0  0
    1.4612   13.7474   -0.8548 H   0  0  0  0  0  0  0  0  0  0  0  0
    2.0989   13.4641   -2.4679 H   0  0  0  0  0  0  0  0  0  0  0  0
    3.1525   14.1156   -1.2094 H   0  0  0  0  0  0  0  0  0  0  0  0
    4.3213    9.1229   -0.8424 N   0  0  0  0  0  0  0  0  0  0  0  0
    3.2464    6.7966   -1.1749 N   0  0  0  0  0  0  0  0  0  0  0  0
    4.9472    6.6868    1.0003 Cl  0  0  0  0  0  0  0  0  0  0  0  0
    2.3028    8.9302    1.7709 Cl  0  0  0  0  0  0  0  0  0  0  0  0
    3.1971    7.7211    0.4369 Fe  0  0  0  0  0  0  0  0  0  0  0  0
  1 25  1  6  0  0  0
  2  3  1  0  0  0  0
  2  1  1  0  0  0  0
  4  2  2  0  0  0  0
  5  4  1  0  0  0  0
  6  4  1  0  0  0  0
  6  8  2  0  0  0  0
  7  6  1  0  0  0  0
  8 93  1  0  0  0  0
  9 10  1  6  0  0  0
  9  8  1  0  0  0  0
  9 94  1  0  0  0  0
 11 10  1  0  0  0  0
 12 10  2  0  0  0  0
 12 14  1  0  0  0  0
 13 12  1  0  0  0  0
 14 16  2  0  0  0  0
 15 14  1  0  0  0  0
 16 94  1  0  0  0  0
 16 17  1  0  0  0  0
 17 24  2  0  0  0  0
 17 18  1  0  0  0  0
 18 19  2  0  0  0  0
 19 21  1  0  0  0  0
 19 20  1  0  0  0  0
 21 43  1  0  0  0  0
 22 23  1  0  0  0  0
 22 21  2  0  0  0  0
 24 22  1  0  0  0  0
 25 26  1  0  0  0  0
 26 63  1  0  0  0  0
 26 27  2  0  0  0  0
 27 28  1  0  0  0  0
 29 27  1  0  0  0  0
 29 73  1  0  0  0  0
 30 29  2  0  0  0  0
 31 30  1  0  0  0  0
 32 25  2  0  0  0  0
 32 30  1  0  0  0  0
 33 18  1  0  0  0  0
 33 35  1  0  0  0  0
 34 33  1  0  0  0  0
 35 36  1  0  0  0  0
 35 38  1  0  0  0  0
 37 35  1  0  0  0  0
 39 33  1  0  0  0  0
 39 40  1  0  0  0  0
 41 39  1  0  0  0  0
 42 39  1  0  0  0  0
 43 44  1  0  0  0  0
 43 45  1  0  0  0  0
 45 48  1  0  0  0  0
 45 47  1  0  0  0  0
 46 45  1  0  0  0  0
 49 43  1  0  0  0  0
 49 51  1  0  0  0  0
 50 49  1  0  0  0  0
 52 49  1  0  0  0  0
 53 55  1  0  0  0  0
 53 24  1  0  0  0  0
 54 53  1  0  0  0  0
 55 56  1  0  0  0  0
 55 58  1  0  0  0  0
 57 55  1  0  0  0  0
 59 62  1  0  0  0  0
 59 53  1  0  0  0  0
 60 59  1  0  0  0  0
 61 59  1  0  0  0  0
 63 69  1  0  0  0  0
 63 65  1  0  0  0  0
 64 63  1  0  0  0  0
 65 67  1  0  0  0  0
 65 66  1  0  0  0  0
 68 65  1  0  0  0  0
 69 71  1  0  0  0  0
 69 72  1  0  0  0  0
 70 69  1  0  0  0  0
 73 75  1  0  0  0  0
 73 74  1  0  0  0  0
 75 78  1  0  0  0  0
 75 77  1  0  0  0  0
 76 75  1  0  0  0  0
 79 73  1  0  0  0  0
 79 82  1  0  0  0  0
 80 79  1  0  0  0  0
 81 79  1  0  0  0  0
 83 32  1  0  0  0  0
 84 83  1  0  0  0  0
 85 83  1  0  0  0  0
 85 86  1  0  0  0  0
 85 88  1  0  0  0  0
 87 85  1  0  0  0  0
 89 92  1  0  0  0  0
 89 83  1  0  0  0  0
 89 90  1  0  0  0  0
 91 89  1  0  0  0  0
 93  1  1  0  0  0  0
 93 97  1  0  0  0  0
 94 97  1  0  0  0  0
 97 95  1  0  0  0  0
 97 96  1  0  0  0  0
M  END
$$$$
