CSD_code = ARUGIE | q = 0 | S = 0 | Stoichiometry = C40H52Cl2N2Zn | MND = 4
 OpenBabel04212202003D

 97101  0  0  1  0  0  0  0  0999 V2000
    0.9508   22.5004    7.0250 C   0  0  2  0  0  3  0  0  0  0  0  0
    1.0552   23.3338    5.9097 C   0  0  0  0  0  0  0  0  0  0  0  0
    0.4844   24.2480    5.8709 H   0  0  0  0  0  0  0  0  0  0  0  0
    1.8986   22.9666    4.8798 C   0  0  0  0  0  0  0  0  0  0  0  0
    2.0007   23.5908    4.0045 H   0  0  0  0  0  0  0  0  0  0  0  0
    2.6200   21.7866    4.9805 C   0  0  0  0  0  0  0  0  0  0  0  0
    3.2792   21.4916    4.1816 H   0  0  0  0  0  0  0  0  0  0  0  0
    2.4729   21.0031    6.1211 C   0  0  0  0  0  0  0  0  0  0  0  0
    3.1975   19.7382    6.3305 C   0  0  2  0  0  3  0  0  0  0  0  0
    4.1840   19.2724    5.4669 C   0  0  0  0  0  0  0  0  0  0  0  0
    4.4836   19.8411    4.6029 H   0  0  0  0  0  0  0  0  0  0  0  0
    4.7971   18.0593    5.7412 C   0  0  0  0  0  0  0  0  0  0  0  0
    5.5677   17.6816    5.0857 H   0  0  0  0  0  0  0  0  0  0  0  0
    4.4082   17.3414    6.8549 C   0  0  0  0  0  0  0  0  0  0  0  0
    4.8479   16.3859    7.0914 H   0  0  0  0  0  0  0  0  0  0  0  0
    3.4255   17.8747    7.6897 C   0  0  0  0  0  0  0  0  0  0  0  0
    2.9401   17.1581    8.8886 C   0  0  0  0  0  0  0  0  0  0  0  0
    3.6822   17.1743   10.0731 C   0  0  0  0  0  0  0  0  0  0  0  0
    3.1733   16.5118   11.1807 C   0  0  0  0  0  0  0  0  0  0  0  0
    3.7307   16.5252   12.1048 H   0  0  0  0  0  0  0  0  0  0  0  0
    1.9594   15.8459   11.1415 C   0  0  0  0  0  0  0  0  0  0  0  0
    1.2589   15.8169    9.9459 C   0  0  0  0  0  0  0  0  0  0  0  0
    0.3194   15.2911    9.8957 H   0  0  0  0  0  0  0  0  0  0  0  0
    1.7261   16.4658    8.8156 C   0  0  0  0  0  0  0  0  0  0  0  0
    0.0776   22.8251    8.1712 C   0  0  0  0  0  0  0  0  0  0  0  0
    0.4530   23.8355    9.0635 C   0  0  0  0  0  0  0  0  0  0  0  0
   -0.3668   24.1001   10.1497 C   0  0  0  0  0  0  0  0  0  0  0  0
   -0.0747   24.8670   10.8491 H   0  0  0  0  0  0  0  0  0  0  0  0
   -1.5422   23.3988   10.3628 C   0  0  0  0  0  0  0  0  0  0  0  0
   -1.9107   22.4273    9.4451 C   0  0  0  0  0  0  0  0  0  0  0  0
   -2.8324   21.8915    9.6025 H   0  0  0  0  0  0  0  0  0  0  0  0
   -1.1186   22.1167    8.3521 C   0  0  0  0  0  0  0  0  0  0  0  0
    5.0220   17.8699   10.1551 C   0  0  0  0  0  0  0  0  0  0  0  0
    5.1263   18.5377    9.2934 H   0  0  0  0  0  0  0  0  0  0  0  0
    5.1512   18.7264   11.4149 C   0  0  0  0  0  0  0  0  0  0  0  0
    4.2894   19.3803   11.5146 H   0  0  0  0  0  0  0  0  0  0  0  0
    6.0399   19.3489   11.3447 H   0  0  0  0  0  0  0  0  0  0  0  0
    5.2331   18.1131   12.3088 H   0  0  0  0  0  0  0  0  0  0  0  0
    6.1450   16.8292   10.1054 C   0  0  0  0  0  0  0  0  0  0  0  0
    6.0652   16.1477   10.9496 H   0  0  0  0  0  0  0  0  0  0  0  0
    7.1137   17.3217   10.1486 H   0  0  0  0  0  0  0  0  0  0  0  0
    6.0956   16.2432    9.1900 H   0  0  0  0  0  0  0  0  0  0  0  0
    1.4092   15.1850   12.3804 C   0  0  0  0  0  0  0  0  0  0  0  0
    2.1230   15.3413   13.1965 H   0  0  0  0  0  0  0  0  0  0  0  0
    0.0822   15.8355   12.7753 C   0  0  0  0  0  0  0  0  0  0  0  0
    0.2007   16.9137   12.8551 H   0  0  0  0  0  0  0  0  0  0  0  0
   -0.2605   15.4463   13.7318 H   0  0  0  0  0  0  0  0  0  0  0  0
   -0.6820   15.6363   12.0284 H   0  0  0  0  0  0  0  0  0  0  0  0
    1.2417   13.6779   12.1788 C   0  0  0  0  0  0  0  0  0  0  0  0
    0.5175   13.4709   11.3950 H   0  0  0  0  0  0  0  0  0  0  0  0
    0.8929   13.2119   13.0979 H   0  0  0  0  0  0  0  0  0  0  0  0
    2.1904   13.2242   11.8984 H   0  0  0  0  0  0  0  0  0  0  0  0
    0.9471   16.3749    7.5231 C   0  0  0  0  0  0  0  0  0  0  0  0
    1.3797   17.0694    6.7955 H   0  0  0  0  0  0  0  0  0  0  0  0
   -0.5162   16.7687    7.7264 C   0  0  0  0  0  0  0  0  0  0  0  0
   -1.0566   16.0044    8.2780 H   0  0  0  0  0  0  0  0  0  0  0  0
   -1.0060   16.8999    6.7635 H   0  0  0  0  0  0  0  0  0  0  0  0
   -0.5720   17.6994    8.2840 H   0  0  0  0  0  0  0  0  0  0  0  0
    1.0633   14.9601    6.9476 C   0  0  0  0  0  0  0  0  0  0  0  0
    2.1053   14.7081    6.7581 H   0  0  0  0  0  0  0  0  0  0  0  0
    0.5139   14.8876    6.0111 H   0  0  0  0  0  0  0  0  0  0  0  0
    0.6571   14.2301    7.6433 H   0  0  0  0  0  0  0  0  0  0  0  0
    1.7076   24.6552    8.8590 C   0  0  0  0  0  0  0  0  0  0  0  0
    2.2928   24.2157    8.0446 H   0  0  0  0  0  0  0  0  0  0  0  0
    2.5979   24.6627   10.1018 C   0  0  0  0  0  0  0  0  0  0  0  0
    3.5115   25.2160    9.8953 H   0  0  0  0  0  0  0  0  0  0  0  0
    2.8710   23.6468   10.3720 H   0  0  0  0  0  0  0  0  0  0  0  0
    2.1009   25.1295   10.9478 H   0  0  0  0  0  0  0  0  0  0  0  0
    1.3261   26.0857    8.4638 C   0  0  0  0  0  0  0  0  0  0  0  0
    0.6995   26.0902    7.5739 H   0  0  0  0  0  0  0  0  0  0  0  0
    2.2207   26.6701    8.2601 H   0  0  0  0  0  0  0  0  0  0  0  0
    0.7753   26.5690    9.2670 H   0  0  0  0  0  0  0  0  0  0  0  0
   -2.3962   23.6569   11.5790 C   0  0  0  0  0  0  0  0  0  0  0  0
   -3.3102   23.0599   11.4861 H   0  0  0  0  0  0  0  0  0  0  0  0
   -1.6514   23.1940   12.8334 C   0  0  0  0  0  0  0  0  0  0  0  0
   -0.7497   23.7829   12.9834 H   0  0  0  0  0  0  0  0  0  0  0  0
   -1.3635   22.1504   12.7325 H   0  0  0  0  0  0  0  0  0  0  0  0
   -2.2845   23.3002   13.7118 H   0  0  0  0  0  0  0  0  0  0  0  0
   -2.7993   25.1280   11.6914 C   0  0  0  0  0  0  0  0  0  0  0  0
   -1.9302   25.7604   11.8531 H   0  0  0  0  0  0  0  0  0  0  0  0
   -3.4793   25.2661   12.5293 H   0  0  0  0  0  0  0  0  0  0  0  0
   -3.2993   25.4560   10.7824 H   0  0  0  0  0  0  0  0  0  0  0  0
   -1.5763   21.1063    7.3227 C   0  0  0  0  0  0  0  0  0  0  0  0
   -0.6948   20.6025    6.9122 H   0  0  0  0  0  0  0  0  0  0  0  0
   -2.4882   20.0269    7.9023 C   0  0  0  0  0  0  0  0  0  0  0  0
   -2.0455   19.6131    8.8043 H   0  0  0  0  0  0  0  0  0  0  0  0
   -2.6154   19.2266    7.1764 H   0  0  0  0  0  0  0  0  0  0  0  0
   -3.4731   20.4244    8.1354 H   0  0  0  0  0  0  0  0  0  0  0  0
   -2.2872   21.8445    6.1822 C   0  0  0  0  0  0  0  0  0  0  0  0
   -2.6389   21.1352    5.4358 H   0  0  0  0  0  0  0  0  0  0  0  0
   -1.6176   22.5523    5.6969 H   0  0  0  0  0  0  0  0  0  0  0  0
   -3.1436   22.3930    6.5691 H   0  0  0  0  0  0  0  0  0  0  0  0
    1.6418   21.3696    7.0994 N   0  0  0  0  0  0  0  0  0  0  0  0
    2.8528   19.0415    7.4164 N   0  0  0  0  0  0  0  0  0  0  0  0
    3.7873   21.3225    9.5197 Cl  0  0  0  0  0  0  0  0  0  0  0  0
    0.3393   19.5146   10.1569 Cl  0  0  0  0  0  0  0  0  0  0  0  0
    1.9422   20.2700    8.8720 Zn  0  0  0  0  0  0  0  0  0  0  0  0
  1 93  1  0  0  0  0
  1 25  1  1  0  0  0
  2  1  1  0  0  0  0
  3  2  1  0  0  0  0
  4  6  1  0  0  0  0
  4  2  2  0  0  0  0
  5  4  1  0  0  0  0
  6  8  2  0  0  0  0
  7  6  1  0  0  0  0
  8  9  1  0  0  0  0
  8 93  1  0  0  0  0
  9 10  1  6  0  0  0
  9 94  1  0  0  0  0
 10 12  2  0  0  0  0
 11 10  1  0  0  0  0
 12 14  1  0  0  0  0
 13 12  1  0  0  0  0
 14 15  1  0  0  0  0
 14 16  2  0  0  0  0
 16 17  1  0  0  0  0
 17 18  1  0  0  0  0
 18 33  1  0  0  0  0
 18 19  2  0  0  0  0
 19 20  1  0  0  0  0
 21 19  1  0  0  0  0
 21 43  1  0  0  0  0
 22 21  2  0  0  0  0
 23 22  1  0  0  0  0
 24 17  2  0  0  0  0
 24 22  1  0  0  0  0
 25 32  2  0  0  0  0
 25 26  1  0  0  0  0
 26 27  2  0  0  0  0
 27 29  1  0  0  0  0
 27 28  1  0  0  0  0
 29 73  1  0  0  0  0
 30 31  1  0  0  0  0
 30 29  2  0  0  0  0
 32 30  1  0  0  0  0
 33 35  1  0  0  0  0
 34 33  1  0  0  0  0
 35 36  1  0  0  0  0
 35 38  1  0  0  0  0
 37 35  1  0  0  0  0
 39 41  1  0  0  0  0
 39 33  1  0  0  0  0
 39 40  1  0  0  0  0
 42 39  1  0  0  0  0
 43 45  1  0  0  0  0
 43 44  1  0  0  0  0
 45 46  1  0  0  0  0
 45 47  1  0  0  0  0
 48 45  1  0  0  0  0
 49 43  1  0  0  0  0
 49 51  1  0  0  0  0
 50 49  1  0  0  0  0
 52 49  1  0  0  0  0
 53 55  1  0  0  0  0
 53 24  1  0  0  0  0
 54 53  1  0  0  0  0
 55 56  1  0  0  0  0
 55 58  1  0  0  0  0
 57 55  1  0  0  0  0
 59 53  1  0  0  0  0
 59 62  1  0  0  0  0
 60 59  1  0  0  0  0
 61 59  1  0  0  0  0
 63 26  1  0  0  0  0
 63 65  1  0  0  0  0
 64 63  1  0  0  0  0
 65 67  1  0  0  0  0
 65 68  1  0  0  0  0
 66 65  1  0  0  0  0
 69 63  1  0  0  0  0
 69 72  1  0  0  0  0
 70 69  1  0  0  0  0
 71 69  1  0  0  0  0
 73 79  1  0  0  0  0
 73 75  1  0  0  0  0
 74 73  1  0  0  0  0
 75 76  1  0  0  0  0
 75 78  1  0  0  0  0
 77 75  1  0  0  0  0
 79 80  1  0  0  0  0
 79 81  1  0  0  0  0
 82 79  1  0  0  0  0
 83 85  1  0  0  0  0
 83 32  1  0  0  0  0
 84 83  1  0  0  0  0
 85 88  1  0  0  0  0
 85 86  1  0  0  0  0
 87 85  1  0  0  0  0
 89 92  1  0  0  0  0
 89 83  1  0  0  0  0
 90 89  1  0  0  0  0
 91 89  1  0  0  0  0
 93 97  1  0  0  0  0
 94 16  1  0  0  0  0
 94 97  1  0  0  0  0
 97 95  1  0  0  0  0
 97 96  1  0  0  0  0
M  END
$$$$
