CSD_code = ARUGAW | q = 0 | S = 0 | Stoichiometry = C40H52Cl2N2Ni | MND = 4
 OpenBabel04212202003D

 97101  0  0  1  0  0  0  0  0999 V2000
    0.9257   22.4351    6.8579 C   0  0  2  0  0  3  0  0  0  0  0  0
    0.9119   23.1465    5.6626 C   0  0  0  0  0  0  0  0  0  0  0  0
    0.2801   24.0151    5.5649 H   0  0  0  0  0  0  0  0  0  0  0  0
    1.7185   22.7209    4.6212 C   0  0  0  0  0  0  0  0  0  0  0  0
    1.7179   23.2472    3.6783 H   0  0  0  0  0  0  0  0  0  0  0  0
    2.5354   21.6179    4.8052 C   0  0  0  0  0  0  0  0  0  0  0  0
    3.1708   21.2677    4.0081 H   0  0  0  0  0  0  0  0  0  0  0  0
    2.5118   20.9570    6.0293 C   0  0  0  0  0  0  0  0  0  0  0  0
    3.3549   19.7972    6.3519 C   0  0  1  0  0  3  0  0  0  0  0  0
    4.5299   19.4962    5.6725 C   0  0  0  0  0  0  0  0  0  0  0  0
    4.8786   20.1211    4.8664 H   0  0  0  0  0  0  0  0  0  0  0  0
    5.2616   18.3891    6.0731 C   0  0  0  0  0  0  0  0  0  0  0  0
    6.1800   18.1314    5.5665 H   0  0  0  0  0  0  0  0  0  0  0  0
    4.7992   17.6226    7.1252 C   0  0  0  0  0  0  0  0  0  0  0  0
    5.3313   16.7448    7.4558 H   0  0  0  0  0  0  0  0  0  0  0  0
    3.6150   17.9919    7.7670 C   0  0  0  0  0  0  0  0  0  0  0  0
    3.0584   17.1893    8.8781 C   0  0  0  0  0  0  0  0  0  0  0  0
    3.6607   17.2114   10.1369 C   0  0  0  0  0  0  0  0  0  0  0  0
    3.0886   16.4656   11.1573 C   0  0  0  0  0  0  0  0  0  0  0  0
    3.5398   16.4799   12.1380 H   0  0  0  0  0  0  0  0  0  0  0  0
    1.9385   15.7208   10.9624 C   0  0  0  0  0  0  0  0  0  0  0  0
    1.3648   15.7046    9.6997 C   0  0  0  0  0  0  0  0  0  0  0  0
    0.4669   15.1306    9.5361 H   0  0  0  0  0  0  0  0  0  0  0  0
    1.9104   16.4219    8.6498 C   0  0  0  0  0  0  0  0  0  0  0  0
    0.1398   22.8162    8.0550 C   0  0  0  0  0  0  0  0  0  0  0  0
    0.5353   23.9241    8.8141 C   0  0  0  0  0  0  0  0  0  0  0  0
   -0.1345   24.1909    9.9975 C   0  0  0  0  0  0  0  0  0  0  0  0
    0.1791   25.0321   10.5941 H   0  0  0  0  0  0  0  0  0  0  0  0
   -1.1739   23.3912   10.4445 C   0  0  0  0  0  0  0  0  0  0  0  0
   -1.5841   22.3300    9.6526 C   0  0  0  0  0  0  0  0  0  0  0  0
   -2.4116   21.7247    9.9863 H   0  0  0  0  0  0  0  0  0  0  0  0
   -0.9436   22.0170    8.4615 C   0  0  0  0  0  0  0  0  0  0  0  0
    4.9003   18.0310   10.4099 C   0  0  0  0  0  0  0  0  0  0  0  0
    5.1241   18.6403    9.5285 H   0  0  0  0  0  0  0  0  0  0  0  0
    4.6844   18.9900   11.5807 C   0  0  0  0  0  0  0  0  0  0  0  0
    3.8251   19.6249   11.3859 H   0  0  0  0  0  0  0  0  0  0  0  0
    5.5575   19.6268   11.7035 H   0  0  0  0  0  0  0  0  0  0  0  0
    4.5171   18.4521   12.5098 H   0  0  0  0  0  0  0  0  0  0  0  0
    6.0921   17.1073   10.6772 C   0  0  0  0  0  0  0  0  0  0  0  0
    5.9240   16.5159   11.5740 H   0  0  0  0  0  0  0  0  0  0  0  0
    6.9976   17.6935   10.8171 H   0  0  0  0  0  0  0  0  0  0  0  0
    6.2478   16.4238    9.8445 H   0  0  0  0  0  0  0  0  0  0  0  0
    1.3167   14.9616   12.1080 C   0  0  0  0  0  0  0  0  0  0  0  0
    1.9236   15.1387   13.0028 H   0  0  0  0  0  0  0  0  0  0  0  0
   -0.0964   15.4794   12.3830 C   0  0  0  0  0  0  0  0  0  0  0  0
   -0.0790   16.5592   12.5092 H   0  0  0  0  0  0  0  0  0  0  0  0
   -0.4979   15.0249   13.2865 H   0  0  0  0  0  0  0  0  0  0  0  0
   -0.7620   15.2442   11.5562 H   0  0  0  0  0  0  0  0  0  0  0  0
    1.3066   13.4568   11.8307 C   0  0  0  0  0  0  0  0  0  0  0  0
    0.6989   13.2277   10.9587 H   0  0  0  0  0  0  0  0  0  0  0  0
    0.8982   12.9189   12.6839 H   0  0  0  0  0  0  0  0  0  0  0  0
    2.3174   13.0984   11.6470 H   0  0  0  0  0  0  0  0  0  0  0  0
    1.2551   16.4095    7.2860 C   0  0  0  0  0  0  0  0  0  0  0  0
    1.9873   16.7486    6.5438 H   0  0  0  0  0  0  0  0  0  0  0  0
    0.0834   17.3924    7.2919 C   0  0  0  0  0  0  0  0  0  0  0  0
   -0.6805   17.0625    7.9917 H   0  0  0  0  0  0  0  0  0  0  0  0
   -0.3558   17.4817    6.2991 H   0  0  0  0  0  0  0  0  0  0  0  0
    0.4334   18.3788    7.6177 H   0  0  0  0  0  0  0  0  0  0  0  0
    0.7891   15.0155    6.8619 C   0  0  0  0  0  0  0  0  0  0  0  0
    1.5962   14.2942    6.9708 H   0  0  0  0  0  0  0  0  0  0  0  0
    0.4783   15.0314    5.8188 H   0  0  0  0  0  0  0  0  0  0  0  0
   -0.0568   14.6820    7.4568 H   0  0  0  0  0  0  0  0  0  0  0  0
    1.6615   24.8312    8.3732 C   0  0  0  0  0  0  0  0  0  0  0  0
    2.1654   24.3816    7.5120 H   0  0  0  0  0  0  0  0  0  0  0  0
    2.7121   25.0082    9.4703 C   0  0  0  0  0  0  0  0  0  0  0  0
    2.3140   25.5644   10.3144 H   0  0  0  0  0  0  0  0  0  0  0  0
    3.5667   25.5549    9.0771 H   0  0  0  0  0  0  0  0  0  0  0  0
    3.0481   24.0342    9.8180 H   0  0  0  0  0  0  0  0  0  0  0  0
    1.0904   26.1861    7.9430 C   0  0  0  0  0  0  0  0  0  0  0  0
    0.3610   26.0648    7.1440 H   0  0  0  0  0  0  0  0  0  0  0  0
    1.8884   26.8343    7.5873 H   0  0  0  0  0  0  0  0  0  0  0  0
    0.5969   26.6753    8.7792 H   0  0  0  0  0  0  0  0  0  0  0  0
   -1.8410   23.6496   11.7719 C   0  0  0  0  0  0  0  0  0  0  0  0
   -2.6666   22.9379   11.8834 H   0  0  0  0  0  0  0  0  0  0  0  0
   -0.8420   23.4015   12.9044 C   0  0  0  0  0  0  0  0  0  0  0  0
   -0.0212   24.1126   12.8557 H   0  0  0  0  0  0  0  0  0  0  0  0
   -0.4274   22.3996   12.8241 H   0  0  0  0  0  0  0  0  0  0  0  0
   -1.3317   23.5025   13.8707 H   0  0  0  0  0  0  0  0  0  0  0  0
   -2.4193   25.0636   11.8489 C   0  0  0  0  0  0  0  0  0  0  0  0
   -1.6309   25.8106   11.8035 H   0  0  0  0  0  0  0  0  0  0  0  0
   -2.9592   25.1962   12.7840 H   0  0  0  0  0  0  0  0  0  0  0  0
   -3.1076   25.2394   11.0244 H   0  0  0  0  0  0  0  0  0  0  0  0
   -1.5117   20.9617    7.5298 C   0  0  0  0  0  0  0  0  0  0  0  0
   -0.6935   20.4858    6.9726 H   0  0  0  0  0  0  0  0  0  0  0  0
   -2.4217   21.6613    6.5131 C   0  0  0  0  0  0  0  0  0  0  0  0
   -2.8585   20.9319    5.8338 H   0  0  0  0  0  0  0  0  0  0  0  0
   -1.8652   22.3899    5.9264 H   0  0  0  0  0  0  0  0  0  0  0  0
   -3.2268   22.1802    7.0294 H   0  0  0  0  0  0  0  0  0  0  0  0
   -2.2815   19.8562    8.2504 C   0  0  0  0  0  0  0  0  0  0  0  0
   -3.2257   20.2260    8.6430 H   0  0  0  0  0  0  0  0  0  0  0  0
   -1.6896   19.4523    9.0690 H   0  0  0  0  0  0  0  0  0  0  0  0
   -2.5032   19.0513    7.5523 H   0  0  0  0  0  0  0  0  0  0  0  0
    1.6957   21.3570    7.0128 N   0  0  0  0  0  0  0  0  0  0  0  0
    2.9216   19.0597    7.3836 N   0  0  0  0  0  0  0  0  0  0  0  0
    2.8281   21.4889    9.6902 Cl  0  0  0  0  0  0  0  0  0  0  0  0
    0.8457   19.3599   10.2790 Cl  0  0  0  0  0  0  0  0  0  0  0  0
    1.4555   20.3435    8.6380 Ni  0  0  0  0  0  0  0  0  0  0  0  0
  1 93  1  0  0  0  0
  1 25  1  1  0  0  0
  2  1  1  0  0  0  0
  3  2  1  0  0  0  0
  4  6  1  0  0  0  0
  4  2  2  0  0  0  0
  5  4  1  0  0  0  0
  6  8  2  0  0  0  0
  7  6  1  0  0  0  0
  8  9  1  0  0  0  0
  8 93  1  0  0  0  0
  9 10  1  1  0  0  0
  9 94  1  0  0  0  0
 10 12  2  0  0  0  0
 11 10  1  0  0  0  0
 12 14  1  0  0  0  0
 13 12  1  0  0  0  0
 14 15  1  0  0  0  0
 14 16  2  0  0  0  0
 16 17  1  0  0  0  0
 17 18  1  0  0  0  0
 18 33  1  0  0  0  0
 18 19  2  0  0  0  0
 19 20  1  0  0  0  0
 21 19  1  0  0  0  0
 21 43  1  0  0  0  0
 22 21  2  0  0  0  0
 23 22  1  0  0  0  0
 24 17  2  0  0  0  0
 24 22  1  0  0  0  0
 25 32  2  0  0  0  0
 25 26  1  0  0  0  0
 26 27  2  0  0  0  0
 27 29  1  0  0  0  0
 27 28  1  0  0  0  0
 29 73  1  0  0  0  0
 30 31  1  0  0  0  0
 30 29  2  0  0  0  0
 32 30  1  0  0  0  0
 33 39  1  0  0  0  0
 33 35  1  0  0  0  0
 34 33  1  0  0  0  0
 35 37  1  0  0  0  0
 35 38  1  0  0  0  0
 36 35  1  0  0  0  0
 39 41  1  0  0  0  0
 39 40  1  0  0  0  0
 42 39  1  0  0  0  0
 43 45  1  0  0  0  0
 43 44  1  0  0  0  0
 45 46  1  0  0  0  0
 45 47  1  0  0  0  0
 48 45  1  0  0  0  0
 49 43  1  0  0  0  0
 49 51  1  0  0  0  0
 50 49  1  0  0  0  0
 52 49  1  0  0  0  0
 53 55  1  0  0  0  0
 53 24  1  0  0  0  0
 54 53  1  0  0  0  0
 55 58  1  0  0  0  0
 55 56  1  0  0  0  0
 57 55  1  0  0  0  0
 59 60  1  0  0  0  0
 59 53  1  0  0  0  0
 59 62  1  0  0  0  0
 61 59  1  0  0  0  0
 63 26  1  0  0  0  0
 63 65  1  0  0  0  0
 64 63  1  0  0  0  0
 65 68  1  0  0  0  0
 65 66  1  0  0  0  0
 67 65  1  0  0  0  0
 69 63  1  0  0  0  0
 69 72  1  0  0  0  0
 70 69  1  0  0  0  0
 71 69  1  0  0  0  0
 73 79  1  0  0  0  0
 73 74  1  0  0  0  0
 73 75  1  0  0  0  0
 75 78  1  0  0  0  0
 76 75  1  0  0  0  0
 77 75  1  0  0  0  0
 79 81  1  0  0  0  0
 80 79  1  0  0  0  0
 82 79  1  0  0  0  0
 83 89  1  0  0  0  0
 83 32  1  0  0  0  0
 84 83  1  0  0  0  0
 85 88  1  0  0  0  0
 85 83  1  0  0  0  0
 86 85  1  0  0  0  0
 87 85  1  0  0  0  0
 89 90  1  0  0  0  0
 89 91  1  0  0  0  0
 92 89  1  0  0  0  0
 93 97  1  0  0  0  0
 94 16  1  0  0  0  0
 94 97  1  0  0  0  0
 97 95  1  0  0  0  0
 97 96  1  0  0  0  0
M  END
$$$$
