CSD_code = ARUKUU | q = 0 | S = 0 | Stoichiometry = C10H16CuIN4S2 | MND = 3
 OpenBabel04212202003D

 34 35  0  0  1  0  0  0  0  0999 V2000
    2.9963    9.9701    1.8624 I   0  0  0  0  0  0  0  0  0  0  0  0
    1.5964    9.3602    3.9144 Cu  0  0  0  0  0  0  0  0  0  0  0  0
   -0.5832    9.8801    3.9700 S   0  0  0  0  0  0  0  0  0  0  0  0
    2.5702    8.3091    5.6373 S   0  0  0  0  0  0  0  0  0  0  0  0
   -0.5310    9.9073    1.2595 N   0  0  0  0  0  0  0  0  0  0  0  0
   -0.4088    7.9087    2.1257 N   0  0  0  0  0  0  0  0  0  0  0  0
    4.9353    9.3457    4.8104 N   0  0  0  0  0  0  0  0  0  0  0  0
    3.5972   10.8100    5.7182 N   0  0  0  0  0  0  0  0  0  0  0  0
   -0.4769    9.2286    2.4269 C   0  0  2  0  0  3  0  0  0  0  0  0
   -0.5484   11.3363    1.1334 C   0  0  0  0  0  0  0  0  0  0  0  0
   -0.7677   11.7626    2.1121 H   0  0  0  0  0  0  0  0  0  0  0  0
   -1.3153   11.6387    0.4209 H   0  0  0  0  0  0  0  0  0  0  0  0
    0.4263   11.6939    0.7950 H   0  0  0  0  0  0  0  0  0  0  0  0
   -0.4487    9.0102    0.2259 C   0  0  0  0  0  0  0  0  0  0  0  0
   -0.4350    9.3301   -0.7944 H   0  0  0  0  0  0  0  0  0  0  0  0
   -0.3742    7.7721    0.7615 C   0  0  0  0  0  0  0  0  0  0  0  0
   -0.2935    6.8139    0.2927 H   0  0  0  0  0  0  0  0  0  0  0  0
   -0.2869    6.8715    3.1083 C   0  0  0  0  0  0  0  0  0  0  0  0
    0.5324    7.1134    3.7985 H   0  0  0  0  0  0  0  0  0  0  0  0
   -0.0769    5.9265    2.6139 H   0  0  0  0  0  0  0  0  0  0  0  0
   -1.2057    6.7898    3.6931 H   0  0  0  0  0  0  0  0  0  0  0  0
    3.7095    9.5089    5.3554 C   0  0  2  0  0  3  0  0  0  0  0  0
    5.4316    8.1275    4.2377 C   0  0  0  0  0  0  0  0  0  0  0  0
    4.7575    7.3190    4.5190 H   0  0  0  0  0  0  0  0  0  0  0  0
    6.4326    7.9180    4.6138 H   0  0  0  0  0  0  0  0  0  0  0  0
    5.4599    8.2109    3.1494 H   0  0  0  0  0  0  0  0  0  0  0  0
    5.5732   10.5592    4.7931 C   0  0  0  0  0  0  0  0  0  0  0  0
    6.5489   10.6734    4.3704 H   0  0  0  0  0  0  0  0  0  0  0  0
    4.7455   11.4665    5.3561 C   0  0  0  0  0  0  0  0  0  0  0  0
    4.8720   12.5155    5.5231 H   0  0  0  0  0  0  0  0  0  0  0  0
    2.4116   11.3820    6.2870 C   0  0  0  0  0  0  0  0  0  0  0  0
    2.2370   10.9823    7.2882 H   0  0  0  0  0  0  0  0  0  0  0  0
    1.5439   11.1250    5.6646 H   0  0  0  0  0  0  0  0  0  0  0  0
    2.5174   12.4630    6.3323 H   0  0  0  0  0  0  0  0  0  0  0  0
  1  2  1  0  0  0  0
  2  3  1  0  0  0  0
  2  4  1  0  0  0  0
  5  9  1  0  0  0  0
  6  9  1  0  0  0  0
  6 18  1  0  0  0  0
  7 22  1  0  0  0  0
  8 31  1  0  0  0  0
  9  3  1  1  0  0  0
 10  5  1  0  0  0  0
 10 11  1  0  0  0  0
 12 10  1  0  0  0  0
 13 10  1  0  0  0  0
 14 16  2  0  0  0  0
 14  5  1  0  0  0  0
 15 14  1  0  0  0  0
 16  6  1  0  0  0  0
 17 16  1  0  0  0  0
 18 21  1  0  0  0  0
 18 19  1  0  0  0  0
 20 18  1  0  0  0  0
 22  4  1  1  0  0  0
 22  8  1  0  0  0  0
 23 24  1  0  0  0  0
 23 25  1  0  0  0  0
 23  7  1  0  0  0  0
 26 23  1  0  0  0  0
 27  7  1  0  0  0  0
 27 29  2  0  0  0  0
 28 27  1  0  0  0  0
 29 30  1  0  0  0  0
 29  8  1  0  0  0  0
 31 34  1  0  0  0  0
 31 32  1  0  0  0  0
 33 31  1  0  0  0  0
M  END
$$$$
