CSD_code = ARUQEL | q = 0 | S = 0 | Stoichiometry = C38H55ClN3Nb | MND = 8
 OpenBabel04212202003D

 98100  0  0  1  0  0  0  0  0999 V2000
    5.0906   17.2873   11.8737 C   0  0  2  0  0  0  0  0  0  0  0  0
    5.3289   17.9444   11.0445 H   0  0  0  0  0  0  0  0  0  0  0  0
    5.6426   17.3466   13.1683 C   0  0  0  0  0  3  0  0  0  0  0  0
    6.4256   18.0223   13.4929 H   0  0  0  0  0  0  0  0  0  0  0  0
    4.8986   16.4892   14.0019 C   0  0  0  0  0  0  0  0  0  0  0  0
    5.0387   16.3802   15.0685 H   0  0  0  0  0  0  0  0  0  0  0  0
    3.8880   15.8968   13.2402 C   0  0  0  0  0  0  0  0  0  0  0  0
    3.0975   15.2587   13.6144 H   0  0  0  0  0  0  0  0  0  0  0  0
    4.0087   16.3647   11.9113 C   0  0  0  0  0  3  0  0  0  0  0  0
    3.2731   16.2389   11.1270 H   0  0  0  0  0  0  0  0  0  0  0  0
    7.8851   14.9361    9.6549 C   0  0  0  0  0  0  0  0  0  0  0  0
    9.2951   15.0162   10.2722 C   0  0  0  0  0  0  0  0  0  0  0  0
    9.3661   15.9105   10.8900 H   0  0  0  0  0  0  0  0  0  0  0  0
   10.0562   15.0474    9.4978 H   0  0  0  0  0  0  0  0  0  0  0  0
    9.4524   14.1476   10.9089 H   0  0  0  0  0  0  0  0  0  0  0  0
    7.6088   16.2029    8.8223 C   0  0  0  0  0  0  0  0  0  0  0  0
    6.6168   16.1482    8.3795 H   0  0  0  0  0  0  0  0  0  0  0  0
    8.3463   16.3027    8.0308 H   0  0  0  0  0  0  0  0  0  0  0  0
    7.6586   17.0763    9.4709 H   0  0  0  0  0  0  0  0  0  0  0  0
    7.7716   13.6845    8.7687 C   0  0  0  0  0  0  0  0  0  0  0  0
    7.9267   12.7963    9.3746 H   0  0  0  0  0  0  0  0  0  0  0  0
    8.5145   13.7190    7.9766 H   0  0  0  0  0  0  0  0  0  0  0  0
    6.7808   13.6258    8.3282 H   0  0  0  0  0  0  0  0  0  0  0  0
    5.6091   12.2107   11.2997 C   0  0  0  0  0  0  0  0  0  0  0  0
    4.7198   12.1560   10.2179 C   0  0  0  0  0  0  0  0  0  0  0  0
    4.9306   11.2078    9.2250 C   0  0  0  0  0  0  0  0  0  0  0  0
    4.2596   11.1599    8.3813 H   0  0  0  0  0  0  0  0  0  0  0  0
    5.9807   10.3149    9.3059 C   0  0  0  0  0  0  0  0  0  0  0  0
    6.1212    9.5735    8.5337 H   0  0  0  0  0  0  0  0  0  0  0  0
    6.8547   10.3747   10.3751 C   0  0  0  0  0  0  0  0  0  0  0  0
    7.6732    9.6746   10.4269 H   0  0  0  0  0  0  0  0  0  0  0  0
    6.6959   11.3234   11.3759 C   0  0  0  0  0  0  0  0  0  0  0  0
    3.5573   13.1175   10.1090 C   0  0  0  0  0  0  0  0  0  0  0  0
    3.4560   13.6460   11.0647 H   0  0  0  0  0  0  0  0  0  0  0  0
    2.2366   12.3991    9.8221 C   0  0  0  0  0  0  0  0  0  0  0  0
    1.4085   13.1011    9.8968 H   0  0  0  0  0  0  0  0  0  0  0  0
    2.0712   11.5946   10.5347 H   0  0  0  0  0  0  0  0  0  0  0  0
    2.2280   11.9772    8.8207 H   0  0  0  0  0  0  0  0  0  0  0  0
    3.8560   14.1573    9.0246 C   0  0  0  0  0  0  0  0  0  0  0  0
    4.7467   14.7243    9.3038 H   0  0  0  0  0  0  0  0  0  0  0  0
    3.0159   14.8403    8.9116 H   0  0  0  0  0  0  0  0  0  0  0  0
    4.0289   13.6697    8.0678 H   0  0  0  0  0  0  0  0  0  0  0  0
    7.6664   11.4010   12.5338 C   0  0  0  0  0  0  0  0  0  0  0  0
    7.6241   12.4207   12.9402 H   0  0  0  0  0  0  0  0  0  0  0  0
    9.1115   11.1390   12.1062 C   0  0  0  0  0  0  0  0  0  0  0  0
    9.2780   10.0882   11.8814 H   0  0  0  0  0  0  0  0  0  0  0  0
    9.7846   11.4201   12.9126 H   0  0  0  0  0  0  0  0  0  0  0  0
    9.3617   11.7305   11.2288 H   0  0  0  0  0  0  0  0  0  0  0  0
    7.2547   10.4127   13.6302 C   0  0  0  0  0  0  0  0  0  0  0  0
    6.2565   10.6372   13.9972 H   0  0  0  0  0  0  0  0  0  0  0  0
    7.9502   10.4699   14.4642 H   0  0  0  0  0  0  0  0  0  0  0  0
    7.2599    9.3958   13.2423 H   0  0  0  0  0  0  0  0  0  0  0  0
    3.6453   11.7594   13.3033 C   0  0  0  0  0  0  0  0  0  0  0  0
    3.5062   11.2036   14.2260 H   0  0  0  0  0  0  0  0  0  0  0  0
    3.8550   11.0789   12.4802 H   0  0  0  0  0  0  0  0  0  0  0  0
    2.7068   12.2753   13.1005 H   0  0  0  0  0  0  0  0  0  0  0  0
    4.7550   12.7601   13.4615 C   0  0  0  0  0  0  0  0  0  0  0  0
    5.0922   13.2789   14.6754 C   0  0  0  0  0  0  0  0  0  0  0  0
    6.0167   13.8429   14.7563 H   0  0  0  0  0  0  0  0  0  0  0  0
    4.3894   13.1046   15.9188 C   0  0  0  0  0  0  0  0  0  0  0  0
    5.1388   13.5423   17.1536 C   0  0  0  0  0  0  0  0  0  0  0  0
    4.5414   13.3621   18.0455 H   0  0  0  0  0  0  0  0  0  0  0  0
    5.3775   14.6037   17.0979 H   0  0  0  0  0  0  0  0  0  0  0  0
    6.0762   12.9929   17.2289 H   0  0  0  0  0  0  0  0  0  0  0  0
    2.4009   12.4696   17.0490 C   0  0  0  0  0  0  0  0  0  0  0  0
    1.5391   13.5077   17.4424 C   0  0  0  0  0  0  0  0  0  0  0  0
    0.6258   13.2723   18.4557 C   0  0  0  0  0  0  0  0  0  0  0  0
   -0.0485   14.0589   18.7596 H   0  0  0  0  0  0  0  0  0  0  0  0
    0.5628   12.0447   19.0890 C   0  0  0  0  0  0  0  0  0  0  0  0
   -0.1546   11.8784   19.8792 H   0  0  0  0  0  0  0  0  0  0  0  0
    1.4215   11.0321   18.7054 C   0  0  0  0  0  0  0  0  0  0  0  0
    1.3704   10.0760   19.2054 H   0  0  0  0  0  0  0  0  0  0  0  0
    2.3445   11.2228   17.6903 C   0  0  0  0  0  0  0  0  0  0  0  0
    1.5910   14.8432   16.7342 C   0  0  0  0  0  0  0  0  0  0  0  0
    2.5335   14.8993   16.1798 H   0  0  0  0  0  0  0  0  0  0  0  0
    0.4455   14.9317   15.7221 C   0  0  0  0  0  0  0  0  0  0  0  0
   -0.5147   14.8732   16.2301 H   0  0  0  0  0  0  0  0  0  0  0  0
    0.5087   14.1075   15.0142 H   0  0  0  0  0  0  0  0  0  0  0  0
    0.4914   15.8713   15.1734 H   0  0  0  0  0  0  0  0  0  0  0  0
    1.5519   16.0249   17.7034 C   0  0  0  0  0  0  0  0  0  0  0  0
    1.7472   16.9521   17.1672 H   0  0  0  0  0  0  0  0  0  0  0  0
    2.3066   15.9078   18.4788 H   0  0  0  0  0  0  0  0  0  0  0  0
    0.5791   16.1124   18.1804 H   0  0  0  0  0  0  0  0  0  0  0  0
    3.2738   10.1044   17.2754 C   0  0  0  0  0  0  0  0  0  0  0  0
    3.9491   10.4853   16.5017 H   0  0  0  0  0  0  0  0  0  0  0  0
    4.1308    9.6299   18.4505 C   0  0  0  0  0  0  0  0  0  0  0  0
    4.6832   10.4634   18.8796 H   0  0  0  0  0  0  0  0  0  0  0  0
    4.8438    8.8792   18.1150 H   0  0  0  0  0  0  0  0  0  0  0  0
    3.5139    9.1909   19.2305 H   0  0  0  0  0  0  0  0  0  0  0  0
    2.4791    8.9418   16.6766 C   0  0  0  0  0  0  0  0  0  0  0  0
    1.8100    8.5114   17.4178 H   0  0  0  0  0  0  0  0  0  0  0  0
    3.1538    8.1626   16.3270 H   0  0  0  0  0  0  0  0  0  0  0  0
    1.8815    9.2876   15.8356 H   0  0  0  0  0  0  0  0  0  0  0  0
    6.9687   14.8835   10.7231 N   0  0  0  0  0  2  0  0  0  0  0  0
    5.4487   13.1671   12.3443 N   0  0  0  0  0  0  0  0  0  0  0  0
    3.2038   12.6383   15.9388 N   0  0  0  0  0  0  0  0  0  0  0  0
    7.9235   15.1069   13.6534 Cl  0  0  0  0  0  0  0  0  0  0  0  0
    6.0608   15.0769   12.2239 Nb  0  0  2  0  0  0  0  0  0  0  0  0
  1  2  1  6  0  0  0
  1  9  1  0  0  0  0
  1 98  1  0  0  0  0
  1  3  1  0  0  0  0
  3  4  1  0  0  0  0
  3  5  1  0  0  0  0
  5  6  1  0  0  0  0
  7  8  1  0  0  0  0
  7  5  2  0  0  0  0
  9  7  1  0  0  0  0
 10  9  1  0  0  0  0
 11 12  1  0  0  0  0
 11 94  1  0  0  0  0
 12 13  1  0  0  0  0
 12 15  1  0  0  0  0
 14 12  1  0  0  0  0
 16 19  1  0  0  0  0
 16 11  1  0  0  0  0
 17 16  1  0  0  0  0
 18 16  1  0  0  0  0
 20 21  1  0  0  0  0
 20 11  1  0  0  0  0
 22 20  1  0  0  0  0
 23 20  1  0  0  0  0
 24 32  1  0  0  0  0
 24 95  1  0  0  0  0
 25 24  2  0  0  0  0
 26 28  2  0  0  0  0
 26 25  1  0  0  0  0
 27 26  1  0  0  0  0
 28 30  1  0  0  0  0
 29 28  1  0  0  0  0
 30 31  1  0  0  0  0
 30 32  2  0  0  0  0
 32 43  1  0  0  0  0
 33 25  1  0  0  0  0
 33 34  1  0  0  0  0
 35 36  1  0  0  0  0
 35 33  1  0  0  0  0
 35 37  1  0  0  0  0
 38 35  1  0  0  0  0
 39 40  1  0  0  0  0
 39 33  1  0  0  0  0
 41 39  1  0  0  0  0
 42 39  1  0  0  0  0
 43 44  1  0  0  0  0
 43 49  1  0  0  0  0
 45 43  1  0  0  0  0
 45 47  1  0  0  0  0
 46 45  1  0  0  0  0
 48 45  1  0  0  0  0
 49 50  1  0  0  0  0
 49 51  1  0  0  0  0
 52 49  1  0  0  0  0
 53 57  1  0  0  0  0
 53 54  1  0  0  0  0
 55 53  1  0  0  0  0
 56 53  1  0  0  0  0
 57 58  2  0  0  0  0
 58 59  1  0  0  0  0
 58 60  1  0  0  0  0
 60 96  2  0  0  0  0
 60 61  1  0  0  0  0
 61 64  1  0  0  0  0
 61 62  1  0  0  0  0
 63 61  1  0  0  0  0
 65 66  2  0  0  0  0
 65 73  1  0  0  0  0
 66 67  1  0  0  0  0
 67 68  1  0  0  0  0
 67 69  2  0  0  0  0
 69 70  1  0  0  0  0
 71 69  1  0  0  0  0
 71 72  1  0  0  0  0
 73 71  2  0  0  0  0
 74 66  1  0  0  0  0
 74 80  1  0  0  0  0
 75 74  1  0  0  0  0
 76 77  1  0  0  0  0
 76 74  1  0  0  0  0
 78 76  1  0  0  0  0
 79 76  1  0  0  0  0
 80 83  1  0  0  0  0
 80 82  1  0  0  0  0
 81 80  1  0  0  0  0
 84 73  1  0  0  0  0
 84 86  1  0  0  0  0
 85 84  1  0  0  0  0
 86 87  1  0  0  0  0
 86 89  1  0  0  0  0
 88 86  1  0  0  0  0
 90 84  1  0  0  0  0
 90 91  1  0  0  0  0
 92 90  1  0  0  0  0
 93 90  1  0  0  0  0
 94 98  1  0  0  0  0
 95 57  1  0  0  0  0
 96 65  1  0  0  0  0
 98 95  1  0  0  0  0
 98 97  1  1  0  0  0
M  END
$$$$
