CSD_code = ASAFOQ | q = 1 | S = 0 | Stoichiometry = C31H33ClF3P2PtS2(1+) | MND = 4
 OpenBabel04212202003D

 73 77  0  0  0  0  0  0  0  0999 V2000
    5.3391    6.6234    9.8929 Pt  0  0  2  0  0  0  0  0  0  0  0  0
    7.3505    5.8301   10.6629 Cl  0  0  0  0  0  0  0  0  0  0  0  0
    6.3107    6.8885    7.7079 S   0  0  2  0  0  3  0  0  0  0  0  0
    7.0895    9.3203   14.0758 S   0  0  0  0  0  0  0  0  0  0  0  0
    3.4535    7.5526    9.0138 P   0  0  0  0  0  4  0  0  0  0  0  0
    4.7278    6.1863   12.0524 P   0  0  0  0  0  4  0  0  0  0  0  0
    5.4031   11.5316   15.7120 F   0  0  0  0  0  0  0  0  0  0  0  0
    4.3062   10.5553   14.1461 F   0  0  0  0  0  0  0  0  0  0  0  0
    4.8608   12.6132   13.9287 F   0  0  0  0  0  0  0  0  0  0  0  0
    7.4049    8.2776    8.1153 C   0  0  0  0  0  0  0  0  0  0  0  0
    7.8520    8.6459    7.1960 H   0  0  0  0  0  0  0  0  0  0  0  0
    8.1781    7.8776    8.7667 H   0  0  0  0  0  0  0  0  0  0  0  0
    6.8621    9.0705    8.6230 H   0  0  0  0  0  0  0  0  0  0  0  0
    5.0064    7.7399    6.7393 C   0  0  0  0  0  0  0  0  0  0  0  0
    5.5140    8.3397    5.9834 H   0  0  0  0  0  0  0  0  0  0  0  0
    4.4628    6.9338    6.2425 H   0  0  0  0  0  0  0  0  0  0  0  0
    4.0635    8.5741    7.5889 C   0  0  0  0  0  0  0  0  0  0  0  0
    3.2146    8.9168    6.9895 H   0  0  0  0  0  0  0  0  0  0  0  0
    4.5672    9.4594    7.9879 H   0  0  0  0  0  0  0  0  0  0  0  0
    2.3453    6.3769    8.2043 C   0  0  0  0  0  0  0  0  0  0  0  0
    2.6554    5.0258    8.3294 C   0  0  0  0  0  0  0  0  0  0  0  0
    3.5204    4.7397    8.9224 H   0  0  0  0  0  0  0  0  0  0  0  0
    1.8779    4.0723    7.6993 C   0  0  0  0  0  0  0  0  0  0  0  0
    2.1198    3.0251    7.7963 H   0  0  0  0  0  0  0  0  0  0  0  0
    0.7887    4.4681    6.9389 C   0  0  0  0  0  0  0  0  0  0  0  0
    0.1786    3.7272    6.4462 H   0  0  0  0  0  0  0  0  0  0  0  0
    0.4840    5.8141    6.8009 C   0  0  0  0  0  0  0  0  0  0  0  0
   -0.3596    6.1171    6.1996 H   0  0  0  0  0  0  0  0  0  0  0  0
    1.2601    6.7727    7.4269 C   0  0  0  0  0  0  0  0  0  0  0  0
    1.0256    7.8218    7.3110 H   0  0  0  0  0  0  0  0  0  0  0  0
    2.4849    8.7500    9.9629 C   0  0  0  0  0  0  0  0  0  0  0  0
    3.2058    9.7763   10.5722 C   0  0  0  0  0  0  0  0  0  0  0  0
    4.2823    9.8091   10.4471 H   0  0  0  0  0  0  0  0  0  0  0  0
    2.5548   10.7332   11.3246 C   0  0  0  0  0  0  0  0  0  0  0  0
    3.1080   11.5364   11.7864 H   0  0  0  0  0  0  0  0  0  0  0  0
    1.1792   10.6608   11.4851 C   0  0  0  0  0  0  0  0  0  0  0  0
    0.6685   11.4084   12.0714 H   0  0  0  0  0  0  0  0  0  0  0  0
    0.4635    9.6293   10.9017 C   0  0  0  0  0  0  0  0  0  0  0  0
   -0.6056    9.5709   11.0355 H   0  0  0  0  0  0  0  0  0  0  0  0
    1.1108    8.6683   10.1439 C   0  0  0  0  0  0  0  0  0  0  0  0
    0.5518    7.8571    9.7024 H   0  0  0  0  0  0  0  0  0  0  0  0
    5.7894    7.0278   13.2894 C   0  0  0  0  0  0  0  0  0  0  0  0
    5.2765    7.0624   14.2541 H   0  0  0  0  0  0  0  0  0  0  0  0
    6.7058    6.4426   13.3993 H   0  0  0  0  0  0  0  0  0  0  0  0
    6.1174    8.4273   12.7944 C   0  0  0  0  0  0  0  0  0  0  0  0
    5.2057    8.9912   12.6038 H   0  0  0  0  0  0  0  0  0  0  0  0
    6.7216    8.3669   11.8838 H   0  0  0  0  0  0  0  0  0  0  0  0
    6.6064   11.0407   13.7192 C   0  0  0  0  0  0  0  0  0  0  0  0
    7.3943   11.6809   14.1163 H   0  0  0  0  0  0  0  0  0  0  0  0
    6.5178   11.1882   12.6436 H   0  0  0  0  0  0  0  0  0  0  0  0
    5.3018   11.4307   14.3915 C   0  0  0  0  0  0  0  0  0  0  0  0
    4.8107    4.4195   12.4237 C   0  0  0  0  0  0  0  0  0  0  0  0
    5.0748    3.5045   11.4115 C   0  0  0  0  0  0  0  0  0  0  0  0
    5.2679    3.8634   10.4051 H   0  0  0  0  0  0  0  0  0  0  0  0
    5.1225    2.1527   11.6992 C   0  0  0  0  0  0  0  0  0  0  0  0
    5.3357    1.4413   10.9160 H   0  0  0  0  0  0  0  0  0  0  0  0
    4.9050    1.7149   12.9957 C   0  0  0  0  0  0  0  0  0  0  0  0
    4.9496    0.6608   13.2219 H   0  0  0  0  0  0  0  0  0  0  0  0
    4.6323    2.6260   14.0048 C   0  0  0  0  0  0  0  0  0  0  0  0
    4.4630    2.2807   15.0131 H   0  0  0  0  0  0  0  0  0  0  0  0
    4.5785    3.9785   13.7236 C   0  0  0  0  0  0  0  0  0  0  0  0
    4.3578    4.6918   14.5051 H   0  0  0  0  0  0  0  0  0  0  0  0
    3.0070    6.5993   12.4696 C   0  0  0  0  0  0  0  0  0  0  0  0
    2.6267    7.6069   13.3468 C   0  0  0  0  0  0  0  0  0  0  0  0
    3.3591    8.2275   13.8371 H   0  0  0  0  0  0  0  0  0  0  0  0
    1.2837    7.8196   13.6088 C   0  0  0  0  0  0  0  0  0  0  0  0
    0.9957    8.5994   14.2966 H   0  0  0  0  0  0  0  0  0  0  0  0
    0.3179    7.0356   13.0021 C   0  0  0  0  0  0  0  0  0  0  0  0
   -0.7259    7.1993   13.2209 H   0  0  0  0  0  0  0  0  0  0  0  0
    0.6926    6.0371   12.1157 C   0  0  0  0  0  0  0  0  0  0  0  0
   -0.0574    5.4223   11.6414 H   0  0  0  0  0  0  0  0  0  0  0  0
    2.0298    5.8240   11.8464 C   0  0  0  0  0  0  0  0  0  0  0  0
    2.3335    5.0388   11.1662 H   0  0  0  0  0  0  0  0  0  0  0  0
  1  2  1  1  0  0  0
  1  6  1  0  0  0  0
  3 10  1  1  0  0  0
  3  1  1  0  0  0  0
  5  1  1  0  0  0  0
  5 31  1  0  0  0  0
  6 52  1  0  0  0  0
  6 63  1  0  0  0  0
  6 42  1  0  0  0  0
  8 51  1  0  0  0  0
  9 51  1  0  0  0  0
 10 13  1  0  0  0  0
 10 12  1  0  0  0  0
 11 10  1  0  0  0  0
 14 17  1  0  0  0  0
 14  3  1  0  0  0  0
 15 14  1  0  0  0  0
 16 14  1  0  0  0  0
 17 19  1  0  0  0  0
 17  5  1  0  0  0  0
 18 17  1  0  0  0  0
 20 21  1  0  0  0  0
 20  5  1  0  0  0  0
 21 22  1  0  0  0  0
 23 24  1  0  0  0  0
 23 21  2  0  0  0  0
 25 23  1  0  0  0  0
 26 25  1  0  0  0  0
 27 25  2  0  0  0  0
 27 29  1  0  0  0  0
 28 27  1  0  0  0  0
 29 20  2  0  0  0  0
 30 29  1  0  0  0  0
 31 40  2  0  0  0  0
 31 32  1  0  0  0  0
 32 34  2  0  0  0  0
 33 32  1  0  0  0  0
 34 36  1  0  0  0  0
 34 35  1  0  0  0  0
 36 37  1  0  0  0  0
 38 39  1  0  0  0  0
 38 36  2  0  0  0  0
 40 38  1  0  0  0  0
 41 40  1  0  0  0  0
 42 44  1  0  0  0  0
 42 43  1  0  0  0  0
 45 42  1  0  0  0  0
 45  4  1  0  0  0  0
 46 45  1  0  0  0  0
 47 45  1  0  0  0  0
 48  4  1  0  0  0  0
 48 49  1  0  0  0  0
 48 51  1  0  0  0  0
 50 48  1  0  0  0  0
 51  7  1  0  0  0  0
 52 61  1  0  0  0  0
 53 55  1  0  0  0  0
 53 52  2  0  0  0  0
 54 53  1  0  0  0  0
 55 57  2  0  0  0  0
 56 55  1  0  0  0  0
 57 58  1  0  0  0  0
 57 59  1  0  0  0  0
 59 60  1  0  0  0  0
 61 59  2  0  0  0  0
 61 62  1  0  0  0  0
 63 64  1  0  0  0  0
 64 66  2  0  0  0  0
 64 65  1  0  0  0  0
 66 67  1  0  0  0  0
 68 69  1  0  0  0  0
 68 66  1  0  0  0  0
 70 68  2  0  0  0  0
 71 70  1  0  0  0  0
 72 70  1  0  0  0  0
 72 63  2  0  0  0  0
 73 72  1  0  0  0  0
M  END
$$$$
