CSD_code = ASAJEL | q = -1 | S = 0 | Stoichiometry = C8H13Cl4NORhS(1-) | MND = 6
 OpenBabel04212202003D

 29 29  0  0  0  0  0  0  0  0999 V2000
   10.4468    4.7931    5.5094 Rh  0  0  0  0  0  0  0  0  0  0  0  0
   12.6982    4.3137    5.3711 Cl  0  0  0  0  0  0  0  0  0  0  0  0
   10.2781    3.4921    7.4334 Cl  0  0  0  0  0  0  0  0  0  0  0  0
    8.1651    5.3434    5.7014 Cl  0  0  0  0  0  0  0  0  0  0  0  0
   10.6457    6.1147    3.6027 Cl  0  0  0  0  0  0  0  0  0  0  0  0
   10.7940    6.6089    6.7760 S   0  0  0  0  0  0  0  0  0  0  0  0
   12.1354    7.0176    7.1472 O   0  0  0  0  0  1  0  0  0  0  0  0
   10.0448    3.2136    4.3914 N   0  0  0  0  0  0  0  0  0  0  0  0
   10.6448    2.0420    4.6121 C   0  0  0  0  0  3  0  0  0  0  0  0
   11.3714    2.0098    5.4129 H   0  0  0  0  0  0  0  0  0  0  0  0
   10.3687    0.9199    3.8565 C   0  0  0  0  0  0  0  0  0  0  0  0
   10.8828   -0.0037    4.0756 H   0  0  0  0  0  0  0  0  0  0  0  0
    9.4394    0.9851    2.8243 C   0  0  0  0  0  0  0  0  0  0  0  0
    8.8291    2.2144    2.6076 C   0  0  0  0  0  0  0  0  0  0  0  0
    8.1003    2.3374    1.8208 H   0  0  0  0  0  0  0  0  0  0  0  0
    9.1541    3.2966    3.4021 C   0  0  0  0  0  0  0  0  0  0  0  0
    8.6889    4.2602    3.2397 H   0  0  0  0  0  0  0  0  0  0  0  0
    9.1009   -0.2190    2.0029 C   0  0  0  0  0  0  0  0  0  0  0  0
    8.6693    0.0716    1.0481 H   0  0  0  0  0  0  0  0  0  0  0  0
    8.3735   -0.8336    2.5342 H   0  0  0  0  0  0  0  0  0  0  0  0
    9.9869   -0.8249    1.8261 H   0  0  0  0  0  0  0  0  0  0  0  0
   10.0014    8.0955    6.0800 C   0  0  0  0  0  0  0  0  0  0  0  0
   10.1263    8.9038    6.7915 H   0  0  0  0  0  0  0  0  0  0  0  0
    8.9586    7.8631    5.8973 H   0  0  0  0  0  0  0  0  0  0  0  0
   10.5022    8.3230    5.1449 H   0  0  0  0  0  0  0  0  0  0  0  0
    9.8453    6.5655    8.3320 C   0  0  0  0  0  0  0  0  0  0  0  0
    9.9922    7.5128    8.8382 H   0  0  0  0  0  0  0  0  0  0  0  0
   10.2337    5.7457    8.9272 H   0  0  0  0  0  0  0  0  0  0  0  0
    8.8049    6.3877    8.0851 H   0  0  0  0  0  0  0  0  0  0  0  0
  1  4  1  0  0  0  0
  1  6  1  0  0  0  0
  1  3  1  0  0  0  0
  2  1  1  0  0  0  0
  5  1  1  0  0  0  0
  6  7  1  0  0  0  0
  6 26  1  0  0  0  0
  8  9  1  0  0  0  0
  8  1  1  0  0  0  0
  9 10  1  0  0  0  0
 11 12  1  0  0  0  0
 11  9  1  0  0  0  0
 13 11  2  0  0  0  0
 14 13  1  0  0  0  0
 14 16  2  0  0  0  0
 15 14  1  0  0  0  0
 16  8  1  0  0  0  0
 17 16  1  0  0  0  0
 18 20  1  0  0  0  0
 18 13  1  0  0  0  0
 19 18  1  0  0  0  0
 21 18  1  0  0  0  0
 22  6  1  0  0  0  0
 22 23  1  0  0  0  0
 24 22  1  0  0  0  0
 25 22  1  0  0  0  0
 26 27  1  0  0  0  0
 26 28  1  0  0  0  0
 29 26  1  0  0  0  0
M  END
$$$$
