CSD_code = ASAMOW | q = 0 | S = 0 | Stoichiometry = C33H24ClN4O3Re | MND = 6
 OpenBabel04212202003D

 66 71  0  0  0  0  0  0  0  0999 V2000
    7.1835   11.3845   54.0742 Re  0  0  0  0  0  0  0  0  0  0  0  0
    6.9353    9.6197   52.4730 Cl  0  0  0  0  0  0  0  0  0  0  0  0
    5.8994   10.4067   55.1799 C   0  0  0  0  0  2  0  0  0  0  0  0
    5.2176    9.7074   55.7710 O   0  0  0  0  0  1  0  0  0  0  0  0
    5.8089   12.3402   53.0620 C   0  0  0  0  0  2  0  0  0  0  0  0
    5.0665   12.8313   52.3471 O   0  0  0  0  0  1  0  0  0  0  0  0
    7.3988   12.8151   55.3697 C   0  0  0  0  0  2  0  0  0  0  0  0
    7.5546   13.6608   56.1344 O   0  0  0  0  0  1  0  0  0  0  0  0
    8.8225   10.2109   54.6962 N   0  0  0  0  0  0  0  0  0  0  0  0
    8.5408   12.8370   51.7024 C   0  0  0  0  0  0  0  0  0  0  0  0
    8.6174   12.3829   50.3851 C   0  0  0  0  0  0  0  0  0  0  0  0
    8.8299   11.3402   50.1978 H   0  0  0  0  0  0  0  0  0  0  0  0
    8.3505   13.2454   49.3399 C   0  0  0  0  0  0  0  0  0  0  0  0
    8.3947   12.8807   48.3243 H   0  0  0  0  0  0  0  0  0  0  0  0
    8.0216   14.5669   49.5905 C   0  0  0  0  0  0  0  0  0  0  0  0
    7.8171   15.2384   48.7704 H   0  0  0  0  0  0  0  0  0  0  0  0
    7.9364   15.0201   50.8979 C   0  0  0  0  0  0  0  0  0  0  0  0
    7.6679   16.0465   51.0983 H   0  0  0  0  0  0  0  0  0  0  0  0
    8.1829   14.1626   51.9511 C   0  0  0  0  0  0  0  0  0  0  0  0
    8.1066   14.5019   52.9750 H   0  0  0  0  0  0  0  0  0  0  0  0
    8.7434   11.9647   52.7764 N   0  0  0  0  0  0  0  0  0  0  0  0
    8.7010    9.2107   55.6672 C   0  0  0  0  0  0  0  0  0  0  0  0
    8.4369    9.5646   56.9904 C   0  0  0  0  0  0  0  0  0  0  0  0
    8.3651   10.6119   57.2489 H   0  0  0  0  0  0  0  0  0  0  0  0
    8.2757    8.5829   57.9477 C   0  0  0  0  0  0  0  0  0  0  0  0
    8.0806    8.8644   58.9716 H   0  0  0  0  0  0  0  0  0  0  0  0
    8.3536    7.2438   57.5984 C   0  0  0  0  0  0  0  0  0  0  0  0
    8.2177    6.4798   58.3488 H   0  0  0  0  0  0  0  0  0  0  0  0
    8.5869    6.8883   56.2805 C   0  0  0  0  0  0  0  0  0  0  0  0
    8.6238    5.8465   55.9981 H   0  0  0  0  0  0  0  0  0  0  0  0
    8.7678    7.8617   55.3176 C   0  0  0  0  0  0  0  0  0  0  0  0
    8.9052    7.5922   54.2803 H   0  0  0  0  0  0  0  0  0  0  0  0
    9.8372   11.2365   52.8431 C   0  0  0  0  0  0  0  0  0  0  0  0
    9.8803   10.2509   53.9138 C   0  0  0  0  0  0  0  0  0  0  0  0
   11.0449    9.4620   54.0573 C   0  0  0  0  0  0  0  0  0  0  0  0
   11.1003    8.7727   54.8852 H   0  0  0  0  0  0  0  0  0  0  0  0
   12.1019    9.5649   53.1918 C   0  0  0  0  0  0  0  0  0  0  0  0
   12.0791   10.5823   52.1576 C   0  0  0  0  0  0  0  0  0  0  0  0
   10.9804   11.3851   52.0212 C   0  0  0  0  0  0  0  0  0  0  0  0
   10.9901   12.1811   51.2923 H   0  0  0  0  0  0  0  0  0  0  0  0
   13.1956    8.7400   53.2891 N   0  0  0  0  0  0  0  0  0  0  0  0
   14.0654    9.0631   52.8935 H   0  0  0  0  0  0  0  0  0  0  0  0
   13.2952    7.5409   53.9943 C   0  0  0  0  0  0  0  0  0  0  0  0
   12.2284    6.6503   54.0987 C   0  0  0  0  0  0  0  0  0  0  0  0
   11.2892    6.8783   53.6211 H   0  0  0  0  0  0  0  0  0  0  0  0
   12.3852    5.4607   54.7831 C   0  0  0  0  0  0  0  0  0  0  0  0
   11.5507    4.7800   54.8588 H   0  0  0  0  0  0  0  0  0  0  0  0
   13.6022    5.1325   55.3574 C   0  0  0  0  0  0  0  0  0  0  0  0
   13.7173    4.2031   55.8933 H   0  0  0  0  0  0  0  0  0  0  0  0
   14.6751    5.9979   55.2254 C   0  0  0  0  0  0  0  0  0  0  0  0
   15.6329    5.7440   55.6543 H   0  0  0  0  0  0  0  0  0  0  0  0
   14.5265    7.1923   54.5472 C   0  0  0  0  0  0  0  0  0  0  0  0
   15.3666    7.8659   54.4462 H   0  0  0  0  0  0  0  0  0  0  0  0
   13.1834   10.7225   51.3376 N   0  0  0  0  0  0  0  0  0  0  0  0
   14.0910   10.6155   51.7685 H   0  0  0  0  0  0  0  0  0  0  0  0
   13.2178   11.3608   50.1002 C   0  0  0  0  0  0  0  0  0  0  0  0
   14.3806   12.0250   49.7140 C   0  0  0  0  0  0  0  0  0  0  0  0
   15.2211   12.0701   50.3936 H   0  0  0  0  0  0  0  0  0  0  0  0
   14.4620   12.6271   48.4731 C   0  0  0  0  0  0  0  0  0  0  0  0
   15.3674   13.1427   48.1896 H   0  0  0  0  0  0  0  0  0  0  0  0
   13.3891   12.5736   47.5998 C   0  0  0  0  0  0  0  0  0  0  0  0
   13.4505   13.0515   46.6346 H   0  0  0  0  0  0  0  0  0  0  0  0
   12.2414   11.8906   47.9686 C   0  0  0  0  0  0  0  0  0  0  0  0
   11.4086   11.8248   47.2850 H   0  0  0  0  0  0  0  0  0  0  0  0
   12.1533   11.2795   49.2036 C   0  0  0  0  0  0  0  0  0  0  0  0
   11.2706   10.7204   49.4700 H   0  0  0  0  0  0  0  0  0  0  0  0
  1  9  1  0  0  0  0
  1  3  1  0  0  0  0
  1  7  1  0  0  0  0
  2  1  1  0  0  0  0
  3  4  1  0  0  0  0
  5  1  1  0  0  0  0
  6  5  1  0  0  0  0
  7  8  1  0  0  0  0
  9 22  1  0  0  0  0
 10 19  1  0  0  0  0
 10 21  1  0  0  0  0
 11 10  2  0  0  0  0
 12 11  1  0  0  0  0
 13 15  2  0  0  0  0
 13 11  1  0  0  0  0
 14 13  1  0  0  0  0
 15 17  1  0  0  0  0
 16 15  1  0  0  0  0
 17 18  1  0  0  0  0
 17 19  2  0  0  0  0
 19 20  1  0  0  0  0
 21 33  1  0  0  0  0
 21  1  1  0  0  0  0
 22 23  1  0  0  0  0
 23 24  1  0  0  0  0
 23 25  2  0  0  0  0
 25 26  1  0  0  0  0
 27 25  1  0  0  0  0
 27 28  1  0  0  0  0
 29 27  2  0  0  0  0
 30 29  1  0  0  0  0
 31 22  2  0  0  0  0
 31 29  1  0  0  0  0
 32 31  1  0  0  0  0
 33 34  1  0  0  0  0
 34 35  2  0  0  0  0
 34  9  1  0  0  0  0
 35 36  1  0  0  0  0
 37 41  1  0  0  0  0
 37 35  1  0  0  0  0
 38 37  2  0  0  0  0
 39 38  1  0  0  0  0
 39 33  2  0  0  0  0
 40 39  1  0  0  0  0
 41 43  1  0  0  0  0
 42 41  1  0  0  0  0
 43 44  2  0  0  0  0
 43 52  1  0  0  0  0
 44 46  1  0  0  0  0
 45 44  1  0  0  0  0
 46 47  1  0  0  0  0
 46 48  2  0  0  0  0
 48 49  1  0  0  0  0
 50 48  1  0  0  0  0
 50 51  1  0  0  0  0
 52 50  2  0  0  0  0
 53 52  1  0  0  0  0
 54 55  1  0  0  0  0
 54 38  1  0  0  0  0
 56 54  1  0  0  0  0
 57 56  1  0  0  0  0
 57 58  1  0  0  0  0
 59 57  2  0  0  0  0
 60 59  1  0  0  0  0
 61 63  2  0  0  0  0
 61 59  1  0  0  0  0
 62 61  1  0  0  0  0
 63 65  1  0  0  0  0
 64 63  1  0  0  0  0
 65 66  1  0  0  0  0
 65 56  2  0  0  0  0
M  END
$$$$
