CSD_code = ASAWAU | q = 0 | S = 0 | Stoichiometry = C25H30AuClNP | MND = 2
 OpenBabel04212202003D

 59 62  0  0  1  0  0  0  0  0999 V2000
   14.1766   11.3121    8.4682 C   0  0  0  0  0  0  0  0  0  0  0  0
   13.3483   12.2007    9.0592 C   0  0  0  0  0  0  0  0  0  0  0  0
   13.2464   13.4913    8.3650 C   0  0  0  0  0  0  0  0  0  0  0  0
   13.9937   13.5797    7.2436 C   0  0  0  0  0  0  0  0  0  0  0  0
   14.5306    9.9323    8.9110 C   0  0  0  0  0  0  0  0  0  0  0  0
   14.9979    9.9418    9.8962 H   0  0  0  0  0  0  0  0  0  0  0  0
   15.2333    9.4961    8.2016 H   0  0  0  0  0  0  0  0  0  0  0  0
   13.6441    9.2997    8.9624 H   0  0  0  0  0  0  0  0  0  0  0  0
   12.5536   11.9395   10.2942 C   0  0  0  0  0  0  0  0  0  0  0  0
   12.7558   10.9450   10.6805 H   0  0  0  0  0  0  0  0  0  0  0  0
   11.4871   12.0251   10.0881 H   0  0  0  0  0  0  0  0  0  0  0  0
   12.8034   12.6695   11.0632 H   0  0  0  0  0  0  0  0  0  0  0  0
   12.3550   14.5668    8.8880 C   0  0  0  0  0  0  0  0  0  0  0  0
   12.3879   15.4436    8.2480 H   0  0  0  0  0  0  0  0  0  0  0  0
   12.6656   14.8558    9.8913 H   0  0  0  0  0  0  0  0  0  0  0  0
   11.3257   14.2146    8.9473 H   0  0  0  0  0  0  0  0  0  0  0  0
   14.1609   14.7480    6.3278 C   0  0  0  0  0  0  0  0  0  0  0  0
   13.2243   14.9882    5.8228 H   0  0  0  0  0  0  0  0  0  0  0  0
   14.9120   14.5143    5.5724 H   0  0  0  0  0  0  0  0  0  0  0  0
   14.4902   15.6338    6.8710 H   0  0  0  0  0  0  0  0  0  0  0  0
   13.2950   10.9740    5.3844 C   0  0  0  0  0  0  0  0  0  0  0  0
   12.6562   11.6911    5.9101 H   0  0  0  0  0  0  0  0  0  0  0  0
   12.9839    9.9676    5.6800 H   0  0  0  0  0  0  0  0  0  0  0  0
   13.2340   11.1605    3.8612 C   0  0  0  0  0  0  0  0  0  0  0  0
   12.3977   11.7914    3.5657 H   0  0  0  0  0  0  0  0  0  0  0  0
   13.1233   10.1983    3.3622 H   0  0  0  0  0  0  0  0  0  0  0  0
   14.5803   11.7913    3.4970 C   0  0  0  0  0  0  0  0  0  0  0  0
   14.9003   11.5351    2.4893 H   0  0  0  0  0  0  0  0  0  0  0  0
   14.5229   12.8778    3.5830 H   0  0  0  0  0  0  0  0  0  0  0  0
   15.5264   11.2432    4.5650 C   0  0  2  0  0  0  0  0  0  0  0  0
   16.3786   11.9022    4.7551 H   0  0  0  0  0  0  0  0  0  0  0  0
   16.0431    9.8296    4.2367 C   0  0  0  0  0  0  0  0  0  0  0  0
   15.1731    9.1707    4.1478 H   0  0  0  0  0  0  0  0  0  0  0  0
   16.8269    9.7489    2.9485 C   0  0  0  0  0  0  0  0  0  0  0  0
   16.8000    8.5563    2.2335 C   0  0  0  0  0  0  0  0  0  0  0  0
   16.2011    7.7334    2.5984 H   0  0  0  0  0  0  0  0  0  0  0  0
   17.5311    8.4062    1.0699 C   0  0  0  0  0  0  0  0  0  0  0  0
   17.4966    7.4712    0.5301 H   0  0  0  0  0  0  0  0  0  0  0  0
   18.3056    9.4524    0.5988 C   0  0  0  0  0  0  0  0  0  0  0  0
   18.8782    9.3397   -0.3097 H   0  0  0  0  0  0  0  0  0  0  0  0
   18.3410   10.6434    1.3015 C   0  0  0  0  0  0  0  0  0  0  0  0
   18.9436   11.4651    0.9434 H   0  0  0  0  0  0  0  0  0  0  0  0
   17.6094   10.7914    2.4676 C   0  0  0  0  0  0  0  0  0  0  0  0
   17.6543   11.7333    2.9927 H   0  0  0  0  0  0  0  0  0  0  0  0
   16.8899    9.3262    5.3865 C   0  0  0  0  0  0  0  0  0  0  0  0
   18.1368    9.8788    5.6534 C   0  0  0  0  0  0  0  0  0  0  0  0
   18.5378   10.6483    5.0115 H   0  0  0  0  0  0  0  0  0  0  0  0
   18.8903    9.4353    6.7263 C   0  0  0  0  0  0  0  0  0  0  0  0
   19.8482    9.8892    6.9258 H   0  0  0  0  0  0  0  0  0  0  0  0
   18.4072    8.4287    7.5449 C   0  0  0  0  0  0  0  0  0  0  0  0
   18.9924    8.0843    8.3844 H   0  0  0  0  0  0  0  0  0  0  0  0
   17.1728    7.8623    7.2792 C   0  0  0  0  0  0  0  0  0  0  0  0
   16.7918    7.0706    7.9091 H   0  0  0  0  0  0  0  0  0  0  0  0
   16.4187    8.3112    6.2077 C   0  0  0  0  0  0  0  0  0  0  0  0
   15.4535    7.8644    6.0083 H   0  0  0  0  0  0  0  0  0  0  0  0
   14.6935   11.1901    5.7633 N   0  0  1  0  0  0  0  0  0  0  0  0
   15.0447   12.1058    7.1012 P   0  0  2  0  0  4  0  0  0  0  0  0
   19.4540   12.8908    7.5700 Cl  0  0  0  0  0  0  0  0  0  0  0  0
   17.2325   12.4863    7.3746 Au  0  0  0  0  0  0  0  0  0  0  0  0
  1  5  1  0  0  0  0
  1  2  2  0  0  0  0
  2  9  1  0  0  0  0
  3 13  1  0  0  0  0
  3  2  1  0  0  0  0
  4  3  2  0  0  0  0
  5  8  1  0  0  0  0
  5  6  1  0  0  0  0
  7  5  1  0  0  0  0
  9 10  1  0  0  0  0
  9 12  1  0  0  0  0
 11  9  1  0  0  0  0
 13 16  1  0  0  0  0
 13 15  1  0  0  0  0
 14 13  1  0  0  0  0
 17 20  1  0  0  0  0
 17  4  1  0  0  0  0
 18 17  1  0  0  0  0
 19 17  1  0  0  0  0
 21 23  1  0  0  0  0
 21 22  1  0  0  0  0
 24 21  1  0  0  0  0
 25 24  1  0  0  0  0
 26 24  1  0  0  0  0
 27 29  1  0  0  0  0
 27 24  1  0  0  0  0
 27 30  1  0  0  0  0
 28 27  1  0  0  0  0
 30 31  1  1  0  0  0
 30 56  1  0  0  0  0
 32 30  1  0  0  0  0
 32 45  1  0  0  0  0
 33 32  1  0  0  0  0
 34 32  1  0  0  0  0
 35 36  1  0  0  0  0
 35 34  2  0  0  0  0
 37 35  1  0  0  0  0
 38 37  1  0  0  0  0
 39 37  2  0  0  0  0
 39 41  1  0  0  0  0
 40 39  1  0  0  0  0
 41 43  2  0  0  0  0
 42 41  1  0  0  0  0
 43 34  1  0  0  0  0
 43 44  1  0  0  0  0
 45 46  2  0  0  0  0
 45 54  1  0  0  0  0
 46 48  1  0  0  0  0
 47 46  1  0  0  0  0
 48 49  1  0  0  0  0
 48 50  2  0  0  0  0
 50 51  1  0  0  0  0
 52 50  1  0  0  0  0
 52 53  1  0  0  0  0
 54 52  2  0  0  0  0
 55 54  1  0  0  0  0
 56 21  1  6  0  0  0
 56 57  1  0  0  0  0
 57  4  1  0  0  0  0
 57 59  1  1  0  0  0
 57  1  1  0  0  0  0
 59 58  1  0  0  0  0
M  END
$$$$
