CSD_code = ASECEH | q = 0 | S = 0 | Stoichiometry = C23H42ClNP2Pd | MND = 4
 OpenBabel04212202003D

 70 72  0  0  1  0  0  0  0  0999 V2000
   14.9988    4.9231    9.6372 Pd  0  0  2  0  0  0  0  0  0  0  0  0
   16.9451    5.7641    8.8501 P   0  0  0  0  0  4  0  0  0  0  0  0
   12.8742    4.3666   10.1322 P   0  0  0  0  0  4  0  0  0  0  0  0
   15.9363    3.7293   11.3233 Cl  0  0  0  0  0  0  0  0  0  0  0  0
   14.1645    5.9928    8.1192 N   0  0  0  0  0  0  0  0  0  0  0  0
   14.9099    6.6547    7.2257 C   0  0  2  0  0  3  0  0  0  0  0  0
   14.3682    7.5048    6.2883 C   0  0  0  0  0  0  0  0  0  0  0  0
   15.0049    8.0211    5.5880 H   0  0  0  0  0  0  0  0  0  0  0  0
   12.9717    7.6688    6.2495 C   0  0  0  0  0  0  0  0  0  0  0  0
   12.5315    8.3356    5.5223 H   0  0  0  0  0  0  0  0  0  0  0  0
   12.1986    6.9728    7.1198 C   0  0  0  0  0  0  0  0  0  0  0  0
   11.1230    7.0588    7.1136 H   0  0  0  0  0  0  0  0  0  0  0  0
   12.7915    6.1019    8.0902 C   0  0  0  0  0  0  0  0  0  0  0  0
   16.3935    6.3917    7.2063 C   0  0  0  0  0  0  0  0  0  0  0  0
   16.9507    7.2737    6.8808 H   0  0  0  0  0  0  0  0  0  0  0  0
   16.5728    5.5961    6.4744 H   0  0  0  0  0  0  0  0  0  0  0  0
   17.4384    7.3175    9.7931 C   0  0  0  0  0  0  0  0  0  0  0  0
   18.3598    4.6029    8.4180 C   0  0  0  0  0  0  0  0  0  0  0  0
   17.7115    6.9245   11.2468 C   0  0  0  0  0  0  0  0  0  0  0  0
   17.7361    7.8137   11.8756 H   0  0  0  0  0  0  0  0  0  0  0  0
   18.6604    6.4083   11.3570 H   0  0  0  0  0  0  0  0  0  0  0  0
   16.9190    6.2661   11.6126 H   0  0  0  0  0  0  0  0  0  0  0  0
   16.1657    8.1744    9.7766 C   0  0  0  0  0  0  0  0  0  0  0  0
   16.2832    9.0314   10.4389 H   0  0  0  0  0  0  0  0  0  0  0  0
   15.3113    7.5802   10.1356 H   0  0  0  0  0  0  0  0  0  0  0  0
   15.9367    8.5472    8.7796 H   0  0  0  0  0  0  0  0  0  0  0  0
   18.6187    8.0849    9.2081 C   0  0  0  0  0  0  0  0  0  0  0  0
   19.5415    7.5179    9.3075 H   0  0  0  0  0  0  0  0  0  0  0  0
   18.7444    9.0233    9.7473 H   0  0  0  0  0  0  0  0  0  0  0  0
   18.4640    8.3224    8.1570 H   0  0  0  0  0  0  0  0  0  0  0  0
   19.1668    4.2826    9.6747 C   0  0  0  0  0  0  0  0  0  0  0  0
   19.8052    5.1168    9.9574 H   0  0  0  0  0  0  0  0  0  0  0  0
   19.8055    3.4188    9.4937 H   0  0  0  0  0  0  0  0  0  0  0  0
   18.4989    4.0433   10.5017 H   0  0  0  0  0  0  0  0  0  0  0  0
   19.2814    5.1076    7.3093 C   0  0  0  0  0  0  0  0  0  0  0  0
   20.0726    4.3769    7.1443 H   0  0  0  0  0  0  0  0  0  0  0  0
   19.7480    6.0515    7.5787 H   0  0  0  0  0  0  0  0  0  0  0  0
   18.7524    5.2407    6.3685 H   0  0  0  0  0  0  0  0  0  0  0  0
   17.6201    3.3331    7.9728 C   0  0  0  0  0  0  0  0  0  0  0  0
   16.9997    2.9593    8.7950 H   0  0  0  0  0  0  0  0  0  0  0  0
   18.3303    2.5534    7.7017 H   0  0  0  0  0  0  0  0  0  0  0  0
   16.9780    3.5210    7.1091 H   0  0  0  0  0  0  0  0  0  0  0  0
   12.0225    5.3833    8.9776 C   0  0  0  0  0  3  0  0  0  0  0  0
   10.9456    5.4398    8.9408 H   0  0  0  0  0  0  0  0  0  0  0  0
   12.2965    4.9218   11.8394 C   0  0  0  0  0  0  0  0  0  0  0  0
   12.5120    2.5685    9.6714 C   0  0  0  0  0  0  0  0  0  0  0  0
   10.7903    5.1618   11.8897 C   0  0  0  0  0  0  0  0  0  0  0  0
   10.4912    5.9053   11.1547 H   0  0  0  0  0  0  0  0  0  0  0  0
   10.5096    5.5265   12.8774 H   0  0  0  0  0  0  0  0  0  0  0  0
   10.2399    4.2431   11.6988 H   0  0  0  0  0  0  0  0  0  0  0  0
   12.7246    3.9697   12.9512 C   0  0  0  0  0  0  0  0  0  0  0  0
   12.6326    4.4681   13.9162 H   0  0  0  0  0  0  0  0  0  0  0  0
   13.7620    3.6680   12.8200 H   0  0  0  0  0  0  0  0  0  0  0  0
   12.0969    3.0825   12.9726 H   0  0  0  0  0  0  0  0  0  0  0  0
   13.0490    6.2516   11.9904 C   0  0  0  0  0  0  0  0  0  0  0  0
   14.1334    6.0684   11.9880 H   0  0  0  0  0  0  0  0  0  0  0  0
   12.7857    6.7416   12.9270 H   0  0  0  0  0  0  0  0  0  0  0  0
   12.7980    6.9236   11.1645 H   0  0  0  0  0  0  0  0  0  0  0  0
   11.0237    2.3149    9.4585 C   0  0  0  0  0  0  0  0  0  0  0  0
   10.8710    1.3172    9.0474 H   0  0  0  0  0  0  0  0  0  0  0  0
   10.6059    3.0402    8.7630 H   0  0  0  0  0  0  0  0  0  0  0  0
   10.4794    2.3788   10.3986 H   0  0  0  0  0  0  0  0  0  0  0  0
   13.1023    1.5764   10.6690 C   0  0  0  0  0  0  0  0  0  0  0  0
   14.1123    1.8728   10.9494 H   0  0  0  0  0  0  0  0  0  0  0  0
   13.1485    0.5851   10.2180 H   0  0  0  0  0  0  0  0  0  0  0  0
   12.4971    1.5058   11.5681 H   0  0  0  0  0  0  0  0  0  0  0  0
   13.2722    2.4436    8.3426 C   0  0  0  0  0  0  0  0  0  0  0  0
   12.8792    3.1504    7.6087 H   0  0  0  0  0  0  0  0  0  0  0  0
   13.1783    1.4367    7.9379 H   0  0  0  0  0  0  0  0  0  0  0  0
   14.3447    2.6561    8.5021 H   0  0  0  0  0  0  0  0  0  0  0  0
  1  3  1  0  0  0  0
  1  4  1  6  0  0  0
  2  1  1  0  0  0  0
  2 17  1  0  0  0  0
  3 45  1  0  0  0  0
  5  1  1  0  0  0  0
  6  7  1  6  0  0  0
  6  5  1  0  0  0  0
  8  7  1  0  0  0  0
  9  7  2  0  0  0  0
  9 11  1  0  0  0  0
 10  9  1  0  0  0  0
 11 13  2  0  0  0  0
 12 11  1  0  0  0  0
 13  5  1  0  0  0  0
 13 43  1  0  0  0  0
 14  6  1  0  0  0  0
 14  2  1  0  0  0  0
 15 14  1  0  0  0  0
 16 14  1  0  0  0  0
 17 19  1  0  0  0  0
 18  2  1  0  0  0  0
 18 31  1  0  0  0  0
 19 21  1  0  0  0  0
 19 22  1  0  0  0  0
 19 20  1  0  0  0  0
 23 17  1  0  0  0  0
 23 25  1  0  0  0  0
 23 24  1  0  0  0  0
 26 23  1  0  0  0  0
 27 28  1  0  0  0  0
 27 29  1  0  0  0  0
 27 17  1  0  0  0  0
 30 27  1  0  0  0  0
 31 32  1  0  0  0  0
 31 34  1  0  0  0  0
 33 31  1  0  0  0  0
 35 37  1  0  0  0  0
 35 18  1  0  0  0  0
 36 35  1  0  0  0  0
 38 35  1  0  0  0  0
 39 18  1  0  0  0  0
 39 40  1  0  0  0  0
 41 39  1  0  0  0  0
 42 39  1  0  0  0  0
 43  3  1  0  0  0  0
 44 43  1  0  0  0  0
 45 47  1  0  0  0  0
 45 55  1  0  0  0  0
 45 51  1  0  0  0  0
 46  3  1  0  0  0  0
 46 63  1  0  0  0  0
 47 49  1  0  0  0  0
 48 47  1  0  0  0  0
 50 47  1  0  0  0  0
 51 54  1  0  0  0  0
 51 52  1  0  0  0  0
 53 51  1  0  0  0  0
 55 57  1  0  0  0  0
 56 55  1  0  0  0  0
 58 55  1  0  0  0  0
 59 46  1  0  0  0  0
 59 62  1  0  0  0  0
 60 59  1  0  0  0  0
 61 59  1  0  0  0  0
 63 64  1  0  0  0  0
 63 66  1  0  0  0  0
 65 63  1  0  0  0  0
 67 70  1  0  0  0  0
 67 46  1  0  0  0  0
 68 67  1  0  0  0  0
 69 67  1  0  0  0  0
M  END
$$$$
