CSD_code = ASELAL | q = 0 | S = 0 | Stoichiometry = C17H12ClN2O5Rh | MND = 4
 OpenBabel04212202003D

 38 40  0  0  1  0  0  0  0  0999 V2000
    2.0201    2.6363    1.6371 Rh  0  0  0  0  0  0  0  0  0  0  0  0
    0.1149    3.3604    2.5405 Cl  0  0  0  0  0  0  0  0  0  0  0  0
    1.9582    1.2945    2.8959 C   0  0  0  0  0  2  0  0  0  0  0  0
    1.8340    0.5147    3.7183 O   0  0  0  0  0  1  0  0  0  0  0  0
    3.5877    2.0638    0.8498 C   0  0  0  0  0  2  0  0  0  0  0  0
    4.5455    1.6985    0.3346 O   0  0  0  0  0  1  0  0  0  0  0  0
    1.5527    4.2269   -0.9432 N   0  0  0  0  0  0  0  0  0  0  0  0
    1.3726    2.9991   -1.6164 C   0  0  0  0  0  0  0  0  0  0  0  0
    0.6662    1.9735   -0.9925 C   0  0  0  0  0  0  0  0  0  0  0  0
    0.5340    0.7555   -1.6389 C   0  0  0  0  0  0  0  0  0  0  0  0
    1.0849    0.5676   -2.8957 C   0  0  0  0  0  0  0  0  0  0  0  0
    1.7629    1.6025   -3.5189 C   0  0  0  0  0  0  0  0  0  0  0  0
    1.9153    2.8211   -2.8821 C   0  0  0  0  0  0  0  0  0  0  0  0
    1.9093    4.2810    0.3681 N   0  0  0  0  0  0  0  0  0  0  0  0
    2.0383    5.5451    0.7210 C   0  0  1  0  0  3  0  0  0  0  0  0
    2.4819    5.8625    2.1001 C   0  0  0  0  0  0  0  0  0  0  0  0
    1.7542    6.3755   -0.3955 C   0  0  0  0  0  0  0  0  0  0  0  0
    1.6718    7.7926   -0.6928 C   0  0  0  0  0  0  0  0  0  0  0  0
    1.4706    8.1446   -1.8658 O   0  0  0  0  0  0  0  0  0  0  0  0
    1.7821    8.8215    0.3259 C   0  0  0  0  0  0  0  0  0  0  0  0
    1.8975    8.5617    1.6468 O   0  0  0  0  0  0  0  0  0  0  0  0
    1.9387    9.7331    2.2803 C   0  0  0  0  0  0  0  0  0  0  0  0
    1.8540   10.7740    1.3982 C   0  0  0  0  0  0  0  0  0  0  0  0
    1.7491   10.1875    0.1264 C   0  0  0  0  0  0  0  0  0  0  0  0
    1.4708    5.4699   -1.4381 C   0  0  0  0  0  0  0  0  0  0  0  0
    1.1600    5.7392   -2.6867 O   0  0  0  0  0  0  0  0  0  0  0  0
    0.1744    2.1430   -0.0354 H   0  0  0  0  0  0  0  0  0  0  0  0
   -0.0121   -0.0431   -1.1609 H   0  0  0  0  0  0  0  0  0  0  0  0
    0.9783   -0.3835   -3.3946 H   0  0  0  0  0  0  0  0  0  0  0  0
    2.1839    1.4599   -4.5022 H   0  0  0  0  0  0  0  0  0  0  0  0
    2.4490    3.6275   -3.3592 H   0  0  0  0  0  0  0  0  0  0  0  0
    2.7970    4.9277    2.5875 H   0  0  0  0  0  0  0  0  0  0  0  0
    1.6597    6.2880    2.6722 H   0  0  0  0  0  0  0  0  0  0  0  0
    3.3063    6.5712    2.0926 H   0  0  0  0  0  0  0  0  0  0  0  0
    2.0271    9.7103    3.3492 H   0  0  0  0  0  0  0  0  0  0  0  0
    1.8632   11.8185    1.6313 H   0  0  0  0  0  0  0  0  0  0  0  0
    1.6604   10.6773   -0.8210 H   0  0  0  0  0  0  0  0  0  0  0  0
    1.1786    6.7437   -2.7399 H   0  0  0  0  0  0  0  0  0  0  0  0
  1  2  1  0  0  0  0
  1  3  1  0  0  0  0
  3  4  1  0  0  0  0
  5  1  1  0  0  0  0
  6  5  1  0  0  0  0
  7 14  1  0  0  0  0
  8  9  1  0  0  0  0
  8  7  1  0  0  0  0
  9 27  1  0  0  0  0
 10 28  1  0  0  0  0
 10  9  2  0  0  0  0
 11 10  1  0  0  0  0
 12 11  2  0  0  0  0
 12 13  1  0  0  0  0
 13  8  2  0  0  0  0
 14 15  1  0  0  0  0
 14  1  1  0  0  0  0
 15 16  1  6  0  0  0
 16 32  1  0  0  0  0
 16 33  1  0  0  0  0
 17 15  1  0  0  0  0
 18 17  1  0  0  0  0
 18 20  1  0  0  0  0
 19 18  2  0  0  0  0
 20 21  1  0  0  0  0
 21 22  1  0  0  0  0
 22 35  1  0  0  0  0
 23 36  1  0  0  0  0
 23 22  2  0  0  0  0
 24 20  2  0  0  0  0
 24 23  1  0  0  0  0
 25  7  1  0  0  0  0
 25 17  2  0  0  0  0
 26 25  1  0  0  0  0
 29 11  1  0  0  0  0
 30 12  1  0  0  0  0
 31 13  1  0  0  0  0
 34 16  1  0  0  0  0
 37 24  1  0  0  0  0
 38 26  1  0  0  0  0
M  END
$$$$
