CSD_code = ASIDEM | q = 0 | S = 0 | Stoichiometry = C32H43AuIN3O2 | MND = 4
 OpenBabel04212202003D

 82 85  0  0  0  0  0  0  0  0999 V2000
    0.6785   12.4739    9.3292 Au  0  0  2  0  0  0  0  0  0  0  0  0
   -0.1880   10.4599   10.6681 I   0  0  0  0  0  0  0  0  0  0  0  0
    3.0831   12.1377    8.0729 O   0  0  0  0  0  0  0  0  0  0  0  0
    0.2717   15.5971    7.4997 O   0  0  0  0  0  0  0  0  0  0  0  0
    2.3420   14.1895   11.3499 N   0  0  0  0  0  0  0  0  0  0  0  0
    0.3040   13.9955   11.9962 N   0  0  0  0  0  0  0  0  0  0  0  0
    1.5569   13.7813    8.0349 N   0  0  0  0  0  0  0  0  0  0  0  0
    1.1710   13.6030   11.0413 C   0  0  0  0  0  0  0  0  0  0  0  0
    2.2135   14.9436   12.4854 C   0  0  0  0  0  0  0  0  0  0  0  0
    3.0376   15.4749   12.9132 H   0  0  0  0  0  0  0  0  0  0  0  0
    0.9279   14.8268   12.8869 C   0  0  0  0  0  0  0  0  0  0  0  0
    0.4083   15.2665   13.7117 H   0  0  0  0  0  0  0  0  0  0  0  0
    3.5670   14.0363   10.6455 C   0  0  0  0  0  0  0  0  0  0  0  0
    4.1899   12.7842   10.6429 C   0  0  0  0  0  0  0  0  0  0  0  0
    5.3760   12.6520    9.9342 C   0  0  0  0  0  0  0  0  0  0  0  0
    5.8748   11.6977    9.9088 H   0  0  0  0  0  0  0  0  0  0  0  0
    5.9210   13.7242    9.2565 C   0  0  0  0  0  0  0  0  0  0  0  0
    6.8359   13.5988    8.6962 H   0  0  0  0  0  0  0  0  0  0  0  0
    5.3159   14.9648    9.3158 C   0  0  0  0  0  0  0  0  0  0  0  0
    5.7772   15.8047    8.8181 H   0  0  0  0  0  0  0  0  0  0  0  0
    4.1326   15.1514   10.0188 C   0  0  0  0  0  0  0  0  0  0  0  0
    3.6626   11.6304   11.4624 C   0  0  0  0  0  0  0  0  0  0  0  0
    2.6018   11.7873   11.6733 H   0  0  0  0  0  0  0  0  0  0  0  0
    4.4026   11.6015   12.8048 C   0  0  0  0  0  0  0  0  0  0  0  0
    5.4706   11.4667   12.6477 H   0  0  0  0  0  0  0  0  0  0  0  0
    4.0325   10.7782   13.4109 H   0  0  0  0  0  0  0  0  0  0  0  0
    4.2518   12.5306   13.3533 H   0  0  0  0  0  0  0  0  0  0  0  0
    3.7914   10.2894   10.7421 C   0  0  0  0  0  0  0  0  0  0  0  0
    3.4655   10.3902    9.7105 H   0  0  0  0  0  0  0  0  0  0  0  0
    3.1679    9.5472   11.2352 H   0  0  0  0  0  0  0  0  0  0  0  0
    4.8179    9.9314   10.7513 H   0  0  0  0  0  0  0  0  0  0  0  0
    3.5630   16.5464   10.1643 C   0  0  0  0  0  0  0  0  0  0  0  0
    2.6009   16.5014   10.6834 H   0  0  0  0  0  0  0  0  0  0  0  0
    4.5268   17.3845   11.0140 C   0  0  0  0  0  0  0  0  0  0  0  0
    4.7593   16.8849   11.9526 H   0  0  0  0  0  0  0  0  0  0  0  0
    4.0843   18.3526   11.2381 H   0  0  0  0  0  0  0  0  0  0  0  0
    5.4605   17.5484   10.4820 H   0  0  0  0  0  0  0  0  0  0  0  0
    3.3087   17.2359    8.8244 C   0  0  0  0  0  0  0  0  0  0  0  0
    3.0259   18.2725    8.9962 H   0  0  0  0  0  0  0  0  0  0  0  0
    2.4914   16.7492    8.3022 H   0  0  0  0  0  0  0  0  0  0  0  0
    4.1920   17.2253    8.1912 H   0  0  0  0  0  0  0  0  0  0  0  0
   -1.0464   13.5725   12.1685 C   0  0  0  0  0  0  0  0  0  0  0  0
   -1.3634   12.7889   13.2859 C   0  0  0  0  0  0  0  0  0  0  0  0
   -2.6833   12.3892   13.4435 C   0  0  0  0  0  0  0  0  0  0  0  0
   -2.9540   11.7787   14.2891 H   0  0  0  0  0  0  0  0  0  0  0  0
   -3.6536   12.7549   12.5328 C   0  0  0  0  0  0  0  0  0  0  0  0
   -4.6727   12.4267   12.6699 H   0  0  0  0  0  0  0  0  0  0  0  0
   -3.3246   13.5484   11.4523 C   0  0  0  0  0  0  0  0  0  0  0  0
   -4.0928   13.8456   10.7573 H   0  0  0  0  0  0  0  0  0  0  0  0
   -2.0182   13.9725   11.2473 C   0  0  0  0  0  0  0  0  0  0  0  0
   -0.3460   12.3933   14.3329 C   0  0  0  0  0  0  0  0  0  0  0  0
    0.6610   12.6264   13.9743 H   0  0  0  0  0  0  0  0  0  0  0  0
   -0.6004   13.1859   15.6209 C   0  0  0  0  0  0  0  0  0  0  0  0
   -0.5854   14.2593   15.4437 H   0  0  0  0  0  0  0  0  0  0  0  0
    0.1606   12.9490   16.3608 H   0  0  0  0  0  0  0  0  0  0  0  0
   -1.5729   12.9297   16.0334 H   0  0  0  0  0  0  0  0  0  0  0  0
   -0.3810   10.8949   14.6408 C   0  0  0  0  0  0  0  0  0  0  0  0
   -1.2985   10.6182   15.1511 H   0  0  0  0  0  0  0  0  0  0  0  0
    0.4548   10.6385   15.2878 H   0  0  0  0  0  0  0  0  0  0  0  0
   -0.3064   10.3127   13.7272 H   0  0  0  0  0  0  0  0  0  0  0  0
   -1.7039   14.9064   10.1039 C   0  0  0  0  0  0  0  0  0  0  0  0
   -0.6353   14.8695    9.8733 H   0  0  0  0  0  0  0  0  0  0  0  0
   -2.0355   16.3422   10.5227 C   0  0  0  0  0  0  0  0  0  0  0  0
   -3.0943   16.4363   10.7558 H   0  0  0  0  0  0  0  0  0  0  0  0
   -1.7915   17.0218    9.7104 H   0  0  0  0  0  0  0  0  0  0  0  0
   -1.4633   16.6321   11.4031 H   0  0  0  0  0  0  0  0  0  0  0  0
   -2.4499   14.5399    8.8210 C   0  0  0  0  0  0  0  0  0  0  0  0
   -2.3883   13.4695    8.6333 H   0  0  0  0  0  0  0  0  0  0  0  0
   -1.9898   15.0628    7.9869 H   0  0  0  0  0  0  0  0  0  0  0  0
   -3.4974   14.8266    8.8703 H   0  0  0  0  0  0  0  0  0  0  0  0
    2.6834   13.1762    7.5858 C   0  0  0  0  0  0  0  0  0  0  0  0
    3.2887   13.9707    6.4532 C   0  0  0  0  0  0  0  0  0  0  0  0
    3.5289   13.3116    5.6196 H   0  0  0  0  0  0  0  0  0  0  0  0
    4.2164   14.4250    6.8040 H   0  0  0  0  0  0  0  0  0  0  0  0
    2.2109   15.0017    6.1410 C   0  0  0  0  0  0  0  0  0  0  0  0
    1.6756   14.7705    5.2176 H   0  0  0  0  0  0  0  0  0  0  0  0
    2.5785   16.0237    6.0623 H   0  0  0  0  0  0  0  0  0  0  0  0
    1.2124   14.8688    7.2922 C   0  0  0  0  0  0  0  0  0  0  0  0
    0.0555   11.5205    7.6434 C   0  0  0  0  0  0  0  0  0  0  0  0
   -0.9218   11.0638    7.7667 H   0  0  0  0  0  0  0  0  0  0  0  0
    0.7684   10.7449    7.3797 H   0  0  0  0  0  0  0  0  0  0  0  0
   -0.0065   12.2266    6.8201 H   0  0  0  0  0  0  0  0  0  0  0  0
  1  2  1  1  0  0  0
  1  8  2  0  0  0  0
  5  9  1  0  0  0  0
  6 42  1  0  0  0  0
  6 11  1  0  0  0  0
  7  1  1  0  0  0  0
  8  5  1  0  0  0  0
  8  6  1  0  0  0  0
  9 11  2  0  0  0  0
  9 10  1  0  0  0  0
 11 12  1  0  0  0  0
 13  5  1  0  0  0  0
 14 13  1  0  0  0  0
 14 22  1  0  0  0  0
 15 14  2  0  0  0  0
 16 15  1  0  0  0  0
 17 19  2  0  0  0  0
 17 15  1  0  0  0  0
 18 17  1  0  0  0  0
 19 21  1  0  0  0  0
 20 19  1  0  0  0  0
 21 32  1  0  0  0  0
 21 13  2  0  0  0  0
 22 23  1  0  0  0  0
 22 24  1  0  0  0  0
 24 27  1  0  0  0  0
 24 26  1  0  0  0  0
 25 24  1  0  0  0  0
 28 31  1  0  0  0  0
 28 30  1  0  0  0  0
 28 22  1  0  0  0  0
 29 28  1  0  0  0  0
 32 33  1  0  0  0  0
 32 34  1  0  0  0  0
 34 36  1  0  0  0  0
 34 35  1  0  0  0  0
 37 34  1  0  0  0  0
 38 39  1  0  0  0  0
 38 32  1  0  0  0  0
 40 38  1  0  0  0  0
 41 38  1  0  0  0  0
 42 43  1  0  0  0  0
 43 44  2  0  0  0  0
 43 51  1  0  0  0  0
 44 45  1  0  0  0  0
 46 47  1  0  0  0  0
 46 44  1  0  0  0  0
 48 46  2  0  0  0  0
 49 48  1  0  0  0  0
 50 48  1  0  0  0  0
 50 42  2  0  0  0  0
 51 57  1  0  0  0  0
 51 53  1  0  0  0  0
 52 51  1  0  0  0  0
 53 56  1  0  0  0  0
 53 55  1  0  0  0  0
 54 53  1  0  0  0  0
 57 58  1  0  0  0  0
 57 59  1  0  0  0  0
 60 57  1  0  0  0  0
 61 63  1  0  0  0  0
 61 50  1  0  0  0  0
 62 61  1  0  0  0  0
 63 64  1  0  0  0  0
 63 66  1  0  0  0  0
 65 63  1  0  0  0  0
 67 70  1  0  0  0  0
 67 61  1  0  0  0  0
 68 67  1  0  0  0  0
 69 67  1  0  0  0  0
 71  7  1  0  0  0  0
 71  3  2  0  0  0  0
 72 74  1  0  0  0  0
 72 71  1  0  0  0  0
 73 72  1  0  0  0  0
 75 72  1  0  0  0  0
 75 78  1  0  0  0  0
 76 75  1  0  0  0  0
 77 75  1  0  0  0  0
 78  4  2  0  0  0  0
 78  7  1  0  0  0  0
 79 80  1  0  0  0  0
 79  1  1  0  0  0  0
 81 79  1  0  0  0  0
 82 79  1  0  0  0  0
M  END
$$$$
