CSD_code = ASIGAL | q = 0 | S = 0 | Stoichiometry = C26H26IIrN2 | MND = 6
 OpenBabel04212202003D

 56 59  0  0  1  0  0  0  0  0999 V2000
    6.2335    3.0102    4.1629 Ir  0  0  0  0  0  0  0  0  0  0  0  0
    8.7442    2.0772    4.3823 I   0  0  0  0  0 15  0  0  0  0  0  0
    5.2887    0.4044    3.3544 N   0  0  0  0  0  0  0  0  0  0  0  0
    6.3213    1.4750    1.5891 N   0  0  0  0  0  0  0  0  0  0  0  0
    5.9159    1.5075    2.8773 C   0  0  2  0  0  3  0  0  0  0  0  0
    5.0611   -0.7577    2.6206 C   0  0  0  0  0  0  0  0  0  0  0  0
    4.4763   -1.8811    3.1631 C   0  0  0  0  0  0  0  0  0  0  0  0
    4.1886   -1.9051    4.2021 H   0  0  0  0  0  0  0  0  0  0  0  0
    4.2575   -3.0046    2.3595 C   0  0  0  0  0  0  0  0  0  0  0  0
    3.7941   -3.8738    2.8019 H   0  0  0  0  0  0  0  0  0  0  0  0
    4.6171   -3.0138    1.0397 C   0  0  0  0  0  0  0  0  0  0  0  0
    4.4387   -3.8831    0.4253 H   0  0  0  0  0  0  0  0  0  0  0  0
    5.2395   -1.8899    0.4599 C   0  0  0  0  0  0  0  0  0  0  0  0
    5.6529   -1.8515   -0.8870 C   0  0  0  0  0  0  0  0  0  0  0  0
    5.4817   -2.7160   -1.5101 H   0  0  0  0  0  0  0  0  0  0  0  0
    6.2677   -0.7376   -1.3863 C   0  0  0  0  0  0  0  0  0  0  0  0
    6.5872   -0.7120   -2.4175 H   0  0  0  0  0  0  0  0  0  0  0  0
    6.5067    0.3867   -0.5871 C   0  0  0  0  0  0  0  0  0  0  0  0
    7.0047    1.2310   -1.0311 H   0  0  0  0  0  0  0  0  0  0  0  0
    6.1123    0.3910    0.7344 C   0  0  0  0  0  0  0  0  0  0  0  0
    5.4668   -0.7504    1.2675 C   0  0  0  0  0  0  0  0  0  0  0  0
    4.8241    0.4380    4.7081 C   0  0  0  0  0  0  0  0  0  0  0  0
    5.7190    0.3093    5.7625 C   0  0  0  0  0  0  0  0  0  0  0  0
    6.7662    0.1468    5.5653 H   0  0  0  0  0  0  0  0  0  0  0  0
    5.2513    0.3519    7.0653 C   0  0  0  0  0  0  0  0  0  0  0  0
    5.9492    0.2604    7.8836 H   0  0  0  0  0  0  0  0  0  0  0  0
    3.8983    0.5065    7.3168 C   0  0  0  0  0  0  0  0  0  0  0  0
    3.5379    0.5471    8.3340 H   0  0  0  0  0  0  0  0  0  0  0  0
    3.0031    0.5890    6.2626 C   0  0  0  0  0  0  0  0  0  0  0  0
    1.9449    0.6845    6.4557 H   0  0  0  0  0  0  0  0  0  0  0  0
    3.4606    0.5462    4.9584 C   0  0  0  0  0  0  0  0  0  0  0  0
    2.7667    0.5907    4.1311 H   0  0  0  0  0  0  0  0  0  0  0  0
    7.0626    2.5998    1.0571 C   0  0  0  0  0  0  0  0  0  0  0  0
    8.0529    2.2724    0.7371 H   0  0  0  0  0  0  0  0  0  0  0  0
    7.1812    3.3502    1.8393 H   0  0  0  0  0  0  0  0  0  0  0  0
    6.5313    3.0430    0.2133 H   0  0  0  0  0  0  0  0  0  0  0  0
    6.2379    4.0343    6.0729 C   0  0  0  0  0  3  0  0  0  0  0  0
    6.9190    3.4911    6.7274 H   0  0  0  0  0  0  0  0  0  0  0  0
    6.7812    4.9117    5.1591 C   0  0  0  0  0  3  0  0  0  0  0  0
    7.8635    5.0039    5.1230 H   0  0  0  0  0  0  0  0  0  0  0  0
    6.0371    6.0991    4.5941 C   0  0  0  0  0  0  0  0  0  0  0  0
    5.3191    6.4583    5.3329 H   0  0  0  0  0  0  0  0  0  0  0  0
    6.7460    6.9099    4.4143 H   0  0  0  0  0  0  0  0  0  0  0  0
    5.3239    5.7629    3.2726 C   0  0  0  0  0  0  0  0  0  0  0  0
    6.0065    5.9554    2.4407 H   0  0  0  0  0  0  0  0  0  0  0  0
    4.4590    6.4219    3.1349 H   0  0  0  0  0  0  0  0  0  0  0  0
    4.8701    4.3246    3.1833 C   0  0  2  0  0  0  0  0  0  0  0  0
    4.6627    4.0170    2.1579 H   0  0  0  0  0  0  0  0  0  0  0  0
    4.1799    3.6410    4.1935 C   0  0  0  0  0  3  0  0  0  0  0  0
    3.5181    2.8471    3.8622 H   0  0  0  0  0  0  0  0  0  0  0  0
    3.7630    4.2671    5.5044 C   0  0  0  0  0  0  0  0  0  0  0  0
    2.8402    3.7913    5.8440 H   0  0  0  0  0  0  0  0  0  0  0  0
    3.5388    5.3236    5.3438 H   0  0  0  0  0  0  0  0  0  0  0  0
    4.8275    4.1028    6.6042 C   0  0  0  0  0  0  0  0  0  0  0  0
    4.7533    4.9251    7.3247 H   0  0  0  0  0  0  0  0  0  0  0  0
    4.6275    3.1776    7.1499 H   0  0  0  0  0  0  0  0  0  0  0  0
  3 22  1  0  0  0  0
  4  5  1  0  0  0  0
  5  3  1  0  0  0  0
  5  1  1  1  0  0  0
  6  7  1  0  0  0  0
  6  3  1  0  0  0  0
  7  8  1  0  0  0  0
  9 10  1  0  0  0  0
  9  7  2  0  0  0  0
 11  9  1  0  0  0  0
 12 11  1  0  0  0  0
 13 11  2  0  0  0  0
 13 21  1  0  0  0  0
 14 13  1  0  0  0  0
 15 14  1  0  0  0  0
 16 14  2  0  0  0  0
 16 18  1  0  0  0  0
 17 16  1  0  0  0  0
 18 20  2  0  0  0  0
 19 18  1  0  0  0  0
 20 21  1  0  0  0  0
 20  4  1  0  0  0  0
 21  6  2  0  0  0  0
 22 31  2  0  0  0  0
 22 23  1  0  0  0  0
 23 25  2  0  0  0  0
 24 23  1  0  0  0  0
 25 27  1  0  0  0  0
 25 26  1  0  0  0  0
 27 28  1  0  0  0  0
 29 30  1  0  0  0  0
 29 27  2  0  0  0  0
 31 29  1  0  0  0  0
 32 31  1  0  0  0  0
 33  4  1  0  0  0  0
 33 35  1  0  0  0  0
 34 33  1  0  0  0  0
 36 33  1  0  0  0  0
 37 54  1  0  0  0  0
 37 38  1  0  0  0  0
 39 37  1  0  0  0  0
 40 39  1  0  0  0  0
 41 39  1  0  0  0  0
 41 42  1  0  0  0  0
 43 41  1  0  0  0  0
 44 41  1  0  0  0  0
 45 44  1  0  0  0  0
 46 44  1  0  0  0  0
 47 48  1  6  0  0  0
 47 44  1  0  0  0  0
 47  1  1  0  0  0  0
 47 49  1  0  0  0  0
 49 51  1  0  0  0  0
 50 49  1  0  0  0  0
 51 52  1  0  0  0  0
 51 54  1  0  0  0  0
 53 51  1  0  0  0  0
 54 56  1  0  0  0  0
 54 55  1  0  0  0  0
M  END
$$$$
