CSD_code = ASIGEP | q = 0 | S = 0 | Stoichiometry = C28H30IIrN2 | MND = 6
 OpenBabel04212202003D

 62 65  0  0  1  0  0  0  0  0999 V2000
    2.1887    0.7833    3.7001 Ir  0  0  0  0  0  0  0  0  0  0  0  0
    2.2854    3.2248    4.8227 I   0  0  0  0  0 15  0  0  0  0  0  0
   -0.4521    1.3432    2.7422 N   0  0  0  0  0  0  0  0  0  0  0  0
    1.0988    2.2445    1.2776 N   0  0  0  0  0  0  0  0  0  0  0  0
    0.8451    1.5342    2.4045 C   0  0  1  0  0  3  0  0  0  0  0  0
   -1.5367    1.8943    2.0664 C   0  0  0  0  0  0  0  0  0  0  0  0
   -2.8306    1.7880    2.5271 C   0  0  0  0  0  0  0  0  0  0  0  0
   -3.0431    1.2917    3.4605 H   0  0  0  0  0  0  0  0  0  0  0  0
   -3.8782    2.3288    1.7756 C   0  0  0  0  0  0  0  0  0  0  0  0
   -4.8864    2.2390    2.1514 H   0  0  0  0  0  0  0  0  0  0  0  0
   -3.6407    2.9495    0.5804 C   0  0  0  0  0  0  0  0  0  0  0  0
   -4.4548    3.3468   -0.0065 H   0  0  0  0  0  0  0  0  0  0  0  0
   -2.3261    3.0837    0.0892 C   0  0  0  0  0  0  0  0  0  0  0  0
   -2.0347    3.7047   -1.1406 C   0  0  0  0  0  0  0  0  0  0  0  0
   -2.8442    4.1071   -1.7301 H   0  0  0  0  0  0  0  0  0  0  0  0
   -0.7412    3.7812   -1.5729 C   0  0  0  0  0  0  0  0  0  0  0  0
   -0.5137    4.2379   -2.5249 H   0  0  0  0  0  0  0  0  0  0  0  0
    0.3196    3.2908   -0.8034 C   0  0  0  0  0  0  0  0  0  0  0  0
    1.3091    3.3870   -1.2063 H   0  0  0  0  0  0  0  0  0  0  0  0
    0.0881    2.7088    0.4259 C   0  0  0  0  0  0  0  0  0  0  0  0
   -1.2552    2.5673    0.8584 C   0  0  0  0  0  0  0  0  0  0  0  0
   -0.7468    0.5020    3.8640 C   0  0  0  0  0  0  0  0  0  0  0  0
   -0.6547    0.9829    5.1639 C   0  0  0  0  0  0  0  0  0  0  0  0
   -0.3743    2.0078    5.3427 H   0  0  0  0  0  0  0  0  0  0  0  0
   -0.9612    0.1474    6.2249 C   0  0  0  0  0  0  0  0  0  0  0  0
   -0.8790    0.5197    7.2348 H   0  0  0  0  0  0  0  0  0  0  0  0
   -1.3761   -1.1536    5.9935 C   0  0  0  0  0  0  0  0  0  0  0  0
   -1.6072   -1.8041    6.8239 H   0  0  0  0  0  0  0  0  0  0  0  0
   -1.5184   -1.6136    4.6944 C   0  0  0  0  0  0  0  0  0  0  0  0
   -1.8708   -2.6176    4.5096 H   0  0  0  0  0  0  0  0  0  0  0  0
   -1.2164   -0.7860    3.6288 C   0  0  0  0  0  0  0  0  0  0  0  0
   -1.3503   -1.1281    2.6124 H   0  0  0  0  0  0  0  0  0  0  0  0
    2.5035    2.5903    1.0132 C   0  0  0  0  0  0  0  0  0  0  0  0
    3.0509    2.1608    1.8643 H   0  0  0  0  0  0  0  0  0  0  0  0
    3.0557    1.9412   -0.2657 C   0  0  0  0  0  0  0  0  0  0  0  0
    3.2295    2.6728   -1.0506 H   0  0  0  0  0  0  0  0  0  0  0  0
    2.3744    1.1833   -0.6453 H   0  0  0  0  0  0  0  0  0  0  0  0
    4.0091    1.4630   -0.0554 H   0  0  0  0  0  0  0  0  0  0  0  0
    2.7272    4.0997    1.0685 C   0  0  0  0  0  0  0  0  0  0  0  0
    3.7887    4.3008    0.9517 H   0  0  0  0  0  0  0  0  0  0  0  0
    2.4143    4.4840    2.0354 H   0  0  0  0  0  0  0  0  0  0  0  0
    2.1831    4.6336    0.2962 H   0  0  0  0  0  0  0  0  0  0  0  0
    2.8794   -0.2239    5.4945 C   0  0  0  0  0  3  0  0  0  0  0  0
    2.5768    0.3856    6.3451 H   0  0  0  0  0  0  0  0  0  0  0  0
    4.0073    0.1517    4.7965 C   0  0  0  0  0  3  0  0  0  0  0  0
    4.5273    1.0515    5.1146 H   0  0  0  0  0  0  0  0  0  0  0  0
    4.8610   -0.8128    4.0073 C   0  0  0  0  0  0  0  0  0  0  0  0
    4.8043   -1.8018    4.4647 H   0  0  0  0  0  0  0  0  0  0  0  0
    5.9035   -0.4925    4.0623 H   0  0  0  0  0  0  0  0  0  0  0  0
    4.4399   -0.8804    2.5294 C   0  0  0  0  0  0  0  0  0  0  0  0
    4.9904   -0.1203    1.9685 H   0  0  0  0  0  0  0  0  0  0  0  0
    4.7138   -1.8526    2.1038 H   0  0  0  0  0  0  0  0  0  0  0  0
    2.9637   -0.6425    2.3149 C   0  0  1  0  0  0  0  0  0  0  0  0
    2.7308   -0.3827    1.2835 H   0  0  0  0  0  0  0  0  0  0  0  0
    1.9393   -1.2513    3.0507 C   0  0  0  0  0  3  0  0  0  0  0  0
    0.9970   -1.3846    2.5290 H   0  0  0  0  0  0  0  0  0  0  0  0
    2.1727   -2.2678    4.1448 C   0  0  0  0  0  0  0  0  0  0  0  0
    3.0599   -2.8572    3.9038 H   0  0  0  0  0  0  0  0  0  0  0  0
    1.3263   -2.9580    4.1703 H   0  0  0  0  0  0  0  0  0  0  0  0
    2.3156   -1.6222    5.5348 C   0  0  0  0  0  0  0  0  0  0  0  0
    1.3296   -1.5753    6.0029 H   0  0  0  0  0  0  0  0  0  0  0  0
    2.9477   -2.2469    6.1762 H   0  0  0  0  0  0  0  0  0  0  0  0
  3 22  1  0  0  0  0
  4  5  1  0  0  0  0
  5  3  1  0  0  0  0
  5  1  1  1  0  0  0
  6  7  1  0  0  0  0
  6  3  1  0  0  0  0
  7  8  1  0  0  0  0
  9 10  1  0  0  0  0
  9  7  2  0  0  0  0
 11  9  1  0  0  0  0
 12 11  1  0  0  0  0
 13 11  2  0  0  0  0
 13 21  1  0  0  0  0
 14 13  1  0  0  0  0
 15 14  1  0  0  0  0
 16 14  2  0  0  0  0
 16 18  1  0  0  0  0
 17 16  1  0  0  0  0
 18 20  2  0  0  0  0
 19 18  1  0  0  0  0
 20 21  1  0  0  0  0
 20  4  1  0  0  0  0
 21  6  2  0  0  0  0
 22 23  1  0  0  0  0
 23 24  1  0  0  0  0
 23 25  2  0  0  0  0
 25 26  1  0  0  0  0
 27 25  1  0  0  0  0
 27 28  1  0  0  0  0
 29 27  2  0  0  0  0
 30 29  1  0  0  0  0
 31 22  2  0  0  0  0
 31 29  1  0  0  0  0
 32 31  1  0  0  0  0
 33 39  1  0  0  0  0
 33  4  1  0  0  0  0
 33 34  1  0  0  0  0
 35 38  1  0  0  0  0
 35 33  1  0  0  0  0
 36 35  1  0  0  0  0
 37 35  1  0  0  0  0
 39 41  1  0  0  0  0
 40 39  1  0  0  0  0
 42 39  1  0  0  0  0
 43 60  1  0  0  0  0
 43 44  1  0  0  0  0
 45 46  1  0  0  0  0
 45 43  1  0  0  0  0
 47 49  1  0  0  0  0
 47 48  1  0  0  0  0
 47 45  1  0  0  0  0
 50 47  1  0  0  0  0
 51 50  1  0  0  0  0
 52 50  1  0  0  0  0
 53 54  1  6  0  0  0
 53 50  1  0  0  0  0
 53 55  1  0  0  0  0
 53  1  1  0  0  0  0
 55 57  1  0  0  0  0
 56 55  1  0  0  0  0
 57 59  1  0  0  0  0
 57 60  1  0  0  0  0
 58 57  1  0  0  0  0
 60 61  1  0  0  0  0
 60 62  1  0  0  0  0
M  END
$$$$
