CSD_code = ASIGOZ | q = 0 | S = 0 | Stoichiometry = C26H26ClIrN2 | MND = 6
 OpenBabel04212202003D

 56 59  0  0  1  0  0  0  0  0999 V2000
    0.4169   -0.0407    3.6878 Ir  0  0  0  0  0  0  0  0  0  0  0  0
   -1.7211    0.9568    3.5738 Cl  0  0  0  0  0 15  0  0  0  0  0  0
    1.3995    2.5675    4.4961 N   0  0  0  0  0  0  0  0  0  0  0  0
    0.4321    1.4635    6.2735 N   0  0  0  0  0  0  0  0  0  0  0  0
    0.8133    1.4490    4.9799 C   0  0  1  0  0  3  0  0  0  0  0  0
    1.5878    3.7397    5.2234 C   0  0  0  0  0  0  0  0  0  0  0  0
    2.0984    4.8928    4.6673 C   0  0  0  0  0  0  0  0  0  0  0  0
    2.3481    4.9326    3.6191 H   0  0  0  0  0  0  0  0  0  0  0  0
    2.2908    6.0222    5.4690 C   0  0  0  0  0  0  0  0  0  0  0  0
    2.6939    6.9156    5.0157 H   0  0  0  0  0  0  0  0  0  0  0  0
    1.9838    6.0074    6.8023 C   0  0  0  0  0  0  0  0  0  0  0  0
    2.1471    6.8803    7.4159 H   0  0  0  0  0  0  0  0  0  0  0  0
    1.4373    4.8525    7.3975 C   0  0  0  0  0  0  0  0  0  0  0  0
    1.0844    4.7840    8.7606 C   0  0  0  0  0  0  0  0  0  0  0  0
    1.2420    5.6506    9.3845 H   0  0  0  0  0  0  0  0  0  0  0  0
    0.5480    3.6371    9.2756 C   0  0  0  0  0  0  0  0  0  0  0  0
    0.2815    3.5865   10.3211 H   0  0  0  0  0  0  0  0  0  0  0  0
    0.3205    2.5116    8.4747 C   0  0  0  0  0  0  0  0  0  0  0  0
   -0.1130    1.6383    8.9308 H   0  0  0  0  0  0  0  0  0  0  0  0
    0.6475    2.5397    7.1348 C   0  0  0  0  0  0  0  0  0  0  0  0
    1.2279    3.7099    6.5892 C   0  0  0  0  0  0  0  0  0  0  0  0
    1.8417    2.5444    3.1361 C   0  0  0  0  0  0  0  0  0  0  0  0
    3.2039    2.5104    2.8645 C   0  0  0  0  0  0  0  0  0  0  0  0
    3.9124    2.5117    3.6804 H   0  0  0  0  0  0  0  0  0  0  0  0
    3.6400    2.4736    1.5519 C   0  0  0  0  0  0  0  0  0  0  0  0
    4.6983    2.4367    1.3402 H   0  0  0  0  0  0  0  0  0  0  0  0
    2.7226    2.4835    0.5146 C   0  0  0  0  0  0  0  0  0  0  0  0
    3.0668    2.4508   -0.5086 H   0  0  0  0  0  0  0  0  0  0  0  0
    1.3663    2.5458    0.7890 C   0  0  0  0  0  0  0  0  0  0  0  0
    0.6506    2.5701   -0.0189 H   0  0  0  0  0  0  0  0  0  0  0  0
    0.9186    2.5801    2.0992 C   0  0  0  0  0  0  0  0  0  0  0  0
   -0.1345    2.6485    2.3215 H   0  0  0  0  0  0  0  0  0  0  0  0
   -0.2841    0.3219    6.8021 C   0  0  0  0  0  0  0  0  0  0  0  0
   -1.2341    0.6479    7.2262 H   0  0  0  0  0  0  0  0  0  0  0  0
    0.3072   -0.1847    7.5671 H   0  0  0  0  0  0  0  0  0  0  0  0
   -0.4901   -0.3674    5.9819 H   0  0  0  0  0  0  0  0  0  0  0  0
   -0.3346   -1.8720    2.7516 C   0  0  0  0  0  3  0  0  0  0  0  0
   -1.4060   -1.8858    2.9335 H   0  0  0  0  0  0  0  0  0  0  0  0
    0.1403   -1.0159    1.7808 C   0  0  0  0  0  3  0  0  0  0  0  0
   -0.5842   -0.4164    1.2338 H   0  0  0  0  0  0  0  0  0  0  0  0
    1.4708   -1.1575    1.0812 C   0  0  0  0  0  0  0  0  0  0  0  0
    1.6491   -0.2441    0.5107 H   0  0  0  0  0  0  0  0  0  0  0  0
    1.4173   -1.9842    0.3644 H   0  0  0  0  0  0  0  0  0  0  0  0
    2.6503   -1.3728    2.0483 C   0  0  0  0  0  0  0  0  0  0  0  0
    2.8426   -2.4385    2.1838 H   0  0  0  0  0  0  0  0  0  0  0  0
    3.5468   -0.9377    1.6023 H   0  0  0  0  0  0  0  0  0  0  0  0
    2.4172   -0.7337    3.4017 C   0  0  0  0  0  3  0  0  0  0  0  0
    3.1559    0.0213    3.6558 H   0  0  0  0  0  0  0  0  0  0  0  0
    1.8229   -1.4111    4.4840 C   0  0  2  0  0  0  0  0  0  0  0  0
    2.1734   -1.1406    5.4805 H   0  0  0  0  0  0  0  0  0  0  0  0
    1.3128   -2.8350    4.4217 C   0  0  0  0  0  0  0  0  0  0  0  0
    0.7474   -3.0286    5.3360 H   0  0  0  0  0  0  0  0  0  0  0  0
    2.1635   -3.5253    4.4182 H   0  0  0  0  0  0  0  0  0  0  0  0
    0.4076   -3.1087    3.2060 C   0  0  0  0  0  0  0  0  0  0  0  0
    0.9980   -3.4943    2.3738 H   0  0  0  0  0  0  0  0  0  0  0  0
   -0.3161   -3.8811    3.4729 H   0  0  0  0  0  0  0  0  0  0  0  0
  1 49  1  0  0  0  0
  3  5  1  0  0  0  0
  3  6  1  0  0  0  0
  4 33  1  0  0  0  0
  4 20  1  0  0  0  0
  5  1  1  6  0  0  0
  5  4  1  0  0  0  0
  6 21  1  0  0  0  0
  7  6  2  0  0  0  0
  7  9  1  0  0  0  0
  8  7  1  0  0  0  0
  9 11  2  0  0  0  0
 10  9  1  0  0  0  0
 11 13  1  0  0  0  0
 11 12  1  0  0  0  0
 13 14  1  0  0  0  0
 14 16  2  0  0  0  0
 14 15  1  0  0  0  0
 16 17  1  0  0  0  0
 18 19  1  0  0  0  0
 18 16  1  0  0  0  0
 20 18  2  0  0  0  0
 21 20  1  0  0  0  0
 21 13  2  0  0  0  0
 22  3  1  0  0  0  0
 23 22  1  0  0  0  0
 23 24  1  0  0  0  0
 25 23  2  0  0  0  0
 26 25  1  0  0  0  0
 27 29  2  0  0  0  0
 27 25  1  0  0  0  0
 28 27  1  0  0  0  0
 29 31  1  0  0  0  0
 30 29  1  0  0  0  0
 31 32  1  0  0  0  0
 31 22  2  0  0  0  0
 33 34  1  0  0  0  0
 33 35  1  0  0  0  0
 36 33  1  0  0  0  0
 37 38  1  0  0  0  0
 37 54  1  0  0  0  0
 39 37  1  0  0  0  0
 40 39  1  0  0  0  0
 41 39  1  0  0  0  0
 41 44  1  0  0  0  0
 42 41  1  0  0  0  0
 43 41  1  0  0  0  0
 44 45  1  0  0  0  0
 44 47  1  0  0  0  0
 46 44  1  0  0  0  0
 47 48  1  0  0  0  0
 47 49  1  0  0  0  0
 49 50  1  1  0  0  0
 51 49  1  0  0  0  0
 51 52  1  0  0  0  0
 53 51  1  0  0  0  0
 54 56  1  0  0  0  0
 54 51  1  0  0  0  0
 55 54  1  0  0  0  0
M  END
$$$$
