CSD_code = ASOFOE | q = 0 | S = 0 | Stoichiometry = C32H28Cl2SiZr | MND = 12
 OpenBabel04212202003D

 64 69  0  0  1  0  0  0  0  0999 V2000
    2.4912    1.4327    2.5678 Zr  0  0  0  0  0  0  0  0  0  0  0  0
    0.6399    0.0606    2.9950 Cl  0  0  0  0  0  0  0  0  0  0  0  0
    3.0043    1.6218    4.8253 Cl  0  0  0  0  0  0  0  0  0  0  0  0
    3.5284    2.4274   -0.4118 Si  0  0  0  0  0  0  0  0  0  0  0  0
    3.9152    0.9105    0.6604 C   0  0  0  0  0  0  0  0  0  0  0  0
    3.0721   -0.2277    0.8357 C   0  0  0  0  0  0  0  0  0  0  0  0
    3.4003   -0.8807    2.0426 C   0  0  0  0  0  0  0  0  0  0  0  0
    2.9797   -1.8231    2.3719 H   0  0  0  0  0  0  0  0  0  0  0  0
    4.4504   -0.1592    2.6695 C   0  0  0  0  0  0  0  0  0  0  0  0
    4.7623    0.9638    1.8243 C   0  0  0  0  0  0  0  0  0  0  0  0
    2.3757    3.1763    0.8891 C   0  0  1  0  0  3  0  0  0  0  0  0
    1.0249    2.7372    1.0529 C   0  0  0  0  0  0  0  0  0  0  0  0
    0.4184    2.2996    0.2656 H   0  0  0  0  0  0  0  0  0  0  0  0
    0.5370    3.0879    2.3226 C   0  0  0  0  0  0  0  0  0  0  0  0
    1.5877    3.7711    3.0094 C   0  0  1  0  0  3  0  0  0  0  0  0
    2.7424    3.8012    2.1326 C   0  0  1  0  0  0  0  0  0  0  0  0
    5.8160    1.8409    2.1947 C   0  0  0  0  0  0  0  0  0  0  0  0
    6.1140    2.6355    1.5259 H   0  0  0  0  0  0  0  0  0  0  0  0
    6.4878    1.6317    3.3595 C   0  0  0  0  0  0  0  0  0  0  0  0
    7.2923    2.2936    3.6464 H   0  0  0  0  0  0  0  0  0  0  0  0
    6.1850    0.5443    4.2315 C   0  0  0  0  0  0  0  0  0  0  0  0
    5.1665   -0.3814    3.8886 C   0  0  1  0  0  3  0  0  0  0  0  0
    3.9218    4.4221    2.5934 C   0  0  0  0  0  0  0  0  0  0  0  0
    4.7865    4.5059    1.9503 H   0  0  0  0  0  0  0  0  0  0  0  0
    3.9410    4.9861    3.8454 C   0  0  0  0  0  0  0  0  0  0  0  0
    4.8421    5.4642    4.1999 H   0  0  0  0  0  0  0  0  0  0  0  0
    2.8076    4.9779    4.6761 C   0  0  0  0  0  0  0  0  0  0  0  0
    2.8668    5.4511    5.6442 H   0  0  0  0  0  0  0  0  0  0  0  0
    1.6371    4.3878    4.2730 C   0  0  0  0  0  0  0  0  0  0  0  0
    0.7593    4.4005    4.9044 H   0  0  0  0  0  0  0  0  0  0  0  0
   -0.8645    2.9236    2.8404 C   0  0  0  0  0  0  0  0  0  0  0  0
   -0.8539    2.3780    3.7909 H   0  0  0  0  0  0  0  0  0  0  0  0
   -1.4466    2.3315    2.1257 H   0  0  0  0  0  0  0  0  0  0  0  0
   -1.5267    4.2658    3.0414 C   0  0  0  0  0  0  0  0  0  0  0  0
   -2.2404    4.5425    4.1990 C   0  0  0  0  0  0  0  0  0  0  0  0
   -2.3242    3.7878    4.9685 H   0  0  0  0  0  0  0  0  0  0  0  0
   -2.8452    5.7750    4.3761 C   0  0  0  0  0  0  0  0  0  0  0  0
   -3.3969    5.9772    5.2826 H   0  0  0  0  0  0  0  0  0  0  0  0
   -2.7395    6.7473    3.3971 C   0  0  0  0  0  0  0  0  0  0  0  0
   -3.2087    7.7102    3.5356 H   0  0  0  0  0  0  0  0  0  0  0  0
   -2.0278    6.4801    2.2396 C   0  0  0  0  0  0  0  0  0  0  0  0
   -1.9415    7.2351    1.4719 H   0  0  0  0  0  0  0  0  0  0  0  0
   -1.4261    5.2478    2.0633 C   0  0  0  0  0  0  0  0  0  0  0  0
   -0.8674    5.0438    1.1611 H   0  0  0  0  0  0  0  0  0  0  0  0
    2.5723    2.0660   -2.0244 C   0  0  0  0  0  0  0  0  0  0  0  0
    2.4034    2.9940   -2.5606 H   0  0  0  0  0  0  0  0  0  0  0  0
    1.6057    1.6050   -1.8596 H   0  0  0  0  0  0  0  0  0  0  0  0
    3.1463    1.4167   -2.6766 H   0  0  0  0  0  0  0  0  0  0  0  0
    5.0552    3.4573   -0.9158 C   0  0  0  0  0  0  0  0  0  0  0  0
    4.8429    4.0064   -1.8265 H   0  0  0  0  0  0  0  0  0  0  0  0
    5.9075    2.8154   -1.1135 H   0  0  0  0  0  0  0  0  0  0  0  0
    5.3494    4.1834   -0.1674 H   0  0  0  0  0  0  0  0  0  0  0  0
    2.0071   -0.7120   -0.1074 C   0  0  0  0  0  0  0  0  0  0  0  0
    1.8051   -1.7667    0.0746 H   0  0  0  0  0  0  0  0  0  0  0  0
    2.3199   -0.5928   -1.1426 H   0  0  0  0  0  0  0  0  0  0  0  0
    1.0694   -0.1666    0.0476 H   0  0  0  0  0  0  0  0  0  0  0  0
    6.8885    0.3577    5.4317 C   0  0  0  0  0  0  0  0  0  0  0  0
    7.6607    1.0658    5.6970 H   0  0  0  0  0  0  0  0  0  0  0  0
    6.6001   -0.6958    6.2623 C   0  0  0  0  0  0  0  0  0  0  0  0
    7.1452   -0.8241    7.1858 H   0  0  0  0  0  0  0  0  0  0  0  0
    5.5952   -1.6037    5.9222 C   0  0  0  0  0  0  0  0  0  0  0  0
    5.3702   -2.4251    6.5864 H   0  0  0  0  0  0  0  0  0  0  0  0
    4.8900   -1.4504    4.7542 C   0  0  0  0  0  0  0  0  0  0  0  0
    4.1027   -2.1454    4.4992 H   0  0  0  0  0  0  0  0  0  0  0  0
  1  2  1  0  0  0  0
  1  3  1  0  0  0  0
  4  5  1  0  0  0  0
  5  6  2  0  0  0  0
  5 10  1  0  0  0  0
  6  7  1  0  0  0  0
  7  8  1  0  0  0  0
  7  9  2  0  0  0  0
 10 17  2  0  0  0  0
 10  9  1  0  0  0  0
 11  4  1  1  0  0  0
 11 12  1  0  0  0  0
 11 16  1  0  0  0  0
 12 14  2  0  0  0  0
 13 12  1  0  0  0  0
 14 31  1  0  0  0  0
 15 14  1  6  0  0  0
 15 29  1  0  0  0  0
 16  1  1  1  0  0  0
 16 23  1  0  0  0  0
 16 15  1  0  0  0  0
 17 19  1  0  0  0  0
 18 17  1  0  0  0  0
 19 20  1  0  0  0  0
 19 21  2  0  0  0  0
 21 57  1  0  0  0  0
 22  9  1  1  0  0  0
 22 21  1  0  0  0  0
 22 63  1  0  0  0  0
 23 25  2  0  0  0  0
 24 23  1  0  0  0  0
 25 26  1  0  0  0  0
 25 27  1  0  0  0  0
 27 28  1  0  0  0  0
 29 27  2  0  0  0  0
 29 30  1  0  0  0  0
 31 34  1  0  0  0  0
 31 32  1  0  0  0  0
 33 31  1  0  0  0  0
 34 35  1  0  0  0  0
 35 37  2  0  0  0  0
 35 36  1  0  0  0  0
 37 38  1  0  0  0  0
 39 40  1  0  0  0  0
 39 37  1  0  0  0  0
 41 39  2  0  0  0  0
 42 41  1  0  0  0  0
 43 41  1  0  0  0  0
 43 34  2  0  0  0  0
 44 43  1  0  0  0  0
 45 47  1  0  0  0  0
 45  4  1  0  0  0  0
 46 45  1  0  0  0  0
 48 45  1  0  0  0  0
 49  4  1  0  0  0  0
 49 52  1  0  0  0  0
 50 49  1  0  0  0  0
 51 49  1  0  0  0  0
 53 56  1  0  0  0  0
 53 54  1  0  0  0  0
 53  6  1  0  0  0  0
 55 53  1  0  0  0  0
 57 58  1  0  0  0  0
 57 59  2  0  0  0  0
 59 60  1  0  0  0  0
 61 59  1  0  0  0  0
 61 62  1  0  0  0  0
 63 61  2  0  0  0  0
 64 63  1  0  0  0  0
M  END
$$$$
