CSD_code = ASOHAT | q = 0 | S = 0 | Stoichiometry = C14H14Cl2N2PtS | MND = 4
 OpenBabel04212202003D

 34 36  0  0  0  0  0  0  0  0999 V2000
    9.2427    4.4585   10.8448 Pt  0  0  0  0  0  0  0  0  0  0  0  0
   10.9218    3.7357   12.3070 Cl  0  0  0  0  0  0  0  0  0  0  0  0
    7.6438    5.0991    9.3238 Cl  0  0  0  0  0  0  0  0  0  0  0  0
   10.0024    3.2375    9.4865 N   0  0  0  0  0  0  0  0  0  0  0  0
    9.4710    2.0352    9.3541 C   0  0  0  0  0  0  0  0  0  0  0  0
    8.6020    1.8130    9.9643 H   0  0  0  0  0  0  0  0  0  0  0  0
    9.9912    1.0894    8.4772 C   0  0  0  0  0  0  0  0  0  0  0  0
    9.5254    0.1203    8.3998 H   0  0  0  0  0  0  0  0  0  0  0  0
   11.0984    1.4069    7.7233 C   0  0  0  0  0  0  0  0  0  0  0  0
   11.5113    0.6756    7.0473 H   0  0  0  0  0  0  0  0  0  0  0  0
   11.6763    2.6793    7.8407 C   0  0  0  0  0  0  0  0  0  0  0  0
   12.8341    3.1043    7.0988 C   0  0  0  0  0  0  0  0  0  0  0  0
   13.5197    2.2905    6.1823 C   0  0  0  0  0  0  0  0  0  0  0  0
   13.1925    1.2801    5.9896 H   0  0  0  0  0  0  0  0  0  0  0  0
   14.6207    2.7860    5.5257 C   0  0  0  0  0  0  0  0  0  0  0  0
   15.1650    2.1809    4.8177 H   0  0  0  0  0  0  0  0  0  0  0  0
   15.0268    4.0979    5.7936 C   0  0  0  0  0  0  0  0  0  0  0  0
   15.8890    4.5235    5.2969 H   0  0  0  0  0  0  0  0  0  0  0  0
   14.4108    4.8819    6.6384 N   0  0  0  0  0  2  0  0  0  0  0  0
   13.3350    4.4170    7.2888 C   0  0  0  0  0  0  0  0  0  0  0  0
   12.6879    5.3034    8.1980 C   0  0  0  0  0  0  0  0  0  0  0  0
   13.1010    6.2942    8.2987 H   0  0  0  0  0  0  0  0  0  0  0  0
   11.6010    4.9036    8.8970 C   0  0  0  0  0  0  0  0  0  0  0  0
   11.0895    5.5689    9.5907 H   0  0  0  0  0  0  0  0  0  0  0  0
   11.0776    3.5889    8.7466 C   0  0  0  0  0  0  0  0  0  0  0  0
    8.3072    5.8657   12.4474 S   0  0  0  0  0  3  0  0  0  0  0  0
    8.1912    4.8073   13.9191 C   0  0  0  0  0  0  0  0  0  0  0  0
    7.9557    5.4345   14.7746 H   0  0  0  0  0  0  0  0  0  0  0  0
    9.1323    4.2821   14.0614 H   0  0  0  0  0  0  0  0  0  0  0  0
    7.3855    4.1002   13.7452 H   0  0  0  0  0  0  0  0  0  0  0  0
    9.7485    6.8623   12.9320 C   0  0  0  0  0  0  0  0  0  0  0  0
    9.4854    7.4426   13.8123 H   0  0  0  0  0  0  0  0  0  0  0  0
    9.9727    7.5291   12.1042 H   0  0  0  0  0  0  0  0  0  0  0  0
   10.5912    6.2050   13.1323 H   0  0  0  0  0  0  0  0  0  0  0  0
  1  2  1  0  0  0  0
  1 26  1  0  0  0  0
  3  1  1  0  0  0  0
  4  1  1  0  0  0  0
  5  4  1  0  0  0  0
  5  6  1  0  0  0  0
  7  5  2  0  0  0  0
  8  7  1  0  0  0  0
  9 11  2  0  0  0  0
  9  7  1  0  0  0  0
 10  9  1  0  0  0  0
 11 25  1  0  0  0  0
 12 20  1  0  0  0  0
 12 11  1  0  0  0  0
 13 12  2  0  0  0  0
 14 13  1  0  0  0  0
 15 17  2  0  0  0  0
 15 13  1  0  0  0  0
 16 15  1  0  0  0  0
 17 19  1  0  0  0  0
 18 17  1  0  0  0  0
 19 20  1  0  0  0  0
 20 21  2  0  0  0  0
 21 22  1  0  0  0  0
 21 23  1  0  0  0  0
 23 24  1  0  0  0  0
 25 23  2  0  0  0  0
 25  4  1  0  0  0  0
 26 31  1  0  0  0  0
 26 27  1  0  0  0  0
 27 29  1  0  0  0  0
 27 28  1  0  0  0  0
 30 27  1  0  0  0  0
 31 34  1  0  0  0  0
 31 32  1  0  0  0  0
 33 31  1  0  0  0  0
M  END
$$$$
