CSD_code = ASOXIQ | q = 0 | S = 0 | Stoichiometry = C19H22BrCuN2 | MND = 3
 OpenBabel04212202003D

 45 49  0  0  1  0  0  0  0  0999 V2000
    2.9171    0.5717    4.0508 Cu  0  0  0  0  0  0  0  0  0  0  0  0
    0.7805    0.9782    4.7126 Br  0  0  0  0  0  0  0  0  0  0  0  0
    3.6028   -1.8576    2.5162 C   0  0  0  0  0  0  0  0  0  0  0  0
    2.5914   -2.0798    2.8643 H   0  0  0  0  0  0  0  0  0  0  0  0
    4.3071   -2.2428    3.2572 H   0  0  0  0  0  0  0  0  0  0  0  0
    3.8577   -2.5187    1.1658 C   0  0  0  0  0  0  0  0  0  0  0  0
    3.8942   -3.6037    1.2786 H   0  0  0  0  0  0  0  0  0  0  0  0
    3.0280   -2.2912    0.4871 H   0  0  0  0  0  0  0  0  0  0  0  0
    5.1337   -2.0188    0.5460 C   0  0  0  0  0  0  0  0  0  0  0  0
    5.7302   -2.7440   -0.4799 C   0  0  0  0  0  0  0  0  0  0  0  0
    5.2829   -3.6782   -0.7880 H   0  0  0  0  0  0  0  0  0  0  0  0
    6.8736   -2.2865   -1.1038 C   0  0  0  0  0  0  0  0  0  0  0  0
    7.3255   -2.8634   -1.8964 H   0  0  0  0  0  0  0  0  0  0  0  0
    7.4307   -1.0790   -0.7144 C   0  0  0  0  0  0  0  0  0  0  0  0
    8.3150   -0.7037   -1.2068 H   0  0  0  0  0  0  0  0  0  0  0  0
    6.8470   -0.3537    0.3050 C   0  0  0  0  0  0  0  0  0  0  0  0
    7.2689    0.5965    0.5990 H   0  0  0  0  0  0  0  0  0  0  0  0
    5.7059   -0.8170    0.9518 C   0  0  0  0  0  0  0  0  0  0  0  0
    5.1233    0.0036    2.0852 C   0  0  2  0  0  0  0  0  0  0  0  0
    5.0753    1.0507    1.7597 H   0  0  0  0  0  0  0  0  0  0  0  0
    6.0536   -0.0561    3.3140 C   0  0  0  0  0  0  0  0  0  0  0  0
    5.8444   -0.9616    3.8872 H   0  0  0  0  0  0  0  0  0  0  0  0
    7.0815   -0.1360    2.9612 H   0  0  0  0  0  0  0  0  0  0  0  0
    5.9480    1.1537    4.2633 C   0  0  1  0  0  0  0  0  0  0  0  0
    6.8162    1.1002    4.9496 H   0  0  0  0  0  0  0  0  0  0  0  0
    6.0507    2.4753    3.5305 C   0  0  0  0  0  0  0  0  0  0  0  0
    7.1062    2.6791    2.6461 C   0  0  0  0  0  0  0  0  0  0  0  0
    7.8527    1.9086    2.5205 H   0  0  0  0  0  0  0  0  0  0  0  0
    7.2256    3.8585    1.9374 C   0  0  0  0  0  0  0  0  0  0  0  0
    8.0489    3.9939    1.2520 H   0  0  0  0  0  0  0  0  0  0  0  0
    6.2894    4.8641    2.1135 C   0  0  0  0  0  0  0  0  0  0  0  0
    6.3695    5.7855    1.5569 H   0  0  0  0  0  0  0  0  0  0  0  0
    5.2681    4.6907    3.0264 C   0  0  0  0  0  0  0  0  0  0  0  0
    4.5522    5.4820    3.1947 H   0  0  0  0  0  0  0  0  0  0  0  0
    5.1428    3.5095    3.7490 C   0  0  0  0  0  0  0  0  0  0  0  0
    4.0616    3.3686    4.7781 C   0  0  0  0  0  0  0  0  0  0  0  0
    3.8915    4.3217    5.2803 H   0  0  0  0  0  0  0  0  0  0  0  0
    3.1215    3.0796    4.2947 H   0  0  0  0  0  0  0  0  0  0  0  0
    4.4446    2.2949    5.7858 C   0  0  0  0  0  0  0  0  0  0  0  0
    5.3303    2.6131    6.3562 H   0  0  0  0  0  0  0  0  0  0  0  0
    3.6217    2.1184    6.4808 H   0  0  0  0  0  0  0  0  0  0  0  0
    3.7570   -0.4054    2.4308 N   0  0  2  0  0  4  0  0  0  0  0  0
    3.1300   -0.0749    1.6983 H   0  0  0  0  0  0  0  0  0  0  0  0
    4.7102    1.0650    5.0428 N   0  0  1  0  0  4  0  0  0  0  0  0
    4.7901    0.2836    5.6909 H   0  0  0  0  0  0  0  0  0  0  0  0
  1  2  1  0  0  0  0
  1 44  1  0  0  0  0
  3  4  1  0  0  0  0
  3  5  1  0  0  0  0
  6  7  1  0  0  0  0
  6  3  1  0  0  0  0
  8  6  1  0  0  0  0
  9 18  1  0  0  0  0
  9  6  1  0  0  0  0
 10  9  2  0  0  0  0
 11 10  1  0  0  0  0
 12 14  2  0  0  0  0
 12 10  1  0  0  0  0
 13 12  1  0  0  0  0
 14 16  1  0  0  0  0
 15 14  1  0  0  0  0
 16 17  1  0  0  0  0
 16 18  2  0  0  0  0
 18 19  1  0  0  0  0
 19 20  1  6  0  0  0
 19 42  1  0  0  0  0
 19 21  1  0  0  0  0
 21 22  1  0  0  0  0
 21 24  1  0  0  0  0
 23 21  1  0  0  0  0
 24 25  1  1  0  0  0
 24 44  1  0  0  0  0
 26 35  1  0  0  0  0
 26 24  1  0  0  0  0
 27 26  2  0  0  0  0
 28 27  1  0  0  0  0
 29 31  2  0  0  0  0
 29 27  1  0  0  0  0
 30 29  1  0  0  0  0
 31 33  1  0  0  0  0
 32 31  1  0  0  0  0
 33 34  1  0  0  0  0
 33 35  2  0  0  0  0
 35 36  1  0  0  0  0
 36 37  1  0  0  0  0
 36 39  1  0  0  0  0
 38 36  1  0  0  0  0
 39 40  1  0  0  0  0
 39 41  1  0  0  0  0
 42 43  1  6  0  0  0
 42  3  1  0  0  0  0
 42  1  1  0  0  0  0
 44 45  1  1  0  0  0
 44 39  1  0  0  0  0
M  END
$$$$
