CSD_code = ASUCEW | q = 0 | S = 0 | Stoichiometry = C16H12Br2N4Zn | MND = 4
 OpenBabel04212202003D

 35 38  0  0  0  0  0  0  0  0999 V2000
   11.7898    4.1501   11.8129 Br  0  0  0  0  0  0  0  0  0  0  0  0
    8.0139    5.0157    9.6463 Br  0  0  0  0  0  0  0  0  0  0  0  0
    9.8897    3.8465   10.4574 Zn  0  0  0  0  0  0  0  0  0  0  0  0
   10.8498    2.9786    8.7404 N   0  0  0  0  0  0  0  0  0  0  0  0
    9.9713    2.4289    7.9069 N   0  0  0  0  0  2  0  0  0  0  0  0
    8.8882    2.0895   11.1867 N   0  0  0  0  0  0  0  0  0  0  0  0
    9.7389    1.1001   11.4430 N   0  0  0  0  0  2  0  0  0  0  0  0
   12.1230    3.0182    8.4558 C   0  0  0  0  0  0  0  0  0  0  0  0
   12.6500    2.5187    7.2431 C   0  0  0  0  0  0  0  0  0  0  0  0
   14.0143    2.5664    6.9026 C   0  0  0  0  0  0  0  0  0  0  0  0
   14.4217    2.0754    5.6909 C   0  0  0  0  0  0  0  0  0  0  0  0
   13.4960    1.5256    4.7884 C   0  0  0  0  0  0  0  0  0  0  0  0
   12.1629    1.4635    5.0976 C   0  0  0  0  0  0  0  0  0  0  0  0
   11.7162    1.9592    6.3348 C   0  0  0  0  0  0  0  0  0  0  0  0
   10.3663    1.9452    6.7691 C   0  0  0  0  0  0  0  0  0  0  0  0
    9.3125   -0.0062   11.9712 C   0  0  0  0  0  0  0  0  0  0  0  0
    7.9554   -0.2463   12.3053 C   0  0  0  0  0  0  0  0  0  0  0  0
    7.4747   -1.4272   12.8973 C   0  0  0  0  0  0  0  0  0  0  0  0
    6.1376   -1.5484   13.1697 C   0  0  0  0  0  0  0  0  0  0  0  0
    5.2414   -0.5106   12.8641 C   0  0  0  0  0  0  0  0  0  0  0  0
    5.6822    0.6508   12.2881 C   0  0  0  0  0  0  0  0  0  0  0  0
    7.0513    0.8025   12.0014 C   0  0  0  0  0  0  0  0  0  0  0  0
    7.6113    1.9667   11.4279 C   0  0  0  0  0  0  0  0  0  0  0  0
   12.7734    3.4607    9.1989 H   0  0  0  0  0  0  0  0  0  0  0  0
   14.7158    2.9933    7.6028 H   0  0  0  0  0  0  0  0  0  0  0  0
   15.4653    2.1090    5.4168 H   0  0  0  0  0  0  0  0  0  0  0  0
   13.8485    1.1492    3.8397 H   0  0  0  0  0  0  0  0  0  0  0  0
   11.4464    1.0427    4.4083 H   0  0  0  0  0  0  0  0  0  0  0  0
    9.5896    1.5218    6.1472 H   0  0  0  0  0  0  0  0  0  0  0  0
   10.0683   -0.7580   12.1530 H   0  0  0  0  0  0  0  0  0  0  0  0
    8.1686   -2.2208   13.1302 H   0  0  0  0  0  0  0  0  0  0  0  0
    5.7591   -2.4511   13.6257 H   0  0  0  0  0  0  0  0  0  0  0  0
    4.1937   -0.6381   13.0912 H   0  0  0  0  0  0  0  0  0  0  0  0
    5.0038    1.4559   12.0511 H   0  0  0  0  0  0  0  0  0  0  0  0
    6.9843    2.8097   11.1686 H   0  0  0  0  0  0  0  0  0  0  0  0
  2  3  1  0  0  0  0
  3  6  1  0  0  0  0
  3  1  1  0  0  0  0
  4  3  1  0  0  0  0
  5  4  1  0  0  0  0
  6 23  1  0  0  0  0
  6  7  1  0  0  0  0
  7 16  1  0  0  0  0
  8  4  1  0  0  0  0
  8 24  1  0  0  0  0
  9  8  2  0  0  0  0
 10  9  1  0  0  0  0
 10 25  1  0  0  0  0
 11 10  2  0  0  0  0
 12 13  2  0  0  0  0
 12 11  1  0  0  0  0
 13 14  1  0  0  0  0
 14 15  2  0  0  0  0
 14  9  1  0  0  0  0
 15  5  1  0  0  0  0
 16 30  1  0  0  0  0
 16 17  2  0  0  0  0
 17 18  1  0  0  0  0
 18 31  1  0  0  0  0
 18 19  2  0  0  0  0
 19 32  1  0  0  0  0
 20 33  1  0  0  0  0
 20 19  1  0  0  0  0
 21 20  2  0  0  0  0
 22 21  1  0  0  0  0
 22 17  1  0  0  0  0
 23 22  2  0  0  0  0
 26 11  1  0  0  0  0
 27 12  1  0  0  0  0
 28 13  1  0  0  0  0
 29 15  1  0  0  0  0
 34 21  1  0  0  0  0
 35 23  1  0  0  0  0
M  END
$$$$
