CSD_code = ASUKEF | q = 0 | S = 0 | Stoichiometry = C23H29ClCuN3 | MND = 2
 OpenBabel04212202003D

 57 59  0  0  0  0  0  0  0  0999 V2000
    1.9441    5.0585    4.7553 Cu  0  0  0  0  0  0  0  0  0  0  0  0
    3.7540    5.5730    3.8867 Cl  0  0  0  0  0  0  0  0  0  0  0  0
   -0.6592    3.8233    4.8927 N   0  0  0  0  0  0  0  0  0  0  0  0
   -1.7869    3.7042    5.5551 N   0  0  0  0  0  2  0  0  0  0  0  0
   -1.6363    4.4382    6.6272 N   0  0  0  0  0  0  0  0  0  0  0  0
    0.2540    4.6316    5.4881 C   0  0  0  0  0  0  0  0  0  0  0  0
   -0.4166    5.0320    6.6535 C   0  0  0  0  0  0  0  0  0  0  0  0
    0.0628    5.9164    7.7038 C   0  0  0  0  0  0  0  0  0  0  0  0
    0.8319    7.0197    7.3445 C   0  0  0  0  0  0  0  0  0  0  0  0
    1.3369    7.8775    8.3101 C   0  0  0  0  0  0  0  0  0  0  0  0
    1.0570    7.6206    9.6451 C   0  0  0  0  0  0  0  0  0  0  0  0
    0.3037    6.5176   10.0287 C   0  0  0  0  0  0  0  0  0  0  0  0
   -0.1898    5.6675    9.0520 C   0  0  0  0  0  0  0  0  0  0  0  0
    2.1570    9.0626    7.9062 C   0  0  0  0  0  0  0  0  0  0  0  0
    0.0335    6.2615   11.4805 C   0  0  0  0  0  0  0  0  0  0  0  0
   -2.7330    4.5680    7.5424 C   0  0  0  0  0  0  0  0  0  0  0  0
   -0.4658    3.1447    3.6598 C   0  0  0  0  0  0  0  0  0  0  0  0
   -0.7932    3.7999    2.4724 C   0  0  0  0  0  0  0  0  0  0  0  0
   -0.5658    3.1280    1.2790 C   0  0  0  0  0  0  0  0  0  0  0  0
   -0.0337    1.8534    1.2744 C   0  0  0  0  0  0  0  0  0  0  0  0
    0.2862    1.2257    2.4630 C   0  0  0  0  0  0  0  0  0  0  0  0
    0.0732    1.8574    3.6802 C   0  0  0  0  0  0  0  0  0  0  0  0
   -1.3262    5.2121    2.4687 C   0  0  0  0  0  0  0  0  0  0  0  0
   -0.2537    6.1572    1.9211 C   0  0  0  0  0  0  0  0  0  0  0  0
   -2.6230    5.3216    1.6645 C   0  0  0  0  0  0  0  0  0  0  0  0
    0.4790    1.1986    4.9765 C   0  0  0  0  0  0  0  0  0  0  0  0
    2.0021    1.2763    5.1164 C   0  0  0  0  0  0  0  0  0  0  0  0
   -0.0093   -0.2478    5.0669 C   0  0  0  0  0  0  0  0  0  0  0  0
    1.0414    7.1968    6.2999 H   0  0  0  0  0  0  0  0  0  0  0  0
    1.4449    8.2821   10.4067 H   0  0  0  0  0  0  0  0  0  0  0  0
   -0.7339    4.7838    9.3508 H   0  0  0  0  0  0  0  0  0  0  0  0
    2.8008    9.3870    8.7195 H   0  0  0  0  0  0  0  0  0  0  0  0
    1.5050    9.8931    7.6358 H   0  0  0  0  0  0  0  0  0  0  0  0
    2.7700    8.8233    7.0413 H   0  0  0  0  0  0  0  0  0  0  0  0
   -0.4375    5.2929   11.6281 H   0  0  0  0  0  0  0  0  0  0  0  0
   -0.6259    7.0310   11.8817 H   0  0  0  0  0  0  0  0  0  0  0  0
    0.9602    6.2895   12.0504 H   0  0  0  0  0  0  0  0  0  0  0  0
   -2.6991    5.5478    8.0163 H   0  0  0  0  0  0  0  0  0  0  0  0
   -2.6905    3.7917    8.3083 H   0  0  0  0  0  0  0  0  0  0  0  0
   -3.6591    4.4507    6.9814 H   0  0  0  0  0  0  0  0  0  0  0  0
   -0.7966    3.6108    0.3427 H   0  0  0  0  0  0  0  0  0  0  0  0
    0.1435    1.3488    0.3364 H   0  0  0  0  0  0  0  0  0  0  0  0
    0.7160    0.2370    2.4420 H   0  0  0  0  0  0  0  0  0  0  0  0
   -1.5483    5.5164    3.4962 H   0  0  0  0  0  0  0  0  0  0  0  0
    0.6585    6.0740    2.5118 H   0  0  0  0  0  0  0  0  0  0  0  0
   -0.6019    7.1867    1.9630 H   0  0  0  0  0  0  0  0  0  0  0  0
   -0.0154    5.9125    0.8893 H   0  0  0  0  0  0  0  0  0  0  0  0
   -3.3581    4.6076    2.0301 H   0  0  0  0  0  0  0  0  0  0  0  0
   -2.4492    5.1284    0.6097 H   0  0  0  0  0  0  0  0  0  0  0  0
   -3.0342    6.3238    1.7614 H   0  0  0  0  0  0  0  0  0  0  0  0
    0.0337    1.7470    5.8124 H   0  0  0  0  0  0  0  0  0  0  0  0
    2.4867    0.7301    4.3112 H   0  0  0  0  0  0  0  0  0  0  0  0
    2.3168    0.8502    6.0662 H   0  0  0  0  0  0  0  0  0  0  0  0
    2.3334    2.3141    5.0733 H   0  0  0  0  0  0  0  0  0  0  0  0
    0.1907   -0.6419    6.0606 H   0  0  0  0  0  0  0  0  0  0  0  0
    0.4990   -0.8821    4.3465 H   0  0  0  0  0  0  0  0  0  0  0  0
   -1.0799   -0.3005    4.8818 H   0  0  0  0  0  0  0  0  0  0  0  0
  1  6  1  0  0  0  0
  2  1  1  0  0  0  0
  3  6  1  0  0  0  0
  3  4  1  0  0  0  0
  4  5  1  0  0  0  0
  5  7  1  0  0  0  0
  5 16  1  0  0  0  0
  6  7  2  0  0  0  0
  7  8  1  0  0  0  0
  8 13  1  0  0  0  0
  9  8  2  0  0  0  0
  9 10  1  0  0  0  0
 10 11  2  0  0  0  0
 11 12  1  0  0  0  0
 11 30  1  0  0  0  0
 12 15  1  0  0  0  0
 13 31  1  0  0  0  0
 13 12  2  0  0  0  0
 14 10  1  0  0  0  0
 14 32  1  0  0  0  0
 15 35  1  0  0  0  0
 15 36  1  0  0  0  0
 15 37  1  0  0  0  0
 16 38  1  0  0  0  0
 16 39  1  0  0  0  0
 17 22  1  0  0  0  0
 17  3  1  0  0  0  0
 18 17  2  0  0  0  0
 19 18  1  0  0  0  0
 20 19  2  0  0  0  0
 20 21  1  0  0  0  0
 21 22  2  0  0  0  0
 22 26  1  0  0  0  0
 23 18  1  0  0  0  0
 23 44  1  0  0  0  0
 24 46  1  0  0  0  0
 24 23  1  0  0  0  0
 24 45  1  0  0  0  0
 25 50  1  0  0  0  0
 25 48  1  0  0  0  0
 25 23  1  0  0  0  0
 26 28  1  0  0  0  0
 26 27  1  0  0  0  0
 26 51  1  0  0  0  0
 27 53  1  0  0  0  0
 28 55  1  0  0  0  0
 29  9  1  0  0  0  0
 33 14  1  0  0  0  0
 34 14  1  0  0  0  0
 40 16  1  0  0  0  0
 41 19  1  0  0  0  0
 42 20  1  0  0  0  0
 43 21  1  0  0  0  0
 47 24  1  0  0  0  0
 49 25  1  0  0  0  0
 52 27  1  0  0  0  0
 54 27  1  0  0  0  0
 56 28  1  0  0  0  0
 57 28  1  0  0  0  0
M  END
$$$$
