CSD_code = ASUTEN | q = 0 | S = 0 | Stoichiometry = C17H30Cl2FeN2O2 | MND = 4
 OpenBabel04212202003D

 54 55  0  0  1  0  0  0  0  0999 V2000
    5.7622   14.7230   17.0582 Fe  0  0  0  0  0  0  0  0  0  0  0  0
    6.4982   16.0157   18.4251 Cl  0  0  0  0  0  0  0  0  0  0  0  0
    4.8244   13.3063   15.9749 Cl  0  0  0  0  0  0  0  0  0  0  0  0
    9.9481   15.0525   15.2686 O   0  0  0  0  0  0  0  0  0  0  0  0
    6.4774   16.7135   12.8882 O   0  0  0  0  0  0  0  0  0  0  0  0
    8.0675   14.4111   16.2762 N   0  0  0  0  0  0  0  0  0  0  0  0
    5.8965   16.0867   14.9476 N   0  0  0  0  0  0  0  0  0  0  0  0
    9.0970   14.1951   17.2840 C   0  0  2  0  0  0  0  0  0  0  0  0
    8.8856   14.8580   18.1299 H   0  0  0  0  0  0  0  0  0  0  0  0
   10.3910   14.6332   16.5549 C   0  0  0  0  0  0  0  0  0  0  0  0
   10.8896   15.4719   17.0452 H   0  0  0  0  0  0  0  0  0  0  0  0
   11.1084   13.8204   16.4164 H   0  0  0  0  0  0  0  0  0  0  0  0
    8.6172   14.8646   15.2282 C   0  0  2  0  0  3  0  0  0  0  0  0
    7.9455   15.1119   13.9073 C   0  0  0  0  0  0  0  0  0  0  0  0
    6.7389   16.0070   14.0037 C   0  0  0  0  0  0  0  0  0  0  0  0
    5.2851   17.4487   13.1316 C   0  0  0  0  0  0  0  0  0  0  0  0
    4.5903   17.2756   12.3089 H   0  0  0  0  0  0  0  0  0  0  0  0
    5.5457   18.5105   13.1691 H   0  0  0  0  0  0  0  0  0  0  0  0
    4.7758   16.9048   14.4870 C   0  0  2  0  0  0  0  0  0  0  0  0
    3.9386   16.2125   14.3253 H   0  0  0  0  0  0  0  0  0  0  0  0
    9.0726   12.7400   17.8066 C   0  0  0  0  0  0  0  0  0  0  0  0
    7.7610   12.5245   18.5663 C   0  0  0  0  0  0  0  0  0  0  0  0
    6.9062   12.6842   17.9023 H   0  0  0  0  0  0  0  0  0  0  0  0
    7.6855   13.2140   19.4043 H   0  0  0  0  0  0  0  0  0  0  0  0
    7.7086   11.5079   18.9478 H   0  0  0  0  0  0  0  0  0  0  0  0
   10.2409   12.5287   18.7735 C   0  0  0  0  0  0  0  0  0  0  0  0
   10.2139   13.2687   19.5700 H   0  0  0  0  0  0  0  0  0  0  0  0
   11.2009   12.6038   18.2690 H   0  0  0  0  0  0  0  0  0  0  0  0
   10.1730   11.5407   19.2221 H   0  0  0  0  0  0  0  0  0  0  0  0
    9.1477   11.7455   16.6470 C   0  0  0  0  0  0  0  0  0  0  0  0
    9.1507   10.7278   17.0295 H   0  0  0  0  0  0  0  0  0  0  0  0
   10.0500   11.8863   16.0557 H   0  0  0  0  0  0  0  0  0  0  0  0
    8.2836   11.8690   15.9987 H   0  0  0  0  0  0  0  0  0  0  0  0
    8.9507   15.6925   12.9089 C   0  0  0  0  0  0  0  0  0  0  0  0
    8.4741   15.8328   11.9432 H   0  0  0  0  0  0  0  0  0  0  0  0
    9.7920   15.0145   12.7963 H   0  0  0  0  0  0  0  0  0  0  0  0
    9.3259   16.6514   13.2571 H   0  0  0  0  0  0  0  0  0  0  0  0
    7.4180   13.7527   13.4011 C   0  0  0  0  0  0  0  0  0  0  0  0
    6.6905   13.3541   14.1045 H   0  0  0  0  0  0  0  0  0  0  0  0
    8.2423   13.0508   13.3004 H   0  0  0  0  0  0  0  0  0  0  0  0
    6.9444   13.8805   12.4307 H   0  0  0  0  0  0  0  0  0  0  0  0
    4.3095   17.9683   15.5034 C   0  0  0  0  0  0  0  0  0  0  0  0
    5.5070   18.7200   16.0832 C   0  0  0  0  0  0  0  0  0  0  0  0
    6.1042   19.1784   15.2975 H   0  0  0  0  0  0  0  0  0  0  0  0
    6.1387   18.0354   16.6445 H   0  0  0  0  0  0  0  0  0  0  0  0
    5.1659   19.5047   16.7535 H   0  0  0  0  0  0  0  0  0  0  0  0
    3.3474   18.9459   14.8178 C   0  0  0  0  0  0  0  0  0  0  0  0
    2.8913   19.5895   15.5661 H   0  0  0  0  0  0  0  0  0  0  0  0
    2.5552   18.4075   14.3020 H   0  0  0  0  0  0  0  0  0  0  0  0
    3.8571   19.5802   14.0975 H   0  0  0  0  0  0  0  0  0  0  0  0
    3.5455   17.2597   16.6248 C   0  0  0  0  0  0  0  0  0  0  0  0
    4.1454   16.4447   17.0432 H   0  0  0  0  0  0  0  0  0  0  0  0
    2.6159   16.8388   16.2483 H   0  0  0  0  0  0  0  0  0  0  0  0
    3.3150   17.9572   17.4253 H   0  0  0  0  0  0  0  0  0  0  0  0
  1  2  1  0  0  0  0
  3  1  1  0  0  0  0
  4 10  1  0  0  0  0
  5 16  1  0  0  0  0
  5 15  1  0  0  0  0
  6  1  1  0  0  0  0
  6  8  1  0  0  0  0
  8 21  1  0  0  0  0
  8  9  1  1  0  0  0
 10 11  1  0  0  0  0
 10  8  1  0  0  0  0
 12 10  1  0  0  0  0
 13 14  1  6  0  0  0
 13  4  1  0  0  0  0
 13  6  1  0  0  0  0
 14 15  1  0  0  0  0
 15  7  2  0  0  0  0
 16 18  1  0  0  0  0
 16 19  1  0  0  0  0
 17 16  1  0  0  0  0
 19 20  1  6  0  0  0
 19  7  1  0  0  0  0
 19 42  1  0  0  0  0
 21 22  1  0  0  0  0
 21 26  1  0  0  0  0
 22 25  1  0  0  0  0
 22 24  1  0  0  0  0
 23 22  1  0  0  0  0
 26 29  1  0  0  0  0
 26 27  1  0  0  0  0
 28 26  1  0  0  0  0
 30 31  1  0  0  0  0
 30 21  1  0  0  0  0
 32 30  1  0  0  0  0
 33 30  1  0  0  0  0
 34 37  1  0  0  0  0
 34 14  1  0  0  0  0
 35 34  1  0  0  0  0
 36 34  1  0  0  0  0
 38 14  1  0  0  0  0
 38 39  1  0  0  0  0
 40 38  1  0  0  0  0
 41 38  1  0  0  0  0
 42 43  1  0  0  0  0
 42 51  1  0  0  0  0
 43 45  1  0  0  0  0
 43 46  1  0  0  0  0
 44 43  1  0  0  0  0
 47 42  1  0  0  0  0
 47 48  1  0  0  0  0
 49 47  1  0  0  0  0
 50 47  1  0  0  0  0
 51 52  1  0  0  0  0
 51 54  1  0  0  0  0
 53 51  1  0  0  0  0
M  END
$$$$
