CSD_code = ATAKOX | q = 0 | S = 0 | Stoichiometry = C22H16Br2N2Pt | MND = 6
 OpenBabel04212202003D

 43 48  0  0  1  0  0  0  0  0999 V2000
    8.6657    1.3175    3.7486 Pt  0  0  0  0  0  0  0  0  0  0  0  0
    9.6741    1.2347    5.4915 N   0  0  0  0  0  0  0  0  0  0  0  0
    7.6145    1.4643    2.0352 N   0  0  0  0  0  0  0  0  0  0  0  0
    8.0575   -1.2059    3.5686 Br  0  0  0  0  0  0  0  0  0  0  0  0
   11.0371    1.1241    2.6929 Br  0  0  0  0  0  0  0  0  0  0  0  0
    9.0021    3.3065    4.0042 C   0  0  0  0  0  0  0  0  0  0  0  0
    8.6271    4.3402    3.1672 C   0  0  0  0  0  0  0  0  0  0  0  0
    8.0701    4.1484    2.2592 H   0  0  0  0  0  0  0  0  0  0  0  0
    8.9725    5.6459    3.4824 C   0  0  0  0  0  0  0  0  0  0  0  0
    8.6810    6.4492    2.8221 H   0  0  0  0  0  0  0  0  0  0  0  0
    9.6906    5.9216    4.6355 C   0  0  0  0  0  0  0  0  0  0  0  0
    9.9571    6.9403    4.8732 H   0  0  0  0  0  0  0  0  0  0  0  0
   10.0741    4.8970    5.4765 C   0  0  0  0  0  0  0  0  0  0  0  0
   10.6401    5.1217    6.3674 H   0  0  0  0  0  0  0  0  0  0  0  0
    9.7346    3.5789    5.1682 C   0  0  0  0  0  0  0  0  0  0  0  0
   10.1202    2.4197    5.9617 C   0  0  2  0  0  3  0  0  0  0  0  0
   10.9167    2.4620    7.1051 C   0  0  0  0  0  0  0  0  0  0  0  0
   11.2766    3.4099    7.4695 H   0  0  0  0  0  0  0  0  0  0  0  0
   11.2536    1.2899    7.7529 C   0  0  0  0  0  0  0  0  0  0  0  0
   11.8756    1.3122    8.6344 H   0  0  0  0  0  0  0  0  0  0  0  0
   10.7876    0.0854    7.2452 C   0  0  0  0  0  0  0  0  0  0  0  0
   11.0319   -0.8550    7.7106 H   0  0  0  0  0  0  0  0  0  0  0  0
   10.0008    0.1041    6.1099 C   0  0  0  0  0  0  0  0  0  0  0  0
    9.6298   -0.8187    5.6804 H   0  0  0  0  0  0  0  0  0  0  0  0
    6.8244    1.6496    4.5447 C   0  0  0  0  0  0  0  0  0  0  0  0
    6.4841    1.7231    5.8820 C   0  0  0  0  0  0  0  0  0  0  0  0
    7.2347    1.6200    6.6549 H   0  0  0  0  0  0  0  0  0  0  0  0
    5.1619    1.9230    6.2497 C   0  0  0  0  0  0  0  0  0  0  0  0
    4.9014    1.9756    7.2964 H   0  0  0  0  0  0  0  0  0  0  0  0
    4.1777    2.0523    5.2824 C   0  0  0  0  0  0  0  0  0  0  0  0
    3.1504    2.2060    5.5764 H   0  0  0  0  0  0  0  0  0  0  0  0
    4.5051    1.9766    3.9440 C   0  0  0  0  0  0  0  0  0  0  0  0
    3.7300    2.0705    3.1990 H   0  0  0  0  0  0  0  0  0  0  0  0
    5.8320    1.7734    3.5621 C   0  0  0  0  0  0  0  0  0  0  0  0
    6.2835    1.6405    2.1834 C   0  0  2  0  0  3  0  0  0  0  0  0
    5.4514    1.6491    1.0648 C   0  0  0  0  0  0  0  0  0  0  0  0
    4.3896    1.7811    1.1912 H   0  0  0  0  0  0  0  0  0  0  0  0
    5.9893    1.4717   -0.1945 C   0  0  0  0  0  0  0  0  0  0  0  0
    5.3521    1.4691   -1.0655 H   0  0  0  0  0  0  0  0  0  0  0  0
    7.3590    1.2859   -0.3184 C   0  0  0  0  0  0  0  0  0  0  0  0
    7.8228    1.1336   -1.2788 H   0  0  0  0  0  0  0  0  0  0  0  0
    8.1349    1.2879    0.8246 C   0  0  0  0  0  0  0  0  0  0  0  0
    9.2057    1.1345    0.7650 H   0  0  0  0  0  0  0  0  0  0  0  0
  1  6  1  0  0  0  0
  1 25  1  0  0  0  0
  1  2  1  0  0  0  0
  2 16  1  0  0  0  0
  2 23  1  0  0  0  0
  3 35  1  0  0  0  0
  3  1  1  0  0  0  0
  4  1  1  0  0  0  0
  5  1  1  0  0  0  0
  6 15  1  0  0  0  0
  7  9  1  0  0  0  0
  7  6  2  0  0  0  0
  8  7  1  0  0  0  0
  9 11  2  0  0  0  0
 10  9  1  0  0  0  0
 11 12  1  0  0  0  0
 11 13  1  0  0  0  0
 13 14  1  0  0  0  0
 15 13  2  0  0  0  0
 16 15  1  6  0  0  0
 16 17  1  0  0  0  0
 17 18  1  0  0  0  0
 17 19  2  0  0  0  0
 19 20  1  0  0  0  0
 21 22  1  0  0  0  0
 21 19  1  0  0  0  0
 23 21  2  0  0  0  0
 24 23  1  0  0  0  0
 25 26  1  0  0  0  0
 26 28  2  0  0  0  0
 26 27  1  0  0  0  0
 28 29  1  0  0  0  0
 30 31  1  0  0  0  0
 30 28  1  0  0  0  0
 32 30  2  0  0  0  0
 33 32  1  0  0  0  0
 34 32  1  0  0  0  0
 34 25  2  0  0  0  0
 35 36  1  1  0  0  0
 35 34  1  0  0  0  0
 36 37  1  0  0  0  0
 38 36  2  0  0  0  0
 39 38  1  0  0  0  0
 40 38  1  0  0  0  0
 40 42  2  0  0  0  0
 41 40  1  0  0  0  0
 42  3  1  0  0  0  0
 43 42  1  0  0  0  0
M  END
$$$$
