CSD_code = ATASUL | q = 0 | S = 0 | Stoichiometry = C19H25BrNNiOP | MND = 4
 OpenBabel04212202003D

 49 52  0  0  0  0  0  0  0  0999 V2000
    6.5654   21.1133   10.0811 Ni  0  0  2  0  0  0  0  0  0  0  0  0
    4.4372   21.5067    9.7318 Br  0  0  0  0  0  0  0  0  0  0  0  0
    6.3171   19.8972   11.9122 P   0  0  0  0  0  4  0  0  0  0  0  0
    7.9117   19.5754   12.2772 O   0  0  0  0  0  0  0  0  0  0  0  0
    8.4186   20.7923   10.3983 N   0  0  0  0  0  0  0  0  0  0  0  0
    7.2094   22.0732    8.5367 C   0  0  0  0  0  0  0  0  0  0  0  0
    6.5287   22.7518    7.5297 C   0  0  0  0  0  0  0  0  0  0  0  0
    5.4498   22.8074    7.5315 H   0  0  0  0  0  0  0  0  0  0  0  0
    7.2121   23.3757    6.4947 C   0  0  0  0  0  0  0  0  0  0  0  0
    6.6498   23.8918    5.7299 H   0  0  0  0  0  0  0  0  0  0  0  0
    8.5946   23.3434    6.4337 C   0  0  0  0  0  0  0  0  0  0  0  0
    9.1181   23.8322    5.6250 H   0  0  0  0  0  0  0  0  0  0  0  0
    9.3017   22.6802    7.4153 C   0  0  0  0  0  0  0  0  0  0  0  0
   10.3811   22.6489    7.3761 H   0  0  0  0  0  0  0  0  0  0  0  0
    8.6270   22.0486    8.4578 C   0  0  0  0  0  0  0  0  0  0  0  0
    9.2944   21.3228    9.5241 C   0  0  0  0  0  0  0  0  0  0  0  0
   10.6616   21.1368    9.7068 C   0  0  0  0  0  0  0  0  0  0  0  0
   11.3656   21.5609    9.0106 H   0  0  0  0  0  0  0  0  0  0  0  0
   11.1018   20.4011   10.7932 C   0  0  0  0  0  0  0  0  0  0  0  0
   12.1580   20.2454   10.9528 H   0  0  0  0  0  0  0  0  0  0  0  0
   10.1867   19.8603   11.6806 C   0  0  0  0  0  0  0  0  0  0  0  0
   10.4856   19.2803   12.5376 H   0  0  0  0  0  0  0  0  0  0  0  0
    8.8353   20.0851   11.4397 C   0  0  0  0  0  0  0  0  0  0  0  0
    5.7260   18.1282   11.6673 C   0  0  0  0  0  0  0  0  0  0  0  0
    6.2854   17.7905   10.2781 C   0  0  0  0  0  0  0  0  0  0  0  0
    7.3756   17.7453   10.2939 H   0  0  0  0  0  0  0  0  0  0  0  0
    5.9761   18.5447    9.5439 H   0  0  0  0  0  0  0  0  0  0  0  0
    5.9144   16.8251    9.9375 H   0  0  0  0  0  0  0  0  0  0  0  0
    4.2014   18.0988   11.6136 C   0  0  0  0  0  0  0  0  0  0  0  0
    3.8667   17.1558   11.1835 H   0  0  0  0  0  0  0  0  0  0  0  0
    3.8150   18.9096   10.9974 H   0  0  0  0  0  0  0  0  0  0  0  0
    3.7715   18.1815   12.6082 H   0  0  0  0  0  0  0  0  0  0  0  0
    6.2610   17.1365   12.6940 C   0  0  0  0  0  0  0  0  0  0  0  0
    6.0676   16.1215   12.3482 H   0  0  0  0  0  0  0  0  0  0  0  0
    5.7743   17.2602   13.6571 H   0  0  0  0  0  0  0  0  0  0  0  0
    7.3346   17.2499   12.8300 H   0  0  0  0  0  0  0  0  0  0  0  0
    5.8212   20.6734   13.5493 C   0  0  0  0  0  0  0  0  0  0  0  0
    4.3179   20.9370   13.5566 C   0  0  0  0  0  0  0  0  0  0  0  0
    4.0681   21.6097   14.3758 H   0  0  0  0  0  0  0  0  0  0  0  0
    3.7536   20.0194   13.6948 H   0  0  0  0  0  0  0  0  0  0  0  0
    3.9964   21.4006   12.6253 H   0  0  0  0  0  0  0  0  0  0  0  0
    6.2476   19.8711   14.7729 C   0  0  0  0  0  0  0  0  0  0  0  0
    7.2777   19.5326   14.6818 H   0  0  0  0  0  0  0  0  0  0  0  0
    5.6057   19.0064   14.9186 H   0  0  0  0  0  0  0  0  0  0  0  0
    6.1713   20.4970   15.6614 H   0  0  0  0  0  0  0  0  0  0  0  0
    6.5606   22.0175   13.5134 C   0  0  0  0  0  0  0  0  0  0  0  0
    6.3305   22.5549   12.5872 H   0  0  0  0  0  0  0  0  0  0  0  0
    7.6401   21.8761   13.5763 H   0  0  0  0  0  0  0  0  0  0  0  0
    6.2534   22.6461   14.3476 H   0  0  0  0  0  0  0  0  0  0  0  0
  1  2  1  1  0  0  0
  1  5  1  0  0  0  0
  1  3  1  0  0  0  0
  3  4  1  0  0  0  0
  3 37  1  0  0  0  0
  5 23  1  0  0  0  0
  6  1  2  0  0  0  0
  7  8  1  0  0  0  0
  7  6  1  0  0  0  0
  9  7  2  0  0  0  0
 10  9  1  0  0  0  0
 11  9  1  0  0  0  0
 11 13  2  0  0  0  0
 12 11  1  0  0  0  0
 13 15  1  0  0  0  0
 14 13  1  0  0  0  0
 15  6  1  0  0  0  0
 15 16  2  0  0  0  0
 16 17  1  0  0  0  0
 16  5  1  0  0  0  0
 17 19  2  0  0  0  0
 18 17  1  0  0  0  0
 19 20  1  0  0  0  0
 19 21  1  0  0  0  0
 21 22  1  0  0  0  0
 23 21  2  0  0  0  0
 23  4  1  0  0  0  0
 24  3  1  0  0  0  0
 24 33  1  0  0  0  0
 25 26  1  0  0  0  0
 25 24  1  0  0  0  0
 27 25  1  0  0  0  0
 28 25  1  0  0  0  0
 29 24  1  0  0  0  0
 29 32  1  0  0  0  0
 30 29  1  0  0  0  0
 31 29  1  0  0  0  0
 33 36  1  0  0  0  0
 33 35  1  0  0  0  0
 34 33  1  0  0  0  0
 37 38  1  0  0  0  0
 37 42  1  0  0  0  0
 38 40  1  0  0  0  0
 38 39  1  0  0  0  0
 41 38  1  0  0  0  0
 42 44  1  0  0  0  0
 42 45  1  0  0  0  0
 43 42  1  0  0  0  0
 46 37  1  0  0  0  0
 46 48  1  0  0  0  0
 46 49  1  0  0  0  0
 47 46  1  0  0  0  0
M  END
$$$$
