CSD_code = ATEGEM | q = 0 | S = 0 | Stoichiometry = C28H29ClNPPd | MND = 4
 OpenBabel04212202003D

 61 65  0  0  0  0  0  0  0  0999 V2000
    2.9947    1.6599    1.1196 Pd  0  0  1  0  0  0  0  0  0  0  0  0
    1.1721    0.7474    2.3059 Cl  0  0  0  0  0  0  0  0  0  0  0  0
    2.0674    0.9613   -0.6704 N   0  0  0  0  0  4  0  0  0  0  0  0
    2.7105    0.3904   -1.2212 H   0  0  0  0  0  0  0  0  0  0  0  0
    1.2896    0.3766   -0.3540 H   0  0  0  0  0  0  0  0  0  0  0  0
    3.9359    2.4829    2.9374 P   0  0  0  0  0  4  0  0  0  0  0  0
    4.4357    2.2458   -0.1223 C   0  0  0  0  0  0  0  0  0  0  0  0
    3.9659    2.9475   -1.2365 C   0  0  0  0  0  0  0  0  0  0  0  0
    4.8261    3.2624   -2.2768 C   0  0  0  0  0  0  0  0  0  0  0  0
    4.4596    3.8125   -3.1339 H   0  0  0  0  0  0  0  0  0  0  0  0
    6.1569    2.8799   -2.2174 C   0  0  0  0  0  0  0  0  0  0  0  0
    6.8263    3.1322   -3.0273 H   0  0  0  0  0  0  0  0  0  0  0  0
    6.6246    2.1740   -1.1240 C   0  0  0  0  0  0  0  0  0  0  0  0
    7.6613    1.8705   -1.0788 H   0  0  0  0  0  0  0  0  0  0  0  0
    5.7653    1.8546   -0.0816 C   0  0  0  0  0  0  0  0  0  0  0  0
    6.1487    1.3042    0.7732 H   0  0  0  0  0  0  0  0  0  0  0  0
    2.5050    3.3294   -1.2559 C   0  0  0  0  0  0  0  0  0  0  0  0
    2.3064    4.0598   -2.0422 H   0  0  0  0  0  0  0  0  0  0  0  0
    2.2561    3.7858   -0.2805 H   0  0  0  0  0  0  0  0  0  0  0  0
    1.5718    2.1029   -1.4627 C   0  0  0  0  0  0  0  0  0  0  0  0
    0.1773    2.4453   -0.9349 C   0  0  0  0  0  0  0  0  0  0  0  0
   -0.5430    1.6806   -1.2213 H   0  0  0  0  0  0  0  0  0  0  0  0
   -0.1621    3.4017   -1.3246 H   0  0  0  0  0  0  0  0  0  0  0  0
    0.2091    2.4968    0.1572 H   0  0  0  0  0  0  0  0  0  0  0  0
    1.5274    1.7264   -2.9464 C   0  0  0  0  0  0  0  0  0  0  0  0
    2.5361    1.5681   -3.3255 H   0  0  0  0  0  0  0  0  0  0  0  0
    1.0636    2.5196   -3.5272 H   0  0  0  0  0  0  0  0  0  0  0  0
    0.9495    0.8152   -3.0945 H   0  0  0  0  0  0  0  0  0  0  0  0
    5.6221    3.1668    2.9318 C   0  0  0  0  0  0  0  0  0  0  0  0
    5.8415    4.2680    2.1086 C   0  0  0  0  0  0  0  0  0  0  0  0
    5.0115    4.6690    1.5392 H   0  0  0  0  0  0  0  0  0  0  0  0
    7.1009    4.8246    2.0132 C   0  0  0  0  0  0  0  0  0  0  0  0
    7.2686    5.6769    1.3715 H   0  0  0  0  0  0  0  0  0  0  0  0
    8.1524    4.2802    2.7355 C   0  0  0  0  0  0  0  0  0  0  0  0
    9.1399    4.7108    2.6580 H   0  0  0  0  0  0  0  0  0  0  0  0
    7.9397    3.1820    3.5509 C   0  0  0  0  0  0  0  0  0  0  0  0
    8.7607    2.7567    4.1099 H   0  0  0  0  0  0  0  0  0  0  0  0
    6.6774    2.6208    3.6498 C   0  0  0  0  0  0  0  0  0  0  0  0
    6.5121    1.7583    4.2813 H   0  0  0  0  0  0  0  0  0  0  0  0
    4.0105    1.1280    4.1440 C   0  0  0  0  0  0  0  0  0  0  0  0
    4.1883   -0.1357    3.5812 C   0  0  0  0  0  0  0  0  0  0  0  0
    4.2566   -0.2262    2.4903 H   0  0  0  0  0  0  0  0  0  0  0  0
    4.2428   -1.2526    4.3920 C   0  0  0  0  0  0  0  0  0  0  0  0
    4.3736   -2.2335    3.9587 H   0  0  0  0  0  0  0  0  0  0  0  0
    4.1090   -1.1130    5.7655 C   0  0  0  0  0  0  0  0  0  0  0  0
    4.1389   -1.9864    6.4004 H   0  0  0  0  0  0  0  0  0  0  0  0
    3.9186    0.1396    6.3244 C   0  0  0  0  0  0  0  0  0  0  0  0
    3.7987    0.2410    7.3933 H   0  0  0  0  0  0  0  0  0  0  0  0
    3.8689    1.2645    5.5180 C   0  0  0  0  0  0  0  0  0  0  0  0
    3.7019    2.2401    5.9520 H   0  0  0  0  0  0  0  0  0  0  0  0
    2.9956    3.8454    3.6789 C   0  0  0  0  0  0  0  0  0  0  0  0
    3.4937    4.6247    4.7188 C   0  0  0  0  0  0  0  0  0  0  0  0
    4.4845    4.4336    5.1093 H   0  0  0  0  0  0  0  0  0  0  0  0
    2.7235    5.6509    5.2348 C   0  0  0  0  0  0  0  0  0  0  0  0
    3.1049    6.2538    6.0462 H   0  0  0  0  0  0  0  0  0  0  0  0
    1.4660    5.9096    4.7117 C   0  0  0  0  0  0  0  0  0  0  0  0
    0.8691    6.7114    5.1210 H   0  0  0  0  0  0  0  0  0  0  0  0
    0.9768    5.1487    3.6621 C   0  0  0  0  0  0  0  0  0  0  0  0
    0.0001    5.3582    3.2515 H   0  0  0  0  0  0  0  0  0  0  0  0
    1.7417    4.1202    3.1431 C   0  0  0  0  0  0  0  0  0  0  0  0
    1.3737    3.5009    2.3254 H   0  0  0  0  0  0  0  0  0  0  0  0
  1  2  1  1  0  0  0
  1  6  1  0  0  0  0
  3  5  1  0  0  0  0
  3  1  1  0  0  0  0
  4  3  1  0  0  0  0
  6 51  1  0  0  0  0
  6 40  1  0  0  0  0
  7 15  1  0  0  0  0
  7  1  1  0  0  0  0
  8  7  2  0  0  0  0
  9 11  2  0  0  0  0
  9  8  1  0  0  0  0
 10  9  1  0  0  0  0
 11 13  1  0  0  0  0
 12 11  1  0  0  0  0
 13 14  1  0  0  0  0
 13 15  2  0  0  0  0
 15 16  1  0  0  0  0
 17  8  1  0  0  0  0
 17 19  1  0  0  0  0
 18 17  1  0  0  0  0
 20 17  1  0  0  0  0
 20 21  1  0  0  0  0
 20  3  1  0  0  0  0
 21 24  1  0  0  0  0
 22 21  1  0  0  0  0
 23 21  1  0  0  0  0
 25 20  1  0  0  0  0
 26 25  1  0  0  0  0
 27 25  1  0  0  0  0
 28 25  1  0  0  0  0
 29  6  1  0  0  0  0
 29 38  1  0  0  0  0
 30 29  2  0  0  0  0
 31 30  1  0  0  0  0
 32 30  1  0  0  0  0
 32 34  2  0  0  0  0
 33 32  1  0  0  0  0
 34 36  1  0  0  0  0
 35 34  1  0  0  0  0
 36 38  2  0  0  0  0
 36 37  1  0  0  0  0
 38 39  1  0  0  0  0
 40 49  1  0  0  0  0
 41 40  2  0  0  0  0
 41 43  1  0  0  0  0
 42 41  1  0  0  0  0
 43 45  2  0  0  0  0
 44 43  1  0  0  0  0
 45 47  1  0  0  0  0
 45 46  1  0  0  0  0
 47 48  1  0  0  0  0
 49 50  1  0  0  0  0
 49 47  2  0  0  0  0
 51 52  1  0  0  0  0
 52 53  1  0  0  0  0
 52 54  2  0  0  0  0
 54 55  1  0  0  0  0
 56 57  1  0  0  0  0
 56 54  1  0  0  0  0
 58 56  2  0  0  0  0
 59 58  1  0  0  0  0
 60 58  1  0  0  0  0
 60 51  2  0  0  0  0
 61 60  1  0  0  0  0
M  END
$$$$
