CSD_code = ATEPUL | q = 0 | S = 0 | Stoichiometry = C24H32Cl2N6Pt | MND = 5
 OpenBabel04212202003D

 65 66  0  0  0  0  0  0  0  0999 V2000
   -2.4571   12.5140    4.1382 Pt  0  0  0  0  0  0  0  0  0  0  0  0
   -1.8349   13.1787    1.9894 Cl  0  0  0  0  0 15  0  0  0  0  0  0
   -3.0470   11.6469    6.2298 Cl  0  0  0  0  0 15  0  0  0  0  0  0
   -1.4202   10.7895    3.8652 N   0  0  0  0  0  0  0  0  0  0  0  0
   -1.2920    8.5242    4.5424 N   0  0  0  0  0  0  0  0  0  0  0  0
   -3.2205    9.2746    3.7657 N   0  0  0  0  0  0  0  0  0  0  0  0
    1.5584    7.4426    2.7805 N   0  0  0  0  0  0  0  0  0  0  0  0
    3.1753    6.7211    1.1468 N   0  0  0  0  0  0  0  0  0  0  0  0
    3.5785    6.4850    3.3348 N   0  0  0  0  0  0  0  0  0  0  0  0
   -0.0477   10.9799    3.6657 C   0  0  0  0  0  0  0  0  0  0  0  0
    0.5882   12.0345    4.3191 C   0  0  0  0  0  0  0  0  0  0  0  0
    0.0061   12.6527    5.0011 H   0  0  0  0  0  0  0  0  0  0  0  0
    1.9309   12.2823    4.1159 C   0  0  0  0  0  0  0  0  0  0  0  0
    2.4098   13.1042    4.6268 H   0  0  0  0  0  0  0  0  0  0  0  0
    2.6579   11.4747    3.2567 C   0  0  0  0  0  0  0  0  0  0  0  0
    3.7086   11.6636    3.0936 H   0  0  0  0  0  0  0  0  0  0  0  0
    2.0303   10.4391    2.5894 C   0  0  0  0  0  0  0  0  0  0  0  0
    2.5897    9.8321    1.8937 H   0  0  0  0  0  0  0  0  0  0  0  0
    0.6780   10.1772    2.7676 C   0  0  0  0  0  0  0  0  0  0  0  0
    0.0039    9.1181    1.9932 C   0  0  0  0  0  0  0  0  0  0  0  0
   -1.1248    9.4302    1.2443 C   0  0  0  0  0  0  0  0  0  0  0  0
   -1.4622   10.4563    1.2160 H   0  0  0  0  0  0  0  0  0  0  0  0
   -1.8006    8.4589    0.5279 C   0  0  0  0  0  0  0  0  0  0  0  0
   -2.6698    8.7233   -0.0568 H   0  0  0  0  0  0  0  0  0  0  0  0
   -1.3512    7.1483    0.5570 C   0  0  0  0  0  0  0  0  0  0  0  0
   -1.8797    6.3785    0.0121 H   0  0  0  0  0  0  0  0  0  0  0  0
   -0.2141    6.8244    1.2688 C   0  0  0  0  0  0  0  0  0  0  0  0
    0.1549    5.8078    1.2835 H   0  0  0  0  0  0  0  0  0  0  0  0
    0.4935    7.8000    1.9793 C   0  0  0  0  0  0  0  0  0  0  0  0
   -1.9384    9.5990    4.0416 C   0  0  0  0  0  3  0  0  0  0  0  0
   -2.1350    7.3494    4.5420 C   0  0  0  0  0  0  0  0  0  0  0  0
   -2.2639    6.9758    5.5639 H   0  0  0  0  0  0  0  0  0  0  0  0
   -1.6782    6.5607    3.9344 H   0  0  0  0  0  0  0  0  0  0  0  0
   -3.4522    7.8578    3.9451 C   0  0  0  0  0  0  0  0  0  0  0  0
   -3.6674    7.3902    2.9765 H   0  0  0  0  0  0  0  0  0  0  0  0
   -4.3070    7.6957    4.6095 H   0  0  0  0  0  0  0  0  0  0  0  0
   -0.0797    8.5595    5.3164 C   0  0  0  0  0  0  0  0  0  0  0  0
    0.7848    8.3197    4.6903 H   0  0  0  0  0  0  0  0  0  0  0  0
   -0.1600    7.8303    6.1238 H   0  0  0  0  0  0  0  0  0  0  0  0
    0.0526    9.5485    5.7526 H   0  0  0  0  0  0  0  0  0  0  0  0
   -4.1518   10.0404    2.9868 C   0  0  0  0  0  0  0  0  0  0  0  0
   -3.8179   11.0873    2.9437 H   0  0  0  0  0  0  0  0  0  0  0  0
   -5.1346   10.0027    3.4593 H   0  0  0  0  0  0  0  0  0  0  0  0
   -4.2230    9.6468    1.9678 H   0  0  0  0  0  0  0  0  0  0  0  0
    2.6603    6.9233    2.4128 C   0  0  0  0  0  0  0  0  0  0  0  0
    4.5461    6.2567    1.2420 C   0  0  0  0  0  0  0  0  0  0  0  0
    5.2483    7.0835    1.0598 H   0  0  0  0  0  0  0  0  0  0  0  0
    4.7351    5.4733    0.5034 H   0  0  0  0  0  0  0  0  0  0  0  0
    4.6412    5.7554    2.6814 C   0  0  0  0  0  0  0  0  0  0  0  0
    4.4675    4.6701    2.7414 H   0  0  0  0  0  0  0  0  0  0  0  0
    5.6046    5.9778    3.1471 H   0  0  0  0  0  0  0  0  0  0  0  0
    2.8503    7.5222   -0.0044 C   0  0  0  0  0  0  0  0  0  0  0  0
    1.8199    7.8615    0.0548 H   0  0  0  0  0  0  0  0  0  0  0  0
    2.9707    6.9136   -0.9026 H   0  0  0  0  0  0  0  0  0  0  0  0
    3.5098    8.3961   -0.0856 H   0  0  0  0  0  0  0  0  0  0  0  0
    3.2027    6.1177    4.6709 C   0  0  0  0  0  0  0  0  0  0  0  0
    2.3444    6.7178    4.9590 H   0  0  0  0  0  0  0  0  0  0  0  0
    4.0332    6.3205    5.3483 H   0  0  0  0  0  0  0  0  0  0  0  0
    2.9399    5.0547    4.7411 H   0  0  0  0  0  0  0  0  0  0  0  0
   -2.8568   14.5141    4.7699 C   0  0  0  0  0  0  0  0  0  0  0  0
   -2.7804   14.5658    5.8528 H   0  0  0  0  0  0  0  0  0  0  0  0
   -2.2130   15.1902    4.2125 H   0  0  0  0  0  0  0  0  0  0  0  0
   -3.9946   13.9975    4.1790 C   0  0  0  0  0  3  0  0  0  0  0  0
   -4.2528   14.2739    3.1604 H   0  0  0  0  0  0  0  0  0  0  0  0
   -4.8117   13.6371    4.7986 H   0  0  0  0  0  0  0  0  0  0  0  0
  1 60  1  0  0  0  0
  4 30  1  0  0  0  0
  4  1  1  0  0  0  0
  5 37  1  0  0  0  0
  6 34  1  0  0  0  0
  6 30  1  0  0  0  0
  8 46  1  0  0  0  0
  8 45  1  0  0  0  0
  9 56  1  0  0  0  0
 10  4  1  0  0  0  0
 10 11  1  0  0  0  0
 11 12  1  0  0  0  0
 13 11  2  0  0  0  0
 13 14  1  0  0  0  0
 15 13  1  0  0  0  0
 16 15  1  0  0  0  0
 17 19  1  0  0  0  0
 17 15  2  0  0  0  0
 18 17  1  0  0  0  0
 19 10  2  0  0  0  0
 20 19  1  0  0  0  0
 21 20  2  0  0  0  0
 22 21  1  0  0  0  0
 23 25  2  0  0  0  0
 23 21  1  0  0  0  0
 24 23  1  0  0  0  0
 25 27  1  0  0  0  0
 26 25  1  0  0  0  0
 27 28  1  0  0  0  0
 27 29  2  0  0  0  0
 29 20  1  0  0  0  0
 29  7  1  0  0  0  0
 30  5  1  0  0  0  0
 31  5  1  0  0  0  0
 31 32  1  0  0  0  0
 33 31  1  0  0  0  0
 34 31  1  0  0  0  0
 34 36  1  0  0  0  0
 35 34  1  0  0  0  0
 37 40  1  0  0  0  0
 37 39  1  0  0  0  0
 38 37  1  0  0  0  0
 41 43  1  0  0  0  0
 41  6  1  0  0  0  0
 42 41  1  0  0  0  0
 44 41  1  0  0  0  0
 45  7  2  0  0  0  0
 45  9  1  0  0  0  0
 46 49  1  0  0  0  0
 47 46  1  0  0  0  0
 48 46  1  0  0  0  0
 49 50  1  0  0  0  0
 49 51  1  0  0  0  0
 49  9  1  0  0  0  0
 52 53  1  0  0  0  0
 52  8  1  0  0  0  0
 54 52  1  0  0  0  0
 55 52  1  0  0  0  0
 56 59  1  0  0  0  0
 56 57  1  0  0  0  0
 56 58  1  0  0  0  0
 60 61  1  0  0  0  0
 62 60  1  0  0  0  0
 63 60  1  0  0  0  0
 63 65  1  0  0  0  0
 64 63  1  0  0  0  0
M  END
$$$$
