CSD_code = ATHLPT | q = 0 | S = 0 | Stoichiometry = C14H11ClN2OPt | MND = 4
 OpenBabel04212202003D

 30 33  0  0  1  0  0  0  0  0999 V2000
   -2.2756   -0.0830    5.7644 Pt  0  0  1  0  0  0  0  0  0  0  0  0
   -2.8045    0.0063    7.9457 Cl  0  0  0  0  0  0  0  0  0  0  0  0
   -4.1408    0.0877    5.3907 N   0  0  0  0  0  0  0  0  0  0  0  0
   -4.7954   -0.0776    4.2530 C   0  0  0  0  0  0  0  0  0  0  0  0
   -6.2178   -0.0207    4.2245 C   0  0  0  0  0  0  0  0  0  0  0  0
   -6.9207   -0.2448    3.0809 C   0  0  0  0  0  0  0  0  0  0  0  0
   -6.2511   -0.5416    1.8780 C   0  0  0  0  0  0  0  0  0  0  0  0
   -4.8906   -0.5907    1.8587 C   0  0  0  0  0  3  0  0  0  0  0  0
   -4.1106   -0.3440    3.0196 C   0  0  0  0  0  0  0  0  0  0  0  0
   -2.7184   -0.3522    2.8749 C   0  0  0  0  0  0  0  0  0  0  0  0
   -1.7875   -0.1271    3.7857 N   0  0  0  0  0  0  0  0  0  0  0  0
   -0.4895    0.0577    3.3551 C   0  0  1  0  0  3  0  0  0  0  0  0
   -0.2347    0.5801    2.0711 C   0  0  0  0  0  0  0  0  0  0  0  0
    1.0381    0.6818    1.5659 C   0  0  0  0  0  0  0  0  0  0  0  0
    2.1330    0.2594    2.3198 C   0  0  0  0  0  0  0  0  0  0  0  0
    1.9276   -0.1824    3.6000 C   0  0  0  0  0  0  0  0  0  0  0  0
    0.6388   -0.2544    4.1645 C   0  0  0  0  0  0  0  0  0  0  0  0
    0.5603   -0.5583    5.5591 C   0  0  0  0  0  0  0  0  0  0  0  0
   -0.4158   -0.4134    6.3091 O   0  0  0  0  0  0  0  0  0  0  0  0
   -4.7421    0.2258    6.2066 H   0  0  0  0  0  0  0  0  0  0  0  0
   -6.7284    0.1951    5.1523 H   0  0  0  0  0  0  0  0  0  0  0  0
   -7.9994   -0.2015    3.0895 H   0  0  0  0  0  0  0  0  0  0  0  0
   -6.8205   -0.7245    0.9802 H   0  0  0  0  0  0  0  0  0  0  0  0
   -4.3711   -0.8099    0.9367 H   0  0  0  0  0  0  0  0  0  0  0  0
   -2.3745   -0.5819    1.8670 H   0  0  0  0  0  0  0  0  0  0  0  0
   -1.0607    0.9504    1.4829 H   0  0  0  0  0  0  0  0  0  0  0  0
    1.1897    1.0963    0.5805 H   0  0  0  0  0  0  0  0  0  0  0  0
    3.1297    0.3164    1.9103 H   0  0  0  0  0  0  0  0  0  0  0  0
    2.7676   -0.4598    4.2193 H   0  0  0  0  0  0  0  0  0  0  0  0
    1.4981   -0.8892    6.0261 H   0  0  0  0  0  0  0  0  0  0  0  0
  1 19  1  0  0  0  0
  1  2  1  1  0  0  0
  3  1  1  0  0  0  0
  3 20  1  0  0  0  0
  4  3  1  0  0  0  0
  5  4  2  0  0  0  0
  5 21  1  0  0  0  0
  6 22  1  0  0  0  0
  6  5  1  0  0  0  0
  7  6  2  0  0  0  0
  8  7  1  0  0  0  0
  8  9  1  0  0  0  0
  9  4  1  0  0  0  0
 10  9  2  0  0  0  0
 10 11  1  0  0  0  0
 11  1  1  0  0  0  0
 12 13  1  1  0  0  0
 12 11  1  0  0  0  0
 12 17  1  0  0  0  0
 14 13  2  0  0  0  0
 14 15  1  0  0  0  0
 15 16  2  0  0  0  0
 16 17  1  0  0  0  0
 16 29  1  0  0  0  0
 17 18  2  0  0  0  0
 18 30  1  0  0  0  0
 18 19  1  0  0  0  0
 23  7  1  0  0  0  0
 24  8  1  0  0  0  0
 25 10  1  0  0  0  0
 26 13  1  0  0  0  0
 27 14  1  0  0  0  0
 28 15  1  0  0  0  0
M  END
$$$$
