CSD_code = ATICUB | q = 0 | S = 0 | Stoichiometry = C36H50ClOY | MND = 12
 OpenBabel04212202003D

 89 92  0  0  1  0  0  0  0  0999 V2000
    0.4973    2.8021    4.4710 Y   0  0  0  0  0  0  0  0  0  0  0  0
   -1.3701    1.7093    5.5938 Cl  0  0  0  0  0  0  0  0  0  0  0  0
   -1.1391    3.9267    3.0194 O   0  0  0  0  0  0  0  0  0  0  0  0
    1.7967    4.1617    5.8292 C   0  0  2  0  0  0  0  0  0  0  0  0
    0.9424    3.8023    6.9632 C   0  0  0  0  0  0  0  0  0  0  0  0
   -0.1850    4.6015    7.0010 C   0  0  0  0  0  0  0  0  0  0  0  0
   -0.1041    5.5515    5.9264 C   0  0  0  0  0  0  0  0  0  0  0  0
    1.1395    5.3451    5.2413 C   0  0  0  0  0  0  0  0  0  0  0  0
    1.5561    6.2349    4.2362 C   0  0  0  0  0  0  0  0  0  0  0  0
    0.7627    7.3469    3.9677 C   0  0  0  0  0  0  0  0  0  0  0  0
   -0.4984    7.5020    4.5830 C   0  0  0  0  0  0  0  0  0  0  0  0
   -0.9731    6.5698    5.4984 C   0  0  0  0  0  0  0  0  0  0  0  0
    0.1870   -0.4036    3.5389 C   0  0  0  0  0  0  0  0  0  0  0  0
    1.3331    0.1554    4.0516 C   0  0  0  0  0  0  0  0  0  0  0  0
    1.7539    1.3238    3.2556 C   0  0  1  0  0  0  0  0  0  0  0  0
    0.7887    1.3432    2.1311 C   0  0  0  0  0  0  0  0  0  0  0  0
   -0.1964    0.3376    2.3651 C   0  0  0  0  0  0  0  0  0  0  0  0
   -1.3027    0.2459    1.5077 C   0  0  0  0  0  0  0  0  0  0  0  0
   -1.2981    0.9880    0.3285 C   0  0  0  0  0  0  0  0  0  0  0  0
   -0.2539    1.8869    0.0336 C   0  0  0  0  0  0  0  0  0  0  0  0
    0.7457    2.1337    0.9725 C   0  0  0  0  0  0  0  0  0  0  0  0
    3.3147    4.0774    5.9954 C   0  0  0  0  0  0  0  0  0  0  0  0
    1.2645    2.7252    7.9637 C   0  0  0  0  0  0  0  0  0  0  0  0
   -1.2443    4.4862    8.0529 C   0  0  0  0  0  0  0  0  0  0  0  0
    2.8230    5.9721    3.4615 C   0  0  0  0  0  0  0  0  0  0  0  0
    1.2136    8.4026    2.9938 C   0  0  0  0  0  0  0  0  0  0  0  0
   -1.3303    8.7010    4.2127 C   0  0  0  0  0  0  0  0  0  0  0  0
   -2.3907    6.6220    5.9997 C   0  0  0  0  0  0  0  0  0  0  0  0
   -0.4899   -1.6043    4.1209 C   0  0  0  0  0  0  0  0  0  0  0  0
    2.0847   -0.3561    5.2510 C   0  0  0  0  0  0  0  0  0  0  0  0
    3.2558    1.4636    2.9930 C   0  0  0  0  0  0  0  0  0  0  0  0
   -2.4778   -0.6229    1.8565 C   0  0  0  0  0  0  0  0  0  0  0  0
   -2.4606    0.8209   -0.6159 C   0  0  0  0  0  0  0  0  0  0  0  0
   -0.2261    2.5798   -1.3060 C   0  0  0  0  0  0  0  0  0  0  0  0
    1.7553    3.2420    0.8079 C   0  0  0  0  0  0  0  0  0  0  0  0
   -2.4770    3.3720    3.0236 C   0  0  0  0  0  0  0  0  0  0  0  0
   -3.2685    4.1232    1.9579 C   0  0  0  0  0  0  0  0  0  0  0  0
   -2.5353    5.4596    1.9043 C   0  0  0  0  0  0  0  0  0  0  0  0
   -1.0944    4.9985    2.0653 C   0  0  0  0  0  0  0  0  0  0  0  0
    3.7245    5.0844    6.0859 H   0  0  0  0  0  0  0  0  0  0  0  0
    3.5556    3.5444    6.9138 H   0  0  0  0  0  0  0  0  0  0  0  0
    3.8354    3.5744    5.1782 H   0  0  0  0  0  0  0  0  0  0  0  0
    0.3922    2.0925    8.1304 H   0  0  0  0  0  0  0  0  0  0  0  0
    2.0818    2.0903    7.6198 H   0  0  0  0  0  0  0  0  0  0  0  0
    1.5504    3.1669    8.9206 H   0  0  0  0  0  0  0  0  0  0  0  0
   -2.0549    3.8349    7.7198 H   0  0  0  0  0  0  0  0  0  0  0  0
   -1.6524    5.4601    8.3087 H   0  0  0  0  0  0  0  0  0  0  0  0
   -0.8213    4.0488    8.9550 H   0  0  0  0  0  0  0  0  0  0  0  0
    3.1448    4.9426    3.5921 H   0  0  0  0  0  0  0  0  0  0  0  0
    2.6709    6.1415    2.3958 H   0  0  0  0  0  0  0  0  0  0  0  0
    3.6300    6.6247    3.7960 H   0  0  0  0  0  0  0  0  0  0  0  0
    1.3213    9.3597    3.5043 H   0  0  0  0  0  0  0  0  0  0  0  0
    2.1714    8.1643    2.5462 H   0  0  0  0  0  0  0  0  0  0  0  0
    0.4836    8.5338    2.1946 H   0  0  0  0  0  0  0  0  0  0  0  0
   -2.1402    8.8578    4.9168 H   0  0  0  0  0  0  0  0  0  0  0  0
   -0.7188    9.6006    4.2134 H   0  0  0  0  0  0  0  0  0  0  0  0
   -1.7560    8.5917    3.2130 H   0  0  0  0  0  0  0  0  0  0  0  0
   -2.7130    5.6303    6.2998 H   0  0  0  0  0  0  0  0  0  0  0  0
   -2.4891    7.2924    6.8544 H   0  0  0  0  0  0  0  0  0  0  0  0
   -3.0660    6.9688    5.2194 H   0  0  0  0  0  0  0  0  0  0  0  0
    0.2208   -2.1841    4.7061 H   0  0  0  0  0  0  0  0  0  0  0  0
   -1.3037   -1.3041    4.7834 H   0  0  0  0  0  0  0  0  0  0  0  0
   -0.8882   -2.2451    3.3390 H   0  0  0  0  0  0  0  0  0  0  0  0
    1.3928   -0.6017    6.0569 H   0  0  0  0  0  0  0  0  0  0  0  0
    2.6412   -1.2602    4.9955 H   0  0  0  0  0  0  0  0  0  0  0  0
    2.7928    0.3857    5.6247 H   0  0  0  0  0  0  0  0  0  0  0  0
    3.5596    2.4606    2.6789 H   0  0  0  0  0  0  0  0  0  0  0  0
    3.8257    1.2048    3.8847 H   0  0  0  0  0  0  0  0  0  0  0  0
    3.5464    0.7645    2.2043 H   0  0  0  0  0  0  0  0  0  0  0  0
   -2.5587   -0.7279    2.9327 H   0  0  0  0  0  0  0  0  0  0  0  0
   -3.4070   -0.1908    1.4922 H   0  0  0  0  0  0  0  0  0  0  0  0
   -2.3758   -1.6146    1.4137 H   0  0  0  0  0  0  0  0  0  0  0  0
   -3.3759    1.2099   -0.1657 H   0  0  0  0  0  0  0  0  0  0  0  0
   -2.3127    1.3410   -1.5547 H   0  0  0  0  0  0  0  0  0  0  0  0
   -2.6220   -0.2337   -0.8344 H   0  0  0  0  0  0  0  0  0  0  0  0
    0.7421    3.0292   -1.5005 H   0  0  0  0  0  0  0  0  0  0  0  0
   -0.4046    1.8613   -2.1037 H   0  0  0  0  0  0  0  0  0  0  0  0
   -0.9879    3.3591   -1.3731 H   0  0  0  0  0  0  0  0  0  0  0  0
    1.4104    4.0128    0.1237 H   0  0  0  0  0  0  0  0  0  0  0  0
    2.7046    2.8576    0.4344 H   0  0  0  0  0  0  0  0  0  0  0  0
    1.9283    3.7197    1.7764 H   0  0  0  0  0  0  0  0  0  0  0  0
   -2.4107    2.2976    2.8257 H   0  0  0  0  0  0  0  0  0  0  0  0
   -2.8986    3.5267    4.0231 H   0  0  0  0  0  0  0  0  0  0  0  0
   -3.1884    3.6135    0.9973 H   0  0  0  0  0  0  0  0  0  0  0  0
   -4.3183    4.2193    2.2230 H   0  0  0  0  0  0  0  0  0  0  0  0
   -2.6972    6.0035    0.9768 H   0  0  0  0  0  0  0  0  0  0  0  0
   -2.8231    6.0873    2.7477 H   0  0  0  0  0  0  0  0  0  0  0  0
   -0.4265    5.7706    2.4539 H   0  0  0  0  0  0  0  0  0  0  0  0
   -0.7098    4.6115    1.1132 H   0  0  0  0  0  0  0  0  0  0  0  0
  1  2  1  0  0  0  0
  3 36  1  0  0  0  0
  4  1  1  6  0  0  0
  4 22  1  0  0  0  0
  4  5  1  0  0  0  0
  5  6  2  0  0  0  0
  5 23  1  0  0  0  0
  6 24  1  0  0  0  0
  7  6  1  0  0  0  0
  8  4  1  0  0  0  0
  8  7  2  0  0  0  0
  9  8  1  0  0  0  0
 10  9  2  0  0  0  0
 10 11  1  0  0  0  0
 11 12  2  0  0  0  0
 12  7  1  0  0  0  0
 12 28  1  0  0  0  0
 13 14  2  0  0  0  0
 13 29  1  0  0  0  0
 14 30  1  0  0  0  0
 15 31  1  6  0  0  0
 15 14  1  0  0  0  0
 15  1  1  0  0  0  0
 16 17  1  0  0  0  0
 16 15  1  0  0  0  0
 17 13  1  0  0  0  0
 18 32  1  0  0  0  0
 18 17  2  0  0  0  0
 19 18  1  0  0  0  0
 20 19  2  0  0  0  0
 20 21  1  0  0  0  0
 21 16  2  0  0  0  0
 22 40  1  0  0  0  0
 22 41  1  0  0  0  0
 23 43  1  0  0  0  0
 23 45  1  0  0  0  0
 24 47  1  0  0  0  0
 24 48  1  0  0  0  0
 25 49  1  0  0  0  0
 25 51  1  0  0  0  0
 25  9  1  0  0  0  0
 26 52  1  0  0  0  0
 26 10  1  0  0  0  0
 27 56  1  0  0  0  0
 27 11  1  0  0  0  0
 27 55  1  0  0  0  0
 28 58  1  0  0  0  0
 28 59  1  0  0  0  0
 29 61  1  0  0  0  0
 29 62  1  0  0  0  0
 30 66  1  0  0  0  0
 30 64  1  0  0  0  0
 31 68  1  0  0  0  0
 32 70  1  0  0  0  0
 33 73  1  0  0  0  0
 33 19  1  0  0  0  0
 34 20  1  0  0  0  0
 35 21  1  0  0  0  0
 35 81  1  0  0  0  0
 36 83  1  0  0  0  0
 37 85  1  0  0  0  0
 37 36  1  0  0  0  0
 38 37  1  0  0  0  0
 38 39  1  0  0  0  0
 38 87  1  0  0  0  0
 39 88  1  0  0  0  0
 39  3  1  0  0  0  0
 42 22  1  0  0  0  0
 44 23  1  0  0  0  0
 46 24  1  0  0  0  0
 50 25  1  0  0  0  0
 53 26  1  0  0  0  0
 54 26  1  0  0  0  0
 57 27  1  0  0  0  0
 60 28  1  0  0  0  0
 63 29  1  0  0  0  0
 65 30  1  0  0  0  0
 67 31  1  0  0  0  0
 69 31  1  0  0  0  0
 71 32  1  0  0  0  0
 72 32  1  0  0  0  0
 74 33  1  0  0  0  0
 75 33  1  0  0  0  0
 76 34  1  0  0  0  0
 77 34  1  0  0  0  0
 78 34  1  0  0  0  0
 79 35  1  0  0  0  0
 80 35  1  0  0  0  0
 82 36  1  0  0  0  0
 84 37  1  0  0  0  0
 86 38  1  0  0  0  0
 89 39  1  0  0  0  0
M  END
$$$$
