CSD_code = ATITEE | q = 0 | S = 0 | Stoichiometry = C37H51ClZr | MND = 12
 OpenBabel04212202003D

 90 94  0  0  1  0  0  0  0  0999 V2000
    9.0975    9.9746    0.7987 C   0  0  1  0  0  3  0  0  0  0  0  0
    9.5671    9.9611    2.1386 C   0  0  1  0  0  0  0  0  0  0  0  0
    8.7171    9.1485    2.9312 C   0  0  1  0  0  3  0  0  0  0  0  0
    6.7718    7.5462    2.2563 C   0  0  0  0  0  0  0  0  0  0  0  0
    5.9159    7.2407    1.2103 C   0  0  0  0  0  0  0  0  0  0  0  0
    6.1780    7.7029   -0.1016 C   0  0  0  0  0  0  0  0  0  0  0  0
    7.2733    8.5100   -0.3701 C   0  0  0  0  0  0  0  0  0  0  0  0
    7.9706    9.0879    0.7233 C   0  0  0  0  0  0  0  0  0  0  0  0
    7.7325    8.5703    2.0653 C   0  0  0  0  0  0  0  0  0  0  0  0
   10.8651   10.5249    2.6539 C   0  0  0  0  0  0  0  0  0  0  0  0
    9.0097    8.8542    4.3789 C   0  0  0  0  0  0  0  0  0  0  0  0
    6.7379    6.7226    3.5164 C   0  0  0  0  0  0  0  0  0  0  0  0
    4.7621    6.3009    1.4325 C   0  0  0  0  0  0  0  0  0  0  0  0
    5.3071    7.1985   -1.2209 C   0  0  0  0  0  0  0  0  0  0  0  0
    7.8195    8.5767   -1.7770 C   0  0  0  0  0  0  0  0  0  0  0  0
    9.6600   10.8547   -0.2877 C   0  0  0  0  0  0  0  0  0  0  0  0
    8.5704   11.7942   -0.8538 C   0  0  0  0  0  0  0  0  0  0  0  0
    7.7498   12.4695    0.2276 C   0  0  1  0  0  0  0  0  0  0  0  0
    8.3366   13.3984    1.1557 C   0  0  0  0  0  0  0  0  0  0  0  0
    7.3356   14.0902    1.8476 C   0  0  0  0  0  0  0  0  0  0  0  0
    4.7674   14.1716    1.5477 C   0  0  0  0  0  0  0  0  0  0  0  0
    3.6981   13.5246    0.9512 C   0  0  0  0  0  0  0  0  0  0  0  0
    3.9175   12.4932    0.0043 C   0  0  0  0  0  0  0  0  0  0  0  0
    5.1988   12.1316   -0.3848 C   0  0  0  0  0  0  0  0  0  0  0  0
    6.3125   12.6513    0.3270 C   0  0  0  0  0  0  0  0  0  0  0  0
    6.0718   13.6695    1.3342 C   0  0  0  0  0  0  0  0  0  0  0  0
    9.7984   13.7449    1.2675 C   0  0  0  0  0  0  0  0  0  0  0  0
    7.6300   15.0862    2.9344 C   0  0  0  0  0  0  0  0  0  0  0  0
    4.5739   15.4403    2.3365 C   0  0  0  0  0  0  0  0  0  0  0  0
    2.2799   13.9158    1.2774 C   0  0  0  0  0  0  0  0  0  0  0  0
    2.7314   11.8109   -0.6301 C   0  0  0  0  0  0  0  0  0  0  0  0
    5.3965   11.1991   -1.5481 C   0  0  0  0  0  0  0  0  0  0  0  0
    5.3116   10.5841    2.6218 C   0  0  0  0  0  0  0  0  0  0  0  0
    4.7682   10.8306    4.0407 C   0  0  0  0  0  0  0  0  0  0  0  0
    4.7656   12.3341    4.3419 C   0  0  0  0  0  0  0  0  0  0  0  0
    3.3257   10.3073    4.1498 C   0  0  0  0  0  0  0  0  0  0  0  0
    5.6309   10.1081    5.0820 C   0  0  0  0  0  0  0  0  0  0  0  0
    7.3926   11.1867    2.1665 Zr  0  0  1  0  0  0  0  0  0  0  0  0
    8.3104   12.1362    4.1306 Cl  0  0  0  0  0  0  0  0  0  0  0  0
   11.4663    9.7125    3.0670 H   0  0  0  0  0  0  0  0  0  0  0  0
   10.7051   11.2507    3.4540 H   0  0  0  0  0  0  0  0  0  0  0  0
   11.4481   10.9928    1.8629 H   0  0  0  0  0  0  0  0  0  0  0  0
    8.1109    8.6050    4.9359 H   0  0  0  0  0  0  0  0  0  0  0  0
    9.4658    9.7236    4.8533 H   0  0  0  0  0  0  0  0  0  0  0  0
    9.7149    8.0223    4.4685 H   0  0  0  0  0  0  0  0  0  0  0  0
    7.7147    6.7153    3.9856 H   0  0  0  0  0  0  0  0  0  0  0  0
    6.0081    7.0938    4.2371 H   0  0  0  0  0  0  0  0  0  0  0  0
    6.4786    5.6928    3.2804 H   0  0  0  0  0  0  0  0  0  0  0  0
    3.8917    6.6241    0.8668 H   0  0  0  0  0  0  0  0  0  0  0  0
    4.4798    6.2675    2.4805 H   0  0  0  0  0  0  0  0  0  0  0  0
    5.0104    5.2886    1.1098 H   0  0  0  0  0  0  0  0  0  0  0  0
    5.5827    7.6318   -2.1758 H   0  0  0  0  0  0  0  0  0  0  0  0
    4.2661    7.4592   -1.0311 H   0  0  0  0  0  0  0  0  0  0  0  0
    5.3669    6.1135   -1.3043 H   0  0  0  0  0  0  0  0  0  0  0  0
    8.8480    8.9150   -1.7682 H   0  0  0  0  0  0  0  0  0  0  0  0
    7.2473    9.2212   -2.4435 H   0  0  0  0  0  0  0  0  0  0  0  0
    7.8157    7.5749   -2.2050 H   0  0  0  0  0  0  0  0  0  0  0  0
   10.4786   11.4456    0.1267 H   0  0  0  0  0  0  0  0  0  0  0  0
   10.0921   10.2736   -1.1101 H   0  0  0  0  0  0  0  0  0  0  0  0
    9.0527   12.5579   -1.4794 H   0  0  0  0  0  0  0  0  0  0  0  0
    7.9264   11.2060   -1.5003 H   0  0  0  0  0  0  0  0  0  0  0  0
    9.8999   14.8028    1.5069 H   0  0  0  0  0  0  0  0  0  0  0  0
   10.3145   13.5751    0.3239 H   0  0  0  0  0  0  0  0  0  0  0  0
   10.2982   13.1803    2.0579 H   0  0  0  0  0  0  0  0  0  0  0  0
    6.8593   15.0762    3.7007 H   0  0  0  0  0  0  0  0  0  0  0  0
    7.7137   16.1011    2.5365 H   0  0  0  0  0  0  0  0  0  0  0  0
    8.5739   14.8403    3.4187 H   0  0  0  0  0  0  0  0  0  0  0  0
    5.4584   16.0603    2.2540 H   0  0  0  0  0  0  0  0  0  0  0  0
    3.7414   16.0164    1.9403 H   0  0  0  0  0  0  0  0  0  0  0  0
    4.3847   15.2436    3.3919 H   0  0  0  0  0  0  0  0  0  0  0  0
    1.7397   13.0629    1.6900 H   0  0  0  0  0  0  0  0  0  0  0  0
    1.7509   14.2533    0.3866 H   0  0  0  0  0  0  0  0  0  0  0  0
    2.2383   14.7041    2.0198 H   0  0  0  0  0  0  0  0  0  0  0  0
    2.9269   10.7495   -0.7658 H   0  0  0  0  0  0  0  0  0  0  0  0
    2.5007   12.2491   -1.6020 H   0  0  0  0  0  0  0  0  0  0  0  0
    1.8457   11.8996   -0.0115 H   0  0  0  0  0  0  0  0  0  0  0  0
    6.1590   11.5936   -2.2161 H   0  0  0  0  0  0  0  0  0  0  0  0
    4.4899   11.0952   -2.1340 H   0  0  0  0  0  0  0  0  0  0  0  0
    5.6918   10.2132   -1.1889 H   0  0  0  0  0  0  0  0  0  0  0  0
    4.6275   11.1167    1.9391 H   0  0  0  0  0  0  0  0  0  0  0  0
    5.1687    9.5098    2.4037 H   0  0  0  0  0  0  0  0  0  0  0  0
    4.4533   12.5184    5.3691 H   0  0  0  0  0  0  0  0  0  0  0  0
    5.7652   12.7547    4.2005 H   0  0  0  0  0  0  0  0  0  0  0  0
    4.0737   12.8439    3.6754 H   0  0  0  0  0  0  0  0  0  0  0  0
    2.9161   10.4961    5.1408 H   0  0  0  0  0  0  0  0  0  0  0  0
    2.6883   10.7984    3.4171 H   0  0  0  0  0  0  0  0  0  0  0  0
    3.2933    9.2350    3.9648 H   0  0  0  0  0  0  0  0  0  0  0  0
    5.2293   10.2623    6.0831 H   0  0  0  0  0  0  0  0  0  0  0  0
    6.6537   10.4874    5.0602 H   0  0  0  0  0  0  0  0  0  0  0  0
    5.6403    9.0380    4.8844 H   0  0  0  0  0  0  0  0  0  0  0  0
  1  8  1  1  0  0  0
  1  2  1  0  0  0  0
  2 38  1  0  0  0  0
  2 10  1  1  0  0  0
  2  3  1  0  0  0  0
  3 11  1  6  0  0  0
  4 12  1  0  0  0  0
  5 13  1  0  0  0  0
  5  4  2  0  0  0  0
  6  5  1  0  0  0  0
  7  6  2  0  0  0  0
  7  8  1  0  0  0  0
  8  9  2  0  0  0  0
  9  4  1  0  0  0  0
  9  3  1  0  0  0  0
 10 40  1  0  0  0  0
 10 41  1  0  0  0  0
 11 45  1  0  0  0  0
 11 44  1  0  0  0  0
 11 43  1  0  0  0  0
 12 46  1  0  0  0  0
 12 47  1  0  0  0  0
 13 50  1  0  0  0  0
 14 53  1  0  0  0  0
 14  6  1  0  0  0  0
 15 55  1  0  0  0  0
 15  7  1  0  0  0  0
 16 58  1  0  0  0  0
 16  1  1  0  0  0  0
 17 16  1  0  0  0  0
 17 18  1  0  0  0  0
 18 25  1  6  0  0  0
 18 19  1  0  0  0  0
 18 38  1  0  0  0  0
 19 27  1  0  0  0  0
 19 20  2  0  0  0  0
 20 28  1  0  0  0  0
 21 29  1  0  0  0  0
 22 30  1  0  0  0  0
 22 21  2  0  0  0  0
 23 22  1  0  0  0  0
 24 23  2  0  0  0  0
 24 25  1  0  0  0  0
 25 26  2  0  0  0  0
 26 21  1  0  0  0  0
 26 20  1  0  0  0  0
 27 62  1  0  0  0  0
 27 64  1  0  0  0  0
 28 67  1  0  0  0  0
 28 65  1  0  0  0  0
 29 70  1  0  0  0  0
 30 71  1  0  0  0  0
 30 73  1  0  0  0  0
 31 76  1  0  0  0  0
 31 23  1  0  0  0  0
 32 79  1  0  0  0  0
 32 24  1  0  0  0  0
 33 34  1  0  0  0  0
 34 36  1  0  0  0  0
 34 35  1  0  0  0  0
 34 37  1  0  0  0  0
 35 82  1  0  0  0  0
 36 85  1  0  0  0  0
 37 88  1  0  0  0  0
 38 33  1  0  0  0  0
 38 39  1  1  0  0  0
 42 10  1  0  0  0  0
 48 12  1  0  0  0  0
 49 13  1  0  0  0  0
 51 13  1  0  0  0  0
 52 14  1  0  0  0  0
 54 14  1  0  0  0  0
 56 15  1  0  0  0  0
 57 15  1  0  0  0  0
 59 16  1  0  0  0  0
 60 17  1  0  0  0  0
 61 17  1  0  0  0  0
 63 27  1  0  0  0  0
 66 28  1  0  0  0  0
 68 29  1  0  0  0  0
 69 29  1  0  0  0  0
 72 30  1  0  0  0  0
 74 31  1  0  0  0  0
 75 31  1  0  0  0  0
 77 32  1  0  0  0  0
 78 32  1  0  0  0  0
 80 33  1  0  0  0  0
 81 33  1  0  0  0  0
 83 35  1  0  0  0  0
 84 35  1  0  0  0  0
 86 36  1  0  0  0  0
 87 36  1  0  0  0  0
 89 37  1  0  0  0  0
 90 37  1  0  0  0  0
M  END
$$$$
