CSD_code = ATOGUL | q = 0 | S = 0 | Stoichiometry = C7H12HgI2N2S2 | MND = 4
 OpenBabel04212202003D

 26 25  0  0  0  0  0  0  0  0999 V2000
    5.8144    4.9806   11.5628 Hg  0  0  0  0  0  0  0  0  0  0  0  0
    5.1420    6.1516   13.7929 I   0  0  0  0  0  0  0  0  0  0  0  0
    7.4841    3.6902    9.9621 I   0  0  0  0  0  0  0  0  0  0  0  0
    3.3378    4.0429   10.3624 S   0  0  0  0  0  0  0  0  0  0  0  0
    4.8222    6.9630    9.3493 S   0  0  0  0  0  0  0  0  0  0  0  0
    2.5147    4.4943    7.9255 N   0  0  0  0  0  0  0  0  0  0  0  0
    2.6959    4.9963    6.5807 C   0  0  0  0  0  0  0  0  0  0  0  0
    2.9912    6.0497    6.6343 H   0  0  0  0  0  0  0  0  0  0  0  0
    1.7442    4.9429    6.0519 H   0  0  0  0  0  0  0  0  0  0  0  0
    5.3378    5.2102    7.4212 N   0  0  0  0  0  0  0  0  0  0  0  0
    4.6039    5.5689    8.4675 C   0  0  0  0  0  0  0  0  0  0  0  0
    3.4598    4.7024    8.8409 C   0  0  0  0  0  0  0  0  0  0  0  0
    5.0092    3.9948    6.7073 C   0  0  0  0  0  0  0  0  0  0  0  0
    4.8290    3.1946    7.4321 H   0  0  0  0  0  0  0  0  0  0  0  0
    5.8679    3.7062    6.1017 H   0  0  0  0  0  0  0  0  0  0  0  0
    3.7677    4.1954    5.8258 C   0  0  0  0  0  0  0  0  0  0  0  0
    3.3812    3.2172    5.5394 H   0  0  0  0  0  0  0  0  0  0  0  0
    4.0264    4.7390    4.9167 H   0  0  0  0  0  0  0  0  0  0  0  0
    1.3735    3.6772    8.2548 C   0  0  0  0  0  0  0  0  0  0  0  0
    1.6910    2.6606    8.5002 H   0  0  0  0  0  0  0  0  0  0  0  0
    0.6833    3.6533    7.4167 H   0  0  0  0  0  0  0  0  0  0  0  0
    0.8691    4.0851    9.1332 H   0  0  0  0  0  0  0  0  0  0  0  0
    6.4548    5.9860    6.9500 C   0  0  0  0  0  0  0  0  0  0  0  0
    6.2982    6.2670    5.9076 H   0  0  0  0  0  0  0  0  0  0  0  0
    7.3714    5.3997    7.0341 H   0  0  0  0  0  0  0  0  0  0  0  0
    6.5483    6.8856    7.5554 H   0  0  0  0  0  0  0  0  0  0  0  0
  1  2  1  0  0  0  0
  3  1  1  0  0  0  0
  6 19  1  0  0  0  0
  6 12  1  0  0  0  0
  7  8  1  0  0  0  0
  7  6  1  0  0  0  0
  9  7  1  0  0  0  0
 10 11  1  0  0  0  0
 11 12  1  0  0  0  0
 11  5  2  0  0  0  0
 12  4  2  0  0  0  0
 13 10  1  0  0  0  0
 13 14  1  0  0  0  0
 15 13  1  0  0  0  0
 16  7  1  0  0  0  0
 16 13  1  0  0  0  0
 17 16  1  0  0  0  0
 18 16  1  0  0  0  0
 19 20  1  0  0  0  0
 19 22  1  0  0  0  0
 21 19  1  0  0  0  0
 23 25  1  0  0  0  0
 23 10  1  0  0  0  0
 23 26  1  0  0  0  0
 24 23  1  0  0  0  0
M  END
$$$$
