CSD_code = ATOLAY | q = 0 | S = 0 | Stoichiometry = C23H23Cl2N3Pd | MND = 4
 OpenBabel04212202003D

 52 56  0  0  1  0  0  0  0  0999 V2000
   13.9196    5.7906    3.3406 Pd  0  0  0  0  0  0  0  0  0  0  0  0
   14.9009    5.0537    1.4810 Cl  0  0  0  0  0  0  0  0  0  0  0  0
   11.9524    5.1870    2.4501 Cl  0  0  0  0  0  0  0  0  0  0  0  0
   15.6476    6.5050    4.0912 N   0  0  0  0  0  0  0  0  0  0  0  0
   13.3036    6.1345    5.2694 N   0  0  0  0  0  0  0  0  0  0  0  0
   12.2320    5.5115    5.7531 N   0  0  1  0  0  0  0  0  0  0  0  0
   16.7750    6.7857    3.4465 C   0  0  0  0  0  0  0  0  0  0  0  0
   16.7637    6.6267    2.3746 H   0  0  0  0  0  0  0  0  0  0  0  0
   17.9088    7.2361    4.0974 C   0  0  0  0  0  0  0  0  0  0  0  0
   18.8010    7.4559    3.5345 H   0  0  0  0  0  0  0  0  0  0  0  0
   17.8767    7.3910    5.4812 C   0  0  0  0  0  0  0  0  0  0  0  0
   18.7509    7.7316    6.0150 H   0  0  0  0  0  0  0  0  0  0  0  0
   16.7128    7.0993    6.1564 C   0  0  0  0  0  0  0  0  0  0  0  0
   16.6418    7.2005    7.2278 H   0  0  0  0  0  0  0  0  0  0  0  0
   15.5936    6.6631    5.4331 C   0  0  0  0  0  0  0  0  0  0  0  0
   14.3528    6.3140    6.0367 C   0  0  0  0  0  0  0  0  0  0  0  0
   14.3126    6.1557    7.1078 H   0  0  0  0  0  0  0  0  0  0  0  0
   12.4061    4.3854    6.6698 C   0  0  1  0  0  0  0  0  0  0  0  0
   12.5121    4.7357    7.7092 H   0  0  0  0  0  0  0  0  0  0  0  0
   11.2115    3.4252    6.6112 C   0  0  0  0  0  0  0  0  0  0  0  0
   11.2846    2.8149    5.7102 H   0  0  0  0  0  0  0  0  0  0  0  0
   11.2728    2.7599    7.4742 H   0  0  0  0  0  0  0  0  0  0  0  0
    9.8867    4.1726    6.5831 C   0  0  0  0  0  0  0  0  0  0  0  0
    9.0628    3.4582    6.5802 H   0  0  0  0  0  0  0  0  0  0  0  0
    9.7831    4.8082    7.4658 H   0  0  0  0  0  0  0  0  0  0  0  0
    9.8528    5.0205    5.3209 C   0  0  0  0  0  0  0  0  0  0  0  0
    8.8913    5.5217    5.2142 H   0  0  0  0  0  0  0  0  0  0  0  0
   10.0128    4.3933    4.4427 H   0  0  0  0  0  0  0  0  0  0  0  0
   10.9577    6.0787    5.3653 C   0  0  1  0  0  0  0  0  0  0  0  0
   11.1027    6.4612    4.3428 H   0  0  0  0  0  0  0  0  0  0  0  0
   13.6712    3.6614    6.2408 C   0  0  0  0  0  0  0  0  0  0  0  0
   14.7167    3.4343    7.1227 C   0  0  0  0  0  0  0  0  0  0  0  0
   14.6064    3.6954    8.1668 H   0  0  0  0  0  0  0  0  0  0  0  0
   15.9080    2.8865    6.6746 C   0  0  0  0  0  0  0  0  0  0  0  0
   16.7141    2.7174    7.3731 H   0  0  0  0  0  0  0  0  0  0  0  0
   16.0718    2.5796    5.3354 C   0  0  0  0  0  0  0  0  0  0  0  0
   17.0113    2.1816    4.9832 H   0  0  0  0  0  0  0  0  0  0  0  0
   15.0216    2.7695    4.4487 C   0  0  0  0  0  0  0  0  0  0  0  0
   15.1282    2.4980    3.4073 H   0  0  0  0  0  0  0  0  0  0  0  0
   13.8184    3.2933    4.8994 C   0  0  0  0  0  0  0  0  0  0  0  0
   12.9769    3.3737    4.2122 H   0  0  0  0  0  0  0  0  0  0  0  0
   10.5571    7.2478    6.2434 C   0  0  0  0  0  0  0  0  0  0  0  0
   11.0750    7.4651    7.5116 C   0  0  0  0  0  0  0  0  0  0  0  0
   11.8191    6.7999    7.9220 H   0  0  0  0  0  0  0  0  0  0  0  0
   10.6516    8.5424    8.2730 C   0  0  0  0  0  0  0  0  0  0  0  0
   11.0663    8.6955    9.2589 H   0  0  0  0  0  0  0  0  0  0  0  0
    9.7030    9.4168    7.7768 C   0  0  0  0  0  0  0  0  0  0  0  0
    9.3727   10.2550    8.3719 H   0  0  0  0  0  0  0  0  0  0  0  0
    9.1843    9.2130    6.5084 C   0  0  0  0  0  0  0  0  0  0  0  0
    8.4486    9.8951    6.1089 H   0  0  0  0  0  0  0  0  0  0  0  0
    9.6111    8.1408    5.7489 C   0  0  0  0  0  0  0  0  0  0  0  0
    9.2133    7.9905    4.7560 H   0  0  0  0  0  0  0  0  0  0  0  0
  1  4  1  0  0  0  0
  1  5  1  0  0  0  0
  2  1  1  0  0  0  0
  3  1  1  0  0  0  0
  4 15  1  0  0  0  0
  5 16  1  0  0  0  0
  6  5  1  1  0  0  0
  6 18  1  0  0  0  0
  7  4  1  0  0  0  0
  7  9  2  0  0  0  0
  8  7  1  0  0  0  0
  9 11  1  0  0  0  0
 10  9  1  0  0  0  0
 11 12  1  0  0  0  0
 11 13  2  0  0  0  0
 13 14  1  0  0  0  0
 15 16  2  0  0  0  0
 15 13  1  0  0  0  0
 16 17  1  0  0  0  0
 18 19  1  1  0  0  0
 20 18  1  0  0  0  0
 20 22  1  0  0  0  0
 21 20  1  0  0  0  0
 23 20  1  0  0  0  0
 23 25  1  0  0  0  0
 24 23  1  0  0  0  0
 26 29  1  0  0  0  0
 26 23  1  0  0  0  0
 27 26  1  0  0  0  0
 28 26  1  0  0  0  0
 29 30  1  6  0  0  0
 29  6  1  0  0  0  0
 29 42  1  0  0  0  0
 31 18  1  0  0  0  0
 31 32  1  0  0  0  0
 32 33  1  0  0  0  0
 34 32  2  0  0  0  0
 34 35  1  0  0  0  0
 36 34  1  0  0  0  0
 37 36  1  0  0  0  0
 38 40  1  0  0  0  0
 38 36  2  0  0  0  0
 39 38  1  0  0  0  0
 40 31  2  0  0  0  0
 41 40  1  0  0  0  0
 42 43  1  0  0  0  0
 43 44  1  0  0  0  0
 43 45  2  0  0  0  0
 45 46  1  0  0  0  0
 47 45  1  0  0  0  0
 47 48  1  0  0  0  0
 49 47  2  0  0  0  0
 50 49  1  0  0  0  0
 51 42  2  0  0  0  0
 51 49  1  0  0  0  0
 52 51  1  0  0  0  0
M  END
$$$$
