CSD_code = ATUDEA | q = 0 | S = 0 | Stoichiometry = C31H34ClN2ORh | MND = 6
 OpenBabel04212202003D

 70 73  0  0  1  0  0  0  0  0999 V2000
    0.8739    4.3027    3.7836 Rh  0  0  0  0  0  0  0  0  0  0  0  0
    2.4399    5.1822    5.2047 Cl  0  0  0  0  0 15  0  0  0  0  0  0
    2.9449    2.2159   -0.2272 O   0  0  0  0  0  0  0  0  0  0  0  0
   -0.6599    5.3977    4.8335 C   0  0  0  0  0  3  0  0  0  0  0  0
   -0.2462    5.6787    5.8023 H   0  0  0  0  0  0  0  0  0  0  0  0
    4.0651    2.0056    2.4446 C   0  0  0  0  0  0  0  0  0  0  0  0
   -0.2850    6.1356    3.7311 C   0  0  0  0  0  3  0  0  0  0  0  0
    0.4366    6.9391    3.8811 H   0  0  0  0  0  0  0  0  0  0  0  0
   -0.8133    3.2191    3.0700 C   0  0  0  0  0  3  0  0  0  0  0  0
   -0.6231    2.1481    3.1217 H   0  0  0  0  0  0  0  0  0  0  0  0
   -0.2155    3.9113    2.0150 C   0  0  1  0  0  0  0  0  0  0  0  0
    0.3702    3.3269    1.3059 H   0  0  0  0  0  0  0  0  0  0  0  0
   -0.7402    5.1968    1.4191 C   0  0  0  0  0  0  0  0  0  0  0  0
   -1.6060    4.9755    0.7837 H   0  0  0  0  0  0  0  0  0  0  0  0
    0.0401    5.6048    0.7712 H   0  0  0  0  0  0  0  0  0  0  0  0
   -1.1193    6.2524    2.4753 C   0  0  0  0  0  0  0  0  0  0  0  0
   -0.9761    7.2456    2.0445 H   0  0  0  0  0  0  0  0  0  0  0  0
   -2.1745    6.1653    2.7397 H   0  0  0  0  0  0  0  0  0  0  0  0
   -2.1217    3.6418    3.7073 C   0  0  0  0  0  0  0  0  0  0  0  0
   -2.6674    2.7505    4.0256 H   0  0  0  0  0  0  0  0  0  0  0  0
   -2.7366    4.1416    2.9571 H   0  0  0  0  0  0  0  0  0  0  0  0
   -1.9126    4.5573    4.9280 C   0  0  0  0  0  0  0  0  0  0  0  0
   -2.7794    5.2150    5.0583 H   0  0  0  0  0  0  0  0  0  0  0  0
   -1.8392    3.9409    5.8281 H   0  0  0  0  0  0  0  0  0  0  0  0
    2.2592    2.9436    3.3816 C   0  0  2  0  0  3  0  0  0  0  0  0
    2.6227    1.8878    4.1376 N   0  0  0  0  0  0  0  0  0  0  0  0
    3.7319    1.2746    3.5989 C   0  0  0  0  0  0  0  0  0  0  0  0
    3.1338    3.0163    2.3477 N   0  0  0  0  0  0  0  0  0  0  0  0
    3.0477    3.9812    1.3220 C   0  0  0  0  0  0  0  0  0  0  0  0
    3.0026    5.3296    1.6425 C   0  0  0  0  0  0  0  0  0  0  0  0
    3.0937    5.6277    2.6787 H   0  0  0  0  0  0  0  0  0  0  0  0
    2.8738    6.2776    0.6399 C   0  0  0  0  0  0  0  0  0  0  0  0
    2.8405    7.3257    0.8921 H   0  0  0  0  0  0  0  0  0  0  0  0
    2.7943    5.8725   -0.6789 C   0  0  0  0  0  0  0  0  0  0  0  0
    2.6961    6.6035   -1.4677 H   0  0  0  0  0  0  0  0  0  0  0  0
    2.8324    4.5269   -1.0098 C   0  0  0  0  0  0  0  0  0  0  0  0
    2.7552    4.2374   -2.0458 H   0  0  0  0  0  0  0  0  0  0  0  0
    2.9485    3.5637   -0.0161 C   0  0  0  0  0  0  0  0  0  0  0  0
    2.8722    1.7409   -1.5484 C   0  0  0  0  0  0  0  0  0  0  0  0
    1.9348    2.0355   -2.0312 H   0  0  0  0  0  0  0  0  0  0  0  0
    2.9120    0.6557   -1.4704 H   0  0  0  0  0  0  0  0  0  0  0  0
    3.7173    2.0911   -2.1496 H   0  0  0  0  0  0  0  0  0  0  0  0
    5.1714    1.6818    1.6773 C   0  0  0  0  0  0  0  0  0  0  0  0
    5.4426    2.2639    0.8113 H   0  0  0  0  0  0  0  0  0  0  0  0
    5.9160    0.5868    2.0736 C   0  0  0  0  0  0  0  0  0  0  0  0
    6.7844    0.3012    1.4994 H   0  0  0  0  0  0  0  0  0  0  0  0
    5.5752   -0.1532    3.2029 C   0  0  0  0  0  0  0  0  0  0  0  0
    6.1835   -1.0012    3.4791 H   0  0  0  0  0  0  0  0  0  0  0  0
    4.4851    0.1773    3.9865 C   0  0  0  0  0  0  0  0  0  0  0  0
    4.2443   -0.3875    4.8720 H   0  0  0  0  0  0  0  0  0  0  0  0
    1.8954    1.4741    5.3265 C   0  0  2  0  0  0  0  0  0  0  0  0
    1.2531    2.3417    5.5756 H   0  0  0  0  0  0  0  0  0  0  0  0
    2.8665    1.2622    6.4695 C   0  0  0  0  0  0  0  0  0  0  0  0
    3.7062    2.3217    6.8023 C   0  0  0  0  0  0  0  0  0  0  0  0
    3.6190    3.2566    6.2684 H   0  0  0  0  0  0  0  0  0  0  0  0
    4.6335    2.1944    7.8188 C   0  0  0  0  0  0  0  0  0  0  0  0
    5.2757    3.0274    8.0620 H   0  0  0  0  0  0  0  0  0  0  0  0
    4.7342    1.0076    8.5253 C   0  0  0  0  0  0  0  0  0  0  0  0
    5.4576    0.9053    9.3209 H   0  0  0  0  0  0  0  0  0  0  0  0
    3.8960   -0.0458    8.2092 C   0  0  0  0  0  0  0  0  0  0  0  0
    3.9615   -0.9744    8.7583 H   0  0  0  0  0  0  0  0  0  0  0  0
    2.9689    0.0779    7.1872 C   0  0  0  0  0  0  0  0  0  0  0  0
    2.3332   -0.7653    6.9648 H   0  0  0  0  0  0  0  0  0  0  0  0
    0.9826    0.2879    4.9884 C   0  0  0  0  0  0  0  0  0  0  0  0
    1.5519   -0.6431    4.9856 H   0  0  0  0  0  0  0  0  0  0  0  0
    0.6041    0.4335    3.9734 H   0  0  0  0  0  0  0  0  0  0  0  0
   -0.1976    0.1992    5.9480 C   0  0  0  0  0  0  0  0  0  0  0  0
    0.1411    0.1101    6.9769 H   0  0  0  0  0  0  0  0  0  0  0  0
   -0.8183   -0.6619    5.7104 H   0  0  0  0  0  0  0  0  0  0  0  0
   -0.8074    1.0965    5.8686 H   0  0  0  0  0  0  0  0  0  0  0  0
  3 38  1  0  0  0  0
  4 22  1  0  0  0  0
  4  5  1  0  0  0  0
  6 27  1  0  0  0  0
  7  8  1  0  0  0  0
  7  4  1  0  0  0  0
  9 10  1  0  0  0  0
  9 19  1  0  0  0  0
 11 12  1  6  0  0  0
 11  9  1  0  0  0  0
 11  1  1  0  0  0  0
 13 11  1  0  0  0  0
 13 16  1  0  0  0  0
 14 13  1  0  0  0  0
 15 13  1  0  0  0  0
 16 18  1  0  0  0  0
 16  7  1  0  0  0  0
 17 16  1  0  0  0  0
 19 20  1  0  0  0  0
 19 22  1  0  0  0  0
 21 19  1  0  0  0  0
 22 23  1  0  0  0  0
 22 24  1  0  0  0  0
 25  1  1  1  0  0  0
 25 26  1  0  0  0  0
 26 51  1  0  0  0  0
 27 49  2  0  0  0  0
 27 26  1  0  0  0  0
 28  6  1  0  0  0  0
 28 25  1  0  0  0  0
 29 30  1  0  0  0  0
 29 28  1  0  0  0  0
 30 31  1  0  0  0  0
 32 33  1  0  0  0  0
 32 30  2  0  0  0  0
 34 32  1  0  0  0  0
 35 34  1  0  0  0  0
 36 34  2  0  0  0  0
 36 38  1  0  0  0  0
 37 36  1  0  0  0  0
 38 29  2  0  0  0  0
 39 41  1  0  0  0  0
 39  3  1  0  0  0  0
 40 39  1  0  0  0  0
 42 39  1  0  0  0  0
 43 45  1  0  0  0  0
 43  6  2  0  0  0  0
 44 43  1  0  0  0  0
 45 47  2  0  0  0  0
 46 45  1  0  0  0  0
 47 48  1  0  0  0  0
 47 49  1  0  0  0  0
 49 50  1  0  0  0  0
 51 52  1  1  0  0  0
 51 53  1  0  0  0  0
 53 54  2  0  0  0  0
 53 62  1  0  0  0  0
 54 56  1  0  0  0  0
 55 54  1  0  0  0  0
 56 57  1  0  0  0  0
 56 58  2  0  0  0  0
 58 59  1  0  0  0  0
 60 58  1  0  0  0  0
 60 61  1  0  0  0  0
 62 60  2  0  0  0  0
 63 62  1  0  0  0  0
 64 51  1  0  0  0  0
 64 67  1  0  0  0  0
 65 64  1  0  0  0  0
 66 64  1  0  0  0  0
 67 68  1  0  0  0  0
 69 67  1  0  0  0  0
 70 67  1  0  0  0  0
M  END
$$$$
