CSD_code = ATUROX | q = 0 | S = 0 | Stoichiometry = C32H40Cl2Zr | MND = 12
 OpenBabel04212202003D

 75 79  0  0  1  0  0  0  0  0999 V2000
    4.8866    7.2876    9.5152 Zr  0  0  0  0  0  0  0  0  0  0  0  0
    3.6525    5.6363    8.4008 Cl  0  0  0  0  0  0  0  0  0  0  0  0
    3.9941    9.2786   10.6035 C   0  0  2  0  0  3  0  0  0  0  0  0
    2.8141    8.6673   10.0438 C   0  0  0  0  0  0  0  0  0  0  0  0
    2.6273    7.3947   10.7183 C   0  0  0  0  0  0  0  0  0  0  0  0
    3.6814    7.2433   11.6799 C   0  0  1  0  0  3  0  0  0  0  0  0
    4.4962    8.4027   11.6113 C   0  0  1  0  0  0  0  0  0  0  0  0
    5.6842    8.6345   12.5108 C   0  0  0  0  0  0  0  0  0  0  0  0
    3.8663    6.1494   12.6979 C   0  0  0  0  0  0  0  0  0  0  0  0
    1.5424    6.5537   10.3663 C   0  0  0  0  0  0  0  0  0  0  0  0
    1.2814    5.2862   11.1309 C   0  0  0  0  0  0  0  0  0  0  0  0
    0.7525    6.9108    9.2896 C   0  0  0  0  0  0  0  0  0  0  0  0
    0.8640    8.1961    8.7009 C   0  0  0  0  0  0  0  0  0  0  0  0
    1.8269    9.1014    9.1154 C   0  0  0  0  0  0  0  0  0  0  0  0
    1.7333   10.5415    8.6745 C   0  0  0  0  0  0  0  0  0  0  0  0
   -0.1331    8.5677    7.6350 C   0  0  0  0  0  0  0  0  0  0  0  0
   -0.2755    5.9432    8.7693 C   0  0  0  0  0  0  0  0  0  0  0  0
    4.6351   10.5961   10.2458 C   0  0  0  0  0  0  0  0  0  0  0  0
    5.4404    8.3419   13.5321 H   0  0  0  0  0  0  0  0  0  0  0  0
    5.9688    9.6842   12.5347 H   0  0  0  0  0  0  0  0  0  0  0  0
    6.5476    8.0435   12.1815 H   0  0  0  0  0  0  0  0  0  0  0  0
    4.8683    6.1924   13.1215 H   0  0  0  0  0  0  0  0  0  0  0  0
    3.1473    6.2550   13.5149 H   0  0  0  0  0  0  0  0  0  0  0  0
    3.7459    5.1644   12.2490 H   0  0  0  0  0  0  0  0  0  0  0  0
    0.2481    4.9713   11.0234 H   0  0  0  0  0  0  0  0  0  0  0  0
    1.4740    5.4359   12.1879 H   0  0  0  0  0  0  0  0  0  0  0  0
    1.9264    4.4857   10.7643 H   0  0  0  0  0  0  0  0  0  0  0  0
    0.7211   10.9064    8.8474 H   0  0  0  0  0  0  0  0  0  0  0  0
    2.3968   11.1726    9.2497 H   0  0  0  0  0  0  0  0  0  0  0  0
    1.9552   10.6664    7.6144 H   0  0  0  0  0  0  0  0  0  0  0  0
   -0.0592    9.6090    7.3450 H   0  0  0  0  0  0  0  0  0  0  0  0
   -1.1493    8.3821    7.9793 H   0  0  0  0  0  0  0  0  0  0  0  0
    0.0363    7.9654    6.7416 H   0  0  0  0  0  0  0  0  0  0  0  0
   -0.4814    6.1188    7.7189 H   0  0  0  0  0  0  0  0  0  0  0  0
   -1.2145    6.0314    9.3184 H   0  0  0  0  0  0  0  0  0  0  0  0
    0.0886    4.9241    8.8629 H   0  0  0  0  0  0  0  0  0  0  0  0
    5.4819   10.7596   10.9121 H   0  0  0  0  0  0  0  0  0  0  0  0
    3.9516   11.4369   10.4044 H   0  0  0  0  0  0  0  0  0  0  0  0
    6.1207    5.6363   10.6298 Cl  0  0  0  0  0  0  0  0  0  0  0  0
    5.7793    9.2786    8.4271 C   0  0  2  0  0  3  0  0  0  0  0  0
    6.9593    8.6673    8.9868 C   0  0  0  0  0  0  0  0  0  0  0  0
    7.1461    7.3947    8.3124 C   0  0  0  0  0  0  0  0  0  0  0  0
    6.0920    7.2433    7.3506 C   0  0  1  0  0  3  0  0  0  0  0  0
    5.2773    8.4027    7.4193 C   0  0  1  0  0  0  0  0  0  0  0  0
    4.0893    8.6346    6.5198 C   0  0  0  0  0  0  0  0  0  0  0  0
    5.9072    6.1494    6.3327 C   0  0  0  0  0  0  0  0  0  0  0  0
    8.2309    6.5537    8.6644 C   0  0  0  0  0  0  0  0  0  0  0  0
    8.4919    5.2863    7.8998 C   0  0  0  0  0  0  0  0  0  0  0  0
    9.0208    6.9108    9.7412 C   0  0  0  0  0  0  0  0  0  0  0  0
    8.9093    8.1961   10.3298 C   0  0  0  0  0  0  0  0  0  0  0  0
    7.9465    9.1014    9.9153 C   0  0  0  0  0  0  0  0  0  0  0  0
    8.0401   10.5415   10.3562 C   0  0  0  0  0  0  0  0  0  0  0  0
    9.9064    8.5677   11.3957 C   0  0  0  0  0  0  0  0  0  0  0  0
   10.0488    5.9432   10.2615 C   0  0  0  0  0  0  0  0  0  0  0  0
    5.1383   10.5961    8.7848 C   0  0  0  0  0  0  0  0  0  0  0  0
    4.3330    8.3419    5.4985 H   0  0  0  0  0  0  0  0  0  0  0  0
    3.8047    9.6843    6.4958 H   0  0  0  0  0  0  0  0  0  0  0  0
    3.2258    8.0436    6.8491 H   0  0  0  0  0  0  0  0  0  0  0  0
    4.9052    6.1925    5.9090 H   0  0  0  0  0  0  0  0  0  0  0  0
    6.6261    6.2551    5.5157 H   0  0  0  0  0  0  0  0  0  0  0  0
    6.0275    5.1645    6.7816 H   0  0  0  0  0  0  0  0  0  0  0  0
    9.5252    4.9714    8.0073 H   0  0  0  0  0  0  0  0  0  0  0  0
    8.2994    5.4359    6.8428 H   0  0  0  0  0  0  0  0  0  0  0  0
    7.8469    4.4858    8.2664 H   0  0  0  0  0  0  0  0  0  0  0  0
    9.0523   10.9064   10.1832 H   0  0  0  0  0  0  0  0  0  0  0  0
    7.3766   11.1726    9.7809 H   0  0  0  0  0  0  0  0  0  0  0  0
    7.8181   10.6665   11.4162 H   0  0  0  0  0  0  0  0  0  0  0  0
    9.8324    9.6090   11.6858 H   0  0  0  0  0  0  0  0  0  0  0  0
   10.9226    8.3821   11.0515 H   0  0  0  0  0  0  0  0  0  0  0  0
    9.7369    7.9654   12.2891 H   0  0  0  0  0  0  0  0  0  0  0  0
   10.2546    6.1188   11.3119 H   0  0  0  0  0  0  0  0  0  0  0  0
   10.9878    6.0314    9.7124 H   0  0  0  0  0  0  0  0  0  0  0  0
    9.6847    4.9241   10.1678 H   0  0  0  0  0  0  0  0  0  0  0  0
    4.2915   10.7596    8.1185 H   0  0  0  0  0  0  0  0  0  0  0  0
    5.8217   11.4370    8.6262 H   0  0  0  0  0  0  0  0  0  0  0  0
  1 39  1  0  0  0  0
  1  7  1  0  0  0  0
  2  1  1  0  0  0  0
  3  4  1  1  0  0  0
  3  7  1  0  0  0  0
  4  5  1  0  0  0  0
  5  6  1  0  0  0  0
  6  9  1  1  0  0  0
  7  6  1  0  0  0  0
  7  8  1  1  0  0  0
  8 20  1  0  0  0  0
  8 19  1  0  0  0  0
  9 22  1  0  0  0  0
  9 23  1  0  0  0  0
 10  5  2  0  0  0  0
 10 11  1  0  0  0  0
 11 26  1  0  0  0  0
 12 10  1  0  0  0  0
 13 14  1  0  0  0  0
 13 12  2  0  0  0  0
 14  4  2  0  0  0  0
 15 28  1  0  0  0  0
 15 14  1  0  0  0  0
 15 29  1  0  0  0  0
 16 32  1  0  0  0  0
 16 13  1  0  0  0  0
 17 36  1  0  0  0  0
 17 12  1  0  0  0  0
 17 35  1  0  0  0  0
 18 38  1  0  0  0  0
 18  3  1  0  0  0  0
 18 37  1  0  0  0  0
 21  8  1  0  0  0  0
 24  9  1  0  0  0  0
 25 11  1  0  0  0  0
 27 11  1  0  0  0  0
 30 15  1  0  0  0  0
 31 16  1  0  0  0  0
 33 16  1  0  0  0  0
 34 17  1  0  0  0  0
 40 55  1  0  0  0  0
 40 41  1  6  0  0  0
 41 51  1  0  0  0  0
 42 47  1  0  0  0  0
 42 41  2  0  0  0  0
 43 46  1  6  0  0  0
 43 44  1  0  0  0  0
 43 42  1  0  0  0  0
 44 45  1  6  0  0  0
 44 40  1  0  0  0  0
 44  1  1  0  0  0  0
 45 58  1  0  0  0  0
 46 61  1  0  0  0  0
 47 49  2  0  0  0  0
 48 62  1  0  0  0  0
 48 64  1  0  0  0  0
 48 47  1  0  0  0  0
 49 54  1  0  0  0  0
 49 50  1  0  0  0  0
 50 53  1  0  0  0  0
 51 50  2  0  0  0  0
 51 52  1  0  0  0  0
 52 67  1  0  0  0  0
 53 68  1  0  0  0  0
 53 70  1  0  0  0  0
 54 71  1  0  0  0  0
 55 18  1  0  0  0  0
 56 45  1  0  0  0  0
 57 45  1  0  0  0  0
 59 46  1  0  0  0  0
 60 46  1  0  0  0  0
 63 48  1  0  0  0  0
 65 52  1  0  0  0  0
 66 52  1  0  0  0  0
 69 53  1  0  0  0  0
 72 54  1  0  0  0  0
 73 54  1  0  0  0  0
 74 55  1  0  0  0  0
 75 55  1  0  0  0  0
M  END
$$$$
