CSD_code = ATUSAK | q = 0 | S = 0 | Stoichiometry = C32H40Cl2Hf | MND = 12
 OpenBabel04212202003D

 75 79  0  0  1  0  0  0  0  0999 V2000
   10.1144    5.0558    3.1674 Hf  0  0  0  0  0  0  0  0  0  0  0  0
   11.3645    6.6827    4.2406 Cl  0  0  0  0  0  0  0  0  0  0  0  0
   10.5437    4.0052    1.1081 C   0  0  2  0  0  0  0  0  0  0  0  0
   11.0390    3.1179    2.1142 C   0  0  2  0  0  3  0  0  0  0  0  0
   12.2407    3.7022    2.6572 C   0  0  0  0  0  0  0  0  0  0  0  0
   12.4523    4.9628    1.9753 C   0  0  0  0  0  0  0  0  0  0  0  0
   11.3835    5.1489    1.0387 C   0  0  1  0  0  3  0  0  0  0  0  0
   11.2037    6.2557    0.0373 C   0  0  0  0  0  0  0  0  0  0  0  0
   13.5693    5.7676    2.2956 C   0  0  0  0  0  0  0  0  0  0  0  0
   14.3686    5.3923    3.3604 C   0  0  0  0  0  0  0  0  0  0  0  0
   14.2220    4.1216    3.9668 C   0  0  0  0  0  0  0  0  0  0  0  0
   13.2212    3.2456    3.5776 C   0  0  0  0  0  0  0  0  0  0  0  0
   13.2572    1.8180    4.0619 C   0  0  0  0  0  0  0  0  0  0  0  0
   15.2186    3.7324    5.0261 C   0  0  0  0  0  0  0  0  0  0  0  0
   15.4424    6.3251    3.8492 C   0  0  0  0  0  0  0  0  0  0  0  0
   13.8782    7.0081    1.5066 C   0  0  0  0  0  0  0  0  0  0  0  0
    9.3728    3.7652    0.1900 C   0  0  0  0  0  0  0  0  0  0  0  0
   10.3854    1.8019    2.4445 C   0  0  0  0  0  0  0  0  0  0  0  0
   11.3754    7.2299    0.4896 H   0  0  0  0  0  0  0  0  0  0  0  0
   11.8907    6.1333   -0.8037 H   0  0  0  0  0  0  0  0  0  0  0  0
   10.1884    6.2531   -0.3530 H   0  0  0  0  0  0  0  0  0  0  0  0
   14.2504    1.4031    3.8924 H   0  0  0  0  0  0  0  0  0  0  0  0
   12.5608    1.1965    3.5169 H   0  0  0  0  0  0  0  0  0  0  0  0
   13.0403    1.7419    5.1277 H   0  0  0  0  0  0  0  0  0  0  0  0
   15.1259    2.6945    5.3215 H   0  0  0  0  0  0  0  0  0  0  0  0
   16.2354    3.8949    4.6732 H   0  0  0  0  0  0  0  0  0  0  0  0
   15.0691    4.3422    5.9180 H   0  0  0  0  0  0  0  0  0  0  0  0
   15.6353    6.1760    4.9065 H   0  0  0  0  0  0  0  0  0  0  0  0
   16.3772    6.1678    3.3085 H   0  0  0  0  0  0  0  0  0  0  0  0
   15.1342    7.3580    3.7171 H   0  0  0  0  0  0  0  0  0  0  0  0
   14.9364    7.2463    1.5598 H   0  0  0  0  0  0  0  0  0  0  0  0
   13.6237    6.8658    0.4624 H   0  0  0  0  0  0  0  0  0  0  0  0
   13.3137    7.8571    1.8935 H   0  0  0  0  0  0  0  0  0  0  0  0
    9.5949    4.1519   -0.8032 H   0  0  0  0  0  0  0  0  0  0  0  0
    9.1647    2.7027    0.0849 H   0  0  0  0  0  0  0  0  0  0  0  0
    8.4688    4.2635    0.5541 H   0  0  0  0  0  0  0  0  0  0  0  0
   11.0692    0.9603    2.2987 H   0  0  0  0  0  0  0  0  0  0  0  0
    9.5560    1.6481    1.7553 H   0  0  0  0  0  0  0  0  0  0  0  0
    8.8661    6.6846    2.0954 Cl  0  0  0  0  0  0  0  0  0  0  0  0
    9.6842    4.0044    5.2261 C   0  0  2  0  0  0  0  0  0  0  0  0
    9.1890    3.1173    4.2198 C   0  0  2  0  0  3  0  0  0  0  0  0
    7.9878    3.7018    3.6762 C   0  0  0  0  0  0  0  0  0  0  0  0
    7.7761    4.9624    4.3581 C   0  0  0  0  0  0  0  0  0  0  0  0
    8.8446    5.1484    5.2951 C   0  0  1  0  0  3  0  0  0  0  0  0
    9.0242    6.2552    6.2965 C   0  0  0  0  0  0  0  0  0  0  0  0
    6.6593    5.7674    4.0372 C   0  0  0  0  0  0  0  0  0  0  0  0
    5.8603    5.3921    2.9722 C   0  0  0  0  0  0  0  0  0  0  0  0
    6.0069    4.1213    2.3661 C   0  0  0  0  0  0  0  0  0  0  0  0
    7.0075    3.2452    2.7557 C   0  0  0  0  0  0  0  0  0  0  0  0
    6.9712    1.8174    2.2718 C   0  0  0  0  0  0  0  0  0  0  0  0
    5.0105    3.7321    1.3066 C   0  0  0  0  0  0  0  0  0  0  0  0
    4.7869    6.3251    2.4829 C   0  0  0  0  0  0  0  0  0  0  0  0
    6.3504    7.0081    4.8260 C   0  0  0  0  0  0  0  0  0  0  0  0
   10.8546    3.7640    6.1445 C   0  0  0  0  0  0  0  0  0  0  0  0
    9.8430    1.8016    3.8892 C   0  0  0  0  0  0  0  0  0  0  0  0
    8.8531    7.2294    5.8440 H   0  0  0  0  0  0  0  0  0  0  0  0
    8.3366    6.1331    7.1371 H   0  0  0  0  0  0  0  0  0  0  0  0
   10.0393    6.2523    6.6873 H   0  0  0  0  0  0  0  0  0  0  0  0
    5.9779    1.4027    2.4413 H   0  0  0  0  0  0  0  0  0  0  0  0
    7.6674    1.1960    2.8171 H   0  0  0  0  0  0  0  0  0  0  0  0
    7.1883    1.7410    1.2061 H   0  0  0  0  0  0  0  0  0  0  0  0
    5.1031    2.6941    1.0114 H   0  0  0  0  0  0  0  0  0  0  0  0
    3.9936    3.8947    1.6592 H   0  0  0  0  0  0  0  0  0  0  0  0
    5.1602    4.3417    0.4146 H   0  0  0  0  0  0  0  0  0  0  0  0
    4.5943    6.1759    1.4256 H   0  0  0  0  0  0  0  0  0  0  0  0
    3.8519    6.1680    3.0234 H   0  0  0  0  0  0  0  0  0  0  0  0
    5.0953    7.3579    2.6150 H   0  0  0  0  0  0  0  0  0  0  0  0
    5.2922    7.2465    4.7724 H   0  0  0  0  0  0  0  0  0  0  0  0
    6.6045    6.8658    5.8703 H   0  0  0  0  0  0  0  0  0  0  0  0
    6.9152    7.8570    4.4392 H   0  0  0  0  0  0  0  0  0  0  0  0
   10.6325    4.1512    7.1376 H   0  0  0  0  0  0  0  0  0  0  0  0
   11.0620    2.7014    6.2502 H   0  0  0  0  0  0  0  0  0  0  0  0
   11.7590    4.2617    5.7806 H   0  0  0  0  0  0  0  0  0  0  0  0
    9.1595    0.9597    4.0346 H   0  0  0  0  0  0  0  0  0  0  0  0
   10.6724    1.6477    4.5783 H   0  0  0  0  0  0  0  0  0  0  0  0
  1  2  1  0  0  0  0
  1 40  1  0  0  0  0
  3 17  1  6  0  0  0
  3  4  1  0  0  0  0
  3  1  1  0  0  0  0
  4 18  1  0  0  0  0
  4  5  1  6  0  0  0
  5 12  1  0  0  0  0
  6  9  1  0  0  0  0
  6  5  2  0  0  0  0
  7  8  1  6  0  0  0
  7  3  1  0  0  0  0
  7  6  1  0  0  0  0
  8 19  1  0  0  0  0
  9 10  2  0  0  0  0
 10 15  1  0  0  0  0
 10 11  1  0  0  0  0
 11 14  1  0  0  0  0
 12 11  2  0  0  0  0
 12 13  1  0  0  0  0
 13 24  1  0  0  0  0
 14 25  1  0  0  0  0
 14 27  1  0  0  0  0
 15 28  1  0  0  0  0
 16 31  1  0  0  0  0
 16 33  1  0  0  0  0
 16  9  1  0  0  0  0
 17 36  1  0  0  0  0
 18 55  1  0  0  0  0
 20  8  1  0  0  0  0
 21  8  1  0  0  0  0
 22 13  1  0  0  0  0
 23 13  1  0  0  0  0
 26 14  1  0  0  0  0
 29 15  1  0  0  0  0
 30 15  1  0  0  0  0
 32 16  1  0  0  0  0
 34 17  1  0  0  0  0
 35 17  1  0  0  0  0
 37 18  1  0  0  0  0
 38 18  1  0  0  0  0
 39  1  1  0  0  0  0
 40 44  1  0  0  0  0
 40 54  1  1  0  0  0
 41 42  1  1  0  0  0
 41 40  1  0  0  0  0
 42 43  1  0  0  0  0
 43 44  1  0  0  0  0
 44 45  1  1  0  0  0
 45 58  1  0  0  0  0
 45 57  1  0  0  0  0
 46 43  2  0  0  0  0
 46 53  1  0  0  0  0
 47 46  1  0  0  0  0
 48 49  1  0  0  0  0
 48 47  2  0  0  0  0
 49 42  2  0  0  0  0
 50 59  1  0  0  0  0
 50 49  1  0  0  0  0
 50 60  1  0  0  0  0
 51 63  1  0  0  0  0
 51 48  1  0  0  0  0
 52 67  1  0  0  0  0
 52 47  1  0  0  0  0
 52 66  1  0  0  0  0
 53 69  1  0  0  0  0
 54 72  1  0  0  0  0
 54 71  1  0  0  0  0
 55 74  1  0  0  0  0
 55 41  1  0  0  0  0
 55 75  1  0  0  0  0
 56 45  1  0  0  0  0
 61 50  1  0  0  0  0
 62 51  1  0  0  0  0
 64 51  1  0  0  0  0
 65 52  1  0  0  0  0
 68 53  1  0  0  0  0
 70 53  1  0  0  0  0
 73 54  1  0  0  0  0
M  END
$$$$
