CSD_code = AVACAC | q = 0 | S = 0 | Stoichiometry = C38H30F3IP2Pd | MND = 4
 OpenBabel04212202003D

 75 80  0  0  0  0  0  0  0  0999 V2000
   -0.7694    3.2511    2.2107 Pd  0  0  0  0  0  0  0  0  0  0  0  0
   -0.1315    0.7252    2.4570 I   0  0  0  0  0  0  0  0  0  0  0  0
    1.4037    3.8472    2.4366 P   0  0  0  0  0  4  0  0  0  0  0  0
   -2.9788    2.7565    2.1049 P   0  0  0  0  0  4  0  0  0  0  0  0
   -1.3443    5.6018    0.5860 F   0  0  0  0  0  0  0  0  0  0  0  0
   -1.7258    7.1940    3.0346 F   0  0  0  0  0  0  0  0  0  0  0  0
   -1.2423    5.3214    4.1228 F   0  0  0  0  0  0  0  0  0  0  0  0
   -1.2137    5.1309    1.8487 C   0  0  0  0  0  0  0  0  0  0  0  0
   -1.4044    5.9017    2.8977 C   0  0  0  0  0  3  0  0  0  0  0  0
    2.1899    2.9722    3.8144 C   0  0  0  0  0  0  0  0  0  0  0  0
    1.4146    2.9348    4.9738 C   0  0  0  0  0  0  0  0  0  0  0  0
    0.4357    3.4154    4.9713 H   0  0  0  0  0  0  0  0  0  0  0  0
    1.8777    2.2790    6.0959 C   0  0  0  0  0  0  0  0  0  0  0  0
    1.2776    2.2475    6.9933 H   0  0  0  0  0  0  0  0  0  0  0  0
    3.1110    1.6454    6.0591 C   0  0  0  0  0  0  0  0  0  0  0  0
    3.4725    1.1226    6.9319 H   0  0  0  0  0  0  0  0  0  0  0  0
    3.8693    1.6617    4.9014 C   0  0  0  0  0  0  0  0  0  0  0  0
    4.8184    1.1476    4.8706 H   0  0  0  0  0  0  0  0  0  0  0  0
    3.4137    2.3223    3.7725 C   0  0  0  0  0  0  0  0  0  0  0  0
    3.9945    2.3064    2.8622 H   0  0  0  0  0  0  0  0  0  0  0  0
    2.2875    3.5048    0.8948 C   0  0  0  0  0  0  0  0  0  0  0  0
    3.6392    3.7878    0.7223 C   0  0  0  0  0  0  0  0  0  0  0  0
    4.2050    4.2290    1.5320 H   0  0  0  0  0  0  0  0  0  0  0  0
    4.2415    3.5215   -0.4930 C   0  0  0  0  0  0  0  0  0  0  0  0
    5.2924    3.7316   -0.6287 H   0  0  0  0  0  0  0  0  0  0  0  0
    3.5004    2.9926   -1.5389 C   0  0  0  0  0  0  0  0  0  0  0  0
    3.9793    2.7846   -2.4841 H   0  0  0  0  0  0  0  0  0  0  0  0
    2.1466    2.7451   -1.3818 C   0  0  0  0  0  0  0  0  0  0  0  0
    1.5680    2.3530   -2.2049 H   0  0  0  0  0  0  0  0  0  0  0  0
    1.5395    3.0045   -0.1672 C   0  0  0  0  0  0  0  0  0  0  0  0
    0.4650    2.8329   -0.0353 H   0  0  0  0  0  0  0  0  0  0  0  0
    1.8347    5.5892    2.7364 C   0  0  0  0  0  0  0  0  0  0  0  0
    2.1931    6.0682    3.9908 C   0  0  0  0  0  0  0  0  0  0  0  0
    2.2927    5.3860    4.8238 H   0  0  0  0  0  0  0  0  0  0  0  0
    2.4201    7.4215    4.1714 C   0  0  0  0  0  0  0  0  0  0  0  0
    2.6965    7.7907    5.1482 H   0  0  0  0  0  0  0  0  0  0  0  0
    2.2856    8.3002    3.1101 C   0  0  0  0  0  0  0  0  0  0  0  0
    2.4550    9.3563    3.2583 H   0  0  0  0  0  0  0  0  0  0  0  0
    1.9261    7.8262    1.8578 C   0  0  0  0  0  0  0  0  0  0  0  0
    1.8144    8.5103    1.0297 H   0  0  0  0  0  0  0  0  0  0  0  0
    1.6977    6.4775    1.6708 C   0  0  0  0  0  0  0  0  0  0  0  0
    1.4065    6.1041    0.6962 H   0  0  0  0  0  0  0  0  0  0  0  0
   -3.5643    1.9225    0.6107 C   0  0  0  0  0  0  0  0  0  0  0  0
   -4.9172    1.6822    0.3849 C   0  0  0  0  0  0  0  0  0  0  0  0
   -5.6505    2.0012    1.1140 H   0  0  0  0  0  0  0  0  0  0  0  0
   -5.3125    1.0562   -0.7818 C   0  0  0  0  0  0  0  0  0  0  0  0
   -6.3605    0.8623   -0.9584 H   0  0  0  0  0  0  0  0  0  0  0  0
   -4.3693    0.6821   -1.7276 C   0  0  0  0  0  0  0  0  0  0  0  0
   -4.6866    0.1918   -2.6359 H   0  0  0  0  0  0  0  0  0  0  0  0
   -3.0262    0.9455   -1.5173 C   0  0  0  0  0  0  0  0  0  0  0  0
   -2.2950    0.6654   -2.2606 H   0  0  0  0  0  0  0  0  0  0  0  0
   -2.6240    1.5689   -0.3503 C   0  0  0  0  0  0  0  0  0  0  0  0
   -1.5722    1.7873   -0.1752 H   0  0  0  0  0  0  0  0  0  0  0  0
   -3.3653    1.7269    3.5473 C   0  0  0  0  0  0  0  0  0  0  0  0
   -4.2616    0.6692    3.5656 C   0  0  0  0  0  0  0  0  0  0  0  0
   -4.7954    0.3900    2.6690 H   0  0  0  0  0  0  0  0  0  0  0  0
   -4.4431   -0.0466    4.7373 C   0  0  0  0  0  0  0  0  0  0  0  0
   -5.1336   -0.8768    4.7531 H   0  0  0  0  0  0  0  0  0  0  0  0
   -3.7372    0.2881    5.8799 C   0  0  0  0  0  0  0  0  0  0  0  0
   -3.8810   -0.2798    6.7869 H   0  0  0  0  0  0  0  0  0  0  0  0
   -2.8307    1.3376    5.8597 C   0  0  0  0  0  0  0  0  0  0  0  0
   -2.2673    1.5855    6.7470 H   0  0  0  0  0  0  0  0  0  0  0  0
   -2.6396    2.0517    4.6943 C   0  0  0  0  0  0  0  0  0  0  0  0
   -1.9084    2.8649    4.6506 H   0  0  0  0  0  0  0  0  0  0  0  0
   -4.1401    4.1478    2.2609 C   0  0  0  0  0  0  0  0  0  0  0  0
   -4.4069    4.9081    1.1242 C   0  0  0  0  0  0  0  0  0  0  0  0
   -3.9893    4.6092    0.1705 H   0  0  0  0  0  0  0  0  0  0  0  0
   -5.1905    6.0417    1.2170 C   0  0  0  0  0  0  0  0  0  0  0  0
   -5.3909    6.6298    0.3337 H   0  0  0  0  0  0  0  0  0  0  0  0
   -5.7064    6.4291    2.4436 C   0  0  0  0  0  0  0  0  0  0  0  0
   -6.3111    7.3207    2.5169 H   0  0  0  0  0  0  0  0  0  0  0  0
   -5.4395    5.6789    3.5762 C   0  0  0  0  0  0  0  0  0  0  0  0
   -5.8364    5.9835    4.5335 H   0  0  0  0  0  0  0  0  0  0  0  0
   -4.6551    4.5424    3.4907 C   0  0  0  0  0  0  0  0  0  0  0  0
   -4.4405    3.9631    4.3786 H   0  0  0  0  0  0  0  0  0  0  0  0
  1  3  1  0  0  0  0
  1  2  1  0  0  0  0
  3 32  1  0  0  0  0
  3 10  1  0  0  0  0
  4  1  1  0  0  0  0
  4 65  1  0  0  0  0
  4 54  1  0  0  0  0
  5  8  1  0  0  0  0
  8  1  2  0  0  0  0
  8  9  1  0  0  0  0
  9  6  1  0  0  0  0
  9  7  1  0  0  0  0
 10 11  1  0  0  0  0
 11 13  2  0  0  0  0
 12 11  1  0  0  0  0
 13 14  1  0  0  0  0
 15 13  1  0  0  0  0
 15 16  1  0  0  0  0
 17 15  2  0  0  0  0
 18 17  1  0  0  0  0
 19 10  2  0  0  0  0
 19 17  1  0  0  0  0
 20 19  1  0  0  0  0
 21  3  1  0  0  0  0
 22 21  1  0  0  0  0
 22 23  1  0  0  0  0
 24 22  2  0  0  0  0
 25 24  1  0  0  0  0
 26 28  2  0  0  0  0
 26 24  1  0  0  0  0
 27 26  1  0  0  0  0
 28 30  1  0  0  0  0
 29 28  1  0  0  0  0
 30 31  1  0  0  0  0
 30 21  2  0  0  0  0
 32 33  1  0  0  0  0
 33 35  2  0  0  0  0
 33 34  1  0  0  0  0
 35 36  1  0  0  0  0
 37 38  1  0  0  0  0
 37 35  1  0  0  0  0
 39 37  2  0  0  0  0
 40 39  1  0  0  0  0
 41 39  1  0  0  0  0
 41 32  2  0  0  0  0
 42 41  1  0  0  0  0
 43  4  1  0  0  0  0
 44 43  1  0  0  0  0
 44 45  1  0  0  0  0
 46 44  2  0  0  0  0
 47 46  1  0  0  0  0
 48 50  2  0  0  0  0
 48 46  1  0  0  0  0
 49 48  1  0  0  0  0
 50 52  1  0  0  0  0
 51 50  1  0  0  0  0
 52 53  1  0  0  0  0
 52 43  2  0  0  0  0
 54 55  2  0  0  0  0
 54 63  1  0  0  0  0
 55 57  1  0  0  0  0
 56 55  1  0  0  0  0
 57 58  1  0  0  0  0
 57 59  2  0  0  0  0
 59 60  1  0  0  0  0
 61 59  1  0  0  0  0
 61 62  1  0  0  0  0
 63 61  2  0  0  0  0
 64 63  1  0  0  0  0
 65 74  1  0  0  0  0
 66 68  1  0  0  0  0
 66 65  2  0  0  0  0
 67 66  1  0  0  0  0
 68 70  2  0  0  0  0
 69 68  1  0  0  0  0
 70 71  1  0  0  0  0
 70 72  1  0  0  0  0
 72 73  1  0  0  0  0
 74 72  2  0  0  0  0
 74 75  1  0  0  0  0
M  END
$$$$
