CSD_code = AVAMIU | q = 0 | S = 0 | Stoichiometry = C31H29ClN4Pt | MND = 4
 OpenBabel04212202003D

 66 70  0  0  1  0  0  0  0  0999 V2000
    9.4938    3.1524   -1.7255 Pt  0  0  2  0  0  0  0  0  0  0  0  0
   11.7492    3.7885   -1.7943 Cl  0  0  0  0  0  0  0  0  0  0  0  0
    9.3682    3.6187    0.1993 N   0  0  0  0  0  0  0  0  0  0  0  0
   10.0762    4.1043    0.7421 H   0  0  0  0  0  0  0  0  0  0  0  0
    7.2450    2.8722    0.0033 N   0  0  0  0  0  0  0  0  0  0  0  0
    6.8502    1.7443   -1.9391 N   0  0  0  0  0  2  0  0  0  0  0  0
    9.7859    2.6530   -4.7250 N   0  0  0  0  0  2  0  0  0  0  0  0
    7.6353    2.5131   -1.3097 C   0  0  0  0  0  0  0  0  0  0  0  0
    8.2057    3.4608    0.7546 C   0  0  2  0  0  3  0  0  0  0  0  0
    7.9177    3.9232    2.1240 C   0  0  0  0  0  0  0  0  0  0  0  0
    6.7576    4.6388    2.4112 C   0  0  0  0  0  0  0  0  0  0  0  0
    6.0459    4.8478    1.6270 H   0  0  0  0  0  0  0  0  0  0  0  0
    6.5297    5.0988    3.6942 C   0  0  0  0  0  0  0  0  0  0  0  0
    5.6313    5.6574    3.9091 H   0  0  0  0  0  0  0  0  0  0  0  0
    7.4480    4.8465    4.7006 C   0  0  0  0  0  0  0  0  0  0  0  0
    7.2628    5.2025    5.7027 H   0  0  0  0  0  0  0  0  0  0  0  0
    8.6063    4.1415    4.4191 C   0  0  0  0  0  0  0  0  0  0  0  0
    9.3259    3.9459    5.1997 H   0  0  0  0  0  0  0  0  0  0  0  0
    8.8463    3.6878    3.1355 C   0  0  0  0  0  0  0  0  0  0  0  0
    9.7456    3.1289    2.9182 H   0  0  0  0  0  0  0  0  0  0  0  0
    6.0046    2.4366    0.5313 C   0  0  0  0  0  0  0  0  0  0  0  0
    4.8274    2.7699   -0.1260 C   0  0  0  0  0  0  0  0  0  0  0  0
    4.8729    3.3667   -1.0230 H   0  0  0  0  0  0  0  0  0  0  0  0
    3.6148    2.3366    0.3771 C   0  0  0  0  0  0  0  0  0  0  0  0
    2.6999    2.5966   -0.1342 H   0  0  0  0  0  0  0  0  0  0  0  0
    3.5705    1.5774    1.5347 C   0  0  0  0  0  0  0  0  0  0  0  0
    2.6218    1.2437    1.9271 H   0  0  0  0  0  0  0  0  0  0  0  0
    4.7457    1.2409    2.1850 C   0  0  0  0  0  0  0  0  0  0  0  0
    4.7166    0.6416    3.0826 H   0  0  0  0  0  0  0  0  0  0  0  0
    5.9639    1.6608    1.6831 C   0  0  0  0  0  0  0  0  0  0  0  0
    6.8826    1.3853    2.1803 H   0  0  0  0  0  0  0  0  0  0  0  0
    7.1458    1.2010   -3.1748 C   0  0  0  0  0  0  0  0  0  0  0  0
    8.1243    0.2014   -3.2958 C   0  0  0  0  0  0  0  0  0  0  0  0
    8.9087   -0.2478   -2.0954 C   0  0  0  0  0  0  0  0  0  0  0  0
    9.5993    0.5429   -1.7614 H   0  0  0  0  0  0  0  0  0  0  0  0
    9.4942   -1.1330   -2.3309 H   0  0  0  0  0  0  0  0  0  0  0  0
    8.2359   -0.4751   -1.2694 H   0  0  0  0  0  0  0  0  0  0  0  0
    8.3383   -0.3741   -4.5384 C   0  0  0  0  0  0  0  0  0  0  0  0
    9.0830   -1.1509   -4.6412 H   0  0  0  0  0  0  0  0  0  0  0  0
    7.6196    0.0314   -5.6482 C   0  0  0  0  0  0  0  0  0  0  0  0
    7.8129   -0.4154   -6.6120 H   0  0  0  0  0  0  0  0  0  0  0  0
    6.6485    1.0087   -5.5173 C   0  0  0  0  0  0  0  0  0  0  0  0
    6.0753    1.3148   -6.3814 H   0  0  0  0  0  0  0  0  0  0  0  0
    6.3958    1.5966   -4.2896 C   0  0  0  0  0  0  0  0  0  0  0  0
    5.3624    2.6705   -4.1298 C   0  0  0  0  0  0  0  0  0  0  0  0
    4.6525    2.3861   -3.3543 H   0  0  0  0  0  0  0  0  0  0  0  0
    4.8257    2.8374   -5.0607 H   0  0  0  0  0  0  0  0  0  0  0  0
    5.8363    3.6035   -3.8225 H   0  0  0  0  0  0  0  0  0  0  0  0
    9.5638    2.7895   -3.5847 C   0  0  0  0  0  2  0  0  0  0  0  0
   10.1478    2.2934   -5.9784 C   0  0  0  0  0  0  0  0  0  0  0  0
   11.2026    1.3821   -6.1284 C   0  0  0  0  0  0  0  0  0  0  0  0
   11.9045    0.8539   -4.9201 C   0  0  0  0  0  0  0  0  0  0  0  0
   11.2104    0.2874   -4.2997 H   0  0  0  0  0  0  0  0  0  0  0  0
   12.2816    1.6742   -4.3091 H   0  0  0  0  0  0  0  0  0  0  0  0
   12.7342    0.2122   -5.2035 H   0  0  0  0  0  0  0  0  0  0  0  0
   11.5499    1.0052   -7.4154 C   0  0  0  0  0  0  0  0  0  0  0  0
   12.3565    0.3016   -7.5595 H   0  0  0  0  0  0  0  0  0  0  0  0
   10.8801    1.5213   -8.5120 C   0  0  0  0  0  0  0  0  0  0  0  0
   11.1647    1.2141   -9.5073 H   0  0  0  0  0  0  0  0  0  0  0  0
    9.8529    2.4341   -8.3412 C   0  0  0  0  0  0  0  0  0  0  0  0
    9.3427    2.8385   -9.2029 H   0  0  0  0  0  0  0  0  0  0  0  0
    9.4697    2.8395   -7.0734 C   0  0  0  0  0  0  0  0  0  0  0  0
    8.3759    3.8334   -6.8464 C   0  0  0  0  0  0  0  0  0  0  0  0
    7.6148    3.4094   -6.1929 H   0  0  0  0  0  0  0  0  0  0  0  0
    7.9179    4.1254   -7.7876 H   0  0  0  0  0  0  0  0  0  0  0  0
    8.7717    4.7232   -6.3568 H   0  0  0  0  0  0  0  0  0  0  0  0
  1  2  1  1  0  0  0
  1  8  2  0  0  0  0
  1  3  1  0  0  0  0
  3  4  1  0  0  0  0
  3  9  1  0  0  0  0
  5 21  1  0  0  0  0
  5  9  1  0  0  0  0
  6  8  1  0  0  0  0
  7 49  1  0  0  0  0
  8  5  1  0  0  0  0
  9 10  1  6  0  0  0
 10 11  2  0  0  0  0
 10 19  1  0  0  0  0
 11 13  1  0  0  0  0
 12 11  1  0  0  0  0
 13 14  1  0  0  0  0
 13 15  2  0  0  0  0
 15 16  1  0  0  0  0
 17 15  1  0  0  0  0
 17 18  1  0  0  0  0
 19 17  2  0  0  0  0
 20 19  1  0  0  0  0
 21 30  1  0  0  0  0
 22 24  1  0  0  0  0
 22 21  2  0  0  0  0
 23 22  1  0  0  0  0
 24 26  2  0  0  0  0
 25 24  1  0  0  0  0
 26 27  1  0  0  0  0
 26 28  1  0  0  0  0
 28 29  1  0  0  0  0
 30 31  1  0  0  0  0
 30 28  2  0  0  0  0
 32  6  1  0  0  0  0
 33 32  1  0  0  0  0
 33 34  1  0  0  0  0
 34 35  1  0  0  0  0
 34 37  1  0  0  0  0
 36 34  1  0  0  0  0
 38 33  2  0  0  0  0
 39 38  1  0  0  0  0
 40 42  2  0  0  0  0
 40 38  1  0  0  0  0
 41 40  1  0  0  0  0
 42 44  1  0  0  0  0
 43 42  1  0  0  0  0
 44 45  1  0  0  0  0
 44 32  2  0  0  0  0
 45 48  1  0  0  0  0
 45 46  1  0  0  0  0
 47 45  1  0  0  0  0
 49  1  1  0  0  0  0
 50  7  1  0  0  0  0
 51 50  1  0  0  0  0
 51 52  1  0  0  0  0
 52 54  1  0  0  0  0
 52 53  1  0  0  0  0
 55 52  1  0  0  0  0
 56 51  2  0  0  0  0
 57 56  1  0  0  0  0
 58 60  2  0  0  0  0
 58 56  1  0  0  0  0
 59 58  1  0  0  0  0
 60 62  1  0  0  0  0
 61 60  1  0  0  0  0
 62 63  1  0  0  0  0
 62 50  2  0  0  0  0
 63 66  1  0  0  0  0
 63 64  1  0  0  0  0
 65 63  1  0  0  0  0
M  END
$$$$
