CSD_code = AVICAL | q = 0 | S = 0 | Stoichiometry = C44H43Cl2N3P2Ru | MND = 6
 OpenBabel04212202003D

 95103  0  0  1  0  0  0  0  0999 V2000
    9.5061    7.6538   13.7582 Ru  0  0  0  0  0  0  0  0  0  0  0  0
    7.2668    7.6295   13.1812 P   0  0  0  0  0  4  0  0  0  0  0  0
   11.7906    7.7287   14.4725 Cl  0  0  0  0  0  0  0  0  0  0  0  0
   10.2341    7.1719   11.6290 P   0  0  0  0  0  4  0  0  0  0  0  0
    9.0306    7.2903   10.2343 C   0  0  0  0  0  0  0  0  0  0  0  0
    9.5704    7.0592    9.3110 H   0  0  0  0  0  0  0  0  0  0  0  0
    8.2630    6.5272   10.3859 H   0  0  0  0  0  0  0  0  0  0  0  0
    9.3044    9.9924   13.2590 Cl  0  0  0  0  0  0  0  0  0  0  0  0
    9.6788    5.6541   14.4906 N   0  0  0  0  0  4  0  0  0  0  0  0
   12.0855    9.2660   11.4460 C   0  0  0  0  0  0  0  0  0  0  0  0
   11.5741    9.6862   12.2994 H   0  0  0  0  0  0  0  0  0  0  0  0
   10.2868    4.4667   10.6818 C   0  0  0  0  0  0  0  0  0  0  0  0
    9.4164    4.6757   10.0778 H   0  0  0  0  0  0  0  0  0  0  0  0
   11.6576    8.0581   10.9125 C   0  0  0  0  0  0  0  0  0  0  0  0
   13.3999    8.1792    9.2607 C   0  0  0  0  0  0  0  0  0  0  0  0
   13.9148    7.7527    8.4113 H   0  0  0  0  0  0  0  0  0  0  0  0
   12.3230    7.5160    9.8146 C   0  0  0  0  0  0  0  0  0  0  0  0
   12.0034    6.5677    9.4018 H   0  0  0  0  0  0  0  0  0  0  0  0
   13.1659    9.9265   10.8869 C   0  0  0  0  0  0  0  0  0  0  0  0
   13.4961   10.8644   11.3083 H   0  0  0  0  0  0  0  0  0  0  0  0
   13.8236    9.3858    9.7964 C   0  0  0  0  0  0  0  0  0  0  0  0
   14.6696    9.8992    9.3627 H   0  0  0  0  0  0  0  0  0  0  0  0
   11.9549    2.8969   11.4123 C   0  0  0  0  0  0  0  0  0  0  0  0
   12.3765    1.9027   11.3871 H   0  0  0  0  0  0  0  0  0  0  0  0
   10.8626    5.4597   11.4676 C   0  0  0  0  0  0  0  0  0  0  0  0
   11.9940    5.1524   12.2237 C   0  0  0  0  0  0  0  0  0  0  0  0
   12.4380    5.9268   12.8363 H   0  0  0  0  0  0  0  0  0  0  0  0
   12.5366    3.8819   12.1954 C   0  0  0  0  0  0  0  0  0  0  0  0
   13.4156    3.6591   12.7823 H   0  0  0  0  0  0  0  0  0  0  0  0
    9.0298    7.8583   15.7393 N   0  0  0  0  0  0  0  0  0  0  0  0
    8.5943    5.4868   15.4527 C   0  0  1  0  0  0  0  0  0  0  0  0
    8.7929    4.2731   16.3590 C   0  0  0  0  0  0  0  0  0  0  0  0
    8.8067    3.3585   15.7691 H   0  0  0  0  0  0  0  0  0  0  0  0
    7.9821    4.2218   17.0788 H   0  0  0  0  0  0  0  0  0  0  0  0
    9.7323    4.3594   16.9021 H   0  0  0  0  0  0  0  0  0  0  0  0
    6.5839    8.8748   11.9862 C   0  0  0  0  0  0  0  0  0  0  0  0
    5.4988    8.8921   12.1408 H   0  0  0  0  0  0  0  0  0  0  0  0
    6.9927    9.8420   12.2891 H   0  0  0  0  0  0  0  0  0  0  0  0
    6.8823    8.6527   10.5046 C   0  0  0  0  0  0  0  0  0  0  0  0
    6.4341    7.7124   10.1676 H   0  0  0  0  0  0  0  0  0  0  0  0
    6.3845    9.4608    9.9614 H   0  0  0  0  0  0  0  0  0  0  0  0
    8.3732    8.6742   10.1523 C   0  0  0  0  0  0  0  0  0  0  0  0
    8.8853    9.3725   10.8221 H   0  0  0  0  0  0  0  0  0  0  0  0
    8.4867    9.0578    9.1367 H   0  0  0  0  0  0  0  0  0  0  0  0
    8.5702    8.8969   17.8783 C   0  0  0  0  0  0  0  0  0  0  0  0
    8.4980    6.7600   16.2617 C   0  0  0  0  0  0  0  0  0  0  0  0
    9.1918    8.9100   16.5950 C   0  0  1  0  0  3  0  0  0  0  0  0
    7.7802    7.7562   18.1868 C   0  0  0  0  0  0  0  0  0  0  0  0
    7.8640    6.6821   17.4175 N   0  0  0  0  0  0  0  0  0  0  0  0
    8.8248    9.9511   18.7734 C   0  0  0  0  0  0  0  0  0  0  0  0
    8.4198    9.8972   19.7724 H   0  0  0  0  0  0  0  0  0  0  0  0
   10.0303    9.9849   16.2599 C   0  0  0  0  0  0  0  0  0  0  0  0
   10.5575    9.9698   15.3201 H   0  0  0  0  0  0  0  0  0  0  0  0
    9.6194   11.0032   18.4017 C   0  0  0  0  0  0  0  0  0  0  0  0
    9.8076   11.8097   19.0953 H   0  0  0  0  0  0  0  0  0  0  0  0
   10.2223   11.0178   17.1404 C   0  0  0  0  0  0  0  0  0  0  0  0
   10.8741   11.8341   16.8689 H   0  0  0  0  0  0  0  0  0  0  0  0
    6.2282    8.0568   14.6215 C   0  0  0  0  0  0  0  0  0  0  0  0
    6.3192    9.3603   15.1069 C   0  0  0  0  0  0  0  0  0  0  0  0
    6.9770   10.0667   14.6173 H   0  0  0  0  0  0  0  0  0  0  0  0
    4.7152    7.5207   16.4127 C   0  0  0  0  0  0  0  0  0  0  0  0
    4.1033    6.7976   16.9315 H   0  0  0  0  0  0  0  0  0  0  0  0
   10.8330    3.1937   10.6577 C   0  0  0  0  0  0  0  0  0  0  0  0
   10.3805    2.4309   10.0397 H   0  0  0  0  0  0  0  0  0  0  0  0
    5.4399    7.1335   15.2999 C   0  0  0  0  0  0  0  0  0  0  0  0
    5.3804    6.1092   14.9578 H   0  0  0  0  0  0  0  0  0  0  0  0
    4.7774    8.8267   16.8652 C   0  0  0  0  0  0  0  0  0  0  0  0
    4.1992    9.1243   17.7272 H   0  0  0  0  0  0  0  0  0  0  0  0
    7.2013    5.0210   12.2070 C   0  0  0  0  0  0  0  0  0  0  0  0
    8.2743    5.0717   12.3406 H   0  0  0  0  0  0  0  0  0  0  0  0
    6.4333    6.1281   12.5437 C   0  0  0  0  0  0  0  0  0  0  0  0
    5.0563    6.0779   12.3475 C   0  0  0  0  0  0  0  0  0  0  0  0
    4.4416    6.9271   12.6099 H   0  0  0  0  0  0  0  0  0  0  0  0
    5.2452    3.8396   11.4949 C   0  0  0  0  0  0  0  0  0  0  0  0
    4.7810    2.9541   11.0871 H   0  0  0  0  0  0  0  0  0  0  0  0
    6.6156    3.8815   11.6849 C   0  0  0  0  0  0  0  0  0  0  0  0
    7.2290    3.0305   11.4253 H   0  0  0  0  0  0  0  0  0  0  0  0
    4.4692    4.9394   11.8271 C   0  0  0  0  0  0  0  0  0  0  0  0
    3.3998    4.9088   11.6779 H   0  0  0  0  0  0  0  0  0  0  0  0
    5.5921    9.7422   16.2180 C   0  0  0  0  0  0  0  0  0  0  0  0
    5.6639   10.7578   16.5803 H   0  0  0  0  0  0  0  0  0  0  0  0
    6.8914    7.6561   19.3411 C   0  0  0  0  0  0  0  0  0  0  0  0
    6.7371    6.4210   19.9718 C   0  0  0  0  0  0  0  0  0  0  0  0
    7.2983    5.5785   19.5987 H   0  0  0  0  0  0  0  0  0  0  0  0
    5.3128    8.6064   20.8916 C   0  0  0  0  0  0  0  0  0  0  0  0
    4.7471    9.4571   21.2433 H   0  0  0  0  0  0  0  0  0  0  0  0
    5.1848    7.3816   21.5257 C   0  0  0  0  0  0  0  0  0  0  0  0
    4.5273    7.2785   22.3762 H   0  0  0  0  0  0  0  0  0  0  0  0
    6.1578    8.7472   19.8069 C   0  0  0  0  0  0  0  0  0  0  0  0
    6.2251    9.6962   19.2970 H   0  0  0  0  0  0  0  0  0  0  0  0
    5.8959    6.2877   21.0582 C   0  0  0  0  0  0  0  0  0  0  0  0
    5.7927    5.3288   21.5446 H   0  0  0  0  0  0  0  0  0  0  0  0
   10.5823    5.7400   14.9810 H   0  0  0  0  0  0  0  0  0  0  0  0
    9.7508    4.8400   13.8805 H   0  0  0  0  0  0  0  0  0  0  0  0
    7.6572    5.3640   14.8865 H   0  0  0  0  0  0  0  0  0  0  0  0
  1  3  1  0  0  0  0
  1  9  1  0  0  0  0
  1 30  1  0  0  0  0
  2  1  1  0  0  0  0
  2 58  1  0  0  0  0
  4  1  1  0  0  0  0
  5  7  1  0  0  0  0
  5  4  1  0  0  0  0
  6  5  1  0  0  0  0
  8  1  1  0  0  0  0
  9 93  1  0  0  0  0
  9 31  1  0  0  0  0
 10 11  1  0  0  0  0
 12 25  1  0  0  0  0
 13 12  1  0  0  0  0
 14 10  1  0  0  0  0
 14  4  1  0  0  0  0
 15 21  2  0  0  0  0
 15 17  1  0  0  0  0
 16 15  1  0  0  0  0
 17 14  2  0  0  0  0
 18 17  1  0  0  0  0
 19 20  1  0  0  0  0
 19 10  2  0  0  0  0
 21 19  1  0  0  0  0
 22 21  1  0  0  0  0
 23 28  2  0  0  0  0
 24 23  1  0  0  0  0
 25  4  1  0  0  0  0
 25 26  2  0  0  0  0
 26 27  1  0  0  0  0
 28 26  1  0  0  0  0
 28 29  1  0  0  0  0
 30 46  1  0  0  0  0
 30 47  1  0  0  0  0
 31 95  1  6  0  0  0
 31 46  1  0  0  0  0
 31 32  1  0  0  0  0
 32 35  1  0  0  0  0
 32 34  1  0  0  0  0
 33 32  1  0  0  0  0
 36 37  1  0  0  0  0
 36 38  1  0  0  0  0
 36  2  1  0  0  0  0
 39 36  1  0  0  0  0
 40 39  1  0  0  0  0
 41 39  1  0  0  0  0
 42  5  1  0  0  0  0
 42 39  1  0  0  0  0
 42 43  1  0  0  0  0
 44 42  1  0  0  0  0
 45 48  2  0  0  0  0
 45 50  1  0  0  0  0
 46 49  2  0  0  0  0
 47 52  1  1  0  0  0
 47 45  1  0  0  0  0
 48 82  1  0  0  0  0
 49 48  1  0  0  0  0
 50 51  1  0  0  0  0
 52 56  2  0  0  0  0
 53 52  1  0  0  0  0
 54 50  2  0  0  0  0
 54 55  1  0  0  0  0
 56 54  1  0  0  0  0
 57 56  1  0  0  0  0
 58 59  2  0  0  0  0
 58 65  1  0  0  0  0
 59 80  1  0  0  0  0
 60 59  1  0  0  0  0
 61 67  1  0  0  0  0
 61 62  1  0  0  0  0
 63 12  2  0  0  0  0
 63 23  1  0  0  0  0
 64 63  1  0  0  0  0
 65 61  2  0  0  0  0
 66 65  1  0  0  0  0
 67 68  1  0  0  0  0
 69 70  1  0  0  0  0
 69 71  1  0  0  0  0
 71  2  1  0  0  0  0
 72 71  2  0  0  0  0
 72 73  1  0  0  0  0
 74 76  1  0  0  0  0
 74 78  2  0  0  0  0
 75 74  1  0  0  0  0
 76 69  2  0  0  0  0
 77 76  1  0  0  0  0
 78 72  1  0  0  0  0
 79 78  1  0  0  0  0
 80 81  1  0  0  0  0
 80 67  2  0  0  0  0
 82 89  2  0  0  0  0
 82 83  1  0  0  0  0
 83 91  2  0  0  0  0
 84 83  1  0  0  0  0
 85 86  1  0  0  0  0
 85 87  2  0  0  0  0
 87 88  1  0  0  0  0
 89 85  1  0  0  0  0
 90 89  1  0  0  0  0
 91 87  1  0  0  0  0
 91 92  1  0  0  0  0
 94  9  1  0  0  0  0
M  END
$$$$
