CSD_code = AVIQEB | q = 0 | S = 0 | Stoichiometry = C22H32Cl2N2O2Ti | MND = 6
 OpenBabel04212202003D

 61 64  0  0  0  0  0  0  0  0999 V2000
    1.1298    2.0962    5.7811 Ti  0  0  0  0  0  0  0  0  0  0  0  0
    2.8144    0.9468    4.7600 Cl  0  0  0  0  0  0  0  0  0  0  0  0
    0.5475    2.9468    3.7456 Cl  0  0  0  0  0  0  0  0  0  0  0  0
    1.5741    1.2243    7.2483 O   0  0  0  0  0  0  0  0  0  0  0  0
   -0.0352    3.0873    6.6217 O   0  0  0  0  0  0  0  0  0  0  0  0
   -0.4433    0.5618    5.3777 N   0  0  0  0  0  4  0  0  0  0  0  0
    2.5278    3.8538    5.9574 N   0  0  0  0  0  4  0  0  0  0  0  0
    1.6859   -0.0849    7.4121 C   0  0  0  0  0  0  0  0  0  0  0  0
    0.5903   -0.9053    7.0912 C   0  0  0  0  0  0  0  0  0  0  0  0
    0.6740   -2.2794    7.2499 C   0  0  0  0  0  0  0  0  0  0  0  0
    1.8285   -2.8755    7.7328 C   0  0  0  0  0  0  0  0  0  0  0  0
    2.9073   -2.0581    8.0485 C   0  0  0  0  0  0  0  0  0  0  0  0
    2.8620   -0.6840    7.8999 C   0  0  0  0  0  0  0  0  0  0  0  0
   -0.6643   -0.2378    6.5983 C   0  0  0  0  0  0  0  0  0  0  0  0
   -0.0460   -0.3328    4.2851 C   0  0  0  0  0  0  0  0  0  0  0  0
   -1.7153    1.1961    5.0169 C   0  0  0  0  0  0  0  0  0  0  0  0
    1.9269   -4.3637    7.8865 C   0  0  0  0  0  0  0  0  0  0  0  0
    4.0513    0.1748    8.2043 C   0  0  0  0  0  0  0  0  0  0  0  0
   -0.0096    4.0683    7.5026 C   0  0  0  0  0  0  0  0  0  0  0  0
    0.8794    5.1382    7.3041 C   0  0  0  0  0  0  0  0  0  0  0  0
    0.9255    6.1830    8.2124 C   0  0  0  0  0  0  0  0  0  0  0  0
    0.0980    6.2035    9.3249 C   0  0  0  0  0  0  0  0  0  0  0  0
   -0.7717    5.1362    9.5200 C   0  0  0  0  0  0  0  0  0  0  0  0
   -0.8413    4.0729    8.6390 C   0  0  0  0  0  0  0  0  0  0  0  0
    1.7477    5.1048    6.0780 C   0  0  0  0  0  0  0  0  0  0  0  0
    3.3483    3.6747    7.1576 C   0  0  0  0  0  0  0  0  0  0  0  0
    3.4251    4.0101    4.8065 C   0  0  0  0  0  0  0  0  0  0  0  0
    0.1365    7.3360   10.3067 C   0  0  0  0  0  0  0  0  0  0  0  0
   -1.7613    2.9128    8.8771 C   0  0  0  0  0  0  0  0  0  0  0  0
   -0.1798   -2.8931    6.9958 H   0  0  0  0  0  0  0  0  0  0  0  0
    3.8175   -2.5104    8.4169 H   0  0  0  0  0  0  0  0  0  0  0  0
   -1.0378    0.4445    7.3731 H   0  0  0  0  0  0  0  0  0  0  0  0
   -1.4334   -1.0023    6.4007 H   0  0  0  0  0  0  0  0  0  0  0  0
   -0.8538   -1.0434    4.0586 H   0  0  0  0  0  0  0  0  0  0  0  0
    0.8477   -0.8937    4.5670 H   0  0  0  0  0  0  0  0  0  0  0  0
    0.1752    0.2549    3.3907 H   0  0  0  0  0  0  0  0  0  0  0  0
   -1.6126    1.7182    4.0650 H   0  0  0  0  0  0  0  0  0  0  0  0
   -1.9930    1.9249    5.7807 H   0  0  0  0  0  0  0  0  0  0  0  0
   -2.5094    0.4412    4.9257 H   0  0  0  0  0  0  0  0  0  0  0  0
    2.4682   -4.7928    7.0430 H   0  0  0  0  0  0  0  0  0  0  0  0
    0.9393   -4.8167    7.9225 H   0  0  0  0  0  0  0  0  0  0  0  0
    2.4661   -4.6224    8.7951 H   0  0  0  0  0  0  0  0  0  0  0  0
    4.4741    0.5367    7.2655 H   0  0  0  0  0  0  0  0  0  0  0  0
    4.8127   -0.3908    8.7350 H   0  0  0  0  0  0  0  0  0  0  0  0
    3.7542    1.0339    8.8049 H   0  0  0  0  0  0  0  0  0  0  0  0
    1.6131    7.0002    8.0420 H   0  0  0  0  0  0  0  0  0  0  0  0
   -1.4139    5.1362   10.3898 H   0  0  0  0  0  0  0  0  0  0  0  0
    1.1156    5.1868    5.1828 H   0  0  0  0  0  0  0  0  0  0  0  0
    2.4387    5.9628    6.1004 H   0  0  0  0  0  0  0  0  0  0  0  0
    3.9774    2.7932    7.0282 H   0  0  0  0  0  0  0  0  0  0  0  0
    2.7083    3.5345    8.0324 H   0  0  0  0  0  0  0  0  0  0  0  0
    3.9907    4.5527    7.3223 H   0  0  0  0  0  0  0  0  0  0  0  0
    4.0765    4.8846    4.9461 H   0  0  0  0  0  0  0  0  0  0  0  0
    2.8409    4.1428    3.8946 H   0  0  0  0  0  0  0  0  0  0  0  0
    4.0429    3.1195    4.6894 H   0  0  0  0  0  0  0  0  0  0  0  0
   -0.8550    7.7699   10.4257 H   0  0  0  0  0  0  0  0  0  0  0  0
    0.8184    8.1146    9.9754 H   0  0  0  0  0  0  0  0  0  0  0  0
    0.4635    6.9820   11.2839 H   0  0  0  0  0  0  0  0  0  0  0  0
   -2.4290    2.7767    8.0260 H   0  0  0  0  0  0  0  0  0  0  0  0
   -2.3596    3.0694    9.7708 H   0  0  0  0  0  0  0  0  0  0  0  0
   -1.1742    2.0006    9.0010 H   0  0  0  0  0  0  0  0  0  0  0  0
  1  7  1  0  0  0  0
  1  5  1  0  0  0  0
  1  4  1  0  0  0  0
  2  1  1  0  0  0  0
  3  1  1  0  0  0  0
  4  8  1  0  0  0  0
  5 19  1  0  0  0  0
  6  1  1  0  0  0  0
  6 14  1  0  0  0  0
  7 25  1  0  0  0  0
  7 26  1  0  0  0  0
  8 13  1  0  0  0  0
  9 10  1  0  0  0  0
  9  8  2  0  0  0  0
 10 11  2  0  0  0  0
 11 17  1  0  0  0  0
 11 12  1  0  0  0  0
 12 31  1  0  0  0  0
 13 12  2  0  0  0  0
 13 18  1  0  0  0  0
 14  9  1  0  0  0  0
 14 32  1  0  0  0  0
 15 35  1  0  0  0  0
 15  6  1  0  0  0  0
 16  6  1  0  0  0  0
 16 38  1  0  0  0  0
 17 41  1  0  0  0  0
 17 42  1  0  0  0  0
 18 44  1  0  0  0  0
 18 45  1  0  0  0  0
 19 24  1  0  0  0  0
 20 19  2  0  0  0  0
 20 21  1  0  0  0  0
 21 22  2  0  0  0  0
 22 23  1  0  0  0  0
 22 28  1  0  0  0  0
 23 47  1  0  0  0  0
 24 29  1  0  0  0  0
 24 23  2  0  0  0  0
 25 49  1  0  0  0  0
 25 20  1  0  0  0  0
 26 52  1  0  0  0  0
 26 51  1  0  0  0  0
 27 53  1  0  0  0  0
 27  7  1  0  0  0  0
 28 56  1  0  0  0  0
 28 58  1  0  0  0  0
 29 61  1  0  0  0  0
 29 60  1  0  0  0  0
 30 10  1  0  0  0  0
 33 14  1  0  0  0  0
 34 15  1  0  0  0  0
 36 15  1  0  0  0  0
 37 16  1  0  0  0  0
 39 16  1  0  0  0  0
 40 17  1  0  0  0  0
 43 18  1  0  0  0  0
 46 21  1  0  0  0  0
 48 25  1  0  0  0  0
 50 26  1  0  0  0  0
 54 27  1  0  0  0  0
 55 27  1  0  0  0  0
 57 28  1  0  0  0  0
 59 29  1  0  0  0  0
M  END
$$$$
