CSD_code = AVIQUS | q = 0 | S = 0 | Stoichiometry = C15H12ClN2O5Re | MND = 6
 OpenBabel04212202003D

 36 38  0  0  0  0  0  0  0  0999 V2000
   -4.5282    2.1004    9.8437 C   0  0  0  0  0  3  0  0  0  0  0  0
   -5.0273    1.1644   10.0589 H   0  0  0  0  0  0  0  0  0  0  0  0
   -5.2259    3.2875    9.9473 C   0  0  0  0  0  0  0  0  0  0  0  0
   -6.2591    3.2669   10.2506 H   0  0  0  0  0  0  0  0  0  0  0  0
   -4.5568    4.4789    9.6651 C   0  0  0  0  0  0  0  0  0  0  0  0
   -3.2184    4.3919    9.2758 C   0  0  0  0  0  0  0  0  0  0  0  0
   -2.6971    5.3070    9.0549 H   0  0  0  0  0  0  0  0  0  0  0  0
   -2.5940    3.1575    9.2040 C   0  0  0  0  0  0  0  0  0  0  0  0
    0.5268    1.5228    8.4082 C   0  0  0  0  0  3  0  0  0  0  0  0
    0.8568    0.4920    8.3884 H   0  0  0  0  0  0  0  0  0  0  0  0
    1.4060    2.5293    8.0608 C   0  0  0  0  0  0  0  0  0  0  0  0
    2.4151    2.2752    7.7833 H   0  0  0  0  0  0  0  0  0  0  0  0
    0.9533    3.8487    8.0949 C   0  0  0  0  0  0  0  0  0  0  0  0
   -0.3757    4.0665    8.4644 C   0  0  0  0  0  0  0  0  0  0  0  0
   -0.7315    5.0818    8.4912 H   0  0  0  0  0  0  0  0  0  0  0  0
   -1.1876    2.9966    8.8034 C   0  0  0  0  0  0  0  0  0  0  0  0
   -6.4318    5.8551   10.1279 C   0  0  0  0  0  0  0  0  0  0  0  0
   -6.6297    6.9251   10.1113 H   0  0  0  0  0  0  0  0  0  0  0  0
   -6.5860    5.4726   11.1408 H   0  0  0  0  0  0  0  0  0  0  0  0
   -7.1113    5.3492    9.4360 H   0  0  0  0  0  0  0  0  0  0  0  0
    3.0339    4.7726    7.4307 C   0  0  0  0  0  0  0  0  0  0  0  0
    3.4127    5.7767    7.2497 H   0  0  0  0  0  0  0  0  0  0  0  0
    3.1314    4.1775    6.5181 H   0  0  0  0  0  0  0  0  0  0  0  0
    3.6084    4.3075    8.2364 H   0  0  0  0  0  0  0  0  0  0  0  0
   -2.5637   -0.5507    8.0930 C   0  0  0  0  0  2  0  0  0  0  0  0
   -3.2384   -0.7211   10.8601 C   0  0  0  0  0  2  0  0  0  0  0  0
   -0.6039   -1.0224   10.1127 C   0  0  0  0  0  2  0  0  0  0  0  0
   -1.3166    1.5545   11.6406 Cl  0  0  0  0  0  0  0  0  0  0  0  0
   -3.2516    2.0178    9.4919 N   0  0  0  0  0  0  0  0  0  0  0  0
   -0.7309    1.7297    8.7766 N   0  0  0  0  0  0  0  0  0  0  0  0
   -5.0865    5.7116    9.7239 O   0  0  0  0  0  0  0  0  0  0  0  0
    1.6796    4.9376    7.7941 O   0  0  0  0  0  0  0  0  0  0  0  0
   -3.9735   -1.2283   11.5773 O   0  0  0  0  0  1  0  0  0  0  0  0
   -2.8995   -1.0189    7.0974 O   0  0  0  0  0  1  0  0  0  0  0  0
    0.2713   -1.7145   10.3725 O   0  0  0  0  0  1  0  0  0  0  0  0
   -1.9979    0.2887    9.7485 Re  0  0  0  0  0  0  0  0  0  0  0  0
  1  3  1  0  0  0  0
  1  2  1  0  0  0  0
  3  4  1  0  0  0  0
  5 31  1  0  0  0  0
  5  3  2  0  0  0  0
  6  5  1  0  0  0  0
  7  6  1  0  0  0  0
  8  6  2  0  0  0  0
  8 29  1  0  0  0  0
  9 30  1  0  0  0  0
 10  9  1  0  0  0  0
 11 13  2  0  0  0  0
 11  9  1  0  0  0  0
 12 11  1  0  0  0  0
 13 14  1  0  0  0  0
 14 15  1  0  0  0  0
 14 16  2  0  0  0  0
 16  8  1  0  0  0  0
 17 19  1  0  0  0  0
 18 17  1  0  0  0  0
 20 17  1  0  0  0  0
 21 32  1  0  0  0  0
 21 24  1  0  0  0  0
 22 21  1  0  0  0  0
 23 21  1  0  0  0  0
 25 36  1  0  0  0  0
 26 33  1  0  0  0  0
 27 35  1  0  0  0  0
 29 36  1  0  0  0  0
 29  1  1  0  0  0  0
 30 16  1  0  0  0  0
 30 36  1  0  0  0  0
 31 17  1  0  0  0  0
 32 13  1  0  0  0  0
 34 25  1  0  0  0  0
 36 27  1  0  0  0  0
 36 26  1  0  0  0  0
 36 28  1  0  0  0  0
M  END
$$$$
