CSD_code = AVIQOM | q = 0 | S = 0 | Stoichiometry = C15H12ClN2O3Re | MND = 6
 OpenBabel04212202003D

 34 36  0  0  0  0  0  0  0  0999 V2000
   -1.5662   -1.7685    3.6996 C   0  0  0  0  0  3  0  0  0  0  0  0
   -2.0434   -2.6111    3.2157 H   0  0  0  0  0  0  0  0  0  0  0  0
   -2.1657   -1.1514    4.7781 C   0  0  0  0  0  0  0  0  0  0  0  0
   -3.1114   -1.5141    5.1486 H   0  0  0  0  0  0  0  0  0  0  0  0
   -1.5313   -0.0703    5.3861 C   0  0  0  0  0  0  0  0  0  0  0  0
   -0.3229    0.3394    4.8443 C   0  0  0  0  0  0  0  0  0  0  0  0
    0.1949    1.1755    5.2858 H   0  0  0  0  0  0  0  0  0  0  0  0
    0.2258   -0.3318    3.7543 C   0  0  0  0  0  0  0  0  0  0  0  0
    3.0020   -0.3705    1.4452 C   0  0  0  0  0  3  0  0  0  0  0  0
    3.2695   -0.9884    0.5977 H   0  0  0  0  0  0  0  0  0  0  0  0
    3.8110    0.6813    1.8251 C   0  0  0  0  0  0  0  0  0  0  0  0
    4.7191    0.8849    1.2802 H   0  0  0  0  0  0  0  0  0  0  0  0
    3.4495    1.4588    2.9221 C   0  0  0  0  0  0  0  0  0  0  0  0
    2.2635    1.1339    3.5638 C   0  0  0  0  0  0  0  0  0  0  0  0
    1.9513    1.7160    4.4157 H   0  0  0  0  0  0  0  0  0  0  0  0
    1.4959    0.0581    3.1264 C   0  0  0  0  0  0  0  0  0  0  0  0
   -2.1288    0.6042    6.5756 C   0  0  0  0  0  0  0  0  0  0  0  0
   -1.6149    1.5350    6.8015 H   0  0  0  0  0  0  0  0  0  0  0  0
   -2.0551   -0.0506    7.4438 H   0  0  0  0  0  0  0  0  0  0  0  0
   -3.1838    0.8108    6.4061 H   0  0  0  0  0  0  0  0  0  0  0  0
    4.2880    2.6089    3.3711 C   0  0  0  0  0  0  0  0  0  0  0  0
    5.3426    2.4051    3.2021 H   0  0  0  0  0  0  0  0  0  0  0  0
    4.1291    2.8215    4.4254 H   0  0  0  0  0  0  0  0  0  0  0  0
    4.0230    3.4998    2.8005 H   0  0  0  0  0  0  0  0  0  0  0  0
   -0.1450   -1.9650    0.2601 C   0  0  0  0  0  2  0  0  0  0  0  0
   -0.1813   -4.1994    2.0462 C   0  0  0  0  0  2  0  0  0  0  0  0
    2.2076   -3.4714    0.8698 C   0  0  0  0  0  2  0  0  0  0  0  0
   -0.3964   -1.3854    3.1966 N   0  0  0  0  0  0  0  0  0  0  0  0
    1.8763   -0.6906    2.0755 N   0  0  0  0  0  0  0  0  0  0  0  0
   -0.7130   -1.5963   -0.6694 O   0  0  0  0  0  1  0  0  0  0  0  0
   -0.7454   -5.1692    2.2731 O   0  0  0  0  0  1  0  0  0  0  0  0
    3.0975   -3.9985    0.3796 O   0  0  0  0  0  1  0  0  0  0  0  0
    1.9532   -2.9930    3.8906 Cl  0  0  0  0  0  0  0  0  0  0  0  0
    0.8099   -2.5318    1.8520 Re  0  0  0  0  0  0  0  0  0  0  0  0
  1  3  1  0  0  0  0
  2  1  1  0  0  0  0
  3  4  1  0  0  0  0
  3  5  2  0  0  0  0
  5 17  1  0  0  0  0
  6  7  1  0  0  0  0
  6  5  1  0  0  0  0
  8  6  2  0  0  0  0
  9 11  1  0  0  0  0
  9 29  1  0  0  0  0
 10  9  1  0  0  0  0
 11 13  2  0  0  0  0
 12 11  1  0  0  0  0
 13 21  1  0  0  0  0
 13 14  1  0  0  0  0
 14 15  1  0  0  0  0
 16 14  2  0  0  0  0
 16  8  1  0  0  0  0
 17 18  1  0  0  0  0
 17 19  1  0  0  0  0
 20 17  1  0  0  0  0
 21 23  1  0  0  0  0
 22 21  1  0  0  0  0
 24 21  1  0  0  0  0
 25 34  1  0  0  0  0
 26 31  1  0  0  0  0
 27 34  1  0  0  0  0
 28  1  1  0  0  0  0
 28  8  1  0  0  0  0
 29 16  1  0  0  0  0
 30 25  1  0  0  0  0
 32 27  1  0  0  0  0
 34 26  1  0  0  0  0
 34 29  1  0  0  0  0
 34 28  1  0  0  0  0
 34 33  1  0  0  0  0
M  END
$$$$
