CSD_code = AVIVOS | q = 0 | S = 0 | Stoichiometry = C23H20Cl2NPPt | MND = 4
 OpenBabel04212202003D

 48 51  0  0  0  0  0  0  0  0999 V2000
    1.6682    4.3507    3.2725 Pt  0  0  0  0  0  0  0  0  0  0  0  0
    2.8948    5.4655    1.6639 Cl  0  0  0  0  0  0  0  0  0  0  0  0
    0.4203    3.2901    4.9265 Cl  0  0  0  0  0  0  0  0  0  0  0  0
    2.1943    5.7446    4.5979 N   0  0  0  0  0  0  0  0  0  0  0  0
    1.2691    6.4660    5.2274 C   0  0  0  0  0  3  0  0  0  0  0  0
    0.2354    6.2474    4.9874 H   0  0  0  0  0  0  0  0  0  0  0  0
    1.5966    7.4386    6.1547 C   0  0  0  0  0  0  0  0  0  0  0  0
    0.8162    8.0032    6.6395 H   0  0  0  0  0  0  0  0  0  0  0  0
    2.9327    7.6667    6.4460 C   0  0  0  0  0  0  0  0  0  0  0  0
    3.2206    8.4167    7.1669 H   0  0  0  0  0  0  0  0  0  0  0  0
    3.8900    6.9089    5.7894 C   0  0  0  0  0  0  0  0  0  0  0  0
    4.9415    7.0502    5.9827 H   0  0  0  0  0  0  0  0  0  0  0  0
    3.4797    5.9608    4.8698 C   0  0  0  0  0  0  0  0  0  0  0  0
    4.1989    5.3626    4.3229 H   0  0  0  0  0  0  0  0  0  0  0  0
    1.0292    2.7330    1.8279 P   0  0  0  0  0  4  0  0  0  0  0  0
    1.2873    2.9780    0.0459 C   0  0  0  0  0  0  0  0  0  0  0  0
    0.2528    3.2570   -0.8377 C   0  0  0  0  0  0  0  0  0  0  0  0
   -0.7669    3.3026   -0.4810 H   0  0  0  0  0  0  0  0  0  0  0  0
    0.5316    3.4755   -2.1761 C   0  0  0  0  0  0  0  0  0  0  0  0
   -0.2745    3.6913   -2.8624 H   0  0  0  0  0  0  0  0  0  0  0  0
    1.8371    3.4247   -2.6337 C   0  0  0  0  0  0  0  0  0  0  0  0
    2.0500    3.6021   -3.6777 H   0  0  0  0  0  0  0  0  0  0  0  0
    2.8721    3.1534   -1.7519 C   0  0  0  0  0  0  0  0  0  0  0  0
    3.8916    3.1226   -2.1067 H   0  0  0  0  0  0  0  0  0  0  0  0
    2.6002    2.9324   -0.4164 C   0  0  0  0  0  0  0  0  0  0  0  0
    3.4002    2.7335    0.2839 H   0  0  0  0  0  0  0  0  0  0  0  0
   -0.7570    2.4530    1.9758 C   0  0  0  0  0  0  0  0  0  0  0  0
   -1.5259    3.6086    2.0995 C   0  0  0  0  0  0  0  0  0  0  0  0
   -1.0217    4.5723    2.1032 H   0  0  0  0  0  0  0  0  0  0  0  0
   -2.8974    3.5203    2.2315 C   0  0  0  0  0  0  0  0  0  0  0  0
   -3.4930    4.4161    2.3298 H   0  0  0  0  0  0  0  0  0  0  0  0
   -3.5068    2.2746    2.2500 C   0  0  0  0  0  0  0  0  0  0  0  0
   -4.5786    2.2010    2.3612 H   0  0  0  0  0  0  0  0  0  0  0  0
   -2.7433    1.1248    2.1415 C   0  0  0  0  0  0  0  0  0  0  0  0
   -3.2203    0.1559    2.1709 H   0  0  0  0  0  0  0  0  0  0  0  0
   -1.3676    1.2080    2.0045 C   0  0  0  0  0  0  0  0  0  0  0  0
   -0.7721    0.3090    1.9375 H   0  0  0  0  0  0  0  0  0  0  0  0
    1.8399    1.1358    2.1096 C   0  0  0  0  0  0  0  0  0  0  0  0
    2.6003    0.9742    3.2620 C   0  0  0  0  0  0  0  0  0  0  0  0
    2.6828    1.8034    3.9578 H   0  0  0  0  0  0  0  0  0  0  0  0
    3.2345   -0.2300    3.5104 C   0  0  0  0  0  0  0  0  0  0  0  0
    3.8237   -0.3558    4.4066 H   0  0  0  0  0  0  0  0  0  0  0  0
    3.1134   -1.2733    2.6072 C   0  0  0  0  0  0  0  0  0  0  0  0
    3.6067   -2.2145    2.8004 H   0  0  0  0  0  0  0  0  0  0  0  0
    2.3668   -1.1111    1.4501 C   0  0  0  0  0  0  0  0  0  0  0  0
    2.2818   -1.9241    0.7437 H   0  0  0  0  0  0  0  0  0  0  0  0
    1.7330    0.0911    1.1953 C   0  0  0  0  0  0  0  0  0  0  0  0
    1.1640    0.2291    0.2854 H   0  0  0  0  0  0  0  0  0  0  0  0
  1  4  1  0  0  0  0
  1  3  1  0  0  0  0
  2  1  1  0  0  0  0
  4 13  1  0  0  0  0
  4  5  1  0  0  0  0
  5  7  1  0  0  0  0
  6  5  1  0  0  0  0
  7  9  2  0  0  0  0
  7  8  1  0  0  0  0
  9 10  1  0  0  0  0
 11 12  1  0  0  0  0
 11  9  1  0  0  0  0
 13 11  2  0  0  0  0
 14 13  1  0  0  0  0
 15 27  1  0  0  0  0
 15 38  1  0  0  0  0
 15  1  1  0  0  0  0
 16 15  1  0  0  0  0
 17 18  1  0  0  0  0
 17 16  2  0  0  0  0
 19 17  1  0  0  0  0
 20 19  1  0  0  0  0
 21 19  2  0  0  0  0
 21 23  1  0  0  0  0
 22 21  1  0  0  0  0
 23 25  2  0  0  0  0
 24 23  1  0  0  0  0
 25 16  1  0  0  0  0
 25 26  1  0  0  0  0
 27 36  2  0  0  0  0
 27 28  1  0  0  0  0
 28 29  1  0  0  0  0
 28 30  2  0  0  0  0
 30 32  1  0  0  0  0
 30 31  1  0  0  0  0
 32 33  1  0  0  0  0
 34 35  1  0  0  0  0
 34 32  2  0  0  0  0
 36 34  1  0  0  0  0
 37 36  1  0  0  0  0
 38 39  1  0  0  0  0
 39 41  2  0  0  0  0
 39 40  1  0  0  0  0
 41 42  1  0  0  0  0
 43 44  1  0  0  0  0
 43 41  1  0  0  0  0
 45 43  2  0  0  0  0
 46 45  1  0  0  0  0
 47 45  1  0  0  0  0
 47 38  2  0  0  0  0
 48 47  1  0  0  0  0
M  END
$$$$
