CSD_code = AVIZAI | q = 1 | S = 0 | Stoichiometry = C18H18BrHgN4(1+) | MND = 5
 OpenBabel04212202003D

 42 46  0  0  1  0  0  0  0  0999 V2000
    0.9800    9.8877    1.2563 Hg  0  0  2  0  0  0  0  0  0  0  0  0
    2.9152    9.8074   -0.1018 Br  0  0  0  0  0  0  0  0  0  0  0  0
   -0.6727   11.2755    0.2701 N   0  0  0  0  0  0  0  0  0  0  0  0
   -0.6153   11.6393   -1.0104 C   0  0  0  0  0  3  0  0  0  0  0  0
    0.2690   11.3346   -1.5563 H   0  0  0  0  0  0  0  0  0  0  0  0
   -1.6139   12.3726   -1.6252 C   0  0  0  0  0  0  0  0  0  0  0  0
   -1.5219   12.6483   -2.6628 H   0  0  0  0  0  0  0  0  0  0  0  0
   -2.7232   12.7372   -0.8777 C   0  0  0  0  0  0  0  0  0  0  0  0
   -3.5268   13.3044   -1.3210 H   0  0  0  0  0  0  0  0  0  0  0  0
   -2.7840   12.3560    0.4530 C   0  0  0  0  0  0  0  0  0  0  0  0
   -3.6307   12.6239    1.0657 H   0  0  0  0  0  0  0  0  0  0  0  0
   -1.7355   11.6273    0.9982 C   0  0  0  0  0  0  0  0  0  0  0  0
   -1.7325   11.2535    2.4610 C   0  0  0  0  0  0  0  0  0  0  0  0
   -1.1700   12.0276    2.9952 H   0  0  0  0  0  0  0  0  0  0  0  0
   -2.7618   11.2577    2.8473 H   0  0  0  0  0  0  0  0  0  0  0  0
    1.5134   10.7436    3.4032 N   0  0  0  0  0  0  0  0  0  0  0  0
    2.6549   11.3892    3.6390 C   0  0  0  0  0  3  0  0  0  0  0  0
    3.3579   11.4362    2.8166 H   0  0  0  0  0  0  0  0  0  0  0  0
    2.9477   11.9695    4.8598 C   0  0  0  0  0  0  0  0  0  0  0  0
    3.8866   12.4775    5.0059 H   0  0  0  0  0  0  0  0  0  0  0  0
    2.0099   11.8803    5.8770 C   0  0  0  0  0  0  0  0  0  0  0  0
    2.1981   12.3220    6.8432 H   0  0  0  0  0  0  0  0  0  0  0  0
    0.8222   11.2107    5.6308 C   0  0  0  0  0  0  0  0  0  0  0  0
    0.0709   11.1184    6.3997 H   0  0  0  0  0  0  0  0  0  0  0  0
    0.6076   10.6483    4.3797 C   0  0  0  0  0  0  0  0  0  0  0  0
   -0.6426    9.8507    4.0957 C   0  0  0  0  0  0  0  0  0  0  0  0
   -0.4072    8.7973    4.2857 H   0  0  0  0  0  0  0  0  0  0  0  0
   -1.4393   10.1483    4.7922 H   0  0  0  0  0  0  0  0  0  0  0  0
    0.0796    7.7116    1.5462 N   0  0  0  0  0  0  0  0  0  0  0  0
    0.7865    6.6144    1.2794 C   0  0  0  0  0  3  0  0  0  0  0  0
    1.7642    6.7689    0.8402 H   0  0  0  0  0  0  0  0  0  0  0  0
    0.3149    5.3397    1.5366 C   0  0  0  0  0  0  0  0  0  0  0  0
    0.9218    4.4809    1.3021 H   0  0  0  0  0  0  0  0  0  0  0  0
   -0.9442    5.2011    2.0999 C   0  0  0  0  0  0  0  0  0  0  0  0
   -1.3466    4.2248    2.3214 H   0  0  0  0  0  0  0  0  0  0  0  0
   -1.6784    6.3426    2.3792 C   0  0  0  0  0  0  0  0  0  0  0  0
   -2.6629    6.2727    2.8150 H   0  0  0  0  0  0  0  0  0  0  0  0
   -1.1360    7.5862    2.0849 C   0  0  0  0  0  0  0  0  0  0  0  0
   -1.9282    8.8511    2.3135 C   0  0  0  0  0  0  0  0  0  0  0  0
   -2.4133    9.1112    1.3658 H   0  0  0  0  0  0  0  0  0  0  0  0
   -2.7169    8.6665    3.0567 H   0  0  0  0  0  0  0  0  0  0  0  0
   -1.0775    9.9715    2.7066 N   0  0  1  0  0  0  0  0  0  0  0  0
  1  2  1  6  0  0  0
  1 29  1  0  0  0  0
  1 16  1  0  0  0  0
  3 12  1  0  0  0  0
  3  1  1  0  0  0  0
  4  3  1  0  0  0  0
  5  4  1  0  0  0  0
  6  4  1  0  0  0  0
  6  8  2  0  0  0  0
  7  6  1  0  0  0  0
  8 10  1  0  0  0  0
  9  8  1  0  0  0  0
 10 12  2  0  0  0  0
 10 11  1  0  0  0  0
 12 13  1  0  0  0  0
 13 42  1  0  0  0  0
 13 15  1  0  0  0  0
 13 14  1  0  0  0  0
 16 17  1  0  0  0  0
 16 25  1  0  0  0  0
 17 19  1  0  0  0  0
 18 17  1  0  0  0  0
 19 20  1  0  0  0  0
 19 21  2  0  0  0  0
 21 22  1  0  0  0  0
 23 21  1  0  0  0  0
 23 24  1  0  0  0  0
 25 23  2  0  0  0  0
 26 27  1  0  0  0  0
 26 25  1  0  0  0  0
 26 28  1  0  0  0  0
 29 38  1  0  0  0  0
 30 32  1  0  0  0  0
 30 29  1  0  0  0  0
 31 30  1  0  0  0  0
 32 34  2  0  0  0  0
 33 32  1  0  0  0  0
 34 35  1  0  0  0  0
 34 36  1  0  0  0  0
 36 37  1  0  0  0  0
 38 39  1  0  0  0  0
 38 36  2  0  0  0  0
 39 41  1  0  0  0  0
 40 39  1  0  0  0  0
 42 39  1  1  0  0  0
 42 26  1  0  0  0  0
M  END
$$$$
