CSD_code = AVODAR | q = 0 | S = 0 | Stoichiometry = C13H30CuIN4 | MND = 3
 OpenBabel04212202003D

 49 49  0  0  0  0  0  0  0  0999 V2000
    4.6303    3.4344    1.7126 I   0  0  0  0  0  0  0  0  0  0  0  0
    4.0575    4.7683   -0.3108 Cu  0  0  0  0  0  0  0  0  0  0  0  0
    5.0650    5.1362   -1.9857 N   0  0  0  0  0  0  0  0  0  0  0  0
    7.3348    5.2606   -2.6131 N   0  0  0  0  0  0  0  0  0  0  0  0
    6.3201    3.2135   -2.1697 N   0  0  0  0  0  0  0  0  0  0  0  0
    2.6081    6.2707   -1.1656 N   0  0  0  0  0  4  0  0  0  0  0  0
    6.2101    4.5768   -2.2090 C   0  0  0  0  0  3  0  0  0  0  0  0
    7.7522    6.4794   -1.9632 C   0  0  0  0  0  0  0  0  0  0  0  0
    7.1666    6.6404   -1.0613 H   0  0  0  0  0  0  0  0  0  0  0  0
    7.6517    7.3485   -2.6224 H   0  0  0  0  0  0  0  0  0  0  0  0
    8.8026    6.3925   -1.6697 H   0  0  0  0  0  0  0  0  0  0  0  0
    8.2930    4.6873   -3.5254 C   0  0  0  0  0  0  0  0  0  0  0  0
    7.8712    3.7963   -3.9825 H   0  0  0  0  0  0  0  0  0  0  0  0
    9.2350    4.4246   -3.0311 H   0  0  0  0  0  0  0  0  0  0  0  0
    8.5148    5.4171   -4.3101 H   0  0  0  0  0  0  0  0  0  0  0  0
    7.4055    2.5976   -1.4323 C   0  0  0  0  0  0  0  0  0  0  0  0
    8.1971    3.3165   -1.2452 H   0  0  0  0  0  0  0  0  0  0  0  0
    7.8090    1.7546   -1.9970 H   0  0  0  0  0  0  0  0  0  0  0  0
    7.0423    2.2323   -0.4671 H   0  0  0  0  0  0  0  0  0  0  0  0
    5.1215    2.4082   -2.2055 C   0  0  0  0  0  0  0  0  0  0  0  0
    4.6886    2.2622   -1.2121 H   0  0  0  0  0  0  0  0  0  0  0  0
    5.3779    1.4323   -2.6204 H   0  0  0  0  0  0  0  0  0  0  0  0
    4.3858    2.8912   -2.8439 H   0  0  0  0  0  0  0  0  0  0  0  0
    4.7317    6.4643   -2.4295 C   0  0  0  0  0  0  0  0  0  0  0  0
    5.1394    6.6602   -3.4299 H   0  0  0  0  0  0  0  0  0  0  0  0
    5.1217    7.2369   -1.7544 H   0  0  0  0  0  0  0  0  0  0  0  0
    3.1998    6.5512   -2.4743 C   0  0  0  0  0  0  0  0  0  0  0  0
    2.9050    7.5343   -2.8642 H   0  0  0  0  0  0  0  0  0  0  0  0
    2.8577    5.7885   -3.1742 H   0  0  0  0  0  0  0  0  0  0  0  0
    2.6667    7.4344   -0.2615 C   0  0  0  0  0  0  0  0  0  0  0  0
    3.6728    7.8508   -0.3899 H   0  0  0  0  0  0  0  0  0  0  0  0
    1.6655    8.5571   -0.5569 C   0  0  0  0  0  0  0  0  0  0  0  0
    1.7247    8.8902   -1.5911 H   0  0  0  0  0  0  0  0  0  0  0  0
    1.8958    9.4090    0.0790 H   0  0  0  0  0  0  0  0  0  0  0  0
    0.6475    8.2432   -0.3406 H   0  0  0  0  0  0  0  0  0  0  0  0
    2.5375    7.0174    1.2030 C   0  0  0  0  0  0  0  0  0  0  0  0
    3.1931    6.1758    1.4156 H   0  0  0  0  0  0  0  0  0  0  0  0
    1.5193    6.7333    1.4574 H   0  0  0  0  0  0  0  0  0  0  0  0
    2.8246    7.8459    1.8460 H   0  0  0  0  0  0  0  0  0  0  0  0
    1.2927    5.6089   -1.2419 C   0  0  0  0  0  0  0  0  0  0  0  0
    0.8086    5.7787   -0.2766 H   0  0  0  0  0  0  0  0  0  0  0  0
    0.3505    6.1206   -2.3409 C   0  0  0  0  0  0  0  0  0  0  0  0
    0.2959    7.2039   -2.3637 H   0  0  0  0  0  0  0  0  0  0  0  0
   -0.6494    5.7362   -2.1523 H   0  0  0  0  0  0  0  0  0  0  0  0
    0.6590    5.7717   -3.3238 H   0  0  0  0  0  0  0  0  0  0  0  0
    1.4694    4.0987   -1.4040 C   0  0  0  0  0  0  0  0  0  0  0  0
    2.0530    3.6953   -0.5789 H   0  0  0  0  0  0  0  0  0  0  0  0
    1.9773    3.8603   -2.3360 H   0  0  0  0  0  0  0  0  0  0  0  0
    0.4991    3.6074   -1.4076 H   0  0  0  0  0  0  0  0  0  0  0  0
  2  1  1  0  0  0  0
  3  2  1  0  0  0  0
  4  7  1  0  0  0  0
  4  8  1  0  0  0  0
  5 16  1  0  0  0  0
  6  2  1  0  0  0  0
  6 30  1  0  0  0  0
  7  5  1  0  0  0  0
  7  3  1  0  0  0  0
  8 11  1  0  0  0  0
  8  9  1  0  0  0  0
 10  8  1  0  0  0  0
 12 14  1  0  0  0  0
 12  4  1  0  0  0  0
 13 12  1  0  0  0  0
 15 12  1  0  0  0  0
 16 17  1  0  0  0  0
 16 19  1  0  0  0  0
 18 16  1  0  0  0  0
 20  5  1  0  0  0  0
 20 21  1  0  0  0  0
 22 20  1  0  0  0  0
 23 20  1  0  0  0  0
 24  3  1  0  0  0  0
 24 26  1  0  0  0  0
 25 24  1  0  0  0  0
 27 24  1  0  0  0  0
 27  6  1  0  0  0  0
 28 27  1  0  0  0  0
 29 27  1  0  0  0  0
 30 36  1  0  0  0  0
 31 30  1  0  0  0  0
 32 35  1  0  0  0  0
 32 30  1  0  0  0  0
 32 34  1  0  0  0  0
 33 32  1  0  0  0  0
 36 37  1  0  0  0  0
 36 38  1  0  0  0  0
 36 39  1  0  0  0  0
 40  6  1  0  0  0  0
 40 41  1  0  0  0  0
 42 44  1  0  0  0  0
 42 40  1  0  0  0  0
 43 42  1  0  0  0  0
 45 42  1  0  0  0  0
 46 40  1  0  0  0  0
 46 47  1  0  0  0  0
 48 46  1  0  0  0  0
 49 46  1  0  0  0  0
M  END
$$$$
