CSD_code = AVOROS | q = 0 | S = 0 | Stoichiometry = C21H21AuIP | MND = 2
 OpenBabel04212202003D

 45 47  0  0  0  0  0  0  0  0999 V2000
    2.8524   -7.5756    3.0240 Au  0  0  0  0  0  0  0  0  0  0  0  0
    1.0274   -9.3585    2.8081 I   0  0  0  0  0  0  0  0  0  0  0  0
    4.4630   -5.9816    3.2230 P   0  0  0  0  0  4  0  0  0  0  0  0
    6.1051   -6.5125    2.6453 C   0  0  0  0  0  0  0  0  0  0  0  0
    6.6669   -7.7016    3.1295 C   0  0  0  0  0  0  0  0  0  0  0  0
    7.8752   -8.1312    2.5931 C   0  0  0  0  0  0  0  0  0  0  0  0
    8.5240   -7.4103    1.6080 C   0  0  0  0  0  0  0  0  0  0  0  0
    7.9713   -6.2286    1.1428 C   0  0  0  0  0  0  0  0  0  0  0  0
    6.7678   -5.7864    1.6559 C   0  0  0  0  0  0  0  0  0  0  0  0
    6.0405   -8.4976    4.2302 C   0  0  0  0  0  0  0  0  0  0  0  0
    4.7725   -5.4035    4.9198 C   0  0  0  0  0  0  0  0  0  0  0  0
    3.6872   -5.0782    5.7452 C   0  0  0  0  0  0  0  0  0  0  0  0
    3.9416   -4.7068    7.0586 C   0  0  0  0  0  0  0  0  0  0  0  0
    5.2328   -4.6492    7.5522 C   0  0  0  0  0  0  0  0  0  0  0  0
    6.3016   -4.9566    6.7277 C   0  0  0  0  0  0  0  0  0  0  0  0
    6.0712   -5.3358    5.4191 C   0  0  0  0  0  0  0  0  0  0  0  0
    2.2811   -5.1189    5.2374 C   0  0  0  0  0  0  0  0  0  0  0  0
    4.1433   -4.4456    2.3011 C   0  0  0  0  0  0  0  0  0  0  0  0
    3.6953   -4.5151    0.9743 C   0  0  0  0  0  0  0  0  0  0  0  0
    3.3865   -3.3318    0.3169 C   0  0  0  0  0  0  0  0  0  0  0  0
    3.5124   -2.1055    0.9452 C   0  0  0  0  0  0  0  0  0  0  0  0
    3.9603   -2.0429    2.2537 C   0  0  0  0  0  0  0  0  0  0  0  0
    4.2702   -3.2080    2.9286 C   0  0  0  0  0  0  0  0  0  0  0  0
    3.5465   -5.8238    0.2653 C   0  0  0  0  0  0  0  0  0  0  0  0
    8.3099   -9.0492    2.9619 H   0  0  0  0  0  0  0  0  0  0  0  0
    9.4602   -7.7674    1.2062 H   0  0  0  0  0  0  0  0  0  0  0  0
    8.4735   -5.6536    0.3794 H   0  0  0  0  0  0  0  0  0  0  0  0
    6.3388   -4.8639    1.2899 H   0  0  0  0  0  0  0  0  0  0  0  0
    3.1107   -4.4572    7.7027 H   0  0  0  0  0  0  0  0  0  0  0  0
    5.4045   -4.3584    8.5776 H   0  0  0  0  0  0  0  0  0  0  0  0
    7.3132   -4.9014    7.1011 H   0  0  0  0  0  0  0  0  0  0  0  0
    6.9063   -5.5705    4.7739 H   0  0  0  0  0  0  0  0  0  0  0  0
    3.0406   -3.3762   -0.7059 H   0  0  0  0  0  0  0  0  0  0  0  0
    3.2636   -1.2000    0.4128 H   0  0  0  0  0  0  0  0  0  0  0  0
    4.0676   -1.0901    2.7499 H   0  0  0  0  0  0  0  0  0  0  0  0
    4.6185   -3.1586    3.9510 H   0  0  0  0  0  0  0  0  0  0  0  0
    5.0066   -8.1981    4.4062 H   0  0  0  0  0  0  0  0  0  0  0  0
    6.0600   -9.5603    3.9938 H   0  0  0  0  0  0  0  0  0  0  0  0
    6.5927   -8.3499    5.1592 H   0  0  0  0  0  0  0  0  0  0  0  0
    1.6230   -4.5345    5.8764 H   0  0  0  0  0  0  0  0  0  0  0  0
    2.2188   -4.7256    4.2215 H   0  0  0  0  0  0  0  0  0  0  0  0
    1.9110   -6.1470    5.2265 H   0  0  0  0  0  0  0  0  0  0  0  0
    2.6009   -6.2969    0.5409 H   0  0  0  0  0  0  0  0  0  0  0  0
    3.5445   -5.6797   -0.8129 H   0  0  0  0  0  0  0  0  0  0  0  0
    4.3558   -6.5081    0.5230 H   0  0  0  0  0  0  0  0  0  0  0  0
  1  3  1  0  0  0  0
  2  1  1  0  0  0  0
  3 11  1  0  0  0  0
  4  5  1  0  0  0  0
  4  3  1  0  0  0  0
  5 10  1  0  0  0  0
  6 25  1  0  0  0  0
  6  5  2  0  0  0  0
  7  6  1  0  0  0  0
  8  7  2  0  0  0  0
  8  9  1  0  0  0  0
  9  4  2  0  0  0  0
 10 37  1  0  0  0  0
 10 39  1  0  0  0  0
 11 16  2  0  0  0  0
 11 12  1  0  0  0  0
 12 13  2  0  0  0  0
 13 14  1  0  0  0  0
 13 29  1  0  0  0  0
 14 30  1  0  0  0  0
 15 31  1  0  0  0  0
 15 14  2  0  0  0  0
 16 15  1  0  0  0  0
 17 12  1  0  0  0  0
 17 40  1  0  0  0  0
 18 23  1  0  0  0  0
 18  3  1  0  0  0  0
 19 18  2  0  0  0  0
 20 21  2  0  0  0  0
 20 19  1  0  0  0  0
 21 22  1  0  0  0  0
 22 35  1  0  0  0  0
 22 23  2  0  0  0  0
 23 36  1  0  0  0  0
 24 45  1  0  0  0  0
 24 43  1  0  0  0  0
 24 19  1  0  0  0  0
 26  7  1  0  0  0  0
 27  8  1  0  0  0  0
 28  9  1  0  0  0  0
 32 16  1  0  0  0  0
 33 20  1  0  0  0  0
 34 21  1  0  0  0  0
 38 10  1  0  0  0  0
 41 17  1  0  0  0  0
 42 17  1  0  0  0  0
 44 24  1  0  0  0  0
M  END
$$$$
