CSD_code = AVUJUW | q = 0 | S = 0 | Stoichiometry = C12H12Cl2N2O2Zn | MND = 4
 OpenBabel04212202003D

 31 33  0  0  0  0  0  0  0  0999 V2000
   -0.1713    9.2489    9.4383 Zn  0  0  0  0  0  0  0  0  0  0  0  0
   -2.2755    8.9377   10.0450 Cl  0  0  0  0  0  0  0  0  0  0  0  0
    0.6850   10.0836    7.5884 Cl  0  0  0  0  0  0  0  0  0  0  0  0
    1.1484    7.7776   10.2097 N   0  0  0  0  0  0  0  0  0  0  0  0
    0.7121   10.3294   11.1062 N   0  0  0  0  0  0  0  0  0  0  0  0
   -0.5427    7.0206    8.2439 O   0  0  0  0  0  0  0  0  0  0  0  0
    0.7124   13.8666   10.6394 O   0  0  0  0  0  0  0  0  0  0  0  0
   -1.3104    6.3849    7.3697 C   0  0  0  0  0  0  0  0  0  0  0  0
   -1.9575    6.9796    6.7541 H   0  0  0  0  0  0  0  0  0  0  0  0
   -1.1081    5.0314    7.4395 C   0  0  0  0  0  0  0  0  0  0  0  0
   -1.5910    4.2772    6.8532 H   0  0  0  0  0  0  0  0  0  0  0  0
   -0.1392    4.8376    8.4378 C   0  0  0  0  0  0  0  0  0  0  0  0
    0.2699    3.9063    8.7736 H   0  0  0  0  0  0  0  0  0  0  0  0
    0.1803    6.0957    8.9107 C   0  0  0  0  0  0  0  0  0  0  0  0
    1.0831    6.5416    9.9203 C   0  0  0  0  0  3  0  0  0  0  0  0
    1.7031    5.7863   10.4105 H   0  0  0  0  0  0  0  0  0  0  0  0
    2.0549    8.3026   11.1790 C   0  0  0  0  0  0  0  0  0  0  0  0
    2.8834    8.7687   10.6329 H   0  0  0  0  0  0  0  0  0  0  0  0
    2.4553    7.5261   11.8447 H   0  0  0  0  0  0  0  0  0  0  0  0
    1.3384    9.3904   11.9917 C   0  0  0  0  0  0  0  0  0  0  0  0
    0.5411    8.9172   12.5751 H   0  0  0  0  0  0  0  0  0  0  0  0
    2.0491    9.8739   12.6759 H   0  0  0  0  0  0  0  0  0  0  0  0
    0.9084   11.5777   11.2609 C   0  0  0  0  0  3  0  0  0  0  0  0
    1.5879   11.9519   12.0356 H   0  0  0  0  0  0  0  0  0  0  0  0
    0.2772   12.5878   10.4806 C   0  0  0  0  0  0  0  0  0  0  0  0
   -0.7617   12.5656    9.5705 C   0  0  0  0  0  0  0  0  0  0  0  0
   -1.3287   11.7092    9.2642 H   0  0  0  0  0  0  0  0  0  0  0  0
   -0.9486   13.8946    9.1564 C   0  0  0  0  0  0  0  0  0  0  0  0
   -1.6684   14.2545    8.4509 H   0  0  0  0  0  0  0  0  0  0  0  0
   -0.0212   14.6355    9.8361 C   0  0  0  0  0  0  0  0  0  0  0  0
    0.1979   15.6859    9.8261 H   0  0  0  0  0  0  0  0  0  0  0  0
  1  2  1  0  0  0  0
  1  4  1  0  0  0  0
  1  5  1  0  0  0  0
  3  1  1  0  0  0  0
  4 17  1  0  0  0  0
  5 23  1  0  0  0  0
  5 20  1  0  0  0  0
  6 14  1  0  0  0  0
  8 10  2  0  0  0  0
  8  6  1  0  0  0  0
  9  8  1  0  0  0  0
 10 12  1  0  0  0  0
 11 10  1  0  0  0  0
 12 13  1  0  0  0  0
 12 14  2  0  0  0  0
 14 15  1  0  0  0  0
 15  4  1  0  0  0  0
 15 16  1  0  0  0  0
 17 19  1  0  0  0  0
 17 20  1  0  0  0  0
 18 17  1  0  0  0  0
 20 21  1  0  0  0  0
 20 22  1  0  0  0  0
 23 24  1  0  0  0  0
 25  7  1  0  0  0  0
 25 23  1  0  0  0  0
 26 25  2  0  0  0  0
 27 26  1  0  0  0  0
 28 26  1  0  0  0  0
 28 30  2  0  0  0  0
 29 28  1  0  0  0  0
 30  7  1  0  0  0  0
 31 30  1  0  0  0  0
M  END
$$$$
