CSD_code = AVUJIK | q = 0 | S = 0 | Stoichiometry = C8H12Cl2N4O2Zn | MND = 4
 OpenBabel04212202003D

 29 30  0  0  1  0  0  0  0  0999 V2000
    1.5985   13.5463    3.4061 Zn  0  0  0  0  0  0  0  0  0  0  0  0
    1.3907   11.7728    4.5928 Cl  0  0  0  0  0  0  0  0  0  0  0  0
    1.6829   15.6864    4.2566 Cl  0  0  0  0  0  0  0  0  0  0  0  0
   -0.7533   14.7963    1.7606 C   0  0  1  0  0  3  0  0  0  0  0  0
   -1.8888   14.3032    1.0499 C   0  0  0  0  0  0  0  0  0  0  0  0
   -2.7096   14.8758    0.6735 H   0  0  0  0  0  0  0  0  0  0  0  0
   -1.6904   12.9590    0.9698 C   0  0  0  0  0  0  0  0  0  0  0  0
   -2.4923   11.8691    0.3660 C   0  0  0  0  0  0  0  0  0  0  0  0
   -2.6425   11.0763    1.0960 H   0  0  0  0  0  0  0  0  0  0  0  0
   -1.9614   11.4428   -0.4838 H   0  0  0  0  0  0  0  0  0  0  0  0
   -3.4527   12.2517    0.0354 H   0  0  0  0  0  0  0  0  0  0  0  0
    4.2527   14.4815    2.0349 C   0  0  2  0  0  3  0  0  0  0  0  0
    5.3854   13.8554    1.4327 C   0  0  0  0  0  0  0  0  0  0  0  0
    6.2953   14.3280    1.1303 H   0  0  0  0  0  0  0  0  0  0  0  0
    5.0455   12.5409    1.3386 C   0  0  0  0  0  0  0  0  0  0  0  0
    5.7705   11.3609    0.8116 C   0  0  0  0  0  0  0  0  0  0  0  0
    6.7947   11.6286    0.5719 H   0  0  0  0  0  0  0  0  0  0  0  0
    5.2753   10.9895   -0.0843 H   0  0  0  0  0  0  0  0  0  0  0  0
    5.7613   10.5633    1.5516 H   0  0  0  0  0  0  0  0  0  0  0  0
    0.0396   13.7784    2.0638 N   0  0  0  0  0  0  0  0  0  0  0  0
   -0.4416   16.0695    2.0338 N   0  0  0  0  0  0  0  0  0  0  0  0
    0.2983   16.2241    2.7198 H   0  0  0  0  0  0  0  0  0  0  0  0
   -1.1762   16.7535    1.9792 H   0  0  0  0  0  0  0  0  0  0  0  0
    3.3272   13.5620    2.2685 N   0  0  0  0  0  0  0  0  0  0  0  0
    4.0624   15.7844    2.2757 N   0  0  0  0  0  0  0  0  0  0  0  0
    3.2801   16.0308    2.8835 H   0  0  0  0  0  0  0  0  0  0  0  0
    4.8692   16.3834    2.2863 H   0  0  0  0  0  0  0  0  0  0  0  0
   -0.5372   12.6340    1.5674 O   0  0  0  0  0  0  0  0  0  0  0  0
    3.8145   12.3539    1.8307 O   0  0  0  0  0  0  0  0  0  0  0  0
  1  3  1  0  0  0  0
  1  2  1  0  0  0  0
  4 21  1  6  0  0  0
  4 20  1  0  0  0  0
  5  4  1  0  0  0  0
  6  5  1  0  0  0  0
  7  5  2  0  0  0  0
  7 28  1  0  0  0  0
  8  7  1  0  0  0  0
  8  9  1  0  0  0  0
 10  8  1  0  0  0  0
 11  8  1  0  0  0  0
 12 24  1  0  0  0  0
 12 25  1  6  0  0  0
 13 12  1  0  0  0  0
 14 13  1  0  0  0  0
 15 13  2  0  0  0  0
 15 29  1  0  0  0  0
 16 15  1  0  0  0  0
 16 19  1  0  0  0  0
 17 16  1  0  0  0  0
 18 16  1  0  0  0  0
 20  1  1  0  0  0  0
 21 22  1  0  0  0  0
 23 21  1  0  0  0  0
 24  1  1  0  0  0  0
 25 27  1  0  0  0  0
 25 26  1  0  0  0  0
 28 20  1  0  0  0  0
 29 24  1  0  0  0  0
M  END
$$$$
