CSD_code = AWEPOH | q = 0 | S = 0 | Stoichiometry = C26H43ClO2P2Ru | MND = 6
 OpenBabel04212202003D

 75 77  0  0  0  0  0  0  0  0999 V2000
   10.8824    1.6548   -0.3876 Ru  0  0  0  0  0  0  0  0  0  0  0  0
   12.7480    1.5966   -1.8618 Cl  0  0  0  0  0  0  0  0  0  0  0  0
   11.2348    3.9977    0.0408 P   0  0  0  0  0  4  0  0  0  0  0  0
   11.2312   -0.7059   -0.2306 P   0  0  0  0  0  4  0  0  0  0  0  0
    9.8013    1.7797   -1.9266 C   0  0  0  0  0  2  0  0  0  0  0  0
    8.7202    1.6507    1.6720 O   0  0  0  0  0  1  0  0  0  0  0  0
    9.1743    1.8913   -2.8800 O   0  0  0  0  0  1  0  0  0  0  0  0
    9.5382    1.6482    0.8602 C   0  0  0  0  0  2  0  0  0  0  0  0
   12.2691    1.5648    1.1650 C   0  0  0  0  0  0  0  0  0  0  0  0
   13.1096    0.4575    1.3283 C   0  0  0  0  0  0  0  0  0  0  0  0
   14.0631    0.4223    2.3370 C   0  0  0  0  0  0  0  0  0  0  0  0
   14.7072   -0.4414    2.4387 H   0  0  0  0  0  0  0  0  0  0  0  0
   14.1901    1.4831    3.2146 C   0  0  0  0  0  0  0  0  0  0  0  0
   14.9248    1.4490    4.0056 H   0  0  0  0  0  0  0  0  0  0  0  0
   13.3761    2.5917    3.0691 C   0  0  0  0  0  0  0  0  0  0  0  0
   13.4770    3.4282    3.7484 H   0  0  0  0  0  0  0  0  0  0  0  0
   12.4360    2.6370    2.0489 C   0  0  0  0  0  0  0  0  0  0  0  0
   12.9649   -0.7055    0.3781 C   0  0  0  0  0  0  0  0  0  0  0  0
   13.2396   -1.6584    0.8401 H   0  0  0  0  0  0  0  0  0  0  0  0
   13.6070   -0.5404   -0.4955 H   0  0  0  0  0  0  0  0  0  0  0  0
   11.2296   -1.8601   -1.7458 C   0  0  0  0  0  0  0  0  0  0  0  0
   10.2857   -1.5907    1.1718 C   0  0  0  0  0  0  0  0  0  0  0  0
   11.6630   -1.0660   -2.9790 C   0  0  0  0  0  0  0  0  0  0  0  0
   12.6834   -0.7035   -2.8890 H   0  0  0  0  0  0  0  0  0  0  0  0
   11.0094   -0.2108   -3.1466 H   0  0  0  0  0  0  0  0  0  0  0  0
   11.6096   -1.7073   -3.8585 H   0  0  0  0  0  0  0  0  0  0  0  0
    9.8027   -2.3462   -2.0083 C   0  0  0  0  0  0  0  0  0  0  0  0
    9.7509   -2.8031   -2.9961 H   0  0  0  0  0  0  0  0  0  0  0  0
    9.1088   -1.5060   -1.9905 H   0  0  0  0  0  0  0  0  0  0  0  0
    9.4776   -3.0880   -1.2863 H   0  0  0  0  0  0  0  0  0  0  0  0
   12.1998   -3.0337   -1.5974 C   0  0  0  0  0  0  0  0  0  0  0  0
   12.1211   -3.6629   -2.4837 H   0  0  0  0  0  0  0  0  0  0  0  0
   11.9924   -3.6526   -0.7324 H   0  0  0  0  0  0  0  0  0  0  0  0
   13.2261   -2.6795   -1.5349 H   0  0  0  0  0  0  0  0  0  0  0  0
   10.6632   -0.9131    2.4950 C   0  0  0  0  0  0  0  0  0  0  0  0
   10.0268   -1.2999    3.2907 H   0  0  0  0  0  0  0  0  0  0  0  0
   10.5380    0.1651    2.4596 H   0  0  0  0  0  0  0  0  0  0  0  0
   11.6960   -1.1208    2.7642 H   0  0  0  0  0  0  0  0  0  0  0  0
    8.7778   -1.4327    0.9220 C   0  0  0  0  0  0  0  0  0  0  0  0
    8.3586   -2.3104    0.4382 H   0  0  0  0  0  0  0  0  0  0  0  0
    8.5701   -0.5681    0.2894 H   0  0  0  0  0  0  0  0  0  0  0  0
    8.2493   -1.2903    1.8626 H   0  0  0  0  0  0  0  0  0  0  0  0
   10.6260   -3.0721    1.3488 C   0  0  0  0  0  0  0  0  0  0  0  0
   10.1221   -3.4356    2.2445 H   0  0  0  0  0  0  0  0  0  0  0  0
   11.6943   -3.2210    1.4921 H   0  0  0  0  0  0  0  0  0  0  0  0
   10.2884   -3.6835    0.5179 H   0  0  0  0  0  0  0  0  0  0  0  0
   11.5737    3.8588    1.8500 C   0  0  0  0  0  0  0  0  0  0  0  0
   12.0420    4.7603    2.2543 H   0  0  0  0  0  0  0  0  0  0  0  0
   10.6072    3.7186    2.3508 H   0  0  0  0  0  0  0  0  0  0  0  0
    9.7370    5.1791   -0.0513 C   0  0  0  0  0  0  0  0  0  0  0  0
   12.7736    4.9149   -0.6079 C   0  0  0  0  0  0  0  0  0  0  0  0
    9.6093    5.7189   -1.4762 C   0  0  0  0  0  0  0  0  0  0  0  0
    9.7272    4.9101   -2.1977 H   0  0  0  0  0  0  0  0  0  0  0  0
   10.3442    6.4911   -1.6838 H   0  0  0  0  0  0  0  0  0  0  0  0
    8.6224    6.1579   -1.6193 H   0  0  0  0  0  0  0  0  0  0  0  0
    9.7765    6.3241    0.9625 C   0  0  0  0  0  0  0  0  0  0  0  0
   10.5956    7.0116    0.7917 H   0  0  0  0  0  0  0  0  0  0  0  0
    9.8439    5.9469    1.9800 H   0  0  0  0  0  0  0  0  0  0  0  0
    8.8491    6.8910    0.8814 H   0  0  0  0  0  0  0  0  0  0  0  0
    8.4733    4.3669    0.2424 C   0  0  0  0  0  0  0  0  0  0  0  0
    7.5965    4.9982    0.1011 H   0  0  0  0  0  0  0  0  0  0  0  0
    8.4566    4.0122    1.2699 H   0  0  0  0  0  0  0  0  0  0  0  0
    8.3837    3.5156   -0.4341 H   0  0  0  0  0  0  0  0  0  0  0  0
   12.8930    6.3574   -0.1126 C   0  0  0  0  0  0  0  0  0  0  0  0
   13.8837    6.7263   -0.3776 H   0  0  0  0  0  0  0  0  0  0  0  0
   12.7972    6.4272    0.9689 H   0  0  0  0  0  0  0  0  0  0  0  0
   12.1680    7.0148   -0.5843 H   0  0  0  0  0  0  0  0  0  0  0  0
   12.7841    4.9054   -2.1387 C   0  0  0  0  0  0  0  0  0  0  0  0
   12.0268    5.5573   -2.5623 H   0  0  0  0  0  0  0  0  0  0  0  0
   12.6328    3.8982   -2.5182 H   0  0  0  0  0  0  0  0  0  0  0  0
   13.7552    5.2494   -2.4923 H   0  0  0  0  0  0  0  0  0  0  0  0
   14.0035    4.1524   -0.1036 C   0  0  0  0  0  0  0  0  0  0  0  0
   14.8952    4.5626   -0.5763 H   0  0  0  0  0  0  0  0  0  0  0  0
   13.9506    3.0983   -0.3634 H   0  0  0  0  0  0  0  0  0  0  0  0
   14.1221    4.2432    0.9733 H   0  0  0  0  0  0  0  0  0  0  0  0
  1  4  1  0  0  0  0
  1  3  1  0  0  0  0
  1  8  1  0  0  0  0
  1  9  1  0  0  0  0
  2  1  1  0  0  0  0
  3 47  1  0  0  0  0
  4 18  1  0  0  0  0
  4 22  1  0  0  0  0
  5  1  1  0  0  0  0
  7  5  1  0  0  0  0
  8  6  1  0  0  0  0
  9 10  2  0  0  0  0
  9 17  1  0  0  0  0
 10 11  1  0  0  0  0
 11 12  1  0  0  0  0
 11 13  2  0  0  0  0
 13 14  1  0  0  0  0
 15 13  1  0  0  0  0
 15 16  1  0  0  0  0
 17 15  2  0  0  0  0
 18 19  1  0  0  0  0
 18 10  1  0  0  0  0
 20 18  1  0  0  0  0
 21 31  1  0  0  0  0
 21  4  1  0  0  0  0
 22 43  1  0  0  0  0
 22 35  1  0  0  0  0
 23 24  1  0  0  0  0
 23 21  1  0  0  0  0
 25 23  1  0  0  0  0
 26 23  1  0  0  0  0
 27 29  1  0  0  0  0
 27 21  1  0  0  0  0
 27 30  1  0  0  0  0
 28 27  1  0  0  0  0
 31 34  1  0  0  0  0
 31 33  1  0  0  0  0
 32 31  1  0  0  0  0
 35 38  1  0  0  0  0
 35 36  1  0  0  0  0
 37 35  1  0  0  0  0
 39 22  1  0  0  0  0
 39 42  1  0  0  0  0
 40 39  1  0  0  0  0
 41 39  1  0  0  0  0
 43 45  1  0  0  0  0
 43 44  1  0  0  0  0
 46 43  1  0  0  0  0
 47 17  1  0  0  0  0
 47 48  1  0  0  0  0
 47 49  1  0  0  0  0
 50  3  1  0  0  0  0
 50 60  1  0  0  0  0
 50 56  1  0  0  0  0
 51 64  1  0  0  0  0
 51 72  1  0  0  0  0
 51  3  1  0  0  0  0
 52 50  1  0  0  0  0
 53 52  1  0  0  0  0
 54 52  1  0  0  0  0
 55 52  1  0  0  0  0
 56 58  1  0  0  0  0
 57 56  1  0  0  0  0
 59 56  1  0  0  0  0
 60 62  1  0  0  0  0
 61 60  1  0  0  0  0
 63 60  1  0  0  0  0
 64 66  1  0  0  0  0
 65 64  1  0  0  0  0
 67 64  1  0  0  0  0
 68 51  1  0  0  0  0
 69 68  1  0  0  0  0
 70 68  1  0  0  0  0
 71 68  1  0  0  0  0
 72 75  1  0  0  0  0
 73 72  1  0  0  0  0
 74 72  1  0  0  0  0
M  END
$$$$
