CSD_code = AWESEA | q = 0 | S = 0 | Stoichiometry = C28H46Cl2N2P2Pt | MND = 4
 OpenBabel04212202003D

 81 83  0  0  0  0  0  0  0  0999 V2000
    5.7411    4.4158    7.2844 Pt  0  0  0  0  0  0  0  0  0  0  0  0
    3.6808    5.0892    6.4740 Cl  0  0  0  0  0  0  0  0  0  0  0  0
    6.7679    5.9104    5.8262 Cl  0  0  0  0  0  0  0  0  0  0  0  0
    4.4389    2.9297    8.4699 P   0  0  0  0  0  4  0  0  0  0  0  0
    5.1153    1.8130    9.5722 N   0  0  0  0  0  0  0  0  0  0  0  0
    5.8161    2.3474   10.7321 C   0  0  0  0  0  0  0  0  0  0  0  0
    6.3244    1.5158   11.2237 H   0  0  0  0  0  0  0  0  0  0  0  0
    5.0846    2.7548   11.4349 H   0  0  0  0  0  0  0  0  0  0  0  0
    5.7835    0.6318    9.0442 C   0  0  0  0  0  0  0  0  0  0  0  0
    6.8718    0.7599    9.0737 H   0  0  0  0  0  0  0  0  0  0  0  0
    5.5070    0.4845    8.0007 H   0  0  0  0  0  0  0  0  0  0  0  0
    5.4367   -0.6264    9.8040 C   0  0  0  0  0  0  0  0  0  0  0  0
    4.5367   -0.6411   10.8583 C   0  0  0  0  0  0  0  0  0  0  0  0
    4.0415    0.2720   11.1480 H   0  0  0  0  0  0  0  0  0  0  0  0
    4.2649   -1.8193   11.5334 C   0  0  0  0  0  0  0  0  0  0  0  0
    3.5630   -1.8154   12.3545 H   0  0  0  0  0  0  0  0  0  0  0  0
    4.8853   -2.9974   11.1593 C   0  0  0  0  0  0  0  0  0  0  0  0
    4.6740   -3.9150   11.6880 H   0  0  0  0  0  0  0  0  0  0  0  0
    5.7730   -2.9944   10.0961 C   0  0  0  0  0  0  0  0  0  0  0  0
    6.2532   -3.9120    9.7894 H   0  0  0  0  0  0  0  0  0  0  0  0
    6.0441   -1.8181    9.4241 C   0  0  0  0  0  0  0  0  0  0  0  0
    6.7321   -1.8178    8.5911 H   0  0  0  0  0  0  0  0  0  0  0  0
    3.1435    3.8023    9.4867 C   0  0  0  0  0  0  0  0  0  0  0  0
    2.4359    4.1121    8.7108 H   0  0  0  0  0  0  0  0  0  0  0  0
    2.4300    2.8974   10.4866 C   0  0  0  0  0  0  0  0  0  0  0  0
    2.9885    2.8151   11.4159 H   0  0  0  0  0  0  0  0  0  0  0  0
    2.2956    1.8966   10.0831 H   0  0  0  0  0  0  0  0  0  0  0  0
    1.4509    3.3094   10.7259 H   0  0  0  0  0  0  0  0  0  0  0  0
    3.6599    5.0906   10.1222 C   0  0  0  0  0  0  0  0  0  0  0  0
    2.8203    5.7056   10.4419 H   0  0  0  0  0  0  0  0  0  0  0  0
    4.2284    5.6599    9.3823 H   0  0  0  0  0  0  0  0  0  0  0  0
    4.2888    4.9028   10.9898 H   0  0  0  0  0  0  0  0  0  0  0  0
    3.4547    1.7676    7.3750 C   0  0  0  0  0  0  0  0  0  0  0  0
    3.4206    0.8045    7.9001 H   0  0  0  0  0  0  0  0  0  0  0  0
    2.0215    2.2091    7.0903 C   0  0  0  0  0  0  0  0  0  0  0  0
    2.0123    3.1940    6.6305 H   0  0  0  0  0  0  0  0  0  0  0  0
    1.4071    2.2215    7.9858 H   0  0  0  0  0  0  0  0  0  0  0  0
    1.5731    1.5049    6.3902 H   0  0  0  0  0  0  0  0  0  0  0  0
    4.1939    1.6252    6.0427 C   0  0  0  0  0  0  0  0  0  0  0  0
    3.6437    0.9674    5.3717 H   0  0  0  0  0  0  0  0  0  0  0  0
    5.1981    1.2222    6.1624 H   0  0  0  0  0  0  0  0  0  0  0  0
    4.2734    2.6047    5.5693 H   0  0  0  0  0  0  0  0  0  0  0  0
    7.8670    4.0662    8.0625 P   0  0  0  0  0  4  0  0  0  0  0  0
    7.8705    3.1274    9.4917 N   0  0  0  0  0  0  0  0  0  0  0  0
    6.8066    3.4777   10.4214 C   0  0  0  0  0  0  0  0  0  0  0  0
    6.2284    4.2950    9.9790 H   0  0  0  0  0  0  0  0  0  0  0  0
    7.2287    3.8331   11.3707 H   0  0  0  0  0  0  0  0  0  0  0  0
    9.0910    2.6495   10.1389 C   0  0  0  0  0  0  0  0  0  0  0  0
    9.2936    3.2383   11.0443 H   0  0  0  0  0  0  0  0  0  0  0  0
    9.9297    2.7848    9.4559 H   0  0  0  0  0  0  0  0  0  0  0  0
    9.0066    1.1926   10.5229 C   0  0  0  0  0  0  0  0  0  0  0  0
    8.6647    0.8170   11.8159 C   0  0  0  0  0  0  0  0  0  0  0  0
    8.4791    1.5777   12.5617 H   0  0  0  0  0  0  0  0  0  0  0  0
    8.5693   -0.5198   12.1622 C   0  0  0  0  0  0  0  0  0  0  0  0
    8.2963   -0.7953   13.1699 H   0  0  0  0  0  0  0  0  0  0  0  0
    8.8299   -1.5001   11.2217 C   0  0  0  0  0  0  0  0  0  0  0  0
    8.7589   -2.5424   11.4918 H   0  0  0  0  0  0  0  0  0  0  0  0
    9.1877   -1.1371    9.9346 C   0  0  0  0  0  0  0  0  0  0  0  0
    9.4087   -1.8976    9.2004 H   0  0  0  0  0  0  0  0  0  0  0  0
    9.2698    0.1994    9.5868 C   0  0  0  0  0  0  0  0  0  0  0  0
    9.5482    0.4752    8.5798 H   0  0  0  0  0  0  0  0  0  0  0  0
    8.7466    5.6871    8.3922 C   0  0  0  0  0  0  0  0  0  0  0  0
    8.8695    6.1223    7.3966 H   0  0  0  0  0  0  0  0  0  0  0  0
   10.1050    5.5771    9.0751 C   0  0  0  0  0  0  0  0  0  0  0  0
   10.5948    6.5499    9.0597 H   0  0  0  0  0  0  0  0  0  0  0  0
   10.7572    4.8669    8.5711 H   0  0  0  0  0  0  0  0  0  0  0  0
    9.9985    5.2768   10.1152 H   0  0  0  0  0  0  0  0  0  0  0  0
    7.8040    6.5930    9.1815 C   0  0  0  0  0  0  0  0  0  0  0  0
    7.6770    6.2413   10.2046 H   0  0  0  0  0  0  0  0  0  0  0  0
    6.8274    6.6262    8.6911 H   0  0  0  0  0  0  0  0  0  0  0  0
    8.1969    7.6073    9.2157 H   0  0  0  0  0  0  0  0  0  0  0  0
    8.9687    3.1127    6.9070 C   0  0  0  0  0  0  0  0  0  0  0  0
    9.7488    2.6020    7.4829 H   0  0  0  0  0  0  0  0  0  0  0  0
    9.6202    3.9985    5.8509 C   0  0  0  0  0  0  0  0  0  0  0  0
   10.0978    3.3742    5.0968 H   0  0  0  0  0  0  0  0  0  0  0  0
   10.3789    4.6492    6.2786 H   0  0  0  0  0  0  0  0  0  0  0  0
    8.8680    4.6143    5.3624 H   0  0  0  0  0  0  0  0  0  0  0  0
    8.0691    2.0734    6.2434 C   0  0  0  0  0  0  0  0  0  0  0  0
    7.2767    2.5879    5.6949 H   0  0  0  0  0  0  0  0  0  0  0  0
    7.6168    1.4263    6.9925 H   0  0  0  0  0  0  0  0  0  0  0  0
    8.6321    1.4590    5.5421 H   0  0  0  0  0  0  0  0  0  0  0  0
  1 43  1  0  0  0  0
  1  4  1  0  0  0  0
  2  1  1  0  0  0  0
  3  1  1  0  0  0  0
  4 23  1  0  0  0  0
  4  5  1  0  0  0  0
  5  6  1  0  0  0  0
  6  7  1  0  0  0  0
  6  8  1  0  0  0  0
  9 10  1  0  0  0  0
  9  5  1  0  0  0  0
  9 12  1  0  0  0  0
 11  9  1  0  0  0  0
 12 13  1  0  0  0  0
 13 14  1  0  0  0  0
 13 15  2  0  0  0  0
 15 16  1  0  0  0  0
 17 15  1  0  0  0  0
 17 18  1  0  0  0  0
 19 17  2  0  0  0  0
 20 19  1  0  0  0  0
 21 12  2  0  0  0  0
 21 19  1  0  0  0  0
 22 21  1  0  0  0  0
 23 29  1  0  0  0  0
 23 25  1  0  0  0  0
 24 23  1  0  0  0  0
 25 28  1  0  0  0  0
 25 26  1  0  0  0  0
 27 25  1  0  0  0  0
 29 30  1  0  0  0  0
 29 32  1  0  0  0  0
 31 29  1  0  0  0  0
 33 34  1  0  0  0  0
 33  4  1  0  0  0  0
 35 33  1  0  0  0  0
 35 37  1  0  0  0  0
 36 35  1  0  0  0  0
 38 35  1  0  0  0  0
 39 41  1  0  0  0  0
 39 33  1  0  0  0  0
 40 39  1  0  0  0  0
 42 39  1  0  0  0  0
 43 62  1  0  0  0  0
 43 44  1  0  0  0  0
 44 48  1  0  0  0  0
 44 45  1  0  0  0  0
 45  6  1  0  0  0  0
 45 47  1  0  0  0  0
 46 45  1  0  0  0  0
 48 51  1  0  0  0  0
 48 49  1  0  0  0  0
 50 48  1  0  0  0  0
 51 52  1  0  0  0  0
 52 54  2  0  0  0  0
 52 53  1  0  0  0  0
 54 55  1  0  0  0  0
 56 57  1  0  0  0  0
 56 54  1  0  0  0  0
 58 56  2  0  0  0  0
 59 58  1  0  0  0  0
 60 58  1  0  0  0  0
 60 51  2  0  0  0  0
 61 60  1  0  0  0  0
 62 64  1  0  0  0  0
 62 68  1  0  0  0  0
 63 62  1  0  0  0  0
 64 67  1  0  0  0  0
 65 64  1  0  0  0  0
 66 64  1  0  0  0  0
 68 71  1  0  0  0  0
 68 69  1  0  0  0  0
 70 68  1  0  0  0  0
 72 73  1  0  0  0  0
 72 43  1  0  0  0  0
 74 76  1  0  0  0  0
 74 72  1  0  0  0  0
 75 74  1  0  0  0  0
 77 74  1  0  0  0  0
 78 72  1  0  0  0  0
 78 80  1  0  0  0  0
 79 78  1  0  0  0  0
 81 78  1  0  0  0  0
M  END
$$$$
