CSD_code = AWICIU | q = 0 | S = 0 | Stoichiometry = C36H28Cl4P2Ru | MND = 6
 OpenBabel04212202003D

 71 76  0  0  0  0  0  0  0  0999 V2000
    6.1141   10.0872   13.5954 Ru  0  0  0  0  0  0  0  0  0  0  0  0
    4.7681    8.3936   14.6342 Cl  0  0  0  0  0  0  0  0  0  0  0  0
    7.1572   11.8364   12.2961 Cl  0  0  0  0  0  0  0  0  0  0  0  0
    5.9989    8.7449   11.6601 Cl  0  0  0  0  0  0  0  0  0  0  0  0
    4.1194   11.2458   12.9854 Cl  0  0  0  0  0  0  0  0  0  0  0  0
    7.8445    8.7430   14.1682 P   0  0  0  0  0  4  0  0  0  0  0  0
    5.9834   11.4900   15.3533 P   0  0  0  0  0  4  0  0  0  0  0  0
    7.6019    7.2192   13.1781 C   0  0  0  0  0  0  0  0  0  0  0  0
    6.7859    7.2745   12.0503 C   0  0  0  0  0  0  0  0  0  0  0  0
    6.6013    6.1665   11.2389 C   0  0  0  0  0  0  0  0  0  0  0  0
    5.9595    6.2322   10.3740 H   0  0  0  0  0  0  0  0  0  0  0  0
    7.2443    4.9830   11.5568 C   0  0  0  0  0  0  0  0  0  0  0  0
    7.0986    4.1143   10.9333 H   0  0  0  0  0  0  0  0  0  0  0  0
    8.0702    4.9125   12.6679 C   0  0  0  0  0  0  0  0  0  0  0  0
    8.5708    3.9875   12.9108 H   0  0  0  0  0  0  0  0  0  0  0  0
    8.2538    6.0250   13.4682 C   0  0  0  0  0  0  0  0  0  0  0  0
    8.8987    5.9741   14.3334 H   0  0  0  0  0  0  0  0  0  0  0  0
    9.6024    9.0166   13.7531 C   0  0  0  0  0  0  0  0  0  0  0  0
    9.8834    9.8320   12.6618 C   0  0  0  0  0  0  0  0  0  0  0  0
    9.0740   10.3394   12.1537 H   0  0  0  0  0  0  0  0  0  0  0  0
   11.1912   10.0182   12.2511 C   0  0  0  0  0  0  0  0  0  0  0  0
   11.4023   10.6597   11.4084 H   0  0  0  0  0  0  0  0  0  0  0  0
   12.2244    9.3858   12.9216 C   0  0  0  0  0  0  0  0  0  0  0  0
   13.2468    9.5314   12.6042 H   0  0  0  0  0  0  0  0  0  0  0  0
   11.9471    8.5648   14.0031 C   0  0  0  0  0  0  0  0  0  0  0  0
   12.7526    8.0692   14.5260 H   0  0  0  0  0  0  0  0  0  0  0  0
   10.6423    8.3744   14.4185 C   0  0  0  0  0  0  0  0  0  0  0  0
   10.4362    7.7367   15.2665 H   0  0  0  0  0  0  0  0  0  0  0  0
    7.9175    8.1586   15.8828 C   0  0  0  0  0  0  0  0  0  0  0  0
    7.1728    7.0704   16.3258 C   0  0  0  0  0  0  0  0  0  0  0  0
    6.5778    6.5050   15.6246 H   0  0  0  0  0  0  0  0  0  0  0  0
    7.1774    6.7345   17.6683 C   0  0  0  0  0  0  0  0  0  0  0  0
    6.5956    5.8907   18.0090 H   0  0  0  0  0  0  0  0  0  0  0  0
    7.9145    7.4794   18.5746 C   0  0  0  0  0  0  0  0  0  0  0  0
    7.9117    7.2149   19.6220 H   0  0  0  0  0  0  0  0  0  0  0  0
    8.6509    8.5704   18.1386 C   0  0  0  0  0  0  0  0  0  0  0  0
    9.2195    9.1605   18.8428 H   0  0  0  0  0  0  0  0  0  0  0  0
    8.6497    8.9132   16.7991 C   0  0  0  0  0  0  0  0  0  0  0  0
    9.2135    9.7693   16.4533 H   0  0  0  0  0  0  0  0  0  0  0  0
    5.2139   13.0039   14.6779 C   0  0  0  0  0  0  0  0  0  0  0  0
    4.3528   12.8357   13.5928 C   0  0  0  0  0  0  0  0  0  0  0  0
    3.7086   13.9113   13.0105 C   0  0  0  0  0  0  0  0  0  0  0  0
    3.0486   13.7599   12.1704 H   0  0  0  0  0  0  0  0  0  0  0  0
    3.9413   15.1824   13.5133 C   0  0  0  0  0  0  0  0  0  0  0  0
    3.4525   16.0296   13.0573 H   0  0  0  0  0  0  0  0  0  0  0  0
    4.8025   15.3688   14.5818 C   0  0  0  0  0  0  0  0  0  0  0  0
    4.9869   16.3635   14.9584 H   0  0  0  0  0  0  0  0  0  0  0  0
    5.4352   14.2841   15.1663 C   0  0  0  0  0  0  0  0  0  0  0  0
    6.1133   14.4226   15.9962 H   0  0  0  0  0  0  0  0  0  0  0  0
    7.4568   12.0903   16.2193 C   0  0  0  0  0  0  0  0  0  0  0  0
    8.6360   12.1484   15.4811 C   0  0  0  0  0  0  0  0  0  0  0  0
    8.6188   11.8551   14.4388 H   0  0  0  0  0  0  0  0  0  0  0  0
    9.8062   12.5762   16.0807 C   0  0  0  0  0  0  0  0  0  0  0  0
   10.7208   12.6172   15.5073 H   0  0  0  0  0  0  0  0  0  0  0  0
    9.8040   12.9400   17.4185 C   0  0  0  0  0  0  0  0  0  0  0  0
   10.7190   13.2664   17.8911 H   0  0  0  0  0  0  0  0  0  0  0  0
    8.6304   12.8843   18.1537 C   0  0  0  0  0  0  0  0  0  0  0  0
    8.6319   13.1699   19.1959 H   0  0  0  0  0  0  0  0  0  0  0  0
    7.4542   12.4616   17.5598 C   0  0  0  0  0  0  0  0  0  0  0  0
    6.5387   12.4119   18.1332 H   0  0  0  0  0  0  0  0  0  0  0  0
    4.8233   11.0429   16.6780 C   0  0  0  0  0  0  0  0  0  0  0  0
    5.2182   10.0179   17.5344 C   0  0  0  0  0  0  0  0  0  0  0  0
    6.2066    9.5959   17.4254 H   0  0  0  0  0  0  0  0  0  0  0  0
    4.3500    9.5439   18.4970 C   0  0  0  0  0  0  0  0  0  0  0  0
    4.6607    8.7433   19.1521 H   0  0  0  0  0  0  0  0  0  0  0  0
    3.0784   10.0849   18.6082 C   0  0  0  0  0  0  0  0  0  0  0  0
    2.3939    9.7084   19.3542 H   0  0  0  0  0  0  0  0  0  0  0  0
    2.6800   11.1002   17.7554 C   0  0  0  0  0  0  0  0  0  0  0  0
    1.6866   11.5172   17.8374 H   0  0  0  0  0  0  0  0  0  0  0  0
    3.5448   11.5780   16.7859 C   0  0  0  0  0  0  0  0  0  0  0  0
    3.2232   12.3658   16.1172 H   0  0  0  0  0  0  0  0  0  0  0  0
  1  6  1  0  0  0  0
  1  2  1  0  0  0  0
  1  7  1  0  0  0  0
  3  1  1  0  0  0  0
  4  9  1  0  0  0  0
  5 41  1  0  0  0  0
  6 29  1  0  0  0  0
  7 50  1  0  0  0  0
  7 61  1  0  0  0  0
  8 16  1  0  0  0  0
  8  6  1  0  0  0  0
  9  8  2  0  0  0  0
 10 12  2  0  0  0  0
 10  9  1  0  0  0  0
 11 10  1  0  0  0  0
 12 14  1  0  0  0  0
 13 12  1  0  0  0  0
 14 15  1  0  0  0  0
 14 16  2  0  0  0  0
 16 17  1  0  0  0  0
 18  6  1  0  0  0  0
 18 27  1  0  0  0  0
 19 18  2  0  0  0  0
 20 19  1  0  0  0  0
 21 19  1  0  0  0  0
 21 23  2  0  0  0  0
 22 21  1  0  0  0  0
 23 25  1  0  0  0  0
 24 23  1  0  0  0  0
 25 27  2  0  0  0  0
 25 26  1  0  0  0  0
 27 28  1  0  0  0  0
 29 30  2  0  0  0  0
 29 38  1  0  0  0  0
 30 32  1  0  0  0  0
 31 30  1  0  0  0  0
 32 33  1  0  0  0  0
 32 34  2  0  0  0  0
 34 35  1  0  0  0  0
 36 34  1  0  0  0  0
 36 37  1  0  0  0  0
 38 36  2  0  0  0  0
 39 38  1  0  0  0  0
 40 48  1  0  0  0  0
 40  7  1  0  0  0  0
 41 40  2  0  0  0  0
 42 44  2  0  0  0  0
 42 41  1  0  0  0  0
 43 42  1  0  0  0  0
 44 46  1  0  0  0  0
 45 44  1  0  0  0  0
 46 47  1  0  0  0  0
 46 48  2  0  0  0  0
 48 49  1  0  0  0  0
 50 59  1  0  0  0  0
 51 53  1  0  0  0  0
 51 50  2  0  0  0  0
 52 51  1  0  0  0  0
 53 55  2  0  0  0  0
 54 53  1  0  0  0  0
 55 56  1  0  0  0  0
 55 57  1  0  0  0  0
 57 58  1  0  0  0  0
 59 60  1  0  0  0  0
 59 57  2  0  0  0  0
 61 70  2  0  0  0  0
 61 62  1  0  0  0  0
 62 64  2  0  0  0  0
 63 62  1  0  0  0  0
 64 66  1  0  0  0  0
 64 65  1  0  0  0  0
 66 67  1  0  0  0  0
 68 69  1  0  0  0  0
 68 66  2  0  0  0  0
 70 68  1  0  0  0  0
 71 70  1  0  0  0  0
M  END
$$$$
