CSD_code = AWIPED | q = 0 | S = 0 | Stoichiometry = C28H30Cl3CrN3 | MND = 6
 OpenBabel04212202003D

 65 70  0  0  1  0  0  0  0  0999 V2000
    3.5166   16.6526    1.0817 Cr  0  0  0  0  0  0  0  0  0  0  0  0
    5.0391   16.4777   -0.4655 Cl  0  0  0  0  0  0  0  0  0  0  0  0
    4.7234   15.2280    2.4535 Cl  0  0  0  0  0  0  0  0  0  0  0  0
    2.4256   18.0145   -0.3515 Cl  0  0  0  0  0  0  0  0  0  0  0  0
    2.2843   16.5675    2.5235 N   0  0  0  0  0  0  0  0  0  0  0  0
    2.3238   15.0639    0.5488 N   0  0  0  0  0  0  0  0  0  0  0  0
    2.4206   17.2647    3.6865 C   0  0  0  0  0  0  0  0  0  0  0  0
    3.9673   18.1425    2.2943 N   0  0  0  0  0  0  0  0  0  0  0  0
    1.4667   14.6885    1.4762 C   0  0  2  0  0  3  0  0  0  0  0  0
    4.8138   19.1600    1.8120 C   0  0  0  0  0  0  0  0  0  0  0  0
    1.6355   16.9177    4.8319 C   0  0  0  0  0  0  0  0  0  0  0  0
    1.7587   17.5237    5.7171 H   0  0  0  0  0  0  0  0  0  0  0  0
    1.4759   15.5293    2.5759 C   0  0  0  0  0  0  0  0  0  0  0  0
    6.2012   18.9640    1.7376 C   0  0  0  0  0  0  0  0  0  0  0  0
    4.3968   13.1306   -0.0570 C   0  0  0  0  0  0  0  0  0  0  0  0
    5.2095   13.8570   -0.1230 H   0  0  0  0  0  0  0  0  0  0  0  0
    4.0365   13.1439    0.9687 H   0  0  0  0  0  0  0  0  0  0  0  0
    4.8019   12.1470   -0.2831 H   0  0  0  0  0  0  0  0  0  0  0  0
    3.8840   19.1765    4.5619 C   0  0  0  0  0  0  0  0  0  0  0  0
    3.0333   19.6735    5.0243 H   0  0  0  0  0  0  0  0  0  0  0  0
    4.4153   18.6259    5.3388 H   0  0  0  0  0  0  0  0  0  0  0  0
    4.5560   19.9218    4.1424 H   0  0  0  0  0  0  0  0  0  0  0  0
    0.7732   15.8623    4.8459 C   0  0  0  0  0  0  0  0  0  0  0  0
    0.1991   15.6219    5.7267 H   0  0  0  0  0  0  0  0  0  0  0  0
    1.3583   14.7954   -1.6579 C   0  0  0  0  0  0  0  0  0  0  0  0
    3.4278   18.2201    3.5067 C   0  0  0  0  0  0  0  0  0  0  0  0
    0.6822   15.0517    3.6668 C   0  0  0  0  0  0  0  0  0  0  0  0
    3.3271   13.4984   -1.0332 C   0  0  0  0  0  0  0  0  0  0  0  0
    6.8391   17.7015    2.2179 C   0  0  0  0  0  0  0  0  0  0  0  0
    6.3283   17.2971    3.0898 H   0  0  0  0  0  0  0  0  0  0  0  0
    6.7966   16.9431    1.4332 H   0  0  0  0  0  0  0  0  0  0  0  0
    7.8845   17.8733    2.4635 H   0  0  0  0  0  0  0  0  0  0  0  0
    4.2411   20.3865    1.4221 C   0  0  0  0  0  0  0  0  0  0  0  0
    1.3815   14.1808   -2.9027 C   0  0  0  0  0  0  0  0  0  0  0  0
    0.6271   14.4500   -3.6273 H   0  0  0  0  0  0  0  0  0  0  0  0
    2.3445   14.4491   -0.7202 C   0  0  0  0  0  0  0  0  0  0  0  0
    5.0688   21.3651    0.8941 C   0  0  0  0  0  0  0  0  0  0  0  0
    4.6336   22.3010    0.5763 H   0  0  0  0  0  0  0  0  0  0  0  0
    1.3283   12.2105    1.8313 C   0  0  0  0  0  0  0  0  0  0  0  0
    1.6576   11.9659    0.8240 H   0  0  0  0  0  0  0  0  0  0  0  0
    2.1981   12.2933    2.4792 H   0  0  0  0  0  0  0  0  0  0  0  0
    0.6950   11.4065    2.1990 H   0  0  0  0  0  0  0  0  0  0  0  0
    0.5440   13.5284    1.8229 C   0  0  0  0  0  0  0  0  0  0  0  0
    3.3082   12.9082   -2.2888 C   0  0  0  0  0  0  0  0  0  0  0  0
    4.0645   12.1764   -2.5313 H   0  0  0  0  0  0  0  0  0  0  0  0
    2.3465   13.2454   -3.2223 C   0  0  0  0  0  0  0  0  0  0  0  0
    2.3497   12.7808   -4.1967 H   0  0  0  0  0  0  0  0  0  0  0  0
    0.1129   13.8896    3.2421 C   0  0  0  0  0  3  0  0  0  0  0  0
   -0.5416   13.2466    3.8010 H   0  0  0  0  0  0  0  0  0  0  0  0
    6.4311   21.1605    0.7692 C   0  0  0  0  0  0  0  0  0  0  0  0
    7.0571   21.9314    0.3457 H   0  0  0  0  0  0  0  0  0  0  0  0
   -0.6662   13.4139    0.8921 C   0  0  0  0  0  0  0  0  0  0  0  0
   -1.2402   14.3372    0.8955 H   0  0  0  0  0  0  0  0  0  0  0  0
   -0.3414   13.2015   -0.1234 H   0  0  0  0  0  0  0  0  0  0  0  0
   -1.3092   12.6049    1.2307 H   0  0  0  0  0  0  0  0  0  0  0  0
    0.3052   15.8234   -1.3786 C   0  0  0  0  0  0  0  0  0  0  0  0
    0.6016   16.7714   -1.8278 H   0  0  0  0  0  0  0  0  0  0  0  0
   -0.6447   15.5219   -1.8166 H   0  0  0  0  0  0  0  0  0  0  0  0
    0.1709   15.9987   -0.3143 H   0  0  0  0  0  0  0  0  0  0  0  0
    6.9898   19.9750    1.2052 C   0  0  0  0  0  0  0  0  0  0  0  0
    8.0564   19.8211    1.1353 H   0  0  0  0  0  0  0  0  0  0  0  0
    2.7733   20.6452    1.5569 C   0  0  0  0  0  0  0  0  0  0  0  0
    2.2320   20.0742    0.8012 H   0  0  0  0  0  0  0  0  0  0  0  0
    2.3958   20.3421    2.5316 H   0  0  0  0  0  0  0  0  0  0  0  0
    2.5629   21.7015    1.4108 H   0  0  0  0  0  0  0  0  0  0  0  0
  1  8  1  0  0  0  0
  1  3  1  0  0  0  0
  1  5  1  0  0  0  0
  2  1  1  0  0  0  0
  4  1  1  0  0  0  0
  5 13  1  0  0  0  0
  5  7  1  0  0  0  0
  6  1  1  0  0  0  0
  6  9  1  0  0  0  0
  7 11  1  0  0  0  0
  8 26  1  0  0  0  0
  9 43  1  0  0  0  0
  9 13  1  1  0  0  0
 10  8  1  0  0  0  0
 11 23  2  0  0  0  0
 11 12  1  0  0  0  0
 13 27  2  0  0  0  0
 14 10  1  0  0  0  0
 14 29  1  0  0  0  0
 15 17  1  0  0  0  0
 16 15  1  0  0  0  0
 18 15  1  0  0  0  0
 19 20  1  0  0  0  0
 19 21  1  0  0  0  0
 22 19  1  0  0  0  0
 23 24  1  0  0  0  0
 25 56  1  0  0  0  0
 25 36  1  0  0  0  0
 26  7  2  0  0  0  0
 26 19  1  0  0  0  0
 27 23  1  0  0  0  0
 28 36  2  0  0  0  0
 28 15  1  0  0  0  0
 29 32  1  0  0  0  0
 29 30  1  0  0  0  0
 31 29  1  0  0  0  0
 33 62  1  0  0  0  0
 33 10  2  0  0  0  0
 34 25  2  0  0  0  0
 35 34  1  0  0  0  0
 36  6  1  0  0  0  0
 37 33  1  0  0  0  0
 38 37  1  0  0  0  0
 39 42  1  0  0  0  0
 39 41  1  0  0  0  0
 40 39  1  0  0  0  0
 43 39  1  0  0  0  0
 43 48  1  0  0  0  0
 44 28  1  0  0  0  0
 45 44  1  0  0  0  0
 46 34  1  0  0  0  0
 46 44  2  0  0  0  0
 47 46  1  0  0  0  0
 48 27  1  0  0  0  0
 48 49  1  0  0  0  0
 50 37  2  0  0  0  0
 50 60  1  0  0  0  0
 51 50  1  0  0  0  0
 52 53  1  0  0  0  0
 52 55  1  0  0  0  0
 52 43  1  0  0  0  0
 54 52  1  0  0  0  0
 56 59  1  0  0  0  0
 57 56  1  0  0  0  0
 58 56  1  0  0  0  0
 60 14  2  0  0  0  0
 61 60  1  0  0  0  0
 62 64  1  0  0  0  0
 63 62  1  0  0  0  0
 65 62  1  0  0  0  0
M  END
$$$$
