CSD_code = AWIYUC | q = 0 | S = 0 | Stoichiometry = C18H22ClN3OPd | MND = 4
 OpenBabel04212202003D

 46 50  0  0  1  0  0  0  0  0999 V2000
    3.6993    1.0145    1.2893 Pd  0  0  1  0  0  0  0  0  0  0  0  0
    4.5718    1.3781   -0.7691 Cl  0  0  0  0  0  0  0  0  0  0  0  0
    3.0527    1.3685    5.2511 O   0  0  0  0  0  0  0  0  0  0  0  0
    2.9572    0.6356    3.0659 N   0  0  0  0  0  0  0  0  0  0  0  0
    2.5146   -0.4978    0.7421 N   0  0  0  0  0  0  0  0  0  0  0  0
    4.8614    2.3612    2.3697 N   0  0  2  0  0  4  0  0  0  0  0  0
    2.2103   -0.5079    3.1198 C   0  0  0  0  0  0  0  0  0  0  0  0
    1.6588   -1.0959    4.2469 C   0  0  0  0  0  0  0  0  0  0  0  0
    1.8320   -0.6451    5.2109 H   0  0  0  0  0  0  0  0  0  0  0  0
    0.8886   -2.2528    4.1244 C   0  0  0  0  0  0  0  0  0  0  0  0
    0.4735   -2.6946    5.0183 H   0  0  0  0  0  0  0  0  0  0  0  0
    0.6475   -2.8353    2.9046 C   0  0  0  0  0  0  0  0  0  0  0  0
    0.0478   -3.7292    2.8255 H   0  0  0  0  0  0  0  0  0  0  0  0
    1.1792   -2.2688    1.7309 C   0  0  0  0  0  0  0  0  0  0  0  0
    0.9713   -2.7930    0.4373 C   0  0  0  0  0  0  0  0  0  0  0  0
    0.3743   -3.6856    0.3197 H   0  0  0  0  0  0  0  0  0  0  0  0
    1.5266   -2.1626   -0.6437 C   0  0  0  0  0  0  0  0  0  0  0  0
    1.3850   -2.5366   -1.6452 H   0  0  0  0  0  0  0  0  0  0  0  0
    2.2989   -1.0079   -0.4507 C   0  0  0  0  0  0  0  0  0  0  0  0
    2.7536   -0.4968   -1.2913 H   0  0  0  0  0  0  0  0  0  0  0  0
    1.9731   -1.0985    1.8397 C   0  0  1  0  0  3  0  0  0  0  0  0
    3.2689    1.4811    4.0555 C   0  0  0  0  0  0  0  0  0  0  0  0
    3.9195    2.7483    3.4454 C   0  0  2  0  0  0  0  0  0  0  0  0
    4.4460    3.3164    4.2268 H   0  0  0  0  0  0  0  0  0  0  0  0
    5.3644    3.5501    1.6705 C   0  0  0  0  0  0  0  0  0  0  0  0
    5.9130    4.1889    2.3791 H   0  0  0  0  0  0  0  0  0  0  0  0
    6.0489    3.2204    0.8851 H   0  0  0  0  0  0  0  0  0  0  0  0
    4.2200    4.3420    1.0486 C   0  0  0  0  0  0  0  0  0  0  0  0
    3.6784    3.6890    0.3487 H   0  0  0  0  0  0  0  0  0  0  0  0
    4.6277    5.1827    0.4868 H   0  0  0  0  0  0  0  0  0  0  0  0
    3.2739    4.8156    2.1435 C   0  0  0  0  0  0  0  0  0  0  0  0
    3.8000    5.4793    2.8342 H   0  0  0  0  0  0  0  0  0  0  0  0
    2.4370    5.3685    1.7154 H   0  0  0  0  0  0  0  0  0  0  0  0
    2.7619    3.5866    2.8834 C   0  0  0  0  0  0  0  0  0  0  0  0
    2.1856    2.9619    2.1720 H   0  0  0  0  0  0  0  0  0  0  0  0
    2.1033    3.8645    3.7084 H   0  0  0  0  0  0  0  0  0  0  0  0
    5.9840    1.5891    2.9433 C   0  0  0  0  0  0  0  0  0  0  0  0
    6.7763    2.2806    3.2625 H   0  0  0  0  0  0  0  0  0  0  0  0
    5.6264    1.0618    3.8348 H   0  0  0  0  0  0  0  0  0  0  0  0
    6.5679    0.5591    1.9684 C   0  0  0  0  0  0  0  0  0  0  0  0
    6.8453    1.0481    1.0297 H   0  0  0  0  0  0  0  0  0  0  0  0
    5.8018   -0.2138    1.7431 H   0  0  0  0  0  0  0  0  0  0  0  0
    7.7944   -0.1180    2.5699 C   0  0  0  0  0  0  0  0  0  0  0  0
    8.5735    0.6133    2.7759 H   0  0  0  0  0  0  0  0  0  0  0  0
    8.1934   -0.8568    1.8804 H   0  0  0  0  0  0  0  0  0  0  0  0
    7.5389   -0.6188    3.5017 H   0  0  0  0  0  0  0  0  0  0  0  0
  1  2  1  6  0  0  0
  1  6  1  0  0  0  0
  1  4  1  0  0  0  0
  4  7  1  0  0  0  0
  4 22  1  0  0  0  0
  5  1  1  0  0  0  0
  5 21  1  0  0  0  0
  6 37  1  1  0  0  0
  6 23  1  0  0  0  0
  7  8  2  0  0  0  0
  8  9  1  0  0  0  0
 10  8  1  0  0  0  0
 10 11  1  0  0  0  0
 12 10  2  0  0  0  0
 13 12  1  0  0  0  0
 14 12  1  0  0  0  0
 15 14  2  0  0  0  0
 16 15  1  0  0  0  0
 17 19  2  0  0  0  0
 17 15  1  0  0  0  0
 18 17  1  0  0  0  0
 19  5  1  0  0  0  0
 20 19  1  0  0  0  0
 21 14  1  6  0  0  0
 21  7  1  0  0  0  0
 22  3  2  0  0  0  0
 23 22  1  0  0  0  0
 23 24  1  1  0  0  0
 25  6  1  0  0  0  0
 25 26  1  0  0  0  0
 27 25  1  0  0  0  0
 28 25  1  0  0  0  0
 28 31  1  0  0  0  0
 29 28  1  0  0  0  0
 30 28  1  0  0  0  0
 31 32  1  0  0  0  0
 31 34  1  0  0  0  0
 33 31  1  0  0  0  0
 34 23  1  0  0  0  0
 34 36  1  0  0  0  0
 35 34  1  0  0  0  0
 37 38  1  0  0  0  0
 37 39  1  0  0  0  0
 40 43  1  0  0  0  0
 40 37  1  0  0  0  0
 41 40  1  0  0  0  0
 42 40  1  0  0  0  0
 43 44  1  0  0  0  0
 43 46  1  0  0  0  0
 45 43  1  0  0  0  0
M  END
$$$$
