CSD_code = AWIZEL | q = 0 | S = 0 | Stoichiometry = C45H42ClNP2Pd | MND = 4
 OpenBabel04212202003D

 92 98  0  0  0  0  0  0  0  0999 V2000
    4.3865    5.7126   12.0630 Pd  0  0  0  0  0  0  0  0  0  0  0  0
    3.6350    7.1936   13.6007 P   0  0  0  0  0  4  0  0  0  0  0  0
    5.5341    4.1809   10.8494 P   0  0  0  0  0  4  0  0  0  0  0  0
    3.3150    3.9465   13.1826 Cl  0  0  0  0  0  0  0  0  0  0  0  0
    2.4122    6.8892   10.5495 N   0  0  0  0  0  0  0  0  0  0  0  0
    1.4605    5.7892   10.6516 C   0  0  0  0  0  0  0  0  0  0  0  0
    1.0076    5.5383    9.6785 H   0  0  0  0  0  0  0  0  0  0  0  0
    0.6638    6.0756   11.3377 H   0  0  0  0  0  0  0  0  0  0  0  0
    1.9620    4.9108   11.0707 H   0  0  0  0  0  0  0  0  0  0  0  0
    1.6970    8.1276   10.2863 C   0  0  0  0  0  0  0  0  0  0  0  0
    2.4077    8.9317   10.1003 H   0  0  0  0  0  0  0  0  0  0  0  0
    1.0880    8.3903   11.1511 H   0  0  0  0  0  0  0  0  0  0  0  0
    1.0410    8.0412    9.4051 H   0  0  0  0  0  0  0  0  0  0  0  0
    3.4056    6.6687    9.4893 C   0  0  0  0  0  0  0  0  0  0  0  0
    3.0177    6.9832    8.5046 H   0  0  0  0  0  0  0  0  0  0  0  0
    3.6272    5.5903    9.4329 H   0  0  0  0  0  0  0  0  0  0  0  0
    5.3050    7.1175   11.0344 C   0  0  0  0  0  0  0  0  0  0  0  0
    6.4552    7.8073   11.3860 C   0  0  0  0  0  0  0  0  0  0  0  0
    6.9608    7.5944   12.3237 H   0  0  0  0  0  0  0  0  0  0  0  0
    6.9775    8.7776   10.5428 C   0  0  0  0  0  0  0  0  0  0  0  0
    7.8740    9.3115   10.8267 H   0  0  0  0  0  0  0  0  0  0  0  0
    6.3534    9.0612    9.3415 C   0  0  0  0  0  0  0  0  0  0  0  0
    6.7595    9.8163    8.6837 H   0  0  0  0  0  0  0  0  0  0  0  0
    5.2015    8.3799    8.9840 C   0  0  0  0  0  0  0  0  0  0  0  0
    4.7111    8.6032    8.0451 H   0  0  0  0  0  0  0  0  0  0  0  0
    4.6762    7.4102    9.8249 C   0  0  0  0  0  0  0  0  0  0  0  0
    4.2166    6.5003   15.1800 C   0  0  0  0  0  0  0  0  0  0  0  0
    5.5670    6.1529   15.2021 C   0  0  0  0  0  0  0  0  0  0  0  0
    6.1657    6.3090   14.3038 H   0  0  0  0  0  0  0  0  0  0  0  0
    6.1315    5.6282   16.3480 C   0  0  0  0  0  0  0  0  0  0  0  0
    7.1815    5.3739   16.3674 H   0  0  0  0  0  0  0  0  0  0  0  0
    5.3464    5.4266   17.4733 C   0  0  0  0  0  0  0  0  0  0  0  0
    5.7824    5.0049   18.3672 H   0  0  0  0  0  0  0  0  0  0  0  0
    4.0031    5.7599   17.4502 C   0  0  0  0  0  0  0  0  0  0  0  0
    3.3918    5.5972   18.3260 H   0  0  0  0  0  0  0  0  0  0  0  0
    3.4354    6.3038   16.3098 C   0  0  0  0  0  0  0  0  0  0  0  0
    2.3873    6.5668   16.2970 H   0  0  0  0  0  0  0  0  0  0  0  0
    4.3101    8.8879   13.7016 C   0  0  0  0  0  0  0  0  0  0  0  0
    4.8569    9.4134   14.8670 C   0  0  0  0  0  0  0  0  0  0  0  0
    4.8919    8.8167   15.7676 H   0  0  0  0  0  0  0  0  0  0  0  0
    5.3576   10.7038   14.8789 C   0  0  0  0  0  0  0  0  0  0  0  0
    5.7828   11.1034   15.7882 H   0  0  0  0  0  0  0  0  0  0  0  0
    5.3166   11.4812   13.7339 C   0  0  0  0  0  0  0  0  0  0  0  0
    5.7142   12.4854   13.7471 H   0  0  0  0  0  0  0  0  0  0  0  0
    4.7651   10.9666   12.5716 C   0  0  0  0  0  0  0  0  0  0  0  0
    4.7303   11.5672   11.6743 H   0  0  0  0  0  0  0  0  0  0  0  0
    4.2664    9.6784   12.5567 C   0  0  0  0  0  0  0  0  0  0  0  0
    3.8420    9.2653   11.6550 H   0  0  0  0  0  0  0  0  0  0  0  0
    1.8571    7.4678   13.8669 C   0  0  0  0  0  0  0  0  0  0  0  0
    1.2929    8.7377   13.9259 C   0  0  0  0  0  0  0  0  0  0  0  0
    1.9154    9.6146   13.8192 H   0  0  0  0  0  0  0  0  0  0  0  0
   -0.0702    8.8808   14.1217 C   0  0  0  0  0  0  0  0  0  0  0  0
   -0.5027    9.8702   14.1666 H   0  0  0  0  0  0  0  0  0  0  0  0
   -0.8779    7.7644   14.2603 C   0  0  0  0  0  0  0  0  0  0  0  0
   -1.9407    7.8824   14.4141 H   0  0  0  0  0  0  0  0  0  0  0  0
   -0.3196    6.4972   14.1993 C   0  0  0  0  0  0  0  0  0  0  0  0
   -0.9463    5.6235   14.3048 H   0  0  0  0  0  0  0  0  0  0  0  0
    1.0401    6.3461   13.9993 C   0  0  0  0  0  0  0  0  0  0  0  0
    1.4813    5.3597   13.9384 H   0  0  0  0  0  0  0  0  0  0  0  0
    6.1775    4.5672    9.1868 C   0  0  0  0  0  0  0  0  0  0  0  0
    7.1902    5.5167    9.0702 C   0  0  0  0  0  0  0  0  0  0  0  0
    7.6190    5.9490    9.9633 H   0  0  0  0  0  0  0  0  0  0  0  0
    7.6433    5.9070    7.8255 C   0  0  0  0  0  0  0  0  0  0  0  0
    8.4269    6.6462    7.7490 H   0  0  0  0  0  0  0  0  0  0  0  0
    7.0890    5.3575    6.6807 C   0  0  0  0  0  0  0  0  0  0  0  0
    7.4396    5.6660    5.7069 H   0  0  0  0  0  0  0  0  0  0  0  0
    6.0852    4.4104    6.7883 C   0  0  0  0  0  0  0  0  0  0  0  0
    5.6536    3.9753    5.8985 H   0  0  0  0  0  0  0  0  0  0  0  0
    5.6273    4.0182    8.0339 C   0  0  0  0  0  0  0  0  0  0  0  0
    4.8437    3.2765    8.1089 H   0  0  0  0  0  0  0  0  0  0  0  0
    4.7970    2.5281   10.6067 C   0  0  0  0  0  0  0  0  0  0  0  0
    5.4863    1.3544   10.8867 C   0  0  0  0  0  0  0  0  0  0  0  0
    6.4973    1.3946   11.2658 H   0  0  0  0  0  0  0  0  0  0  0  0
    4.8746    0.1286   10.6915 C   0  0  0  0  0  0  0  0  0  0  0  0
    5.4157   -0.7791   10.9169 H   0  0  0  0  0  0  0  0  0  0  0  0
    3.5753    0.0611   10.2189 C   0  0  0  0  0  0  0  0  0  0  0  0
    3.0998   -0.8981   10.0765 H   0  0  0  0  0  0  0  0  0  0  0  0
    2.8824    1.2275    9.9395 C   0  0  0  0  0  0  0  0  0  0  0  0
    1.8649    1.1818    9.5793 H   0  0  0  0  0  0  0  0  0  0  0  0
    3.4898    2.4528   10.1338 C   0  0  0  0  0  0  0  0  0  0  0  0
    2.9419    3.3639    9.9314 H   0  0  0  0  0  0  0  0  0  0  0  0
    7.0407    3.7777   11.7893 C   0  0  0  0  0  0  0  0  0  0  0  0
    6.9170    3.7682   13.1766 C   0  0  0  0  0  0  0  0  0  0  0  0
    5.9585    4.0133   13.6286 H   0  0  0  0  0  0  0  0  0  0  0  0
    7.9948    3.4143   13.9679 C   0  0  0  0  0  0  0  0  0  0  0  0
    7.8883    3.3902   15.0423 H   0  0  0  0  0  0  0  0  0  0  0  0
    9.2051    3.0815   13.3819 C   0  0  0  0  0  0  0  0  0  0  0  0
   10.0500    2.8110   13.9984 H   0  0  0  0  0  0  0  0  0  0  0  0
    9.3310    3.0865   12.0018 C   0  0  0  0  0  0  0  0  0  0  0  0
   10.2720    2.8177   11.5438 H   0  0  0  0  0  0  0  0  0  0  0  0
    8.2524    3.4232   11.2034 C   0  0  0  0  0  0  0  0  0  0  0  0
    8.3508    3.4079   10.1268 H   0  0  0  0  0  0  0  0  0  0  0  0
  1  4  1  0  0  0  0
  1  2  1  0  0  0  0
  2 38  1  0  0  0  0
  2 49  1  0  0  0  0
  2 27  1  0  0  0  0
  3 82  1  0  0  0  0
  3  1  1  0  0  0  0
  5  6  1  0  0  0  0
  6  9  1  0  0  0  0
  6  8  1  0  0  0  0
  7  6  1  0  0  0  0
 10  5  1  0  0  0  0
 10 12  1  0  0  0  0
 11 10  1  0  0  0  0
 13 10  1  0  0  0  0
 14 26  1  0  0  0  0
 14  5  1  0  0  0  0
 15 14  1  0  0  0  0
 16 14  1  0  0  0  0
 17 18  1  0  0  0  0
 17  1  1  0  0  0  0
 18 19  1  0  0  0  0
 20 21  1  0  0  0  0
 20 18  2  0  0  0  0
 22 20  1  0  0  0  0
 23 22  1  0  0  0  0
 24 22  2  0  0  0  0
 24 26  1  0  0  0  0
 25 24  1  0  0  0  0
 26 17  2  0  0  0  0
 27 28  2  0  0  0  0
 27 36  1  0  0  0  0
 28 30  1  0  0  0  0
 29 28  1  0  0  0  0
 30 31  1  0  0  0  0
 30 32  2  0  0  0  0
 32 33  1  0  0  0  0
 34 32  1  0  0  0  0
 34 35  1  0  0  0  0
 36 34  2  0  0  0  0
 37 36  1  0  0  0  0
 38 39  1  0  0  0  0
 39 41  2  0  0  0  0
 39 40  1  0  0  0  0
 41 42  1  0  0  0  0
 43 44  1  0  0  0  0
 43 41  1  0  0  0  0
 45 43  2  0  0  0  0
 46 45  1  0  0  0  0
 47 45  1  0  0  0  0
 47 38  2  0  0  0  0
 48 47  1  0  0  0  0
 49 50  2  0  0  0  0
 49 58  1  0  0  0  0
 50 52  1  0  0  0  0
 51 50  1  0  0  0  0
 52 53  1  0  0  0  0
 52 54  2  0  0  0  0
 54 55  1  0  0  0  0
 56 54  1  0  0  0  0
 56 57  1  0  0  0  0
 58 56  2  0  0  0  0
 59 58  1  0  0  0  0
 60  3  1  0  0  0  0
 61 60  1  0  0  0  0
 61 62  1  0  0  0  0
 63 61  2  0  0  0  0
 64 63  1  0  0  0  0
 65 67  2  0  0  0  0
 65 63  1  0  0  0  0
 66 65  1  0  0  0  0
 67 69  1  0  0  0  0
 68 67  1  0  0  0  0
 69 70  1  0  0  0  0
 69 60  2  0  0  0  0
 71  3  1  0  0  0  0
 71 72  1  0  0  0  0
 72 73  1  0  0  0  0
 74 72  2  0  0  0  0
 74 75  1  0  0  0  0
 76 74  1  0  0  0  0
 77 76  1  0  0  0  0
 78 80  1  0  0  0  0
 78 76  2  0  0  0  0
 79 78  1  0  0  0  0
 80 71  2  0  0  0  0
 81 80  1  0  0  0  0
 82 83  1  0  0  0  0
 83 84  1  0  0  0  0
 83 85  2  0  0  0  0
 85 86  1  0  0  0  0
 87 85  1  0  0  0  0
 87 88  1  0  0  0  0
 89 87  2  0  0  0  0
 90 89  1  0  0  0  0
 91 82  2  0  0  0  0
 91 89  1  0  0  0  0
 92 91  1  0  0  0  0
M  END
$$$$
