CSD_code = AWIZAJ | q = 0 | S = 0 | Stoichiometry = C28H22BrCl2N2PRu | MND = 6
 OpenBabel04212202003D

 57 62  0  0  0  0  0  0  0  0999 V2000
    9.1074    8.2115    7.3329 Ru  0  0  0  0  0  0  0  0  0  0  0  0
    8.0877    9.4741    5.2615 Br  0  0  0  0  0  0  0  0  0  0  0  0
    7.6003    9.2428    8.8394 Cl  0  0  0  0  0  0  0  0  0  0  0  0
   10.7113    7.2900    5.7864 Cl  0  0  0  0  0  0  0  0  0  0  0  0
    7.5795    6.6542    6.5800 P   0  0  0  0  0  4  0  0  0  0  0  0
   10.5217    9.5002    7.8083 N   0  0  0  0  0  0  0  0  0  0  0  0
    9.9371    7.2348    8.7792 N   0  0  0  0  0  0  0  0  0  0  0  0
   10.6774   10.7228    7.3123 C   0  0  0  0  0  3  0  0  0  0  0  0
    9.8565   11.1203    6.7288 H   0  0  0  0  0  0  0  0  0  0  0  0
   11.8160   11.4769    7.5205 C   0  0  0  0  0  0  0  0  0  0  0  0
   11.8913   12.4630    7.0915 H   0  0  0  0  0  0  0  0  0  0  0  0
   12.8507   10.9383    8.2750 C   0  0  0  0  0  0  0  0  0  0  0  0
   13.7625   11.4913    8.4383 H   0  0  0  0  0  0  0  0  0  0  0  0
   12.6829    9.6807    8.8219 C   0  0  0  0  0  0  0  0  0  0  0  0
   13.4609    9.2363    9.4210 H   0  0  0  0  0  0  0  0  0  0  0  0
   11.9158    7.0166   10.1126 C   0  0  0  0  0  0  0  0  0  0  0  0
   12.8866    7.3945   10.3884 H   0  0  0  0  0  0  0  0  0  0  0  0
   11.4238    5.8631   10.6913 C   0  0  0  0  0  0  0  0  0  0  0  0
   12.0077    5.3162   11.4142 H   0  0  0  0  0  0  0  0  0  0  0  0
   10.1471    5.4412   10.3363 C   0  0  0  0  0  0  0  0  0  0  0  0
    9.7015    4.5686   10.7858 H   0  0  0  0  0  0  0  0  0  0  0  0
    9.4482    6.1535    9.3859 C   0  0  0  0  0  3  0  0  0  0  0  0
    8.4506    5.8502    9.0925 H   0  0  0  0  0  0  0  0  0  0  0  0
   11.1496    7.6996    9.1712 C   0  0  0  0  0  0  0  0  0  0  0  0
   11.4998    8.9840    8.5849 C   0  0  0  0  0  0  0  0  0  0  0  0
    7.6189    6.7116    4.7496 C   0  0  0  0  0  0  0  0  0  0  0  0
    7.8486    7.9363    4.1314 C   0  0  0  0  0  0  0  0  0  0  0  0
    7.9159    8.0704    2.7590 C   0  0  0  0  0  0  0  0  0  0  0  0
    8.0992    9.0370    2.3172 H   0  0  0  0  0  0  0  0  0  0  0  0
    7.7569    6.9408    1.9716 C   0  0  0  0  0  0  0  0  0  0  0  0
    7.8188    7.0285    0.8978 H   0  0  0  0  0  0  0  0  0  0  0  0
    7.5278    5.7086    2.5605 C   0  0  0  0  0  0  0  0  0  0  0  0
    7.4077    4.8296    1.9453 H   0  0  0  0  0  0  0  0  0  0  0  0
    7.4571    5.5939    3.9384 C   0  0  0  0  0  0  0  0  0  0  0  0
    7.2826    4.6306    4.3953 H   0  0  0  0  0  0  0  0  0  0  0  0
    7.7408    4.8625    6.8615 C   0  0  0  0  0  0  0  0  0  0  0  0
    9.0236    4.3280    6.7502 C   0  0  0  0  0  0  0  0  0  0  0  0
    9.8489    4.9842    6.5040 H   0  0  0  0  0  0  0  0  0  0  0  0
    9.2291    2.9760    6.9462 C   0  0  0  0  0  0  0  0  0  0  0  0
   10.2231    2.5637    6.8547 H   0  0  0  0  0  0  0  0  0  0  0  0
    8.1598    2.1514    7.2618 C   0  0  0  0  0  0  0  0  0  0  0  0
    8.3200    1.0946    7.4175 H   0  0  0  0  0  0  0  0  0  0  0  0
    6.8853    2.6808    7.3775 C   0  0  0  0  0  0  0  0  0  0  0  0
    6.0523    2.0377    7.6217 H   0  0  0  0  0  0  0  0  0  0  0  0
    6.6703    4.0342    7.1793 C   0  0  0  0  0  0  0  0  0  0  0  0
    5.6746    4.4456    7.2688 H   0  0  0  0  0  0  0  0  0  0  0  0
    5.8230    6.9839    6.9188 C   0  0  0  0  0  0  0  0  0  0  0  0
    5.4376    6.9653    8.2581 C   0  0  0  0  0  0  0  0  0  0  0  0
    6.1696    6.7337    9.0199 H   0  0  0  0  0  0  0  0  0  0  0  0
    4.1363    7.2653    8.6095 C   0  0  0  0  0  0  0  0  0  0  0  0
    3.8442    7.2560    9.6490 H   0  0  0  0  0  0  0  0  0  0  0  0
    3.2132    7.5949    7.6294 C   0  0  0  0  0  0  0  0  0  0  0  0
    2.1977    7.8392    7.9044 H   0  0  0  0  0  0  0  0  0  0  0  0
    3.5942    7.6222    6.2988 C   0  0  0  0  0  0  0  0  0  0  0  0
    2.8773    7.8863    5.5349 H   0  0  0  0  0  0  0  0  0  0  0  0
    4.8965    7.3210    5.9389 C   0  0  0  0  0  0  0  0  0  0  0  0
    5.1859    7.3503    4.8967 H   0  0  0  0  0  0  0  0  0  0  0  0
  1  6  1  0  0  0  0
  1  7  1  0  0  0  0
  1  3  1  0  0  0  0
  4  1  1  0  0  0  0
  5 36  1  0  0  0  0
  5 47  1  0  0  0  0
  5  1  1  0  0  0  0
  6 25  1  0  0  0  0
  7 24  1  0  0  0  0
  7 22  1  0  0  0  0
  8 10  1  0  0  0  0
  8  6  1  0  0  0  0
  9  8  1  0  0  0  0
 10 12  2  0  0  0  0
 11 10  1  0  0  0  0
 12 13  1  0  0  0  0
 12 14  1  0  0  0  0
 14 15  1  0  0  0  0
 16 17  1  0  0  0  0
 16 18  1  0  0  0  0
 18 19  1  0  0  0  0
 20 18  2  0  0  0  0
 20 21  1  0  0  0  0
 22 20  1  0  0  0  0
 23 22  1  0  0  0  0
 24 16  2  0  0  0  0
 25 14  2  0  0  0  0
 25 24  1  0  0  0  0
 26  5  1  0  0  0  0
 27 26  1  0  0  0  0
 27  2  1  0  0  0  0
 28 27  2  0  0  0  0
 29 28  1  0  0  0  0
 30 32  2  0  0  0  0
 30 28  1  0  0  0  0
 31 30  1  0  0  0  0
 32 34  1  0  0  0  0
 33 32  1  0  0  0  0
 34 35  1  0  0  0  0
 34 26  2  0  0  0  0
 36 45  1  0  0  0  0
 37 36  2  0  0  0  0
 37 39  1  0  0  0  0
 38 37  1  0  0  0  0
 39 41  2  0  0  0  0
 40 39  1  0  0  0  0
 41 43  1  0  0  0  0
 41 42  1  0  0  0  0
 43 44  1  0  0  0  0
 45 46  1  0  0  0  0
 45 43  2  0  0  0  0
 47 48  1  0  0  0  0
 48 50  2  0  0  0  0
 48 49  1  0  0  0  0
 50 51  1  0  0  0  0
 52 53  1  0  0  0  0
 52 50  1  0  0  0  0
 54 52  2  0  0  0  0
 55 54  1  0  0  0  0
 56 54  1  0  0  0  0
 56 47  2  0  0  0  0
 57 56  1  0  0  0  0
M  END
$$$$
