CSD_code = AWOFIB | q = 0 | S = 0 | Stoichiometry = C13H13Cl2N5Zn | MND = 5
 OpenBabel04212202003D

 34 37  0  0  1  0  0  0  0  0999 V2000
    6.4579    2.5975    8.7444 Zn  0  0  0  0  0  0  0  0  0  0  0  0
    4.6940    1.3638    8.2020 Cl  0  0  0  0  0  0  0  0  0  0  0  0
    6.6962    3.2463   10.8835 Cl  0  0  0  0  0  0  0  0  0  0  0  0
    6.1589    4.0529    7.2355 N   0  0  1  0  0  0  0  0  0  0  0  0
    6.6136    5.2996    7.2385 N   0  0  0  0  0  0  0  0  0  0  0  0
    8.6147    3.9580    8.7768 N   0  0  0  0  0  0  0  0  0  0  0  0
    9.1748    1.2083    8.2260 N   0  0  2  0  0  0  0  0  0  0  0  0
    7.8912    1.2889    7.8990 N   0  0  0  0  0  0  0  0  0  0  0  0
    5.6912    3.8114    6.0228 C   0  0  0  0  0  3  0  0  0  0  0  0
    5.2486    2.8624    5.7973 H   0  0  0  0  0  0  0  0  0  0  0  0
    5.8507    4.9395    5.2175 C   0  0  0  0  0  0  0  0  0  0  0  0
    5.5650    5.0582    4.1933 H   0  0  0  0  0  0  0  0  0  0  0  0
    6.4502    5.8729    6.0356 C   0  0  0  0  0  0  0  0  0  0  0  0
    6.7513    6.8830    5.8424 H   0  0  0  0  0  0  0  0  0  0  0  0
    7.1887    5.8669    8.4237 C   0  0  0  0  0  0  0  0  0  0  0  0
    6.5360    5.6234    9.2728 H   0  0  0  0  0  0  0  0  0  0  0  0
    7.2520    6.9500    8.3090 H   0  0  0  0  0  0  0  0  0  0  0  0
    8.5393    5.2801    8.7501 C   0  0  0  0  0  0  0  0  0  0  0  0
    9.6116    6.0932    9.0949 C   0  0  0  0  0  0  0  0  0  0  0  0
    9.5176    7.1671    9.0618 H   0  0  0  0  0  0  0  0  0  0  0  0
   10.7937    5.4953    9.4976 C   0  0  0  0  0  0  0  0  0  0  0  0
   11.6491    6.0957    9.7676 H   0  0  0  0  0  0  0  0  0  0  0  0
   10.8500    4.1139    9.5723 C   0  0  0  0  0  0  0  0  0  0  0  0
   11.7407    3.6140    9.9187 H   0  0  0  0  0  0  0  0  0  0  0  0
    9.7268    3.3821    9.2080 C   0  0  0  0  0  0  0  0  0  0  0  0
    9.6797    1.8851    9.3854 C   0  0  0  0  0  0  0  0  0  0  0  0
   10.6670    1.4905    9.6299 H   0  0  0  0  0  0  0  0  0  0  0  0
    8.9904    1.6985   10.2200 H   0  0  0  0  0  0  0  0  0  0  0  0
    9.8467    0.4467    7.3480 C   0  0  0  0  0  3  0  0  0  0  0  0
   10.8969    0.2578    7.4472 H   0  0  0  0  0  0  0  0  0  0  0  0
    8.9380    0.0105    6.4080 C   0  0  0  0  0  0  0  0  0  0  0  0
    9.1240   -0.6240    5.5668 H   0  0  0  0  0  0  0  0  0  0  0  0
    7.7227    0.5714    6.8016 C   0  0  0  0  0  0  0  0  0  0  0  0
    6.7481    0.4749    6.3676 H   0  0  0  0  0  0  0  0  0  0  0  0
  1  3  1  0  0  0  0
  2  1  1  0  0  0  0
  4  9  1  6  0  0  0
  4  5  1  0  0  0  0
  4  1  1  0  0  0  0
  5 15  1  0  0  0  0
  6 25  1  0  0  0  0
  7 29  1  6  0  0  0
  7 26  1  0  0  0  0
  8  7  1  0  0  0  0
  8  1  1  0  0  0  0
 10  9  1  0  0  0  0
 11  9  1  0  0  0  0
 11 13  2  0  0  0  0
 12 11  1  0  0  0  0
 13  5  1  0  0  0  0
 14 13  1  0  0  0  0
 15 18  1  0  0  0  0
 15 16  1  0  0  0  0
 17 15  1  0  0  0  0
 18  6  2  0  0  0  0
 18 19  1  0  0  0  0
 19 21  2  0  0  0  0
 20 19  1  0  0  0  0
 21 23  1  0  0  0  0
 21 22  1  0  0  0  0
 23 24  1  0  0  0  0
 25 26  1  0  0  0  0
 25 23  2  0  0  0  0
 26 27  1  0  0  0  0
 26 28  1  0  0  0  0
 29 30  1  0  0  0  0
 31 33  2  0  0  0  0
 31 29  1  0  0  0  0
 32 31  1  0  0  0  0
 33  8  1  0  0  0  0
 34 33  1  0  0  0  0
M  END
$$$$
