CSD_code = AWOFAT | q = 0 | S = 0 | Stoichiometry = C14H17Cl2N3Zn | MND = 5
 OpenBabel04212202003D

 37 40  0  0  1  0  0  0  0  0999 V2000
    1.8812    2.1984    1.6107 Zn  0  0  0  0  0  0  0  0  0  0  0  0
    0.8557    3.3747   -0.0534 Cl  0  0  0  0  0  0  0  0  0  0  0  0
    2.5413    0.0677    1.4816 Cl  0  0  0  0  0  0  0  0  0  0  0  0
   -0.0880    1.7403    2.4463 N   0  0  0  0  0  0  0  0  0  0  0  0
    2.1214    3.9617    3.0094 N   0  0  2  0  0  4  0  0  0  0  0  0
    3.8472    3.0004    1.1616 N   0  0  0  0  0  0  0  0  0  0  0  0
   -0.7281    0.8888    1.6537 C   0  0  0  0  0  3  0  0  0  0  0  0
   -0.1046    0.2571    1.0366 H   0  0  0  0  0  0  0  0  0  0  0  0
   -2.1070    0.7923    1.6095 C   0  0  0  0  0  0  0  0  0  0  0  0
   -2.5798    0.0835    0.9492 H   0  0  0  0  0  0  0  0  0  0  0  0
   -2.8527    1.6334    2.4184 C   0  0  0  0  0  0  0  0  0  0  0  0
   -3.9321    1.6067    2.4018 H   0  0  0  0  0  0  0  0  0  0  0  0
   -2.1838    2.5093    3.2551 C   0  0  0  0  0  0  0  0  0  0  0  0
   -2.7309    3.1740    3.9064 H   0  0  0  0  0  0  0  0  0  0  0  0
   -0.7936    2.5313    3.2507 C   0  0  0  0  0  0  0  0  0  0  0  0
   -0.0381    3.4386    4.1773 C   0  0  0  0  0  0  0  0  0  0  0  0
   -0.7515    3.9714    4.8077 H   0  0  0  0  0  0  0  0  0  0  0  0
    0.5901    2.8251    4.8245 H   0  0  0  0  0  0  0  0  0  0  0  0
    0.8186    4.4703    3.4341 C   0  0  0  0  0  0  0  0  0  0  0  0
    0.2776    4.7807    2.5376 H   0  0  0  0  0  0  0  0  0  0  0  0
    0.9586    5.3520    4.0798 H   0  0  0  0  0  0  0  0  0  0  0  0
    2.7401    4.9139    2.0886 C   0  0  0  0  0  0  0  0  0  0  0  0
    3.0323    5.8407    2.6034 H   0  0  0  0  0  0  0  0  0  0  0  0
    2.0048    5.1498    1.3107 H   0  0  0  0  0  0  0  0  0  0  0  0
    3.9122    4.3082    1.3773 C   0  0  2  0  0  3  0  0  0  0  0  0
    4.9793    5.0696    0.9175 C   0  0  0  0  0  0  0  0  0  0  0  0
    5.0063    6.1323    1.1034 H   0  0  0  0  0  0  0  0  0  0  0  0
    5.9925    4.4412    0.2134 C   0  0  0  0  0  0  0  0  0  0  0  0
    6.8310    5.0099   -0.1602 H   0  0  0  0  0  0  0  0  0  0  0  0
    5.9124    3.0737   -0.0022 C   0  0  0  0  0  0  0  0  0  0  0  0
    6.6813    2.5479   -0.5446 H   0  0  0  0  0  0  0  0  0  0  0  0
    4.8150    2.3913    0.4936 C   0  0  0  0  0  0  0  0  0  0  0  0
    4.6926    1.3250    0.3651 H   0  0  0  0  0  0  0  0  0  0  0  0
    3.0090    3.7545    4.1483 C   0  0  0  0  0  0  0  0  0  0  0  0
    3.1226    4.6759    4.7356 H   0  0  0  0  0  0  0  0  0  0  0  0
    3.9877    3.4407    3.7921 H   0  0  0  0  0  0  0  0  0  0  0  0
    2.6265    2.9686    4.7942 H   0  0  0  0  0  0  0  0  0  0  0  0
  1  4  1  0  0  0  0
  1  5  1  0  0  0  0
  2  1  1  0  0  0  0
  3  1  1  0  0  0  0
  4 15  1  0  0  0  0
  5 19  1  0  0  0  0
  5 34  1  1  0  0  0
  6 25  1  0  0  0  0
  6  1  1  0  0  0  0
  7  4  1  0  0  0  0
  8  7  1  0  0  0  0
  9  7  1  0  0  0  0
  9 11  2  0  0  0  0
 10  9  1  0  0  0  0
 11 13  1  0  0  0  0
 12 11  1  0  0  0  0
 13 14  1  0  0  0  0
 15 13  2  0  0  0  0
 15 16  1  0  0  0  0
 16 17  1  0  0  0  0
 16 18  1  0  0  0  0
 19 21  1  0  0  0  0
 19 16  1  0  0  0  0
 20 19  1  0  0  0  0
 22 23  1  0  0  0  0
 22  5  1  0  0  0  0
 24 22  1  0  0  0  0
 25 26  1  6  0  0  0
 25 22  1  0  0  0  0
 26 27  1  0  0  0  0
 28 26  2  0  0  0  0
 29 28  1  0  0  0  0
 30 28  1  0  0  0  0
 30 32  2  0  0  0  0
 31 30  1  0  0  0  0
 32  6  1  0  0  0  0
 33 32  1  0  0  0  0
 34 35  1  0  0  0  0
 34 37  1  0  0  0  0
 36 34  1  0  0  0  0
M  END
$$$$
