CSD_code = AWOTOV | q = 0 | S = 0 | Stoichiometry = C19H13Cl2N3O3Ru | MND = 6
 OpenBabel04212202003D

 41 46  0  0  1  0  0  0  0  0999 V2000
    1.8414    3.3995    2.1512 Ru  0  0  0  0  0  0  0  0  0  0  0  0
    3.1643    3.7519    4.0860 Cl  0  0  0  0  0  0  0  0  0  0  0  0
    4.5640    1.5185    1.0925 Cl  0  0  0  0  0  0  0  0  0  0  0  0
    0.3954    2.9081    3.4042 O   0  0  0  0  0  0  0  0  0  0  0  0
    0.4711    2.7604    0.7601 O   0  0  0  0  0  0  0  0  0  0  0  0
    0.7718    5.1551    1.9914 N   0  0  0  0  0  0  0  0  0  0  0  0
    2.3880    1.4274    2.4948 N   0  0  0  0  0  0  0  0  0  0  0  0
    2.9909    3.9181    1.0557 N   0  0  0  0  0  2  0  0  0  0  0  0
    0.9768    6.3428    2.5264 C   0  0  0  0  0  0  0  0  0  0  0  0
   -0.4060    4.8687    1.3746 C   0  0  0  0  0  0  0  0  0  0  0  0
    3.7117    4.3942    0.2852 O   0  0  0  0  0  1  0  0  0  0  0  0
   -1.4715    5.8037    1.3213 C   0  0  0  0  0  0  0  0  0  0  0  0
   -1.7260    3.2953    0.0965 C   0  0  0  0  0  0  0  0  0  0  0  0
    1.4759    0.8343    3.3009 C   0  0  2  0  0  3  0  0  0  0  0  0
    0.4100    1.6687    3.7662 C   0  0  0  0  0  0  0  0  0  0  0  0
   -0.5486    1.0887    4.5977 C   0  0  0  0  0  0  0  0  0  0  0  0
   -0.5274    3.5915    0.7427 C   0  0  0  0  0  0  0  0  0  0  0  0
    3.5977   -0.6311    2.4025 C   0  0  0  0  0  0  0  0  0  0  0  0
   -0.0470    7.3136    2.5253 C   0  0  0  0  0  0  0  0  0  0  0  0
   -2.6603    5.4489    0.6632 C   0  0  0  0  0  3  0  0  0  0  0  0
    2.3050    6.6622    3.1184 C   0  0  0  0  0  0  0  0  0  0  0  0
    1.5700   -0.5274    3.6906 C   0  0  0  0  0  0  0  0  0  0  0  0
    0.5757   -1.0551    4.5285 C   0  0  0  0  0  0  0  0  0  0  0  0
    2.6782   -1.2517    3.2022 C   0  0  0  0  0  0  0  0  0  0  0  0
   -1.2558    7.0484    1.9490 C   0  0  0  0  0  0  0  0  0  0  0  0
    3.4120    0.7218    2.0733 C   0  0  0  0  0  0  0  0  0  0  0  0
   -0.4545   -0.2508    4.9604 C   0  0  0  0  0  0  0  0  0  0  0  0
   -2.7696    4.2155    0.0684 C   0  0  0  0  0  0  0  0  0  0  0  0
   -1.3597    1.7025    4.9577 H   0  0  0  0  0  0  0  0  0  0  0  0
    4.4630   -1.1446    2.0178 H   0  0  0  0  0  0  0  0  0  0  0  0
    0.6358   -2.0892    4.8288 H   0  0  0  0  0  0  0  0  0  0  0  0
    2.7942   -2.2907    3.4719 H   0  0  0  0  0  0  0  0  0  0  0  0
   -2.0482    7.7824    1.9540 H   0  0  0  0  0  0  0  0  0  0  0  0
    0.1484    8.2658    2.9932 H   0  0  0  0  0  0  0  0  0  0  0  0
   -1.2144   -0.6649    5.6067 H   0  0  0  0  0  0  0  0  0  0  0  0
   -3.4739    6.1566    0.6330 H   0  0  0  0  0  0  0  0  0  0  0  0
   -1.8249    2.3344   -0.3838 H   0  0  0  0  0  0  0  0  0  0  0  0
   -3.6844    3.9452   -0.4382 H   0  0  0  0  0  0  0  0  0  0  0  0
    2.4353    7.7367    3.2119 H   0  0  0  0  0  0  0  0  0  0  0  0
    3.1107    6.2500    2.5097 H   0  0  0  0  0  0  0  0  0  0  0  0
    2.3922    6.2092    4.1070 H   0  0  0  0  0  0  0  0  0  0  0  0
  1  7  1  0  0  0  0
  1  4  1  0  0  0  0
  1  2  1  0  0  0  0
  3 26  1  0  0  0  0
  4 15  1  0  0  0  0
  5  1  1  0  0  0  0
  6  1  1  0  0  0  0
  6  9  1  0  0  0  0
  7 14  1  0  0  0  0
  8  1  1  0  0  0  0
  9 21  1  0  0  0  0
 10  6  1  0  0  0  0
 11  8  1  0  0  0  0
 12 10  1  0  0  0  0
 12 25  2  0  0  0  0
 13 17  1  0  0  0  0
 14 22  1  1  0  0  0
 14 15  1  0  0  0  0
 15 16  2  0  0  0  0
 16 29  1  0  0  0  0
 16 27  1  0  0  0  0
 17  5  1  0  0  0  0
 17 10  2  0  0  0  0
 18 24  1  0  0  0  0
 19  9  2  0  0  0  0
 19 34  1  0  0  0  0
 20 12  1  0  0  0  0
 21 39  1  0  0  0  0
 21 41  1  0  0  0  0
 22 23  1  0  0  0  0
 23 31  1  0  0  0  0
 23 27  2  0  0  0  0
 24 32  1  0  0  0  0
 24 22  2  0  0  0  0
 25 33  1  0  0  0  0
 25 19  1  0  0  0  0
 26 18  2  0  0  0  0
 26  7  1  0  0  0  0
 27 35  1  0  0  0  0
 28 13  2  0  0  0  0
 28 20  1  0  0  0  0
 30 18  1  0  0  0  0
 36 20  1  0  0  0  0
 37 13  1  0  0  0  0
 38 28  1  0  0  0  0
 40 21  1  0  0  0  0
M  END
$$$$
