CSD_code = AWOXIV | q = 0 | S = 0 | Stoichiometry = C25H42IIrNO6P | MND = 6
 OpenBabel04212202003D

 77 80  0  0  0  0  0  0  0  0999 V2000
    0.9445    6.1832   24.9675 Ir  0  0  0  0  0  0  0  0  0  0  0  0
    0.3317    3.8688   21.3781 C   0  0  0  0  0  0  0  0  0  0  0  0
    0.8727    3.7205   20.4561 H   0  0  0  0  0  0  0  0  0  0  0  0
    0.7847    4.7806   22.3122 C   0  0  0  0  0  0  0  0  0  0  0  0
   -0.8245    3.1566   21.6592 C   0  0  0  0  0  0  0  0  0  0  0  0
   -1.1932    2.4360   20.9453 H   0  0  0  0  0  0  0  0  0  0  0  0
    0.1274    5.0197   23.5156 C   0  0  0  0  0  0  0  0  0  0  0  0
   -0.9306    8.1551   24.7201 I   0  0  0  0  0  0  0  0  0  0  0  0
    2.4339    7.7810   27.0847 O   0  0  0  0  0  1  0  0  0  0  0  0
    2.4138    4.6814   25.2320 C   0  0  0  0  0  0  0  0  0  0  0  0
    2.1948    3.7943   24.6399 H   0  0  0  0  0  0  0  0  0  0  0  0
    2.4584    4.3830   26.2794 H   0  0  0  0  0  0  0  0  0  0  0  0
    3.4182    5.0023   24.9632 H   0  0  0  0  0  0  0  0  0  0  0  0
   -0.7805    4.8415   26.1447 N   0  0  0  0  0  4  0  0  0  0  0  0
   -1.0371    4.2946   23.7657 C   0  0  0  0  0  0  0  0  0  0  0  0
   -0.5230    6.0796   28.3189 C   0  0  0  0  0  0  0  0  0  0  0  0
    0.3008    5.3799   28.5260 H   0  0  0  0  0  0  0  0  0  0  0  0
   -0.0909    7.0348   27.9823 H   0  0  0  0  0  0  0  0  0  0  0  0
   -0.2074    3.5493   26.5598 C   0  0  0  0  0  0  0  0  0  0  0  0
    0.1596    3.0570   25.6573 H   0  0  0  0  0  0  0  0  0  0  0  0
    0.6359    3.7307   27.2259 H   0  0  0  0  0  0  0  0  0  0  0  0
   -1.7529    4.6041   25.0500 C   0  0  0  0  0  0  0  0  0  0  0  0
   -2.4621    3.8111   25.3124 H   0  0  0  0  0  0  0  0  0  0  0  0
   -2.3322    5.5205   24.9020 H   0  0  0  0  0  0  0  0  0  0  0  0
   -1.4655    5.5187   27.2570 C   0  0  0  0  0  0  0  0  0  0  0  0
   -2.1518    4.8377   27.7678 H   0  0  0  0  0  0  0  0  0  0  0  0
   -2.0537    6.3477   26.8596 H   0  0  0  0  0  0  0  0  0  0  0  0
   -1.5054    3.3663   22.8457 C   0  0  0  0  0  0  0  0  0  0  0  0
   -2.4071    2.8087   23.0566 H   0  0  0  0  0  0  0  0  0  0  0  0
    2.1308    6.7693   23.0550 P   0  0  0  0  0  4  0  0  0  0  0  0
    1.9606    5.5034   22.0784 O   0  0  0  0  0  0  0  0  0  0  0  0
    4.4956    7.6803   24.2228 C   0  0  0  0  0  0  0  0  0  0  0  0
    3.8982    8.5450   24.5059 H   0  0  0  0  0  0  0  0  0  0  0  0
    5.5270    8.0034   24.0908 H   0  0  0  0  0  0  0  0  0  0  0  0
    4.4665    6.9656   25.0415 H   0  0  0  0  0  0  0  0  0  0  0  0
    1.4282    8.1551   22.0120 C   0  0  0  0  0  0  0  0  0  0  0  0
    0.3409    8.0422   22.0836 H   0  0  0  0  0  0  0  0  0  0  0  0
    3.9699    7.0588   22.9337 C   0  0  0  0  0  0  0  0  0  0  0  0
    4.0841    7.7973   22.1322 H   0  0  0  0  0  0  0  0  0  0  0  0
    4.7472    5.8123   22.5311 C   0  0  0  0  0  0  0  0  0  0  0  0
    4.6760    5.0339   23.2855 H   0  0  0  0  0  0  0  0  0  0  0  0
    5.7985    6.0662   22.4019 H   0  0  0  0  0  0  0  0  0  0  0  0
    4.3700    5.4127   21.5932 H   0  0  0  0  0  0  0  0  0  0  0  0
    1.8185    9.5187   22.5669 C   0  0  0  0  0  0  0  0  0  0  0  0
    1.5860    9.5861   23.6268 H   0  0  0  0  0  0  0  0  0  0  0  0
    1.2571   10.2966   22.0540 H   0  0  0  0  0  0  0  0  0  0  0  0
    2.8794    9.7166   22.4272 H   0  0  0  0  0  0  0  0  0  0  0  0
    1.8127    7.1745   26.3345 C   0  0  0  0  0  2  0  0  0  0  0  0
   -1.1927    2.9361   28.6588 O   0  0  0  0  0  0  0  0  0  0  0  0
   -2.2700    2.8119   30.7809 C   0  0  0  0  0  0  0  0  0  0  0  0
   -2.2688    3.8976   30.6402 H   0  0  0  0  0  0  0  0  0  0  0  0
   -3.2390    2.5083   31.2058 H   0  0  0  0  0  0  0  0  0  0  0  0
   -2.0701    2.1458   29.4254 C   0  0  0  0  0  0  0  0  0  0  0  0
   -1.6587    1.1359   29.5631 H   0  0  0  0  0  0  0  0  0  0  0  0
   -3.0416    2.0639   28.9129 H   0  0  0  0  0  0  0  0  0  0  0  0
   -1.1247    2.5690   27.3035 C   0  0  0  0  0  0  0  0  0  0  0  0
   -2.1365    2.5347   26.8692 H   0  0  0  0  0  0  0  0  0  0  0  0
   -0.6946    1.5591   27.2058 H   0  0  0  0  0  0  0  0  0  0  0  0
   -1.2719    6.2805   29.4924 O   0  0  0  0  0  0  0  0  0  0  0  0
   -1.6758    5.4373   32.2087 O   0  0  0  0  0  0  0  0  0  0  0  0
   -1.2304    2.4155   31.6557 O   0  0  0  0  0  0  0  0  0  0  0  0
   -1.1588    3.1793   32.8327 C   0  0  0  0  0  0  0  0  0  0  0  0
   -0.4773    2.6324   33.4885 H   0  0  0  0  0  0  0  0  0  0  0  0
   -2.1456    3.2545   33.3097 H   0  0  0  0  0  0  0  0  0  0  0  0
   -0.6133    4.5939   32.6026 C   0  0  0  0  0  0  0  0  0  0  0  0
   -0.1586    4.9779   33.5296 H   0  0  0  0  0  0  0  0  0  0  0  0
    0.1618    4.5346   31.8292 H   0  0  0  0  0  0  0  0  0  0  0  0
   -1.3117    6.7430   31.8420 C   0  0  0  0  0  0  0  0  0  0  0  0
   -0.7296    7.2242   32.6432 H   0  0  0  0  0  0  0  0  0  0  0  0
   -2.2600    7.2681   31.7122 H   0  0  0  0  0  0  0  0  0  0  0  0
   -0.5133    6.8354   30.5370 C   0  0  0  0  0  0  0  0  0  0  0  0
   -0.2871    7.8941   30.3333 H   0  0  0  0  0  0  0  0  0  0  0  0
    0.4449    6.3016   30.6336 H   0  0  0  0  0  0  0  0  0  0  0  0
    1.8228    8.0021   20.5468 C   0  0  0  0  0  0  0  0  0  0  0  0
    2.8947    8.1177   20.3981 H   0  0  0  0  0  0  0  0  0  0  0  0
    1.3186    8.7695   19.9626 H   0  0  0  0  0  0  0  0  0  0  0  0
    1.5238    7.0304   20.1606 H   0  0  0  0  0  0  0  0  0  0  0  0
  1 10  1  0  0  0  0
  1 14  1  0  0  0  0
  1 48  1  0  0  0  0
  2  5  2  0  0  0  0
  2  4  1  0  0  0  0
  3  2  1  0  0  0  0
  4  7  2  0  0  0  0
  5 28  1  0  0  0  0
  6  5  1  0  0  0  0
  7 15  1  0  0  0  0
  7  1  1  0  0  0  0
  8  1  1  0  0  0  0
 10 12  1  0  0  0  0
 11 10  1  0  0  0  0
 13 10  1  0  0  0  0
 14 19  1  0  0  0  0
 14 25  1  0  0  0  0
 15 22  1  0  0  0  0
 16 17  1  0  0  0  0
 16 59  1  0  0  0  0
 18 16  1  0  0  0  0
 19 21  1  0  0  0  0
 19 56  1  0  0  0  0
 20 19  1  0  0  0  0
 22 23  1  0  0  0  0
 22 14  1  0  0  0  0
 24 22  1  0  0  0  0
 25 26  1  0  0  0  0
 25 16  1  0  0  0  0
 27 25  1  0  0  0  0
 28 29  1  0  0  0  0
 28 15  2  0  0  0  0
 30  1  1  0  0  0  0
 31  4  1  0  0  0  0
 31 30  1  0  0  0  0
 32 33  1  0  0  0  0
 32 35  1  0  0  0  0
 34 32  1  0  0  0  0
 36 37  1  0  0  0  0
 36 44  1  0  0  0  0
 36 30  1  0  0  0  0
 38 30  1  0  0  0  0
 38 32  1  0  0  0  0
 39 38  1  0  0  0  0
 40 38  1  0  0  0  0
 40 41  1  0  0  0  0
 42 40  1  0  0  0  0
 43 40  1  0  0  0  0
 44 45  1  0  0  0  0
 46 44  1  0  0  0  0
 47 44  1  0  0  0  0
 48  9  1  0  0  0  0
 49 53  1  0  0  0  0
 50 52  1  0  0  0  0
 50 61  1  0  0  0  0
 51 50  1  0  0  0  0
 53 54  1  0  0  0  0
 53 50  1  0  0  0  0
 55 53  1  0  0  0  0
 56 49  1  0  0  0  0
 57 56  1  0  0  0  0
 58 56  1  0  0  0  0
 59 71  1  0  0  0  0
 60 65  1  0  0  0  0
 61 62  1  0  0  0  0
 62 64  1  0  0  0  0
 62 63  1  0  0  0  0
 65 62  1  0  0  0  0
 65 66  1  0  0  0  0
 67 65  1  0  0  0  0
 68 60  1  0  0  0  0
 68 69  1  0  0  0  0
 70 68  1  0  0  0  0
 71 73  1  0  0  0  0
 71 68  1  0  0  0  0
 72 71  1  0  0  0  0
 74 36  1  0  0  0  0
 75 74  1  0  0  0  0
 76 74  1  0  0  0  0
 77 74  1  0  0  0  0
M  END
$$$$
