CSD_code = AWUBEB | q = 0 | S = 0 | Stoichiometry = C19H27AuIP | MND = 4
 OpenBabel04212202003D

 49 51  0  0  0  0  0  0  0  0999 V2000
    1.0834    2.7246    3.0219 Au  0  0  1  0  0  0  0  0  0  0  0  0
   -0.2136    2.3185    5.2794 I   0  0  0  0  0  0  0  0  0  0  0  0
    0.3023    0.6971    2.2339 P   0  0  0  0  0  4  0  0  0  0  0  0
    1.7247    4.5784    3.6425 C   0  0  0  0  0  0  0  0  0  0  0  0
    1.8865    5.2457    2.7963 H   0  0  0  0  0  0  0  0  0  0  0  0
    0.9236    5.0270    4.2331 H   0  0  0  0  0  0  0  0  0  0  0  0
    2.9767    4.5143    4.5059 C   0  0  0  0  0  0  0  0  0  0  0  0
    3.7910    4.0223    3.9649 H   0  0  0  0  0  0  0  0  0  0  0  0
    2.7746    3.9249    5.4036 H   0  0  0  0  0  0  0  0  0  0  0  0
    3.4299    5.9109    4.9275 C   0  0  0  0  0  0  0  0  0  0  0  0
    3.6660    6.5178    4.0551 H   0  0  0  0  0  0  0  0  0  0  0  0
    4.3160    5.8479    5.5553 H   0  0  0  0  0  0  0  0  0  0  0  0
    2.6431    6.4095    5.4891 H   0  0  0  0  0  0  0  0  0  0  0  0
    2.1986    2.7832    1.3150 C   0  0  0  0  0  0  0  0  0  0  0  0
    1.9539    1.7630    0.3550 C   0  0  0  0  0  0  0  0  0  0  0  0
    1.0302    0.7100    0.5852 C   0  0  0  0  0  0  0  0  0  0  0  0
    0.7632   -0.2348   -0.3784 C   0  0  0  0  0  0  0  0  0  0  0  0
    0.0450   -1.0216   -0.1979 H   0  0  0  0  0  0  0  0  0  0  0  0
    1.4216   -0.1891   -1.6114 C   0  0  0  0  0  0  0  0  0  0  0  0
    1.1966   -0.9332   -2.3611 H   0  0  0  0  0  0  0  0  0  0  0  0
    2.3540    0.7818   -1.8508 C   0  0  0  0  0  0  0  0  0  0  0  0
    2.8843    0.8114   -2.7919 H   0  0  0  0  0  0  0  0  0  0  0  0
    2.6491    1.7672   -0.8874 C   0  0  0  0  0  0  0  0  0  0  0  0
    3.6239    2.7554   -1.1286 C   0  0  0  0  0  0  0  0  0  0  0  0
    4.1501    2.7514   -2.0721 H   0  0  0  0  0  0  0  0  0  0  0  0
    3.8954    3.6880   -0.1723 C   0  0  0  0  0  0  0  0  0  0  0  0
    4.6553    4.4385   -0.3341 H   0  0  0  0  0  0  0  0  0  0  0  0
    3.1787    3.6991    1.0357 C   0  0  0  0  0  0  0  0  0  0  0  0
    3.4316    4.4713    1.7435 H   0  0  0  0  0  0  0  0  0  0  0  0
   -1.4964    0.3614    1.9325 C   0  0  0  0  0  0  0  0  0  0  0  0
   -1.5436   -0.3663    1.1100 H   0  0  0  0  0  0  0  0  0  0  0  0
   -2.0870    1.6893    1.4595 C   0  0  0  0  0  0  0  0  0  0  0  0
   -3.1136    1.5552    1.1241 H   0  0  0  0  0  0  0  0  0  0  0  0
   -1.5037    2.0997    0.6319 H   0  0  0  0  0  0  0  0  0  0  0  0
   -2.0890    2.4138    2.2738 H   0  0  0  0  0  0  0  0  0  0  0  0
   -2.2425   -0.1890    3.1416 C   0  0  0  0  0  0  0  0  0  0  0  0
   -2.1781    0.4898    3.9879 H   0  0  0  0  0  0  0  0  0  0  0  0
   -1.8550   -1.1586    3.4469 H   0  0  0  0  0  0  0  0  0  0  0  0
   -3.2942   -0.3093    2.8867 H   0  0  0  0  0  0  0  0  0  0  0  0
    1.0025   -0.7717    3.1155 C   0  0  0  0  0  0  0  0  0  0  0  0
    0.4612   -0.8022    4.0724 H   0  0  0  0  0  0  0  0  0  0  0  0
    0.8293   -2.0947    2.3789 C   0  0  0  0  0  0  0  0  0  0  0  0
    1.4245   -2.1061    1.4671 H   0  0  0  0  0  0  0  0  0  0  0  0
   -0.2122   -2.2818    2.1239 H   0  0  0  0  0  0  0  0  0  0  0  0
    1.1720   -2.9083    3.0164 H   0  0  0  0  0  0  0  0  0  0  0  0
    2.4759   -0.4733    3.3845 C   0  0  0  0  0  0  0  0  0  0  0  0
    2.9348   -1.2957    3.9303 H   0  0  0  0  0  0  0  0  0  0  0  0
    2.5883    0.4326    3.9820 H   0  0  0  0  0  0  0  0  0  0  0  0
    3.0186   -0.3350    2.4478 H   0  0  0  0  0  0  0  0  0  0  0  0
  1  4  1  0  0  0  0
  1  2  1  1  0  0  0
  3  1  1  0  0  0  0
  3 40  1  0  0  0  0
  4  6  1  0  0  0  0
  4  7  1  0  0  0  0
  5  4  1  0  0  0  0
  7 10  1  0  0  0  0
  7  9  1  0  0  0  0
  8  7  1  0  0  0  0
 10 13  1  0  0  0  0
 10 12  1  0  0  0  0
 11 10  1  0  0  0  0
 14  1  1  0  0  0  0
 15 16  1  0  0  0  0
 15 14  2  0  0  0  0
 16  3  1  0  0  0  0
 17 18  1  0  0  0  0
 17 16  2  0  0  0  0
 19 17  1  0  0  0  0
 20 19  1  0  0  0  0
 21 19  2  0  0  0  0
 21 23  1  0  0  0  0
 22 21  1  0  0  0  0
 23 15  1  0  0  0  0
 24 23  2  0  0  0  0
 24 26  1  0  0  0  0
 25 24  1  0  0  0  0
 26 28  2  0  0  0  0
 27 26  1  0  0  0  0
 28 14  1  0  0  0  0
 28 29  1  0  0  0  0
 30  3  1  0  0  0  0
 30 36  1  0  0  0  0
 31 30  1  0  0  0  0
 32 30  1  0  0  0  0
 32 35  1  0  0  0  0
 33 32  1  0  0  0  0
 34 32  1  0  0  0  0
 36 38  1  0  0  0  0
 36 37  1  0  0  0  0
 39 36  1  0  0  0  0
 40 46  1  0  0  0  0
 40 41  1  0  0  0  0
 42 45  1  0  0  0  0
 42 40  1  0  0  0  0
 43 42  1  0  0  0  0
 44 42  1  0  0  0  0
 46 47  1  0  0  0  0
 46 48  1  0  0  0  0
 49 46  1  0  0  0  0
M  END
$$$$
