CSD_code = AWUTIV | q = 0 | S = 0 | Stoichiometry = C32H48Cl2N2O3Zr | MND = 7
 OpenBabel04212202003D

 88 91  0  0  1  0  0  0  0  0999 V2000
   -1.3431    0.6990   25.1607 Zr  0  0  0  0  0  0  0  0  0  0  0  0
    0.0179   -0.1240   23.3412 Cl  0  0  0  0  0  0  0  0  0  0  0  0
   -2.8159    0.5373   27.1530 Cl  0  0  0  0  0  0  0  0  0  0  0  0
    0.2848    1.2442   26.0348 O   0  0  0  0  0  0  0  0  0  0  0  0
   -2.4862    1.7546   23.9997 O   0  0  0  0  0  0  0  0  0  0  0  0
   -1.7487    2.9992   26.2180 O   0  0  0  0  0  0  0  0  0  0  0  0
   -0.7463   -1.2534   26.0604 N   0  0  1  0  0  0  0  0  0  0  0  0
   -2.8075   -0.8264   24.3606 N   0  0  2  0  0  0  0  0  0  0  0  0
    0.9683    0.8963   27.0841 C   0  0  0  0  0  0  0  0  0  0  0  0
    2.0230    1.7155   27.5895 C   0  0  0  0  0  0  0  0  0  0  0  0
    2.6262    1.3580   28.7730 C   0  0  0  0  0  0  0  0  0  0  0  0
    3.3975    1.9957   29.1694 H   0  0  0  0  0  0  0  0  0  0  0  0
    2.3051    0.2009   29.5013 C   0  0  0  0  0  0  0  0  0  0  0  0
    1.3811   -0.6499   28.9507 C   0  0  0  0  0  0  0  0  0  0  0  0
    1.1346   -1.5873   29.4233 H   0  0  0  0  0  0  0  0  0  0  0  0
    0.7199   -0.3426   27.7466 C   0  0  0  0  0  0  0  0  0  0  0  0
   -0.0972   -1.3582   27.1628 C   0  0  0  0  0  3  0  0  0  0  0  0
   -0.0905   -2.3243   27.6888 H   0  0  0  0  0  0  0  0  0  0  0  0
   -1.4126   -2.4094   25.5114 C   0  0  0  0  0  0  0  0  0  0  0  0
   -1.4075   -3.2610   26.2105 H   0  0  0  0  0  0  0  0  0  0  0  0
   -0.8795   -2.6897   24.5902 H   0  0  0  0  0  0  0  0  0  0  0  0
   -2.8630   -2.0353   25.1414 C   0  0  0  0  0  0  0  0  0  0  0  0
   -3.3361   -2.8667   24.5945 H   0  0  0  0  0  0  0  0  0  0  0  0
   -3.4295   -1.8349   26.0607 H   0  0  0  0  0  0  0  0  0  0  0  0
   -3.2021   -0.8324   23.1404 C   0  0  0  0  0  3  0  0  0  0  0  0
   -3.6558   -1.7408   22.7185 H   0  0  0  0  0  0  0  0  0  0  0  0
   -3.0230    0.2638   22.2397 C   0  0  0  0  0  0  0  0  0  0  0  0
   -3.2346    0.0621   20.8700 C   0  0  0  0  0  0  0  0  0  0  0  0
   -3.6325   -0.8926   20.5590 H   0  0  0  0  0  0  0  0  0  0  0  0
   -2.9077    1.0253   19.9408 C   0  0  0  0  0  0  0  0  0  0  0  0
   -2.3130    2.2003   20.4132 C   0  0  0  0  0  0  0  0  0  0  0  0
   -1.9934    2.9321   19.6941 H   0  0  0  0  0  0  0  0  0  0  0  0
   -2.1061    2.4677   21.7521 C   0  0  0  0  0  0  0  0  0  0  0  0
   -2.5226    1.5104   22.7124 C   0  0  0  0  0  0  0  0  0  0  0  0
    2.4624    2.9442   26.8003 C   0  0  0  0  0  0  0  0  0  0  0  0
    3.6978    3.6240   27.4028 C   0  0  0  0  0  0  0  0  0  0  0  0
    3.4897    4.0246   28.3925 H   0  0  0  0  0  0  0  0  0  0  0  0
    3.9908    4.4551   26.7645 H   0  0  0  0  0  0  0  0  0  0  0  0
    4.5379    2.9356   27.4621 H   0  0  0  0  0  0  0  0  0  0  0  0
    1.3233    3.9710   26.7756 C   0  0  0  0  0  0  0  0  0  0  0  0
    0.4305    3.5424   26.3291 H   0  0  0  0  0  0  0  0  0  0  0  0
    1.6221    4.8438   26.1985 H   0  0  0  0  0  0  0  0  0  0  0  0
    1.0866    4.2906   27.7888 H   0  0  0  0  0  0  0  0  0  0  0  0
    2.8235    2.5144   25.3695 C   0  0  0  0  0  0  0  0  0  0  0  0
    1.9833    2.0312   24.8747 H   0  0  0  0  0  0  0  0  0  0  0  0
    3.6577    1.8156   25.3902 H   0  0  0  0  0  0  0  0  0  0  0  0
    3.1162    3.3832   24.7835 H   0  0  0  0  0  0  0  0  0  0  0  0
    3.0146   -0.0647   30.8199 C   0  0  0  0  0  0  0  0  0  0  0  0
    2.7287    1.0968   31.7819 C   0  0  0  0  0  0  0  0  0  0  0  0
    3.0951    2.0396   31.3859 H   0  0  0  0  0  0  0  0  0  0  0  0
    3.2132    0.9187   32.7397 H   0  0  0  0  0  0  0  0  0  0  0  0
    1.6578    1.1902   31.9477 H   0  0  0  0  0  0  0  0  0  0  0  0
    2.5428   -1.3607   31.4845 C   0  0  0  0  0  0  0  0  0  0  0  0
    2.7678   -2.2235   30.8621 H   0  0  0  0  0  0  0  0  0  0  0  0
    1.4740   -1.3303   31.6815 H   0  0  0  0  0  0  0  0  0  0  0  0
    3.0572   -1.4897   32.4347 H   0  0  0  0  0  0  0  0  0  0  0  0
    4.5253   -0.1761   30.5712 C   0  0  0  0  0  0  0  0  0  0  0  0
    4.7310   -0.9735   29.8603 H   0  0  0  0  0  0  0  0  0  0  0  0
    5.0426   -0.4003   31.5017 H   0  0  0  0  0  0  0  0  0  0  0  0
    4.9318    0.7487   30.1718 H   0  0  0  0  0  0  0  0  0  0  0  0
   -3.1507    0.7655   18.4607 C   0  0  0  0  0  0  0  0  0  0  0  0
   -2.3089   -0.4418   18.0248 C   0  0  0  0  0  0  0  0  0  0  0  0
   -2.6003   -1.3399   18.5616 H   0  0  0  0  0  0  0  0  0  0  0  0
   -1.2562   -0.2554   18.2242 H   0  0  0  0  0  0  0  0  0  0  0  0
   -2.4349   -0.6239   16.9595 H   0  0  0  0  0  0  0  0  0  0  0  0
   -2.7704    1.9577   17.5784 C   0  0  0  0  0  0  0  0  0  0  0  0
   -3.3333    2.8457   17.8564 H   0  0  0  0  0  0  0  0  0  0  0  0
   -3.0000    1.7260   16.5403 H   0  0  0  0  0  0  0  0  0  0  0  0
   -1.7064    2.1709   17.6445 H   0  0  0  0  0  0  0  0  0  0  0  0
   -4.6409    0.4691   18.2405 C   0  0  0  0  0  0  0  0  0  0  0  0
   -5.2440    1.3147   18.5642 H   0  0  0  0  0  0  0  0  0  0  0  0
   -4.9576   -0.4077   18.7976 H   0  0  0  0  0  0  0  0  0  0  0  0
   -4.8357    0.2897   17.1852 H   0  0  0  0  0  0  0  0  0  0  0  0
   -1.4042    3.7343   22.2327 C   0  0  0  0  0  0  0  0  0  0  0  0
   -2.3941    4.5818   23.0467 C   0  0  0  0  0  0  0  0  0  0  0  0
   -3.1442    5.0158   22.3879 H   0  0  0  0  0  0  0  0  0  0  0  0
   -1.8714    5.3881   23.5572 H   0  0  0  0  0  0  0  0  0  0  0  0
   -2.9067    3.9656   23.7810 H   0  0  0  0  0  0  0  0  0  0  0  0
   -0.8775    4.5960   21.0797 C   0  0  0  0  0  0  0  0  0  0  0  0
   -0.1583    4.0445   20.4795 H   0  0  0  0  0  0  0  0  0  0  0  0
   -0.3763    5.4708   21.4888 H   0  0  0  0  0  0  0  0  0  0  0  0
   -1.6852    4.9459   20.4411 H   0  0  0  0  0  0  0  0  0  0  0  0
   -0.1924    3.3328   23.0955 C   0  0  0  0  0  0  0  0  0  0  0  0
    0.4463    2.6505   22.5338 H   0  0  0  0  0  0  0  0  0  0  0  0
   -0.4962    2.8331   24.0243 H   0  0  0  0  0  0  0  0  0  0  0  0
    0.3855    4.2190   23.3535 H   0  0  0  0  0  0  0  0  0  0  0  0
   -2.1880    2.4876   26.9329 H   0  0  0  0  0  0  0  0  0  0  0  0
   -2.4322    3.5588   25.8225 H   0  0  0  0  0  0  0  0  0  0  0  0
  1  4  1  0  0  0  0
  1  7  1  0  0  0  0
  1  3  1  0  0  0  0
  2  1  1  0  0  0  0
  4  9  1  0  0  0  0
  5  1  1  0  0  0  0
  6 87  1  0  0  0  0
  7 17  1  1  0  0  0
  8 25  1  6  0  0  0
  8 22  1  0  0  0  0
  8  1  1  0  0  0  0
  9 10  2  0  0  0  0
  9 16  1  0  0  0  0
 10 11  1  0  0  0  0
 11 12  1  0  0  0  0
 11 13  2  0  0  0  0
 13 48  1  0  0  0  0
 14 15  1  0  0  0  0
 14 13  1  0  0  0  0
 16 14  2  0  0  0  0
 17 18  1  0  0  0  0
 17 16  1  0  0  0  0
 19  7  1  0  0  0  0
 19 20  1  0  0  0  0
 21 19  1  0  0  0  0
 22 19  1  0  0  0  0
 22 24  1  0  0  0  0
 23 22  1  0  0  0  0
 26 25  1  0  0  0  0
 27 34  1  0  0  0  0
 27 25  1  0  0  0  0
 28 27  2  0  0  0  0
 29 28  1  0  0  0  0
 30 31  2  0  0  0  0
 30 28  1  0  0  0  0
 31 33  1  0  0  0  0
 32 31  1  0  0  0  0
 33 74  1  0  0  0  0
 33 34  2  0  0  0  0
 34  5  1  0  0  0  0
 35 36  1  0  0  0  0
 35 10  1  0  0  0  0
 36 39  1  0  0  0  0
 36 37  1  0  0  0  0
 38 36  1  0  0  0  0
 40 35  1  0  0  0  0
 40 43  1  0  0  0  0
 41 40  1  0  0  0  0
 42 40  1  0  0  0  0
 44 46  1  0  0  0  0
 44 35  1  0  0  0  0
 45 44  1  0  0  0  0
 47 44  1  0  0  0  0
 48 53  1  0  0  0  0
 48 49  1  0  0  0  0
 49 52  1  0  0  0  0
 49 51  1  0  0  0  0
 50 49  1  0  0  0  0
 53 55  1  0  0  0  0
 53 56  1  0  0  0  0
 54 53  1  0  0  0  0
 57 48  1  0  0  0  0
 57 59  1  0  0  0  0
 58 57  1  0  0  0  0
 60 57  1  0  0  0  0
 61 30  1  0  0  0  0
 62 64  1  0  0  0  0
 62 61  1  0  0  0  0
 62 63  1  0  0  0  0
 65 62  1  0  0  0  0
 66 69  1  0  0  0  0
 66 67  1  0  0  0  0
 66 61  1  0  0  0  0
 68 66  1  0  0  0  0
 70 61  1  0  0  0  0
 70 71  1  0  0  0  0
 70 72  1  0  0  0  0
 73 70  1  0  0  0  0
 74 75  1  0  0  0  0
 74 83  1  0  0  0  0
 75 77  1  0  0  0  0
 75 78  1  0  0  0  0
 76 75  1  0  0  0  0
 79 81  1  0  0  0  0
 79 74  1  0  0  0  0
 80 79  1  0  0  0  0
 82 79  1  0  0  0  0
 83 86  1  0  0  0  0
 83 85  1  0  0  0  0
 84 83  1  0  0  0  0
 88  6  1  0  0  0  0
M  END
$$$$
