CSD_code = AXAVEA | q = 0 | S = 0 | Stoichiometry = C38H50ClF5P2Pt | MND = 4
 OpenBabel04212202003D

 97101  0  0  0  0  0  0  0  0999 V2000
   13.3704   19.0690   -1.6350 Pt  0  0  1  0  0  0  0  0  0  0  0  0
   12.7139   18.9178    0.5736 P   0  0  2  0  0  4  0  0  0  0  0  0
   13.9438   18.8347   -3.8570 P   0  0  2  0  0  4  0  0  0  0  0  0
   12.3493   16.9859   -1.8856 Cl  0  0  0  0  0  0  0  0  0  0  0  0
   13.4400   17.4493    1.3972 C   0  0  0  0  0  0  0  0  0  0  0  0
   13.0955   17.3903    2.4343 H   0  0  0  0  0  0  0  0  0  0  0  0
   13.0449   16.5847    0.8564 H   0  0  0  0  0  0  0  0  0  0  0  0
   14.9619   17.4766    1.3068 C   0  0  0  0  0  0  0  0  0  0  0  0
   15.3411   18.3696    1.8069 H   0  0  0  0  0  0  0  0  0  0  0  0
   15.2379   17.5640    0.2533 H   0  0  0  0  0  0  0  0  0  0  0  0
   15.6370   16.2565    1.9301 C   0  0  0  0  0  0  0  0  0  0  0  0
   16.7164   16.4143    1.8967 H   0  0  0  0  0  0  0  0  0  0  0  0
   15.3527   16.1941    2.9846 H   0  0  0  0  0  0  0  0  0  0  0  0
   15.3093   14.9172    1.2654 C   0  0  0  0  0  0  0  0  0  0  0  0
   15.9327   14.1519    1.7357 H   0  0  0  0  0  0  0  0  0  0  0  0
   14.2687   14.6529    1.4670 H   0  0  0  0  0  0  0  0  0  0  0  0
   15.5322   14.8818   -0.2479 C   0  0  0  0  0  0  0  0  0  0  0  0
   14.7775   15.4984   -0.7353 H   0  0  0  0  0  0  0  0  0  0  0  0
   15.3803   13.8537   -0.5867 H   0  0  0  0  0  0  0  0  0  0  0  0
   16.9305   15.3390   -0.6612 C   0  0  0  0  0  0  0  0  0  0  0  0
   17.0305   16.4140   -0.5101 H   0  0  0  0  0  0  0  0  0  0  0  0
   17.6687   14.8503   -0.0198 H   0  0  0  0  0  0  0  0  0  0  0  0
   17.2712   15.0036   -2.1152 C   0  0  0  0  0  0  0  0  0  0  0  0
   17.3883   13.9212   -2.2120 H   0  0  0  0  0  0  0  0  0  0  0  0
   18.2333   15.4605   -2.3614 H   0  0  0  0  0  0  0  0  0  0  0  0
   16.2239   15.4534   -3.1343 C   0  0  0  0  0  0  0  0  0  0  0  0
   16.5755   15.1775   -4.1328 H   0  0  0  0  0  0  0  0  0  0  0  0
   15.2941   14.9115   -2.9544 H   0  0  0  0  0  0  0  0  0  0  0  0
   15.9285   16.9521   -3.1172 C   0  0  0  0  0  0  0  0  0  0  0  0
   16.8509   17.5132   -3.2779 H   0  0  0  0  0  0  0  0  0  0  0  0
   15.5186   17.2384   -2.1418 H   0  0  0  0  0  0  0  0  0  0  0  0
   14.8930   17.2906   -4.1883 C   0  0  0  0  0  0  0  0  0  0  0  0
   14.1396   16.4967   -4.2003 H   0  0  0  0  0  0  0  0  0  0  0  0
   15.3454   17.3522   -5.1826 H   0  0  0  0  0  0  0  0  0  0  0  0
   15.0116   20.1373   -4.5473 C   0  0  0  0  0  0  0  0  0  0  0  0
   16.1923   20.4013   -3.8560 C   0  0  0  0  0  0  0  0  0  0  0  0
   16.4354   19.8084   -2.9842 H   0  0  0  0  0  0  0  0  0  0  0  0
   17.0338   21.4183   -4.2614 C   0  0  0  0  0  0  0  0  0  0  0  0
   17.9456   21.6146   -3.7167 H   0  0  0  0  0  0  0  0  0  0  0  0
   16.6974   22.1953   -5.3589 C   0  0  0  0  0  0  0  0  0  0  0  0
   17.3440   23.0021   -5.6692 H   0  0  0  0  0  0  0  0  0  0  0  0
   15.5254   21.9406   -6.0495 C   0  0  0  0  0  0  0  0  0  0  0  0
   15.2582   22.5489   -6.9009 H   0  0  0  0  0  0  0  0  0  0  0  0
   14.6840   20.9165   -5.6483 C   0  0  0  0  0  0  0  0  0  0  0  0
   13.7691   20.7394   -6.1921 H   0  0  0  0  0  0  0  0  0  0  0  0
   12.5466   18.6053   -5.0261 C   0  0  0  0  0  0  0  0  0  0  0  0
   12.9173   18.6404   -6.0553 H   0  0  0  0  0  0  0  0  0  0  0  0
   12.1653   17.5971   -4.8342 H   0  0  0  0  0  0  0  0  0  0  0  0
   11.4281   19.6104   -4.7722 C   0  0  0  0  0  0  0  0  0  0  0  0
   11.1924   19.5639   -3.7072 H   0  0  0  0  0  0  0  0  0  0  0  0
   11.7654   20.6224   -4.9983 H   0  0  0  0  0  0  0  0  0  0  0  0
   10.1750   19.3000   -5.5843 C   0  0  0  0  0  0  0  0  0  0  0  0
    9.8412   18.2847   -5.3553 H   0  0  0  0  0  0  0  0  0  0  0  0
   10.4185   19.3327   -6.6503 H   0  0  0  0  0  0  0  0  0  0  0  0
    9.0271   20.2747   -5.3087 C   0  0  0  0  0  0  0  0  0  0  0  0
    9.3395   21.2884   -5.5669 H   0  0  0  0  0  0  0  0  0  0  0  0
    8.1989   20.0101   -5.9698 H   0  0  0  0  0  0  0  0  0  0  0  0
    8.5467   20.2416   -3.8517 C   0  0  0  0  0  0  0  0  0  0  0  0
    8.7775   19.2620   -3.4328 H   0  0  0  0  0  0  0  0  0  0  0  0
    7.4604   20.3520   -3.8219 H   0  0  0  0  0  0  0  0  0  0  0  0
    9.1661   21.3425   -2.9850 C   0  0  0  0  0  0  0  0  0  0  0  0
   10.2133   21.4870   -3.2468 H   0  0  0  0  0  0  0  0  0  0  0  0
    8.6491   22.2822   -3.1933 H   0  0  0  0  0  0  0  0  0  0  0  0
    9.0738   21.0453   -1.4875 C   0  0  0  0  0  0  0  0  0  0  0  0
    9.3233   21.9534   -0.9326 H   0  0  0  0  0  0  0  0  0  0  0  0
    8.0463   20.7749   -1.2308 H   0  0  0  0  0  0  0  0  0  0  0  0
   10.0162   19.9286   -1.0443 C   0  0  0  0  0  0  0  0  0  0  0  0
   11.0450   20.1818   -1.3470 H   0  0  0  0  0  0  0  0  0  0  0  0
    9.7484   18.9918   -1.5355 H   0  0  0  0  0  0  0  0  0  0  0  0
    9.9818   19.7105    0.4644 C   0  0  0  0  0  0  0  0  0  0  0  0
   10.2466   20.6369    0.9816 H   0  0  0  0  0  0  0  0  0  0  0  0
    8.9641   19.4466    0.7664 H   0  0  0  0  0  0  0  0  0  0  0  0
   10.9240   18.5922    0.8943 C   0  0  0  0  0  0  0  0  0  0  0  0
   10.6798   17.6704    0.3584 H   0  0  0  0  0  0  0  0  0  0  0  0
   10.8263   18.4069    1.9697 H   0  0  0  0  0  0  0  0  0  0  0  0
   13.0256   20.3436    1.6644 C   0  0  0  0  0  0  0  0  0  0  0  0
   12.7230   21.6057    1.1587 C   0  0  0  0  0  0  0  0  0  0  0  0
   12.3267   21.6943    0.1563 H   0  0  0  0  0  0  0  0  0  0  0  0
   12.9387   22.7405    1.9172 C   0  0  0  0  0  0  0  0  0  0  0  0
   12.7017   23.7130    1.5114 H   0  0  0  0  0  0  0  0  0  0  0  0
   13.4678   22.6280    3.1924 C   0  0  0  0  0  0  0  0  0  0  0  0
   13.6505   23.5129    3.7831 H   0  0  0  0  0  0  0  0  0  0  0  0
   13.7661   21.3770    3.7048 C   0  0  0  0  0  0  0  0  0  0  0  0
   14.1794   21.2860    4.6986 H   0  0  0  0  0  0  0  0  0  0  0  0
   13.5441   20.2392    2.9487 C   0  0  0  0  0  0  0  0  0  0  0  0
   13.7843   19.2739    3.3670 H   0  0  0  0  0  0  0  0  0  0  0  0
   14.2683   20.8864   -1.4706 C   0  0  0  0  0  0  0  0  0  0  0  0
   15.7696   20.1835    0.2037 F   0  0  0  0  0  0  0  0  0  0  0  0
   15.3229   21.1652   -0.6085 C   0  0  0  0  0  0  0  0  0  0  0  0
   16.9651   22.6017    0.3212 F   0  0  0  0  0  0  0  0  0  0  0  0
   15.9534   22.3994   -0.5376 C   0  0  0  0  0  0  0  0  0  0  0  0
   16.1381   24.6270   -1.3260 F   0  0  0  0  0  0  0  0  0  0  0  0
   15.5354   23.4302   -1.3698 C   0  0  0  0  0  0  0  0  0  0  0  0
   14.0671   24.1814   -3.0668 F   0  0  0  0  0  0  0  0  0  0  0  0
   14.4846   23.2019   -2.2494 C   0  0  0  0  0  0  0  0  0  0  0  0
   12.8531   21.7655   -3.1322 F   0  0  0  0  0  0  0  0  0  0  0  0
   13.8801   21.9544   -2.2727 C   0  0  0  0  0  0  0  0  0  0  0  0
  1  4  1  6  0  0  0
  1 87  1  0  0  0  0
  1  2  1  0  0  0  0
  2 73  1  0  0  0  0
  2  5  1  0  0  0  0
  2 76  1  1  0  0  0
  3 35  1  6  0  0  0
  3  1  1  0  0  0  0
  5  6  1  0  0  0  0
  7  5  1  0  0  0  0
  8  5  1  0  0  0  0
  8  9  1  0  0  0  0
  8 11  1  0  0  0  0
 10  8  1  0  0  0  0
 11 13  1  0  0  0  0
 12 11  1  0  0  0  0
 14 16  1  0  0  0  0
 14 15  1  0  0  0  0
 14 11  1  0  0  0  0
 17 14  1  0  0  0  0
 18 17  1  0  0  0  0
 19 17  1  0  0  0  0
 20 21  1  0  0  0  0
 20 17  1  0  0  0  0
 20 22  1  0  0  0  0
 23 20  1  0  0  0  0
 24 23  1  0  0  0  0
 25 23  1  0  0  0  0
 26 29  1  0  0  0  0
 26 28  1  0  0  0  0
 26 23  1  0  0  0  0
 27 26  1  0  0  0  0
 29 31  1  0  0  0  0
 30 29  1  0  0  0  0
 32  3  1  0  0  0  0
 32 29  1  0  0  0  0
 33 32  1  0  0  0  0
 34 32  1  0  0  0  0
 35 36  1  0  0  0  0
 36 37  1  0  0  0  0
 38 36  2  0  0  0  0
 38 39  1  0  0  0  0
 40 38  1  0  0  0  0
 41 40  1  0  0  0  0
 42 44  1  0  0  0  0
 42 40  2  0  0  0  0
 43 42  1  0  0  0  0
 44 35  2  0  0  0  0
 45 44  1  0  0  0  0
 46 48  1  0  0  0  0
 46 49  1  0  0  0  0
 46  3  1  0  0  0  0
 47 46  1  0  0  0  0
 49 50  1  0  0  0  0
 51 49  1  0  0  0  0
 52 53  1  0  0  0  0
 52 55  1  0  0  0  0
 52 49  1  0  0  0  0
 54 52  1  0  0  0  0
 55 58  1  0  0  0  0
 56 55  1  0  0  0  0
 57 55  1  0  0  0  0
 58 60  1  0  0  0  0
 58 59  1  0  0  0  0
 58 61  1  0  0  0  0
 61 64  1  0  0  0  0
 62 61  1  0  0  0  0
 63 61  1  0  0  0  0
 64 66  1  0  0  0  0
 64 67  1  0  0  0  0
 64 65  1  0  0  0  0
 67 70  1  0  0  0  0
 68 67  1  0  0  0  0
 69 67  1  0  0  0  0
 70 72  1  0  0  0  0
 70 73  1  0  0  0  0
 70 71  1  0  0  0  0
 73 75  1  0  0  0  0
 74 73  1  0  0  0  0
 76 85  1  0  0  0  0
 77 76  2  0  0  0  0
 77 79  1  0  0  0  0
 78 77  1  0  0  0  0
 79 81  2  0  0  0  0
 80 79  1  0  0  0  0
 81 83  1  0  0  0  0
 81 82  1  0  0  0  0
 83 84  1  0  0  0  0
 85 86  1  0  0  0  0
 85 83  2  0  0  0  0
 87 89  1  0  0  0  0
 89 91  2  0  0  0  0
 89 88  1  0  0  0  0
 91 90  1  0  0  0  0
 93 92  1  0  0  0  0
 93 91  1  0  0  0  0
 94 95  1  0  0  0  0
 95 93  2  0  0  0  0
 96 97  1  0  0  0  0
 97 95  1  0  0  0  0
 97 87  2  0  0  0  0
M  END
$$$$
