CSD_code = AXAVAW | q = 0 | S = 0 | Stoichiometry = C38H46ClF5P2Pt | MND = 4
 OpenBabel04212202003D

 93 97  0  0  0  0  0  0  0  0999 V2000
    5.9928  -10.4929   11.2804 Pt  0  0  1  0  0  0  0  0  0  0  0  0
    4.9977  -12.3586   10.3825 P   0  0  1  0  0  4  0  0  0  0  0  0
    3.4693  -11.9742    9.4478 C   0  0  0  0  0  0  0  0  0  0  0  0
    3.7897  -11.3517    8.6079 H   0  0  0  0  0  0  0  0  0  0  0  0
    3.0427  -12.8997    9.0470 H   0  0  0  0  0  0  0  0  0  0  0  0
    6.0968   -9.8337    9.0484 Cl  0  0  0  0  0  0  0  0  0  0  0  0
    6.0195  -13.1895    9.0933 C   0  0  0  0  0  0  0  0  0  0  0  0
    5.6336  -14.2004    8.9268 H   0  0  0  0  0  0  0  0  0  0  0  0
    5.8981  -12.6090    8.1746 H   0  0  0  0  0  0  0  0  0  0  0  0
    6.9128   -8.4864   11.9301 P   0  0  2  0  0  4  0  0  0  0  0  0
    2.4627  -11.2114   10.3060 C   0  0  0  0  0  0  0  0  0  0  0  0
    2.2198  -11.7981   11.1931 H   0  0  0  0  0  0  0  0  0  0  0  0
    2.9295  -10.2808   10.6464 H   0  0  0  0  0  0  0  0  0  0  0  0
    7.4956  -13.2148    9.4774 C   0  0  0  0  0  0  0  0  0  0  0  0
    7.8161  -12.1880    9.6898 H   0  0  0  0  0  0  0  0  0  0  0  0
    7.6412  -13.8096   10.3818 H   0  0  0  0  0  0  0  0  0  0  0  0
    1.1711  -10.8916    9.5544 C   0  0  0  0  0  0  0  0  0  0  0  0
    0.4128  -10.5816   10.2769 H   0  0  0  0  0  0  0  0  0  0  0  0
    0.8069  -11.7978    9.0627 H   0  0  0  0  0  0  0  0  0  0  0  0
    8.3591  -13.7864    8.3564 C   0  0  0  0  0  0  0  0  0  0  0  0
    8.1071  -13.2884    7.4172 H   0  0  0  0  0  0  0  0  0  0  0  0
    8.1433  -14.8514    8.2387 H   0  0  0  0  0  0  0  0  0  0  0  0
    1.3342   -9.7811    8.5131 C   0  0  0  0  0  0  0  0  0  0  0  0
    2.1205  -10.0358    7.8014 H   0  0  0  0  0  0  0  0  0  0  0  0
    0.3962   -9.6956    7.9540 H   0  0  0  0  0  0  0  0  0  0  0  0
    9.8519  -13.5902    8.6365 C   0  0  0  0  0  0  0  0  0  0  0  0
   10.1011  -13.9892    9.6217 H   0  0  0  0  0  0  0  0  0  0  0  0
   10.4244  -14.1503    7.8904 H   0  0  0  0  0  0  0  0  0  0  0  0
    1.6326   -8.4583    9.1460 C   0  0  0  0  0  0  0  0  0  0  0  0
    0.9655   -8.1703    9.9497 H   0  0  0  0  0  0  0  0  0  0  0  0
   10.2366  -12.1468    8.5526 C   0  0  0  0  0  0  0  0  0  0  0  0
    9.9720  -11.6566    7.6239 H   0  0  0  0  0  0  0  0  0  0  0  0
    2.6057   -7.6455    8.7718 C   0  0  0  0  0  0  0  0  0  0  0  0
    3.2745   -7.9357    7.9716 H   0  0  0  0  0  0  0  0  0  0  0  0
   10.8585  -11.4651    9.4991 C   0  0  0  0  0  0  0  0  0  0  0  0
   11.1226  -11.9468   10.4323 H   0  0  0  0  0  0  0  0  0  0  0  0
    2.8703   -6.2963    9.3638 C   0  0  0  0  0  0  0  0  0  0  0  0
    2.2722   -6.1589   10.2672 H   0  0  0  0  0  0  0  0  0  0  0  0
    2.5665   -5.5313    8.6415 H   0  0  0  0  0  0  0  0  0  0  0  0
   11.2605  -10.0287    9.3821 C   0  0  0  0  0  0  0  0  0  0  0  0
   10.8747   -9.6136    8.4489 H   0  0  0  0  0  0  0  0  0  0  0  0
   12.3532   -9.9683    9.3518 H   0  0  0  0  0  0  0  0  0  0  0  0
    4.3547   -6.1052    9.6817 C   0  0  0  0  0  0  0  0  0  0  0  0
    4.9339   -6.2911    8.7745 H   0  0  0  0  0  0  0  0  0  0  0  0
    4.5375   -5.0735    9.9927 H   0  0  0  0  0  0  0  0  0  0  0  0
   10.7585   -9.1950   10.5638 C   0  0  0  0  0  0  0  0  0  0  0  0
   11.1575   -9.6081   11.4932 H   0  0  0  0  0  0  0  0  0  0  0  0
   11.1310   -8.1719   10.4647 H   0  0  0  0  0  0  0  0  0  0  0  0
    4.8198   -7.0644   10.7736 C   0  0  0  0  0  0  0  0  0  0  0  0
    4.4972   -8.0779   10.5057 H   0  0  0  0  0  0  0  0  0  0  0  0
    4.3497   -6.7991   11.7234 H   0  0  0  0  0  0  0  0  0  0  0  0
    9.2359   -9.1771   10.6377 C   0  0  0  0  0  0  0  0  0  0  0  0
    8.8690  -10.2022   10.7644 H   0  0  0  0  0  0  0  0  0  0  0  0
    8.8253   -8.7941    9.7007 H   0  0  0  0  0  0  0  0  0  0  0  0
    6.3376   -7.0627   10.9191 C   0  0  0  0  0  0  0  0  0  0  0  0
    6.6991   -6.1319   11.3683 H   0  0  0  0  0  0  0  0  0  0  0  0
    6.7961   -7.1825    9.9331 H   0  0  0  0  0  0  0  0  0  0  0  0
    8.7390   -8.3376   11.8132 C   0  0  0  0  0  0  0  0  0  0  0  0
    9.0125   -7.2849   11.6891 H   0  0  0  0  0  0  0  0  0  0  0  0
    9.1827   -8.7154   12.7362 H   0  0  0  0  0  0  0  0  0  0  0  0
    5.9250  -11.1379   13.2037 C   0  0  0  0  0  0  0  0  0  0  0  0
    3.5909  -11.4456   13.1657 F   0  0  0  0  0  0  0  0  0  0  0  0
    4.7537  -11.5155   13.8497 C   0  0  0  0  0  0  0  0  0  0  0  0
    3.5421  -12.3071   15.7286 F   0  0  0  0  0  0  0  0  0  0  0  0
    4.7079  -11.9531   15.1652 C   0  0  0  0  0  0  0  0  0  0  0  0
    5.8626  -12.4362   17.1782 F   0  0  0  0  0  0  0  0  0  0  0  0
    5.8830  -12.0204   15.9036 C   0  0  0  0  0  0  0  0  0  0  0  0
    8.2256  -11.6992   16.0020 F   0  0  0  0  0  0  0  0  0  0  0  0
    7.0798  -11.6483   15.3035 C   0  0  0  0  0  0  0  0  0  0  0  0
    8.2526  -10.8733   13.4204 F   0  0  0  0  0  0  0  0  0  0  0  0
    7.0729  -11.2257   13.9825 C   0  0  0  0  0  0  0  0  0  0  0  0
    4.6023  -13.7500   11.4921 C   0  0  0  0  0  0  0  0  0  0  0  0
    3.3849  -14.4187   11.5034 C   0  0  0  0  0  0  0  0  0  0  0  0
    2.5948  -14.1332   10.8262 H   0  0  0  0  0  0  0  0  0  0  0  0
    3.1693  -15.4570   12.3934 C   0  0  0  0  0  0  0  0  0  0  0  0
    2.2163  -15.9659   12.4000 H   0  0  0  0  0  0  0  0  0  0  0  0
    4.1636  -15.8408   13.2767 C   0  0  0  0  0  0  0  0  0  0  0  0
    3.9871  -16.6456   13.9744 H   0  0  0  0  0  0  0  0  0  0  0  0
    5.3836  -15.1838   13.2672 C   0  0  0  0  0  0  0  0  0  0  0  0
    6.1635  -15.4768   13.9547 H   0  0  0  0  0  0  0  0  0  0  0  0
    5.5974  -14.1435   12.3834 C   0  0  0  0  0  0  0  0  0  0  0  0
    6.5415  -13.6141   12.3865 H   0  0  0  0  0  0  0  0  0  0  0  0
    6.4624   -7.9667   13.6136 C   0  0  0  0  0  0  0  0  0  0  0  0
    7.3351   -7.3435   14.4953 C   0  0  0  0  0  0  0  0  0  0  0  0
    8.3475   -7.1193   14.1944 H   0  0  0  0  0  0  0  0  0  0  0  0
    6.9095   -7.0110   15.7704 C   0  0  0  0  0  0  0  0  0  0  0  0
    7.5945   -6.5342   16.4560 H   0  0  0  0  0  0  0  0  0  0  0  0
    5.6141   -7.2913   16.1706 C   0  0  0  0  0  0  0  0  0  0  0  0
    5.2904   -7.0370   17.1688 H   0  0  0  0  0  0  0  0  0  0  0  0
    4.7338   -7.9005   15.2900 C   0  0  0  0  0  0  0  0  0  0  0  0
    3.7219   -8.1179   15.5980 H   0  0  0  0  0  0  0  0  0  0  0  0
    5.1580   -8.2381   14.0195 C   0  0  0  0  0  0  0  0  0  0  0  0
    4.4838   -8.7271   13.3261 H   0  0  0  0  0  0  0  0  0  0  0  0
  1  6  1  6  0  0  0
  1 10  1  0  0  0  0
  1 61  1  0  0  0  0
  2  1  1  0  0  0  0
  2 72  1  1  0  0  0
  3 11  1  0  0  0  0
  3  2  1  0  0  0  0
  4  3  1  0  0  0  0
  5  3  1  0  0  0  0
  7 14  1  0  0  0  0
  7  2  1  0  0  0  0
  8  7  1  0  0  0  0
  9  7  1  0  0  0  0
 10 83  1  1  0  0  0
 11 13  1  0  0  0  0
 11 12  1  0  0  0  0
 14 15  1  0  0  0  0
 14 16  1  0  0  0  0
 17 18  1  0  0  0  0
 17 11  1  0  0  0  0
 19 17  1  0  0  0  0
 20 26  1  0  0  0  0
 20 14  1  0  0  0  0
 21 20  1  0  0  0  0
 22 20  1  0  0  0  0
 23 29  1  0  0  0  0
 23 17  1  0  0  0  0
 24 23  1  0  0  0  0
 25 23  1  0  0  0  0
 26 27  1  0  0  0  0
 28 26  1  0  0  0  0
 29 30  1  0  0  0  0
 31 26  1  0  0  0  0
 31 35  2  0  0  0  0
 32 31  1  0  0  0  0
 33 29  2  0  0  0  0
 33 37  1  0  0  0  0
 34 33  1  0  0  0  0
 35 36  1  0  0  0  0
 37 43  1  0  0  0  0
 37 38  1  0  0  0  0
 39 37  1  0  0  0  0
 40 35  1  0  0  0  0
 40 46  1  0  0  0  0
 41 40  1  0  0  0  0
 42 40  1  0  0  0  0
 43 45  1  0  0  0  0
 43 49  1  0  0  0  0
 44 43  1  0  0  0  0
 46 52  1  0  0  0  0
 46 47  1  0  0  0  0
 48 46  1  0  0  0  0
 49 55  1  0  0  0  0
 49 51  1  0  0  0  0
 50 49  1  0  0  0  0
 52 53  1  0  0  0  0
 52 58  1  0  0  0  0
 54 52  1  0  0  0  0
 55 56  1  0  0  0  0
 55 10  1  0  0  0  0
 57 55  1  0  0  0  0
 58 10  1  0  0  0  0
 58 60  1  0  0  0  0
 59 58  1  0  0  0  0
 61 63  2  0  0  0  0
 61 71  1  0  0  0  0
 62 63  1  0  0  0  0
 63 65  1  0  0  0  0
 65 64  1  0  0  0  0
 65 67  2  0  0  0  0
 67 66  1  0  0  0  0
 69 67  1  0  0  0  0
 69 68  1  0  0  0  0
 70 71  1  0  0  0  0
 71 69  2  0  0  0  0
 72 73  2  0  0  0  0
 72 81  1  0  0  0  0
 73 75  1  0  0  0  0
 74 73  1  0  0  0  0
 75 76  1  0  0  0  0
 75 77  2  0  0  0  0
 77 78  1  0  0  0  0
 79 77  1  0  0  0  0
 79 80  1  0  0  0  0
 81 82  1  0  0  0  0
 81 79  2  0  0  0  0
 83 92  2  0  0  0  0
 83 84  1  0  0  0  0
 84 86  2  0  0  0  0
 85 84  1  0  0  0  0
 86 88  1  0  0  0  0
 86 87  1  0  0  0  0
 88 89  1  0  0  0  0
 90 91  1  0  0  0  0
 90 88  2  0  0  0  0
 92 90  1  0  0  0  0
 93 92  1  0  0  0  0
M  END
$$$$
