CSD_code = AXEJAP | q = 0 | S = 0 | Stoichiometry = C30H34Cl2NOPPd | MND = 4
 OpenBabel04212202003D

 70 76  0  0  1  0  0  0  0  0999 V2000
    3.8285    6.3919    1.6109 C   0  0  0  0  0  0  0  0  0  0  0  0
    2.5394    6.4670    2.1445 C   0  0  0  0  0  0  0  0  0  0  0  0
    1.9069    5.3671    2.7150 C   0  0  0  0  0  0  0  0  0  0  0  0
    0.9166    5.4818    3.1296 H   0  0  0  0  0  0  0  0  0  0  0  0
    2.5598    4.1563    2.7631 C   0  0  0  0  0  0  0  0  0  0  0  0
    2.0855    3.2907    3.1995 H   0  0  0  0  0  0  0  0  0  0  0  0
    3.8472    4.0549    2.2671 C   0  0  0  0  0  0  0  0  0  0  0  0
    4.3516    3.1046    2.3299 H   0  0  0  0  0  0  0  0  0  0  0  0
    4.4969    5.1466    1.6986 C   0  0  0  0  0  0  0  0  0  0  0  0
    6.4812    3.8524    1.3511 C   0  0  0  0  0  0  0  0  0  0  0  0
    6.5910    3.5560    2.3985 H   0  0  0  0  0  0  0  0  0  0  0  0
    7.4658    4.0538    0.9314 H   0  0  0  0  0  0  0  0  0  0  0  0
    6.0099    3.0424    0.7857 H   0  0  0  0  0  0  0  0  0  0  0  0
    0.0692    7.9195    1.5763 C   0  0  0  0  0  0  0  0  0  0  0  0
   -0.7833    9.0058    1.7755 C   0  0  0  0  0  0  0  0  0  0  0  0
   -0.4170    9.8653    2.3219 H   0  0  0  0  0  0  0  0  0  0  0  0
   -2.0654    8.9799    1.2619 C   0  0  0  0  0  0  0  0  0  0  0  0
   -2.7252    9.8200    1.4190 H   0  0  0  0  0  0  0  0  0  0  0  0
   -2.5012    7.8789    0.5400 C   0  0  0  0  0  0  0  0  0  0  0  0
   -3.5035    7.8581    0.1385 H   0  0  0  0  0  0  0  0  0  0  0  0
   -1.6498    6.8077    0.3252 C   0  0  0  0  0  0  0  0  0  0  0  0
   -1.9877    5.9540   -0.2443 H   0  0  0  0  0  0  0  0  0  0  0  0
   -0.3633    6.8255    0.8352 C   0  0  0  0  0  0  0  0  0  0  0  0
    0.2972    5.9866    0.6642 H   0  0  0  0  0  0  0  0  0  0  0  0
    1.4933    8.2436    4.0416 C   0  0  0  0  0  0  0  0  0  0  0  0
    0.3436    7.8258    4.7024 C   0  0  0  0  0  0  0  0  0  0  0  0
   -0.4853    7.4152    4.1419 H   0  0  0  0  0  0  0  0  0  0  0  0
    0.2533    7.9611    6.0767 C   0  0  0  0  0  0  0  0  0  0  0  0
   -0.6438    7.6441    6.5882 H   0  0  0  0  0  0  0  0  0  0  0  0
    1.3041    8.5076    6.7945 C   0  0  0  0  0  0  0  0  0  0  0  0
    1.2251    8.6161    7.8660 H   0  0  0  0  0  0  0  0  0  0  0  0
    2.4513    8.9280    6.1391 C   0  0  0  0  0  0  0  0  0  0  0  0
    3.2641    9.3663    6.6987 H   0  0  0  0  0  0  0  0  0  0  0  0
    2.5477    8.7991    4.7664 C   0  0  0  0  0  0  0  0  0  0  0  0
    3.4433    9.1587    4.2395 H   0  0  0  0  0  0  0  0  0  0  0  0
    5.8069    7.7567    1.5362 C   0  0  0  0  0  0  0  0  0  0  0  0
    5.8313    7.4666    2.5884 H   0  0  0  0  0  0  0  0  0  0  0  0
    6.0849    8.8106    1.4730 H   0  0  0  0  0  0  0  0  0  0  0  0
    6.5350    7.1537    0.9929 H   0  0  0  0  0  0  0  0  0  0  0  0
    4.2870    7.6571   -0.4534 C   0  0  1  0  0  0  0  0  0  0  0  0
    4.9654    8.9342   -0.9666 C   0  0  0  0  0  0  0  0  0  0  0  0
    6.0330    8.9167   -0.7483 H   0  0  0  0  0  0  0  0  0  0  0  0
    4.5242    9.8131   -0.4647 H   0  0  0  0  0  0  0  0  0  0  0  0
    4.7770    9.0684   -2.4776 C   0  0  2  0  0  0  0  0  0  0  0  0
    5.2741    9.9847   -2.8114 H   0  0  0  0  0  0  0  0  0  0  0  0
    3.2900    9.1446   -2.8118 C   0  0  0  0  0  0  0  0  0  0  0  0
    2.8429   10.0090   -2.3148 H   0  0  0  0  0  0  0  0  0  0  0  0
    3.1508    9.2635   -3.8881 H   0  0  0  0  0  0  0  0  0  0  0  0
    2.6118    7.8645   -2.3314 C   0  0  2  0  0  0  0  0  0  0  0  0
    1.5391    7.9097   -2.5504 H   0  0  0  0  0  0  0  0  0  0  0  0
    2.7961    7.7418   -0.8193 C   0  0  0  0  0  0  0  0  0  0  0  0
    2.3498    8.6378   -0.3516 H   0  0  0  0  0  0  0  0  0  0  0  0
    2.2679    6.8551   -0.4592 H   0  0  0  0  0  0  0  0  0  0  0  0
    4.8866    6.4440   -1.1780 C   0  0  0  0  0  0  0  0  0  0  0  0
    4.3812    5.5312   -0.8555 H   0  0  0  0  0  0  0  0  0  0  0  0
    5.9469    6.3480   -0.9442 H   0  0  0  0  0  0  0  0  0  0  0  0
    4.7139    6.5914   -2.6913 C   0  0  2  0  0  0  0  0  0  0  0  0
    5.1639    5.7204   -3.1818 H   0  0  0  0  0  0  0  0  0  0  0  0
    5.4043    7.8635   -3.1760 C   0  0  0  0  0  0  0  0  0  0  0  0
    5.2924    7.9570   -4.2581 H   0  0  0  0  0  0  0  0  0  0  0  0
    6.4725    7.8172   -2.9531 H   0  0  0  0  0  0  0  0  0  0  0  0
    3.2271    6.6550   -3.0309 C   0  0  0  0  0  0  0  0  0  0  0  0
    2.7279    5.7394   -2.7037 H   0  0  0  0  0  0  0  0  0  0  0  0
    3.0933    6.7412   -4.1110 H   0  0  0  0  0  0  0  0  0  0  0  0
    5.1757   10.9417    1.8203 Cl  0  0  0  0  0  0  0  0  0  0  0  0
    2.0230   11.2276    2.2310 Cl  0  0  0  0  0  0  0  0  0  0  0  0
    4.4287    7.5796    1.0450 N   0  0  0  0  0  4  0  0  0  0  0  0
    5.7696    5.0600    1.2235 O   0  0  0  0  0  0  0  0  0  0  0  0
    1.7422    8.1027    2.2429 P   0  0  0  0  0  4  0  0  0  0  0  0
    3.3919    9.5097    1.7576 Pd  0  0  0  0  0  0  0  0  0  0  0  0
  1  9  2  0  0  0  0
  1  2  1  0  0  0  0
  2 69  1  0  0  0  0
  2  3  2  0  0  0  0
  3  5  1  0  0  0  0
  3  4  1  0  0  0  0
  5  6  1  0  0  0  0
  7  8  1  0  0  0  0
  7  5  2  0  0  0  0
  9  7  1  0  0  0  0
 10 11  1  0  0  0  0
 12 10  1  0  0  0  0
 13 10  1  0  0  0  0
 14 15  1  0  0  0  0
 14 69  1  0  0  0  0
 15 16  1  0  0  0  0
 17 18  1  0  0  0  0
 17 15  2  0  0  0  0
 19 17  1  0  0  0  0
 20 19  1  0  0  0  0
 21 19  2  0  0  0  0
 21 23  1  0  0  0  0
 22 21  1  0  0  0  0
 23 14  2  0  0  0  0
 24 23  1  0  0  0  0
 25 26  2  0  0  0  0
 25 34  1  0  0  0  0
 26 28  1  0  0  0  0
 27 26  1  0  0  0  0
 28 29  1  0  0  0  0
 28 30  2  0  0  0  0
 30 31  1  0  0  0  0
 32 33  1  0  0  0  0
 32 30  1  0  0  0  0
 34 32  2  0  0  0  0
 35 34  1  0  0  0  0
 36 37  1  0  0  0  0
 38 36  1  0  0  0  0
 39 36  1  0  0  0  0
 40 67  1  1  0  0  0
 41 42  1  0  0  0  0
 41 43  1  0  0  0  0
 41 40  1  0  0  0  0
 44 45  1  6  0  0  0
 44 41  1  0  0  0  0
 46 44  1  0  0  0  0
 46 49  1  0  0  0  0
 46 47  1  0  0  0  0
 48 46  1  0  0  0  0
 49 50  1  6  0  0  0
 49 51  1  0  0  0  0
 51 53  1  0  0  0  0
 51 40  1  0  0  0  0
 51 52  1  0  0  0  0
 54 56  1  0  0  0  0
 54 55  1  0  0  0  0
 54 40  1  0  0  0  0
 57 58  1  6  0  0  0
 57 54  1  0  0  0  0
 59 61  1  0  0  0  0
 59 57  1  0  0  0  0
 59 44  1  0  0  0  0
 60 59  1  0  0  0  0
 62 63  1  0  0  0  0
 62 57  1  0  0  0  0
 62 49  1  0  0  0  0
 64 62  1  0  0  0  0
 67 36  1  0  0  0  0
 67  1  1  0  0  0  0
 67 70  1  0  0  0  0
 68 10  1  0  0  0  0
 68  9  1  0  0  0  0
 69 25  1  0  0  0  0
 70 65  1  0  0  0  0
 70 66  1  0  0  0  0
 70 69  1  0  0  0  0
M  END
$$$$
