CSD_code = AXIKEZ | q = 0 | S = 0 | Stoichiometry = C10H26Cl2N4P2Pt | MND = 4
 OpenBabel04212202003D

 45 46  0  0  0  0  0  0  0  0999 V2000
    3.0496    0.0780    0.3357 Pt  0  0  0  0  0  0  0  0  0  0  0  0
    3.8623    1.4194    2.0153 P   0  0  0  0  0  4  0  0  0  0  0  0
    2.6191    2.2684    2.7983 N   0  0  0  0  0  0  0  0  0  0  0  0
    4.4281    0.7186    3.4691 N   0  0  0  0  0  0  0  0  0  0  0  0
    5.0073    2.8107    1.6558 C   0  0  0  0  0  0  0  0  0  0  0  0
    4.5037    3.5081    0.9935 H   0  0  0  0  0  0  0  0  0  0  0  0
    5.9001    2.4444    1.1539 H   0  0  0  0  0  0  0  0  0  0  0  0
    5.2639    3.3044    2.5927 H   0  0  0  0  0  0  0  0  0  0  0  0
    2.3853    1.6877    4.1127 C   0  0  0  0  0  0  0  0  0  0  0  0
    1.7684    0.7836    4.0542 H   0  0  0  0  0  0  0  0  0  0  0  0
    1.8925    2.4235    4.7538 H   0  0  0  0  0  0  0  0  0  0  0  0
    3.7770    1.3383    4.6126 C   0  0  0  0  0  0  0  0  0  0  0  0
    4.3046    2.2459    4.9396 H   0  0  0  0  0  0  0  0  0  0  0  0
    3.7489    0.6344    5.4499 H   0  0  0  0  0  0  0  0  0  0  0  0
    1.4306    2.5163    2.0047 C   0  0  0  0  0  0  0  0  0  0  0  0
    0.8396    1.6052    1.8391 H   0  0  0  0  0  0  0  0  0  0  0  0
    1.7391    2.9148    1.0377 H   0  0  0  0  0  0  0  0  0  0  0  0
    0.8072    3.2560    2.5097 H   0  0  0  0  0  0  0  0  0  0  0  0
    5.8514    0.4974    3.6115 C   0  0  0  0  0  0  0  0  0  0  0  0
    6.3916    1.4010    3.9199 H   0  0  0  0  0  0  0  0  0  0  0  0
    6.2531    0.1648    2.6544 H   0  0  0  0  0  0  0  0  0  0  0  0
    6.0313   -0.2779    4.3612 H   0  0  0  0  0  0  0  0  0  0  0  0
    2.3011   -1.7375    1.5052 P   0  0  0  0  0  4  0  0  0  0  0  0
    3.4446   -2.6983    2.3069 N   0  0  0  0  0  0  0  0  0  0  0  0
    1.4376   -1.4107    2.9371 N   0  0  0  0  0  0  0  0  0  0  0  0
    1.3693   -3.0606    0.6352 C   0  0  0  0  0  0  0  0  0  0  0  0
    2.0156   -3.4975   -0.1210 H   0  0  0  0  0  0  0  0  0  0  0  0
    0.4991   -2.6415    0.1361 H   0  0  0  0  0  0  0  0  0  0  0  0
    1.0794   -3.8209    1.3604 H   0  0  0  0  0  0  0  0  0  0  0  0
    3.3435   -2.5215    3.7464 C   0  0  0  0  0  0  0  0  0  0  0  0
    3.9080   -1.6461    4.0865 H   0  0  0  0  0  0  0  0  0  0  0  0
    3.7224   -3.4144    4.2517 H   0  0  0  0  0  0  0  0  0  0  0  0
    1.8573   -2.3161    3.9947 C   0  0  0  0  0  0  0  0  0  0  0  0
    1.3239   -3.2764    3.9496 H   0  0  0  0  0  0  0  0  0  0  0  0
    1.6638   -1.8594    4.9698 H   0  0  0  0  0  0  0  0  0  0  0  0
    4.7846   -2.7229    1.7585 C   0  0  0  0  0  0  0  0  0  0  0  0
    5.3839   -1.8654    2.0816 H   0  0  0  0  0  0  0  0  0  0  0  0
    4.7107   -2.7089    0.6700 H   0  0  0  0  0  0  0  0  0  0  0  0
    5.2871   -3.6420    2.0674 H   0  0  0  0  0  0  0  0  0  0  0  0
    0.0128   -1.1777    2.8295 C   0  0  0  0  0  0  0  0  0  0  0  0
   -0.5645   -2.1075    2.7595 H   0  0  0  0  0  0  0  0  0  0  0  0
   -0.1736   -0.5850    1.9333 H   0  0  0  0  0  0  0  0  0  0  0  0
   -0.3375   -0.6217    3.7029 H   0  0  0  0  0  0  0  0  0  0  0  0
    2.1859   -0.9719   -1.4983 Cl  0  0  0  0  0  0  0  0  0  0  0  0
    3.7304    1.8012   -1.0023 Cl  0  0  0  0  0  0  0  0  0  0  0  0
  1 23  1  0  0  0  0
  1  2  1  0  0  0  0
  2  3  1  0  0  0  0
  2  4  1  0  0  0  0
  3  9  1  0  0  0  0
  4 19  1  0  0  0  0
  4 12  1  0  0  0  0
  5  2  1  0  0  0  0
  5  8  1  0  0  0  0
  6  5  1  0  0  0  0
  7  5  1  0  0  0  0
  9 12  1  0  0  0  0
  9 11  1  0  0  0  0
 10  9  1  0  0  0  0
 12 13  1  0  0  0  0
 12 14  1  0  0  0  0
 15 18  1  0  0  0  0
 15  3  1  0  0  0  0
 16 15  1  0  0  0  0
 17 15  1  0  0  0  0
 19 20  1  0  0  0  0
 19 22  1  0  0  0  0
 21 19  1  0  0  0  0
 23 24  1  0  0  0  0
 23 25  1  0  0  0  0
 24 30  1  0  0  0  0
 25 33  1  0  0  0  0
 26 29  1  0  0  0  0
 26 23  1  0  0  0  0
 27 26  1  0  0  0  0
 28 26  1  0  0  0  0
 30 33  1  0  0  0  0
 30 31  1  0  0  0  0
 30 32  1  0  0  0  0
 33 35  1  0  0  0  0
 34 33  1  0  0  0  0
 36 39  1  0  0  0  0
 36 37  1  0  0  0  0
 36 24  1  0  0  0  0
 38 36  1  0  0  0  0
 40 25  1  0  0  0  0
 40 43  1  0  0  0  0
 41 40  1  0  0  0  0
 42 40  1  0  0  0  0
 44  1  1  0  0  0  0
 45  1  1  0  0  0  0
M  END
$$$$
