CSD_code = AXIKID | q = 0 | S = 0 | Stoichiometry = C22H34Cl2N4P2Pt | MND = 4
 OpenBabel04212202003D

 65 68  0  0  0  0  0  0  0  0999 V2000
    5.2220   10.9327   10.0471 Pt  0  0  0  0  0  0  0  0  0  0  0  0
    2.9764   11.1369   10.6119 Cl  0  0  0  0  0  0  0  0  0  0  0  0
    5.8058   13.0843   10.7042 Cl  0  0  0  0  0  0  0  0  0  0  0  0
    4.3819    9.0097    9.2039 P   0  0  0  0  0  4  0  0  0  0  0  0
    7.4745   10.8520    9.8577 P   0  0  0  0  0  4  0  0  0  0  0  0
    3.7150    7.6975   10.0181 N   0  0  0  0  0  0  0  0  0  0  0  0
    5.4727    8.0256    8.3506 N   0  0  0  0  0  0  0  0  0  0  0  0
    8.1341    9.3493    9.4187 N   0  0  0  0  0  0  0  0  0  0  0  0
    8.4853   11.6893    8.8061 N   0  0  0  0  0  0  0  0  0  0  0  0
    4.4248    6.4590    9.7350 C   0  0  0  0  0  0  0  0  0  0  0  0
    3.7195    5.6227    9.7655 H   0  0  0  0  0  0  0  0  0  0  0  0
    5.2173    6.2697   10.4725 H   0  0  0  0  0  0  0  0  0  0  0  0
    5.0213    6.6486    8.3477 C   0  0  0  0  0  0  0  0  0  0  0  0
    5.8697    5.9800    8.1743 H   0  0  0  0  0  0  0  0  0  0  0  0
    4.2656    6.4613    7.5708 H   0  0  0  0  0  0  0  0  0  0  0  0
    3.1767    7.8176   11.3574 C   0  0  0  0  0  0  0  0  0  0  0  0
    2.3627    7.1001   11.4846 H   0  0  0  0  0  0  0  0  0  0  0  0
    2.7841    8.8259   11.4827 H   0  0  0  0  0  0  0  0  0  0  0  0
    3.9335    7.6261   12.1267 H   0  0  0  0  0  0  0  0  0  0  0  0
    6.0355    8.5354    7.1247 C   0  0  0  0  0  0  0  0  0  0  0  0
    6.9460    7.9825    6.8860 H   0  0  0  0  0  0  0  0  0  0  0  0
    6.2900    9.5841    7.2891 H   0  0  0  0  0  0  0  0  0  0  0  0
    5.3436    8.4643    6.2756 H   0  0  0  0  0  0  0  0  0  0  0  0
    3.1162    9.4656    7.9749 C   0  0  0  0  0  0  0  0  0  0  0  0
    3.2878   10.6822    7.3236 C   0  0  0  0  0  0  0  0  0  0  0  0
    4.1048   11.3346    7.6324 H   0  0  0  0  0  0  0  0  0  0  0  0
    2.4114   11.0679    6.3311 C   0  0  0  0  0  0  0  0  0  0  0  0
    2.5390   12.0197    5.8354 H   0  0  0  0  0  0  0  0  0  0  0  0
    1.3481   10.2447    5.9681 C   0  0  0  0  0  0  0  0  0  0  0  0
    1.1859    9.0307    6.6236 C   0  0  0  0  0  0  0  0  0  0  0  0
    0.3577    8.3888    6.3567 H   0  0  0  0  0  0  0  0  0  0  0  0
    2.0626    8.6378    7.6194 C   0  0  0  0  0  0  0  0  0  0  0  0
    1.9200    7.7021    8.1411 H   0  0  0  0  0  0  0  0  0  0  0  0
    0.4060   10.6684    4.8832 C   0  0  0  0  0  0  0  0  0  0  0  0
    0.8827   10.5571    3.9086 H   0  0  0  0  0  0  0  0  0  0  0  0
    0.1320   11.7148    5.0017 H   0  0  0  0  0  0  0  0  0  0  0  0
   -0.4979   10.0645    4.8928 H   0  0  0  0  0  0  0  0  0  0  0  0
    9.4351    9.5239    8.8048 C   0  0  0  0  0  0  0  0  0  0  0  0
    9.6709    8.6571    8.1805 H   0  0  0  0  0  0  0  0  0  0  0  0
   10.2336    9.6430    9.5518 H   0  0  0  0  0  0  0  0  0  0  0  0
    9.2785   10.7925    7.9788 C   0  0  0  0  0  0  0  0  0  0  0  0
   10.2436   11.2602    7.7607 H   0  0  0  0  0  0  0  0  0  0  0  0
    8.7779   10.5722    7.0256 H   0  0  0  0  0  0  0  0  0  0  0  0
    7.9813    8.2446   10.3328 C   0  0  0  0  0  0  0  0  0  0  0  0
    8.1165    7.3054    9.7929 H   0  0  0  0  0  0  0  0  0  0  0  0
    6.9650    8.2824   10.7296 H   0  0  0  0  0  0  0  0  0  0  0  0
    8.6926    8.2802   11.1679 H   0  0  0  0  0  0  0  0  0  0  0  0
    8.0856   12.9320    8.1792 C   0  0  0  0  0  0  0  0  0  0  0  0
    8.9681   13.5567    8.0216 H   0  0  0  0  0  0  0  0  0  0  0  0
    7.3984   13.4502    8.8468 H   0  0  0  0  0  0  0  0  0  0  0  0
    7.5964   12.7696    7.2121 H   0  0  0  0  0  0  0  0  0  0  0  0
    8.1642   11.1940   11.5093 C   0  0  0  0  0  0  0  0  0  0  0  0
    9.4358   11.7069   11.7156 C   0  0  0  0  0  0  0  0  0  0  0  0
   10.0370   11.9997   10.8666 H   0  0  0  0  0  0  0  0  0  0  0  0
    9.9113   11.8665   13.0048 C   0  0  0  0  0  0  0  0  0  0  0  0
   10.8990   12.2769   13.1641 H   0  0  0  0  0  0  0  0  0  0  0  0
    9.1336   11.5148   14.1012 C   0  0  0  0  0  0  0  0  0  0  0  0
    7.8590   10.9982   13.8832 C   0  0  0  0  0  0  0  0  0  0  0  0
    7.2421   10.7312   14.7295 H   0  0  0  0  0  0  0  0  0  0  0  0
    7.3791   10.8377   12.6001 C   0  0  0  0  0  0  0  0  0  0  0  0
    6.3724   10.4582   12.4233 H   0  0  0  0  0  0  0  0  0  0  0  0
    9.6375   11.7157   15.4974 C   0  0  0  0  0  0  0  0  0  0  0  0
   10.7221   11.7914   15.5151 H   0  0  0  0  0  0  0  0  0  0  0  0
    9.3281   10.8960   16.1426 H   0  0  0  0  0  0  0  0  0  0  0  0
    9.2256   12.6375   15.9087 H   0  0  0  0  0  0  0  0  0  0  0  0
  1  2  1  0  0  0  0
  1  3  1  0  0  0  0
  4  6  1  0  0  0  0
  4  1  1  0  0  0  0
  5  1  1  0  0  0  0
  5 52  1  0  0  0  0
  6 16  1  0  0  0  0
  7  4  1  0  0  0  0
  8  5  1  0  0  0  0
  8 44  1  0  0  0  0
  9  5  1  0  0  0  0
 10 11  1  0  0  0  0
 10  6  1  0  0  0  0
 10 12  1  0  0  0  0
 13  7  1  0  0  0  0
 13 10  1  0  0  0  0
 14 13  1  0  0  0  0
 15 13  1  0  0  0  0
 16 18  1  0  0  0  0
 16 17  1  0  0  0  0
 16 19  1  0  0  0  0
 20 22  1  0  0  0  0
 20  7  1  0  0  0  0
 21 20  1  0  0  0  0
 23 20  1  0  0  0  0
 24  4  1  0  0  0  0
 25 26  1  0  0  0  0
 25 24  2  0  0  0  0
 27 25  1  0  0  0  0
 28 27  1  0  0  0  0
 29 27  2  0  0  0  0
 29 30  1  0  0  0  0
 30 32  2  0  0  0  0
 31 30  1  0  0  0  0
 32 24  1  0  0  0  0
 32 33  1  0  0  0  0
 34 37  1  0  0  0  0
 34 36  1  0  0  0  0
 34 29  1  0  0  0  0
 35 34  1  0  0  0  0
 38  8  1  0  0  0  0
 38 40  1  0  0  0  0
 39 38  1  0  0  0  0
 41 38  1  0  0  0  0
 41  9  1  0  0  0  0
 42 41  1  0  0  0  0
 43 41  1  0  0  0  0
 44 46  1  0  0  0  0
 44 47  1  0  0  0  0
 45 44  1  0  0  0  0
 48  9  1  0  0  0  0
 48 50  1  0  0  0  0
 49 48  1  0  0  0  0
 51 48  1  0  0  0  0
 52 53  2  0  0  0  0
 52 60  1  0  0  0  0
 53 55  1  0  0  0  0
 54 53  1  0  0  0  0
 55 56  1  0  0  0  0
 55 57  2  0  0  0  0
 57 62  1  0  0  0  0
 58 57  1  0  0  0  0
 58 59  1  0  0  0  0
 60 58  2  0  0  0  0
 61 60  1  0  0  0  0
 62 63  1  0  0  0  0
 62 65  1  0  0  0  0
 62 64  1  0  0  0  0
M  END
$$$$
