CSD_code = AXISIJ | q = 0 | S = 0 | Stoichiometry = C19H17Cl2MnN4O3 | MND = 6
 OpenBabel04212202003D

 46 51  0  0  1  0  0  0  0  0999 V2000
    2.4065    3.9668   11.5628 Mn  0  0  0  0  0  0  0  0  0  0  0  0
    0.5224    2.7940   11.9913 Cl  0  0  0  0  0  0  0  0  0  0  0  0
    2.2168    5.1685   13.2678 Cl  0  0  0  0  0  0  0  0  0  0  0  0
    3.3617    2.5698   12.1232 O   0  0  0  0  0  0  0  0  0  0  0  0
    8.6780   -0.0434   10.4122 O   0  0  0  0  0  0  0  0  0  0  0  0
    7.5358   -0.2146    8.5923 O   0  0  0  0  0  0  0  0  0  0  0  0
    2.5747    3.0731    9.5748 N   0  0  1  0  0  4  0  0  0  0  0  0
    1.2493    5.1559   10.4256 N   0  0  0  0  0  0  0  0  0  0  0  0
    4.2168    4.7469   11.0123 N   0  0  0  0  0  0  0  0  0  0  0  0
    7.6494    0.0922    9.7702 N   0  0  0  0  0  0  0  0  0  0  0  0
    1.2652    3.2562    8.9459 C   0  0  0  0  0  0  0  0  0  0  0  0
    1.3011    3.0790    7.8623 H   0  0  0  0  0  0  0  0  0  0  0  0
    0.5686    2.5453    9.4091 H   0  0  0  0  0  0  0  0  0  0  0  0
    0.7783    4.6394    9.2703 C   0  0  1  0  0  3  0  0  0  0  0  0
    0.8215    6.3844   10.7626 C   0  0  0  0  0  0  0  0  0  0  0  0
    1.2049    6.7854   11.6919 H   0  0  0  0  0  0  0  0  0  0  0  0
   -0.0686    7.1132    9.9983 C   0  0  0  0  0  0  0  0  0  0  0  0
   -0.3793    8.0882   10.3363 H   0  0  0  0  0  0  0  0  0  0  0  0
   -0.5520    6.5763    8.8151 C   0  0  0  0  0  0  0  0  0  0  0  0
   -1.2518    7.1168    8.1980 H   0  0  0  0  0  0  0  0  0  0  0  0
   -0.1053    5.3169    8.4486 C   0  0  0  0  0  0  0  0  0  0  0  0
   -0.4466    4.8482    7.5389 H   0  0  0  0  0  0  0  0  0  0  0  0
    3.6147    3.8393    8.8661 C   0  0  0  0  0  0  0  0  0  0  0  0
    3.1578    4.7326    8.4234 H   0  0  0  0  0  0  0  0  0  0  0  0
    4.0595    3.2435    8.0594 H   0  0  0  0  0  0  0  0  0  0  0  0
    4.6726    4.2951    9.8344 C   0  0  1  0  0  3  0  0  0  0  0  0
    5.1043    5.1958   11.8987 C   0  0  0  0  0  0  0  0  0  0  0  0
    4.6898    5.5712   12.8258 H   0  0  0  0  0  0  0  0  0  0  0  0
    6.4684    5.1958   11.6663 C   0  0  0  0  0  0  0  0  0  0  0  0
    7.1411    5.5635   12.4238 H   0  0  0  0  0  0  0  0  0  0  0  0
    6.9429    4.7064   10.4601 C   0  0  0  0  0  0  0  0  0  0  0  0
    8.0002    4.6685   10.2506 H   0  0  0  0  0  0  0  0  0  0  0  0
    6.0225    4.2607    9.5245 C   0  0  0  0  0  0  0  0  0  0  0  0
    6.3447    3.8743    8.5703 H   0  0  0  0  0  0  0  0  0  0  0  0
    2.9396    1.6443    9.6081 C   0  0  0  0  0  0  0  0  0  0  0  0
    2.9761    1.2419    8.5862 H   0  0  0  0  0  0  0  0  0  0  0  0
    2.1552    1.1248   10.1730 H   0  0  0  0  0  0  0  0  0  0  0  0
    4.2589    1.4336   10.2967 C   0  0  0  0  0  0  0  0  0  0  0  0
    4.3601    1.9295   11.6325 C   0  0  0  0  0  0  0  0  0  0  0  0
    5.5572    1.7038   12.3491 C   0  0  0  0  0  0  0  0  0  0  0  0
    5.6127    2.0503   13.3695 H   0  0  0  0  0  0  0  0  0  0  0  0
    6.6190    1.0837   11.7465 C   0  0  0  0  0  0  0  0  0  0  0  0
    7.5472    0.9276   12.2745 H   0  0  0  0  0  0  0  0  0  0  0  0
    6.5253    0.6600   10.4179 C   0  0  0  0  0  0  0  0  0  0  0  0
    5.3308    0.8173    9.7089 C   0  0  0  0  0  0  0  0  0  0  0  0
    5.2801    0.4473    8.6950 H   0  0  0  0  0  0  0  0  0  0  0  0
  1  2  1  0  0  0  0
  1  4  1  0  0  0  0
  1  3  1  0  0  0  0
  6 10  2  0  0  0  0
  7 23  1  6  0  0  0
  7 35  1  0  0  0  0
  7  1  1  0  0  0  0
  8 15  1  0  0  0  0
  8  1  1  0  0  0  0
  9  1  1  0  0  0  0
  9 27  1  0  0  0  0
 10  5  2  0  0  0  0
 10 44  1  0  0  0  0
 11 14  1  0  0  0  0
 11 13  1  0  0  0  0
 11  7  1  0  0  0  0
 12 11  1  0  0  0  0
 14 21  1  1  0  0  0
 14  8  1  0  0  0  0
 15 16  1  0  0  0  0
 17 18  1  0  0  0  0
 17 15  2  0  0  0  0
 19 17  1  0  0  0  0
 20 19  1  0  0  0  0
 21 19  2  0  0  0  0
 22 21  1  0  0  0  0
 23 26  1  0  0  0  0
 24 23  1  0  0  0  0
 25 23  1  0  0  0  0
 26 33  1  6  0  0  0
 26  9  1  0  0  0  0
 27 28  1  0  0  0  0
 29 27  2  0  0  0  0
 29 30  1  0  0  0  0
 31 29  1  0  0  0  0
 32 31  1  0  0  0  0
 33 31  2  0  0  0  0
 34 33  1  0  0  0  0
 35 37  1  0  0  0  0
 35 38  1  0  0  0  0
 36 35  1  0  0  0  0
 38 39  1  0  0  0  0
 39  4  1  0  0  0  0
 39 40  2  0  0  0  0
 40 41  1  0  0  0  0
 42 43  1  0  0  0  0
 42 40  1  0  0  0  0
 44 42  2  0  0  0  0
 45 38  2  0  0  0  0
 45 44  1  0  0  0  0
 46 45  1  0  0  0  0
M  END
$$$$
