CSD_code = AXOBUK | q = 0 | S = 0 | Stoichiometry = C9H12Cl2N4Pd | MND = 4
 OpenBabel04212202003D

 28 30  0  0  1  0  0  0  0  0999 V2000
    3.4647    4.3165    7.2614 Pd  0  0  0  0  0  0  0  0  0  0  0  0
    1.9964    4.4795    8.9605 Cl  0  0  0  0  0  0  0  0  0  0  0  0
    1.7715    4.4148    5.7806 Cl  0  0  0  0  0  0  0  0  0  0  0  0
    5.0468    4.6228    4.6051 N   0  0  0  0  0  0  0  0  0  0  0  0
    5.7608    3.1004    5.9417 N   0  0  0  0  0  0  0  0  0  0  0  0
    5.9303    3.1510    8.2890 N   0  0  0  0  0  0  0  0  0  0  0  0
    5.4077    4.7284    9.6502 N   0  0  0  0  0  0  0  0  0  0  0  0
    4.8004    4.0476    5.7895 C   0  0  1  0  0  3  0  0  0  0  0  0
    6.1425    4.0484    4.0159 C   0  0  0  0  0  0  0  0  0  0  0  0
    6.5998    3.0914    4.8563 C   0  0  0  0  0  0  0  0  0  0  0  0
    4.2938    5.7095    4.0380 C   0  0  0  0  0  0  0  0  0  0  0  0
    5.8528    2.2925    7.1328 C   0  0  0  0  0  0  0  0  0  0  0  0
    4.9972    4.1049    8.5380 C   0  0  0  0  0  0  0  0  0  0  0  0
    6.5794    4.1780   10.0992 C   0  0  0  0  0  0  0  0  0  0  0  0
    6.9163    3.1863    9.2422 C   0  0  0  0  0  0  0  0  0  0  0  0
    4.7374    5.8377   10.2746 C   0  0  0  0  0  0  0  0  0  0  0  0
    6.5052    4.3584    3.0575 H   0  0  0  0  0  0  0  0  0  0  0  0
    7.4230    2.4131    4.7664 H   0  0  0  0  0  0  0  0  0  0  0  0
    4.0886    5.5104    2.9869 H   0  0  0  0  0  0  0  0  0  0  0  0
    4.8514    6.6443    4.1262 H   0  0  0  0  0  0  0  0  0  0  0  0
    3.3464    5.7864    4.5817 H   0  0  0  0  0  0  0  0  0  0  0  0
    4.9456    1.6657    7.2119 H   0  0  0  0  0  0  0  0  0  0  0  0
    6.7414    1.6569    7.0822 H   0  0  0  0  0  0  0  0  0  0  0  0
    7.0742    4.5270   10.9821 H   0  0  0  0  0  0  0  0  0  0  0  0
    7.7474    2.5117    9.2408 H   0  0  0  0  0  0  0  0  0  0  0  0
    5.2629    6.7701   10.0572 H   0  0  0  0  0  0  0  0  0  0  0  0
    4.6992    5.6888   11.3531 H   0  0  0  0  0  0  0  0  0  0  0  0
    3.7168    5.8834    9.8800 H   0  0  0  0  0  0  0  0  0  0  0  0
  1 13  2  0  0  0  0
  1  2  1  0  0  0  0
  3  1  1  0  0  0  0
  5 12  1  0  0  0  0
  6 13  1  0  0  0  0
  6 15  1  0  0  0  0
  7 14  1  0  0  0  0
  7 16  1  0  0  0  0
  8  4  1  1  0  0  0
  8  5  1  0  0  0  0
  8  1  1  0  0  0  0
  9  4  1  0  0  0  0
  9 10  2  0  0  0  0
 10  5  1  0  0  0  0
 11 20  1  0  0  0  0
 11 21  1  0  0  0  0
 11  4  1  0  0  0  0
 12 22  1  0  0  0  0
 12  6  1  0  0  0  0
 13  7  1  0  0  0  0
 14 24  1  0  0  0  0
 15 14  2  0  0  0  0
 16 27  1  0  0  0  0
 17  9  1  0  0  0  0
 18 10  1  0  0  0  0
 19 11  1  0  0  0  0
 23 12  1  0  0  0  0
 25 15  1  0  0  0  0
 26 16  1  0  0  0  0
 28 16  1  0  0  0  0
M  END
$$$$
