CSD_code = AXOVIS | q = 0 | S = 0 | Stoichiometry = C38H34Cl2Zr | MND = 12
 OpenBabel04212202003D

 75 80  0  0  1  0  0  0  0  0999 V2000
    5.5875    3.1227   13.9018 Zr  0  0  0  0  0  0  0  0  0  0  0  0
    3.6346    2.5158   12.7523 Cl  0  0  0  0  0  0  0  0  0  0  0  0
    4.6508    2.0115   15.7436 Cl  0  0  0  0  0  0  0  0  0  0  0  0
    7.6282    1.6972   14.2765 C   0  0  0  0  0  0  0  0  0  0  0  0
    6.6997    0.8593   13.5729 C   0  0  0  0  0  0  0  0  0  0  0  0
    6.4764    1.4180   12.2933 C   0  0  0  0  0  0  0  0  0  0  0  0
    7.2311    2.6353   12.2020 C   0  0  2  0  0  0  0  0  0  0  0  0
    7.9624    2.7747   13.4150 C   0  0  0  0  0  0  0  0  0  0  0  0
    8.7178    3.5226   13.6215 H   0  0  0  0  0  0  0  0  0  0  0  0
    8.3382    1.3637   15.5157 C   0  0  0  0  0  0  0  0  0  0  0  0
    9.7089    1.6175   15.6067 C   0  0  0  0  0  0  0  0  0  0  0  0
   10.2199    2.0858   14.7785 H   0  0  0  0  0  0  0  0  0  0  0  0
   10.4234    1.2546   16.7311 C   0  0  0  0  0  0  0  0  0  0  0  0
   11.4834    1.4567   16.7801 H   0  0  0  0  0  0  0  0  0  0  0  0
    9.7883    0.6236   17.7878 C   0  0  0  0  0  0  0  0  0  0  0  0
   10.3495    0.3323   18.6635 H   0  0  0  0  0  0  0  0  0  0  0  0
    8.4285    0.3725   17.7142 C   0  0  0  0  0  0  0  0  0  0  0  0
    7.9236   -0.1104   18.5384 H   0  0  0  0  0  0  0  0  0  0  0  0
    7.7068    0.7380   16.5930 C   0  0  0  0  0  0  0  0  0  0  0  0
    6.6414    0.5662   16.5661 H   0  0  0  0  0  0  0  0  0  0  0  0
    6.1845   -0.4766   14.0243 C   0  0  0  0  0  0  0  0  0  0  0  0
    5.2032   -0.3860   14.4978 H   0  0  0  0  0  0  0  0  0  0  0  0
    6.8713   -0.9270   14.7395 H   0  0  0  0  0  0  0  0  0  0  0  0
    6.0799   -1.1483   13.1727 H   0  0  0  0  0  0  0  0  0  0  0  0
    5.8081    0.7033   11.1516 C   0  0  0  0  0  0  0  0  0  0  0  0
    6.1210   -0.3419   11.1422 H   0  0  0  0  0  0  0  0  0  0  0  0
    6.0987    1.1512   10.2031 H   0  0  0  0  0  0  0  0  0  0  0  0
    4.7199    0.7232   11.2285 H   0  0  0  0  0  0  0  0  0  0  0  0
    7.2852    3.5306   11.0451 C   0  0  0  0  0  0  0  0  0  0  0  0
    6.1428    3.7463   10.2671 C   0  0  0  0  0  0  0  0  0  0  0  0
    5.2009    3.2952   10.5575 H   0  0  0  0  0  0  0  0  0  0  0  0
    6.2049    4.5462    9.1416 C   0  0  0  0  0  0  0  0  0  0  0  0
    5.3200    4.6916    8.5411 H   0  0  0  0  0  0  0  0  0  0  0  0
    7.3891    5.1740    8.7925 C   0  0  0  0  0  0  0  0  0  0  0  0
    7.4312    5.8033    7.9166 H   0  0  0  0  0  0  0  0  0  0  0  0
    8.5178    4.9949    9.5752 C   0  0  0  0  0  0  0  0  0  0  0  0
    9.4425    5.4872    9.3113 H   0  0  0  0  0  0  0  0  0  0  0  0
    8.4715    4.1741   10.6858 C   0  0  0  0  0  0  0  0  0  0  0  0
    9.3636    4.0115   11.2741 H   0  0  0  0  0  0  0  0  0  0  0  0
    5.1104    5.4780   13.1527 C   0  0  0  0  0  0  0  0  0  0  0  0
    4.2556    5.2558   14.2837 C   0  0  0  0  0  0  0  0  0  0  0  0
    5.0678    5.0473   15.4222 C   0  0  0  0  0  0  0  0  0  0  0  0
    6.4399    5.0941   15.0038 C   0  0  2  0  0  0  0  0  0  0  0  0
    6.4507    5.3959   13.6129 C   0  0  0  0  0  0  0  0  0  0  0  0
    7.3263    5.6175   13.0156 H   0  0  0  0  0  0  0  0  0  0  0  0
    4.7048    5.9919   11.8404 C   0  0  0  0  0  0  0  0  0  0  0  0
    3.5479    5.5541   11.1919 C   0  0  0  0  0  0  0  0  0  0  0  0
    2.9670    4.7479   11.6137 H   0  0  0  0  0  0  0  0  0  0  0  0
    3.1606    6.1172    9.9900 C   0  0  0  0  0  0  0  0  0  0  0  0
    2.2629    5.7659    9.5021 H   0  0  0  0  0  0  0  0  0  0  0  0
    3.9152    7.1225    9.4090 C   0  0  0  0  0  0  0  0  0  0  0  0
    3.6068    7.5630    8.4723 H   0  0  0  0  0  0  0  0  0  0  0  0
    5.0711    7.5567   10.0364 C   0  0  0  0  0  0  0  0  0  0  0  0
    5.6675    8.3390    9.5900 H   0  0  0  0  0  0  0  0  0  0  0  0
    5.4603    7.0016   11.2392 C   0  0  0  0  0  0  0  0  0  0  0  0
    6.3496    7.3661   11.7317 H   0  0  0  0  0  0  0  0  0  0  0  0
    2.7613    5.3969   14.3134 C   0  0  0  0  0  0  0  0  0  0  0  0
    2.4260    6.0573   13.5149 H   0  0  0  0  0  0  0  0  0  0  0  0
    2.4401    5.8143   15.2673 H   0  0  0  0  0  0  0  0  0  0  0  0
    2.2671    4.4292   14.1915 H   0  0  0  0  0  0  0  0  0  0  0  0
    4.5747    5.0715   16.8424 C   0  0  0  0  0  0  0  0  0  0  0  0
    5.3951    5.2895   17.5238 H   0  0  0  0  0  0  0  0  0  0  0  0
    4.1154    4.1272   17.1394 H   0  0  0  0  0  0  0  0  0  0  0  0
    3.8240    5.8553   16.9548 H   0  0  0  0  0  0  0  0  0  0  0  0
    7.6100    4.9243   15.8669 C   0  0  0  0  0  0  0  0  0  0  0  0
    8.7723    5.6713   15.6624 C   0  0  0  0  0  0  0  0  0  0  0  0
    8.8099    6.3846   14.8512 H   0  0  0  0  0  0  0  0  0  0  0  0
    9.8610    5.5216   16.5001 C   0  0  0  0  0  0  0  0  0  0  0  0
   10.7538    6.1048   16.3273 H   0  0  0  0  0  0  0  0  0  0  0  0
    9.8043    4.6403   17.5671 C   0  0  0  0  0  0  0  0  0  0  0  0
   10.6501    4.5361   18.2296 H   0  0  0  0  0  0  0  0  0  0  0  0
    8.6596    3.8896   17.7775 C   0  0  0  0  0  0  0  0  0  0  0  0
    8.6147    3.1937   18.6011 H   0  0  0  0  0  0  0  0  0  0  0  0
    7.5770    4.0120   16.9270 C   0  0  0  0  0  0  0  0  0  0  0  0
    6.7030    3.3876   17.0725 H   0  0  0  0  0  0  0  0  0  0  0  0
  1  3  1  0  0  0  0
  2  1  1  0  0  0  0
  4 10  1  0  0  0  0
  5 21  1  0  0  0  0
  5  4  1  0  0  0  0
  6  5  2  0  0  0  0
  7  6  1  0  0  0  0
  7  8  1  0  0  0  0
  7  1  1  1  0  0  0
  8  9  1  0  0  0  0
  8  4  2  0  0  0  0
 10 11  2  0  0  0  0
 10 19  1  0  0  0  0
 11 13  1  0  0  0  0
 12 11  1  0  0  0  0
 13 14  1  0  0  0  0
 13 15  2  0  0  0  0
 15 16  1  0  0  0  0
 17 15  1  0  0  0  0
 17 18  1  0  0  0  0
 19 17  2  0  0  0  0
 20 19  1  0  0  0  0
 21 22  1  0  0  0  0
 21 23  1  0  0  0  0
 24 21  1  0  0  0  0
 25 28  1  0  0  0  0
 25  6  1  0  0  0  0
 26 25  1  0  0  0  0
 27 25  1  0  0  0  0
 29  7  1  0  0  0  0
 30 31  1  0  0  0  0
 30 29  2  0  0  0  0
 32 30  1  0  0  0  0
 33 32  1  0  0  0  0
 34 32  2  0  0  0  0
 34 36  1  0  0  0  0
 35 34  1  0  0  0  0
 36 38  2  0  0  0  0
 37 36  1  0  0  0  0
 38 29  1  0  0  0  0
 38 39  1  0  0  0  0
 40 44  2  0  0  0  0
 40 41  1  0  0  0  0
 41 57  1  0  0  0  0
 41 42  2  0  0  0  0
 42 61  1  0  0  0  0
 43  1  1  6  0  0  0
 43 42  1  0  0  0  0
 43 65  1  0  0  0  0
 44 43  1  0  0  0  0
 45 44  1  0  0  0  0
 46 40  1  0  0  0  0
 47 48  1  0  0  0  0
 47 46  2  0  0  0  0
 49 47  1  0  0  0  0
 50 49  1  0  0  0  0
 51 49  2  0  0  0  0
 51 53  1  0  0  0  0
 52 51  1  0  0  0  0
 53 55  2  0  0  0  0
 54 53  1  0  0  0  0
 55 56  1  0  0  0  0
 55 46  1  0  0  0  0
 57 59  1  0  0  0  0
 58 57  1  0  0  0  0
 60 57  1  0  0  0  0
 61 64  1  0  0  0  0
 61 63  1  0  0  0  0
 61 62  1  0  0  0  0
 65 74  1  0  0  0  0
 66 65  2  0  0  0  0
 66 68  1  0  0  0  0
 67 66  1  0  0  0  0
 68 70  2  0  0  0  0
 69 68  1  0  0  0  0
 70 72  1  0  0  0  0
 70 71  1  0  0  0  0
 72 73  1  0  0  0  0
 74 75  1  0  0  0  0
 74 72  2  0  0  0  0
M  END
$$$$
