CSD_code = AXOVEO | q = 0 | S = 0 | Stoichiometry = C38H34Cl2Ti | MND = 12
 OpenBabel04212202003D

 75 80  0  0  1  0  0  0  0  0999 V2000
    5.7217    3.1022   13.9278 Ti  0  0  0  0  0  0  0  0  0  0  0  0
    3.8455    2.5675   12.8457 Cl  0  0  0  0  0  0  0  0  0  0  0  0
    4.8884    2.0229   15.6936 Cl  0  0  0  0  0  0  0  0  0  0  0  0
    7.6627    1.7105   14.2696 C   0  0  0  0  0  0  0  0  0  0  0  0
    6.7329    0.8591   13.5882 C   0  0  0  0  0  0  0  0  0  0  0  0
    6.4723    1.4130   12.3147 C   0  0  0  0  0  0  0  0  0  0  0  0
    7.1830    2.6514   12.2125 C   0  0  2  0  0  0  0  0  0  0  0  0
    7.9458    2.7948   13.4074 C   0  0  0  0  0  0  0  0  0  0  0  0
    8.7142    3.5335   13.5881 H   0  0  0  0  0  0  0  0  0  0  0  0
    8.4222    1.3955   15.4818 C   0  0  0  0  0  0  0  0  0  0  0  0
    9.7823    1.7137   15.5290 C   0  0  0  0  0  0  0  0  0  0  0  0
   10.2458    2.2070   14.6872 H   0  0  0  0  0  0  0  0  0  0  0  0
   10.5500    1.3833   16.6277 C   0  0  0  0  0  0  0  0  0  0  0  0
   11.6001    1.6369   16.6423 H   0  0  0  0  0  0  0  0  0  0  0  0
    9.9808    0.7226   17.7035 C   0  0  0  0  0  0  0  0  0  0  0  0
   10.5832    0.4603   18.5608 H   0  0  0  0  0  0  0  0  0  0  0  0
    8.6341    0.4032   17.6716 C   0  0  0  0  0  0  0  0  0  0  0  0
    8.1803   -0.1062   18.5095 H   0  0  0  0  0  0  0  0  0  0  0  0
    7.8602    0.7329   16.5746 C   0  0  0  0  0  0  0  0  0  0  0  0
    6.8052    0.5087   16.5811 H   0  0  0  0  0  0  0  0  0  0  0  0
    6.2684   -0.4860   14.0510 C   0  0  0  0  0  0  0  0  0  0  0  0
    5.3286   -0.4103   14.6027 H   0  0  0  0  0  0  0  0  0  0  0  0
    7.0136   -0.9378   14.7044 H   0  0  0  0  0  0  0  0  0  0  0  0
    6.0995   -1.1436   13.1994 H   0  0  0  0  0  0  0  0  0  0  0  0
    5.7989    0.6874   11.1902 C   0  0  0  0  0  0  0  0  0  0  0  0
    6.0830   -0.3653   11.2134 H   0  0  0  0  0  0  0  0  0  0  0  0
    6.1075    1.1057   10.2338 H   0  0  0  0  0  0  0  0  0  0  0  0
    4.7114    0.7402   11.2589 H   0  0  0  0  0  0  0  0  0  0  0  0
    7.2724    3.5045   11.0271 C   0  0  0  0  0  0  0  0  0  0  0  0
    6.1721    3.6853   10.1845 C   0  0  0  0  0  0  0  0  0  0  0  0
    5.2211    3.2412   10.4435 H   0  0  0  0  0  0  0  0  0  0  0  0
    6.2817    4.4552    9.0423 C   0  0  0  0  0  0  0  0  0  0  0  0
    5.4245    4.5772    8.3974 H   0  0  0  0  0  0  0  0  0  0  0  0
    7.4772    5.0804    8.7308 C   0  0  0  0  0  0  0  0  0  0  0  0
    7.5580    5.6858    7.8405 H   0  0  0  0  0  0  0  0  0  0  0  0
    8.5684    4.9287    9.5700 C   0  0  0  0  0  0  0  0  0  0  0  0
    9.5034    5.4167    9.3352 H   0  0  0  0  0  0  0  0  0  0  0  0
    8.4717    4.1437   10.7029 C   0  0  0  0  0  0  0  0  0  0  0  0
    9.3383    4.0059   11.3344 H   0  0  0  0  0  0  0  0  0  0  0  0
    5.2262    5.3553   13.2209 C   0  0  0  0  0  0  0  0  0  0  0  0
    4.3734    5.1443   14.3532 C   0  0  0  0  0  0  0  0  0  0  0  0
    5.1858    4.9189   15.4871 C   0  0  0  0  0  0  0  0  0  0  0  0
    6.5533    4.9186   15.0637 C   0  0  2  0  0  0  0  0  0  0  0  0
    6.5601    5.2339   13.6742 C   0  0  0  0  0  0  0  0  0  0  0  0
    7.4308    5.4717   13.0790 H   0  0  0  0  0  0  0  0  0  0  0  0
    4.8409    5.8940   11.9145 C   0  0  0  0  0  0  0  0  0  0  0  0
    3.6641    5.5226   11.2615 C   0  0  0  0  0  0  0  0  0  0  0  0
    3.0410    4.7474   11.6789 H   0  0  0  0  0  0  0  0  0  0  0  0
    3.3130    6.1057   10.0582 C   0  0  0  0  0  0  0  0  0  0  0  0
    2.4003    5.8023    9.5659 H   0  0  0  0  0  0  0  0  0  0  0  0
    4.1220    7.0701    9.4818 C   0  0  0  0  0  0  0  0  0  0  0  0
    3.8427    7.5262    8.5434 H   0  0  0  0  0  0  0  0  0  0  0  0
    5.2941    7.4447   10.1171 C   0  0  0  0  0  0  0  0  0  0  0  0
    5.9323    8.1965    9.6759 H   0  0  0  0  0  0  0  0  0  0  0  0
    5.6489    6.8668   11.3195 C   0  0  0  0  0  0  0  0  0  0  0  0
    6.5536    7.1870   11.8152 H   0  0  0  0  0  0  0  0  0  0  0  0
    2.8887    5.3281   14.3836 C   0  0  0  0  0  0  0  0  0  0  0  0
    2.3706    4.3842   14.1991 H   0  0  0  0  0  0  0  0  0  0  0  0
    2.5815    6.0423   13.6207 H   0  0  0  0  0  0  0  0  0  0  0  0
    2.5709    5.6942   15.3590 H   0  0  0  0  0  0  0  0  0  0  0  0
    4.7015    4.9546   16.9044 C   0  0  0  0  0  0  0  0  0  0  0  0
    3.9271    5.7159   17.0061 H   0  0  0  0  0  0  0  0  0  0  0  0
    5.5205    5.2055   17.5760 H   0  0  0  0  0  0  0  0  0  0  0  0
    4.2738    4.0010   17.2174 H   0  0  0  0  0  0  0  0  0  0  0  0
    7.7289    4.8198   15.9292 C   0  0  0  0  0  0  0  0  0  0  0  0
    8.8719    5.5771   15.6608 C   0  0  0  0  0  0  0  0  0  0  0  0
    8.8856    6.2391   14.8061 H   0  0  0  0  0  0  0  0  0  0  0  0
    9.9745    5.5078   16.4904 C   0  0  0  0  0  0  0  0  0  0  0  0
   10.8506    6.0995   16.2669 H   0  0  0  0  0  0  0  0  0  0  0  0
    9.9546    4.6943   17.6111 C   0  0  0  0  0  0  0  0  0  0  0  0
   10.8133    4.6499   18.2641 H   0  0  0  0  0  0  0  0  0  0  0  0
    8.8294    3.9359   17.8868 C   0  0  0  0  0  0  0  0  0  0  0  0
    8.8110    3.2926   18.7536 H   0  0  0  0  0  0  0  0  0  0  0  0
    7.7309    3.9848   17.0500 C   0  0  0  0  0  0  0  0  0  0  0  0
    6.8767    3.3524   17.2477 H   0  0  0  0  0  0  0  0  0  0  0  0
  1  3  1  0  0  0  0
  2  1  1  0  0  0  0
  4 10  1  0  0  0  0
  5 21  1  0  0  0  0
  5  4  1  0  0  0  0
  6  5  2  0  0  0  0
  7  6  1  0  0  0  0
  7  8  1  0  0  0  0
  7  1  1  1  0  0  0
  8  9  1  0  0  0  0
  8  4  2  0  0  0  0
 10 11  2  0  0  0  0
 10 19  1  0  0  0  0
 11 13  1  0  0  0  0
 12 11  1  0  0  0  0
 13 14  1  0  0  0  0
 13 15  2  0  0  0  0
 15 16  1  0  0  0  0
 17 15  1  0  0  0  0
 17 18  1  0  0  0  0
 19 20  1  0  0  0  0
 19 17  2  0  0  0  0
 21 22  1  0  0  0  0
 21 23  1  0  0  0  0
 24 21  1  0  0  0  0
 25 26  1  0  0  0  0
 25 28  1  0  0  0  0
 25  6  1  0  0  0  0
 27 25  1  0  0  0  0
 29  7  1  0  0  0  0
 30 31  1  0  0  0  0
 30 29  2  0  0  0  0
 32 30  1  0  0  0  0
 33 32  1  0  0  0  0
 34 32  2  0  0  0  0
 34 36  1  0  0  0  0
 35 34  1  0  0  0  0
 36 38  2  0  0  0  0
 37 36  1  0  0  0  0
 38 29  1  0  0  0  0
 38 39  1  0  0  0  0
 40 44  2  0  0  0  0
 40 41  1  0  0  0  0
 41 57  1  0  0  0  0
 41 42  2  0  0  0  0
 42 61  1  0  0  0  0
 43  1  1  6  0  0  0
 43 42  1  0  0  0  0
 43 65  1  0  0  0  0
 44 43  1  0  0  0  0
 45 44  1  0  0  0  0
 46 40  1  0  0  0  0
 47 48  1  0  0  0  0
 47 46  2  0  0  0  0
 49 47  1  0  0  0  0
 50 49  1  0  0  0  0
 51 49  2  0  0  0  0
 51 53  1  0  0  0  0
 52 51  1  0  0  0  0
 53 55  2  0  0  0  0
 54 53  1  0  0  0  0
 55 56  1  0  0  0  0
 55 46  1  0  0  0  0
 57 60  1  0  0  0  0
 58 57  1  0  0  0  0
 59 57  1  0  0  0  0
 61 62  1  0  0  0  0
 61 64  1  0  0  0  0
 61 63  1  0  0  0  0
 65 74  1  0  0  0  0
 66 65  2  0  0  0  0
 66 68  1  0  0  0  0
 67 66  1  0  0  0  0
 68 70  2  0  0  0  0
 69 68  1  0  0  0  0
 70 72  1  0  0  0  0
 70 71  1  0  0  0  0
 72 73  1  0  0  0  0
 74 75  1  0  0  0  0
 74 72  2  0  0  0  0
M  END
$$$$
