CSD_code = AXOWIV | q = 1 | S = 0 | Stoichiometry = C20H20ClCuN3O(1+) | MND = 5
 OpenBabel04212202003D

 46 51  0  0  1  0  0  0  0  0999 V2000
    8.8762    6.7964    6.7635 Cu  0  0  0  0  0  0  0  0  0  0  0  0
    8.2443    8.1951    5.2333 Cl  0  0  0  0  0  0  0  0  0  0  0  0
    9.9055    5.7322    7.8831 O   0  0  0  0  0  0  0  0  0  0  0  0
   10.3727    8.8757    7.9612 C   0  0  0  0  0  3  0  0  0  0  0  0
   11.1826    8.4259    7.4069 H   0  0  0  0  0  0  0  0  0  0  0  0
    9.1952    8.2743    7.8805 N   0  0  0  0  0  0  0  0  0  0  0  0
    7.1045    6.5541    8.2093 N   0  0  1  0  0  4  0  0  0  0  0  0
    8.4574    5.3357    5.6792 N   0  0  0  0  0  0  0  0  0  0  0  0
    9.2333    3.4638    4.4481 C   0  0  0  0  0  0  0  0  0  0  0  0
   10.0634    2.9218    4.0263 H   0  0  0  0  0  0  0  0  0  0  0  0
   10.5499   10.0159    8.7230 C   0  0  0  0  0  0  0  0  0  0  0  0
   11.5171   10.4885    8.7702 H   0  0  0  0  0  0  0  0  0  0  0  0
    9.3969    4.6195    8.3724 C   0  0  0  0  0  0  0  0  0  0  0  0
    8.1335    8.7319    8.5439 C   0  0  0  0  0  0  0  0  0  0  0  0
    8.2463    4.6281    9.1963 C   0  0  0  0  0  0  0  0  0  0  0  0
    6.0016    5.8192    7.6004 C   0  0  0  0  0  0  0  0  0  0  0  0
    5.0358    6.2464    7.8984 H   0  0  0  0  0  0  0  0  0  0  0  0
    6.0394    4.7872    7.9566 H   0  0  0  0  0  0  0  0  0  0  0  0
    9.4541    4.6267    5.1573 C   0  0  0  0  0  3  0  0  0  0  0  0
   10.4502    5.0103    5.3205 H   0  0  0  0  0  0  0  0  0  0  0  0
    7.5627    5.9398    9.4626 C   0  0  0  0  0  0  0  0  0  0  0  0
    8.2867    6.6208    9.9208 H   0  0  0  0  0  0  0  0  0  0  0  0
    6.7258    5.8031   10.1613 H   0  0  0  0  0  0  0  0  0  0  0  0
    6.0818    5.8131    6.0637 C   0  0  0  0  0  0  0  0  0  0  0  0
    5.1319    5.4477    5.6738 H   0  0  0  0  0  0  0  0  0  0  0  0
    6.2328    6.8339    5.7027 H   0  0  0  0  0  0  0  0  0  0  0  0
    9.4594   10.5275    9.4121 C   0  0  0  0  0  0  0  0  0  0  0  0
    9.5580   11.4199   10.0107 H   0  0  0  0  0  0  0  0  0  0  0  0
    7.1855    4.9564    5.5261 C   0  0  0  0  0  0  0  0  0  0  0  0
   10.0232    3.3887    8.1061 C   0  0  0  0  0  0  0  0  0  0  0  0
   10.9185    3.3920    7.5037 H   0  0  0  0  0  0  0  0  0  0  0  0
    6.8413    7.9788    8.3829 C   0  0  0  0  0  0  0  0  0  0  0  0
    6.1814    8.1756    9.2403 H   0  0  0  0  0  0  0  0  0  0  0  0
    6.3518    8.3561    7.4780 H   0  0  0  0  0  0  0  0  0  0  0  0
    8.2413    9.8738    9.3278 C   0  0  0  0  0  0  0  0  0  0  0  0
    7.3763   10.2407    9.8574 H   0  0  0  0  0  0  0  0  0  0  0  0
    7.7696    3.4396    9.7163 C   0  0  0  0  0  0  0  0  0  0  0  0
    6.8901    3.4515   10.3445 H   0  0  0  0  0  0  0  0  0  0  0  0
    8.4141    2.2376    9.4617 C   0  0  0  0  0  0  0  0  0  0  0  0
    8.0350    1.3225    9.8880 H   0  0  0  0  0  0  0  0  0  0  0  0
    7.9257    3.0238    4.2978 C   0  0  0  0  0  0  0  0  0  0  0  0
    7.7094    2.1142    3.7592 H   0  0  0  0  0  0  0  0  0  0  0  0
    9.5481    2.2210    8.6636 C   0  0  0  0  0  0  0  0  0  0  0  0
   10.0600    1.2904    8.4728 H   0  0  0  0  0  0  0  0  0  0  0  0
    6.9013    3.7777    4.8399 C   0  0  0  0  0  0  0  0  0  0  0  0
    5.8741    3.4691    4.7273 H   0  0  0  0  0  0  0  0  0  0  0  0
  1  6  1  0  0  0  0
  1  3  1  0  0  0  0
  1  7  1  0  0  0  0
  2  1  1  0  0  0  0
  3 13  1  0  0  0  0
  4 11  1  0  0  0  0
  5  4  1  0  0  0  0
  6  4  1  0  0  0  0
  6 14  1  0  0  0  0
  7 16  1  6  0  0  0
  7 32  1  0  0  0  0
  7 21  1  0  0  0  0
  8  1  1  0  0  0  0
  9 19  1  0  0  0  0
 10  9  1  0  0  0  0
 11 12  1  0  0  0  0
 11 27  2  0  0  0  0
 13 15  1  0  0  0  0
 14 35  2  0  0  0  0
 15 21  1  0  0  0  0
 15 37  2  0  0  0  0
 16 17  1  0  0  0  0
 16 18  1  0  0  0  0
 19 20  1  0  0  0  0
 19  8  1  0  0  0  0
 21 22  1  0  0  0  0
 21 23  1  0  0  0  0
 24 16  1  0  0  0  0
 25 24  1  0  0  0  0
 26 24  1  0  0  0  0
 27 28  1  0  0  0  0
 29  8  1  0  0  0  0
 29 24  1  0  0  0  0
 30 13  2  0  0  0  0
 30 43  1  0  0  0  0
 31 30  1  0  0  0  0
 32 14  1  0  0  0  0
 32 33  1  0  0  0  0
 34 32  1  0  0  0  0
 35 27  1  0  0  0  0
 35 36  1  0  0  0  0
 37 38  1  0  0  0  0
 39 37  1  0  0  0  0
 39 40  1  0  0  0  0
 41  9  2  0  0  0  0
 41 45  1  0  0  0  0
 42 41  1  0  0  0  0
 43 39  2  0  0  0  0
 44 43  1  0  0  0  0
 45 29  2  0  0  0  0
 46 45  1  0  0  0  0
M  END
$$$$
