CSD_code = AXUCUT | q = 0 | S = 0 | Stoichiometry = C28H28Br2N10O4Zn | MND = 4
 OpenBabel04212202003D

 73 79  0  0  1  0  0  0  0  0999 V2000
    8.5652    1.9549   17.7385 Zn  0  0  0  0  0  0  0  0  0  0  0  0
    8.1862   -0.0758   16.5566 Br  0  0  0  0  0  0  0  0  0  0  0  0
    7.7871    3.3920   19.4236 Br  0  0  0  0  0  0  0  0  0  0  0  0
    8.7907    6.7860   18.2851 N   0  0  0  0  0  0  0  0  0  0  0  0
    7.8016    7.2739   19.2270 C   0  0  0  0  0  0  0  0  0  0  0  0
    8.2789    7.9442   19.9395 H   0  0  0  0  0  0  0  0  0  0  0  0
    7.3788    6.4224   19.7603 H   0  0  0  0  0  0  0  0  0  0  0  0
    7.0335    7.7976   18.6642 H   0  0  0  0  0  0  0  0  0  0  0  0
    8.6192    7.0241   16.9425 C   0  0  0  0  0  0  0  0  0  0  0  0
    7.7072    7.6810   16.5025 O   0  0  0  0  0  0  0  0  0  0  0  0
    9.5844    6.4898   16.0878 N   0  0  0  0  0  0  0  0  0  0  0  0
    9.4215    6.8481   14.6878 C   0  0  0  0  0  0  0  0  0  0  0  0
   10.2318    6.3891   14.1262 H   0  0  0  0  0  0  0  0  0  0  0  0
    9.4582    7.9323   14.5848 H   0  0  0  0  0  0  0  0  0  0  0  0
    8.4553    6.5023   14.3225 H   0  0  0  0  0  0  0  0  0  0  0  0
   10.6373    5.6677   16.4392 C   0  0  0  0  0  0  0  0  0  0  0  0
   11.3998    5.2167   15.6036 O   0  0  0  0  0  0  0  0  0  0  0  0
   10.7133    5.4027   17.8736 C   0  0  0  0  0  0  0  0  0  0  0  0
   11.6139    4.5510   18.3498 N   0  0  0  0  0  0  0  0  0  0  0  0
   11.6777    4.3283   19.6476 C   0  0  0  0  0  0  0  0  0  0  0  0
   10.8689    5.0686   20.5396 C   0  0  0  0  0  0  0  0  0  0  0  0
   10.9243    4.9886   22.0269 C   0  0  0  0  0  0  0  0  0  0  0  0
   11.9431    5.0023   22.4043 H   0  0  0  0  0  0  0  0  0  0  0  0
   10.4311    4.0746   22.3538 H   0  0  0  0  0  0  0  0  0  0  0  0
   10.3691    5.8303   22.4305 H   0  0  0  0  0  0  0  0  0  0  0  0
    9.9585    5.8978   20.0680 N   0  0  0  0  0  0  0  0  0  0  0  0
    9.8131    6.0268   18.7531 C   0  0  0  0  0  0  0  0  0  0  0  0
   12.7027    3.2766   20.0668 C   0  0  2  0  0  0  0  0  0  0  0  0
   14.0192    3.9888   20.3995 C   0  0  0  0  0  0  0  0  0  0  0  0
   14.3475    4.5745   19.5453 H   0  0  0  0  0  0  0  0  0  0  0  0
   14.7881    3.2584   20.6430 H   0  0  0  0  0  0  0  0  0  0  0  0
   13.8931    4.6626   21.2439 H   0  0  0  0  0  0  0  0  0  0  0  0
   10.4704    3.2953   13.0378 N   0  0  0  0  0  0  0  0  0  0  0  0
   11.4925    3.3376   12.0101 C   0  0  0  0  0  0  0  0  0  0  0  0
   11.0481    3.7494   11.1072 H   0  0  0  0  0  0  0  0  0  0  0  0
   11.8633    2.3304   11.8247 H   0  0  0  0  0  0  0  0  0  0  0  0
   12.3165    3.9625   12.3513 H   0  0  0  0  0  0  0  0  0  0  0  0
    9.1908    3.7202   12.7295 C   0  0  0  0  0  0  0  0  0  0  0  0
    8.9057    4.1350   11.6328 O   0  0  0  0  0  0  0  0  0  0  0  0
    8.2373    3.6508   13.7472 N   0  0  0  0  0  0  0  0  0  0  0  0
    6.8716    4.0319   13.4214 C   0  0  0  0  0  0  0  0  0  0  0  0
    6.8810    4.5931   12.4905 H   0  0  0  0  0  0  0  0  0  0  0  0
    6.4681    4.6320   14.2360 H   0  0  0  0  0  0  0  0  0  0  0  0
    6.2584    3.1373   13.3081 H   0  0  0  0  0  0  0  0  0  0  0  0
    8.4820    3.2529   15.0315 C   0  0  0  0  0  0  0  0  0  0  0  0
    7.6220    3.2267   15.8989 O   0  0  0  0  0  0  0  0  0  0  0  0
    9.8574    2.8818   15.2936 C   0  0  2  0  0  3  0  0  0  0  0  0
   10.1833    2.5736   16.5350 N   0  0  0  0  0  0  0  0  0  0  0  0
   11.4291    2.2243   16.8253 C   0  0  0  0  0  0  0  0  0  0  0  0
   12.3608    2.0814   15.7619 C   0  0  0  0  0  0  0  0  0  0  0  0
   13.7159    1.4821   15.9243 C   0  0  0  0  0  0  0  0  0  0  0  0
   13.7315    0.7434   16.7201 H   0  0  0  0  0  0  0  0  0  0  0  0
   14.4450    2.2613   16.1434 H   0  0  0  0  0  0  0  0  0  0  0  0
   14.0042    1.0207   14.9830 H   0  0  0  0  0  0  0  0  0  0  0  0
   12.0408    2.4143   14.5269 N   0  0  0  0  0  0  0  0  0  0  0  0
   10.8158    2.8708   14.2795 C   0  0  0  0  0  0  0  0  0  0  0  0
   11.6404    1.9429   18.2458 C   0  0  1  0  0  3  0  0  0  0  0  0
   12.9444    2.2918   18.8859 C   0  0  0  0  0  0  0  0  0  0  0  0
   13.5944    2.7705   18.1603 H   0  0  0  0  0  0  0  0  0  0  0  0
   13.4302    1.4023   19.2933 H   0  0  0  0  0  0  0  0  0  0  0  0
   10.6085    1.4894   18.8647 N   0  0  0  0  0  0  0  0  0  0  0  0
   12.2891    2.5236   21.2115 N   0  0  0  0  0  0  0  0  0  0  0  0
   12.7329    2.7441   22.0884 H   0  0  0  0  0  0  0  0  0  0  0  0
   10.5115    1.1352   20.1902 C   0  0  0  0  0  0  0  0  0  0  0  0
   11.2932    1.5914   21.2786 C   0  0  0  0  0  0  0  0  0  0  0  0
   11.0142    1.0756   22.5547 C   0  0  0  0  0  0  0  0  0  0  0  0
   11.6167    1.4232   23.3835 H   0  0  0  0  0  0  0  0  0  0  0  0
   10.0129    0.1632   22.7749 C   0  0  0  0  0  0  0  0  0  0  0  0
    9.8317   -0.2056   23.7727 H   0  0  0  0  0  0  0  0  0  0  0  0
    9.2288   -0.2726   21.7107 C   0  0  0  0  0  0  0  0  0  0  0  0
    8.4344   -0.9834   21.8698 H   0  0  0  0  0  0  0  0  0  0  0  0
    9.4789    0.2168   20.4553 C   0  0  0  0  0  0  0  0  0  0  0  0
    8.8920   -0.1305   19.6174 H   0  0  0  0  0  0  0  0  0  0  0  0
  1 61  1  0  0  0  0
  1  3  1  0  0  0  0
  2  1  1  0  0  0  0
  4 27  1  0  0  0  0
  4  5  1  0  0  0  0
  5  7  1  0  0  0  0
  5  6  1  0  0  0  0
  8  5  1  0  0  0  0
  9  4  1  0  0  0  0
 10  9  2  0  0  0  0
 11 16  1  0  0  0  0
 11  9  1  0  0  0  0
 12 11  1  0  0  0  0
 13 12  1  0  0  0  0
 14 12  1  0  0  0  0
 15 12  1  0  0  0  0
 16 18  1  0  0  0  0
 17 16  2  0  0  0  0
 18 19  2  0  0  0  0
 18 27  1  0  0  0  0
 19 20  1  0  0  0  0
 20 28  1  0  0  0  0
 20 21  2  0  0  0  0
 21 22  1  0  0  0  0
 22 24  1  0  0  0  0
 22 23  1  0  0  0  0
 22 25  1  0  0  0  0
 26 21  1  0  0  0  0
 27 26  2  0  0  0  0
 28 29  1  1  0  0  0
 28 62  1  0  0  0  0
 29 31  1  0  0  0  0
 29 32  1  0  0  0  0
 30 29  1  0  0  0  0
 33 56  1  0  0  0  0
 34 37  1  0  0  0  0
 34 33  1  0  0  0  0
 35 34  1  0  0  0  0
 36 34  1  0  0  0  0
 38 33  1  0  0  0  0
 38 40  1  0  0  0  0
 39 38  2  0  0  0  0
 40 45  1  0  0  0  0
 41 40  1  0  0  0  0
 41 43  1  0  0  0  0
 42 41  1  0  0  0  0
 44 41  1  0  0  0  0
 45 47  1  0  0  0  0
 45 46  2  0  0  0  0
 47 56  1  1  0  0  0
 47 48  1  0  0  0  0
 48 49  1  0  0  0  0
 48  1  1  0  0  0  0
 50 51  1  0  0  0  0
 50 49  2  0  0  0  0
 51 53  1  0  0  0  0
 51 52  1  0  0  0  0
 54 51  1  0  0  0  0
 55 50  1  0  0  0  0
 56 55  2  0  0  0  0
 57 49  1  1  0  0  0
 57 61  1  0  0  0  0
 57 58  1  0  0  0  0
 58 60  1  0  0  0  0
 58 28  1  0  0  0  0
 59 58  1  0  0  0  0
 61 64  1  0  0  0  0
 62 65  1  0  0  0  0
 62 63  1  0  0  0  0
 64 72  2  0  0  0  0
 64 65  1  0  0  0  0
 65 66  2  0  0  0  0
 66 68  1  0  0  0  0
 66 67  1  0  0  0  0
 68 69  1  0  0  0  0
 70 71  1  0  0  0  0
 70 68  2  0  0  0  0
 72 70  1  0  0  0  0
 73 72  1  0  0  0  0
M  END
$$$$
