CSD_code = AXUDAA | q = 0 | S = 0 | Stoichiometry = C28H28CdCl2N10O4 | MND = 5
 OpenBabel04212202003D

 73 79  0  0  1  0  0  0  0  0999 V2000
    3.9512    8.3234   12.4323 Cd  0  0  0  0  0  0  0  0  0  0  0  0
    3.2355   10.1208   13.7584 Cl  0  0  0  0  0  0  0  0  0  0  0  0
    5.5964    6.6950   12.8691 Cl  0  0  0  0  0  0  0  0  0  0  0  0
    4.4385    4.0777   11.3193 N   0  0  0  0  0  0  0  0  0  0  0  0
    5.4354    3.2858   12.0123 C   0  0  0  0  0  0  0  0  0  0  0  0
    4.9156    2.5829   12.6580 H   0  0  0  0  0  0  0  0  0  0  0  0
    6.0594    3.9595   12.5999 H   0  0  0  0  0  0  0  0  0  0  0  0
    6.0521    2.7601   11.2856 H   0  0  0  0  0  0  0  0  0  0  0  0
    3.1110    3.9145   11.6408 C   0  0  0  0  0  0  0  0  0  0  0  0
    2.7229    3.0494   12.3881 O   0  0  0  0  0  0  0  0  0  0  0  0
    2.2096    4.7664   11.0068 N   0  0  0  0  0  0  0  0  0  0  0  0
    0.8157    4.5312   11.3449 C   0  0  0  0  0  0  0  0  0  0  0  0
    0.2042    5.1519   10.6943 H   0  0  0  0  0  0  0  0  0  0  0  0
    0.6461    4.7882   12.3903 H   0  0  0  0  0  0  0  0  0  0  0  0
    0.5850    3.4765   11.2001 H   0  0  0  0  0  0  0  0  0  0  0  0
    2.5146    5.8198   10.1713 C   0  0  0  0  0  0  0  0  0  0  0  0
    1.6441    6.5246    9.6889 O   0  0  0  0  0  0  0  0  0  0  0  0
    3.9491    5.9704    9.9167 C   0  0  0  0  0  0  0  0  0  0  0  0
    4.3977    6.9637    9.1572 N   0  0  0  0  0  0  0  0  0  0  0  0
    5.6924    7.0667    8.9171 C   0  0  0  0  0  0  0  0  0  0  0  0
    6.5890    6.0892    9.4022 C   0  0  0  0  0  0  0  0  0  0  0  0
    8.0601    6.0453    9.1454 C   0  0  0  0  0  0  0  0  0  0  0  0
    8.3115    6.2568    8.1099 H   0  0  0  0  0  0  0  0  0  0  0  0
    8.5591    6.7674    9.7903 H   0  0  0  0  0  0  0  0  0  0  0  0
    8.4183    5.0547    9.4123 H   0  0  0  0  0  0  0  0  0  0  0  0
    6.1486    5.1060   10.1633 N   0  0  0  0  0  0  0  0  0  0  0  0
    4.8590    5.0582   10.4833 C   0  0  0  0  0  0  0  0  0  0  0  0
    6.1069    8.2611    8.0576 C   0  0  1  0  0  0  0  0  0  0  0  0
    6.2911    7.8010    6.6071 C   0  0  0  0  0  0  0  0  0  0  0  0
    5.3681    7.3588    6.2423 H   0  0  0  0  0  0  0  0  0  0  0  0
    6.5481    8.6503    5.9776 H   0  0  0  0  0  0  0  0  0  0  0  0
    7.0770    7.0544    6.5255 H   0  0  0  0  0  0  0  0  0  0  0  0
   -0.9408    9.4420   10.5205 N   0  0  0  0  0  0  0  0  0  0  0  0
   -1.8856   10.1580    9.6857 C   0  0  0  0  0  0  0  0  0  0  0  0
   -2.8829    9.9856   10.0836 H   0  0  0  0  0  0  0  0  0  0  0  0
   -1.6498   11.2210    9.6996 H   0  0  0  0  0  0  0  0  0  0  0  0
   -1.8174    9.7934    8.6618 H   0  0  0  0  0  0  0  0  0  0  0  0
   -1.4171    8.7013   11.5869 C   0  0  0  0  0  0  0  0  0  0  0  0
   -2.5940    8.6369   11.8450 O   0  0  0  0  0  0  0  0  0  0  0  0
   -0.4757    8.0206   12.3550 N   0  0  0  0  0  0  0  0  0  0  0  0
   -1.0066    7.2651   13.4789 C   0  0  0  0  0  0  0  0  0  0  0  0
   -1.7379    7.8772   14.0038 H   0  0  0  0  0  0  0  0  0  0  0  0
   -1.4970    6.3576   13.1256 H   0  0  0  0  0  0  0  0  0  0  0  0
   -0.1767    7.0125   14.1347 H   0  0  0  0  0  0  0  0  0  0  0  0
    1.6380    7.3055   12.7944 O   0  0  0  0  0  0  0  0  0  0  0  0
    1.3116    8.8263   11.0166 C   0  0  1  0  0  3  0  0  0  0  0  0
    0.8772    7.9930   12.1328 C   0  0  0  0  0  0  0  0  0  0  0  0
    2.5978    8.8753   10.7274 N   0  0  0  0  0  0  0  0  0  0  0  0
    3.0211    9.5692    9.6844 C   0  0  0  0  0  0  0  0  0  0  0  0
    2.0822   10.3074    8.9202 C   0  0  0  0  0  0  0  0  0  0  0  0
    2.4640   11.2152    7.8000 C   0  0  0  0  0  0  0  0  0  0  0  0
    3.3956   11.7291    8.0186 H   0  0  0  0  0  0  0  0  0  0  0  0
    2.5848   10.6496    6.8776 H   0  0  0  0  0  0  0  0  0  0  0  0
    1.6671   11.9381    7.6485 H   0  0  0  0  0  0  0  0  0  0  0  0
    0.7941   10.2682    9.2077 N   0  0  0  0  0  0  0  0  0  0  0  0
    0.3844    9.5188   10.2299 C   0  0  0  0  0  0  0  0  0  0  0  0
    4.4805    9.5292    9.4794 C   0  0  2  0  0  3  0  0  0  0  0  0
    5.0019    9.3520    8.0859 C   0  0  0  0  0  0  0  0  0  0  0  0
    5.4488   10.2736    7.7078 H   0  0  0  0  0  0  0  0  0  0  0  0
    4.1835    9.0520    7.4352 H   0  0  0  0  0  0  0  0  0  0  0  0
    5.1676    9.5636   10.5600 N   0  0  0  0  0  0  0  0  0  0  0  0
    7.3314    8.8569    8.5166 N   0  0  0  0  0  0  0  0  0  0  0  0
    8.1640    8.6388    7.9920 H   0  0  0  0  0  0  0  0  0  0  0  0
    6.5315    9.5869   10.7353 C   0  0  0  0  0  0  0  0  0  0  0  0
    7.5505    9.2964    9.7961 C   0  0  0  0  0  0  0  0  0  0  0  0
    8.8852    9.4722   10.1891 C   0  0  0  0  0  0  0  0  0  0  0  0
    9.6616    9.2682    9.4629 H   0  0  0  0  0  0  0  0  0  0  0  0
    9.2252    9.8832   11.4558 C   0  0  0  0  0  0  0  0  0  0  0  0
   10.2653   10.0004   11.7199 H   0  0  0  0  0  0  0  0  0  0  0  0
    8.2292   10.1284   12.3959 C   0  0  0  0  0  0  0  0  0  0  0  0
    8.4874   10.4339   13.3970 H   0  0  0  0  0  0  0  0  0  0  0  0
    6.9139    9.9796   12.0326 C   0  0  0  0  0  0  0  0  0  0  0  0
    6.1183   10.1924   12.7380 H   0  0  0  0  0  0  0  0  0  0  0  0
  1  3  1  0  0  0  0
  1  2  1  0  0  0  0
  4  9  1  0  0  0  0
  4  5  1  0  0  0  0
  5  7  1  0  0  0  0
  5  6  1  0  0  0  0
  8  5  1  0  0  0  0
  9 10  2  0  0  0  0
 11 12  1  0  0  0  0
 11  9  1  0  0  0  0
 12 14  1  0  0  0  0
 13 12  1  0  0  0  0
 15 12  1  0  0  0  0
 16 11  1  0  0  0  0
 17 16  2  0  0  0  0
 18 16  1  0  0  0  0
 18 27  1  0  0  0  0
 19 18  2  0  0  0  0
 20 19  1  0  0  0  0
 20 21  2  0  0  0  0
 21 26  1  0  0  0  0
 22 21  1  0  0  0  0
 22 25  1  0  0  0  0
 22 24  1  0  0  0  0
 23 22  1  0  0  0  0
 26 27  2  0  0  0  0
 27  4  1  0  0  0  0
 28 29  1  6  0  0  0
 28 58  1  0  0  0  0
 28 62  1  0  0  0  0
 28 20  1  0  0  0  0
 30 29  1  0  0  0  0
 31 29  1  0  0  0  0
 32 29  1  0  0  0  0
 33 38  1  0  0  0  0
 34 36  1  0  0  0  0
 34 35  1  0  0  0  0
 34 33  1  0  0  0  0
 37 34  1  0  0  0  0
 38 39  2  0  0  0  0
 38 40  1  0  0  0  0
 40 41  1  0  0  0  0
 41 42  1  0  0  0  0
 41 44  1  0  0  0  0
 43 41  1  0  0  0  0
 46 56  1  6  0  0  0
 46 47  1  0  0  0  0
 47 40  1  0  0  0  0
 47 45  2  0  0  0  0
 48 46  1  0  0  0  0
 48  1  1  0  0  0  0
 49 48  1  0  0  0  0
 50 55  1  0  0  0  0
 50 49  2  0  0  0  0
 51 52  1  0  0  0  0
 51 50  1  0  0  0  0
 53 51  1  0  0  0  0
 54 51  1  0  0  0  0
 55 56  2  0  0  0  0
 56 33  1  0  0  0  0
 57 49  1  1  0  0  0
 57 61  1  0  0  0  0
 58 57  1  0  0  0  0
 59 58  1  0  0  0  0
 60 58  1  0  0  0  0
 61 64  1  0  0  0  0
 61  1  1  0  0  0  0
 62 65  1  0  0  0  0
 63 62  1  0  0  0  0
 64 72  1  0  0  0  0
 65 66  1  0  0  0  0
 65 64  2  0  0  0  0
 66 68  2  0  0  0  0
 67 66  1  0  0  0  0
 68 69  1  0  0  0  0
 68 70  1  0  0  0  0
 70 71  1  0  0  0  0
 72 70  2  0  0  0  0
 72 73  1  0  0  0  0
M  END
$$$$
