CSD_code = AXUFUW | q = 0 | S = 0 | Stoichiometry = C28H28HgI2N10O4 | MND = 5
 OpenBabel04212202003D

 73 77  0  0  1  0  0  0  0  0999 V2000
    7.8913   -0.0498    3.7530 Hg  0  0  0  0  0  0  0  0  0  0  0  0
    7.6064   -0.0392    1.1442 I   0  0  0  0  0  0  0  0  0  0  0  0
    8.2786   -1.4044    5.9471 I   0  0  0  0  0  0  0  0  0  0  0  0
    5.5057    2.0555    7.0809 N   0  0  0  0  0  0  0  0  0  0  0  0
    5.1292    0.7276    7.5308 C   0  0  0  0  0  0  0  0  0  0  0  0
    5.9044    0.3611    8.1977 H   0  0  0  0  0  0  0  0  0  0  0  0
    5.0444    0.0635    6.6692 H   0  0  0  0  0  0  0  0  0  0  0  0
    4.1662    0.7859    8.0336 H   0  0  0  0  0  0  0  0  0  0  0  0
    4.5164    2.8792    6.6026 C   0  0  0  0  0  0  0  0  0  0  0  0
    3.3520    2.5530    6.5949 O   0  0  0  0  0  0  0  0  0  0  0  0
    4.9076    4.1297    6.1328 N   0  0  0  0  0  0  0  0  0  0  0  0
    3.8214    5.0352    5.7872 C   0  0  0  0  0  0  0  0  0  0  0  0
    4.2628    5.9339    5.3630 H   0  0  0  0  0  0  0  0  0  0  0  0
    3.1409    4.5703    5.0758 H   0  0  0  0  0  0  0  0  0  0  0  0
    3.2593    5.2808    6.6881 H   0  0  0  0  0  0  0  0  0  0  0  0
    6.2108    4.5497    5.9080 C   0  0  0  0  0  0  0  0  0  0  0  0
    6.4560    5.5812    5.3174 O   0  0  0  0  0  0  0  0  0  0  0  0
    7.2081    3.6177    6.4264 C   0  0  0  0  0  0  0  0  0  0  0  0
    8.4986    3.8562    6.2308 N   0  0  0  0  0  0  0  0  0  0  0  0
    9.4015    3.0261    6.7150 C   0  0  0  0  0  0  0  0  0  0  0  0
    9.0034    1.9683    7.5641 C   0  0  0  0  0  0  0  0  0  0  0  0
    9.9188    1.1314    8.3875 C   0  0  0  0  0  0  0  0  0  0  0  0
    9.3217    0.5756    9.1050 H   0  0  0  0  0  0  0  0  0  0  0  0
   10.6532    1.7423    8.9060 H   0  0  0  0  0  0  0  0  0  0  0  0
   10.4384    0.4103    7.7593 H   0  0  0  0  0  0  0  0  0  0  0  0
    7.7208    1.6766    7.6742 N   0  0  0  0  0  0  0  0  0  0  0  0
    6.8140    2.4287    7.0617 C   0  0  0  0  0  0  0  0  0  0  0  0
   10.8298    3.3522    6.2860 C   0  0  2  0  0  0  0  0  0  0  0  0
   11.3197    4.5373    7.1253 C   0  0  0  0  0  0  0  0  0  0  0  0
   10.6234    5.3656    7.0299 H   0  0  0  0  0  0  0  0  0  0  0  0
   11.3785    4.2588    8.1760 H   0  0  0  0  0  0  0  0  0  0  0  0
   12.3030    4.8580    6.7872 H   0  0  0  0  0  0  0  0  0  0  0  0
    4.8980    4.4474    2.4504 N   0  0  0  0  0  0  0  0  0  0  0  0
    4.7123    5.7592    1.8602 C   0  0  0  0  0  0  0  0  0  0  0  0
    5.1713    6.5060    2.5063 H   0  0  0  0  0  0  0  0  0  0  0  0
    3.6443    5.9370    1.7616 H   0  0  0  0  0  0  0  0  0  0  0  0
    5.1929    5.7910    0.8834 H   0  0  0  0  0  0  0  0  0  0  0  0
    3.7899    3.6612    2.7054 C   0  0  0  0  0  0  0  0  0  0  0  0
    2.6725    4.0341    2.4446 O   0  0  0  0  0  0  0  0  0  0  0  0
    4.0245    2.4159    3.2862 N   0  0  0  0  0  0  0  0  0  0  0  0
    2.8662    1.5741    3.5510 C   0  0  0  0  0  0  0  0  0  0  0  0
    2.0411    1.9182    2.9334 H   0  0  0  0  0  0  0  0  0  0  0  0
    3.1257    0.5439    3.3141 H   0  0  0  0  0  0  0  0  0  0  0  0
    2.5963    1.6441    4.6065 H   0  0  0  0  0  0  0  0  0  0  0  0
    5.2457    1.9267    3.6572 C   0  0  0  0  0  0  0  0  0  0  0  0
    5.3755    0.8302    4.1835 O   0  0  0  0  0  0  0  0  0  0  0  0
    6.3637    2.8199    3.3907 C   0  0  0  0  0  0  0  0  0  0  0  0
    7.5800    2.4528    3.7732 N   0  0  0  0  0  0  0  0  0  0  0  0
    8.6056    3.2643    3.5437 C   0  0  0  0  0  0  0  0  0  0  0  0
    8.4029    4.4481    2.7869 C   0  0  0  0  0  0  0  0  0  0  0  0
    9.5147    5.3070    2.2938 C   0  0  0  0  0  0  0  0  0  0  0  0
   10.4347    4.7417    2.1772 H   0  0  0  0  0  0  0  0  0  0  0  0
    9.2215    5.7443    1.3426 H   0  0  0  0  0  0  0  0  0  0  0  0
    9.6801    6.1271    2.9919 H   0  0  0  0  0  0  0  0  0  0  0  0
    7.1931    4.8132    2.4165 N   0  0  0  0  0  0  0  0  0  0  0  0
    6.1582    4.0481    2.7544 C   0  0  0  0  0  0  0  0  0  0  0  0
    9.8877    2.7870    4.0723 C   0  0  0  0  0  0  0  0  0  0  0  0
   10.7895    3.7490    4.7791 C   0  0  0  0  0  0  0  0  0  0  0  0
   10.4094    4.7622    4.6950 H   0  0  0  0  0  0  0  0  0  0  0  0
   11.8071    3.6911    4.3856 H   0  0  0  0  0  0  0  0  0  0  0  0
   10.0837    1.5211    4.0099 N   0  0  0  0  0  0  0  0  0  0  0  0
   11.7453    2.2635    6.4559 N   0  0  0  0  0  0  0  0  0  0  0  0
   12.4099    2.3564    7.2080 H   0  0  0  0  0  0  0  0  0  0  0  0
   11.1829    0.8501    4.5020 C   0  0  0  0  0  0  0  0  0  0  0  0
   11.9705    1.2035    5.6219 C   0  0  0  0  0  0  0  0  0  0  0  0
   13.0337    0.3535    5.9692 C   0  0  0  0  0  0  0  0  0  0  0  0
   13.6359    0.6199    6.8273 H   0  0  0  0  0  0  0  0  0  0  0  0
   13.3216   -0.7871    5.2619 C   0  0  0  0  0  0  0  0  0  0  0  0
   14.1498   -1.4099    5.5626 H   0  0  0  0  0  0  0  0  0  0  0  0
   12.5388   -1.1422    4.1670 C   0  0  0  0  0  0  0  0  0  0  0  0
   12.7514   -2.0398    3.6092 H   0  0  0  0  0  0  0  0  0  0  0  0
   11.4871   -0.3371    3.8130 C   0  0  0  0  0  0  0  0  0  0  0  0
   10.8717   -0.5849    2.9572 H   0  0  0  0  0  0  0  0  0  0  0  0
  1  3  1  0  0  0  0
  2  1  1  0  0  0  0
  4  5  1  0  0  0  0
  5  8  1  0  0  0  0
  5  6  1  0  0  0  0
  7  5  1  0  0  0  0
  9  4  1  0  0  0  0
 10  9  2  0  0  0  0
 11  9  1  0  0  0  0
 12 11  1  0  0  0  0
 12 15  1  0  0  0  0
 13 12  1  0  0  0  0
 14 12  1  0  0  0  0
 16 11  1  0  0  0  0
 16 18  1  0  0  0  0
 17 16  2  0  0  0  0
 18 27  1  0  0  0  0
 19 18  2  0  0  0  0
 19 20  1  0  0  0  0
 20 21  2  0  0  0  0
 21 26  1  0  0  0  0
 21 22  1  0  0  0  0
 22 24  1  0  0  0  0
 22 23  1  0  0  0  0
 25 22  1  0  0  0  0
 27  4  1  0  0  0  0
 27 26  2  0  0  0  0
 28 62  1  0  0  0  0
 28 20  1  0  0  0  0
 28 29  1  1  0  0  0
 29 31  1  0  0  0  0
 30 29  1  0  0  0  0
 32 29  1  0  0  0  0
 33 38  1  0  0  0  0
 33 56  1  0  0  0  0
 34 33  1  0  0  0  0
 34 35  1  0  0  0  0
 36 34  1  0  0  0  0
 37 34  1  0  0  0  0
 38 40  1  0  0  0  0
 39 38  2  0  0  0  0
 40 41  1  0  0  0  0
 40 45  1  0  0  0  0
 41 44  1  0  0  0  0
 42 41  1  0  0  0  0
 43 41  1  0  0  0  0
 45 46  2  0  0  0  0
 47 45  1  0  0  0  0
 47 48  1  0  0  0  0
 49 48  2  0  0  0  0
 49 57  1  0  0  0  0
 50 49  1  0  0  0  0
 51 50  1  0  0  0  0
 51 54  1  0  0  0  0
 52 51  1  0  0  0  0
 53 51  1  0  0  0  0
 55 56  1  0  0  0  0
 55 50  2  0  0  0  0
 56 47  2  0  0  0  0
 57 58  1  0  0  0  0
 58 28  1  0  0  0  0
 59 58  1  0  0  0  0
 60 58  1  0  0  0  0
 61 57  2  0  0  0  0
 61 64  1  0  0  0  0
 62 63  1  0  0  0  0
 64 65  1  0  0  0  0
 65 66  2  0  0  0  0
 65 62  1  0  0  0  0
 66 67  1  0  0  0  0
 68 69  1  0  0  0  0
 68 66  1  0  0  0  0
 70 68  2  0  0  0  0
 71 70  1  0  0  0  0
 72 70  1  0  0  0  0
 72 64  2  0  0  0  0
 73 72  1  0  0  0  0
M  END
$$$$
