CSD_code = AXUSOB | q = 0 | S = 0 | Stoichiometry = C33H37Cl3NOPTi | MND = 6
 OpenBabel04212202003D

 77 82  0  0  0  0  0  0  0  0999 V2000
    9.5328   25.8533    2.7355 Ti  0  0  0  0  0  0  0  0  0  0  0  0
    7.0781   25.3939    3.5207 P   0  0  0  0  0  4  0  0  0  0  0  0
    9.9193   24.4680    3.6192 O   0  0  0  0  0  0  0  0  0  0  0  0
    8.7060   24.3939    1.2383 N   0  0  0  0  0  4  0  0  0  0  0  0
   11.3523   25.8666    1.4506 Cl  0  0  0  0  0  0  0  0  0  0  0  0
    8.4107   27.2961    1.4430 Cl  0  0  0  0  0  0  0  0  0  0  0  0
   10.1032   27.3598    4.2174 Cl  0  0  0  0  0  0  0  0  0  0  0  0
    6.3985   24.9177    1.8823 C   0  0  0  0  0  0  0  0  0  0  0  0
    5.0522   25.0182    1.5487 C   0  0  0  0  0  0  0  0  0  0  0  0
    4.6101   24.6480    0.2914 C   0  0  0  0  0  0  0  0  0  0  0  0
    5.5095   24.1804   -0.6522 C   0  0  0  0  0  0  0  0  0  0  0  0
    6.8531   24.0882   -0.3361 C   0  0  0  0  0  0  0  0  0  0  0  0
    7.5621   23.7535   -1.0812 H   0  0  0  0  0  0  0  0  0  0  0  0
    7.3044   24.4487    0.9280 C   0  0  0  0  0  0  0  0  0  0  0  0
    9.2539   23.0267    1.3633 C   0  0  0  0  0  0  0  0  0  0  0  0
    9.1699   22.4368    2.7511 C   0  0  0  0  0  0  0  0  0  0  0  0
    9.6434   23.1963    3.8350 C   0  0  0  0  0  0  0  0  0  0  0  0
    9.8272   22.5877    5.0929 C   0  0  0  0  0  0  0  0  0  0  0  0
    9.4452   21.2637    5.2263 C   0  0  0  0  0  0  0  0  0  0  0  0
    8.9075   20.5114    4.1848 C   0  0  0  0  0  0  0  0  0  0  0  0
    8.7999   21.1158    2.9404 C   0  0  0  0  0  0  0  0  0  0  0  0
   10.4877   23.3771    6.2163 C   0  0  0  0  0  0  0  0  0  0  0  0
    9.5829   24.5452    6.6295 C   0  0  0  0  0  0  0  0  0  0  0  0
   10.0772   25.1420    7.3930 H   0  0  0  0  0  0  0  0  0  0  0  0
    8.6483   24.1633    7.0346 H   0  0  0  0  0  0  0  0  0  0  0  0
    9.3632   25.1959    5.7799 H   0  0  0  0  0  0  0  0  0  0  0  0
   11.8391   23.9194    5.7232 C   0  0  0  0  0  0  0  0  0  0  0  0
   12.3580   24.4153    6.5405 H   0  0  0  0  0  0  0  0  0  0  0  0
   11.7050   24.6443    4.9191 H   0  0  0  0  0  0  0  0  0  0  0  0
   12.4631   23.1054    5.3583 H   0  0  0  0  0  0  0  0  0  0  0  0
   10.7483   22.5168    7.4574 C   0  0  0  0  0  0  0  0  0  0  0  0
   11.3998   21.6780    7.2233 H   0  0  0  0  0  0  0  0  0  0  0  0
    9.8184   22.1440    7.8811 H   0  0  0  0  0  0  0  0  0  0  0  0
   11.2402   23.1228    8.2149 H   0  0  0  0  0  0  0  0  0  0  0  0
    8.5681   19.0456    4.4123 C   0  0  0  0  0  0  0  0  0  0  0  0
    9.8866   18.2627    4.4982 C   0  0  0  0  0  0  0  0  0  0  0  0
    9.6876   17.2056    4.6605 H   0  0  0  0  0  0  0  0  0  0  0  0
   10.4996   18.6290    5.3176 H   0  0  0  0  0  0  0  0  0  0  0  0
   10.4525   18.3721    3.5758 H   0  0  0  0  0  0  0  0  0  0  0  0
    7.7261   18.4630    3.2727 C   0  0  0  0  0  0  0  0  0  0  0  0
    6.8293   19.0566    3.1116 H   0  0  0  0  0  0  0  0  0  0  0  0
    7.4238   17.4484    3.5232 H   0  0  0  0  0  0  0  0  0  0  0  0
    8.2924   18.4174    2.3460 H   0  0  0  0  0  0  0  0  0  0  0  0
    7.7852   18.8658    5.7199 C   0  0  0  0  0  0  0  0  0  0  0  0
    6.9125   19.5127    5.7301 H   0  0  0  0  0  0  0  0  0  0  0  0
    8.3941   19.0994    6.5880 H   0  0  0  0  0  0  0  0  0  0  0  0
    7.4561   17.8332    5.8154 H   0  0  0  0  0  0  0  0  0  0  0  0
    5.9870   26.7532    4.0692 C   0  0  0  0  0  0  0  0  0  0  0  0
    4.6703   26.5382    4.4754 C   0  0  0  0  0  0  0  0  0  0  0  0
    4.2648   25.5360    4.5027 H   0  0  0  0  0  0  0  0  0  0  0  0
    3.8862   27.6046    4.8747 C   0  0  0  0  0  0  0  0  0  0  0  0
    4.4073   28.8887    4.8871 C   0  0  0  0  0  0  0  0  0  0  0  0
    3.7895   29.7179    5.1984 H   0  0  0  0  0  0  0  0  0  0  0  0
    5.7240   29.1028    4.5164 C   0  0  0  0  0  0  0  0  0  0  0  0
    6.5146   28.0406    4.1130 C   0  0  0  0  0  0  0  0  0  0  0  0
    7.5487   28.2081    3.8381 H   0  0  0  0  0  0  0  0  0  0  0  0
    6.4158   24.0193    4.5303 C   0  0  0  0  0  0  0  0  0  0  0  0
    6.0843   22.7840    3.9862 C   0  0  0  0  0  0  0  0  0  0  0  0
    6.1853   22.6150    2.9236 H   0  0  0  0  0  0  0  0  0  0  0  0
    5.6052   21.7741    4.8008 C   0  0  0  0  0  0  0  0  0  0  0  0
    5.4739   21.9777    6.1639 C   0  0  0  0  0  0  0  0  0  0  0  0
    5.8189   23.2016    6.7146 C   0  0  0  0  0  0  0  0  0  0  0  0
    6.2866   24.2175    5.9034 C   0  0  0  0  0  0  0  0  0  0  0  0
    6.5395   25.1826    6.3229 H   0  0  0  0  0  0  0  0  0  0  0  0
    4.3505   25.4094    2.2688 H   0  0  0  0  0  0  0  0  0  0  0  0
    3.5636   24.7382    0.0427 H   0  0  0  0  0  0  0  0  0  0  0  0
    5.1685   23.9044   -1.6385 H   0  0  0  0  0  0  0  0  0  0  0  0
    8.7618   22.3496    0.6505 H   0  0  0  0  0  0  0  0  0  0  0  0
   10.3217   23.0898    1.1050 H   0  0  0  0  0  0  0  0  0  0  0  0
    9.5845   20.7838    6.1785 H   0  0  0  0  0  0  0  0  0  0  0  0
    8.4477   20.5607    2.0853 H   0  0  0  0  0  0  0  0  0  0  0  0
    2.8649   27.4318    5.1821 H   0  0  0  0  0  0  0  0  0  0  0  0
    6.1395   30.0988    4.5446 H   0  0  0  0  0  0  0  0  0  0  0  0
    5.3244   20.8265    4.3649 H   0  0  0  0  0  0  0  0  0  0  0  0
    5.0980   21.1878    6.7974 H   0  0  0  0  0  0  0  0  0  0  0  0
    5.7164   23.3645    7.7775 H   0  0  0  0  0  0  0  0  0  0  0  0
    9.2070   24.8504    0.4669 H   0  0  0  0  0  0  0  0  0  0  0  0
  1  2  1  0  0  0  0
  1  3  1  0  0  0  0
  1  7  1  0  0  0  0
  2 48  1  0  0  0  0
  2 57  1  0  0  0  0
  3 17  1  0  0  0  0
  4 15  1  0  0  0  0
  4  1  1  0  0  0  0
  5  1  1  0  0  0  0
  6  1  1  0  0  0  0
  8  2  1  0  0  0  0
  9  8  1  0  0  0  0
  9 65  1  0  0  0  0
 10  9  2  0  0  0  0
 11 12  2  0  0  0  0
 11 10  1  0  0  0  0
 12 14  1  0  0  0  0
 13 12  1  0  0  0  0
 14  4  1  0  0  0  0
 14  8  2  0  0  0  0
 15 16  1  0  0  0  0
 16 21  2  0  0  0  0
 16 17  1  0  0  0  0
 17 18  2  0  0  0  0
 18 19  1  0  0  0  0
 18 22  1  0  0  0  0
 19 70  1  0  0  0  0
 20 35  1  0  0  0  0
 20 19  2  0  0  0  0
 21 20  1  0  0  0  0
 22 23  1  0  0  0  0
 22 31  1  0  0  0  0
 23 25  1  0  0  0  0
 23 24  1  0  0  0  0
 26 23  1  0  0  0  0
 27 22  1  0  0  0  0
 27 28  1  0  0  0  0
 29 27  1  0  0  0  0
 30 27  1  0  0  0  0
 31 33  1  0  0  0  0
 31 34  1  0  0  0  0
 32 31  1  0  0  0  0
 35 36  1  0  0  0  0
 35 44  1  0  0  0  0
 36 37  1  0  0  0  0
 36 38  1  0  0  0  0
 39 36  1  0  0  0  0
 40 42  1  0  0  0  0
 40 35  1  0  0  0  0
 41 40  1  0  0  0  0
 43 40  1  0  0  0  0
 44 45  1  0  0  0  0
 44 47  1  0  0  0  0
 44 46  1  0  0  0  0
 48 55  2  0  0  0  0
 48 49  1  0  0  0  0
 49 50  1  0  0  0  0
 49 51  2  0  0  0  0
 51 52  1  0  0  0  0
 51 72  1  0  0  0  0
 52 53  1  0  0  0  0
 54 73  1  0  0  0  0
 54 52  2  0  0  0  0
 55 54  1  0  0  0  0
 56 55  1  0  0  0  0
 57 63  1  0  0  0  0
 58 57  2  0  0  0  0
 58 60  1  0  0  0  0
 59 58  1  0  0  0  0
 60 61  2  0  0  0  0
 61 62  1  0  0  0  0
 61 75  1  0  0  0  0
 62 76  1  0  0  0  0
 63 64  1  0  0  0  0
 63 62  2  0  0  0  0
 66 10  1  0  0  0  0
 67 11  1  0  0  0  0
 68 15  1  0  0  0  0
 69 15  1  0  0  0  0
 71 21  1  0  0  0  0
 74 60  1  0  0  0  0
 77  4  1  0  0  0  0
M  END
$$$$
