CSD_code = AXUTIW | q = 0 | S = 0 | Stoichiometry = C31H26ClIrOP2 | MND = 7
 OpenBabel04212202003D

 62 67  0  0  0  0  0  0  0  0999 V2000
    6.8053    6.5545    4.4101 Ir  0  0  0  0  0  0  0  0  0  0  0  0
    9.0230    5.7700    4.7627 P   0  0  0  0  0  4  0  0  0  0  0  0
    6.6534    4.2785    4.8095 P   0  0  0  0  0  4  0  0  0  0  0  0
    7.3336    8.7663    4.5715 Cl  0  0  0  0  0  0  0  0  0  0  0  0
    6.0215    6.1951    1.4127 C   0  0  0  0  0  2  0  0  0  0  0  0
   10.0492    5.9903    6.2511 C   0  0  0  0  0  0  0  0  0  0  0  0
    8.4904    3.9727    4.7104 C   0  0  0  0  0  0  0  0  0  0  0  0
    8.7231    3.5613    3.7236 H   0  0  0  0  0  0  0  0  0  0  0  0
    8.8789    3.3179    5.4922 H   0  0  0  0  0  0  0  0  0  0  0  0
   10.3030    5.8697    3.4728 C   0  0  0  0  0  0  0  0  0  0  0  0
    6.6453    6.1843    2.4506 C   0  0  0  0  0  2  0  0  0  0  0  0
    3.6850    6.0196    1.0335 O   0  0  0  0  0  0  0  0  0  0  0  0
    5.8791    2.9716    3.8200 C   0  0  0  0  0  0  0  0  0  0  0  0
    4.8543    3.3215    2.9484 C   0  0  0  0  0  0  0  0  0  0  0  0
    4.5593    4.3579    2.8728 H   0  0  0  0  0  0  0  0  0  0  0  0
   10.1210    6.7834    2.4423 C   0  0  0  0  0  0  0  0  0  0  0  0
    9.2293    7.3952    2.4257 H   0  0  0  0  0  0  0  0  0  0  0  0
   12.2077    6.0969    1.4807 C   0  0  0  0  0  0  0  0  0  0  0  0
   12.9540    6.1839    0.7048 H   0  0  0  0  0  0  0  0  0  0  0  0
    4.8951    6.9709    3.9808 C   0  0  0  0  0  2  0  0  0  0  0  0
   10.6797    4.9791    6.9666 C   0  0  0  0  0  0  0  0  0  0  0  0
   10.5833    3.9441    6.6674 H   0  0  0  0  0  0  0  0  0  0  0  0
   11.4408    5.0702    3.5084 C   0  0  0  0  0  0  0  0  0  0  0  0
   11.5836    4.3651    4.3162 H   0  0  0  0  0  0  0  0  0  0  0  0
    6.2915    1.6466    3.9289 C   0  0  0  0  0  0  0  0  0  0  0  0
    7.0839    1.3811    4.6166 H   0  0  0  0  0  0  0  0  0  0  0  0
    3.1998    7.0096    1.9437 C   0  0  0  0  0  0  0  0  0  0  0  0
    2.1691    6.7035    2.1519 H   0  0  0  0  0  0  0  0  0  0  0  0
    3.1942    7.9976    1.4561 H   0  0  0  0  0  0  0  0  0  0  0  0
    4.0118    7.0668    3.1562 C   0  0  0  0  0  2  0  0  0  0  0  0
   11.4368    5.2965    8.0804 C   0  0  0  0  0  0  0  0  0  0  0  0
   11.9251    4.5090    8.6363 H   0  0  0  0  0  0  0  0  0  0  0  0
   10.1797    7.3153    6.6628 C   0  0  0  0  0  0  0  0  0  0  0  0
    9.6691    8.0925    6.1068 H   0  0  0  0  0  0  0  0  0  0  0  0
    7.0502    4.2956    7.5552 C   0  0  0  0  0  0  0  0  0  0  0  0
    7.9211    4.9015    7.3332 H   0  0  0  0  0  0  0  0  0  0  0  0
    6.2552    3.8099    6.5199 C   0  0  0  0  0  0  0  0  0  0  0  0
   11.0765    6.8947    1.4473 C   0  0  0  0  0  0  0  0  0  0  0  0
   10.9373    7.6046    0.6460 H   0  0  0  0  0  0  0  0  0  0  0  0
    4.9469    6.2564    0.4236 C   0  0  0  0  0  0  0  0  0  0  0  0
    4.9583    7.2447   -0.0632 H   0  0  0  0  0  0  0  0  0  0  0  0
    5.0397    5.4745   -0.3373 H   0  0  0  0  0  0  0  0  0  0  0  0
   11.5697    6.6152    8.4835 C   0  0  0  0  0  0  0  0  0  0  0  0
   12.1614    6.8535    9.3549 H   0  0  0  0  0  0  0  0  0  0  0  0
   12.3885    5.1845    2.5095 C   0  0  0  0  0  0  0  0  0  0  0  0
   13.2726    4.5639    2.5327 H   0  0  0  0  0  0  0  0  0  0  0  0
    4.7994    2.7920    8.1355 C   0  0  0  0  0  0  0  0  0  0  0  0
    3.9163    2.2139    8.3638 H   0  0  0  0  0  0  0  0  0  0  0  0
    5.6779    0.6752    3.1608 C   0  0  0  0  0  0  0  0  0  0  0  0
    5.9941   -0.3549    3.2411 H   0  0  0  0  0  0  0  0  0  0  0  0
    4.2464    2.3414    2.1830 C   0  0  0  0  0  0  0  0  0  0  0  0
    3.4545    2.6136    1.5022 H   0  0  0  0  0  0  0  0  0  0  0  0
    5.1139    3.0723    6.8180 C   0  0  0  0  0  0  0  0  0  0  0  0
    4.4807    2.7213    6.0155 H   0  0  0  0  0  0  0  0  0  0  0  0
    4.6573    1.0225    2.2880 C   0  0  0  0  0  0  0  0  0  0  0  0
    4.1839    0.2585    1.6889 H   0  0  0  0  0  0  0  0  0  0  0  0
    5.6088    3.2542    9.1607 C   0  0  0  0  0  0  0  0  0  0  0  0
    5.3594    3.0333   10.1878 H   0  0  0  0  0  0  0  0  0  0  0  0
    6.7327    4.0109    8.8693 C   0  0  0  0  0  0  0  0  0  0  0  0
    7.3586    4.3849    9.6665 H   0  0  0  0  0  0  0  0  0  0  0  0
   10.9410    7.6258    7.7735 C   0  0  0  0  0  0  0  0  0  0  0  0
   11.0397    8.6535    8.0898 H   0  0  0  0  0  0  0  0  0  0  0  0
  1  4  1  0  0  0  0
  1  2  1  0  0  0  0
  1  3  1  0  0  0  0
  2  6  1  0  0  0  0
  3 37  1  0  0  0  0
  5 11  1  0  0  0  0
  6 33  2  0  0  0  0
  6 21  1  0  0  0  0
  7  2  1  0  0  0  0
  7  3  1  0  0  0  0
  7  9  1  0  0  0  0
  8  7  1  0  0  0  0
 10 23  1  0  0  0  0
 10  2  1  0  0  0  0
 11  1  1  0  0  0  0
 12 27  1  0  0  0  0
 13 25  1  0  0  0  0
 13  3  1  0  0  0  0
 14 13  2  0  0  0  0
 15 14  1  0  0  0  0
 16 10  2  0  0  0  0
 17 16  1  0  0  0  0
 18 45  1  0  0  0  0
 19 18  1  0  0  0  0
 20  1  1  0  0  0  0
 21 31  2  0  0  0  0
 22 21  1  0  0  0  0
 23 24  1  0  0  0  0
 25 26  1  0  0  0  0
 27 28  1  0  0  0  0
 27 30  1  0  0  0  0
 29 27  1  0  0  0  0
 30 20  1  0  0  0  0
 31 43  1  0  0  0  0
 31 32  1  0  0  0  0
 33 61  1  0  0  0  0
 34 33  1  0  0  0  0
 35 59  1  0  0  0  0
 36 35  1  0  0  0  0
 37 53  1  0  0  0  0
 37 35  2  0  0  0  0
 38 18  2  0  0  0  0
 38 16  1  0  0  0  0
 39 38  1  0  0  0  0
 40 12  1  0  0  0  0
 40  5  1  0  0  0  0
 41 40  1  0  0  0  0
 42 40  1  0  0  0  0
 43 44  1  0  0  0  0
 45 46  1  0  0  0  0
 45 23  2  0  0  0  0
 47 48  1  0  0  0  0
 47 57  1  0  0  0  0
 49 50  1  0  0  0  0
 49 25  2  0  0  0  0
 51 55  2  0  0  0  0
 51 14  1  0  0  0  0
 52 51  1  0  0  0  0
 53 47  2  0  0  0  0
 54 53  1  0  0  0  0
 55 49  1  0  0  0  0
 56 55  1  0  0  0  0
 57 58  1  0  0  0  0
 59 57  2  0  0  0  0
 59 60  1  0  0  0  0
 61 62  1  0  0  0  0
 61 43  2  0  0  0  0
M  END
$$$$
