CSD_code = AXUTES | q = 0 | S = 0 | Stoichiometry = C35H33Cl2N2PPt | MND = 4
 OpenBabel04212202003D

 74 79  0  0  0  0  0  0  0  0999 V2000
    0.5759   10.6885    1.4510 Pt  0  0  1  0  0  0  0  0  0  0  0  0
    0.6203   11.3011   -0.8448 Cl  0  0  0  0  0  0  0  0  0  0  0  0
   -2.8288    7.6866   -0.7461 Cl  0  0  0  0  0  0  0  0  0  0  0  0
    2.8280   10.7794    1.5696 P   0  0  0  0  0  4  0  0  0  0  0  0
   -1.3950   10.7061    1.3577 N   0  0  0  0  0  0  0  0  0  0  0  0
   -3.3493   11.5450    3.2945 N   0  0  0  0  0  0  0  0  0  0  0  0
    0.3620   10.1567    3.3808 C   0  0  0  0  0  0  0  0  0  0  0  0
    0.7532   10.9425    4.4613 C   0  0  0  0  0  0  0  0  0  0  0  0
    1.2476   11.8914    4.2840 H   0  0  0  0  0  0  0  0  0  0  0  0
    0.5488   10.5305    5.7677 C   0  0  0  0  0  0  0  0  0  0  0  0
    0.8707   11.1562    6.5882 H   0  0  0  0  0  0  0  0  0  0  0  0
   -0.0651    9.3156    6.0207 C   0  0  0  0  0  0  0  0  0  0  0  0
   -0.2340    8.9914    7.0372 H   0  0  0  0  0  0  0  0  0  0  0  0
   -0.4517    8.5129    4.9642 C   0  0  0  0  0  0  0  0  0  0  0  0
   -0.9329    7.5632    5.1543 H   0  0  0  0  0  0  0  0  0  0  0  0
   -0.2450    8.9253    3.6500 C   0  0  0  0  0  0  0  0  0  0  0  0
   -0.5832    7.9863    2.5578 C   0  0  0  0  0  0  0  0  0  0  0  0
   -0.0634    6.6954    2.6326 C   0  0  0  0  0  0  0  0  0  0  0  0
    0.5945    6.4514    3.4537 H   0  0  0  0  0  0  0  0  0  0  0  0
   -0.3625    5.7399    1.6806 C   0  0  0  0  0  0  0  0  0  0  0  0
    0.0659    4.7514    1.7495 H   0  0  0  0  0  0  0  0  0  0  0  0
   -1.2190    6.0454    0.6371 C   0  0  0  0  0  0  0  0  0  0  0  0
   -1.4689    5.3103   -0.1113 H   0  0  0  0  0  0  0  0  0  0  0  0
   -1.7587    7.3161    0.5633 C   0  0  0  0  0  0  0  0  0  0  0  0
   -1.4421    8.3116    1.4931 C   0  0  0  0  0  0  0  0  0  0  0  0
   -2.0647    9.6269    1.3374 C   0  0  0  0  0  0  0  0  0  0  0  0
   -3.1359    9.6422    1.1345 H   0  0  0  0  0  0  0  0  0  0  0  0
   -2.0738   11.9685    1.2522 C   0  0  0  0  0  0  0  0  0  0  0  0
   -2.9994   11.8634    0.6741 H   0  0  0  0  0  0  0  0  0  0  0  0
   -1.4149   12.6840    0.7509 H   0  0  0  0  0  0  0  0  0  0  0  0
   -2.4050   12.4554    2.6754 C   0  0  0  0  0  0  0  0  0  0  0  0
   -1.4793   12.4596    3.2577 H   0  0  0  0  0  0  0  0  0  0  0  0
   -2.7880   13.4859    2.6229 H   0  0  0  0  0  0  0  0  0  0  0  0
   -3.1276   11.3574    4.7121 C   0  0  0  0  0  0  0  0  0  0  0  0
   -3.8054   10.5848    5.0730 H   0  0  0  0  0  0  0  0  0  0  0  0
   -3.3022   12.2737    5.2969 H   0  0  0  0  0  0  0  0  0  0  0  0
   -2.1059   11.0217    4.8768 H   0  0  0  0  0  0  0  0  0  0  0  0
   -4.7247   11.8963    3.0128 C   0  0  0  0  0  0  0  0  0  0  0  0
   -5.3758   11.1020    3.3753 H   0  0  0  0  0  0  0  0  0  0  0  0
   -4.8684   11.9955    1.9382 H   0  0  0  0  0  0  0  0  0  0  0  0
   -5.0262   12.8414    3.4918 H   0  0  0  0  0  0  0  0  0  0  0  0
    3.3227   12.5240    1.6504 C   0  0  0  0  0  0  0  0  0  0  0  0
    4.6431   12.9423    1.5181 C   0  0  0  0  0  0  0  0  0  0  0  0
    5.4240   12.2120    1.3533 H   0  0  0  0  0  0  0  0  0  0  0  0
    4.9459   14.2902    1.5862 C   0  0  0  0  0  0  0  0  0  0  0  0
    3.9383   15.2224    1.7806 C   0  0  0  0  0  0  0  0  0  0  0  0
    2.6211   14.8098    1.9040 C   0  0  0  0  0  0  0  0  0  0  0  0
    1.8373   15.5397    2.0439 H   0  0  0  0  0  0  0  0  0  0  0  0
    2.3144   13.4632    1.8388 C   0  0  0  0  0  0  0  0  0  0  0  0
    1.2848   13.1115    1.9109 H   0  0  0  0  0  0  0  0  0  0  0  0
    3.5049   10.0209    3.0808 C   0  0  0  0  0  0  0  0  0  0  0  0
    3.1171    8.7039    3.3203 C   0  0  0  0  0  0  0  0  0  0  0  0
    2.4921    8.2040    2.5894 H   0  0  0  0  0  0  0  0  0  0  0  0
    3.5083    8.0604    4.4769 C   0  0  0  0  0  0  0  0  0  0  0  0
    3.2061    7.0396    4.6600 H   0  0  0  0  0  0  0  0  0  0  0  0
    4.2817    8.7323    5.4113 C   0  0  0  0  0  0  0  0  0  0  0  0
    4.5795    8.2354    6.3228 H   0  0  0  0  0  0  0  0  0  0  0  0
    4.6643   10.0418    5.1804 C   0  0  0  0  0  0  0  0  0  0  0  0
    4.2780   10.6890    4.0182 C   0  0  0  0  0  0  0  0  0  0  0  0
    4.5694   11.7156    3.8480 H   0  0  0  0  0  0  0  0  0  0  0  0
    3.9114   10.1398    0.2538 C   0  0  0  0  0  0  0  0  0  0  0  0
    3.9097   10.8185   -0.9632 C   0  0  0  0  0  0  0  0  0  0  0  0
    3.2767   11.6853   -1.0867 H   0  0  0  0  0  0  0  0  0  0  0  0
    4.6938   10.3682   -2.0079 C   0  0  0  0  0  0  0  0  0  0  0  0
    4.6851   10.8947   -2.9508 H   0  0  0  0  0  0  0  0  0  0  0  0
    5.4847    9.2412   -1.8486 C   0  0  0  0  0  0  0  0  0  0  0  0
    5.4879    8.5644   -0.6406 C   0  0  0  0  0  0  0  0  0  0  0  0
    4.7026    9.0072    0.4096 C   0  0  0  0  0  0  0  0  0  0  0  0
    4.7112    8.4750    1.3503 H   0  0  0  0  0  0  0  0  0  0  0  0
    4.1809   16.2738    1.8275 H   0  0  0  0  0  0  0  0  0  0  0  0
    6.0964    8.8890   -2.6663 H   0  0  0  0  0  0  0  0  0  0  0  0
    6.1034    7.6853   -0.5141 H   0  0  0  0  0  0  0  0  0  0  0  0
    5.2618   10.5663    5.9119 H   0  0  0  0  0  0  0  0  0  0  0  0
    5.9703   14.6174    1.4821 H   0  0  0  0  0  0  0  0  0  0  0  0
  1  2  1  6  0  0  0
  1  4  1  0  0  0  0
  1  7  2  0  0  0  0
  3 24  1  0  0  0  0
  4 42  1  0  0  0  0
  4 51  1  0  0  0  0
  5  1  1  0  0  0  0
  6 34  1  0  0  0  0
  7 16  1  0  0  0  0
  7  8  1  0  0  0  0
  8 10  2  0  0  0  0
  9  8  1  0  0  0  0
 10 12  1  0  0  0  0
 10 11  1  0  0  0  0
 12 13  1  0  0  0  0
 14 15  1  0  0  0  0
 14 12  2  0  0  0  0
 16 14  1  0  0  0  0
 17 18  1  0  0  0  0
 17 16  2  0  0  0  0
 18 19  1  0  0  0  0
 20 21  1  0  0  0  0
 20 18  2  0  0  0  0
 22 20  1  0  0  0  0
 23 22  1  0  0  0  0
 24 22  2  0  0  0  0
 24 25  1  0  0  0  0
 25 17  1  0  0  0  0
 26  5  1  0  0  0  0
 26 25  2  0  0  0  0
 27 26  1  0  0  0  0
 28  5  1  0  0  0  0
 28 31  1  0  0  0  0
 29 28  1  0  0  0  0
 30 28  1  0  0  0  0
 31 32  1  0  0  0  0
 31  6  1  0  0  0  0
 33 31  1  0  0  0  0
 34 37  1  0  0  0  0
 34 35  1  0  0  0  0
 34 36  1  0  0  0  0
 38  6  1  0  0  0  0
 38 39  1  0  0  0  0
 38 41  1  0  0  0  0
 40 38  1  0  0  0  0
 42 49  1  0  0  0  0
 43 45  1  0  0  0  0
 43 42  2  0  0  0  0
 44 43  1  0  0  0  0
 45 46  2  0  0  0  0
 46 70  1  0  0  0  0
 46 47  1  0  0  0  0
 47 48  1  0  0  0  0
 49 47  2  0  0  0  0
 49 50  1  0  0  0  0
 51 52  2  0  0  0  0
 51 59  1  0  0  0  0
 52 54  1  0  0  0  0
 53 52  1  0  0  0  0
 54 55  1  0  0  0  0
 54 56  2  0  0  0  0
 56 57  1  0  0  0  0
 58 56  1  0  0  0  0
 58 73  1  0  0  0  0
 59 58  2  0  0  0  0
 60 59  1  0  0  0  0
 61 68  1  0  0  0  0
 61  4  1  0  0  0  0
 62 61  2  0  0  0  0
 63 62  1  0  0  0  0
 64 66  2  0  0  0  0
 64 62  1  0  0  0  0
 65 64  1  0  0  0  0
 66 67  1  0  0  0  0
 67 72  1  0  0  0  0
 67 68  2  0  0  0  0
 68 69  1  0  0  0  0
 71 66  1  0  0  0  0
 74 45  1  0  0  0  0
M  END
$$$$
