CSD_code = AYACAF | q = 0 | S = 0 | Stoichiometry = C20H21Cl2N3Pd | MND = 4
 OpenBabel04212202003D

 47 52  0  0  1  0  0  0  0  0999 V2000
    3.1503    7.5947   14.2062 Pd  0  0  0  0  0  0  0  0  0  0  0  0
    4.5797    8.5713   15.5795 Cl  0  0  0  0  0  0  0  0  0  0  0  0
    1.9848    6.9747   15.9934 Cl  0  0  0  0  0  0  0  0  0  0  0  0
    1.9822    6.6231   12.8048 N   0  0  0  0  0  0  0  0  0  0  0  0
    4.3253    7.7378   12.5250 N   0  0  0  0  0  0  0  0  0  0  0  0
    3.9845    6.7140   11.6876 N   0  0  0  0  0  0  0  0  0  0  0  0
    2.7384    6.1192   11.8390 C   0  0  0  0  0  0  0  0  0  0  0  0
    2.3122    5.0719   11.0073 C   0  0  0  0  0  0  0  0  0  0  0  0
    2.9836    4.6755   10.2649 H   0  0  0  0  0  0  0  0  0  0  0  0
    1.0610    4.5317   11.1780 C   0  0  0  0  0  0  0  0  0  0  0  0
    0.1951    5.1285   12.1362 C   0  0  0  0  0  0  0  0  0  0  0  0
    0.6943    6.2087   12.9153 C   0  0  0  0  0  0  0  0  0  0  0  0
   -0.1670    6.9007   13.7866 C   0  0  0  0  0  0  0  0  0  0  0  0
    0.2225    7.7662   14.3098 H   0  0  0  0  0  0  0  0  0  0  0  0
   -1.4594    6.4793   13.9520 C   0  0  0  0  0  0  0  0  0  0  0  0
   -2.1164    7.0062   14.6260 H   0  0  0  0  0  0  0  0  0  0  0  0
   -1.9372    5.3687   13.2450 C   0  0  0  0  0  0  0  0  0  0  0  0
   -2.9542    5.0393   13.3960 H   0  0  0  0  0  0  0  0  0  0  0  0
   -1.1362    4.7184   12.3439 C   0  0  0  0  0  3  0  0  0  0  0  0
   -1.5282    3.8897   11.7758 H   0  0  0  0  0  0  0  0  0  0  0  0
    0.6191    3.3655   10.3565 C   0  0  0  0  0  0  0  0  0  0  0  0
   -0.2542    3.6274    9.7606 H   0  0  0  0  0  0  0  0  0  0  0  0
    0.3483    2.5311   11.0015 H   0  0  0  0  0  0  0  0  0  0  0  0
    1.4129    3.0442    9.6872 H   0  0  0  0  0  0  0  0  0  0  0  0
    4.9598    6.5672   10.7563 C   0  0  1  0  0  3  0  0  0  0  0  0
    5.9299    7.5117   11.0162 C   0  0  0  0  0  0  0  0  0  0  0  0
    5.4959    8.2348   12.1415 C   0  0  0  0  0  0  0  0  0  0  0  0
    5.2668    5.7042    9.5804 C   0  0  0  0  0  0  0  0  0  0  0  0
    4.5027    5.7673    8.8010 H   0  0  0  0  0  0  0  0  0  0  0  0
    5.3872    4.6550    9.8631 H   0  0  0  0  0  0  0  0  0  0  0  0
    6.5977    6.2943    9.1064 C   0  0  2  0  0  0  0  0  0  0  0  0
    7.3247    5.5917    8.7256 H   0  0  0  0  0  0  0  0  0  0  0  0
    7.0139    7.4369   10.0262 C   0  0  1  0  0  0  0  0  0  0  0  0
    8.0338    7.5930   10.3428 H   0  0  0  0  0  0  0  0  0  0  0  0
    6.6328    7.7055    8.5849 C   0  0  0  0  0  0  0  0  0  0  0  0
    7.7775    8.0404    7.6522 C   0  0  0  0  0  0  0  0  0  0  0  0
    8.0141    9.1015    7.7093 H   0  0  0  0  0  0  0  0  0  0  0  0
    7.5058    7.8070    6.6240 H   0  0  0  0  0  0  0  0  0  0  0  0
    8.6702    7.4756    7.9087 H   0  0  0  0  0  0  0  0  0  0  0  0
    5.3631    8.4441    8.2310 C   0  0  0  0  0  0  0  0  0  0  0  0
    4.5928    8.3265    8.9873 H   0  0  0  0  0  0  0  0  0  0  0  0
    4.9739    8.0814    7.2803 H   0  0  0  0  0  0  0  0  0  0  0  0
    5.5738    9.5068    8.1271 H   0  0  0  0  0  0  0  0  0  0  0  0
    6.1427    9.3708   12.8355 C   0  0  0  0  0  0  0  0  0  0  0  0
    5.3828   10.0219   13.2645 H   0  0  0  0  0  0  0  0  0  0  0  0
    6.7760    9.9230   12.1462 H   0  0  0  0  0  0  0  0  0  0  0  0
    6.7495    9.0025   13.6621 H   0  0  0  0  0  0  0  0  0  0  0  0
  1  2  1  0  0  0  0
  1  3  1  0  0  0  0
  4 12  1  0  0  0  0
  4  1  1  0  0  0  0
  5  1  1  0  0  0  0
  6  7  1  0  0  0  0
  6  5  1  0  0  0  0
  7  4  1  0  0  0  0
  8 10  1  0  0  0  0
  8  7  2  0  0  0  0
  9  8  1  0  0  0  0
 10 11  2  0  0  0  0
 11 19  1  0  0  0  0
 11 12  1  0  0  0  0
 12 13  2  0  0  0  0
 13 15  1  0  0  0  0
 13 14  1  0  0  0  0
 15 16  1  0  0  0  0
 17 18  1  0  0  0  0
 17 15  2  0  0  0  0
 19 17  1  0  0  0  0
 20 19  1  0  0  0  0
 21 23  1  0  0  0  0
 21 10  1  0  0  0  0
 22 21  1  0  0  0  0
 24 21  1  0  0  0  0
 25 26  1  1  0  0  0
 25  6  1  0  0  0  0
 26 27  2  0  0  0  0
 27  5  1  0  0  0  0
 27 44  1  0  0  0  0
 28 30  1  0  0  0  0
 28 25  1  0  0  0  0
 29 28  1  0  0  0  0
 31 32  1  6  0  0  0
 31 28  1  0  0  0  0
 31 33  1  0  0  0  0
 33 34  1  1  0  0  0
 33 26  1  0  0  0  0
 35 31  1  0  0  0  0
 35 33  1  0  0  0  0
 36 37  1  0  0  0  0
 36 39  1  0  0  0  0
 36 35  1  0  0  0  0
 38 36  1  0  0  0  0
 40 35  1  0  0  0  0
 40 41  1  0  0  0  0
 42 40  1  0  0  0  0
 43 40  1  0  0  0  0
 44 45  1  0  0  0  0
 44 47  1  0  0  0  0
 46 44  1  0  0  0  0
M  END
$$$$
