CSD_code = AYADAF | q = 0 | S = 0 | Stoichiometry = C16H16ClN5NiS | MND = 4
 OpenBabel04212202003D

 40 44  0  0  0  0  0  0  0  0999 V2000
   -0.8330    9.4034    3.2369 Ni  0  0  1  0  0  0  0  0  0  0  0  0
    0.7667    9.6278    4.7124 S   0  0  0  0  0  0  0  0  0  0  0  0
   -1.0066   11.3841    2.9308 Cl  0  0  0  0  0  0  0  0  0  0  0  0
   -2.2505    8.8615    1.9448 N   0  0  0  0  0  0  0  0  0  0  0  0
   -0.3726    4.7118    3.0288 N   0  0  0  0  0  0  0  0  0  0  0  0
   -0.6909    7.5811    3.5169 N   0  0  0  0  0  0  0  0  0  0  0  0
    0.1237    7.0470    4.4022 N   0  0  0  0  0  0  0  0  0  0  0  0
    1.7675    7.4951    5.9265 N   0  0  0  0  0  0  0  0  0  0  0  0
   -2.9830    9.6063    1.1289 C   0  0  0  0  0  0  0  0  0  0  0  0
   -3.8557    9.0603    0.2020 C   0  0  0  0  0  0  0  0  0  0  0  0
   -3.9474    7.6779    0.1061 C   0  0  0  0  0  0  0  0  0  0  0  0
   -3.1882    6.8946    0.9516 C   0  0  0  0  0  0  0  0  0  0  0  0
   -2.3518    7.5105    1.8881 C   0  0  0  0  0  0  0  0  0  0  0  0
   -1.5029    6.8094    2.8215 C   0  0  0  0  0  0  0  0  0  0  0  0
   -1.5384    5.3497    3.0046 C   0  0  0  0  0  0  0  0  0  0  0  0
   -2.7548    4.6843    3.1820 C   0  0  0  0  0  0  0  0  0  0  0  0
   -2.7384    3.3141    3.3706 C   0  0  0  0  0  0  0  0  0  0  0  0
   -1.5200    2.6523    3.3817 C   0  0  0  0  0  0  0  0  0  0  0  0
   -0.3683    3.4072    3.2122 C   0  0  0  0  0  0  0  0  0  0  0  0
    0.8871    7.9238    5.0313 C   0  0  0  0  0  0  0  0  0  0  0  0
    2.6755    8.3610    6.6454 C   0  0  0  0  0  0  0  0  0  0  0  0
    3.3715    7.4221    7.6282 C   0  0  0  0  0  0  0  0  0  0  0  0
    3.3454    6.0787    6.8984 C   0  0  0  0  0  0  0  0  0  0  0  0
    1.9764    6.0929    6.2253 C   0  0  0  0  0  0  0  0  0  0  0  0
   -2.8594   10.6778    1.2255 H   0  0  0  0  0  0  0  0  0  0  0  0
   -4.4371    9.7047   -0.4367 H   0  0  0  0  0  0  0  0  0  0  0  0
   -4.5991    7.2192   -0.6225 H   0  0  0  0  0  0  0  0  0  0  0  0
   -3.2176    5.8186    0.8888 H   0  0  0  0  0  0  0  0  0  0  0  0
   -3.6824    5.2362    3.1991 H   0  0  0  0  0  0  0  0  0  0  0  0
   -3.6621    2.7714    3.5131 H   0  0  0  0  0  0  0  0  0  0  0  0
   -1.4653    1.5845    3.5245 H   0  0  0  0  0  0  0  0  0  0  0  0
    0.6099    2.9434    3.2188 H   0  0  0  0  0  0  0  0  0  0  0  0
    2.1255    9.1693    7.1340 H   0  0  0  0  0  0  0  0  0  0  0  0
    3.3854    8.8150    5.9443 H   0  0  0  0  0  0  0  0  0  0  0  0
    2.7976    7.3547    8.5529 H   0  0  0  0  0  0  0  0  0  0  0  0
    4.3795    7.7523    7.8674 H   0  0  0  0  0  0  0  0  0  0  0  0
    3.4686    5.2322    7.5699 H   0  0  0  0  0  0  0  0  0  0  0  0
    4.1326    6.0470    6.1447 H   0  0  0  0  0  0  0  0  0  0  0  0
    1.1934    5.7410    6.9071 H   0  0  0  0  0  0  0  0  0  0  0  0
    1.9195    5.5052    5.3081 H   0  0  0  0  0  0  0  0  0  0  0  0
  1  3  1  1  0  0  0
  1  6  1  0  0  0  0
  1  2  1  0  0  0  0
  2 20  1  0  0  0  0
  4  1  1  0  0  0  0
  5 19  1  0  0  0  0
  6  7  1  0  0  0  0
  7 20  2  0  0  0  0
  8 24  1  0  0  0  0
  8 21  1  0  0  0  0
  9 25  1  0  0  0  0
  9  4  1  0  0  0  0
 10  9  2  0  0  0  0
 11 10  1  0  0  0  0
 11 12  2  0  0  0  0
 12 13  1  0  0  0  0
 13  4  1  0  0  0  0
 13 14  2  0  0  0  0
 14 15  1  0  0  0  0
 14  6  1  0  0  0  0
 15  5  2  0  0  0  0
 15 16  1  0  0  0  0
 16 29  1  0  0  0  0
 16 17  2  0  0  0  0
 17 18  1  0  0  0  0
 17 30  1  0  0  0  0
 18 31  1  0  0  0  0
 19 32  1  0  0  0  0
 19 18  2  0  0  0  0
 20  8  1  0  0  0  0
 21 33  1  0  0  0  0
 21 22  1  0  0  0  0
 22 36  1  0  0  0  0
 22 35  1  0  0  0  0
 23 37  1  0  0  0  0
 23 22  1  0  0  0  0
 24 23  1  0  0  0  0
 24 39  1  0  0  0  0
 26 10  1  0  0  0  0
 27 11  1  0  0  0  0
 28 12  1  0  0  0  0
 34 21  1  0  0  0  0
 38 23  1  0  0  0  0
 40 24  1  0  0  0  0
M  END
$$$$
