CSD_code = AYEMAS | q = 1 | S = 0 | Stoichiometry = C43H35ClNOP2Pd(1+) | MND = 4
 OpenBabel04212202003D

 84 91  0  0  0  0  0  0  0  0999 V2000
    2.0892    1.3671    3.1542 Pd  0  0  0  0  0  0  0  0  0  0  0  0
    1.8006    1.0923    5.3672 Cl  0  0  0  0  0  0  0  0  0  0  0  0
    2.8993   -0.7693    3.0902 P   0  0  0  0  0  4  0  0  0  0  0  0
    1.2892    3.4588    3.5193 P   0  0  0  0  0  4  0  0  0  0  0  0
    1.3587    1.0610    0.4633 O   0  0  0  0  0  0  0  0  0  0  0  0
    3.3458    1.9329    0.4798 N   0  0  0  0  0  0  0  0  0  0  0  0
    4.1998    2.3441    0.8278 H   0  0  0  0  0  0  0  0  0  0  0  0
    2.3119    1.5435    1.2377 C   0  0  0  0  0  0  0  0  0  0  0  0
    1.7791    1.1212   -0.8388 C   0  0  0  0  0  0  0  0  0  0  0  0
    3.0612    1.6795   -0.8527 C   0  0  0  0  0  0  0  0  0  0  0  0
    3.7616    1.8520   -2.0323 C   0  0  0  0  0  0  0  0  0  0  0  0
    4.7507    2.2792   -2.0465 H   0  0  0  0  0  0  0  0  0  0  0  0
    3.1263    1.4440   -3.1920 C   0  0  0  0  0  0  0  0  0  0  0  0
    3.6353    1.5566   -4.1361 H   0  0  0  0  0  0  0  0  0  0  0  0
    1.8472    0.8920   -3.1749 C   0  0  0  0  0  0  0  0  0  0  0  0
    1.3946    0.5905   -4.1060 H   0  0  0  0  0  0  0  0  0  0  0  0
    1.1414    0.7186   -1.9963 C   0  0  0  0  0  0  0  0  0  0  0  0
    0.1531    0.2914   -1.9751 H   0  0  0  0  0  0  0  0  0  0  0  0
    3.5327   -1.2499    1.4511 C   0  0  0  0  0  0  0  0  0  0  0  0
    4.8370   -0.9697    1.0564 C   0  0  0  0  0  0  0  0  0  0  0  0
    5.5432   -0.5751    1.7751 H   0  0  0  0  0  0  0  0  0  0  0  0
    5.2312   -1.2102   -0.2485 C   0  0  0  0  0  0  0  0  0  0  0  0
    6.2470   -1.0010   -0.5486 H   0  0  0  0  0  0  0  0  0  0  0  0
    4.3282   -1.7197   -1.1673 C   0  0  0  0  0  0  0  0  0  0  0  0
    4.6382   -1.9036   -2.1842 H   0  0  0  0  0  0  0  0  0  0  0  0
    3.0269   -1.9986   -0.7791 C   0  0  0  0  0  0  0  0  0  0  0  0
    2.3242   -2.4004   -1.4931 H   0  0  0  0  0  0  0  0  0  0  0  0
    2.6275   -1.7601    0.5224 C   0  0  0  0  0  0  0  0  0  0  0  0
    1.6108   -1.9682    0.8317 H   0  0  0  0  0  0  0  0  0  0  0  0
    4.3713   -0.6760    4.1489 C   0  0  0  0  0  0  0  0  0  0  0  0
    5.0057    0.5668    4.2041 C   0  0  0  0  0  0  0  0  0  0  0  0
    4.5995    1.4069    3.6191 H   0  0  0  0  0  0  0  0  0  0  0  0
    6.1203    0.7405    5.0009 C   0  0  0  0  0  0  0  0  0  0  0  0
    6.6101    1.7018    5.0493 H   0  0  0  0  0  0  0  0  0  0  0  0
    6.6023   -0.3221    5.7514 C   0  0  0  0  0  0  0  0  0  0  0  0
    7.4667   -0.1846    6.3825 H   0  0  0  0  0  0  0  0  0  0  0  0
    5.9688   -1.5523    5.7052 C   0  0  0  0  0  0  0  0  0  0  0  0
    6.3394   -2.3727    6.3005 H   0  0  0  0  0  0  0  0  0  0  0  0
    4.8522   -1.7352    4.9063 C   0  0  0  0  0  0  0  0  0  0  0  0
    4.3475   -2.6901    4.8866 H   0  0  0  0  0  0  0  0  0  0  0  0
    1.9131   -2.1922    3.6059 C   0  0  0  0  0  0  0  0  0  0  0  0
    0.6943   -1.9833    4.2427 C   0  0  0  0  0  0  0  0  0  0  0  0
    0.3563   -0.9703    4.4314 H   0  0  0  0  0  0  0  0  0  0  0  0
   -0.0623   -3.0689    4.6475 C   0  0  0  0  0  0  0  0  0  0  0  0
   -1.0058   -2.9104    5.1471 H   0  0  0  0  0  0  0  0  0  0  0  0
    0.3927   -4.3564    4.4141 C   0  0  0  0  0  0  0  0  0  0  0  0
   -0.1964   -5.2024    4.7335 H   0  0  0  0  0  0  0  0  0  0  0  0
    1.6014   -4.5648    3.7661 C   0  0  0  0  0  0  0  0  0  0  0  0
    1.9490   -5.5697    3.5798 H   0  0  0  0  0  0  0  0  0  0  0  0
    2.3636   -3.4877    3.3552 C   0  0  0  0  0  0  0  0  0  0  0  0
    3.2982   -3.6442    2.8326 H   0  0  0  0  0  0  0  0  0  0  0  0
    1.9293    4.2162    5.0297 C   0  0  0  0  0  0  0  0  0  0  0  0
    3.3163    4.1593    5.1666 C   0  0  0  0  0  0  0  0  0  0  0  0
    3.9036    3.6871    4.3794 H   0  0  0  0  0  0  0  0  0  0  0  0
    3.9220    4.6765    6.2933 C   0  0  0  0  0  0  0  0  0  0  0  0
    4.9950    4.6311    6.4043 H   0  0  0  0  0  0  0  0  0  0  0  0
    3.1426    5.2436    7.2915 C   0  0  0  0  0  0  0  0  0  0  0  0
    3.6127    5.6425    8.1773 H   0  0  0  0  0  0  0  0  0  0  0  0
    1.7645    5.2825    7.1645 C   0  0  0  0  0  0  0  0  0  0  0  0
    1.1622    5.7081    7.9526 H   0  0  0  0  0  0  0  0  0  0  0  0
    1.1488    4.7662    6.0359 C   0  0  0  0  0  0  0  0  0  0  0  0
    0.0722    4.7732    5.9510 H   0  0  0  0  0  0  0  0  0  0  0  0
    1.5084    4.7102    2.2156 C   0  0  0  0  0  0  0  0  0  0  0  0
    0.9126    4.4453    0.9830 C   0  0  0  0  0  0  0  0  0  0  0  0
    0.3017    3.5565    0.8699 H   0  0  0  0  0  0  0  0  0  0  0  0
    1.0812    5.3190   -0.0729 C   0  0  0  0  0  0  0  0  0  0  0  0
    0.6145    5.1129   -1.0247 H   0  0  0  0  0  0  0  0  0  0  0  0
    1.8473    6.4638    0.0940 C   0  0  0  0  0  0  0  0  0  0  0  0
    1.9787    7.1478   -0.7302 H   0  0  0  0  0  0  0  0  0  0  0  0
    2.4362    6.7331    1.3180 C   0  0  0  0  0  0  0  0  0  0  0  0
    3.0241    7.6288    1.4491 H   0  0  0  0  0  0  0  0  0  0  0  0
    2.2730    5.8586    2.3798 C   0  0  0  0  0  0  0  0  0  0  0  0
    2.7311    6.0710    3.3357 H   0  0  0  0  0  0  0  0  0  0  0  0
   -0.5097    3.2807    3.5969 C   0  0  0  0  0  0  0  0  0  0  0  0
   -1.3505    4.3786    3.7620 C   0  0  0  0  0  0  0  0  0  0  0  0
   -0.9295    5.3713    3.8499 H   0  0  0  0  0  0  0  0  0  0  0  0
   -2.7202    4.1907    3.7957 C   0  0  0  0  0  0  0  0  0  0  0  0
   -3.3753    5.0376    3.9326 H   0  0  0  0  0  0  0  0  0  0  0  0
   -3.2523    2.9186    3.6496 C   0  0  0  0  0  0  0  0  0  0  0  0
   -4.3219    2.7780    3.6811 H   0  0  0  0  0  0  0  0  0  0  0  0
   -2.4185    1.8290    3.4521 C   0  0  0  0  0  0  0  0  0  0  0  0
   -2.8399    0.8435    3.3222 H   0  0  0  0  0  0  0  0  0  0  0  0
   -1.0468    2.0060    3.4212 C   0  0  0  0  0  0  0  0  0  0  0  0
   -0.3784    1.1468    3.2571 H   0  0  0  0  0  0  0  0  0  0  0  0
  1  4  1  0  0  0  0
  1  2  1  0  0  0  0
  3  1  1  0  0  0  0
  3 41  1  0  0  0  0
  3 30  1  0  0  0  0
  4 74  1  0  0  0  0
  4 52  1  0  0  0  0
  5  8  1  0  0  0  0
  6  7  1  0  0  0  0
  6  8  1  0  0  0  0
  8  1  2  0  0  0  0
  9  5  1  0  0  0  0
 10  9  1  0  0  0  0
 10  6  1  0  0  0  0
 11 10  2  0  0  0  0
 12 11  1  0  0  0  0
 13 15  2  0  0  0  0
 13 11  1  0  0  0  0
 14 13  1  0  0  0  0
 15 17  1  0  0  0  0
 16 15  1  0  0  0  0
 17 18  1  0  0  0  0
 17  9  2  0  0  0  0
 19  3  1  0  0  0  0
 20 19  1  0  0  0  0
 20 21  1  0  0  0  0
 22 20  2  0  0  0  0
 23 22  1  0  0  0  0
 24 26  2  0  0  0  0
 24 22  1  0  0  0  0
 25 24  1  0  0  0  0
 26 28  1  0  0  0  0
 27 26  1  0  0  0  0
 28 29  1  0  0  0  0
 28 19  2  0  0  0  0
 30 31  2  0  0  0  0
 30 39  1  0  0  0  0
 31 33  1  0  0  0  0
 32 31  1  0  0  0  0
 33 34  1  0  0  0  0
 33 35  2  0  0  0  0
 35 36  1  0  0  0  0
 37 35  1  0  0  0  0
 37 38  1  0  0  0  0
 39 37  2  0  0  0  0
 40 39  1  0  0  0  0
 41 42  1  0  0  0  0
 42 43  1  0  0  0  0
 42 44  2  0  0  0  0
 44 45  1  0  0  0  0
 46 44  1  0  0  0  0
 46 47  1  0  0  0  0
 48 46  2  0  0  0  0
 49 48  1  0  0  0  0
 50 41  2  0  0  0  0
 50 48  1  0  0  0  0
 51 50  1  0  0  0  0
 52 53  2  0  0  0  0
 52 61  1  0  0  0  0
 53 55  1  0  0  0  0
 54 53  1  0  0  0  0
 55 56  1  0  0  0  0
 55 57  2  0  0  0  0
 57 58  1  0  0  0  0
 59 57  1  0  0  0  0
 59 60  1  0  0  0  0
 61 59  2  0  0  0  0
 62 61  1  0  0  0  0
 63 72  1  0  0  0  0
 63  4  1  0  0  0  0
 64 63  2  0  0  0  0
 65 64  1  0  0  0  0
 66 68  2  0  0  0  0
 66 64  1  0  0  0  0
 67 66  1  0  0  0  0
 68 70  1  0  0  0  0
 69 68  1  0  0  0  0
 70 71  1  0  0  0  0
 70 72  2  0  0  0  0
 72 73  1  0  0  0  0
 74 75  1  0  0  0  0
 75 77  2  0  0  0  0
 75 76  1  0  0  0  0
 77 78  1  0  0  0  0
 79 80  1  0  0  0  0
 79 77  1  0  0  0  0
 81 79  2  0  0  0  0
 82 81  1  0  0  0  0
 83 81  1  0  0  0  0
 83 74  2  0  0  0  0
 84 83  1  0  0  0  0
M  END
$$$$
