CSD_code = AYEVEF | q = 0 | S = 0 | Stoichiometry = C23H23Cl3S2W | MND = 10
 OpenBabel04212202003D

 52 51  0  0  1  0  0  0  0  0999 V2000
    6.9282    2.8551    2.4272 W   0  0  0  0  0  0  0  0  0  0  0  0
    5.7482    1.7928    4.5413 S   0  0  0  0  0  0  0  0  0  0  0  0
    6.9574    1.5294    5.6692 C   0  0  0  0  0  0  0  0  0  0  0  0
    8.5748    1.8605    5.2870 S   0  0  0  0  0  0  0  0  0  0  0  0
    8.5188    2.4825    3.6613 C   0  0  2  0  0  3  0  0  0  0  0  0
    6.6382    1.0152    7.0077 C   0  0  0  0  0  0  0  0  0  0  0  0
    6.1875    1.9061    7.9865 C   0  0  0  0  0  0  0  0  0  0  0  0
    5.8758    1.4053    9.2417 C   0  0  0  0  0  0  0  0  0  0  0  0
    5.5276    2.0812   10.0086 H   0  0  0  0  0  0  0  0  0  0  0  0
    6.0028    0.0555    9.5162 C   0  0  0  0  0  0  0  0  0  0  0  0
    5.7529   -0.3199   10.4972 H   0  0  0  0  0  0  0  0  0  0  0  0
    6.4456   -0.8150    8.5370 C   0  0  0  0  0  0  0  0  0  0  0  0
    6.5386   -1.8689    8.7534 H   0  0  0  0  0  0  0  0  0  0  0  0
    6.7699   -0.3505    7.2709 C   0  0  0  0  0  0  0  0  0  0  0  0
    6.0569    3.3632    7.6730 C   0  0  0  0  0  0  0  0  0  0  0  0
    5.7061    3.9146    8.5407 H   0  0  0  0  0  0  0  0  0  0  0  0
    5.3545    3.5158    6.8548 H   0  0  0  0  0  0  0  0  0  0  0  0
    7.0149    3.7762    7.3584 H   0  0  0  0  0  0  0  0  0  0  0  0
    7.2510   -1.2792    6.1995 C   0  0  0  0  0  0  0  0  0  0  0  0
    7.1057   -2.3145    6.4955 H   0  0  0  0  0  0  0  0  0  0  0  0
    8.3128   -1.1196    6.0119 H   0  0  0  0  0  0  0  0  0  0  0  0
    6.7184   -1.1006    5.2668 H   0  0  0  0  0  0  0  0  0  0  0  0
    9.9481    2.7497    3.3307 C   0  0  0  0  0  0  0  0  0  0  0  0
   10.7259    1.7543    2.7233 C   0  0  0  0  0  0  0  0  0  0  0  0
   12.0411    2.0342    2.3802 C   0  0  0  0  0  0  0  0  0  0  0  0
   12.6335    1.2704    1.8979 H   0  0  0  0  0  0  0  0  0  0  0  0
   12.6006    3.2665    2.6621 C   0  0  0  0  0  0  0  0  0  0  0  0
   13.6230    3.4742    2.3849 H   0  0  0  0  0  0  0  0  0  0  0  0
   11.8544    4.2202    3.3289 C   0  0  0  0  0  0  0  0  0  0  0  0
   12.3003    5.1688    3.5899 H   0  0  0  0  0  0  0  0  0  0  0  0
   10.5364    3.9716    3.6854 C   0  0  0  0  0  0  0  0  0  0  0  0
   10.1637    0.3843    2.4931 C   0  0  0  0  0  0  0  0  0  0  0  0
    9.1128    0.4179    2.2051 H   0  0  0  0  0  0  0  0  0  0  0  0
   10.2308   -0.1917    3.4169 H   0  0  0  0  0  0  0  0  0  0  0  0
   10.7296   -0.1431    1.7291 H   0  0  0  0  0  0  0  0  0  0  0  0
    9.7715    4.9839    4.4839 C   0  0  0  0  0  0  0  0  0  0  0  0
    9.8440    4.7342    5.5432 H   0  0  0  0  0  0  0  0  0  0  0  0
    8.7136    4.9962    4.2217 H   0  0  0  0  0  0  0  0  0  0  0  0
   10.1878    5.9791    4.3476 H   0  0  0  0  0  0  0  0  0  0  0  0
    8.4034    4.2865    1.3009 C   0  0  1  0  0  0  0  0  0  0  0  0
    9.2111    4.8846    1.7009 H   0  0  0  0  0  0  0  0  0  0  0  0
    8.5357    2.9907    0.7193 C   0  0  0  0  0  3  0  0  0  0  0  0
    9.4599    2.4402    0.6067 H   0  0  0  0  0  0  0  0  0  0  0  0
    7.3194    2.6987    0.0436 C   0  0  0  0  0  0  0  0  0  0  0  0
    7.1402    1.8329   -0.5814 H   0  0  0  0  0  0  0  0  0  0  0  0
    6.4574    3.8009    0.1895 C   0  0  0  0  0  0  0  0  0  0  0  0
    5.4920    3.9141   -0.2832 H   0  0  0  0  0  0  0  0  0  0  0  0
    7.1062    4.7712    0.9765 C   0  0  0  0  0  3  0  0  0  0  0  0
    6.7372    5.7678    1.1854 H   0  0  0  0  0  0  0  0  0  0  0  0
    6.6671    0.4834    1.9089 Cl  0  0  0  0  0 15  0  0  0  0  0  0
    6.2793    4.7459    3.8397 Cl  0  0  0  0  0 15  0  0  0  0  0  0
    4.5669    2.8021    2.0910 Cl  0  0  0  0  0 15  0  0  0  0  0  0
  2  3  2  0  0  0  0
  3  6  1  0  0  0  0
  4  3  1  0  0  0  0
  5  1  1  1  0  0  0
  5  4  1  0  0  0  0
  6 14  2  0  0  0  0
  6  7  1  0  0  0  0
  7  8  2  0  0  0  0
  8 10  1  0  0  0  0
  8  9  1  0  0  0  0
 10 11  1  0  0  0  0
 12 13  1  0  0  0  0
 12 10  2  0  0  0  0
 14 12  1  0  0  0  0
 15  7  1  0  0  0  0
 15 16  1  0  0  0  0
 17 15  1  0  0  0  0
 18 15  1  0  0  0  0
 19 20  1  0  0  0  0
 19 14  1  0  0  0  0
 21 19  1  0  0  0  0
 22 19  1  0  0  0  0
 23  5  1  0  0  0  0
 23 31  1  0  0  0  0
 24 23  2  0  0  0  0
 25 27  2  0  0  0  0
 25 24  1  0  0  0  0
 26 25  1  0  0  0  0
 27 29  1  0  0  0  0
 28 27  1  0  0  0  0
 29 30  1  0  0  0  0
 29 31  2  0  0  0  0
 31 36  1  0  0  0  0
 32 24  1  0  0  0  0
 32 34  1  0  0  0  0
 33 32  1  0  0  0  0
 35 32  1  0  0  0  0
 36 37  1  0  0  0  0
 38 36  1  0  0  0  0
 39 36  1  0  0  0  0
 40 41  1  1  0  0  0
 40  1  1  0  0  0  0
 42 40  1  0  0  0  0
 43 42  1  0  0  0  0
 44 46  2  0  0  0  0
 44 42  1  0  0  0  0
 45 44  1  0  0  0  0
 46 48  1  0  0  0  0
 47 46  1  0  0  0  0
 48 49  1  0  0  0  0
 48 40  1  0  0  0  0
M  END
$$$$
