CSD_code = AYIKIC | q = 0 | S = 0 | Stoichiometry = C17H12Cl2N4Zn | MND = 4
 OpenBabel04212202003D

 36 39  0  0  1  0  0  0  0  0999 V2000
    2.2700    3.8633   10.2337 Zn  0  0  0  0  0  0  0  0  0  0  0  0
    0.0933    3.7596   10.0482 Cl  0  0  0  0  0  0  0  0  0  0  0  0
    3.9470    2.4916   10.6565 Cl  0  0  0  0  0  0  0  0  0  0  0  0
    2.9182    5.1935    8.6921 N   0  0  0  0  0  0  0  0  0  0  0  0
    2.7518    5.5372   11.4830 N   0  0  0  0  0  0  0  0  0  0  0  0
    4.6946    5.6199   10.1715 N   0  0  0  0  0  0  0  0  0  0  0  0
   10.8118    2.7727   10.4888 N   0  0  0  0  0  0  0  0  0  0  0  0
    2.0427    5.9266   12.5378 C   0  0  0  0  0  3  0  0  0  0  0  0
    2.5515    6.7650   13.5100 C   0  0  0  0  0  0  0  0  0  0  0  0
    3.8540    7.2283   13.3662 C   0  0  0  0  0  0  0  0  0  0  0  0
    4.5848    6.8441   12.2597 C   0  0  0  0  0  0  0  0  0  0  0  0
    3.9970    5.9819   11.3301 C   0  0  0  0  0  0  0  0  0  0  0  0
    4.0532    5.8394    8.9379 C   0  0  2  0  0  3  0  0  0  0  0  0
    4.5853    6.7562    8.0308 C   0  0  0  0  0  0  0  0  0  0  0  0
    3.9189    6.9775    6.8398 C   0  0  0  0  0  0  0  0  0  0  0  0
    2.7332    6.2976    6.5956 C   0  0  0  0  0  0  0  0  0  0  0  0
    2.2656    5.4229    7.5583 C   0  0  0  0  0  0  0  0  0  0  0  0
    5.9677    5.0386   10.2329 C   0  0  0  0  0  0  0  0  0  0  0  0
    6.5029    4.6409   11.4603 C   0  0  0  0  0  0  0  0  0  0  0  0
    7.7429    4.0468   11.5292 C   0  0  0  0  0  0  0  0  0  0  0  0
    8.4826    3.8242   10.3677 C   0  0  0  0  0  0  0  0  0  0  0  0
    7.9349    4.1775    9.1356 C   0  0  0  0  0  0  0  0  0  0  0  0
    6.6931    4.7724    9.0703 C   0  0  0  0  0  0  0  0  0  0  0  0
    9.7637    3.2353   10.4374 C   0  0  0  0  0  0  0  0  0  0  0  0
    1.0341    5.5412   12.5855 H   0  0  0  0  0  0  0  0  0  0  0  0
    1.9482    7.0494   14.3560 H   0  0  0  0  0  0  0  0  0  0  0  0
    4.2871    7.8924   14.0988 H   0  0  0  0  0  0  0  0  0  0  0  0
    5.5890    7.2038   12.0983 H   0  0  0  0  0  0  0  0  0  0  0  0
    5.4934    7.2865    8.2723 H   0  0  0  0  0  0  0  0  0  0  0  0
    4.3105    7.6815    6.1210 H   0  0  0  0  0  0  0  0  0  0  0  0
    2.1814    6.4484    5.6826 H   0  0  0  0  0  0  0  0  0  0  0  0
    1.3375    4.8826    7.4384 H   0  0  0  0  0  0  0  0  0  0  0  0
    5.9302    4.7569   12.3660 H   0  0  0  0  0  0  0  0  0  0  0  0
    8.1409    3.7378   12.4839 H   0  0  0  0  0  0  0  0  0  0  0  0
    8.4839    3.9752    8.2281 H   0  0  0  0  0  0  0  0  0  0  0  0
    6.2798    4.9999    8.1006 H   0  0  0  0  0  0  0  0  0  0  0  0
  1  3  1  0  0  0  0
  1  5  1  0  0  0  0
  2  1  1  0  0  0  0
  4 13  1  0  0  0  0
  4  1  1  0  0  0  0
  5  8  1  0  0  0  0
  6 18  1  0  0  0  0
  6 12  1  0  0  0  0
  8 25  1  0  0  0  0
  8  9  1  0  0  0  0
  9 26  1  0  0  0  0
 10  9  2  0  0  0  0
 10 27  1  0  0  0  0
 11 10  1  0  0  0  0
 12  5  1  0  0  0  0
 12 11  2  0  0  0  0
 13 14  1  1  0  0  0
 13  6  1  0  0  0  0
 14 29  1  0  0  0  0
 15 14  2  0  0  0  0
 16 15  1  0  0  0  0
 16 17  2  0  0  0  0
 17  4  1  0  0  0  0
 18 19  1  0  0  0  0
 19 20  2  0  0  0  0
 19 33  1  0  0  0  0
 20 34  1  0  0  0  0
 21 24  1  0  0  0  0
 21 20  1  0  0  0  0
 22 21  2  0  0  0  0
 23 22  1  0  0  0  0
 23 18  2  0  0  0  0
 24  7  3  0  0  0  0
 28 11  1  0  0  0  0
 30 15  1  0  0  0  0
 31 16  1  0  0  0  0
 32 17  1  0  0  0  0
 35 22  1  0  0  0  0
 36 23  1  0  0  0  0
M  END
$$$$
