CSD_code = AYIKOI | q = 0 | S = 0 | Stoichiometry = C17H15Cl2N3OZn | MND = 4
 OpenBabel04212202003D

 39 42  0  0  0  0  0  0  0  0999 V2000
    2.3739   12.6018    0.0156 Zn  0  0  0  0  0  0  0  0  0  0  0  0
    0.7573   12.3464   -1.4162 Cl  0  0  0  0  0  0  0  0  0  0  0  0
    3.2708   14.3848    1.0089 Cl  0  0  0  0  0  0  0  0  0  0  0  0
    8.6612   12.8422    5.4481 O   0  0  0  0  0  0  0  0  0  0  0  0
    4.0815   11.5173   -0.4525 N   0  0  0  0  0  0  0  0  0  0  0  0
    2.3009   11.2684    1.6076 N   0  0  0  0  0  0  0  0  0  0  0  0
    4.6404   11.4853    1.8421 N   0  0  0  0  0  0  0  0  0  0  0  0
    4.4464   11.4107   -1.7296 C   0  0  0  0  0  3  0  0  0  0  0  0
    5.7564   11.2799   -2.1329 C   0  0  0  0  0  0  0  0  0  0  0  0
    6.7388   11.2827   -1.1480 C   0  0  0  0  0  0  0  0  0  0  0  0
    6.3701   11.3720    0.1747 C   0  0  0  0  0  0  0  0  0  0  0  0
    5.0073   11.4696    0.5096 C   0  0  0  0  0  0  0  0  0  0  0  0
    1.1145   10.9538    2.1263 C   0  0  0  0  0  3  0  0  0  0  0  0
    0.9296   10.6382    3.4537 C   0  0  0  0  0  0  0  0  0  0  0  0
    2.0423   10.6771    4.2878 C   0  0  0  0  0  0  0  0  0  0  0  0
    3.2752   10.9805    3.7572 C   0  0  0  0  0  0  0  0  0  0  0  0
    3.3892   11.2572    2.3827 C   0  0  0  0  0  0  0  0  0  0  0  0
    5.6780   11.8364    2.7759 C   0  0  0  0  0  0  0  0  0  0  0  0
    5.8681   13.1744    3.0773 C   0  0  0  0  0  0  0  0  0  0  0  0
    6.8579   13.5516    3.9687 C   0  0  0  0  0  0  0  0  0  0  0  0
    7.6657   12.5869    4.5654 C   0  0  0  0  0  0  0  0  0  0  0  0
    7.4640   11.2379    4.2542 C   0  0  0  0  0  0  0  0  0  0  0  0
    6.4789   10.8636    3.3669 C   0  0  0  0  0  0  0  0  0  0  0  0
    8.9228   14.1796    5.8080 C   0  0  0  0  0  0  0  0  0  0  0  0
    3.6319   11.4348   -2.4406 H   0  0  0  0  0  0  0  0  0  0  0  0
    6.0058   11.1968   -3.1775 H   0  0  0  0  0  0  0  0  0  0  0  0
    7.7829   11.2087   -1.4123 H   0  0  0  0  0  0  0  0  0  0  0  0
    7.1202   11.3673    0.9475 H   0  0  0  0  0  0  0  0  0  0  0  0
    0.2924   10.9632    1.4238 H   0  0  0  0  0  0  0  0  0  0  0  0
   -0.0484   10.3893    3.8299 H   0  0  0  0  0  0  0  0  0  0  0  0
    1.9471   10.4655    5.3420 H   0  0  0  0  0  0  0  0  0  0  0  0
    4.1456   11.0073    4.3907 H   0  0  0  0  0  0  0  0  0  0  0  0
    5.2341   13.9129    2.6081 H   0  0  0  0  0  0  0  0  0  0  0  0
    6.9868   14.5988    4.1873 H   0  0  0  0  0  0  0  0  0  0  0  0
    8.0974   10.5035    4.7251 H   0  0  0  0  0  0  0  0  0  0  0  0
    6.3260    9.8213    3.1286 H   0  0  0  0  0  0  0  0  0  0  0  0
    8.0568   14.6412    6.2916 H   0  0  0  0  0  0  0  0  0  0  0  0
    9.7496   14.1359    6.5146 H   0  0  0  0  0  0  0  0  0  0  0  0
    9.2187   14.7775    4.9408 H   0  0  0  0  0  0  0  0  0  0  0  0
  1  3  1  0  0  0  0
  1  6  1  0  0  0  0
  2  1  1  0  0  0  0
  4 24  1  0  0  0  0
  5  1  1  0  0  0  0
  5 12  1  0  0  0  0
  6 13  1  0  0  0  0
  6 17  1  0  0  0  0
  7 17  1  0  0  0  0
  7 18  1  0  0  0  0
  8  5  1  0  0  0  0
  9  8  1  0  0  0  0
  9 10  2  0  0  0  0
 10 11  1  0  0  0  0
 11 12  2  0  0  0  0
 11 28  1  0  0  0  0
 12  7  1  0  0  0  0
 13 14  1  0  0  0  0
 14 30  1  0  0  0  0
 14 15  2  0  0  0  0
 15 31  1  0  0  0  0
 16 15  1  0  0  0  0
 16 32  1  0  0  0  0
 17 16  2  0  0  0  0
 18 19  2  0  0  0  0
 18 23  1  0  0  0  0
 19 20  1  0  0  0  0
 20 34  1  0  0  0  0
 20 21  2  0  0  0  0
 21  4  1  0  0  0  0
 22 21  1  0  0  0  0
 22 35  1  0  0  0  0
 23 22  2  0  0  0  0
 24 37  1  0  0  0  0
 24 38  1  0  0  0  0
 25  8  1  0  0  0  0
 26  9  1  0  0  0  0
 27 10  1  0  0  0  0
 29 13  1  0  0  0  0
 33 19  1  0  0  0  0
 36 23  1  0  0  0  0
 39 24  1  0  0  0  0
M  END
$$$$
