CSD_code = AYITIM | q = 0 | S = 0 | Stoichiometry = C14H10Br2N4Pt | MND = 4
 OpenBabel04212202003D

 31 34  0  0  0  0  0  0  0  0999 V2000
    5.3530    6.3811    2.2639 Pt  0  0  0  0  0  0  0  0  0  0  0  0
    4.6800    8.6009    1.7603 Br  0  0  0  0  0  0  0  0  0  0  0  0
    7.1870    7.2481    3.4799 Br  0  0  0  0  0  0  0  0  0  0  0  0
    3.7652    5.5157    1.3909 N   0  0  0  0  0  0  0  0  0  0  0  0
    1.4935    4.0961    0.7368 N   0  0  0  0  0  0  0  0  0  0  0  0
    5.8706    4.4249    2.5133 N   0  0  0  0  0  0  0  0  0  0  0  0
    2.7964    1.8513    3.0871 N   0  0  0  0  0  0  0  0  0  0  0  0
    3.7083    4.1773    1.5941 C   0  0  0  0  0  0  0  0  0  0  0  0
    2.4860    3.5046    1.3893 C   0  0  0  0  0  0  0  0  0  0  0  0
    1.6361    5.3621    0.3880 C   0  0  0  0  0  0  0  0  0  0  0  0
    0.8359    5.8017   -0.1877 H   0  0  0  0  0  0  0  0  0  0  0  0
    2.7262    6.1099    0.8015 C   0  0  0  0  0  0  0  0  0  0  0  0
    2.7721    7.1791    0.6530 H   0  0  0  0  0  0  0  0  0  0  0  0
    4.9606    3.5669    2.0056 C   0  0  0  0  0  0  0  0  0  0  0  0
    5.2723    2.2235    1.7986 C   0  0  0  0  0  0  0  0  0  0  0  0
    4.5626    1.5794    1.3076 H   0  0  0  0  0  0  0  0  0  0  0  0
    6.5010    1.7430    2.2035 C   0  0  0  0  0  0  0  0  0  0  0  0
    6.7619    0.7079    2.0481 H   0  0  0  0  0  0  0  0  0  0  0  0
    7.3937    2.6206    2.8073 C   0  0  0  0  0  0  0  0  0  0  0  0
    8.3557    2.2867    3.1598 H   0  0  0  0  0  0  0  0  0  0  0  0
    7.0467    3.9517    2.9236 C   0  0  0  0  0  0  0  0  0  0  0  0
    7.7340    4.6660    3.3563 H   0  0  0  0  0  0  0  0  0  0  0  0
    2.1722    2.1871    1.9594 C   0  0  0  0  0  0  0  0  0  0  0  0
    1.1954    1.3853    1.3713 C   0  0  0  0  0  0  0  0  0  0  0  0
    0.7126    1.7128    0.4652 H   0  0  0  0  0  0  0  0  0  0  0  0
    0.8748    0.1846    1.9820 C   0  0  0  0  0  0  0  0  0  0  0  0
    0.1266   -0.4646    1.5517 H   0  0  0  0  0  0  0  0  0  0  0  0
    1.5253   -0.1643    3.1551 C   0  0  0  0  0  0  0  0  0  0  0  0
    1.3017   -1.0875    3.6657 H   0  0  0  0  0  0  0  0  0  0  0  0
    2.4754    0.7120    3.6651 C   0  0  0  0  0  0  0  0  0  0  0  0
    3.0061    0.4939    4.5825 H   0  0  0  0  0  0  0  0  0  0  0  0
  1  6  1  0  0  0  0
  1  3  1  0  0  0  0
  2  1  1  0  0  0  0
  4  8  1  0  0  0  0
  4  1  1  0  0  0  0
  5  9  2  0  0  0  0
  6 21  1  0  0  0  0
  7 30  1  0  0  0  0
  8 14  2  0  0  0  0
  9  8  1  0  0  0  0
  9 23  1  0  0  0  0
 10  5  1  0  0  0  0
 10 12  2  0  0  0  0
 11 10  1  0  0  0  0
 12  4  1  0  0  0  0
 13 12  1  0  0  0  0
 14  6  1  0  0  0  0
 15 14  1  0  0  0  0
 15 17  2  0  0  0  0
 16 15  1  0  0  0  0
 17 19  1  0  0  0  0
 18 17  1  0  0  0  0
 19 21  2  0  0  0  0
 19 20  1  0  0  0  0
 21 22  1  0  0  0  0
 23  7  2  0  0  0  0
 24 23  1  0  0  0  0
 24 26  2  0  0  0  0
 25 24  1  0  0  0  0
 26 28  1  0  0  0  0
 27 26  1  0  0  0  0
 28 30  2  0  0  0  0
 28 29  1  0  0  0  0
 30 31  1  0  0  0  0
M  END
$$$$
