CSD_code = AYOCUN | q = 0 | S = 0 | Stoichiometry = C18H13ClN2O2Zn | MND = 5
 OpenBabel04212202003D

 37 41  0  0  1  0  0  0  0  0999 V2000
    3.3791    1.6137    9.4738 Zn  0  0  1  0  0  0  0  0  0  0  0  0
    5.0923    2.8086   10.1098 Cl  0  0  0  0  0  0  0  0  0  0  0  0
    3.3081   -0.2813    9.8093 O   0  0  0  0  0  0  0  0  0  0  0  0
    2.7737    3.7774    8.4425 O   0  0  0  0  0  0  0  0  0  0  0  0
    1.6209    1.6964   10.5397 N   0  0  0  0  0  0  0  0  0  0  0  0
    3.6251    1.4535    7.3785 N   0  0  0  0  0  0  0  0  0  0  0  0
    1.3475    0.4367   10.9255 C   0  0  1  0  0  3  0  0  0  0  0  0
    2.2699   -0.5865   10.5143 C   0  0  0  0  0  0  0  0  0  0  0  0
    1.9813   -1.8926   10.9107 C   0  0  0  0  0  0  0  0  0  0  0  0
    2.6618   -2.6770   10.6169 H   0  0  0  0  0  0  0  0  0  0  0  0
    0.8571   -2.1890   11.6732 C   0  0  0  0  0  0  0  0  0  0  0  0
    0.6786   -3.2169   11.9550 H   0  0  0  0  0  0  0  0  0  0  0  0
   -0.0267   -1.2151   12.0753 C   0  0  0  0  0  0  0  0  0  0  0  0
   -0.8939   -1.4583   12.6700 H   0  0  0  0  0  0  0  0  0  0  0  0
    0.2041    0.1192   11.7104 C   0  0  0  0  0  0  0  0  0  0  0  0
   -0.6331    1.1927   12.0760 C   0  0  0  0  0  0  0  0  0  0  0  0
   -1.5105    0.9959   12.6759 H   0  0  0  0  0  0  0  0  0  0  0  0
   -0.3242    2.4644   11.6721 C   0  0  0  0  0  0  0  0  0  0  0  0
   -0.9451    3.3051   11.9399 H   0  0  0  0  0  0  0  0  0  0  0  0
    0.8215    2.6752   10.8956 C   0  0  0  0  0  0  0  0  0  0  0  0
    1.0844    3.6668   10.5572 H   0  0  0  0  0  0  0  0  0  0  0  0
    3.8659    2.5955    6.6999 C   0  0  0  0  0  0  0  0  0  0  0  0
    3.4875    3.8290    7.2887 C   0  0  0  0  0  0  0  0  0  0  0  0
    3.8299    5.0093    6.6748 C   0  0  0  0  0  0  0  0  0  0  0  0
    3.5815    5.9499    7.1452 H   0  0  0  0  0  0  0  0  0  0  0  0
    4.4977    5.0060    5.4434 C   0  0  0  0  0  0  0  0  0  0  0  0
    4.7483    5.9502    4.9849 H   0  0  0  0  0  0  0  0  0  0  0  0
    4.8231    3.8312    4.8241 C   0  0  0  0  0  3  0  0  0  0  0  0
    5.3259    3.8267    3.8692 H   0  0  0  0  0  0  0  0  0  0  0  0
    4.5243    2.6013    5.4424 C   0  0  0  0  0  0  0  0  0  0  0  0
    4.8686    1.3498    4.8909 C   0  0  0  0  0  0  0  0  0  0  0  0
    5.3644    1.3145    3.9313 H   0  0  0  0  0  0  0  0  0  0  0  0
    4.5810    0.2066    5.5864 C   0  0  0  0  0  0  0  0  0  0  0  0
    4.8341   -0.7664    5.1959 H   0  0  0  0  0  0  0  0  0  0  0  0
    3.9714    0.3078    6.8458 C   0  0  0  0  0  0  0  0  0  0  0  0
    3.7745   -0.5699    7.4441 H   0  0  0  0  0  0  0  0  0  0  0  0
    2.9530    4.5642    8.9737 H   0  0  0  0  0  0  0  0  0  0  0  0
  1  3  1  0  0  0  0
  1  2  1  1  0  0  0
  1  5  1  0  0  0  0
  3  8  1  0  0  0  0
  4 37  1  0  0  0  0
  5 20  1  0  0  0  0
  5  7  1  0  0  0  0
  6  1  1  0  0  0  0
  7  8  1  1  0  0  0
  7 15  1  0  0  0  0
  8  9  2  0  0  0  0
  9 11  1  0  0  0  0
 10  9  1  0  0  0  0
 11 12  1  0  0  0  0
 11 13  2  0  0  0  0
 13 14  1  0  0  0  0
 15 13  1  0  0  0  0
 15 16  2  0  0  0  0
 16 17  1  0  0  0  0
 18 19  1  0  0  0  0
 18 16  1  0  0  0  0
 20 18  2  0  0  0  0
 21 20  1  0  0  0  0
 22 23  2  0  0  0  0
 22  6  1  0  0  0  0
 23  4  1  0  0  0  0
 24 25  1  0  0  0  0
 24 23  1  0  0  0  0
 26 24  2  0  0  0  0
 27 26  1  0  0  0  0
 28 30  1  0  0  0  0
 28 26  1  0  0  0  0
 29 28  1  0  0  0  0
 30 22  1  0  0  0  0
 31 30  2  0  0  0  0
 31 33  1  0  0  0  0
 32 31  1  0  0  0  0
 33 35  2  0  0  0  0
 34 33  1  0  0  0  0
 35  6  1  0  0  0  0
 35 36  1  0  0  0  0
M  END
$$$$
