CSD_code = AYOCIB | q = -1 | S = 0 | Stoichiometry = C10H8Br2NOZn(1-) | MND = 4
 OpenBabel04212202003D

 23 25  0  0  1  0  0  0  0  0999 V2000
    9.1923    9.0929   13.7437 Br  0  0  0  0  0  0  0  0  0  0  0  0
    5.7262    9.6339   11.4239 Br  0  0  0  0  0  0  0  0  0  0  0  0
    7.1912    8.2624   12.7279 Zn  0  0  0  0  0  0  0  0  0  0  0  0
    7.2855    6.3958   12.1541 O   0  0  0  0  0  0  0  0  0  0  0  0
    6.0172    7.4764   14.2939 N   0  0  0  0  0  0  0  0  0  0  0  0
    5.9443    6.1491   14.0933 C   0  0  2  0  0  3  0  0  0  0  0  0
    6.6348    5.6223   12.9429 C   0  0  0  0  0  0  0  0  0  0  0  0
    6.5518    4.2400   12.7441 C   0  0  0  0  0  0  0  0  0  0  0  0
    7.0609    3.8208   11.8887 H   0  0  0  0  0  0  0  0  0  0  0  0
    5.8417    3.4200   13.6098 C   0  0  0  0  0  0  0  0  0  0  0  0
    5.8104    2.3563   13.4087 H   0  0  0  0  0  0  0  0  0  0  0  0
    5.1815    3.9190   14.7087 C   0  0  0  0  0  0  0  0  0  0  0  0
    4.6315    3.2701   15.3759 H   0  0  0  0  0  0  0  0  0  0  0  0
    5.2227    5.2966   14.9682 C   0  0  0  0  0  0  0  0  0  0  0  0
    4.5839    5.9162   16.0621 C   0  0  0  0  0  0  0  0  0  0  0  0
    4.0211    5.3057   16.7568 H   0  0  0  0  0  0  0  0  0  0  0  0
    4.6789    7.2693   16.2352 C   0  0  0  0  0  0  0  0  0  0  0  0
    4.1957    7.7608   17.0674 H   0  0  0  0  0  0  0  0  0  0  0  0
    5.4162    8.0415   15.3187 C   0  0  0  0  0  0  0  0  0  0  0  0
    5.5475    9.5222   15.4676 C   0  0  0  0  0  0  0  0  0  0  0  0
    6.5988    9.7966   15.5586 H   0  0  0  0  0  0  0  0  0  0  0  0
    5.0118    9.8762   16.3449 H   0  0  0  0  0  0  0  0  0  0  0  0
    5.1517   10.0229   14.5836 H   0  0  0  0  0  0  0  0  0  0  0  0
  2  3  1  0  0  0  0
  3  1  1  0  0  0  0
  3  5  1  0  0  0  0
  4  3  1  0  0  0  0
  4  7  1  0  0  0  0
  5 19  1  0  0  0  0
  6  7  1  6  0  0  0
  6  5  1  0  0  0  0
  6 14  1  0  0  0  0
  8  7  2  0  0  0  0
  8 10  1  0  0  0  0
  9  8  1  0  0  0  0
 10 12  2  0  0  0  0
 11 10  1  0  0  0  0
 12 14  1  0  0  0  0
 12 13  1  0  0  0  0
 14 15  2  0  0  0  0
 15 17  1  0  0  0  0
 15 16  1  0  0  0  0
 17 18  1  0  0  0  0
 19 20  1  0  0  0  0
 19 17  2  0  0  0  0
 20 21  1  0  0  0  0
 20 22  1  0  0  0  0
 23 20  1  0  0  0  0
M  END
$$$$
