CSD_code = AYOCEX | q = -1 | S = 0 | Stoichiometry = C10H8Cl2NOZn(1-) | MND = 4
 OpenBabel04212202003D

 23 25  0  0  1  0  0  0  0  0999 V2000
    4.1405   14.3170    8.5217 Zn  0  0  0  0  0  0  0  0  0  0  0  0
    2.1840   13.4573    9.2100 Cl  0  0  0  0  0  0  0  0  0  0  0  0
    5.5776   12.9267    7.5037 Cl  0  0  0  0  0  0  0  0  0  0  0  0
    4.1375   16.2022    7.9411 O   0  0  0  0  0  0  0  0  0  0  0  0
    5.0880   15.0612   10.2142 N   0  0  0  0  0  0  0  0  0  0  0  0
    5.1948   16.3891   10.0593 C   0  0  1  0  0  3  0  0  0  0  0  0
    4.6753   16.9470    8.8344 C   0  0  0  0  0  0  0  0  0  0  0  0
    4.7958   18.3347    8.6875 C   0  0  0  0  0  0  0  0  0  0  0  0
    4.4166   18.7821    7.7808 H   0  0  0  0  0  0  0  0  0  0  0  0
    5.3804   19.1266    9.6665 C   0  0  0  0  0  0  0  0  0  0  0  0
    5.4460   20.1946    9.4993 H   0  0  0  0  0  0  0  0  0  0  0  0
    5.8751   18.5964   10.8359 C   0  0  0  0  0  0  0  0  0  0  0  0
    6.3272   19.2250   11.5902 H   0  0  0  0  0  0  0  0  0  0  0  0
    5.7892   17.2126   11.0509 C   0  0  0  0  0  0  0  0  0  0  0  0
    6.2603   16.5579   12.2082 C   0  0  0  0  0  0  0  0  0  0  0  0
    6.7211   17.1442   12.9932 H   0  0  0  0  0  0  0  0  0  0  0  0
    6.1328   15.2013   12.3299 C   0  0  0  0  0  0  0  0  0  0  0  0
    6.4885   14.6860   13.2106 H   0  0  0  0  0  0  0  0  0  0  0  0
    5.5297   14.4598   11.2959 C   0  0  0  0  0  0  0  0  0  0  0  0
    5.3619   12.9795   11.3713 C   0  0  0  0  0  0  0  0  0  0  0  0
    5.8684   12.5127   10.5267 H   0  0  0  0  0  0  0  0  0  0  0  0
    4.3044   12.7299   11.2853 H   0  0  0  0  0  0  0  0  0  0  0  0
    5.7577   12.5804   12.3021 H   0  0  0  0  0  0  0  0  0  0  0  0
  1  2  1  0  0  0  0
  1  5  1  0  0  0  0
  3  1  1  0  0  0  0
  4  1  1  0  0  0  0
  4  7  1  0  0  0  0
  5 19  1  0  0  0  0
  6  7  1  1  0  0  0
  6  5  1  0  0  0  0
  6 14  1  0  0  0  0
  8  7  2  0  0  0  0
  8 10  1  0  0  0  0
  9  8  1  0  0  0  0
 10 12  2  0  0  0  0
 11 10  1  0  0  0  0
 12 14  1  0  0  0  0
 12 13  1  0  0  0  0
 14 15  2  0  0  0  0
 15 17  1  0  0  0  0
 15 16  1  0  0  0  0
 17 18  1  0  0  0  0
 19 20  1  0  0  0  0
 19 17  2  0  0  0  0
 20 23  1  0  0  0  0
 21 20  1  0  0  0  0
 22 20  1  0  0  0  0
M  END
$$$$
