CSD_code = AYOCOH | q = -1 | S = 0 | Stoichiometry = C10H8I2NOZn(1-) | MND = 4
 OpenBabel04212202003D

 23 25  0  0  1  0  0  0  0  0999 V2000
    2.6826    7.2621    2.0821 I   0  0  0  0  0  0  0  0  0  0  0  0
    6.8853    7.8743    3.5219 I   0  0  0  0  0  0  0  0  0  0  0  0
    4.5341    6.9200    3.8056 Zn  0  0  0  0  0  0  0  0  0  0  0  0
    4.4883    5.1754    4.6522 O   0  0  0  0  0  0  0  0  0  0  0  0
    3.7940    7.5838    5.6785 N   0  0  0  0  0  0  0  0  0  0  0  0
    3.6602    6.4854    6.4420 C   0  0  1  0  0  3  0  0  0  0  0  0
    4.0422    5.2268    5.8504 C   0  0  0  0  0  0  0  0  0  0  0  0
    3.8987    4.0896    6.6535 C   0  0  0  0  0  0  0  0  0  0  0  0
    4.1783    3.1349    6.2321 H   0  0  0  0  0  0  0  0  0  0  0  0
    3.4142    4.1692    7.9508 C   0  0  0  0  0  0  0  0  0  0  0  0
    3.3229    3.2575    8.5283 H   0  0  0  0  0  0  0  0  0  0  0  0
    3.0494    5.3679    8.5195 C   0  0  0  0  0  0  0  0  0  0  0  0
    2.6734    5.4178    9.5319 H   0  0  0  0  0  0  0  0  0  0  0  0
    3.1679    6.5480    7.7715 C   0  0  0  0  0  0  0  0  0  0  0  0
    2.8260    7.8279    8.2541 C   0  0  0  0  0  0  0  0  0  0  0  0
    2.4452    7.9256    9.2628 H   0  0  0  0  0  0  0  0  0  0  0  0
    2.9767    8.9250    7.4519 C   0  0  0  0  0  0  0  0  0  0  0  0
    2.7206    9.9138    7.8049 H   0  0  0  0  0  0  0  0  0  0  0  0
    3.4717    8.7719    6.1440 C   0  0  0  0  0  0  0  0  0  0  0  0
    3.6538    9.9483    5.2395 C   0  0  0  0  0  0  0  0  0  0  0  0
    3.3051   10.8620    5.7148 H   0  0  0  0  0  0  0  0  0  0  0  0
    3.1018    9.8016    4.3113 H   0  0  0  0  0  0  0  0  0  0  0  0
    4.7071   10.0657    4.9831 H   0  0  0  0  0  0  0  0  0  0  0  0
  1  3  1  0  0  0  0
  2  3  1  0  0  0  0
  3  4  1  0  0  0  0
  3  5  1  0  0  0  0
  4  7  1  0  0  0  0
  5 19  1  0  0  0  0
  5  6  1  0  0  0  0
  6  7  1  1  0  0  0
  6 14  1  0  0  0  0
  7  8  2  0  0  0  0
  8 10  1  0  0  0  0
  9  8  1  0  0  0  0
 10 12  2  0  0  0  0
 10 11  1  0  0  0  0
 12 13  1  0  0  0  0
 14 15  2  0  0  0  0
 14 12  1  0  0  0  0
 15 16  1  0  0  0  0
 17 18  1  0  0  0  0
 17 15  1  0  0  0  0
 19 17  2  0  0  0  0
 20 21  1  0  0  0  0
 20 19  1  0  0  0  0
 22 20  1  0  0  0  0
 23 20  1  0  0  0  0
M  END
$$$$
