CSD_code = AYODIB | q = 0 | S = 0 | Stoichiometry = C8H24B14ClNb | MND = 13
 OpenBabel04212202003D

 48 53  0  0  1  0  0  0  0  0999 V2000
    5.5571    4.9010    8.8557 Nb  0  0  0  0  0  0  0  0  0  0  0  0
    3.7875    4.9012   10.3602 Cl  0  0  0  0  0  0  0  0  0  0  0  0
    4.8225    3.3326    7.3718 C   0  0  1  0  0  0  0  0  0  0  0  0
    6.8917    3.3248    9.6893 C   0  0  1  0  0  0  0  0  0  0  0  0
    4.5659    2.3467    8.4674 C   0  0  2  0  0  0  0  0  0  0  0  0
    6.3424    3.2880    6.8893 B   0  0  0  0  0  2  0  0  0  0  0  0
    6.6012    3.7295    5.8300 H   0  0  0  0  0  0  0  0  0  0  0  0
    7.5660    3.2379    8.2408 B   0  0  0  0  0  0  0  0  0  0  0  0
    8.6611    3.6417    8.0907 H   0  0  0  0  0  0  0  0  0  0  0  0
    5.5987    2.3998    9.8061 B   0  0  0  0  0  0  0  0  0  0  0  0
    5.1174    2.1443   10.8537 H   0  0  0  0  0  0  0  0  0  0  0  0
    5.3584    1.7560    7.0100 B   0  0  2  0  0  0  0  0  0  0  0  0
    4.7466    1.2135    6.1701 H   0  0  0  0  0  0  0  0  0  0  0  0
    7.2055    1.7276    9.1948 B   0  0  1  0  0  0  0  0  0  0  0  0
    7.9889    1.1403    9.8402 H   0  0  0  0  0  0  0  0  0  0  0  0
    5.7385    1.0784    8.5631 B   0  0  1  0  0  0  0  0  0  0  0  0
    5.3519   -0.0052    8.8002 H   0  0  0  0  0  0  0  0  0  0  0  0
    7.0439    1.7246    7.4431 B   0  0  2  0  0  0  0  0  0  0  0  0
    7.7876    1.1017    6.7816 H   0  0  0  0  0  0  0  0  0  0  0  0
    3.1125    2.0161    8.7404 C   0  0  0  0  0  0  0  0  0  0  0  0
    3.0253    1.1635    9.4116 H   0  0  0  0  0  0  0  0  0  0  0  0
    2.5780    1.7800    7.8187 H   0  0  0  0  0  0  0  0  0  0  0  0
    2.6115    2.8644    9.2142 H   0  0  0  0  0  0  0  0  0  0  0  0
    3.9658    3.6185    6.7546 H   0  0  0  0  0  0  0  0  0  0  0  0
    7.4652    3.5960   10.5782 H   0  0  0  0  0  0  0  0  0  0  0  0
    4.8226    6.4694    7.3717 C   0  0  2  0  0  0  0  0  0  0  0  0
    4.5659    7.4552    8.4673 C   0  0  1  0  0  0  0  0  0  0  0  0
    6.8918    6.4772    9.6892 C   0  0  2  0  0  0  0  0  0  0  0  0
    7.5662    6.5642    8.2407 B   0  0  0  0  0  0  0  0  0  0  0  0
    6.3426    6.5141    6.8892 B   0  0  0  0  0  2  0  0  0  0  0  0
    5.3584    8.0461    7.0100 B   0  0  1  0  0  0  0  0  0  0  0  0
    5.5987    7.4021    9.8060 B   0  0  0  0  0  0  0  0  0  0  0  0
    7.2056    8.0744    9.1947 B   0  0  2  0  0  0  0  0  0  0  0  0
    6.6013    6.0727    5.8299 H   0  0  0  0  0  0  0  0  0  0  0  0
    4.7466    8.5885    6.1701 H   0  0  0  0  0  0  0  0  0  0  0  0
    5.7386    8.7236    8.5631 B   0  0  2  0  0  0  0  0  0  0  0  0
    3.1126    7.7858    8.7404 C   0  0  0  0  0  0  0  0  0  0  0  0
    3.0253    8.6383    9.4116 H   0  0  0  0  0  0  0  0  0  0  0  0
    2.5780    8.0218    7.8187 H   0  0  0  0  0  0  0  0  0  0  0  0
    2.6116    6.9374    9.2141 H   0  0  0  0  0  0  0  0  0  0  0  0
    5.1175    7.6576   10.8536 H   0  0  0  0  0  0  0  0  0  0  0  0
    7.9889    8.6618    9.8402 H   0  0  0  0  0  0  0  0  0  0  0  0
    5.3519    9.8071    8.8002 H   0  0  0  0  0  0  0  0  0  0  0  0
    7.0440    8.0775    7.4431 B   0  0  1  0  0  0  0  0  0  0  0  0
    8.6612    6.1605    8.0906 H   0  0  0  0  0  0  0  0  0  0  0  0
    7.7876    8.7005    6.7816 H   0  0  0  0  0  0  0  0  0  0  0  0
    7.4654    6.2059   10.5781 H   0  0  0  0  0  0  0  0  0  0  0  0
    3.9659    6.1834    6.7545 H   0  0  0  0  0  0  0  0  0  0  0  0
  1  2  1  0  0  0  0
  3 24  1  6  0  0  0
  3  5  1  0  0  0  0
  4 10  1  0  0  0  0
  4 25  1  1  0  0  0
  5 16  1  0  0  0  0
  5 20  1  1  0  0  0
  5 10  1  0  0  0  0
  6  3  1  0  0  0  0
  7  6  1  0  0  0  0
  8  4  1  0  0  0  0
  9  8  1  0  0  0  0
 10 11  1  0  0  0  0
 12 13  1  6  0  0  0
 12  3  1  0  0  0  0
 12 18  1  0  0  0  0
 12 16  1  0  0  0  0
 14  4  1  0  0  0  0
 14 15  1  1  0  0  0
 16 17  1  1  0  0  0
 16 14  1  0  0  0  0
 18 19  1  6  0  0  0
 18  8  1  0  0  0  0
 18 14  1  0  0  0  0
 20 23  1  0  0  0  0
 20 21  1  0  0  0  0
 22 20  1  0  0  0  0
 26 48  1  6  0  0  0
 26 27  1  0  0  0  0
 27 36  1  0  0  0  0
 27 37  1  1  0  0  0
 27 32  1  0  0  0  0
 28 32  1  0  0  0  0
 28 47  1  1  0  0  0
 29 28  1  0  0  0  0
 30 26  1  0  0  0  0
 31 35  1  6  0  0  0
 31 26  1  0  0  0  0
 31 44  1  0  0  0  0
 31 36  1  0  0  0  0
 32 41  1  0  0  0  0
 33 28  1  0  0  0  0
 33 42  1  1  0  0  0
 34 30  1  0  0  0  0
 36 43  1  1  0  0  0
 36 33  1  0  0  0  0
 37 40  1  0  0  0  0
 37 38  1  0  0  0  0
 39 37  1  0  0  0  0
 44 46  1  6  0  0  0
 44 29  1  0  0  0  0
 44 33  1  0  0  0  0
 45 29  1  0  0  0  0
M  END
$$$$
