CSD_code = AYOHAY | q = 0 | S = 0 | Stoichiometry = C14H10Br2N4Pt | MND = 4
 OpenBabel04212202003D

 31 34  0  0  0  0  0  0  0  0999 V2000
    3.7480    0.9584    3.6559 Pt  0  0  0  0  0  0  0  0  0  0  0  0
    2.6286   -1.0867    3.1815 Br  0  0  0  0  0  0  0  0  0  0  0  0
    1.8891    2.3186    3.0624 Br  0  0  0  0  0  0  0  0  0  0  0  0
    6.7604    0.1242    1.0474 N   0  0  0  0  0  0  0  0  0  0  0  0
    6.2179    2.8172    0.9926 N   0  0  0  0  0  0  0  0  0  0  0  0
    5.3909   -0.1069    4.1846 N   0  0  0  0  0  0  0  0  0  0  0  0
    4.7969    2.6303    4.0986 N   0  0  0  0  0  0  0  0  0  0  0  0
    6.4062    0.7584    2.1618 C   0  0  0  0  0  0  0  0  0  0  0  0
    6.1252    2.1389    2.1330 C   0  0  0  0  0  0  0  0  0  0  0  0
    6.5006    2.1584   -0.1164 C   0  0  0  0  0  0  0  0  0  0  0  0
    6.5298    2.7417   -1.0251 H   0  0  0  0  0  0  0  0  0  0  0  0
    6.7719    0.7962   -0.0890 C   0  0  0  0  0  0  0  0  0  0  0  0
    7.0260    0.2325   -0.9748 H   0  0  0  0  0  0  0  0  0  0  0  0
    6.4544   -0.0837    3.3766 C   0  0  0  0  0  0  0  0  0  0  0  0
    7.5631   -0.8891    3.6073 C   0  0  0  0  0  0  0  0  0  0  0  0
    8.3848   -0.8624    2.9103 H   0  0  0  0  0  0  0  0  0  0  0  0
    7.5741   -1.7183    4.7159 C   0  0  0  0  0  0  0  0  0  0  0  0
    8.4218   -2.3553    4.9144 H   0  0  0  0  0  0  0  0  0  0  0  0
    6.4659   -1.7273    5.5511 C   0  0  0  0  0  0  0  0  0  0  0  0
    6.4228   -2.3676    6.4168 H   0  0  0  0  0  0  0  0  0  0  0  0
    5.3915   -0.9148    5.2424 C   0  0  0  0  0  0  0  0  0  0  0  0
    4.4903   -0.9206    5.8432 H   0  0  0  0  0  0  0  0  0  0  0  0
    5.8171    2.9804    3.3099 C   0  0  0  0  0  0  0  0  0  0  0  0
    6.5307    4.1540    3.5194 C   0  0  0  0  0  0  0  0  0  0  0  0
    7.3268    4.4128    2.8404 H   0  0  0  0  0  0  0  0  0  0  0  0
    6.1882    4.9698    4.5844 C   0  0  0  0  0  0  0  0  0  0  0  0
    6.7266    5.8865    4.7674 H   0  0  0  0  0  0  0  0  0  0  0  0
    5.1264    4.5946    5.3953 C   0  0  0  0  0  0  0  0  0  0  0  0
    4.8113    5.2071    6.2242 H   0  0  0  0  0  0  0  0  0  0  0  0
    4.4513    3.4229    5.1108 C   0  0  0  0  0  0  0  0  0  0  0  0
    3.5922    3.1118    5.6927 H   0  0  0  0  0  0  0  0  0  0  0  0
  1  7  1  0  0  0  0
  1  6  1  0  0  0  0
  2  1  1  0  0  0  0
  3  1  1  0  0  0  0
  4  8  1  0  0  0  0
  5  9  1  0  0  0  0
  6 21  1  0  0  0  0
  7 30  1  0  0  0  0
  8 14  2  0  0  0  0
  9  8  1  0  0  0  0
  9 23  2  0  0  0  0
 10 12  1  0  0  0  0
 10  5  2  0  0  0  0
 11 10  1  0  0  0  0
 12  4  2  0  0  0  0
 13 12  1  0  0  0  0
 14 15  1  0  0  0  0
 14  6  1  0  0  0  0
 15 17  2  0  0  0  0
 16 15  1  0  0  0  0
 17 18  1  0  0  0  0
 17 19  1  0  0  0  0
 19 20  1  0  0  0  0
 21 19  2  0  0  0  0
 21 22  1  0  0  0  0
 23 24  1  0  0  0  0
 23  7  1  0  0  0  0
 24 26  2  0  0  0  0
 25 24  1  0  0  0  0
 26 27  1  0  0  0  0
 26 28  1  0  0  0  0
 28 29  1  0  0  0  0
 30 28  2  0  0  0  0
 30 31  1  0  0  0  0
M  END
$$$$
