CSD_code = AYOPAF | q = 1 | S = 0 | Stoichiometry = C21H17ClN5ORu(1+) | MND = 6
 OpenBabel04212202003D

 46 51  0  0  1  0  0  0  0  0999 V2000
   10.7836    6.9160    2.5572 Ru  0  0  0  0  0  0  0  0  0  0  0  0
   10.8524    5.4858    4.4162 Cl  0  0  0  0  0  0  0  0  0  0  0  0
   10.8810    5.4836    1.3795 C   0  0  0  0  0  2  0  0  0  0  0  0
   10.9106    4.5708    0.6988 O   0  0  0  0  0  1  0  0  0  0  0  0
    8.7839    6.9186    2.3886 N   0  0  0  0  0  0  0  0  0  0  0  0
    8.2772    7.9543    1.6869 C   0  0  0  0  0  0  0  0  0  0  0  0
    6.8998    8.1571    1.6045 C   0  0  0  0  0  0  0  0  0  0  0  0
    6.0440    7.2727    2.2366 C   0  0  0  0  0  0  0  0  0  0  0  0
    6.5831    6.1970    2.9298 C   0  0  0  0  0  0  0  0  0  0  0  0
    7.9591    6.0600    2.9821 C   0  0  0  0  0  0  0  0  0  0  0  0
   10.5512    8.3150    1.1052 N   0  0  0  0  0  0  0  0  0  0  0  0
    9.2769    8.7487    0.9688 C   0  0  0  0  0  0  0  0  0  0  0  0
    8.9674    9.8174    0.1278 C   0  0  0  0  0  0  0  0  0  0  0  0
    9.9704   10.4241   -0.6050 C   0  0  0  0  0  0  0  0  0  0  0  0
   11.2636    9.9260   -0.5020 C   0  0  0  0  0  0  0  0  0  0  0  0
   11.5040    8.8760    0.3631 C   0  0  0  0  0  0  0  0  0  0  0  0
   10.6497    8.4614    3.9391 N   0  0  0  0  0  0  0  0  0  0  0  0
   11.4901    9.4987    3.9042 C   0  0  1  0  0  3  0  0  0  0  0  0
   11.2333   10.6828    4.6041 C   0  0  0  0  0  0  0  0  0  0  0  0
   10.1169   10.7582    5.4089 C   0  0  0  0  0  0  0  0  0  0  0  0
    9.3014    9.6375    5.5215 C   0  0  0  0  0  0  0  0  0  0  0  0
    9.6046    8.5217    4.7706 C   0  0  0  0  0  0  0  0  0  0  0  0
   12.6541    9.4042    3.1571 N   0  0  0  0  0  0  0  0  0  0  0  0
   12.8260    7.0766    2.7894 N   0  0  0  0  0  0  0  0  0  0  0  0
   13.4260    8.2532    3.0018 C   0  0  1  0  0  3  0  0  0  0  0  0
   14.8169    8.3804    3.0482 C   0  0  0  0  0  0  0  0  0  0  0  0
   15.6034    7.2541    2.9244 C   0  0  0  0  0  0  0  0  0  0  0  0
   14.9749    6.0239    2.7725 C   0  0  0  0  0  0  0  0  0  0  0  0
   13.5981    5.9837    2.7084 C   0  0  0  0  0  0  0  0  0  0  0  0
    6.5011    8.9906    1.0506 H   0  0  0  0  0  0  0  0  0  0  0  0
    4.9764    7.4148    2.1818 H   0  0  0  0  0  0  0  0  0  0  0  0
    5.9509    5.4778    3.4238 H   0  0  0  0  0  0  0  0  0  0  0  0
    8.4313    5.2479    3.5243 H   0  0  0  0  0  0  0  0  0  0  0  0
    7.9518   10.1662    0.0437 H   0  0  0  0  0  0  0  0  0  0  0  0
    9.7478   11.2531   -1.2572 H   0  0  0  0  0  0  0  0  0  0  0  0
   12.0696   10.3440   -1.0823 H   0  0  0  0  0  0  0  0  0  0  0  0
   12.4972    8.4558    0.4605 H   0  0  0  0  0  0  0  0  0  0  0  0
   11.9183   11.5125    4.5237 H   0  0  0  0  0  0  0  0  0  0  0  0
    9.9010   11.6588    5.9614 H   0  0  0  0  0  0  0  0  0  0  0  0
    8.4476    9.6321    6.1777 H   0  0  0  0  0  0  0  0  0  0  0  0
    9.0064    7.6225    4.8507 H   0  0  0  0  0  0  0  0  0  0  0  0
   13.2116   10.2496    3.1877 H   0  0  0  0  0  0  0  0  0  0  0  0
   15.2609    9.3526    3.1975 H   0  0  0  0  0  0  0  0  0  0  0  0
   16.6782    7.3295    2.9634 H   0  0  0  0  0  0  0  0  0  0  0  0
   15.5435    5.1122    2.7005 H   0  0  0  0  0  0  0  0  0  0  0  0
   13.0796    5.0392    2.5987 H   0  0  0  0  0  0  0  0  0  0  0  0
  1 24  1  0  0  0  0
  1 17  1  0  0  0  0
  1  2  1  0  0  0  0
  3  1  1  0  0  0  0
  4  3  1  0  0  0  0
  5  1  1  0  0  0  0
  5 10  1  0  0  0  0
  6  5  1  0  0  0  0
  7  6  1  0  0  0  0
  7  8  2  0  0  0  0
  8  9  1  0  0  0  0
  9 10  2  0  0  0  0
  9 32  1  0  0  0  0
 10 33  1  0  0  0  0
 11  1  1  0  0  0  0
 12 11  1  0  0  0  0
 12  6  2  0  0  0  0
 13 12  1  0  0  0  0
 14 15  1  0  0  0  0
 14 13  2  0  0  0  0
 15 16  2  0  0  0  0
 16 37  1  0  0  0  0
 16 11  1  0  0  0  0
 17 22  1  0  0  0  0
 18 17  1  0  0  0  0
 18 19  1  1  0  0  0
 19 20  2  0  0  0  0
 20 21  1  0  0  0  0
 20 39  1  0  0  0  0
 21 40  1  0  0  0  0
 22 41  1  0  0  0  0
 22 21  2  0  0  0  0
 23 42  1  0  0  0  0
 23 18  1  0  0  0  0
 24 25  1  0  0  0  0
 25 26  1  6  0  0  0
 25 23  1  0  0  0  0
 26 43  1  0  0  0  0
 27 44  1  0  0  0  0
 27 26  2  0  0  0  0
 28 27  1  0  0  0  0
 29 28  2  0  0  0  0
 29 24  1  0  0  0  0
 30  7  1  0  0  0  0
 31  8  1  0  0  0  0
 34 13  1  0  0  0  0
 35 14  1  0  0  0  0
 36 15  1  0  0  0  0
 38 19  1  0  0  0  0
 45 28  1  0  0  0  0
 46 29  1  0  0  0  0
M  END
$$$$
