CSD_code = AYUCII | q = 0 | S = 0 | Stoichiometry = C26H44FFeINP3 | MND = 6
 OpenBabel04212202003D

 77 79  0  0  1  0  0  0  0  0999 V2000
    1.3301    9.2872   -0.2774 C   0  0  2  0  0  3  0  0  0  0  0  0
    4.1353    7.9626    1.2740 P   0  0  0  0  0  4  0  0  0  0  0  0
    5.3214   11.0086    0.4987 I   0  0  0  0  0  0  0  0  0  0  0  0
    3.2813    9.9433    1.6105 Fe  0  0  0  0  0  0  0  0  0  0  0  0
    4.0434   10.1177    3.6836 P   0  0  0  0  0  4  0  0  0  0  0  0
    2.2942   11.8937    1.6398 P   0  0  0  0  0  4  0  0  0  0  0  0
    2.5128    9.7905   -0.1182 N   0  0  0  0  0  0  0  0  0  0  0  0
    1.1684    8.6250    3.3036 C   0  0  0  0  0  0  0  0  0  0  0  0
    1.7553    8.8288    4.1841 H   0  0  0  0  0  0  0  0  0  0  0  0
    0.6388    9.3431   -1.5679 C   0  0  0  0  0  0  0  0  0  0  0  0
   -1.2978    9.9033   -2.8802 C   0  0  0  0  0  0  0  0  0  0  0  0
   -2.3167   10.2590   -2.9058 H   0  0  0  0  0  0  0  0  0  0  0  0
    1.6246    9.0661    2.0670 C   0  0  0  0  0  0  0  0  0  0  0  0
   -0.6758    9.7959   -1.6551 C   0  0  0  0  0  0  0  0  0  0  0  0
   -1.2072   10.0788   -0.7575 H   0  0  0  0  0  0  0  0  0  0  0  0
   -0.0084    7.9190    3.4577 C   0  0  0  0  0  0  0  0  0  0  0  0
   -0.3252    7.6001    4.4414 H   0  0  0  0  0  0  0  0  0  0  0  0
   -0.6455    9.5650   -4.0647 C   0  0  0  0  0  0  0  0  0  0  0  0
    0.6712    9.1307   -3.9700 C   0  0  0  0  0  0  0  0  0  0  0  0
    1.2276    8.8620   -4.8530 H   0  0  0  0  0  0  0  0  0  0  0  0
    1.3076    9.0311   -2.7471 C   0  0  0  0  0  0  0  0  0  0  0  0
    2.3307    8.6825   -2.7104 H   0  0  0  0  0  0  0  0  0  0  0  0
   -0.7803    7.5858    2.3536 C   0  0  0  0  0  0  0  0  0  0  0  0
   -1.6812    6.9999    2.4441 H   0  0  0  0  0  0  0  0  0  0  0  0
    0.7956    8.7736    0.9541 C   0  0  0  0  0  0  0  0  0  0  0  0
   -1.3860    9.6819   -5.3863 C   0  0  0  0  0  0  0  0  0  0  0  0
   -1.8263   11.1388   -5.5885 C   0  0  0  0  0  0  0  0  0  0  0  0
   -2.4948   11.4659   -4.7968 H   0  0  0  0  0  0  0  0  0  0  0  0
   -2.3475   11.2430   -6.5377 H   0  0  0  0  0  0  0  0  0  0  0  0
   -0.9593   11.7965   -5.5970 H   0  0  0  0  0  0  0  0  0  0  0  0
   -2.6176    8.7659   -5.3464 C   0  0  0  0  0  0  0  0  0  0  0  0
   -2.3134    7.7344   -5.1808 H   0  0  0  0  0  0  0  0  0  0  0  0
   -3.1556    8.8204   -6.2905 H   0  0  0  0  0  0  0  0  0  0  0  0
   -3.2986    9.0507   -4.5493 H   0  0  0  0  0  0  0  0  0  0  0  0
    3.3761    6.4926    2.0708 C   0  0  0  0  0  0  0  0  0  0  0  0
    2.3493    6.4078    1.7176 H   0  0  0  0  0  0  0  0  0  0  0  0
    3.3558    6.5985    3.1516 H   0  0  0  0  0  0  0  0  0  0  0  0
    3.9301    5.5939    1.7973 H   0  0  0  0  0  0  0  0  0  0  0  0
    3.1056   11.0410    4.9771 C   0  0  0  0  0  0  0  0  0  0  0  0
    3.6642   11.0065    5.9135 H   0  0  0  0  0  0  0  0  0  0  0  0
    2.1244   10.6003    5.1345 H   0  0  0  0  0  0  0  0  0  0  0  0
    2.9718   12.0791    4.6829 H   0  0  0  0  0  0  0  0  0  0  0  0
    3.1738   13.3998    2.2230 C   0  0  0  0  0  0  0  0  0  0  0  0
    3.8900   13.6862    1.4524 H   0  0  0  0  0  0  0  0  0  0  0  0
    3.7221   13.2209    3.1446 H   0  0  0  0  0  0  0  0  0  0  0  0
    2.4588   14.2093    2.3754 H   0  0  0  0  0  0  0  0  0  0  0  0
    1.7615   12.5833    0.0227 C   0  0  0  0  0  0  0  0  0  0  0  0
    0.9870   11.9658   -0.4304 H   0  0  0  0  0  0  0  0  0  0  0  0
    2.6196   12.6397   -0.6477 H   0  0  0  0  0  0  0  0  0  0  0  0
    1.3704   13.5890    0.1833 H   0  0  0  0  0  0  0  0  0  0  0  0
    5.6607   10.9592    3.9199 C   0  0  0  0  0  0  0  0  0  0  0  0
    5.6352   11.9571    3.4860 H   0  0  0  0  0  0  0  0  0  0  0  0
    6.4433   10.3985    3.4104 H   0  0  0  0  0  0  0  0  0  0  0  0
    5.8944   11.0278    4.9831 H   0  0  0  0  0  0  0  0  0  0  0  0
    0.6899   12.0230    2.5204 C   0  0  0  0  0  0  0  0  0  0  0  0
    0.2948   13.0367    2.4470 H   0  0  0  0  0  0  0  0  0  0  0  0
    0.8024   11.7433    3.5643 H   0  0  0  0  0  0  0  0  0  0  0  0
   -0.0051   11.3246    2.0555 H   0  0  0  0  0  0  0  0  0  0  0  0
    4.4212    8.6269    4.7036 C   0  0  0  0  0  0  0  0  0  0  0  0
    5.0790    7.9522    4.1613 H   0  0  0  0  0  0  0  0  0  0  0  0
    3.5107    8.0903    4.9596 H   0  0  0  0  0  0  0  0  0  0  0  0
    4.9154    8.9419    5.6238 H   0  0  0  0  0  0  0  0  0  0  0  0
    5.9291    7.6670    1.5626 C   0  0  0  0  0  0  0  0  0  0  0  0
    6.1220    6.5993    1.6723 H   0  0  0  0  0  0  0  0  0  0  0  0
    6.2848    8.1966    2.4440 H   0  0  0  0  0  0  0  0  0  0  0  0
    6.4753    8.0511    0.7012 H   0  0  0  0  0  0  0  0  0  0  0  0
    4.0791    7.3578   -0.4559 C   0  0  0  0  0  0  0  0  0  0  0  0
    4.6272    6.4167   -0.5220 H   0  0  0  0  0  0  0  0  0  0  0  0
    4.5483    8.0926   -1.1106 H   0  0  0  0  0  0  0  0  0  0  0  0
    3.0462    7.1967   -0.7630 H   0  0  0  0  0  0  0  0  0  0  0  0
   -0.5248    9.2733   -6.5844 C   0  0  0  0  0  0  0  0  0  0  0  0
    0.3517    9.9113   -6.6734 H   0  0  0  0  0  0  0  0  0  0  0  0
   -1.1063    9.3735   -7.4986 H   0  0  0  0  0  0  0  0  0  0  0  0
   -0.2058    8.2367   -6.5024 H   0  0  0  0  0  0  0  0  0  0  0  0
    2.9350   10.1803   -0.9612 H   0  0  0  0  0  0  0  0  0  0  0  0
   -0.3602    8.0113    1.1141 C   0  0  0  0  0  0  0  0  0  0  0  0
   -1.0905    7.6326    0.0322 F   0  0  0  0  0  0  0  0  0  0  0  0
  1 10  1  1  0  0  0
  1  7  1  0  0  0  0
  1 25  1  0  0  0  0
  2 63  1  0  0  0  0
  2  4  1  0  0  0  0
  2 35  1  0  0  0  0
  3  4  1  0  0  0  0
  4  6  1  0  0  0  0
  4 13  1  0  0  0  0
  4  5  1  0  0  0  0
  5 51  1  0  0  0  0
  5 59  1  0  0  0  0
  5 39  1  0  0  0  0
  6 43  1  0  0  0  0
  6 55  1  0  0  0  0
  7  4  1  0  0  0  0
  8 16  1  0  0  0  0
  8  9  1  0  0  0  0
 11 14  2  0  0  0  0
 12 11  1  0  0  0  0
 13  8  2  0  0  0  0
 14 10  1  0  0  0  0
 14 15  1  0  0  0  0
 16 17  1  0  0  0  0
 18 19  2  0  0  0  0
 18 11  1  0  0  0  0
 19 21  1  0  0  0  0
 20 19  1  0  0  0  0
 21 22  1  0  0  0  0
 21 10  2  0  0  0  0
 23 24  1  0  0  0  0
 23 16  2  0  0  0  0
 25 76  2  0  0  0  0
 25 13  1  0  0  0  0
 26 31  1  0  0  0  0
 26 18  1  0  0  0  0
 27 26  1  0  0  0  0
 27 28  1  0  0  0  0
 29 27  1  0  0  0  0
 30 27  1  0  0  0  0
 31 32  1  0  0  0  0
 31 34  1  0  0  0  0
 33 31  1  0  0  0  0
 35 37  1  0  0  0  0
 36 35  1  0  0  0  0
 38 35  1  0  0  0  0
 39 41  1  0  0  0  0
 39 40  1  0  0  0  0
 42 39  1  0  0  0  0
 43 46  1  0  0  0  0
 43 45  1  0  0  0  0
 44 43  1  0  0  0  0
 47 50  1  0  0  0  0
 47  6  1  0  0  0  0
 48 47  1  0  0  0  0
 49 47  1  0  0  0  0
 51 54  1  0  0  0  0
 52 51  1  0  0  0  0
 53 51  1  0  0  0  0
 55 57  1  0  0  0  0
 56 55  1  0  0  0  0
 58 55  1  0  0  0  0
 59 61  1  0  0  0  0
 59 62  1  0  0  0  0
 60 59  1  0  0  0  0
 63 64  1  0  0  0  0
 63 65  1  0  0  0  0
 66 63  1  0  0  0  0
 67  2  1  0  0  0  0
 68 67  1  0  0  0  0
 69 67  1  0  0  0  0
 70 67  1  0  0  0  0
 71 74  1  0  0  0  0
 71 26  1  0  0  0  0
 72 71  1  0  0  0  0
 73 71  1  0  0  0  0
 75  7  1  0  0  0  0
 76 23  1  0  0  0  0
 77 76  1  0  0  0  0
M  END
$$$$
