CSD_code = AZAJIW | q = 0 | S = 0 | Stoichiometry = C16H26BrClN2O3RuS3 | MND = 6
 OpenBabel04212202003D

 53 55  0  0  1  0  0  0  0  0999 V2000
   -2.6878    3.7352    5.5669 Ru  0  0  0  0  0  0  0  0  0  0  0  0
   -1.0302    7.9022    9.4417 Br  0  0  0  0  0  0  0  0  0  0  0  0
   -3.2873    1.5567    4.7970 Cl  0  0  0  0  0  0  0  0  0  0  0  0
   -4.8314    4.1846    6.1283 S   0  0  0  0  0  0  0  0  0  0  0  0
   -2.3936    2.5570    7.5923 S   0  0  0  0  0  0  0  0  0  0  0  0
   -0.5133    3.3994    5.0547 S   0  0  0  0  0  0  0  0  0  0  0  0
   -5.1012    4.2589    7.5501 O   0  0  0  0  0  1  0  0  0  0  0  0
   -1.9355    3.2888    8.7576 O   0  0  0  0  0  1  0  0  0  0  0  0
    0.3695    3.1592    6.1781 O   0  0  0  0  0  1  0  0  0  0  0  0
   -3.2594    4.5622    2.5463 N   0  0  0  0  0  0  0  0  0  0  0  0
   -2.6646    6.0970    3.9329 N   0  0  0  0  0  0  0  0  0  0  0  0
   -2.9234    4.7693    3.8334 C   0  0  2  0  0  3  0  0  0  0  0  0
   -2.8370    6.7123    2.7256 C   0  0  0  0  0  0  0  0  0  0  0  0
   -3.2116    5.7451    1.8528 C   0  0  0  0  0  0  0  0  0  0  0  0
   -2.2779    6.5954    5.1909 C   0  0  0  0  0  0  0  0  0  0  0  0
   -2.2048    5.6088    6.1861 C   0  0  0  0  0  0  0  0  0  0  0  0
   -1.8294    6.0183    7.4534 C   0  0  0  0  0  0  0  0  0  0  0  0
   -1.5460    7.3534    7.6925 C   0  0  0  0  0  0  0  0  0  0  0  0
   -1.6239    8.3174    6.7003 C   0  0  0  0  0  0  0  0  0  0  0  0
   -1.9963    7.9328    5.4248 C   0  0  0  0  0  0  0  0  0  0  0  0
   -3.6230    3.3008    1.9577 C   0  0  0  0  0  0  0  0  0  0  0  0
   -5.5241    5.7327    5.4378 C   0  0  0  0  0  0  0  0  0  0  0  0
   -6.1025    3.0825    5.4173 C   0  0  0  0  0  0  0  0  0  0  0  0
   -3.8575    1.6129    8.1460 C   0  0  0  0  0  0  0  0  0  0  0  0
   -1.3135    1.0876    7.4733 C   0  0  0  0  0  0  0  0  0  0  0  0
   -0.1817    2.0700    3.8463 C   0  0  0  0  0  0  0  0  0  0  0  0
    0.2992    4.7321    4.0971 C   0  0  0  0  0  0  0  0  0  0  0  0
   -2.6878    7.7600    2.5682 H   0  0  0  0  0  0  0  0  0  0  0  0
   -3.4440    5.8049    0.8093 H   0  0  0  0  0  0  0  0  0  0  0  0
   -1.7564    5.2943    8.2514 H   0  0  0  0  0  0  0  0  0  0  0  0
   -1.3983    9.3490    6.9200 H   0  0  0  0  0  0  0  0  0  0  0  0
   -2.0631    8.6690    4.6375 H   0  0  0  0  0  0  0  0  0  0  0  0
   -3.5722    2.5232    2.7228 H   0  0  0  0  0  0  0  0  0  0  0  0
   -2.9412    3.0536    1.1428 H   0  0  0  0  0  0  0  0  0  0  0  0
   -4.6373    3.3488    1.5585 H   0  0  0  0  0  0  0  0  0  0  0  0
   -4.9139    6.5522    5.8022 H   0  0  0  0  0  0  0  0  0  0  0  0
   -6.5358    5.8340    5.8126 H   0  0  0  0  0  0  0  0  0  0  0  0
   -5.5074    5.6890    4.3549 H   0  0  0  0  0  0  0  0  0  0  0  0
   -7.0650    3.3597    5.8302 H   0  0  0  0  0  0  0  0  0  0  0  0
   -5.8523    2.0618    5.6855 H   0  0  0  0  0  0  0  0  0  0  0  0
   -6.0759    3.1887    4.3395 H   0  0  0  0  0  0  0  0  0  0  0  0
   -3.5764    1.0606    9.0349 H   0  0  0  0  0  0  0  0  0  0  0  0
   -4.1566    0.9445    7.3459 H   0  0  0  0  0  0  0  0  0  0  0  0
   -4.6409    2.3245    8.3813 H   0  0  0  0  0  0  0  0  0  0  0  0
   -1.3391    0.5809    8.4307 H   0  0  0  0  0  0  0  0  0  0  0  0
   -0.3086    1.4338    7.2601 H   0  0  0  0  0  0  0  0  0  0  0  0
   -1.6873    0.4502    6.6796 H   0  0  0  0  0  0  0  0  0  0  0  0
   -0.6916    1.1749    4.1875 H   0  0  0  0  0  0  0  0  0  0  0  0
    0.8886    1.9079    3.8032 H   0  0  0  0  0  0  0  0  0  0  0  0
   -0.5851    2.3731    2.8877 H   0  0  0  0  0  0  0  0  0  0  0  0
    1.3360    4.4485    3.9593 H   0  0  0  0  0  0  0  0  0  0  0  0
    0.2413    5.6383    4.6908 H   0  0  0  0  0  0  0  0  0  0  0  0
   -0.2044    4.8607    3.1461 H   0  0  0  0  0  0  0  0  0  0  0  0
  1  4  1  0  0  0  0
  1 16  1  0  0  0  0
  1  5  1  0  0  0  0
  3  1  1  0  0  0  0
  4  7  1  0  0  0  0
  5 24  1  0  0  0  0
  5  8  1  0  0  0  0
  6  1  1  0  0  0  0
  6  9  1  0  0  0  0
 11 15  1  0  0  0  0
 12 10  1  6  0  0  0
 12 11  1  0  0  0  0
 12  1  1  0  0  0  0
 13 11  1  0  0  0  0
 14 10  1  0  0  0  0
 14 13  2  0  0  0  0
 15 20  2  0  0  0  0
 15 16  1  0  0  0  0
 16 17  2  0  0  0  0
 17 18  1  0  0  0  0
 17 30  1  0  0  0  0
 18  2  1  0  0  0  0
 19 31  1  0  0  0  0
 19 18  2  0  0  0  0
 20 19  1  0  0  0  0
 21 10  1  0  0  0  0
 21 33  1  0  0  0  0
 22 36  1  0  0  0  0
 22 37  1  0  0  0  0
 22  4  1  0  0  0  0
 23 40  1  0  0  0  0
 23 39  1  0  0  0  0
 23  4  1  0  0  0  0
 24 44  1  0  0  0  0
 24 42  1  0  0  0  0
 25  5  1  0  0  0  0
 25 45  1  0  0  0  0
 26 48  1  0  0  0  0
 26  6  1  0  0  0  0
 27 52  1  0  0  0  0
 27  6  1  0  0  0  0
 28 13  1  0  0  0  0
 29 14  1  0  0  0  0
 32 20  1  0  0  0  0
 34 21  1  0  0  0  0
 35 21  1  0  0  0  0
 38 22  1  0  0  0  0
 41 23  1  0  0  0  0
 43 24  1  0  0  0  0
 46 25  1  0  0  0  0
 47 25  1  0  0  0  0
 49 26  1  0  0  0  0
 50 26  1  0  0  0  0
 51 27  1  0  0  0  0
 53 27  1  0  0  0  0
M  END
$$$$
