CSD_code = AZAQAV | q = 0 | S = 0 | Stoichiometry = C28H24Cl2N2Pd | MND = 4
 OpenBabel04212202003D

 57 62  0  0  0  0  0  0  0  0999 V2000
   10.9238   13.2274   11.0501 Pd  0  0  0  0  0  0  0  0  0  0  0  0
   11.4042   13.7031   13.1581 Cl  0  0  0  0  0  0  0  0  0  0  0  0
   10.0227   11.3386   11.7716 Cl  0  0  0  0  0  0  0  0  0  0  0  0
   11.8216   14.8629   10.2891 N   0  0  0  0  0  0  0  0  0  0  0  0
   10.6360   12.8334    9.0954 N   0  0  0  0  0  0  0  0  0  0  0  0
   12.4000   15.8707   11.0604 C   0  0  0  0  0  0  0  0  0  0  0  0
   13.7599   16.1645   10.9689 C   0  0  0  0  0  0  0  0  0  0  0  0
   14.3794   15.6048   10.2817 H   0  0  0  0  0  0  0  0  0  0  0  0
   14.3190   17.1233   11.7975 C   0  0  0  0  0  0  0  0  0  0  0  0
   13.5037   17.7892   12.7062 C   0  0  0  0  0  0  0  0  0  0  0  0
   13.9421   18.5334   13.3557 H   0  0  0  0  0  0  0  0  0  0  0  0
   12.1495   17.5036   12.8137 C   0  0  0  0  0  0  0  0  0  0  0  0
   11.6008   16.5359   11.9860 C   0  0  0  0  0  0  0  0  0  0  0  0
   10.5494   16.2816   12.0506 H   0  0  0  0  0  0  0  0  0  0  0  0
   15.7873   17.4172   11.7355 C   0  0  0  0  0  0  0  0  0  0  0  0
   16.3134   16.8197   12.4800 H   0  0  0  0  0  0  0  0  0  0  0  0
   15.9819   18.4657   11.9492 H   0  0  0  0  0  0  0  0  0  0  0  0
   16.1950   17.1724   10.7575 H   0  0  0  0  0  0  0  0  0  0  0  0
   11.2842   18.1946   13.8206 C   0  0  0  0  0  0  0  0  0  0  0  0
   10.9092   17.4662   14.5377 H   0  0  0  0  0  0  0  0  0  0  0  0
   10.4256   18.6568   13.3358 H   0  0  0  0  0  0  0  0  0  0  0  0
   11.8393   18.9594   14.3571 H   0  0  0  0  0  0  0  0  0  0  0  0
    9.9696   11.7083    8.6110 C   0  0  0  0  0  0  0  0  0  0  0  0
   10.6153   10.7767    7.7982 C   0  0  0  0  0  0  0  0  0  0  0  0
   11.6518   10.9329    7.5329 H   0  0  0  0  0  0  0  0  0  0  0  0
    9.9491    9.6334    7.3907 C   0  0  0  0  0  0  0  0  0  0  0  0
    8.6320    9.4390    7.7941 C   0  0  0  0  0  0  0  0  0  0  0  0
    8.1153    8.5435    7.4795 H   0  0  0  0  0  0  0  0  0  0  0  0
    7.9780   10.3530    8.6082 C   0  0  0  0  0  0  0  0  0  0  0  0
    8.6568   11.4907    9.0187 C   0  0  0  0  0  0  0  0  0  0  0  0
    8.1801   12.2184    9.6648 H   0  0  0  0  0  0  0  0  0  0  0  0
   10.6281    8.6241    6.5150 C   0  0  0  0  0  0  0  0  0  0  0  0
   10.2747    8.7204    5.4879 H   0  0  0  0  0  0  0  0  0  0  0  0
   10.4038    7.6143    6.8506 H   0  0  0  0  0  0  0  0  0  0  0  0
   11.7057    8.7650    6.5204 H   0  0  0  0  0  0  0  0  0  0  0  0
    6.5761   10.1173    9.0763 C   0  0  0  0  0  0  0  0  0  0  0  0
    5.9456   10.9750    8.8481 H   0  0  0  0  0  0  0  0  0  0  0  0
    6.5731    9.9802   10.1566 H   0  0  0  0  0  0  0  0  0  0  0  0
    6.1498    9.2324    8.6110 H   0  0  0  0  0  0  0  0  0  0  0  0
   11.9174   14.8051    8.9907 C   0  0  0  0  0  0  0  0  0  0  0  0
   11.2624   13.6829    8.3309 C   0  0  0  0  0  0  0  0  0  0  0  0
   11.3767   13.8747    6.8898 C   0  0  0  0  0  0  0  0  0  0  0  0
   12.0898   15.0901    6.7248 C   0  0  0  0  0  0  0  0  0  0  0  0
   12.4385   15.6955    7.9598 C   0  0  0  0  0  0  0  0  0  0  0  0
   13.0837   16.9098    7.9341 C   0  0  0  0  0  0  0  0  0  0  0  0
   13.3519   17.4306    8.8403 H   0  0  0  0  0  0  0  0  0  0  0  0
   13.3908   17.4839    6.6874 C   0  0  0  0  0  0  0  0  0  0  0  0
   13.9041   18.4343    6.6797 H   0  0  0  0  0  0  0  0  0  0  0  0
   13.0631   16.8897    5.4935 C   0  0  0  0  0  0  0  0  0  0  0  0
   13.3175   17.3665    4.5584 H   0  0  0  0  0  0  0  0  0  0  0  0
   12.3761   15.6551    5.4791 C   0  0  0  0  0  0  0  0  0  0  0  0
   11.9255   14.9392    4.3473 C   0  0  0  0  0  0  0  0  0  0  0  0
   12.1274   15.3263    3.3595 H   0  0  0  0  0  0  0  0  0  0  0  0
   11.2246   13.7689    4.5044 C   0  0  0  0  0  0  0  0  0  0  0  0
   10.8762   13.2415    3.6284 H   0  0  0  0  0  0  0  0  0  0  0  0
   10.9319   13.2193    5.7655 C   0  0  0  0  0  0  0  0  0  0  0  0
   10.3638   12.3041    5.8283 H   0  0  0  0  0  0  0  0  0  0  0  0
  1  3  1  0  0  0  0
  1  2  1  0  0  0  0
  4  1  1  0  0  0  0
  4  6  1  0  0  0  0
  5  1  1  0  0  0  0
  6 13  1  0  0  0  0
  7  6  2  0  0  0  0
  7  9  1  0  0  0  0
  8  7  1  0  0  0  0
  9 10  2  0  0  0  0
 10 12  1  0  0  0  0
 10 11  1  0  0  0  0
 12 19  1  0  0  0  0
 13 14  1  0  0  0  0
 13 12  2  0  0  0  0
 15  9  1  0  0  0  0
 15 17  1  0  0  0  0
 15 16  1  0  0  0  0
 18 15  1  0  0  0  0
 19 22  1  0  0  0  0
 19 20  1  0  0  0  0
 21 19  1  0  0  0  0
 23 30  1  0  0  0  0
 23  5  1  0  0  0  0
 24 23  2  0  0  0  0
 25 24  1  0  0  0  0
 26 27  2  0  0  0  0
 26 24  1  0  0  0  0
 27 29  1  0  0  0  0
 28 27  1  0  0  0  0
 29 30  2  0  0  0  0
 29 36  1  0  0  0  0
 30 31  1  0  0  0  0
 32 35  1  0  0  0  0
 32 34  1  0  0  0  0
 32 26  1  0  0  0  0
 33 32  1  0  0  0  0
 36 38  1  0  0  0  0
 37 36  1  0  0  0  0
 39 36  1  0  0  0  0
 40  4  1  0  0  0  0
 41 40  2  0  0  0  0
 41  5  1  0  0  0  0
 42 41  1  0  0  0  0
 43 42  1  0  0  0  0
 43 44  2  0  0  0  0
 44 40  1  0  0  0  0
 45 44  1  0  0  0  0
 45 46  1  0  0  0  0
 47 45  2  0  0  0  0
 48 47  1  0  0  0  0
 49 47  1  0  0  0  0
 50 49  1  0  0  0  0
 51 49  2  0  0  0  0
 51 43  1  0  0  0  0
 52 54  2  0  0  0  0
 52 51  1  0  0  0  0
 53 52  1  0  0  0  0
 54 56  1  0  0  0  0
 55 54  1  0  0  0  0
 56 57  1  0  0  0  0
 56 42  2  0  0  0  0
M  END
$$$$
