CSD_code = AZEREC | q = 0 | S = 0 | Stoichiometry = C16H24Br2N8Ni | MND = 6
 OpenBabel04212202003D

 51 54  0  0  1  0  0  0  0  0999 V2000
    3.6890   -1.8627    3.9160 Br  0  0  0  0  0  0  0  0  0  0  0  0
    6.2881   -0.7579    4.4642 Ni  0  0  0  0  0  0  0  0  0  0  0  0
    4.5128    1.0169    3.1684 N   0  0  0  0  0  0  0  0  0  0  0  0
    3.9184    0.1740    3.1204 H   0  0  0  0  0  0  0  0  0  0  0  0
    5.6966    0.9228    3.7793 N   0  0  0  0  0  0  0  0  0  0  0  0
    8.1098   -0.8741    2.2738 N   0  0  0  0  0  0  0  0  0  0  0  0
    8.7057   -0.3348    2.9213 H   0  0  0  0  0  0  0  0  0  0  0  0
    6.9026   -1.2577    2.6958 N   0  0  0  0  0  0  0  0  0  0  0  0
    3.0086    2.6373    2.0621 C   0  0  0  0  0  0  0  0  0  0  0  0
    2.2583    1.8618    2.1959 H   0  0  0  0  0  0  0  0  0  0  0  0
    3.1954    2.7584    0.9953 H   0  0  0  0  0  0  0  0  0  0  0  0
    2.6227    3.5793    2.4453 H   0  0  0  0  0  0  0  0  0  0  0  0
    4.2609    2.2694    2.7671 C   0  0  2  0  0  3  0  0  0  0  0  0
    5.3603    3.0255    3.1369 C   0  0  0  0  0  0  0  0  0  0  0  0
    5.5142    4.0724    2.9775 H   0  0  0  0  0  0  0  0  0  0  0  0
    6.2279    2.1376    3.7677 C   0  0  0  0  0  0  0  0  0  0  0  0
    7.1874    2.3436    4.1989 H   0  0  0  0  0  0  0  0  0  0  0  0
    9.6558   -1.0543    0.3528 C   0  0  0  0  0  0  0  0  0  0  0  0
   10.1196   -0.1562    0.7538 H   0  0  0  0  0  0  0  0  0  0  0  0
    9.4978   -0.9320   -0.7157 H   0  0  0  0  0  0  0  0  0  0  0  0
   10.3414   -1.8890    0.5013 H   0  0  0  0  0  0  0  0  0  0  0  0
    8.3675   -1.3216    1.0378 C   0  0  1  0  0  3  0  0  0  0  0  0
    7.2488   -2.0338    0.6404 C   0  0  0  0  0  0  0  0  0  0  0  0
    7.0934   -2.5339   -0.2929 H   0  0  0  0  0  0  0  0  0  0  0  0
    6.3630   -1.9650    1.7128 C   0  0  0  0  0  0  0  0  0  0  0  0
    5.3846   -2.3954    1.7940 H   0  0  0  0  0  0  0  0  0  0  0  0
    8.8888    0.3464    5.0121 Br  0  0  0  0  0  0  0  0  0  0  0  0
    6.8798   -2.4385    5.1493 N   0  0  0  0  0  0  0  0  0  0  0  0
    8.0647   -2.5325    5.7579 N   0  0  0  0  0  0  0  0  0  0  0  0
    8.6592   -1.6894    5.8048 H   0  0  0  0  0  0  0  0  0  0  0  0
    8.3174   -3.7847    6.1593 C   0  0  1  0  0  3  0  0  0  0  0  0
    9.5712   -4.1521    6.8620 C   0  0  0  0  0  0  0  0  0  0  0  0
   10.3216   -3.3773    6.7249 H   0  0  0  0  0  0  0  0  0  0  0  0
    9.3870   -4.2709    7.9296 H   0  0  0  0  0  0  0  0  0  0  0  0
    9.9556   -5.0950    6.4798 H   0  0  0  0  0  0  0  0  0  0  0  0
    7.2171   -4.5409    5.7921 C   0  0  0  0  0  0  0  0  0  0  0  0
    7.0636   -5.5877    5.9524 H   0  0  0  0  0  0  0  0  0  0  0  0
    6.3483   -3.6533    5.1626 C   0  0  0  0  0  0  0  0  0  0  0  0
    5.3879   -3.8591    4.7335 H   0  0  0  0  0  0  0  0  0  0  0  0
    5.6728   -0.2588    6.2323 N   0  0  0  0  0  0  0  0  0  0  0  0
    4.4644   -0.6408    6.6525 N   0  0  0  0  0  0  0  0  0  0  0  0
    3.8688   -1.1796    6.0042 H   0  0  0  0  0  0  0  0  0  0  0  0
    4.2055   -0.1932    7.8881 C   0  0  2  0  0  3  0  0  0  0  0  0
    2.9157   -0.4589    8.5710 C   0  0  0  0  0  0  0  0  0  0  0  0
    2.4501   -1.3548    8.1669 H   0  0  0  0  0  0  0  0  0  0  0  0
    3.0720   -0.5846    9.6394 H   0  0  0  0  0  0  0  0  0  0  0  0
    2.2325    0.3779    8.4239 H   0  0  0  0  0  0  0  0  0  0  0  0
    5.3245    0.5177    8.2873 C   0  0  0  0  0  0  0  0  0  0  0  0
    5.4791    1.0175    9.2207 H   0  0  0  0  0  0  0  0  0  0  0  0
    6.2118    0.4477    7.2161 C   0  0  0  0  0  0  0  0  0  0  0  0
    7.1909    0.8768    7.1365 H   0  0  0  0  0  0  0  0  0  0  0  0
  1  2  1  0  0  0  0
  2 27  1  0  0  0  0
  2 28  1  0  0  0  0
  2 40  1  0  0  0  0
  3  5  1  0  0  0  0
  4  3  1  0  0  0  0
  5  2  1  0  0  0  0
  6  8  1  0  0  0  0
  6  7  1  0  0  0  0
  8  2  1  0  0  0  0
  9 10  1  0  0  0  0
  9 12  1  0  0  0  0
 11  9  1  0  0  0  0
 13  9  1  6  0  0  0
 13 14  1  0  0  0  0
 13  3  1  0  0  0  0
 14 16  2  0  0  0  0
 15 14  1  0  0  0  0
 16  5  1  0  0  0  0
 16 17  1  0  0  0  0
 18 21  1  0  0  0  0
 18 19  1  0  0  0  0
 20 18  1  0  0  0  0
 22 18  1  1  0  0  0
 22  6  1  0  0  0  0
 23 22  1  0  0  0  0
 23 25  2  0  0  0  0
 24 23  1  0  0  0  0
 25 26  1  0  0  0  0
 25  8  1  0  0  0  0
 28 38  1  0  0  0  0
 28 29  1  0  0  0  0
 29 30  1  0  0  0  0
 29 31  1  0  0  0  0
 31 32  1  1  0  0  0
 32 34  1  0  0  0  0
 33 32  1  0  0  0  0
 35 32  1  0  0  0  0
 36 37  1  0  0  0  0
 36 31  1  0  0  0  0
 38 36  2  0  0  0  0
 39 38  1  0  0  0  0
 40 41  1  0  0  0  0
 40 50  1  0  0  0  0
 41 43  1  0  0  0  0
 42 41  1  0  0  0  0
 43 48  1  0  0  0  0
 43 44  1  6  0  0  0
 44 46  1  0  0  0  0
 45 44  1  0  0  0  0
 47 44  1  0  0  0  0
 48 49  1  0  0  0  0
 50 48  2  0  0  0  0
 51 50  1  0  0  0  0
M  END
$$$$
