CSD_code = AZEVUX | q = 0 | S = 0 | Stoichiometry = C24H29Cl2PPtS | MND = 4
 OpenBabel04212202003D

 58 63  0  0  1  0  0  0  0  0999 V2000
    6.7309    9.6619    9.9803 Pt  0  0  0  0  0  0  0  0  0  0  0  0
    7.6011    9.8241    7.8764 Cl  0  0  0  0  0  0  0  0  0  0  0  0
    4.6058    9.8387    9.1606 Cl  0  0  0  0  0  0  0  0  0  0  0  0
    8.9029    9.4310   10.9788 S   0  0  1  0  0  3  0  0  0  0  0  0
    5.8685    9.6115   12.0647 P   0  0  0  0  0  4  0  0  0  0  0  0
    7.1656    8.8702   13.1703 C   0  0  0  0  0  0  0  0  0  0  0  0
    6.9511    9.0967   14.2188 H   0  0  0  0  0  0  0  0  0  0  0  0
    7.1503    7.7846   13.0504 H   0  0  0  0  0  0  0  0  0  0  0  0
    8.5152    9.4483   12.7800 C   0  0  0  0  0  0  0  0  0  0  0  0
    9.3406    8.9530   13.2896 H   0  0  0  0  0  0  0  0  0  0  0  0
    8.5470   10.5132   13.0220 H   0  0  0  0  0  0  0  0  0  0  0  0
    9.3586    7.6783   10.5183 C   0  0  2  0  0  0  0  0  0  0  0  0
   10.1581    7.8528    9.2290 C   0  0  0  0  0  0  0  0  0  0  0  0
    9.5386    8.3549    8.4820 H   0  0  0  0  0  0  0  0  0  0  0  0
   11.0306    8.4814    9.4214 H   0  0  0  0  0  0  0  0  0  0  0  0
   10.5984    6.4801    8.7232 C   0  0  1  0  0  0  0  0  0  0  0  0
   11.1687    6.6065    7.7981 H   0  0  0  0  0  0  0  0  0  0  0  0
   11.4761    5.8126    9.7812 C   0  0  0  0  0  0  0  0  0  0  0  0
   11.8057    4.8324    9.4310 H   0  0  0  0  0  0  0  0  0  0  0  0
   12.3659    6.4189    9.9645 H   0  0  0  0  0  0  0  0  0  0  0  0
   10.6768    5.6542   11.0732 C   0  0  2  0  0  0  0  0  0  0  0  0
   11.3033    5.1820   11.8386 H   0  0  0  0  0  0  0  0  0  0  0  0
    9.4494    4.7833   10.8067 C   0  0  0  0  0  0  0  0  0  0  0  0
    8.8816    4.6417   11.7303 H   0  0  0  0  0  0  0  0  0  0  0  0
    9.7657    3.7985   10.4579 H   0  0  0  0  0  0  0  0  0  0  0  0
    8.5733    5.4532    9.7475 C   0  0  1  0  0  0  0  0  0  0  0  0
    7.6875    4.8371    9.5600 H   0  0  0  0  0  0  0  0  0  0  0  0
    8.1258    6.8250   10.2585 C   0  0  0  0  0  0  0  0  0  0  0  0
    7.4866    7.3102    9.5074 H   0  0  0  0  0  0  0  0  0  0  0  0
    7.5515    6.6936   11.1792 H   0  0  0  0  0  0  0  0  0  0  0  0
   10.2277    7.0294   11.5848 C   0  0  0  0  0  0  0  0  0  0  0  0
    9.6686    6.8924   12.5141 H   0  0  0  0  0  0  0  0  0  0  0  0
   11.1001    7.6532   11.7932 H   0  0  0  0  0  0  0  0  0  0  0  0
    9.3635    5.6235    8.4520 C   0  0  0  0  0  0  0  0  0  0  0  0
    8.7393    6.1089    7.7003 H   0  0  0  0  0  0  0  0  0  0  0  0
    9.6611    4.6464    8.0665 H   0  0  0  0  0  0  0  0  0  0  0  0
    4.3615    8.7093   12.5042 C   0  0  0  0  0  0  0  0  0  0  0  0
    4.3284    7.3428   12.2350 C   0  0  0  0  0  0  0  0  0  0  0  0
    5.1959    6.8627   11.8025 H   0  0  0  0  0  0  0  0  0  0  0  0
    3.1847    6.6112   12.4878 C   0  0  0  0  0  0  0  0  0  0  0  0
    3.1634    5.5522   12.2765 H   0  0  0  0  0  0  0  0  0  0  0  0
    2.0598    7.2412   12.9969 C   0  0  0  0  0  0  0  0  0  0  0  0
    1.1632    6.6709   13.1895 H   0  0  0  0  0  0  0  0  0  0  0  0
    2.0787    8.6048   13.2372 C   0  0  0  0  0  0  0  0  0  0  0  0
    1.1953    9.0992   13.6132 H   0  0  0  0  0  0  0  0  0  0  0  0
    3.2222    9.3429   12.9859 C   0  0  0  0  0  0  0  0  0  0  0  0
    3.2266   10.4103   13.1528 H   0  0  0  0  0  0  0  0  0  0  0  0
    5.6856   11.2789   12.7529 C   0  0  0  0  0  0  0  0  0  0  0  0
    5.4246   11.5200   14.0993 C   0  0  0  0  0  0  0  0  0  0  0  0
    5.2903   10.6926   14.7837 H   0  0  0  0  0  0  0  0  0  0  0  0
    5.3248   12.8210   14.5566 C   0  0  0  0  0  0  0  0  0  0  0  0
    5.1200   13.0094   15.6004 H   0  0  0  0  0  0  0  0  0  0  0  0
    5.4839   13.8830   13.6787 C   0  0  0  0  0  0  0  0  0  0  0  0
    5.4030   14.8965   14.0429 H   0  0  0  0  0  0  0  0  0  0  0  0
    5.7428   13.6467   12.3386 C   0  0  0  0  0  0  0  0  0  0  0  0
    5.8642   14.4736   11.6553 H   0  0  0  0  0  0  0  0  0  0  0  0
    5.8442   12.3470   11.8757 C   0  0  0  0  0  0  0  0  0  0  0  0
    6.0399   12.1411   10.8268 H   0  0  0  0  0  0  0  0  0  0  0  0
  1  4  1  0  0  0  0
  1  5  1  0  0  0  0
  2  1  1  0  0  0  0
  3  1  1  0  0  0  0
  4  9  1  1  0  0  0
  5 37  1  0  0  0  0
  5 48  1  0  0  0  0
  5  6  1  0  0  0  0
  6  7  1  0  0  0  0
  8  6  1  0  0  0  0
  9 11  1  0  0  0  0
  9  6  1  0  0  0  0
  9 10  1  0  0  0  0
 12 13  1  6  0  0  0
 12  4  1  0  0  0  0
 12 31  1  0  0  0  0
 13 15  1  0  0  0  0
 14 13  1  0  0  0  0
 16 17  1  6  0  0  0
 16 13  1  0  0  0  0
 16 18  1  0  0  0  0
 18 20  1  0  0  0  0
 18 21  1  0  0  0  0
 19 18  1  0  0  0  0
 21 31  1  0  0  0  0
 21 22  1  1  0  0  0
 23 21  1  0  0  0  0
 23 24  1  0  0  0  0
 25 23  1  0  0  0  0
 26 27  1  6  0  0  0
 26 28  1  0  0  0  0
 26 23  1  0  0  0  0
 28 12  1  0  0  0  0
 28 30  1  0  0  0  0
 29 28  1  0  0  0  0
 31 33  1  0  0  0  0
 31 32  1  0  0  0  0
 34 16  1  0  0  0  0
 34 26  1  0  0  0  0
 35 34  1  0  0  0  0
 36 34  1  0  0  0  0
 37 46  1  0  0  0  0
 38 40  1  0  0  0  0
 38 37  2  0  0  0  0
 39 38  1  0  0  0  0
 40 42  2  0  0  0  0
 41 40  1  0  0  0  0
 42 43  1  0  0  0  0
 42 44  1  0  0  0  0
 44 45  1  0  0  0  0
 46 47  1  0  0  0  0
 46 44  2  0  0  0  0
 48 49  1  0  0  0  0
 49 51  2  0  0  0  0
 49 50  1  0  0  0  0
 51 52  1  0  0  0  0
 53 54  1  0  0  0  0
 53 51  1  0  0  0  0
 55 53  2  0  0  0  0
 56 55  1  0  0  0  0
 57 55  1  0  0  0  0
 57 48  2  0  0  0  0
 58 57  1  0  0  0  0
M  END
$$$$
