CSD_code = AZIFIY | q = 0 | S = 0 | Stoichiometry = C30H46Cl2N6O2Pd | MND = 4
 OpenBabel04212202003D

 87 92  0  0  1  0  0  0  0  0999 V2000
    7.7269   -1.8672    4.4905 Pd  0  0  0  0  0  0  0  0  0  0  0  0
    6.0086   -3.3434    4.0541 Cl  0  0  0  0  0  0  0  0  0  0  0  0
    9.2295   -0.1813    4.9667 Cl  0  0  0  0  0  0  0  0  0  0  0  0
    6.6996   -3.1377    8.7480 O   0  0  0  0  0  0  0  0  0  0  0  0
   10.6342   -5.2068    5.3522 O   0  0  0  0  0  0  0  0  0  0  0  0
    5.2271   -0.4231    5.3924 N   0  0  0  0  0  0  0  0  0  0  0  0
    6.5178   -0.8331    7.0599 N   0  0  0  0  0  0  0  0  0  0  0  0
    8.8456   -3.3356    8.0615 N   0  0  0  0  0  0  0  0  0  0  0  0
    8.6995   -5.6653    6.4287 N   0  0  0  0  0  0  0  0  0  0  0  0
    9.2469   -4.2193    3.1747 N   0  0  0  0  0  0  0  0  0  0  0  0
    9.6952   -2.3610    2.1923 N   0  0  0  0  0  0  0  0  0  0  0  0
    6.4274   -0.9316    5.7204 C   0  0  0  0  0  0  0  0  0  0  0  0
    4.5624   -0.0240    6.5216 C   0  0  0  0  0  0  0  0  0  0  0  0
    3.5845    0.4090    6.4990 H   0  0  0  0  0  0  0  0  0  0  0  0
    5.3748   -0.2861    7.5714 C   0  0  0  0  0  0  0  0  0  0  0  0
    5.2316   -0.1378    8.6216 H   0  0  0  0  0  0  0  0  0  0  0  0
    4.7459   -0.2533    4.0368 C   0  0  0  0  0  0  0  0  0  0  0  0
    5.4935   -0.7296    3.3794 H   0  0  0  0  0  0  0  0  0  0  0  0
    3.4001   -0.9482    3.8327 C   0  0  0  0  0  0  0  0  0  0  0  0
    3.5071   -2.0078    4.0711 H   0  0  0  0  0  0  0  0  0  0  0  0
    2.6528   -0.5175    4.5028 H   0  0  0  0  0  0  0  0  0  0  0  0
    2.9463   -0.7789    2.3865 C   0  0  0  0  0  0  0  0  0  0  0  0
    3.6643   -1.2703    1.7266 H   0  0  0  0  0  0  0  0  0  0  0  0
    1.9788   -1.2642    2.2479 H   0  0  0  0  0  0  0  0  0  0  0  0
    2.8477    0.7002    2.0248 C   0  0  0  0  0  0  0  0  0  0  0  0
    2.0914    1.1790    2.6515 H   0  0  0  0  0  0  0  0  0  0  0  0
    2.5354    0.8085    0.9845 H   0  0  0  0  0  0  0  0  0  0  0  0
    4.1931    1.3886    2.2348 C   0  0  0  0  0  0  0  0  0  0  0  0
    4.1171    2.4488    1.9863 H   0  0  0  0  0  0  0  0  0  0  0  0
    4.9323    0.9385    1.5689 H   0  0  0  0  0  0  0  0  0  0  0  0
    4.6580    1.2315    3.6793 C   0  0  0  0  0  0  0  0  0  0  0  0
    5.6387    1.6943    3.8147 H   0  0  0  0  0  0  0  0  0  0  0  0
    3.9507    1.7289    4.3472 H   0  0  0  0  0  0  0  0  0  0  0  0
    7.6911   -1.1737    7.8205 C   0  0  0  0  0  0  0  0  0  0  0  0
    7.6769   -0.5990    8.7527 H   0  0  0  0  0  0  0  0  0  0  0  0
    8.5647   -0.8845    7.2352 H   0  0  0  0  0  0  0  0  0  0  0  0
    7.6917   -2.6561    8.2292 C   0  0  0  0  0  0  0  0  0  0  0  0
    9.9733   -2.8119    7.3160 C   0  0  0  0  0  0  0  0  0  0  0  0
    9.6627   -2.5352    6.2949 H   0  0  0  0  0  0  0  0  0  0  0  0
   10.7356   -3.5780    7.2197 H   0  0  0  0  0  0  0  0  0  0  0  0
   10.4209   -1.9460    7.8087 H   0  0  0  0  0  0  0  0  0  0  0  0
    8.9462   -4.6516    8.6751 C   0  0  2  0  0  0  0  0  0  0  0  0
    7.9340   -4.8754    9.0289 H   0  0  0  0  0  0  0  0  0  0  0  0
    9.8886   -4.6519    9.8828 C   0  0  0  0  0  0  0  0  0  0  0  0
    9.5881   -3.8643   10.5765 H   0  0  0  0  0  0  0  0  0  0  0  0
   10.9106   -4.4475    9.5575 H   0  0  0  0  0  0  0  0  0  0  0  0
    9.8265   -6.0106   10.5768 C   0  0  0  0  0  0  0  0  0  0  0  0
   10.5129   -6.0221   11.4252 H   0  0  0  0  0  0  0  0  0  0  0  0
    8.8169   -6.1693   10.9619 H   0  0  0  0  0  0  0  0  0  0  0  0
   10.1829   -7.1368    9.6097 C   0  0  0  0  0  0  0  0  0  0  0  0
   10.0902   -8.0997   10.1149 H   0  0  0  0  0  0  0  0  0  0  0  0
   11.2211   -7.0261    9.2897 H   0  0  0  0  0  0  0  0  0  0  0  0
    9.2727   -7.1088    8.3836 C   0  0  0  0  0  0  0  0  0  0  0  0
    8.2418   -7.2903    8.6928 H   0  0  0  0  0  0  0  0  0  0  0  0
    9.5610   -7.8945    7.6830 H   0  0  0  0  0  0  0  0  0  0  0  0
    9.4000   -5.7465    7.6981 C   0  0  1  0  0  0  0  0  0  0  0  0
   10.4572   -5.6064    7.4486 H   0  0  0  0  0  0  0  0  0  0  0  0
    7.2561   -5.7836    6.4256 C   0  0  0  0  0  0  0  0  0  0  0  0
    6.7754   -4.8356    6.1685 H   0  0  0  0  0  0  0  0  0  0  0  0
    6.9206   -6.0641    7.4189 H   0  0  0  0  0  0  0  0  0  0  0  0
    6.9277   -6.5516    5.7239 H   0  0  0  0  0  0  0  0  0  0  0  0
    9.4227   -5.3498    5.3344 C   0  0  0  0  0  0  0  0  0  0  0  0
    8.6468   -5.2154    4.0240 C   0  0  0  0  0  0  0  0  0  0  0  0
    8.6789   -6.1803    3.5089 H   0  0  0  0  0  0  0  0  0  0  0  0
    7.6063   -4.9307    4.1897 H   0  0  0  0  0  0  0  0  0  0  0  0
   10.1099   -4.5076    2.1582 C   0  0  0  0  0  0  0  0  0  0  0  0
   10.4545   -5.5017    1.9624 H   0  0  0  0  0  0  0  0  0  0  0  0
   10.3884   -3.3394    1.5347 C   0  0  0  0  0  0  0  0  0  0  0  0
   11.0181   -3.1528    0.6918 H   0  0  0  0  0  0  0  0  0  0  0  0
    8.9977   -2.8934    3.2209 C   0  0  1  0  0  3  0  0  0  0  0  0
    9.6477   -0.9523    1.8274 C   0  0  0  0  0  0  0  0  0  0  0  0
    9.9299   -0.3768    2.7182 H   0  0  0  0  0  0  0  0  0  0  0  0
   10.6082   -0.5992    0.6971 C   0  0  0  0  0  0  0  0  0  0  0  0
   11.6275   -0.8786    0.9712 H   0  0  0  0  0  0  0  0  0  0  0  0
   10.3289   -1.1338   -0.2148 H   0  0  0  0  0  0  0  0  0  0  0  0
   10.5442    0.9036    0.4324 C   0  0  0  0  0  0  0  0  0  0  0  0
   11.2382    1.1641   -0.3691 H   0  0  0  0  0  0  0  0  0  0  0  0
   10.8511    1.4404    1.3320 H   0  0  0  0  0  0  0  0  0  0  0  0
    9.1270    1.3198    0.0531 C   0  0  0  0  0  0  0  0  0  0  0  0
    8.8383    0.8235   -0.8770 H   0  0  0  0  0  0  0  0  0  0  0  0
    9.0897    2.3970   -0.1177 H   0  0  0  0  0  0  0  0  0  0  0  0
    8.1485    0.9367    1.1588 C   0  0  0  0  0  0  0  0  0  0  0  0
    8.3999    1.4779    2.0733 H   0  0  0  0  0  0  0  0  0  0  0  0
    7.1344    1.2172    0.8682 H   0  0  0  0  0  0  0  0  0  0  0  0
    8.2149   -0.5609    1.4400 C   0  0  0  0  0  0  0  0  0  0  0  0
    7.5353   -0.8138    2.2783 H   0  0  0  0  0  0  0  0  0  0  0  0
    7.9053   -1.1286    0.5577 H   0  0  0  0  0  0  0  0  0  0  0  0
  1  3  1  0  0  0  0
  1 12  2  0  0  0  0
  2  1  1  0  0  0  0
  6 12  1  0  0  0  0
  6 13  1  0  0  0  0
  7 15  1  0  0  0  0
  7 34  1  0  0  0  0
  8 37  1  0  0  0  0
  8 42  1  0  0  0  0
  9 56  1  0  0  0  0
 10 70  1  0  0  0  0
 10 63  1  0  0  0  0
 12  7  1  0  0  0  0
 13 15  2  0  0  0  0
 14 13  1  0  0  0  0
 15 16  1  0  0  0  0
 17  6  1  0  0  0  0
 18 17  1  0  0  0  0
 19 17  1  0  0  0  0
 19 20  1  0  0  0  0
 19 21  1  0  0  0  0
 22 19  1  0  0  0  0
 23 22  1  0  0  0  0
 24 22  1  0  0  0  0
 25 28  1  0  0  0  0
 25 22  1  0  0  0  0
 25 26  1  0  0  0  0
 27 25  1  0  0  0  0
 28 31  1  0  0  0  0
 29 28  1  0  0  0  0
 30 28  1  0  0  0  0
 31 32  1  0  0  0  0
 31 17  1  0  0  0  0
 31 33  1  0  0  0  0
 34 37  1  0  0  0  0
 34 35  1  0  0  0  0
 36 34  1  0  0  0  0
 37  4  2  0  0  0  0
 38 41  1  0  0  0  0
 38  8  1  0  0  0  0
 39 38  1  0  0  0  0
 40 38  1  0  0  0  0
 42 43  1  1  0  0  0
 42 44  1  0  0  0  0
 44 45  1  0  0  0  0
 44 47  1  0  0  0  0
 46 44  1  0  0  0  0
 47 49  1  0  0  0  0
 47 48  1  0  0  0  0
 50 51  1  0  0  0  0
 50 47  1  0  0  0  0
 52 50  1  0  0  0  0
 53 54  1  0  0  0  0
 53 50  1  0  0  0  0
 55 53  1  0  0  0  0
 56 57  1  6  0  0  0
 56 53  1  0  0  0  0
 56 42  1  0  0  0  0
 58  9  1  0  0  0  0
 58 60  1  0  0  0  0
 59 58  1  0  0  0  0
 61 58  1  0  0  0  0
 62  5  2  0  0  0  0
 62  9  1  0  0  0  0
 63 65  1  0  0  0  0
 63 62  1  0  0  0  0
 64 63  1  0  0  0  0
 66 10  1  0  0  0  0
 67 66  1  0  0  0  0
 68 66  2  0  0  0  0
 68 11  1  0  0  0  0
 69 68  1  0  0  0  0
 70 11  1  6  0  0  0
 70  1  1  0  0  0  0
 71 11  1  0  0  0  0
 71 72  1  0  0  0  0
 73 74  1  0  0  0  0
 73 71  1  0  0  0  0
 75 73  1  0  0  0  0
 76 73  1  0  0  0  0
 76 78  1  0  0  0  0
 77 76  1  0  0  0  0
 79 76  1  0  0  0  0
 79 82  1  0  0  0  0
 80 79  1  0  0  0  0
 81 79  1  0  0  0  0
 82 85  1  0  0  0  0
 82 83  1  0  0  0  0
 84 82  1  0  0  0  0
 85 71  1  0  0  0  0
 85 86  1  0  0  0  0
 87 85  1  0  0  0  0
M  END
$$$$
