CSD_code = AZISIN | q = 0 | S = 0 | Stoichiometry = C27H29BrN2O2Pd | MND = 4
 OpenBabel04212202003D

 62 66  0  0  0  0  0  0  0  0999 V2000
    4.9326    3.2268    1.3649 Pd  0  0  2  0  0  0  0  0  0  0  0  0
    4.3962    4.8854   -0.2266 Br  0  0  0  0  0  0  0  0  0  0  0  0
    5.8005    0.4746   -2.0411 O   0  0  0  0  0  0  0  0  0  0  0  0
    6.3791    1.5849   -0.1847 O   0  0  0  0  0  0  0  0  0  0  0  0
    5.3562    1.9047    2.8758 N   0  0  0  0  0  0  0  0  0  0  0  0
    6.7107    4.0663    2.2055 N   0  0  0  0  0  0  0  0  0  0  0  0
    3.5386    1.7953    4.4851 C   0  0  0  0  0  0  0  0  0  0  0  0
    3.1757    3.1186    4.2528 C   0  0  0  0  0  0  0  0  0  0  0  0
    3.4843    3.6194    3.3278 H   0  0  0  0  0  0  0  0  0  0  0  0
    2.4238    3.8107    5.1846 C   0  0  0  0  0  0  0  0  0  0  0  0
    2.1486    4.8370    4.9937 H   0  0  0  0  0  0  0  0  0  0  0  0
    2.0209    3.1890    6.3550 C   0  0  0  0  0  0  0  0  0  0  0  0
    1.4324    3.7293    7.0811 H   0  0  0  0  0  0  0  0  0  0  0  0
    2.3740    1.8716    6.5897 C   0  0  0  0  0  0  0  0  0  0  0  0
    2.0622    1.3799    7.4993 H   0  0  0  0  0  0  0  0  0  0  0  0
    3.1327    1.1795    5.6615 C   0  0  0  0  0  0  0  0  0  0  0  0
    3.4069    0.1506    5.8508 H   0  0  0  0  0  0  0  0  0  0  0  0
    4.3605    1.0362    3.4629 C   0  0  0  0  0  0  0  0  0  0  0  0
    4.8183    0.1561    3.9323 H   0  0  0  0  0  0  0  0  0  0  0  0
    3.6959    0.6914    2.6597 H   0  0  0  0  0  0  0  0  0  0  0  0
    6.4541    2.1583    3.5048 C   0  0  0  0  0  0  0  0  0  0  0  0
    6.8180    1.5150    4.8134 C   0  0  0  0  0  0  0  0  0  0  0  0
    5.9748    1.5832    5.5007 H   0  0  0  0  0  0  0  0  0  0  0  0
    7.6702    2.0032    5.2738 H   0  0  0  0  0  0  0  0  0  0  0  0
    7.0541    0.4590    4.6698 H   0  0  0  0  0  0  0  0  0  0  0  0
    7.3109    3.2068    2.9510 C   0  0  0  0  0  0  0  0  0  0  0  0
    8.7642    3.2678    3.3297 C   0  0  0  0  0  0  0  0  0  0  0  0
    9.3620    3.5590    2.4676 H   0  0  0  0  0  0  0  0  0  0  0  0
    9.1204    2.3011    3.6737 H   0  0  0  0  0  0  0  0  0  0  0  0
    8.9227    4.0083    4.1150 H   0  0  0  0  0  0  0  0  0  0  0  0
    7.3229    5.2976    1.7801 C   0  0  0  0  0  0  0  0  0  0  0  0
    6.9197    5.5543    0.7926 H   0  0  0  0  0  0  0  0  0  0  0  0
    8.4165    5.2540    1.7239 H   0  0  0  0  0  0  0  0  0  0  0  0
    6.8901    6.3522    2.7771 C   0  0  0  0  0  0  0  0  0  0  0  0
    7.8205    7.1350    3.4432 C   0  0  0  0  0  0  0  0  0  0  0  0
    8.8746    7.0199    3.2309 H   0  0  0  0  0  0  0  0  0  0  0  0
    7.4030    8.0761    4.3695 C   0  0  0  0  0  0  0  0  0  0  0  0
    8.1341    8.6885    4.8772 H   0  0  0  0  0  0  0  0  0  0  0  0
    6.0559    8.2296    4.6457 C   0  0  0  0  0  0  0  0  0  0  0  0
    5.7332    8.9623    5.3706 H   0  0  0  0  0  0  0  0  0  0  0  0
    5.1236    7.4439    3.9877 C   0  0  0  0  0  0  0  0  0  0  0  0
    4.0711    7.5654    4.1963 H   0  0  0  0  0  0  0  0  0  0  0  0
    5.5372    6.5092    3.0575 C   0  0  0  0  0  0  0  0  0  0  0  0
    4.8054    5.9030    2.5320 H   0  0  0  0  0  0  0  0  0  0  0  0
    3.5688    2.0905    0.4601 C   0  0  0  0  0  0  0  0  0  0  0  0
    2.2584    1.9576    0.9047 C   0  0  0  0  0  0  0  0  0  0  0  0
    1.8941    2.5582    1.7335 H   0  0  0  0  0  0  0  0  0  0  0  0
    1.3858    1.0763    0.2828 C   0  0  0  0  0  0  0  0  0  0  0  0
    0.3700    0.9877    0.6415 H   0  0  0  0  0  0  0  0  0  0  0  0
    1.8091    0.3268   -0.8000 C   0  0  0  0  0  0  0  0  0  0  0  0
    1.1288   -0.3532   -1.2912 H   0  0  0  0  0  0  0  0  0  0  0  0
    3.1037    0.4656   -1.2676 C   0  0  0  0  0  0  0  0  0  0  0  0
    3.4413   -0.0905   -2.1306 H   0  0  0  0  0  0  0  0  0  0  0  0
    3.9824    1.3402   -0.6433 C   0  0  0  0  0  0  0  0  0  0  0  0
    5.3878    1.5241   -1.2068 C   0  0  0  0  0  0  0  0  0  0  0  0
    5.4461    2.4621   -1.7803 H   0  0  0  0  0  0  0  0  0  0  0  0
    6.3252   -0.5210   -1.1931 C   0  0  0  0  0  0  0  0  0  0  0  0
    7.1621   -0.9934   -1.7099 H   0  0  0  0  0  0  0  0  0  0  0  0
    5.5649   -1.2768   -0.9575 H   0  0  0  0  0  0  0  0  0  0  0  0
    6.7502    0.2481    0.0786 C   0  0  0  0  0  0  0  0  0  0  0  0
    6.2284   -0.1367    0.9654 H   0  0  0  0  0  0  0  0  0  0  0  0
    7.8292    0.2274    0.2503 H   0  0  0  0  0  0  0  0  0  0  0  0
  1  2  1  1  0  0  0
  1  6  1  0  0  0  0
  1  5  1  0  0  0  0
  3 55  1  0  0  0  0
  3 57  1  0  0  0  0
  4 60  1  0  0  0  0
  5 18  1  0  0  0  0
  5 21  1  0  0  0  0
  6 26  1  0  0  0  0
  7 16  1  0  0  0  0
  8  7  2  0  0  0  0
  8 10  1  0  0  0  0
  9  8  1  0  0  0  0
 10 12  2  0  0  0  0
 11 10  1  0  0  0  0
 12 14  1  0  0  0  0
 12 13  1  0  0  0  0
 14 15  1  0  0  0  0
 16 17  1  0  0  0  0
 16 14  2  0  0  0  0
 18 19  1  0  0  0  0
 18  7  1  0  0  0  0
 20 18  1  0  0  0  0
 21 22  1  0  0  0  0
 22 24  1  0  0  0  0
 22 23  1  0  0  0  0
 25 22  1  0  0  0  0
 26 27  1  0  0  0  0
 26 21  2  0  0  0  0
 27 29  1  0  0  0  0
 27 30  1  0  0  0  0
 28 27  1  0  0  0  0
 31  6  1  0  0  0  0
 31 34  1  0  0  0  0
 32 31  1  0  0  0  0
 33 31  1  0  0  0  0
 34 43  2  0  0  0  0
 34 35  1  0  0  0  0
 35 37  2  0  0  0  0
 36 35  1  0  0  0  0
 37 39  1  0  0  0  0
 37 38  1  0  0  0  0
 39 40  1  0  0  0  0
 41 42  1  0  0  0  0
 41 39  2  0  0  0  0
 43 41  1  0  0  0  0
 44 43  1  0  0  0  0
 45 46  1  0  0  0  0
 45  1  1  0  0  0  0
 46 47  1  0  0  0  0
 48 49  1  0  0  0  0
 48 46  2  0  0  0  0
 50 48  1  0  0  0  0
 51 50  1  0  0  0  0
 52 50  2  0  0  0  0
 52 54  1  0  0  0  0
 53 52  1  0  0  0  0
 54 45  2  0  0  0  0
 55 54  1  0  0  0  0
 55  4  1  0  0  0  0
 56 55  1  0  0  0  0
 57 59  1  0  0  0  0
 57 60  1  0  0  0  0
 58 57  1  0  0  0  0
 60 62  1  0  0  0  0
 60 61  1  0  0  0  0
M  END
$$$$
