CSD_code = AZIYEO | q = 0 | S = 0 | Stoichiometry = C16H14Cl2N6Zn | MND = 4
 OpenBabel04212202003D

 39 42  0  0  0  0  0  0  0  0999 V2000
    5.0459    3.8743    3.9801 Zn  0  0  0  0  0  0  0  0  0  0  0  0
    2.9853    3.1482    4.3371 Cl  0  0  0  0  0  0  0  0  0  0  0  0
    6.9595    2.9838    3.3152 Cl  0  0  0  0  0  0  0  0  0  0  0  0
    2.8820    9.0424   -0.4138 N   0  0  0  0  0  0  0  0  0  0  0  0
    5.7241    5.8190    1.7633 C   0  0  0  0  0  3  0  0  0  0  0  0
    6.6654    5.3007    1.8834 H   0  0  0  0  0  0  0  0  0  0  0  0
    4.7679    5.4862    2.6260 N   0  0  0  0  0  0  0  0  0  0  0  0
    4.3022    7.3895    0.6465 C   0  0  0  0  0  0  0  0  0  0  0  0
    4.0305    8.3703   -0.3863 C   0  0  0  0  0  0  0  0  0  0  0  0
    5.5404    6.7559    0.7661 C   0  0  0  0  0  0  0  0  0  0  0  0
    6.3505    6.9852    0.0929 H   0  0  0  0  0  0  0  0  0  0  0  0
    3.3086    7.0362    1.5638 C   0  0  0  0  0  0  0  0  0  0  0  0
    2.3400    7.5038    1.5011 H   0  0  0  0  0  0  0  0  0  0  0  0
    4.1083    9.7066   -2.1429 C   0  0  0  0  0  0  0  0  0  0  0  0
    4.3199   10.2769   -3.0243 H   0  0  0  0  0  0  0  0  0  0  0  0
    2.9466    9.8356   -1.4666 N   0  0  0  0  0  0  0  0  0  0  0  0
    2.1720   10.4449   -1.6807 H   0  0  0  0  0  0  0  0  0  0  0  0
    3.5833    6.0866    2.5247 C   0  0  0  0  0  0  0  0  0  0  0  0
    2.8344    5.7703    3.2367 H   0  0  0  0  0  0  0  0  0  0  0  0
    4.8463    8.7652   -1.4729 C   0  0  0  0  0  0  0  0  0  0  0  0
    5.8210    8.4051   -1.7279 H   0  0  0  0  0  0  0  0  0  0  0  0
    6.5685    6.2889    9.6499 C   0  0  0  0  0  0  0  0  0  0  0  0
    7.8333    6.9843   11.2013 N   0  0  0  0  0  0  0  0  0  0  0  0
    8.7006    7.2566   11.6380 H   0  0  0  0  0  0  0  0  0  0  0  0
    7.8334    6.5796    9.9452 N   0  0  0  0  0  0  0  0  0  0  0  0
    6.5998    6.9695   11.7507 C   0  0  0  0  0  0  0  0  0  0  0  0
    6.4240    7.2666   12.7643 H   0  0  0  0  0  0  0  0  0  0  0  0
    5.7443    6.5251   10.7756 C   0  0  0  0  0  0  0  0  0  0  0  0
    4.6873    6.3843   10.8581 H   0  0  0  0  0  0  0  0  0  0  0  0
    5.5354    4.8214    5.8141 N   0  0  0  0  0  0  0  0  0  0  0  0
    4.8723    5.5370    7.9855 C   0  0  0  0  0  0  0  0  0  0  0  0
    4.0682    5.7032    8.6837 H   0  0  0  0  0  0  0  0  0  0  0  0
    6.1980    5.7972    8.3371 C   0  0  0  0  0  0  0  0  0  0  0  0
    4.5928    5.0529    6.7235 C   0  0  0  0  0  3  0  0  0  0  0  0
    3.5811    4.8243    6.4189 H   0  0  0  0  0  0  0  0  0  0  0  0
    6.8037    5.0695    6.1358 C   0  0  0  0  0  0  0  0  0  0  0  0
    7.5333    4.8515    5.3687 H   0  0  0  0  0  0  0  0  0  0  0  0
    7.1781    5.5546    7.3708 C   0  0  0  0  0  0  0  0  0  0  0  0
    8.2124    5.7415    7.6076 H   0  0  0  0  0  0  0  0  0  0  0  0
  1  2  1  0  0  0  0
  1 30  1  0  0  0  0
  3  1  1  0  0  0  0
  4  9  2  0  0  0  0
  5  6  1  0  0  0  0
  5  7  1  0  0  0  0
  7  1  1  0  0  0  0
  8 10  2  0  0  0  0
  8 12  1  0  0  0  0
  9  8  1  0  0  0  0
 10  5  1  0  0  0  0
 11 10  1  0  0  0  0
 12 18  2  0  0  0  0
 13 12  1  0  0  0  0
 14 20  2  0  0  0  0
 14 16  1  0  0  0  0
 15 14  1  0  0  0  0
 16  4  1  0  0  0  0
 17 16  1  0  0  0  0
 18  7  1  0  0  0  0
 18 19  1  0  0  0  0
 20  9  1  0  0  0  0
 21 20  1  0  0  0  0
 22 25  2  0  0  0  0
 22 28  1  0  0  0  0
 23 24  1  0  0  0  0
 23 26  1  0  0  0  0
 25 23  1  0  0  0  0
 26 27  1  0  0  0  0
 28 29  1  0  0  0  0
 28 26  2  0  0  0  0
 30 36  1  0  0  0  0
 30 34  1  0  0  0  0
 31 33  2  0  0  0  0
 31 32  1  0  0  0  0
 33 22  1  0  0  0  0
 34 31  1  0  0  0  0
 35 34  1  0  0  0  0
 36 38  2  0  0  0  0
 37 36  1  0  0  0  0
 38 39  1  0  0  0  0
 38 33  1  0  0  0  0
M  END
$$$$
