CSD_code = AZIYAK | q = 0 | S = 0 | Stoichiometry = C28H26CdI2N2 | MND = 4
 OpenBabel04212202003D

 59 62  0  0  0  0  0  0  0  0999 V2000
   -6.1491    9.1339   10.3683 Cd  0  0  0  0  0  0  0  0  0  0  0  0
   -4.0014    9.9626    8.9823 I   0  0  0  0  0  0  0  0  0  0  0  0
   -5.2555    7.3524   11.7441 N   0  0  0  0  0  0  0  0  0  0  0  0
   -6.0141    6.7610   12.6672 C   0  0  0  0  0  3  0  0  0  0  0  0
   -6.9754    7.2211   12.8634 H   0  0  0  0  0  0  0  0  0  0  0  0
   -5.6281    5.6331   13.3605 C   0  0  0  0  0  0  0  0  0  0  0  0
   -6.2921    5.2191   14.1017 H   0  0  0  0  0  0  0  0  0  0  0  0
   -4.3799    5.0543   13.1028 C   0  0  0  0  0  0  0  0  0  0  0  0
   -3.5890    5.6924   12.1394 C   0  0  0  0  0  0  0  0  0  0  0  0
   -2.6106    5.3065   11.8965 H   0  0  0  0  0  0  0  0  0  0  0  0
   -4.0605    6.8170   11.4955 C   0  0  0  0  0  0  0  0  0  0  0  0
   -3.4544    7.3185   10.7503 H   0  0  0  0  0  0  0  0  0  0  0  0
   -3.8820    3.8689   13.7669 C   0  0  0  0  0  0  0  0  0  0  0  0
   -2.8543    3.6191   13.5385 H   0  0  0  0  0  0  0  0  0  0  0  0
   -4.5931    3.0706   14.5771 C   0  0  0  0  0  0  0  0  0  0  0  0
   -5.6365    3.2893   14.7541 H   0  0  0  0  0  0  0  0  0  0  0  0
   -4.0765    1.8846   15.2384 C   0  0  0  0  0  0  0  0  0  0  0  0
   -2.7244    1.7918   15.5769 C   0  0  0  0  0  0  0  0  0  0  0  0
   -2.0673    2.6196   15.3568 H   0  0  0  0  0  0  0  0  0  0  0  0
   -2.2235    0.6784   16.2200 C   0  0  0  0  0  0  0  0  0  0  0  0
   -1.1765    0.6294   16.4789 H   0  0  0  0  0  0  0  0  0  0  0  0
   -3.0706   -0.3705   16.5361 C   0  0  0  0  0  0  0  0  0  0  0  0
   -2.6888   -1.2460   17.0393 H   0  0  0  0  0  0  0  0  0  0  0  0
   -4.4127   -0.2914   16.2079 C   0  0  0  0  0  0  0  0  0  0  0  0
   -5.0697   -1.1127   16.4564 H   0  0  0  0  0  0  0  0  0  0  0  0
   -4.9357    0.8212   15.5661 C   0  0  0  0  0  0  0  0  0  0  0  0
   -6.3925    0.8587   15.2127 C   0  0  0  0  0  0  0  0  0  0  0  0
   -6.8656   -0.0895   15.4551 H   0  0  0  0  0  0  0  0  0  0  0  0
   -6.5308    1.0516   14.1498 H   0  0  0  0  0  0  0  0  0  0  0  0
   -6.9044    1.6435   15.7702 H   0  0  0  0  0  0  0  0  0  0  0  0
   -8.2953    9.9625   11.7536 I   0  0  0  0  0  0  0  0  0  0  0  0
   -7.0421    7.3527    8.9916 N   0  0  0  0  0  0  0  0  0  0  0  0
   -6.2833    6.7611    8.0688 C   0  0  0  0  0  3  0  0  0  0  0  0
   -5.3219    7.2211    7.8727 H   0  0  0  0  0  0  0  0  0  0  0  0
   -6.6691    5.6331    7.3755 C   0  0  0  0  0  0  0  0  0  0  0  0
   -6.0050    5.2191    6.6345 H   0  0  0  0  0  0  0  0  0  0  0  0
   -7.9175    5.0545    7.6328 C   0  0  0  0  0  0  0  0  0  0  0  0
   -8.7087    5.6928    8.5959 C   0  0  0  0  0  0  0  0  0  0  0  0
   -9.6871    5.3070    8.8385 H   0  0  0  0  0  0  0  0  0  0  0  0
   -8.2372    6.8174    9.2399 C   0  0  0  0  0  0  0  0  0  0  0  0
   -8.8435    7.3190    9.9848 H   0  0  0  0  0  0  0  0  0  0  0  0
   -8.4153    3.8690    6.9688 C   0  0  0  0  0  0  0  0  0  0  0  0
   -9.4431    3.6193    7.1970 H   0  0  0  0  0  0  0  0  0  0  0  0
   -7.7041    3.0706    6.1587 C   0  0  0  0  0  0  0  0  0  0  0  0
   -6.6607    3.2893    5.9818 H   0  0  0  0  0  0  0  0  0  0  0  0
   -8.2207    1.8846    5.4973 C   0  0  0  0  0  0  0  0  0  0  0  0
   -9.5728    1.7919    5.1588 C   0  0  0  0  0  0  0  0  0  0  0  0
  -10.2299    2.6197    5.3788 H   0  0  0  0  0  0  0  0  0  0  0  0
  -10.0737    0.6784    4.5157 C   0  0  0  0  0  0  0  0  0  0  0  0
  -11.1207    0.6295    4.2567 H   0  0  0  0  0  0  0  0  0  0  0  0
   -9.2265   -0.3704    4.1998 C   0  0  0  0  0  0  0  0  0  0  0  0
   -9.6084   -1.2460    3.6966 H   0  0  0  0  0  0  0  0  0  0  0  0
   -7.8845   -0.2914    4.5280 C   0  0  0  0  0  0  0  0  0  0  0  0
   -7.2275   -1.1127    4.2796 H   0  0  0  0  0  0  0  0  0  0  0  0
   -7.3615    0.8212    5.1698 C   0  0  0  0  0  0  0  0  0  0  0  0
   -5.9048    0.8587    5.5233 C   0  0  0  0  0  0  0  0  0  0  0  0
   -5.4316   -0.0895    5.2809 H   0  0  0  0  0  0  0  0  0  0  0  0
   -5.7665    1.0516    6.5862 H   0  0  0  0  0  0  0  0  0  0  0  0
   -5.3928    1.6435    4.9658 H   0  0  0  0  0  0  0  0  0  0  0  0
  1  3  1  0  0  0  0
  1 31  1  0  0  0  0
  2  1  1  0  0  0  0
  3  4  1  0  0  0  0
  4  5  1  0  0  0  0
  4  6  1  0  0  0  0
  6  7  1  0  0  0  0
  8  6  2  0  0  0  0
  8 13  1  0  0  0  0
  9  8  1  0  0  0  0
 10  9  1  0  0  0  0
 11  3  1  0  0  0  0
 11  9  2  0  0  0  0
 12 11  1  0  0  0  0
 13 15  2  0  0  0  0
 14 13  1  0  0  0  0
 15 16  1  0  0  0  0
 15 17  1  0  0  0  0
 17 26  2  0  0  0  0
 17 18  1  0  0  0  0
 18 20  2  0  0  0  0
 19 18  1  0  0  0  0
 20 21  1  0  0  0  0
 20 22  1  0  0  0  0
 22 23  1  0  0  0  0
 24 25  1  0  0  0  0
 24 22  2  0  0  0  0
 26 24  1  0  0  0  0
 27 28  1  0  0  0  0
 27 26  1  0  0  0  0
 27 30  1  0  0  0  0
 29 27  1  0  0  0  0
 32 40  1  0  0  0  0
 32  1  1  0  0  0  0
 33 32  1  0  0  0  0
 34 33  1  0  0  0  0
 35 37  2  0  0  0  0
 35 33  1  0  0  0  0
 36 35  1  0  0  0  0
 37 38  1  0  0  0  0
 38 39  1  0  0  0  0
 38 40  2  0  0  0  0
 40 41  1  0  0  0  0
 42 43  1  0  0  0  0
 42 37  1  0  0  0  0
 44 42  2  0  0  0  0
 45 44  1  0  0  0  0
 46 44  1  0  0  0  0
 47 48  1  0  0  0  0
 47 46  2  0  0  0  0
 49 47  1  0  0  0  0
 50 49  1  0  0  0  0
 51 49  2  0  0  0  0
 51 53  1  0  0  0  0
 52 51  1  0  0  0  0
 53 55  2  0  0  0  0
 54 53  1  0  0  0  0
 55 46  1  0  0  0  0
 55 56  1  0  0  0  0
 56 58  1  0  0  0  0
 57 56  1  0  0  0  0
 59 56  1  0  0  0  0
M  END
$$$$
