CSD_code = AZOFEB | q = 0 | S = 0 | Stoichiometry = C14H10Cl2N4Pt | MND = 4
 OpenBabel04212202003D

 31 34  0  0  0  0  0  0  0  0999 V2000
    2.8766    6.1785    5.9922 Pt  0  0  0  0  0  0  0  0  0  0  0  0
    3.5378    8.2728    6.4274 Cl  0  0  0  0  0  0  0  0  0  0  0  0
    1.0673    7.0102    4.9922 Cl  0  0  0  0  0  0  0  0  0  0  0  0
    4.4801    5.3350    6.7781 N   0  0  0  0  0  0  0  0  0  0  0  0
    6.7499    3.9449    7.4766 N   0  0  0  0  0  0  0  0  0  0  0  0
    2.3611    4.2561    5.7393 N   0  0  0  0  0  0  0  0  0  0  0  0
    5.4970    1.6201    5.1980 N   0  0  0  0  0  0  0  0  0  0  0  0
    4.5338    3.9884    6.6181 C   0  0  0  0  0  0  0  0  0  0  0  0
    5.7561    3.3259    6.8510 C   0  0  0  0  0  0  0  0  0  0  0  0
    6.6159    5.2283    7.7646 C   0  0  0  0  0  0  0  0  0  0  0  0
    7.4259    5.6871    8.3114 H   0  0  0  0  0  0  0  0  0  0  0  0
    5.5235    5.9590    7.3283 C   0  0  0  0  0  0  0  0  0  0  0  0
    5.4562    7.0353    7.4152 H   0  0  0  0  0  0  0  0  0  0  0  0
    3.2751    3.3804    6.2144 C   0  0  0  0  0  0  0  0  0  0  0  0
    2.9534    2.0339    6.3819 C   0  0  0  0  0  0  0  0  0  0  0  0
    3.6591    1.3659    6.8451 H   0  0  0  0  0  0  0  0  0  0  0  0
    1.7172    1.5765    5.9699 C   0  0  0  0  0  0  0  0  0  0  0  0
    1.4522    0.5378    6.0919 H   0  0  0  0  0  0  0  0  0  0  0  0
    0.8220    2.4770    5.4038 C   0  0  0  0  0  0  0  0  0  0  0  0
   -0.1445    2.1558    5.0514 H   0  0  0  0  0  0  0  0  0  0  0  0
    1.1758    3.8094    5.3273 C   0  0  0  0  0  0  0  0  0  0  0  0
    0.5018    4.5606    4.9349 H   0  0  0  0  0  0  0  0  0  0  0  0
    6.0765    1.9845    6.3401 C   0  0  0  0  0  0  0  0  0  0  0  0
    7.0174    1.1902    6.9935 C   0  0  0  0  0  0  0  0  0  0  0  0
    7.4648    1.5397    7.9095 H   0  0  0  0  0  0  0  0  0  0  0  0
    7.3491   -0.0320    6.4338 C   0  0  0  0  0  0  0  0  0  0  0  0
    8.0700   -0.6765    6.9149 H   0  0  0  0  0  0  0  0  0  0  0  0
    6.7462   -0.4095    5.2441 C   0  0  0  0  0  0  0  0  0  0  0  0
    6.9817   -1.3498    4.7714 H   0  0  0  0  0  0  0  0  0  0  0  0
    5.8289    0.4604    4.6684 C   0  0  0  0  0  0  0  0  0  0  0  0
    5.3347    0.2205    3.7363 H   0  0  0  0  0  0  0  0  0  0  0  0
  1  2  1  0  0  0  0
  1  4  1  0  0  0  0
  3  1  1  0  0  0  0
  4 12  1  0  0  0  0
  5 10  1  0  0  0  0
  6  1  1  0  0  0  0
  6 14  1  0  0  0  0
  7 23  1  0  0  0  0
  8  4  1  0  0  0  0
  8  9  1  0  0  0  0
  9  5  2  0  0  0  0
 10 11  1  0  0  0  0
 12 13  1  0  0  0  0
 12 10  2  0  0  0  0
 14 15  1  0  0  0  0
 14  8  2  0  0  0  0
 15 16  1  0  0  0  0
 17 18  1  0  0  0  0
 17 15  2  0  0  0  0
 19 17  1  0  0  0  0
 20 19  1  0  0  0  0
 21 19  2  0  0  0  0
 21  6  1  0  0  0  0
 22 21  1  0  0  0  0
 23  9  1  0  0  0  0
 23 24  2  0  0  0  0
 24 25  1  0  0  0  0
 26 27  1  0  0  0  0
 26 24  1  0  0  0  0
 28 26  2  0  0  0  0
 29 28  1  0  0  0  0
 30  7  2  0  0  0  0
 30 28  1  0  0  0  0
 31 30  1  0  0  0  0
M  END
$$$$
