CSD_code = AZOGAY | q = 0 | S = 0 | Stoichiometry = C12H10Cl2N2O3S2W | MND = 7
 OpenBabel04212202003D

 32 34  0  0  1  0  0  0  0  0999 V2000
    5.7686    3.7726    1.7124 W   0  0  0  0  0  0  0  0  0  0  0  0
    8.2581    4.0735    1.3949 Cl  0  0  0  0  0 15  0  0  0  0  0  0
    6.8096    0.7297    5.2392 S   0  0  0  0  0  0  0  0  0  0  0  0
    6.3416    1.5444   -0.4297 O   0  0  0  0  0  0  0  0  0  0  0  0
    6.0298    2.0292    3.1865 N   0  0  0  0  0  0  0  0  0  0  0  0
    6.0870    2.4101    0.3093 C   0  0  0  0  0  0  0  0  0  0  0  0
    3.6472    3.8383    3.0160 Cl  0  0  0  0  0  0  0  0  0  0  0  0
    7.2786    5.5579    5.8253 S   0  0  0  0  0  0  0  0  0  0  0  0
    3.8417    3.2071   -0.7095 O   0  0  0  0  0  0  0  0  0  0  0  0
    6.3148    4.9787    3.5343 N   0  0  0  0  0  0  0  0  0  0  0  0
    4.5736    3.3192    0.1959 C   0  0  0  0  0  0  0  0  0  0  0  0
    5.5667    6.0904   -0.3799 O   0  0  0  0  0  1  0  0  0  0  0  0
    5.6547    5.3088    0.4570 C   0  0  0  0  0  2  0  0  0  0  0  0
    7.8229    3.2113    4.4020 C   0  0  0  0  0  0  0  0  0  0  0  0
    8.5093    3.2663    3.5354 H   0  0  0  0  0  0  0  0  0  0  0  0
    8.3959    3.0489    5.3151 H   0  0  0  0  0  0  0  0  0  0  0  0
    6.8739    2.0850    4.1779 C   0  0  1  0  0  3  0  0  0  0  0  0
    5.5653    0.0678    4.2574 C   0  0  0  0  0  0  0  0  0  0  0  0
    5.1223   -0.8756    4.5018 H   0  0  0  0  0  0  0  0  0  0  0  0
    5.2730    0.8862    3.2125 C   0  0  0  0  0  0  0  0  0  0  0  0
    4.2398    0.6000    2.1810 C   0  0  0  0  0  0  0  0  0  0  0  0
    4.7046    0.3886    1.2184 H   0  0  0  0  0  0  0  0  0  0  0  0
    3.5727    1.4556    2.0692 H   0  0  0  0  0  0  0  0  0  0  0  0
    3.6555   -0.2666    2.4786 H   0  0  0  0  0  0  0  0  0  0  0  0
    7.0994    4.5138    4.4708 C   0  0  1  0  0  3  0  0  0  0  0  0
    6.2359    6.6830    5.0546 C   0  0  0  0  0  0  0  0  0  0  0  0
    5.9927    7.6136    5.5244 H   0  0  0  0  0  0  0  0  0  0  0  0
    5.8180    6.2193    3.8477 C   0  0  0  0  0  0  0  0  0  0  0  0
    4.9293    6.9717    2.9217 C   0  0  0  0  0  0  0  0  0  0  0  0
    4.5338    7.8502    3.4248 H   0  0  0  0  0  0  0  0  0  0  0  0
    4.0983    6.3447    2.5958 H   0  0  0  0  0  0  0  0  0  0  0  0
    5.4920    7.2963    2.0462 H   0  0  0  0  0  0  0  0  0  0  0  0
  1  7  1  0  0  0  0
  1  5  1  0  0  0  0
  1 10  1  0  0  0  0
  4  6  2  0  0  0  0
  5 20  1  0  0  0  0
  5 17  1  0  0  0  0
  6  1  1  0  0  0  0
  9 11  2  0  0  0  0
 10 28  1  0  0  0  0
 10 25  1  0  0  0  0
 11  6  1  0  0  0  0
 11  1  1  0  0  0  0
 12 13  1  0  0  0  0
 13  1  1  0  0  0  0
 14 25  1  0  0  0  0
 14 16  1  0  0  0  0
 15 14  1  0  0  0  0
 17 14  1  0  0  0  0
 17  3  1  1  0  0  0
 18 19  1  0  0  0  0
 18  3  1  0  0  0  0
 20 18  2  0  0  0  0
 21 24  1  0  0  0  0
 21 20  1  0  0  0  0
 22 21  1  0  0  0  0
 23 21  1  0  0  0  0
 25  8  1  6  0  0  0
 26 27  1  0  0  0  0
 26  8  1  0  0  0  0
 28 26  2  0  0  0  0
 29 30  1  0  0  0  0
 29 28  1  0  0  0  0
 31 29  1  0  0  0  0
 32 29  1  0  0  0  0
M  END
$$$$
