CSD_code = AZOMAF | q = -1 | S = 0 | Stoichiometry = C4H12Cl4IrO2S2(1-) | MND = 6
 OpenBabel04212202003D

 25 24  0  0  0  0  0  0  0  0999 V2000
    4.5065    7.5775   26.0036 Ir  0  0  0  0  0  0  0  0  0  0  0  0
    2.8367    6.0249   25.5227 Cl  0  0  0  0  0  0  0  0  0  0  0  0
    5.7853    6.7499   24.2358 Cl  0  0  0  0  0  0  0  0  0  0  0  0
    5.6324    5.9877   27.2276 S   0  0  0  0  0  0  0  0  0  0  0  0
    5.3669    5.8337   28.6454 O   0  0  0  0  0  1  0  0  0  0  0  0
    5.4644    4.3354   26.4906 C   0  0  0  0  0  0  0  0  0  0  0  0
    5.7827    4.4147   25.4579 H   0  0  0  0  0  0  0  0  0  0  0  0
    4.4154    4.0637   26.5378 H   0  0  0  0  0  0  0  0  0  0  0  0
    6.0716    3.6453   27.0646 H   0  0  0  0  0  0  0  0  0  0  0  0
    7.4329    6.1654   27.0584 C   0  0  0  0  0  0  0  0  0  0  0  0
    7.6529    6.1705   25.9974 H   0  0  0  0  0  0  0  0  0  0  0  0
    7.9051    5.3414   27.5802 H   0  0  0  0  0  0  0  0  0  0  0  0
    7.7084    7.1164   27.5013 H   0  0  0  0  0  0  0  0  0  0  0  0
    6.1775    9.1287   26.4865 Cl  0  0  0  0  0  0  0  0  0  0  0  0
    3.2286    8.4024   27.7736 Cl  0  0  0  0  0  0  0  0  0  0  0  0
    3.3808    9.1666   24.7801 S   0  0  0  0  0  0  0  0  0  0  0  0
    3.6464    9.3206   23.3623 O   0  0  0  0  0  1  0  0  0  0  0  0
    3.5489   10.8187   25.5172 C   0  0  0  0  0  0  0  0  0  0  0  0
    3.2306   10.7393   26.5500 H   0  0  0  0  0  0  0  0  0  0  0  0
    4.5979   11.0904   25.4702 H   0  0  0  0  0  0  0  0  0  0  0  0
    2.9417   11.5088   24.9433 H   0  0  0  0  0  0  0  0  0  0  0  0
    1.5804    8.9885   24.9493 C   0  0  0  0  0  0  0  0  0  0  0  0
    1.3603    8.9834   26.0104 H   0  0  0  0  0  0  0  0  0  0  0  0
    1.1081    9.8125   24.4276 H   0  0  0  0  0  0  0  0  0  0  0  0
    1.3050    8.0375   24.5064 H   0  0  0  0  0  0  0  0  0  0  0  0
  1 14  1  0  0  0  0
  1  4  1  0  0  0  0
  1 15  1  0  0  0  0
  2  1  1  0  0  0  0
  3  1  1  0  0  0  0
  4  5  1  0  0  0  0
  6  8  1  0  0  0  0
  6  9  1  0  0  0  0
  6  4  1  0  0  0  0
  7  6  1  0  0  0  0
 10  4  1  0  0  0  0
 10 13  1  0  0  0  0
 10 12  1  0  0  0  0
 11 10  1  0  0  0  0
 16 22  1  0  0  0  0
 16 18  1  0  0  0  0
 16  1  1  0  0  0  0
 17 16  1  0  0  0  0
 18 19  1  0  0  0  0
 20 18  1  0  0  0  0
 21 18  1  0  0  0  0
 22 23  1  0  0  0  0
 24 22  1  0  0  0  0
 25 22  1  0  0  0  0
M  END
$$$$
