CSD_code = AZORIS | q = -1 | S = 0 | Stoichiometry = C2H6Cl3OPtS(1-) | MND = 4
 OpenBabel04212202003D

 14 13  0  0  0  0  0  0  0  0999 V2000
    3.6790    2.6291    1.5610 Pt  0  0  0  0  0  0  0  0  0  0  0  0
    5.0421    4.4357    1.1571 Cl  0  0  0  0  0  0  0  0  0  0  0  0
    2.4498    0.7316    1.9759 Cl  0  0  0  0  0  0  0  0  0  0  0  0
    1.9733    3.9584    2.1660 Cl  0  0  0  0  0  0  0  0  0  0  0  0
    5.4220    1.3054    0.9462 S   0  0  0  0  0  0  0  0  0  0  0  0
    5.6490    1.0719   -0.4720 O   0  0  0  0  0  1  0  0  0  0  0  0
    5.4660   -0.3476    1.7331 C   0  0  0  0  0  0  0  0  0  0  0  0
    4.5624   -0.8691    1.4376 H   0  0  0  0  0  0  0  0  0  0  0  0
    5.4743   -0.2139    2.8081 H   0  0  0  0  0  0  0  0  0  0  0  0
    6.3487   -0.8696    1.3814 H   0  0  0  0  0  0  0  0  0  0  0  0
    7.0182    1.8885    1.6254 C   0  0  0  0  0  0  0  0  0  0  0  0
    7.8065    1.2331    1.2731 H   0  0  0  0  0  0  0  0  0  0  0  0
    6.9458    1.8872    2.7069 H   0  0  0  0  0  0  0  0  0  0  0  0
    7.1638    2.9014    1.2648 H   0  0  0  0  0  0  0  0  0  0  0  0
  1  3  1  0  0  0  0
  1  4  1  0  0  0  0
  2  1  1  0  0  0  0
  5  1  1  0  0  0  0
  5 11  1  0  0  0  0
  5  7  1  0  0  0  0
  6  5  1  0  0  0  0
  7  9  1  0  0  0  0
  8  7  1  0  0  0  0
 10  7  1  0  0  0  0
 11 13  1  0  0  0  0
 12 11  1  0  0  0  0
 14 11  1  0  0  0  0
M  END
$$$$
