CSD_code = AZULOY | q = 1 | S = 0 | Stoichiometry = C21H29ClN3ORuS(1+) | MND = 9
 OpenBabel04212202003D

 57 57  0  0  1  0  0  0  0  0999 V2000
    1.9390    7.9962   10.0542 Ru  0  0  0  0  0  0  0  0  0  0  0  0
   -0.2941    8.2628   10.6779 Cl  0  0  0  0  0 15  0  0  0  0  0  0
    1.0970    7.9462    7.8492 S   0  0  0  0  0  0  0  0  0  0  0  0
    3.8003    3.6480   12.0385 O   0  0  0  0  0  0  0  0  0  0  0  0
    1.5306    6.0287   10.0070 N   0  0  0  0  0  0  0  0  0  0  0  0
    0.8922    5.5526    8.8837 N   0  0  0  0  0  0  0  0  0  0  0  0
   -0.1747    5.8491    6.8508 N   0  0  0  0  0  0  0  0  0  0  0  0
    3.6538    8.5155   11.8716 C   0  0  0  0  0  0  0  0  0  0  0  0
    4.2203    7.9710   10.6930 C   0  0  0  0  0  0  0  0  0  0  0  0
    4.0891    8.6182    9.4506 C   0  0  0  0  0  0  0  0  0  0  0  0
    3.2266    9.7428    9.3957 C   0  0  2  0  0  0  0  0  0  0  0  0
    2.5352   10.1826   10.5328 C   0  0  0  0  0  3  0  0  0  0  0  0
    2.8007    9.6177   11.8134 C   0  0  0  0  0  0  0  0  0  0  0  0
    2.1923   10.2207   13.0356 C   0  0  0  0  0  0  0  0  0  0  0  0
    4.8827    8.1856    8.2409 C   0  0  0  0  0  0  0  0  0  0  0  0
    6.3600    8.5359    8.4448 C   0  0  0  0  0  0  0  0  0  0  0  0
    4.7068    6.6918    7.9594 C   0  0  0  0  0  0  0  0  0  0  0  0
    0.5441    6.4924    4.5855 C   0  0  0  0  0  0  0  0  0  0  0  0
   -0.5274    6.6058    5.6635 C   0  0  0  0  0  0  0  0  0  0  0  0
    0.5492    6.3499    7.8467 C   0  0  0  0  0  0  0  0  0  0  0  0
    1.8641    5.1386   10.8808 C   0  0  0  0  0  3  0  0  0  0  0  0
    2.3021    5.4381   12.2233 C   0  0  0  0  0  0  0  0  0  0  0  0
    1.6905    6.4497   12.9697 C   0  0  0  0  0  0  0  0  0  0  0  0
    2.0213    6.6333   14.2974 C   0  0  0  0  0  0  0  0  0  0  0  0
    2.9779    5.8211   14.8885 C   0  0  0  0  0  0  0  0  0  0  0  0
    3.5957    4.8127   14.1686 C   0  0  0  0  0  0  0  0  0  0  0  0
    3.2587    4.5979   12.8369 C   0  0  0  0  0  0  0  0  0  0  0  0
    4.7221    2.7313   12.5960 C   0  0  0  0  0  0  0  0  0  0  0  0
    3.9151    8.0846   12.8295 H   0  0  0  0  0  0  0  0  0  0  0  0
    1.9076   11.0659   10.4692 H   0  0  0  0  0  0  0  0  0  0  0  0
    3.1315   10.2949    8.4646 H   0  0  0  0  0  0  0  0  0  0  0  0
    4.8985    7.1311   10.7897 H   0  0  0  0  0  0  0  0  0  0  0  0
    4.3265    4.1892   14.6572 H   0  0  0  0  0  0  0  0  0  0  0  0
    3.2396    5.9624   15.9258 H   0  0  0  0  0  0  0  0  0  0  0  0
    1.5210    7.3919   14.8781 H   0  0  0  0  0  0  0  0  0  0  0  0
    0.9049    7.0390   12.5121 H   0  0  0  0  0  0  0  0  0  0  0  0
    0.5774    4.5833    8.9134 H   0  0  0  0  0  0  0  0  0  0  0  0
   -0.4170    4.8683    6.8565 H   0  0  0  0  0  0  0  0  0  0  0  0
    1.1057   10.1432   12.9875 H   0  0  0  0  0  0  0  0  0  0  0  0
    2.5409    9.7210   13.9352 H   0  0  0  0  0  0  0  0  0  0  0  0
    2.4424   11.2793   13.0952 H   0  0  0  0  0  0  0  0  0  0  0  0
    4.5115    8.7413    7.3728 H   0  0  0  0  0  0  0  0  0  0  0  0
    6.4794    9.6012    8.6269 H   0  0  0  0  0  0  0  0  0  0  0  0
    6.7740    7.9927    9.2909 H   0  0  0  0  0  0  0  0  0  0  0  0
    6.9276    8.2735    7.5564 H   0  0  0  0  0  0  0  0  0  0  0  0
    5.1499    6.0851    8.7452 H   0  0  0  0  0  0  0  0  0  0  0  0
    3.6464    6.4460    7.8816 H   0  0  0  0  0  0  0  0  0  0  0  0
    5.1898    6.4341    7.0209 H   0  0  0  0  0  0  0  0  0  0  0  0
    0.2428    7.0652    3.7145 H   0  0  0  0  0  0  0  0  0  0  0  0
    1.4889    6.8869    4.9493 H   0  0  0  0  0  0  0  0  0  0  0  0
    0.6839    5.4570    4.2855 H   0  0  0  0  0  0  0  0  0  0  0  0
   -1.4803    6.2221    5.2970 H   0  0  0  0  0  0  0  0  0  0  0  0
   -0.6536    7.6496    5.9580 H   0  0  0  0  0  0  0  0  0  0  0  0
    1.7764    4.0815   10.6300 H   0  0  0  0  0  0  0  0  0  0  0  0
    4.9790    2.0483   11.7885 H   0  0  0  0  0  0  0  0  0  0  0  0
    5.6270    3.2371   12.9430 H   0  0  0  0  0  0  0  0  0  0  0  0
    4.2759    2.1683   13.4195 H   0  0  0  0  0  0  0  0  0  0  0  0
  4 28  1  0  0  0  0
  4 27  1  0  0  0  0
  5  1  1  0  0  0  0
  5 21  1  0  0  0  0
  6 37  1  0  0  0  0
  6  5  1  0  0  0  0
  7 38  1  0  0  0  0
  7 20  1  0  0  0  0
  8 29  1  0  0  0  0
  9 32  1  0  0  0  0
  9  8  1  0  0  0  0
 10  9  2  0  0  0  0
 11 31  1  6  0  0  0
 11 10  1  0  0  0  0
 11  1  1  0  0  0  0
 11 12  1  0  0  0  0
 12 13  1  0  0  0  0
 13  8  2  0  0  0  0
 13 14  1  0  0  0  0
 14 41  1  0  0  0  0
 14 40  1  0  0  0  0
 15 16  1  0  0  0  0
 15 10  1  0  0  0  0
 16 43  1  0  0  0  0
 16 44  1  0  0  0  0
 17 15  1  0  0  0  0
 17 46  1  0  0  0  0
 18 50  1  0  0  0  0
 18 19  1  0  0  0  0
 19 53  1  0  0  0  0
 19  7  1  0  0  0  0
 20  3  2  0  0  0  0
 20  6  1  0  0  0  0
 21 22  1  0  0  0  0
 22 27  2  0  0  0  0
 22 23  1  0  0  0  0
 23 24  2  0  0  0  0
 24 35  1  0  0  0  0
 24 25  1  0  0  0  0
 25 34  1  0  0  0  0
 26 33  1  0  0  0  0
 26 25  2  0  0  0  0
 27 26  1  0  0  0  0
 28 56  1  0  0  0  0
 28 57  1  0  0  0  0
 30 12  1  0  0  0  0
 36 23  1  0  0  0  0
 39 14  1  0  0  0  0
 42 15  1  0  0  0  0
 45 16  1  0  0  0  0
 47 17  1  0  0  0  0
 48 17  1  0  0  0  0
 49 18  1  0  0  0  0
 51 18  1  0  0  0  0
 52 19  1  0  0  0  0
 54 21  1  0  0  0  0
 55 28  1  0  0  0  0
M  END
$$$$
