CSD_code = BABNEZ | q = 0 | S = 0 | Stoichiometry = C38H34ClCuO2P2 | MND = 3
 OpenBabel04212202003D

 78 83  0  0  0  0  0  0  0  0999 V2000
    7.4546    6.7611    0.0611 C   0  0  0  0  0  0  0  0  0  0  0  0
    7.5083    5.4009   -0.1812 C   0  0  0  0  0  0  0  0  0  0  0  0
    7.2508    4.6977    0.5975 H   0  0  0  0  0  0  0  0  0  0  0  0
    7.8939    4.9496   -1.4352 C   0  0  0  0  0  0  0  0  0  0  0  0
    7.9415    3.8888   -1.6303 H   0  0  0  0  0  0  0  0  0  0  0  0
    8.2170    5.8511   -2.4340 C   0  0  0  0  0  0  0  0  0  0  0  0
    8.5137    5.4896   -3.4075 H   0  0  0  0  0  0  0  0  0  0  0  0
    8.1719    7.2197   -2.2063 C   0  0  0  0  0  0  0  0  0  0  0  0
    8.4341    7.9097   -2.9936 H   0  0  0  0  0  0  0  0  0  0  0  0
    7.7951    7.6724   -0.9537 C   0  0  0  0  0  0  0  0  0  0  0  0
    7.8861   10.0236   -1.4261 C   0  0  0  0  0  0  0  0  0  0  0  0
    7.5711   10.9114   -0.8756 H   0  0  0  0  0  0  0  0  0  0  0  0
    7.2676    9.9085   -2.3213 H   0  0  0  0  0  0  0  0  0  0  0  0
    8.9384   10.1108   -1.7128 H   0  0  0  0  0  0  0  0  0  0  0  0
    8.5772    8.1678    2.1795 C   0  0  0  0  0  0  0  0  0  0  0  0
    8.8036    9.5136    2.4402 C   0  0  0  0  0  0  0  0  0  0  0  0
    8.0108   10.2299    2.2676 H   0  0  0  0  0  0  0  0  0  0  0  0
   10.0439    9.9256    2.8962 C   0  0  0  0  0  0  0  0  0  0  0  0
   10.2221   10.9717    3.0968 H   0  0  0  0  0  0  0  0  0  0  0  0
   11.0537    8.9980    3.0904 C   0  0  0  0  0  0  0  0  0  0  0  0
   12.0220    9.3195    3.4463 H   0  0  0  0  0  0  0  0  0  0  0  0
   10.8293    7.6554    2.8240 C   0  0  0  0  0  0  0  0  0  0  0  0
   11.6215    6.9352    2.9714 H   0  0  0  0  0  0  0  0  0  0  0  0
    9.5947    7.2364    2.3656 C   0  0  0  0  0  0  0  0  0  0  0  0
    9.4125    6.1915    2.1514 H   0  0  0  0  0  0  0  0  0  0  0  0
    6.4303    6.3422    2.6851 C   0  0  0  0  0  0  0  0  0  0  0  0
    6.8998    6.2525    3.9910 C   0  0  0  0  0  0  0  0  0  0  0  0
    7.6697    6.9311    4.3317 H   0  0  0  0  0  0  0  0  0  0  0  0
    6.3867    5.2960    4.8486 C   0  0  0  0  0  0  0  0  0  0  0  0
    6.7607    5.2275    5.8601 H   0  0  0  0  0  0  0  0  0  0  0  0
    5.3975    4.4290    4.4163 C   0  0  0  0  0  0  0  0  0  0  0  0
    5.0029    3.6803    5.0873 H   0  0  0  0  0  0  0  0  0  0  0  0
    4.9043    4.5316    3.1252 C   0  0  0  0  0  0  0  0  0  0  0  0
    4.1210    3.8677    2.7897 H   0  0  0  0  0  0  0  0  0  0  0  0
    5.4050    5.4929    2.2700 C   0  0  0  0  0  0  0  0  0  0  0  0
    5.0009    5.5947    1.2705 H   0  0  0  0  0  0  0  0  0  0  0  0
    2.8186    7.4998    2.3037 C   0  0  0  0  0  0  0  0  0  0  0  0
    3.3691    7.7971    3.5480 C   0  0  0  0  0  0  0  0  0  0  0  0
    4.0558    8.6321    3.6296 H   0  0  0  0  0  0  0  0  0  0  0  0
    3.0476    7.0369    4.6553 C   0  0  0  0  0  0  0  0  0  0  0  0
    3.4771    7.2724    5.6177 H   0  0  0  0  0  0  0  0  0  0  0  0
    2.1795    5.9648    4.5236 C   0  0  0  0  0  0  0  0  0  0  0  0
    1.9284    5.3649    5.3859 H   0  0  0  0  0  0  0  0  0  0  0  0
    1.6381    5.6578    3.2863 C   0  0  0  0  0  0  0  0  0  0  0  0
    0.9637    4.8192    3.1859 H   0  0  0  0  0  0  0  0  0  0  0  0
    1.9557    6.4192    2.1753 C   0  0  0  0  0  0  0  0  0  0  0  0
    1.5365    6.1732    1.2097 H   0  0  0  0  0  0  0  0  0  0  0  0
    2.8937    7.6287   -0.5465 C   0  0  0  0  0  0  0  0  0  0  0  0
    3.9222    6.9468   -1.1871 C   0  0  0  0  0  0  0  0  0  0  0  0
    4.9289    7.0200   -0.7919 H   0  0  0  0  0  0  0  0  0  0  0  0
    3.6656    6.1986   -2.3209 C   0  0  0  0  0  0  0  0  0  0  0  0
    4.4706    5.6704   -2.8118 H   0  0  0  0  0  0  0  0  0  0  0  0
    2.3767    6.1371   -2.8257 C   0  0  0  0  0  0  0  0  0  0  0  0
    2.1715    5.5565   -3.7133 H   0  0  0  0  0  0  0  0  0  0  0  0
    1.3507    6.8271   -2.1990 C   0  0  0  0  0  0  0  0  0  0  0  0
    0.3483    6.7832   -2.6005 H   0  0  0  0  0  0  0  0  0  0  0  0
    1.6037    7.5738   -1.0623 C   0  0  0  0  0  0  0  0  0  0  0  0
    0.8072    8.1201   -0.5750 H   0  0  0  0  0  0  0  0  0  0  0  0
    2.0811    9.8825    0.9999 C   0  0  0  0  0  0  0  0  0  0  0  0
    1.0935   10.0838    1.9483 C   0  0  0  0  0  0  0  0  0  0  0  0
    0.9216    9.3436    2.7171 H   0  0  0  0  0  0  0  0  0  0  0  0
    0.3421   11.2477    1.9017 C   0  0  0  0  0  0  0  0  0  0  0  0
   -0.4365   11.4137    2.6309 H   0  0  0  0  0  0  0  0  0  0  0  0
    0.6041   12.2077    0.9391 C   0  0  0  0  0  0  0  0  0  0  0  0
    0.0284   13.1213    0.9248 H   0  0  0  0  0  0  0  0  0  0  0  0
    1.6029   12.0260   -0.0073 C   0  0  0  0  0  0  0  0  0  0  0  0
    1.8045   12.7979   -0.7334 H   0  0  0  0  0  0  0  0  0  0  0  0
    2.3349   10.8517    0.0163 C   0  0  0  0  0  0  0  0  0  0  0  0
    3.9136   11.4324   -1.6717 C   0  0  0  0  0  0  0  0  0  0  0  0
    4.6706   10.9000   -2.2448 H   0  0  0  0  0  0  0  0  0  0  0  0
    4.3967   12.2098   -1.0739 H   0  0  0  0  0  0  0  0  0  0  0  0
    3.1824   11.8729   -2.3562 H   0  0  0  0  0  0  0  0  0  0  0  0
    5.9377   11.4489    1.0826 Cl  0  0  0  0  0  0  0  0  0  0  0  0
    5.4516    9.3133    1.1714 Cu  0  0  0  0  0  0  0  0  0  0  0  0
    7.6937    8.9519   -0.5322 O   0  0  0  0  0  0  0  0  0  0  0  0
    3.3152   10.4661   -0.8361 O   0  0  0  0  0  0  0  0  0  0  0  0
    6.9431    7.6688    1.5509 P   0  0  0  0  0  4  0  0  0  0  0  0
    3.3404    8.5875    0.9353 P   0  0  0  0  0  4  0  0  0  0  0  0
  1 77  1  0  0  0  0
  2  1  1  0  0  0  0
  2  3  1  0  0  0  0
  4  2  2  0  0  0  0
  5  4  1  0  0  0  0
  6  8  2  0  0  0  0
  6  4  1  0  0  0  0
  7  6  1  0  0  0  0
  8 10  1  0  0  0  0
  9  8  1  0  0  0  0
 10 75  1  0  0  0  0
 10  1  2  0  0  0  0
 11 12  1  0  0  0  0
 11 75  1  0  0  0  0
 13 11  1  0  0  0  0
 14 11  1  0  0  0  0
 15 24  2  0  0  0  0
 15 16  1  0  0  0  0
 16 18  2  0  0  0  0
 17 16  1  0  0  0  0
 18 20  1  0  0  0  0
 18 19  1  0  0  0  0
 20 21  1  0  0  0  0
 22 23  1  0  0  0  0
 22 20  2  0  0  0  0
 24 22  1  0  0  0  0
 25 24  1  0  0  0  0
 26 27  1  0  0  0  0
 27 28  1  0  0  0  0
 27 29  2  0  0  0  0
 29 30  1  0  0  0  0
 31 29  1  0  0  0  0
 31 32  1  0  0  0  0
 33 31  2  0  0  0  0
 34 33  1  0  0  0  0
 35 26  2  0  0  0  0
 35 33  1  0  0  0  0
 36 35  1  0  0  0  0
 37 38  1  0  0  0  0
 38 39  1  0  0  0  0
 38 40  2  0  0  0  0
 40 41  1  0  0  0  0
 42 40  1  0  0  0  0
 42 43  1  0  0  0  0
 44 42  2  0  0  0  0
 45 44  1  0  0  0  0
 46 37  2  0  0  0  0
 46 44  1  0  0  0  0
 47 46  1  0  0  0  0
 48 78  1  0  0  0  0
 49 50  1  0  0  0  0
 49 48  2  0  0  0  0
 51 49  1  0  0  0  0
 52 51  1  0  0  0  0
 53 51  2  0  0  0  0
 53 55  1  0  0  0  0
 54 53  1  0  0  0  0
 55 57  2  0  0  0  0
 56 55  1  0  0  0  0
 57 58  1  0  0  0  0
 57 48  1  0  0  0  0
 59 60  1  0  0  0  0
 60 61  1  0  0  0  0
 62 60  2  0  0  0  0
 62 63  1  0  0  0  0
 64 62  1  0  0  0  0
 65 64  1  0  0  0  0
 66 68  1  0  0  0  0
 66 64  2  0  0  0  0
 67 66  1  0  0  0  0
 68 59  2  0  0  0  0
 69 71  1  0  0  0  0
 69 76  1  0  0  0  0
 70 69  1  0  0  0  0
 72 69  1  0  0  0  0
 73 74  1  0  0  0  0
 74 77  1  0  0  0  0
 76 68  1  0  0  0  0
 77 15  1  0  0  0  0
 77 26  1  0  0  0  0
 78 59  1  0  0  0  0
 78 74  1  0  0  0  0
 78 37  1  0  0  0  0
M  END
$$$$
