CSD_code = BABSII | q = 0 | S = 0 | Stoichiometry = C43H37As2Cl3NRe | MND = 6
 OpenBabel04212202003D

 87 91  0  0  0  0  0  0  0  0999 V2000
    2.1154    7.2939   10.8176 Re  0  0  0  0  0  0  0  0  0  0  0  0
    1.8772    8.3437   13.0446 As  0  0  0  0  0  0  0  0  0  0  0  0
    2.7401    6.2446    8.6480 As  0  0  0  0  0  0  0  0  0  0  0  0
    0.4468    7.5119   10.3119 N   0  0  0  0  0  2  0  0  0  0  0  0
    1.6318    5.0255   11.4984 Cl  0  0  0  0  0  0  0  0  0  0  0  0
    2.6020    9.5223    9.9876 Cl  0  0  0  0  0  0  0  0  0  0  0  0
    4.2317    7.0973   11.4302 Cl  0  0  0  0  0  0  0  0  0  0  0  0
    2.7136   10.0802   13.2186 C   0  0  0  0  0  0  0  0  0  0  0  0
    4.0010   10.2057   13.7307 C   0  0  0  0  0  0  0  0  0  0  0  0
    4.5108    9.3266   14.1164 H   0  0  0  0  0  0  0  0  0  0  0  0
    4.6293   11.4395   13.7360 C   0  0  0  0  0  0  0  0  0  0  0  0
    5.6306   11.5320   14.1320 H   0  0  0  0  0  0  0  0  0  0  0  0
    3.9808   12.5496   13.2218 C   0  0  0  0  0  0  0  0  0  0  0  0
    4.4754   13.5100   13.2210 H   0  0  0  0  0  0  0  0  0  0  0  0
    2.7055   12.4276   12.6929 C   0  0  0  0  0  0  0  0  0  0  0  0
    2.2091   13.2907   12.2734 H   0  0  0  0  0  0  0  0  0  0  0  0
    2.0753   11.1971   12.6839 C   0  0  0  0  0  0  0  0  0  0  0  0
    1.0909   11.0795   12.2394 H   0  0  0  0  0  0  0  0  0  0  0  0
    2.5710    7.4023   14.6022 C   0  0  0  0  0  0  0  0  0  0  0  0
    2.9971    6.0835   14.5401 C   0  0  0  0  0  0  0  0  0  0  0  0
    2.9562    5.5432   13.6011 H   0  0  0  0  0  0  0  0  0  0  0  0
    3.4598    5.4502   15.6830 C   0  0  0  0  0  0  0  0  0  0  0  0
    3.7935    4.4242   15.6282 H   0  0  0  0  0  0  0  0  0  0  0  0
    3.4919    6.1276   16.8887 C   0  0  0  0  0  0  0  0  0  0  0  0
    3.8558    5.6335   17.7777 H   0  0  0  0  0  0  0  0  0  0  0  0
    3.0528    7.4414   16.9597 C   0  0  0  0  0  0  0  0  0  0  0  0
    3.0708    7.9684   17.9029 H   0  0  0  0  0  0  0  0  0  0  0  0
    2.5921    8.0766   15.8221 C   0  0  0  0  0  0  0  0  0  0  0  0
    2.2435    9.1063   15.8641 H   0  0  0  0  0  0  0  0  0  0  0  0
    0.0509    8.6145   13.6590 C   0  0  0  0  0  0  0  0  0  0  0  0
   -0.8355    7.5813   13.3702 C   0  0  0  0  0  0  0  0  0  0  0  0
   -0.4667    6.7227   12.8142 H   0  0  0  0  0  0  0  0  0  0  0  0
   -2.1522    7.6529   13.7859 C   0  0  0  0  0  0  0  0  0  0  0  0
   -2.8389    6.8508   13.5571 H   0  0  0  0  0  0  0  0  0  0  0  0
   -2.5900    8.7582   14.4979 C   0  0  0  0  0  0  0  0  0  0  0  0
   -3.6193    8.8203   14.8199 H   0  0  0  0  0  0  0  0  0  0  0  0
   -1.7097    9.7836   14.8003 C   0  0  0  0  0  0  0  0  0  0  0  0
   -2.0522   10.6415   15.3610 H   0  0  0  0  0  0  0  0  0  0  0  0
   -0.3899    9.7143   14.3853 C   0  0  0  0  0  0  0  0  0  0  0  0
    0.3009   10.5183   14.6195 H   0  0  0  0  0  0  0  0  0  0  0  0
    1.2448    6.2601    7.4132 C   0  0  0  0  0  0  0  0  0  0  0  0
    0.1091    5.5399    7.7814 C   0  0  0  0  0  0  0  0  0  0  0  0
    0.1428    4.9321    8.6826 H   0  0  0  0  0  0  0  0  0  0  0  0
   -1.0415    5.6113    7.0191 C   0  0  0  0  0  0  0  0  0  0  0  0
   -1.9170    5.0472    7.3061 H   0  0  0  0  0  0  0  0  0  0  0  0
   -1.0746    6.4206    5.8944 C   0  0  0  0  0  0  0  0  0  0  0  0
   -1.9761    6.4833    5.3028 H   0  0  0  0  0  0  0  0  0  0  0  0
    0.0425    7.1547    5.5342 C   0  0  0  0  0  0  0  0  0  0  0  0
    0.0111    7.7938    4.6636 H   0  0  0  0  0  0  0  0  0  0  0  0
    1.2000    7.0788    6.2915 C   0  0  0  0  0  0  0  0  0  0  0  0
    2.0751    7.6606    6.0214 H   0  0  0  0  0  0  0  0  0  0  0  0
    4.2263    6.9115    7.5824 C   0  0  0  0  0  0  0  0  0  0  0  0
    4.5653    6.2127    6.4247 C   0  0  0  0  0  0  0  0  0  0  0  0
    3.9783    5.3413    6.1416 H   0  0  0  0  0  0  0  0  0  0  0  0
    5.6318    6.6277    5.6497 C   0  0  0  0  0  0  0  0  0  0  0  0
    5.8902    6.0855    4.7514 H   0  0  0  0  0  0  0  0  0  0  0  0
    6.3714    7.7383    6.0289 C   0  0  0  0  0  0  0  0  0  0  0  0
    7.2073    8.0594    5.4246 H   0  0  0  0  0  0  0  0  0  0  0  0
    6.0398    8.4332    7.1782 C   0  0  0  0  0  0  0  0  0  0  0  0
    6.6145    9.2991    7.4731 H   0  0  0  0  0  0  0  0  0  0  0  0
    4.9687    8.0219    7.9562 C   0  0  0  0  0  0  0  0  0  0  0  0
    4.7002    8.5774    8.8469 H   0  0  0  0  0  0  0  0  0  0  0  0
    3.2596    4.3665    8.6936 C   0  0  0  0  0  0  0  0  0  0  0  0
    4.3093    4.0121    9.5356 C   0  0  0  0  0  0  0  0  0  0  0  0
    4.7846    4.7739   10.1461 H   0  0  0  0  0  0  0  0  0  0  0  0
    4.7351    2.6990    9.6116 C   0  0  0  0  0  0  0  0  0  0  0  0
    5.5442    2.4313   10.2759 H   0  0  0  0  0  0  0  0  0  0  0  0
    4.1191    1.7275    8.8402 C   0  0  0  0  0  0  0  0  0  0  0  0
    4.4466    0.7000    8.9022 H   0  0  0  0  0  0  0  0  0  0  0  0
    3.0820    2.0740    7.9914 C   0  0  0  0  0  0  0  0  0  0  0  0
    2.6015    1.3174    7.3876 H   0  0  0  0  0  0  0  0  0  0  0  0
    2.6514    3.3882    7.9156 C   0  0  0  0  0  0  0  0  0  0  0  0
    1.8351    3.6575    7.2531 H   0  0  0  0  0  0  0  0  0  0  0  0
   -0.7350    7.7457    9.7527 C   0  0  0  0  0  0  0  0  0  0  0  0
   -1.8738    6.9810   10.0669 C   0  0  0  0  0  0  0  0  0  0  0  0
   -1.7878    6.2028   10.8089 H   0  0  0  0  0  0  0  0  0  0  0  0
   -3.0597    7.2137    9.4100 C   0  0  0  0  0  0  0  0  0  0  0  0
   -3.9270    6.6162    9.6536 H   0  0  0  0  0  0  0  0  0  0  0  0
   -3.1622    8.1961    8.4282 C   0  0  0  0  0  0  0  0  0  0  0  0
   -2.0363    8.9609    8.1267 C   0  0  0  0  0  0  0  0  0  0  0  0
   -2.1044    9.7271    7.3679 H   0  0  0  0  0  0  0  0  0  0  0  0
   -0.8418    8.7549    8.7729 C   0  0  0  0  0  0  0  0  0  0  0  0
    0.0394    9.3353    8.5427 H   0  0  0  0  0  0  0  0  0  0  0  0
   -4.4564    8.4404    7.7189 C   0  0  0  0  0  0  0  0  0  0  0  0
   -4.9860    9.2711    8.1868 H   0  0  0  0  0  0  0  0  0  0  0  0
   -5.0978    7.5636    7.7632 H   0  0  0  0  0  0  0  0  0  0  0  0
   -4.2818    8.7022    6.6776 H   0  0  0  0  0  0  0  0  0  0  0  0
  1  7  1  0  0  0  0
  1  5  1  0  0  0  0
  2  8  1  0  0  0  0
  2 30  1  0  0  0  0
  2 19  1  0  0  0  0
  3 63  1  0  0  0  0
  4  1  1  0  0  0  0
  6  1  1  0  0  0  0
  8  9  1  0  0  0  0
  9 11  2  0  0  0  0
  9 10  1  0  0  0  0
 11 12  1  0  0  0  0
 13 11  1  0  0  0  0
 14 13  1  0  0  0  0
 15 13  2  0  0  0  0
 16 15  1  0  0  0  0
 17 15  1  0  0  0  0
 17  8  2  0  0  0  0
 18 17  1  0  0  0  0
 19 28  1  0  0  0  0
 20 19  2  0  0  0  0
 20 22  1  0  0  0  0
 21 20  1  0  0  0  0
 22 24  2  0  0  0  0
 23 22  1  0  0  0  0
 24 26  1  0  0  0  0
 24 25  1  0  0  0  0
 26 27  1  0  0  0  0
 28 29  1  0  0  0  0
 28 26  2  0  0  0  0
 30 39  1  0  0  0  0
 31 30  2  0  0  0  0
 31 33  1  0  0  0  0
 32 31  1  0  0  0  0
 33 35  2  0  0  0  0
 34 33  1  0  0  0  0
 35 37  1  0  0  0  0
 35 36  1  0  0  0  0
 37 38  1  0  0  0  0
 39 40  1  0  0  0  0
 39 37  2  0  0  0  0
 41 42  1  0  0  0  0
 41  3  1  0  0  0  0
 42 43  1  0  0  0  0
 44 45  1  0  0  0  0
 44 42  2  0  0  0  0
 46 44  1  0  0  0  0
 47 46  1  0  0  0  0
 48 46  2  0  0  0  0
 48 50  1  0  0  0  0
 49 48  1  0  0  0  0
 50 41  2  0  0  0  0
 51 50  1  0  0  0  0
 52 61  1  0  0  0  0
 52  3  1  0  0  0  0
 53 52  2  0  0  0  0
 54 53  1  0  0  0  0
 55 57  2  0  0  0  0
 55 53  1  0  0  0  0
 56 55  1  0  0  0  0
 57 59  1  0  0  0  0
 58 57  1  0  0  0  0
 59 60  1  0  0  0  0
 59 61  2  0  0  0  0
 61 62  1  0  0  0  0
 63 64  1  0  0  0  0
 64 66  2  0  0  0  0
 64 65  1  0  0  0  0
 66 67  1  0  0  0  0
 68 69  1  0  0  0  0
 68 66  1  0  0  0  0
 70 68  2  0  0  0  0
 71 70  1  0  0  0  0
 72 70  1  0  0  0  0
 72 63  2  0  0  0  0
 73 72  1  0  0  0  0
 74 75  1  0  0  0  0
 74  4  1  0  0  0  0
 75 76  1  0  0  0  0
 77 78  1  0  0  0  0
 77 75  2  0  0  0  0
 79 77  1  0  0  0  0
 80 79  2  0  0  0  0
 80 82  1  0  0  0  0
 81 80  1  0  0  0  0
 82 74  2  0  0  0  0
 83 82  1  0  0  0  0
 84 86  1  0  0  0  0
 84 85  1  0  0  0  0
 84 79  1  0  0  0  0
 87 84  1  0  0  0  0
M  END
$$$$
