CSD_code = BABSUU | q = 0 | S = 0 | Stoichiometry = C38H32Cl2N4OPRe | MND = 6
 OpenBabel04212202003D

 79 86  0  0  1  0  0  0  0  0999 V2000
    2.4763   10.0627    3.3730 Re  0  0  0  0  0  0  0  0  0  0  0  0
    1.5269   11.4373    2.3402 O   0  0  0  0  0  0  0  0  0  0  0  0
    3.0827    8.6442    4.2182 N   0  0  0  0  0  2  0  0  0  0  0  0
    0.8081   10.4819    4.7267 N   0  0  2  0  0  0  0  0  0  0  0  0
   -0.3370   11.0882    4.4514 N   0  0  0  0  0  0  0  0  0  0  0  0
   -1.1690   11.1831    5.4502 N   0  0  0  0  0  0  0  0  0  0  0  0
    1.1371    8.5548    1.8738 P   0  0  0  0  0  4  0  0  0  0  0  0
    4.1930   10.0501    1.8208 Cl  0  0  0  0  0  0  0  0  0  0  0  0
    3.6141   11.6811    4.5929 Cl  0  0  0  0  0  0  0  0  0  0  0  0
    1.1374    8.8210    0.0777 C   0  0  0  0  0  0  0  0  0  0  0  0
    0.4940    7.8866   -0.7329 C   0  0  0  0  0  0  0  0  0  0  0  0
    0.0190    7.0244   -0.2840 H   0  0  0  0  0  0  0  0  0  0  0  0
    0.4705    8.0663   -2.1021 C   0  0  0  0  0  0  0  0  0  0  0  0
   -0.0281    7.3430   -2.7309 H   0  0  0  0  0  0  0  0  0  0  0  0
    1.0898    9.1706   -2.6689 C   0  0  0  0  0  0  0  0  0  0  0  0
    1.0709    9.3058   -3.7403 H   0  0  0  0  0  0  0  0  0  0  0  0
    1.7388   10.0918   -1.8653 C   0  0  0  0  0  0  0  0  0  0  0  0
    2.2320   10.9439   -2.3087 H   0  0  0  0  0  0  0  0  0  0  0  0
    1.7661    9.9201   -0.4915 C   0  0  0  0  0  0  0  0  0  0  0  0
    2.2954   10.6214    0.1361 H   0  0  0  0  0  0  0  0  0  0  0  0
    1.6658    6.8195    1.9913 C   0  0  0  0  0  0  0  0  0  0  0  0
    3.0144    6.5912    1.7231 C   0  0  0  0  0  0  0  0  0  0  0  0
    3.6448    7.4292    1.4525 H   0  0  0  0  0  0  0  0  0  0  0  0
    3.5308    5.3145    1.8252 C   0  0  0  0  0  0  0  0  0  0  0  0
    4.5760    5.1393    1.6214 H   0  0  0  0  0  0  0  0  0  0  0  0
    2.7093    4.2626    2.2001 C   0  0  0  0  0  0  0  0  0  0  0  0
    3.1148    3.2659    2.2912 H   0  0  0  0  0  0  0  0  0  0  0  0
    1.3680    4.4873    2.4573 C   0  0  0  0  0  0  0  0  0  0  0  0
    0.7266    3.6662    2.7427 H   0  0  0  0  0  0  0  0  0  0  0  0
    0.8404    5.7631    2.3525 C   0  0  0  0  0  0  0  0  0  0  0  0
   -0.2084    5.9321    2.5530 H   0  0  0  0  0  0  0  0  0  0  0  0
   -0.6179    8.5602    2.3364 C   0  0  0  0  0  0  0  0  0  0  0  0
   -1.6283    9.0289    1.5050 C   0  0  0  0  0  0  0  0  0  0  0  0
   -1.3986    9.3385    0.4954 H   0  0  0  0  0  0  0  0  0  0  0  0
   -2.9259    9.1134    1.9793 C   0  0  0  0  0  0  0  0  0  0  0  0
   -3.7074    9.4804    1.3312 H   0  0  0  0  0  0  0  0  0  0  0  0
   -3.2212    8.7433    3.2805 C   0  0  0  0  0  0  0  0  0  0  0  0
   -4.2332    8.8210    3.6480 H   0  0  0  0  0  0  0  0  0  0  0  0
   -2.2161    8.2814    4.1173 C   0  0  0  0  0  0  0  0  0  0  0  0
   -2.4427    8.0025    5.1360 H   0  0  0  0  0  0  0  0  0  0  0  0
   -0.9201    8.1936    3.6486 C   0  0  0  0  0  0  0  0  0  0  0  0
   -0.1173    7.8547    4.2927 H   0  0  0  0  0  0  0  0  0  0  0  0
    3.5293    7.4739    4.6683 C   0  0  0  0  0  0  0  0  0  0  0  0
    4.8768    7.1241    4.4415 C   0  0  0  0  0  0  0  0  0  0  0  0
    5.5077    7.8443    3.9445 H   0  0  0  0  0  0  0  0  0  0  0  0
    5.3448    5.8921    4.8301 C   0  0  0  0  0  0  0  0  0  0  0  0
    6.3773    5.6339    4.6440 H   0  0  0  0  0  0  0  0  0  0  0  0
    4.5130    4.9655    5.4571 C   0  0  0  0  0  0  0  0  0  0  0  0
    3.1896    5.3198    5.7020 C   0  0  0  0  0  0  0  0  0  0  0  0
    2.5347    4.6166    6.1962 H   0  0  0  0  0  0  0  0  0  0  0  0
    2.6976    6.5486    5.3248 C   0  0  0  0  0  0  0  0  0  0  0  0
    1.6708    6.8184    5.5210 H   0  0  0  0  0  0  0  0  0  0  0  0
    5.0441    3.6312    5.8758 C   0  0  0  0  0  0  0  0  0  0  0  0
    4.2357    2.9232    6.0392 H   0  0  0  0  0  0  0  0  0  0  0  0
    5.6049    3.7279    6.8060 H   0  0  0  0  0  0  0  0  0  0  0  0
    5.7197    3.2321    5.1223 H   0  0  0  0  0  0  0  0  0  0  0  0
    0.7365   10.1775    6.0371 C   0  0  1  0  0  3  0  0  0  0  0  0
    1.6469    9.5788    6.9116 C   0  0  0  0  0  0  0  0  0  0  0  0
    2.6292    9.2974    6.5676 H   0  0  0  0  0  0  0  0  0  0  0  0
    1.2396    9.4096    8.2101 C   0  0  0  0  0  0  0  0  0  0  0  0
    1.9140    8.9577    8.9215 H   0  0  0  0  0  0  0  0  0  0  0  0
   -0.0319    9.8209    8.6549 C   0  0  0  0  0  0  0  0  0  0  0  0
   -0.2918    9.6616    9.6908 H   0  0  0  0  0  0  0  0  0  0  0  0
   -0.9314   10.4289    7.8191 C   0  0  0  0  0  0  0  0  0  0  0  0
   -1.8988   10.7650    8.1548 H   0  0  0  0  0  0  0  0  0  0  0  0
   -0.5391   10.6162    6.4886 C   0  0  0  0  0  0  0  0  0  0  0  0
   -0.6747   11.6316    3.2145 C   0  0  0  0  0  0  0  0  0  0  0  0
    0.3015   11.8102    2.2006 C   0  0  0  0  0  0  0  0  0  0  0  0
   -0.1344   12.4307    1.0103 C   0  0  0  0  0  0  0  0  0  0  0  0
    0.5974   12.5903    0.2331 H   0  0  0  0  0  0  0  0  0  0  0  0
   -1.4407   12.8103    0.8358 C   0  0  0  0  0  0  0  0  0  0  0  0
   -1.7378   13.2707   -0.0956 H   0  0  0  0  0  0  0  0  0  0  0  0
   -2.3975   12.6140    1.8361 C   0  0  0  0  0  0  0  0  0  0  0  0
   -1.9929   12.0363    3.0212 C   0  0  0  0  0  0  0  0  0  0  0  0
   -2.6894   11.8785    3.8296 H   0  0  0  0  0  0  0  0  0  0  0  0
   -3.8174   13.0402    1.6248 C   0  0  0  0  0  0  0  0  0  0  0  0
   -4.4662   12.6101    2.3831 H   0  0  0  0  0  0  0  0  0  0  0  0
   -4.1680   12.7328    0.6412 H   0  0  0  0  0  0  0  0  0  0  0  0
   -3.8973   14.1257    1.6813 H   0  0  0  0  0  0  0  0  0  0  0  0
  1  3  1  0  0  0  0
  1  9  1  0  0  0  0
  1  4  1  0  0  0  0
  2  1  1  0  0  0  0
  3 43  1  0  0  0  0
  4  5  1  1  0  0  0
  4 57  1  0  0  0  0
  5  6  1  0  0  0  0
  6 66  2  0  0  0  0
  7 21  1  0  0  0  0
  7 32  1  0  0  0  0
  7  1  1  0  0  0  0
  8  1  1  0  0  0  0
 10  7  1  0  0  0  0
 11 12  1  0  0  0  0
 11 10  2  0  0  0  0
 13 11  1  0  0  0  0
 14 13  1  0  0  0  0
 15 13  2  0  0  0  0
 15 17  1  0  0  0  0
 16 15  1  0  0  0  0
 17 19  2  0  0  0  0
 18 17  1  0  0  0  0
 19 10  1  0  0  0  0
 19 20  1  0  0  0  0
 21 30  1  0  0  0  0
 22 24  1  0  0  0  0
 22 21  2  0  0  0  0
 23 22  1  0  0  0  0
 24 26  2  0  0  0  0
 25 24  1  0  0  0  0
 26 27  1  0  0  0  0
 26 28  1  0  0  0  0
 28 29  1  0  0  0  0
 30 28  2  0  0  0  0
 30 31  1  0  0  0  0
 32 41  1  0  0  0  0
 33 35  1  0  0  0  0
 33 32  2  0  0  0  0
 34 33  1  0  0  0  0
 35 37  2  0  0  0  0
 36 35  1  0  0  0  0
 37 38  1  0  0  0  0
 37 39  1  0  0  0  0
 39 40  1  0  0  0  0
 41 39  2  0  0  0  0
 41 42  1  0  0  0  0
 43 51  1  0  0  0  0
 44 43  2  0  0  0  0
 44 46  1  0  0  0  0
 45 44  1  0  0  0  0
 46 48  2  0  0  0  0
 47 46  1  0  0  0  0
 48 49  1  0  0  0  0
 48 53  1  0  0  0  0
 49 50  1  0  0  0  0
 51 52  1  0  0  0  0
 51 49  2  0  0  0  0
 53 54  1  0  0  0  0
 53 55  1  0  0  0  0
 56 53  1  0  0  0  0
 57 66  1  1  0  0  0
 57 58  1  0  0  0  0
 58 60  2  0  0  0  0
 59 58  1  0  0  0  0
 60 62  1  0  0  0  0
 60 61  1  0  0  0  0
 62 63  1  0  0  0  0
 64 65  1  0  0  0  0
 64 62  2  0  0  0  0
 66 64  1  0  0  0  0
 67  5  1  0  0  0  0
 68  2  1  0  0  0  0
 68 67  2  0  0  0  0
 69 68  1  0  0  0  0
 70 69  1  0  0  0  0
 71 69  2  0  0  0  0
 71 73  1  0  0  0  0
 72 71  1  0  0  0  0
 73 74  2  0  0  0  0
 74 67  1  0  0  0  0
 74 75  1  0  0  0  0
 76 79  1  0  0  0  0
 76 73  1  0  0  0  0
 76 77  1  0  0  0  0
 78 76  1  0  0  0  0
M  END
$$$$
