CSD_code = BABWIL | q = 0 | S = 0 | Stoichiometry = C32H54ClP2Rh | MND = 5
 OpenBabel04212202003D

 90 92  0  0  0  0  0  0  0  0999 V2000
    5.4432   16.7471   15.8814 Rh  0  0  0  0  0  0  0  0  0  0  0  0
    7.7712   14.4899   16.8086 C   0  0  0  0  0  0  0  0  0  0  0  0
    6.8121   13.7448   15.8709 C   0  0  0  0  0  0  0  0  0  0  0  0
    6.2088   14.4574   15.2938 H   0  0  0  0  0  0  0  0  0  0  0  0
    6.1257   13.1063   16.4196 H   0  0  0  0  0  0  0  0  0  0  0  0
    7.3684   13.1238   15.1678 H   0  0  0  0  0  0  0  0  0  0  0  0
    8.4395   13.4715   17.7323 C   0  0  0  0  0  0  0  0  0  0  0  0
    8.8136   12.6455   17.1266 H   0  0  0  0  0  0  0  0  0  0  0  0
    7.7433   13.0602   18.4562 H   0  0  0  0  0  0  0  0  0  0  0  0
    9.2841   13.8946   18.2659 H   0  0  0  0  0  0  0  0  0  0  0  0
    8.8383   15.1613   15.9416 C   0  0  0  0  0  0  0  0  0  0  0  0
    9.6033   15.6455   16.5429 H   0  0  0  0  0  0  0  0  0  0  0  0
    8.3853   15.9052   15.2861 H   0  0  0  0  0  0  0  0  0  0  0  0
    9.3299   14.4137   15.3184 H   0  0  0  0  0  0  0  0  0  0  0  0
    7.7747   16.9796   18.6831 C   0  0  0  0  0  0  0  0  0  0  0  0
    8.9400   16.2815   19.3845 C   0  0  0  0  0  0  0  0  0  0  0  0
    9.7146   15.9891   18.6814 H   0  0  0  0  0  0  0  0  0  0  0  0
    8.6173   15.4065   19.9428 H   0  0  0  0  0  0  0  0  0  0  0  0
    9.3890   16.9760   20.0946 H   0  0  0  0  0  0  0  0  0  0  0  0
    8.3287   18.0991   17.8012 C   0  0  0  0  0  0  0  0  0  0  0  0
    7.5163   18.7275   17.4454 H   0  0  0  0  0  0  0  0  0  0  0  0
    8.8728   17.7134   16.9444 H   0  0  0  0  0  0  0  0  0  0  0  0
    9.0099   18.7191   18.3834 H   0  0  0  0  0  0  0  0  0  0  0  0
    6.9010   17.6462   19.7529 C   0  0  0  0  0  0  0  0  0  0  0  0
    7.4426   18.4903   20.1789 H   0  0  0  0  0  0  0  0  0  0  0  0
    6.6602   16.9671   20.5665 H   0  0  0  0  0  0  0  0  0  0  0  0
    5.9800   18.0283   19.3181 H   0  0  0  0  0  0  0  0  0  0  0  0
    5.8518   14.9164   19.0413 C   0  0  0  0  0  0  0  0  0  0  0  0
    6.6096   14.6831   19.7951 H   0  0  0  0  0  0  0  0  0  0  0  0
    5.1801   15.6666   19.4693 H   0  0  0  0  0  0  0  0  0  0  0  0
    5.0085   13.6675   18.7564 C   0  0  0  0  0  0  0  0  0  0  0  0
    4.3952   13.8351   17.8713 H   0  0  0  0  0  0  0  0  0  0  0  0
    5.6420   12.7941   18.5935 H   0  0  0  0  0  0  0  0  0  0  0  0
    4.1098   13.4199   19.9353 C   0  0  0  0  0  0  0  0  0  0  0  0
    4.5247   12.6338   21.0017 C   0  0  0  0  0  0  0  0  0  0  0  0
    5.4959   12.1579   20.9709 H   0  0  0  0  0  0  0  0  0  0  0  0
    3.7033   12.4452   22.0996 C   0  0  0  0  0  0  0  0  0  0  0  0
    4.0361   11.8270   22.9213 H   0  0  0  0  0  0  0  0  0  0  0  0
    2.4573   13.0460   22.1445 C   0  0  0  0  0  0  0  0  0  0  0  0
    1.8153   12.8978   23.0007 H   0  0  0  0  0  0  0  0  0  0  0  0
    2.0353   13.8328   21.0856 C   0  0  0  0  0  0  0  0  0  0  0  0
    1.0610   14.2989   21.1139 H   0  0  0  0  0  0  0  0  0  0  0  0
    2.8573   14.0191   19.9895 C   0  0  0  0  0  0  0  0  0  0  0  0
    2.5255   14.6223   19.1569 H   0  0  0  0  0  0  0  0  0  0  0  0
    2.7326   17.6378   13.5666 C   0  0  0  0  0  0  0  0  0  0  0  0
    2.0177   17.9622   14.8840 C   0  0  0  0  0  0  0  0  0  0  0  0
    0.9392   17.8989   14.7459 H   0  0  0  0  0  0  0  0  0  0  0  0
    2.2544   18.9623   15.2454 H   0  0  0  0  0  0  0  0  0  0  0  0
    2.2975   17.2478   15.6540 H   0  0  0  0  0  0  0  0  0  0  0  0
    2.2250   18.5983   12.4863 C   0  0  0  0  0  0  0  0  0  0  0  0
    1.1355   18.5984   12.5196 H   0  0  0  0  0  0  0  0  0  0  0  0
    2.5168   18.2864   11.4895 H   0  0  0  0  0  0  0  0  0  0  0  0
    2.5545   19.6221   12.6387 H   0  0  0  0  0  0  0  0  0  0  0  0
    2.3758   16.2075   13.1623 C   0  0  0  0  0  0  0  0  0  0  0  0
    2.7409   15.4985   13.9015 H   0  0  0  0  0  0  0  0  0  0  0  0
    2.7801   15.9486   12.1859 H   0  0  0  0  0  0  0  0  0  0  0  0
    1.2923   16.1041   13.1111 H   0  0  0  0  0  0  0  0  0  0  0  0
    5.6367   17.2927   12.4832 C   0  0  0  0  0  0  0  0  0  0  0  0
    5.8366   15.7780   12.5580 C   0  0  0  0  0  0  0  0  0  0  0  0
    4.8880   15.2462   12.5571 H   0  0  0  0  0  0  0  0  0  0  0  0
    6.3720   15.5287   13.4769 H   0  0  0  0  0  0  0  0  0  0  0  0
    6.4300   15.4257   11.7141 H   0  0  0  0  0  0  0  0  0  0  0  0
    5.0454   17.6763   11.1298 C   0  0  0  0  0  0  0  0  0  0  0  0
    5.7907   17.5003   10.3533 H   0  0  0  0  0  0  0  0  0  0  0  0
    4.7738   18.7291   11.0978 H   0  0  0  0  0  0  0  0  0  0  0  0
    4.1744   17.0740   10.8889 H   0  0  0  0  0  0  0  0  0  0  0  0
    7.0110   17.9583   12.6074 C   0  0  0  0  0  0  0  0  0  0  0  0
    7.6940   17.5154   11.8829 H   0  0  0  0  0  0  0  0  0  0  0  0
    7.4283   17.8063   13.6004 H   0  0  0  0  0  0  0  0  0  0  0  0
    6.9656   19.0264   12.4103 H   0  0  0  0  0  0  0  0  0  0  0  0
    4.7748   19.6086   14.0650 C   0  0  0  0  0  0  0  0  0  0  0  0
    5.1792   19.9682   13.1173 H   0  0  0  0  0  0  0  0  0  0  0  0
    3.7892   20.0545   14.2061 H   0  0  0  0  0  0  0  0  0  0  0  0
    5.6483   20.0620   15.2370 C   0  0  0  0  0  0  0  0  0  0  0  0
    6.6327   19.5977   15.1757 H   0  0  0  0  0  0  0  0  0  0  0  0
    5.7798   21.1461   15.1919 H   0  0  0  0  0  0  0  0  0  0  0  0
    4.9558   19.6824   16.5165 C   0  0  0  0  0  0  0  0  0  0  0  0
    4.7577   18.3512   16.8830 C   0  0  0  0  0  0  0  0  0  0  0  0
    3.9801   18.0609   17.9971 C   0  0  0  0  0  0  0  0  0  0  0  0
    3.7797   17.0326   18.2694 H   0  0  0  0  0  0  0  0  0  0  0  0
    3.4240   19.0710   18.7647 C   0  0  0  0  0  0  0  0  0  0  0  0
    2.8184   18.8199   19.6235 H   0  0  0  0  0  0  0  0  0  0  0  0
    3.6522   20.3926   18.4284 C   0  0  0  0  0  0  0  0  0  0  0  0
    3.2339   21.1899   19.0247 H   0  0  0  0  0  0  0  0  0  0  0  0
    4.4043   20.6858   17.3067 C   0  0  0  0  0  0  0  0  0  0  0  0
    4.5638   21.7183   17.0257 H   0  0  0  0  0  0  0  0  0  0  0  0
    3.6497   15.2221   16.1530 Cl  0  0  0  0  0  0  0  0  0  0  0  0
    6.6745   15.8125   17.6364 P   0  0  0  0  0  4  0  0  0  0  0  0
    4.5830   17.7636   13.9993 P   0  0  0  0  0  4  0  0  0  0  0  0
    6.6812   17.5280   15.5988 H   0  0  0  0  0  0  0  0  0  0  0  0
  1 87  1  0  0  0  0
  1 78  1  0  0  0  0
  1 88  1  0  0  0  0
  2 88  1  0  0  0  0
  2  7  1  0  0  0  0
  3  5  1  0  0  0  0
  3  2  1  0  0  0  0
  4  3  1  0  0  0  0
  6  3  1  0  0  0  0
  7 10  1  0  0  0  0
  7  9  1  0  0  0  0
  8  7  1  0  0  0  0
 11 12  1  0  0  0  0
 11  2  1  0  0  0  0
 13 11  1  0  0  0  0
 14 11  1  0  0  0  0
 15 16  1  0  0  0  0
 15 24  1  0  0  0  0
 16 18  1  0  0  0  0
 16 19  1  0  0  0  0
 17 16  1  0  0  0  0
 20 23  1  0  0  0  0
 20 15  1  0  0  0  0
 21 20  1  0  0  0  0
 22 20  1  0  0  0  0
 24 25  1  0  0  0  0
 24 26  1  0  0  0  0
 27 24  1  0  0  0  0
 28 30  1  0  0  0  0
 28 29  1  0  0  0  0
 31 28  1  0  0  0  0
 31 34  1  0  0  0  0
 32 31  1  0  0  0  0
 33 31  1  0  0  0  0
 34 43  2  0  0  0  0
 34 35  1  0  0  0  0
 35 37  2  0  0  0  0
 36 35  1  0  0  0  0
 37 39  1  0  0  0  0
 37 38  1  0  0  0  0
 39 40  1  0  0  0  0
 41 42  1  0  0  0  0
 41 39  2  0  0  0  0
 43 41  1  0  0  0  0
 44 43  1  0  0  0  0
 45 89  1  0  0  0  0
 45 46  1  0  0  0  0
 46 48  1  0  0  0  0
 46 49  1  0  0  0  0
 47 46  1  0  0  0  0
 50 51  1  0  0  0  0
 50 53  1  0  0  0  0
 50 45  1  0  0  0  0
 52 50  1  0  0  0  0
 54 45  1  0  0  0  0
 54 55  1  0  0  0  0
 56 54  1  0  0  0  0
 57 54  1  0  0  0  0
 58 59  1  0  0  0  0
 58 67  1  0  0  0  0
 58 89  1  0  0  0  0
 59 61  1  0  0  0  0
 60 59  1  0  0  0  0
 62 59  1  0  0  0  0
 63 58  1  0  0  0  0
 64 63  1  0  0  0  0
 65 63  1  0  0  0  0
 66 63  1  0  0  0  0
 67 69  1  0  0  0  0
 68 67  1  0  0  0  0
 70 67  1  0  0  0  0
 71 73  1  0  0  0  0
 71 74  1  0  0  0  0
 72 71  1  0  0  0  0
 74 77  1  0  0  0  0
 75 74  1  0  0  0  0
 76 74  1  0  0  0  0
 77 78  2  0  0  0  0
 77 85  1  0  0  0  0
 78 79  1  0  0  0  0
 79 80  1  0  0  0  0
 79 81  2  0  0  0  0
 81 82  1  0  0  0  0
 83 81  1  0  0  0  0
 83 84  1  0  0  0  0
 85 83  2  0  0  0  0
 86 85  1  0  0  0  0
 88 15  1  0  0  0  0
 88 28  1  0  0  0  0
 89 71  1  0  0  0  0
 89  1  1  0  0  0  0
 90  1  1  0  0  0  0
M  END
$$$$
