CSD_code = BACLUN | q = 0 | S = 0 | Stoichiometry = C38H39BClMoN9O4 | MND = 6
 OpenBabel04212202003D

 93101  0  0  1  0  0  0  0  0999 V2000
    8.5711    4.3081    1.4746 Mo  0  0  0  0  0  0  0  0  0  0  0  0
    9.8413    5.2870   -0.2723 Cl  0  0  0  0  0  0  0  0  0  0  0  0
   10.3842    3.7814    4.1584 B   0  0  1  0  0  0  0  0  0  0  0  0
   11.0221    3.5802    5.1342 H   0  0  0  0  0  0  0  0  0  0  0  0
    6.2773    6.0499    1.0210 O   0  0  0  0  0  1  0  0  0  0  0  0
    7.2286    5.3696    1.2143 N   0  0  0  0  0  2  0  0  0  0  0  0
    7.8014    2.8153    0.5237 N   0  0  0  0  0  0  0  0  0  0  0  0
    8.1374    1.8809    0.7654 H   0  0  0  0  0  0  0  0  0  0  0  0
    6.8604    2.6688   -0.4614 C   0  0  0  0  0  0  0  0  0  0  0  0
    6.4672    3.7523   -1.2549 C   0  0  0  0  0  0  0  0  0  0  0  0
    6.9423    4.7116   -1.1042 H   0  0  0  0  0  0  0  0  0  0  0  0
    5.5317    3.6040   -2.2516 C   0  0  0  0  0  0  0  0  0  0  0  0
    5.2826    4.4700   -2.8415 H   0  0  0  0  0  0  0  0  0  0  0  0
    4.9343    2.3636   -2.5246 C   0  0  0  0  0  0  0  0  0  0  0  0
    5.3599    1.2704   -1.7582 C   0  0  0  0  0  0  0  0  0  0  0  0
    4.9494    0.2883   -1.9331 H   0  0  0  0  0  0  0  0  0  0  0  0
    6.2973    1.4215   -0.7608 C   0  0  0  0  0  0  0  0  0  0  0  0
    6.6008    0.5536   -0.1876 H   0  0  0  0  0  0  0  0  0  0  0  0
    3.9480    2.2175   -3.4827 N   0  0  0  0  0  0  0  0  0  0  0  0
    3.7137    0.9051   -4.0406 C   0  0  0  0  0  0  0  0  0  0  0  0
    4.6442    0.4260   -4.3660 H   0  0  0  0  0  0  0  0  0  0  0  0
    3.0540    0.9902   -4.9008 H   0  0  0  0  0  0  0  0  0  0  0  0
    3.2247    0.2584   -3.3076 H   0  0  0  0  0  0  0  0  0  0  0  0
    3.5848    3.3451   -4.3066 C   0  0  0  0  0  0  0  0  0  0  0  0
    3.3333    4.1981   -3.6766 H   0  0  0  0  0  0  0  0  0  0  0  0
    2.7000    3.0886   -4.8869 H   0  0  0  0  0  0  0  0  0  0  0  0
    4.3837    3.6401   -4.9988 H   0  0  0  0  0  0  0  0  0  0  0  0
    9.7108    5.7056    2.7365 N   0  0  0  0  0  0  0  0  0  0  0  0
   10.5605    5.2093    3.6478 N   0  0  1  0  0  0  0  0  0  0  0  0
   11.4751    6.1309    3.9757 C   0  0  0  0  0  3  0  0  0  0  0  0
   12.2401    5.9223    4.6967 H   0  0  0  0  0  0  0  0  0  0  0  0
   11.2162    7.2716    3.2492 C   0  0  0  0  0  0  0  0  0  0  0  0
   11.7467    8.2011    3.2675 H   0  0  0  0  0  0  0  0  0  0  0  0
   10.0827    6.9624    2.4846 C   0  0  0  0  0  0  0  0  0  0  0  0
    9.3503    7.8562    1.5878 C   0  0  0  0  0  0  0  0  0  0  0  0
    8.0156    8.1707    1.8394 C   0  0  0  0  0  0  0  0  0  0  0  0
    7.5153    7.7373    2.6936 H   0  0  0  0  0  0  0  0  0  0  0  0
    7.3379    9.0387    1.0133 C   0  0  0  0  0  0  0  0  0  0  0  0
    6.3021    9.2778    1.1909 H   0  0  0  0  0  0  0  0  0  0  0  0
    7.9758    9.6114   -0.0881 C   0  0  0  0  0  0  0  0  0  0  0  0
    9.3123    9.3137   -0.3319 C   0  0  0  0  0  0  0  0  0  0  0  0
    9.8349    9.7397   -1.1738 H   0  0  0  0  0  0  0  0  0  0  0  0
    9.9909    8.4493    0.5074 C   0  0  0  0  0  0  0  0  0  0  0  0
   11.0238    8.2091    0.3042 H   0  0  0  0  0  0  0  0  0  0  0  0
    7.2151   10.4525   -0.8443 O   0  0  0  0  0  0  0  0  0  0  0  0
    7.7867   11.0196   -1.9968 C   0  0  0  0  0  0  0  0  0  0  0  0
    6.9976   11.6136   -2.4560 H   0  0  0  0  0  0  0  0  0  0  0  0
    8.1173   10.2504   -2.7020 H   0  0  0  0  0  0  0  0  0  0  0  0
    8.6309   11.6725   -1.7495 H   0  0  0  0  0  0  0  0  0  0  0  0
    7.9736    3.7281    3.4498 N   0  0  0  0  0  0  0  0  0  0  0  0
    8.8798    3.6087    4.4313 N   0  0  2  0  0  0  0  0  0  0  0  0
    8.2558    3.4871    5.6094 C   0  0  0  0  0  3  0  0  0  0  0  0
    8.8069    3.3834    6.5225 H   0  0  0  0  0  0  0  0  0  0  0  0
    6.8943    3.5262    5.3895 C   0  0  0  0  0  0  0  0  0  0  0  0
    6.1080    3.4492    6.1117 H   0  0  0  0  0  0  0  0  0  0  0  0
    6.7592    3.6807    4.0060 C   0  0  0  0  0  0  0  0  0  0  0  0
    5.5472    3.7805    3.1899 C   0  0  0  0  0  0  0  0  0  0  0  0
    4.6715    4.8548    3.3340 C   0  0  0  0  0  0  0  0  0  0  0  0
    4.8747    5.6134    4.0749 H   0  0  0  0  0  0  0  0  0  0  0  0
    3.5744    4.9726    2.5116 C   0  0  0  0  0  0  0  0  0  0  0  0
    2.9064    5.8147    2.5924 H   0  0  0  0  0  0  0  0  0  0  0  0
    3.3209    4.0164    1.5261 C   0  0  0  0  0  0  0  0  0  0  0  0
    4.1591    2.9121    1.4193 C   0  0  0  0  0  0  0  0  0  0  0  0
    3.9766    2.1420    0.6876 H   0  0  0  0  0  0  0  0  0  0  0  0
    5.2633    2.8042    2.2441 C   0  0  0  0  0  0  0  0  0  0  0  0
    5.8994    1.9328    2.1719 H   0  0  0  0  0  0  0  0  0  0  0  0
    2.2342    4.2378    0.7418 O   0  0  0  0  0  0  0  0  0  0  0  0
    2.0075    3.3714   -0.3449 C   0  0  0  0  0  0  0  0  0  0  0  0
    1.1641    3.7953   -0.8881 H   0  0  0  0  0  0  0  0  0  0  0  0
    1.7462    2.3629   -0.0065 H   0  0  0  0  0  0  0  0  0  0  0  0
    2.8801    3.3179   -1.0026 H   0  0  0  0  0  0  0  0  0  0  0  0
   10.1944    2.8616    1.8280 N   0  0  0  0  0  0  0  0  0  0  0  0
   11.6657    1.8199    3.0930 C   0  0  0  0  0  3  0  0  0  0  0  0
   12.2397    1.6371    3.9787 H   0  0  0  0  0  0  0  0  0  0  0  0
   10.7797    2.8247    3.0342 N   0  0  2  0  0  0  0  0  0  0  0  0
   11.6476    1.1614    1.8865 C   0  0  0  0  0  0  0  0  0  0  0  0
   12.2314    0.3166    1.5841 H   0  0  0  0  0  0  0  0  0  0  0  0
   10.7041    1.8523    1.1116 C   0  0  0  0  0  0  0  0  0  0  0  0
   10.2419    1.4448   -0.2214 C   0  0  0  0  0  0  0  0  0  0  0  0
    9.7226    0.1617   -0.3712 C   0  0  0  0  0  0  0  0  0  0  0  0
    9.7151   -0.5128    0.4751 H   0  0  0  0  0  0  0  0  0  0  0  0
    9.1800   -0.2575   -1.5729 C   0  0  0  0  0  0  0  0  0  0  0  0
    8.7699   -1.2531   -1.6420 H   0  0  0  0  0  0  0  0  0  0  0  0
    9.1569    0.6096   -2.6595 C   0  0  0  0  0  0  0  0  0  0  0  0
    9.7405    1.8706   -2.5328 C   0  0  0  0  0  0  0  0  0  0  0  0
    9.7456    2.5221   -3.3915 H   0  0  0  0  0  0  0  0  0  0  0  0
   10.2810    2.2826   -1.3347 C   0  0  0  0  0  0  0  0  0  0  0  0
   10.7296    3.2606   -1.2581 H   0  0  0  0  0  0  0  0  0  0  0  0
    8.6081    0.3226   -3.8729 O   0  0  0  0  0  0  0  0  0  0  0  0
    7.9209   -0.8937   -4.0247 C   0  0  0  0  0  0  0  0  0  0  0  0
    7.5182   -0.8822   -5.0367 H   0  0  0  0  0  0  0  0  0  0  0  0
    7.0987   -0.9791   -3.3064 H   0  0  0  0  0  0  0  0  0  0  0  0
    8.5899   -1.7542   -3.9166 H   0  0  0  0  0  0  0  0  0  0  0  0
  1 72  1  0  0  0  0
  1 28  1  0  0  0  0
  1 50  1  0  0  0  0
  2  1  1  0  0  0  0
  3 51  1  0  0  0  0
  3  4  1  1  0  0  0
  5  6  1  0  0  0  0
  6  1  1  0  0  0  0
  7  8  1  0  0  0  0
  7  1  1  0  0  0  0
  9  7  1  0  0  0  0
 10 11  1  0  0  0  0
 10  9  2  0  0  0  0
 12 10  1  0  0  0  0
 13 12  1  0  0  0  0
 14 12  2  0  0  0  0
 14 15  1  0  0  0  0
 15 17  2  0  0  0  0
 16 15  1  0  0  0  0
 17  9  1  0  0  0  0
 17 18  1  0  0  0  0
 19 14  1  0  0  0  0
 20 19  1  0  0  0  0
 20 23  1  0  0  0  0
 21 20  1  0  0  0  0
 22 20  1  0  0  0  0
 24 25  1  0  0  0  0
 24 19  1  0  0  0  0
 26 24  1  0  0  0  0
 27 24  1  0  0  0  0
 28 29  1  0  0  0  0
 29 30  1  1  0  0  0
 29  3  1  0  0  0  0
 30 31  1  0  0  0  0
 32 33  1  0  0  0  0
 32 30  1  0  0  0  0
 34 28  1  0  0  0  0
 34 32  2  0  0  0  0
 35 36  1  0  0  0  0
 35 34  1  0  0  0  0
 36 37  1  0  0  0  0
 38 39  1  0  0  0  0
 38 36  2  0  0  0  0
 40 38  1  0  0  0  0
 41 40  2  0  0  0  0
 41 43  1  0  0  0  0
 42 41  1  0  0  0  0
 43 35  2  0  0  0  0
 44 43  1  0  0  0  0
 45 40  1  0  0  0  0
 46 49  1  0  0  0  0
 46 45  1  0  0  0  0
 47 46  1  0  0  0  0
 48 46  1  0  0  0  0
 50 56  1  0  0  0  0
 50 51  1  0  0  0  0
 51 52  1  1  0  0  0
 52 53  1  0  0  0  0
 54 52  1  0  0  0  0
 54 55  1  0  0  0  0
 56 54  2  0  0  0  0
 57 58  1  0  0  0  0
 57 56  1  0  0  0  0
 58 59  1  0  0  0  0
 60 61  1  0  0  0  0
 60 58  2  0  0  0  0
 62 60  1  0  0  0  0
 63 62  2  0  0  0  0
 63 65  1  0  0  0  0
 64 63  1  0  0  0  0
 65 57  2  0  0  0  0
 66 65  1  0  0  0  0
 67 62  1  0  0  0  0
 68 70  1  0  0  0  0
 68 67  1  0  0  0  0
 69 68  1  0  0  0  0
 71 68  1  0  0  0  0
 72 75  1  0  0  0  0
 73 74  1  0  0  0  0
 75 73  1  1  0  0  0
 75  3  1  0  0  0  0
 76 73  1  0  0  0  0
 77 76  1  0  0  0  0
 78 72  1  0  0  0  0
 78 76  2  0  0  0  0
 79 78  1  0  0  0  0
 80 79  1  0  0  0  0
 80 81  1  0  0  0  0
 82 80  2  0  0  0  0
 83 82  1  0  0  0  0
 84 85  2  0  0  0  0
 84 82  1  0  0  0  0
 85 87  1  0  0  0  0
 86 85  1  0  0  0  0
 87 88  1  0  0  0  0
 87 79  2  0  0  0  0
 89 84  1  0  0  0  0
 90 93  1  0  0  0  0
 90 89  1  0  0  0  0
 90 92  1  0  0  0  0
 91 90  1  0  0  0  0
M  END
$$$$
