CSD_code = BAFDUH | q = 0 | S = 0 | Stoichiometry = C6H19Cl3N3Ta | MND = 6
 OpenBabel04212202003D

 32 31  0  0  0  0  0  0  0  0999 V2000
    6.2255    1.8974    2.2297 Ta  0  0  0  0  0  0  0  0  0  0  0  0
    6.7602    0.0230    0.9120 Cl  0  0  0  0  0  0  0  0  0  0  0  0
    6.8119    3.7302    3.5232 Cl  0  0  0  0  0  0  0  0  0  0  0  0
    6.2921    0.5785    4.1108 Cl  0  0  0  0  0  0  0  0  0  0  0  0
    8.8796    1.5436    2.4670 N   0  0  0  0  0  4  0  0  0  0  0  0
    9.4933    1.9402    3.7326 C   0  0  0  0  0  0  0  0  0  0  0  0
    9.6644    2.0043    1.3247 C   0  0  0  0  0  0  0  0  0  0  0  0
    4.2452    1.8105    2.1056 N   0  0  0  0  0  0  0  0  0  0  0  0
    3.4938    0.6303    2.4661 C   0  0  0  0  0  0  0  0  0  0  0  0
    3.3788    2.9515    1.9229 C   0  0  0  0  0  0  0  0  0  0  0  0
    6.3237    3.0527    0.6426 N   0  0  0  0  0  0  0  0  0  0  0  0
    7.0431    4.2856    0.4212 C   0  0  0  0  0  0  0  0  0  0  0  0
    5.7518    2.6150   -0.6135 C   0  0  0  0  0  0  0  0  0  0  0  0
    8.8634    0.5225    2.4379 H   0  0  0  0  0  0  0  0  0  0  0  0
    8.8971    1.5466    4.5541 H   0  0  0  0  0  0  0  0  0  0  0  0
   10.5209    1.5693    3.8229 H   0  0  0  0  0  0  0  0  0  0  0  0
    9.5017    3.0274    3.8005 H   0  0  0  0  0  0  0  0  0  0  0  0
   10.7002    1.6463    1.3681 H   0  0  0  0  0  0  0  0  0  0  0  0
    9.2018    1.6416    0.4079 H   0  0  0  0  0  0  0  0  0  0  0  0
    9.6728    3.0940    1.3179 H   0  0  0  0  0  0  0  0  0  0  0  0
    3.1241    0.6992    3.4980 H   0  0  0  0  0  0  0  0  0  0  0  0
    2.6336    0.4979    1.8011 H   0  0  0  0  0  0  0  0  0  0  0  0
    4.1331   -0.2490    2.3828 H   0  0  0  0  0  0  0  0  0  0  0  0
    3.9709    3.7961    1.5727 H   0  0  0  0  0  0  0  0  0  0  0  0
    2.5886    2.7371    1.1941 H   0  0  0  0  0  0  0  0  0  0  0  0
    2.9014    3.2293    2.8713 H   0  0  0  0  0  0  0  0  0  0  0  0
    7.4512    4.6375    1.3657 H   0  0  0  0  0  0  0  0  0  0  0  0
    7.8594    4.1370   -0.2962 H   0  0  0  0  0  0  0  0  0  0  0  0
    6.3800    5.0595    0.0164 H   0  0  0  0  0  0  0  0  0  0  0  0
    5.2774    3.4465   -1.1442 H   0  0  0  0  0  0  0  0  0  0  0  0
    6.5340    2.1965   -1.2584 H   0  0  0  0  0  0  0  0  0  0  0  0
    5.0117    1.8394   -0.4320 H   0  0  0  0  0  0  0  0  0  0  0  0
  1  5  1  0  0  0  0
  1  3  1  0  0  0  0
  1  4  1  0  0  0  0
  2  1  1  0  0  0  0
  5  6  1  0  0  0  0
  6 17  1  0  0  0  0
  6 16  1  0  0  0  0
  6 15  1  0  0  0  0
  7 18  1  0  0  0  0
  7  5  1  0  0  0  0
  8  1  1  0  0  0  0
  8  9  1  0  0  0  0
  9 21  1  0  0  0  0
 10  8  1  0  0  0  0
 10 26  1  0  0  0  0
 11  1  1  0  0  0  0
 12 11  1  0  0  0  0
 12 27  1  0  0  0  0
 13 32  1  0  0  0  0
 13 11  1  0  0  0  0
 14  5  1  0  0  0  0
 19  7  1  0  0  0  0
 20  7  1  0  0  0  0
 22  9  1  0  0  0  0
 23  9  1  0  0  0  0
 24 10  1  0  0  0  0
 25 10  1  0  0  0  0
 28 12  1  0  0  0  0
 29 12  1  0  0  0  0
 30 13  1  0  0  0  0
 31 13  1  0  0  0  0
M  END
$$$$
