CSD_code = BAFKOI | q = 0 | S = 0 | Stoichiometry = C16H12Br2N2NiS2 | MND = 4
 OpenBabel04212202003D

 35 39  0  0  1  0  0  0  0  0999 V2000
    1.4961    3.7674    5.7426 Ni  0  0  0  0  0  0  0  0  0  0  0  0
    2.1699    4.5906    3.7905 Br  0  0  0  0  0  0  0  0  0  0  0  0
   -0.3236    2.5170    5.0913 N   0  0  0  0  0  0  0  0  0  0  0  0
   -2.0684    0.6250    5.2281 S   0  0  0  0  0  0  0  0  0  0  0  0
   -0.4663    1.2854    5.4470 C   0  0  1  0  0  3  0  0  0  0  0  0
    0.6253    0.4426    6.0086 C   0  0  0  0  0  0  0  0  0  0  0  0
   -1.4881    3.0593    4.6114 C   0  0  0  0  0  0  0  0  0  0  0  0
   -1.6610    4.3644    4.1594 C   0  0  0  0  0  0  0  0  0  0  0  0
   -2.9057    4.7504    3.7133 C   0  0  0  0  0  0  0  0  0  0  0  0
   -3.9772    3.8589    3.7112 C   0  0  0  0  0  0  0  0  0  0  0  0
   -3.8276    2.5602    4.1565 C   0  0  0  0  0  0  0  0  0  0  0  0
   -2.5782    2.1673    4.6054 C   0  0  0  0  0  0  0  0  0  0  0  0
    0.2787   -0.5891    6.0655 H   0  0  0  0  0  0  0  0  0  0  0  0
    0.8317    0.7825    7.0297 H   0  0  0  0  0  0  0  0  0  0  0  0
   -0.8261    5.0493    4.1616 H   0  0  0  0  0  0  0  0  0  0  0  0
   -3.0544    5.7592    3.3599 H   0  0  0  0  0  0  0  0  0  0  0  0
   -4.9419    4.1887    3.3569 H   0  0  0  0  0  0  0  0  0  0  0  0
   -4.6553    1.8683    4.1591 H   0  0  0  0  0  0  0  0  0  0  0  0
    0.8235    3.9365    7.8662 Br  0  0  0  0  0  0  0  0  0  0  0  0
    2.9132    2.6253    6.0143 N   0  0  0  0  0  0  0  0  0  0  0  0
    1.9192    0.5196    5.1604 C   0  0  0  0  0  0  0  0  0  0  0  0
    2.9837    1.3497    5.7873 C   0  0  1  0  0  3  0  0  0  0  0  0
    4.0598    3.1427    6.5684 C   0  0  0  0  0  0  0  0  0  0  0  0
    2.3161   -0.4833    5.0029 H   0  0  0  0  0  0  0  0  0  0  0  0
    1.6813    0.9525    4.1824 H   0  0  0  0  0  0  0  0  0  0  0  0
    4.4903    0.6268    6.2607 S   0  0  0  0  0  0  0  0  0  0  0  0
    4.2814    4.4796    6.8934 C   0  0  0  0  0  0  0  0  0  0  0  0
    5.0614    2.1855    6.7879 C   0  0  0  0  0  0  0  0  0  0  0  0
    5.4964    4.8276    7.4395 C   0  0  0  0  0  0  0  0  0  0  0  0
    3.5027    5.2160    6.7093 H   0  0  0  0  0  0  0  0  0  0  0  0
    6.2817    2.5405    7.3395 C   0  0  0  0  0  0  0  0  0  0  0  0
    6.4838    3.8679    7.6622 C   0  0  0  0  0  0  0  0  0  0  0  0
    5.6892    5.8568    7.6983 H   0  0  0  0  0  0  0  0  0  0  0  0
    7.0449    1.7976    7.5065 H   0  0  0  0  0  0  0  0  0  0  0  0
    7.4264    4.1681    8.0929 H   0  0  0  0  0  0  0  0  0  0  0  0
  1 20  1  0  0  0  0
  1 19  1  0  0  0  0
  2  1  1  0  0  0  0
  3  5  1  0  0  0  0
  3  1  1  0  0  0  0
  5  4  1  6  0  0  0
  5  6  1  0  0  0  0
  6 13  1  0  0  0  0
  6 14  1  0  0  0  0
  7  3  1  0  0  0  0
  8 15  1  0  0  0  0
  8  7  2  0  0  0  0
  9  8  1  0  0  0  0
 10  9  2  0  0  0  0
 10 11  1  0  0  0  0
 11 18  1  0  0  0  0
 11 12  2  0  0  0  0
 12  7  1  0  0  0  0
 12  4  1  0  0  0  0
 16  9  1  0  0  0  0
 17 10  1  0  0  0  0
 20 23  1  0  0  0  0
 21 22  1  0  0  0  0
 21  6  1  0  0  0  0
 22 20  1  0  0  0  0
 22 26  1  6  0  0  0
 23 28  2  0  0  0  0
 23 27  1  0  0  0  0
 24 21  1  0  0  0  0
 25 21  1  0  0  0  0
 26 28  1  0  0  0  0
 27 29  2  0  0  0  0
 28 31  1  0  0  0  0
 29 32  1  0  0  0  0
 29 33  1  0  0  0  0
 30 27  1  0  0  0  0
 31 34  1  0  0  0  0
 31 32  2  0  0  0  0
 32 35  1  0  0  0  0
M  END
$$$$
