CSD_code = BAFROR | q = 0 | S = 0 | Stoichiometry = C12H12ClCuN4S2 | MND = 4
 OpenBabel04212202003D

 32 36  0  0  1  0  0  0  0  0999 V2000
    2.7863    1.1951    2.6876 Cu  0  0  1  0  0  0  0  0  0  0  0  0
    4.0408   -0.4783    2.2232 Cl  0  0  0  0  0  0  0  0  0  0  0  0
    5.8479    3.3858    1.4798 S   0  0  0  0  0  0  0  0  0  0  0  0
    0.4973    1.3405    3.5703 S   0  0  2  0  0  3  0  0  0  0  0  0
    4.4739    2.6708    0.5058 C   0  0  0  0  0  0  0  0  0  0  0  0
    4.7653    2.8228   -0.5332 H   0  0  0  0  0  0  0  0  0  0  0  0
    4.4096    1.6030    0.7288 H   0  0  0  0  0  0  0  0  0  0  0  0
    3.2002    3.3731    0.8179 C   0  0  2  0  0  3  0  0  0  0  0  0
    3.0419    4.7442    0.6085 C   0  0  0  0  0  0  0  0  0  0  0  0
    3.8432    5.3383    0.1933 H   0  0  0  0  0  0  0  0  0  0  0  0
    0.9404    4.6653    1.4378 C   0  0  0  0  0  0  0  0  0  0  0  0
    0.0320    5.2022    1.6714 H   0  0  0  0  0  0  0  0  0  0  0  0
    1.0652    3.3039    1.6714 C   0  0  0  0  0  0  0  0  0  0  0  0
   -0.0458    2.4922    2.2556 C   0  0  0  0  0  0  0  0  0  0  0  0
   -0.4652    1.8319    1.4934 H   0  0  0  0  0  0  0  0  0  0  0  0
   -0.8344    3.1290    2.6554 H   0  0  0  0  0  0  0  0  0  0  0  0
    0.9688    2.5252    4.8834 C   0  0  0  0  0  0  0  0  0  0  0  0
    0.1112    3.1605    5.1025 H   0  0  0  0  0  0  0  0  0  0  0  0
    1.1746    1.8853    5.7443 H   0  0  0  0  0  0  0  0  0  0  0  0
    2.2328    4.7058    4.7818 C   0  0  0  0  0  0  0  0  0  0  0  0
    1.3989    5.2453    5.2078 H   0  0  0  0  0  0  0  0  0  0  0  0
    2.1783    3.3390    4.5528 C   0  0  1  0  0  3  0  0  0  0  0  0
    4.3462    4.7838    3.9832 C   0  0  0  0  0  0  0  0  0  0  0  0
    5.2145    5.3794    3.7407 H   0  0  0  0  0  0  0  0  0  0  0  0
    4.3326    3.4076    3.7493 C   0  0  0  0  0  0  0  0  0  0  0  0
    5.4908    2.7014    3.1386 C   0  0  0  0  0  0  0  0  0  0  0  0
    5.3014    1.6298    3.0384 H   0  0  0  0  0  0  0  0  0  0  0  0
    6.4037    2.8719    3.7087 H   0  0  0  0  0  0  0  0  0  0  0  0
    3.3101    5.4223    4.4912 N   0  0  0  0  0  0  0  0  0  0  0  0
    3.2320    2.6995    4.0263 N   0  0  0  0  0  0  0  0  0  0  0  0
    2.2047    2.6676    1.3663 N   0  0  0  0  0  0  0  0  0  0  0  0
    1.9278    5.3797    0.9154 N   0  0  0  0  0  0  0  0  0  0  0  0
  1  2  1  6  0  0  0
  1  4  1  0  0  0  0
  1 30  1  0  0  0  0
  3 26  1  0  0  0  0
  4 14  1  6  0  0  0
  4 17  1  0  0  0  0
  5  7  1  0  0  0  0
  5  8  1  0  0  0  0
  5  3  1  0  0  0  0
  6  5  1  0  0  0  0
  8  9  1  1  0  0  0
  8 31  1  0  0  0  0
  9 32  2  0  0  0  0
 10  9  1  0  0  0  0
 11 12  1  0  0  0  0
 11 13  2  0  0  0  0
 13 14  1  0  0  0  0
 14 16  1  0  0  0  0
 15 14  1  0  0  0  0
 17 18  1  0  0  0  0
 17 19  1  0  0  0  0
 20 21  1  0  0  0  0
 22 20  1  1  0  0  0
 22 17  1  0  0  0  0
 23 29  1  0  0  0  0
 24 23  1  0  0  0  0
 25 23  2  0  0  0  0
 25 30  1  0  0  0  0
 26 28  1  0  0  0  0
 26 25  1  0  0  0  0
 27 26  1  0  0  0  0
 29 20  2  0  0  0  0
 30 22  1  0  0  0  0
 31 13  1  0  0  0  0
 31  1  1  0  0  0  0
 32 11  1  0  0  0  0
M  END
$$$$
