CSD_code = BAFSUZ | q = 0 | S = 0 | Stoichiometry = C18H12Cl2N2Pd | MND = 4
 OpenBabel04212202003D

 35 39  0  0  0  0  0  0  0  0999 V2000
    3.9186    7.1945   10.9259 Cl  0  0  0  0  0  0  0  0  0  0  0  0
    3.3977   10.1648   10.0364 N   0  0  0  0  0  0  0  0  0  0  0  0
    3.0576   10.2828   11.3357 C   0  0  0  0  0  0  0  0  0  0  0  0
    3.2895    9.4242   11.9556 H   0  0  0  0  0  0  0  0  0  0  0  0
    3.7415    8.4130    9.0868 Pd  0  0  0  0  0  0  0  0  0  0  0  0
    3.8956    6.5553    7.8973 Cl  0  0  0  0  0  0  0  0  0  0  0  0
    3.7679    9.6677    7.5005 N   0  0  0  0  0  0  0  0  0  0  0  0
    2.4809   11.4132   11.8396 C   0  0  0  0  0  0  0  0  0  0  0  0
    2.2661   11.4963   12.8930 H   0  0  0  0  0  0  0  0  0  0  0  0
    2.0991   12.4526   10.9620 C   0  0  0  0  0  0  0  0  0  0  0  0
    1.3673   13.5746   11.3958 C   0  0  0  0  0  0  0  0  0  0  0  0
    1.1454   13.6715   12.4480 H   0  0  0  0  0  0  0  0  0  0  0  0
    0.9237   14.5040   10.4956 C   0  0  0  0  0  0  0  0  0  0  0  0
    0.3588   15.3612   10.8290 H   0  0  0  0  0  0  0  0  0  0  0  0
    1.1702   14.3293    9.1260 C   0  0  0  0  0  0  0  0  0  0  0  0
    0.7673   15.0395    8.4199 H   0  0  0  0  0  0  0  0  0  0  0  0
    1.9046   13.2657    8.6768 C   0  0  0  0  0  0  0  0  0  0  0  0
    2.0626   13.1295    7.6187 H   0  0  0  0  0  0  0  0  0  0  0  0
    2.4297   12.3221    9.5854 C   0  0  0  0  0  0  0  0  0  0  0  0
    3.1981   11.1866    9.1945 C   0  0  0  0  0  0  0  0  0  0  0  0
    3.7397   10.9584    7.8560 C   0  0  0  0  0  0  0  0  0  0  0  0
    4.2937   11.9651    7.0123 C   0  0  0  0  0  0  0  0  0  0  0  0
    4.6026   13.2716    7.4476 C   0  0  0  0  0  0  0  0  0  0  0  0
    4.4380   13.5402    8.4791 H   0  0  0  0  0  0  0  0  0  0  0  0
    5.1394   14.1843    6.5808 C   0  0  0  0  0  0  0  0  0  0  0  0
    5.3795   15.1776    6.9284 H   0  0  0  0  0  0  0  0  0  0  0  0
    4.6389   11.5955    5.6836 C   0  0  0  0  0  0  0  0  0  0  0  0
    5.3923   13.8420    5.2444 C   0  0  0  0  0  0  0  0  0  0  0  0
    5.7969   14.5844    4.5733 H   0  0  0  0  0  0  0  0  0  0  0  0
    5.1601   12.5668    4.8074 C   0  0  0  0  0  0  0  0  0  0  0  0
    5.3932   12.2769    3.7939 H   0  0  0  0  0  0  0  0  0  0  0  0
    4.4897   10.2413    5.3096 C   0  0  0  0  0  0  0  0  0  0  0  0
    4.7184    9.9360    4.3009 H   0  0  0  0  0  0  0  0  0  0  0  0
    4.1230    9.3192    6.2475 C   0  0  0  0  0  0  0  0  0  0  0  0
    4.0810    8.2577    6.0318 H   0  0  0  0  0  0  0  0  0  0  0  0
  2  3  1  0  0  0  0
  3  8  2  0  0  0  0
  3  4  1  0  0  0  0
  5  2  1  0  0  0  0
  5  1  1  0  0  0  0
  6  5  1  0  0  0  0
  7 21  1  0  0  0  0
  7  5  1  0  0  0  0
  8  9  1  0  0  0  0
 10 11  1  0  0  0  0
 10  8  1  0  0  0  0
 11 12  1  0  0  0  0
 13 14  1  0  0  0  0
 13 11  2  0  0  0  0
 15 13  1  0  0  0  0
 16 15  1  0  0  0  0
 17 15  2  0  0  0  0
 17 19  1  0  0  0  0
 18 17  1  0  0  0  0
 19 10  2  0  0  0  0
 20 19  1  0  0  0  0
 20  2  1  0  0  0  0
 21 20  2  0  0  0  0
 22 23  1  0  0  0  0
 22 21  1  0  0  0  0
 23 24  1  0  0  0  0
 25 26  1  0  0  0  0
 25 23  2  0  0  0  0
 27 22  2  0  0  0  0
 28 25  1  0  0  0  0
 29 28  1  0  0  0  0
 30 28  2  0  0  0  0
 30 27  1  0  0  0  0
 31 30  1  0  0  0  0
 32 27  1  0  0  0  0
 32 34  2  0  0  0  0
 33 32  1  0  0  0  0
 34  7  1  0  0  0  0
 35 34  1  0  0  0  0
M  END
$$$$
