CSD_code = BAGHUN | q = 0 | S = 0 | Stoichiometry = C30H34Cl2N2O4P2Pt | MND = 4
 OpenBabel04212202003D

 75 79  0  0  0  0  0  0  0  0999 V2000
   -1.6625    4.8322    3.9057 Pt  0  0  0  0  0  0  0  0  0  0  0  0
   -2.5084    6.9127    3.3418 Cl  0  0  0  0  0  0  0  0  0  0  0  0
   -3.7768    3.9342    4.1935 Cl  0  0  0  0  0  0  0  0  0  0  0  0
    0.9914    3.1824    4.6222 N   0  0  0  0  0  0  0  0  0  0  0  0
    1.5485    3.3464    5.9530 C   0  0  0  0  0  0  0  0  0  0  0  0
    1.2612    2.4836    6.5514 H   0  0  0  0  0  0  0  0  0  0  0  0
    1.2129    4.2639    6.4472 H   0  0  0  0  0  0  0  0  0  0  0  0
    2.6348    3.3739    5.8592 H   0  0  0  0  0  0  0  0  0  0  0  0
    1.4717    4.1749    3.7418 N   0  0  0  0  0  0  0  0  0  0  0  0
    1.9753    3.5879    2.5129 C   0  0  0  0  0  0  0  0  0  0  0  0
    2.4625    4.3716    1.9355 H   0  0  0  0  0  0  0  0  0  0  0  0
    1.1908    3.1207    1.9088 H   0  0  0  0  0  0  0  0  0  0  0  0
    2.7109    2.8291    2.7825 H   0  0  0  0  0  0  0  0  0  0  0  0
   -0.6933    2.8607    4.4670 P   0  0  0  0  0  4  0  0  0  0  0  0
   -0.7532    1.5347    3.2283 C   0  0  0  0  0  0  0  0  0  0  0  0
    0.2019    0.5086    3.1745 C   0  0  0  0  0  0  0  0  0  0  0  0
    1.1248    0.5146    4.1700 O   0  0  0  0  0  0  0  0  0  0  0  0
    0.1278   -0.4321    2.1548 C   0  0  0  0  0  0  0  0  0  0  0  0
    0.8549   -1.2263    2.0818 H   0  0  0  0  0  0  0  0  0  0  0  0
   -0.8976   -0.3668    1.2232 C   0  0  0  0  0  0  0  0  0  0  0  0
   -0.9413   -1.1090    0.4397 H   0  0  0  0  0  0  0  0  0  0  0  0
   -1.8620    0.6218    1.2967 C   0  0  0  0  0  0  0  0  0  0  0  0
   -2.6680    0.6506    0.5797 H   0  0  0  0  0  0  0  0  0  0  0  0
   -1.7820    1.5728    2.2998 C   0  0  0  0  0  0  0  0  0  0  0  0
   -2.5272    2.3523    2.3999 H   0  0  0  0  0  0  0  0  0  0  0  0
    2.1341   -0.4634    4.1693 C   0  0  0  0  0  0  0  0  0  0  0  0
    2.7577   -0.2436    5.0343 H   0  0  0  0  0  0  0  0  0  0  0  0
    2.7445   -0.4140    3.2617 H   0  0  0  0  0  0  0  0  0  0  0  0
    1.7196   -1.4719    4.2718 H   0  0  0  0  0  0  0  0  0  0  0  0
   -1.2264    2.0550    5.9918 C   0  0  0  0  0  0  0  0  0  0  0  0
   -1.6198    2.9335    7.0149 C   0  0  0  0  0  0  0  0  0  0  0  0
   -1.3622    4.2416    6.7768 O   0  0  0  0  0  0  0  0  0  0  0  0
   -2.2129    2.4282    8.1644 C   0  0  0  0  0  0  0  0  0  0  0  0
   -2.5375    3.0850    8.9557 H   0  0  0  0  0  0  0  0  0  0  0  0
   -2.4037    1.0621    8.2926 C   0  0  0  0  0  0  0  0  0  0  0  0
   -2.8656    0.6771    9.1896 H   0  0  0  0  0  0  0  0  0  0  0  0
   -2.0256    0.1947    7.2831 C   0  0  0  0  0  0  0  0  0  0  0  0
   -2.1941   -0.8663    7.3881 H   0  0  0  0  0  0  0  0  0  0  0  0
   -1.4550    0.6942    6.1252 C   0  0  0  0  0  0  0  0  0  0  0  0
   -1.1931    0.0274    5.3191 H   0  0  0  0  0  0  0  0  0  0  0  0
   -1.9720    5.2043    7.6143 C   0  0  0  0  0  0  0  0  0  0  0  0
   -1.7529    6.1709    7.1667 H   0  0  0  0  0  0  0  0  0  0  0  0
   -1.5535    5.1672    8.6257 H   0  0  0  0  0  0  0  0  0  0  0  0
   -3.0545    5.0592    7.6501 H   0  0  0  0  0  0  0  0  0  0  0  0
    0.4663    5.5696    3.6379 P   0  0  0  0  0  4  0  0  0  0  0  0
    1.1278    6.6565    4.9331 C   0  0  0  0  0  0  0  0  0  0  0  0
    2.4997    6.7522    5.2100 C   0  0  0  0  0  0  0  0  0  0  0  0
    3.3155    6.0564    4.3773 O   0  0  0  0  0  0  0  0  0  0  0  0
    2.9228    7.5476    6.2676 C   0  0  0  0  0  0  0  0  0  0  0  0
    3.9707    7.6306    6.5118 H   0  0  0  0  0  0  0  0  0  0  0  0
    1.9962    8.2579    7.0162 C   0  0  0  0  0  0  0  0  0  0  0  0
    2.3438    8.8737    7.8326 H   0  0  0  0  0  0  0  0  0  0  0  0
    0.6465    8.1959    6.7201 C   0  0  0  0  0  0  0  0  0  0  0  0
   -0.0639    8.7700    7.2947 H   0  0  0  0  0  0  0  0  0  0  0  0
    0.2178    7.3891    5.6797 C   0  0  0  0  0  0  0  0  0  0  0  0
   -0.8288    7.3266    5.4080 H   0  0  0  0  0  0  0  0  0  0  0  0
    4.7020    6.0792    4.6061 C   0  0  0  0  0  0  0  0  0  0  0  0
    5.1379    5.4443    3.8365 H   0  0  0  0  0  0  0  0  0  0  0  0
    4.9557    5.6776    5.5927 H   0  0  0  0  0  0  0  0  0  0  0  0
    5.1105    7.0910    4.5117 H   0  0  0  0  0  0  0  0  0  0  0  0
    0.8875    6.4142    2.0990 C   0  0  0  0  0  0  0  0  0  0  0  0
    0.1747    5.9743    0.9714 C   0  0  0  0  0  0  0  0  0  0  0  0
   -0.5816    4.8678    1.1668 O   0  0  0  0  0  0  0  0  0  0  0  0
    0.2925    6.6641   -0.2282 C   0  0  0  0  0  0  0  0  0  0  0  0
   -0.2566    6.3534   -1.1028 H   0  0  0  0  0  0  0  0  0  0  0  0
    1.1165    7.7752   -0.3012 C   0  0  0  0  0  0  0  0  0  0  0  0
    1.2030    8.3056   -1.2379 H   0  0  0  0  0  0  0  0  0  0  0  0
    1.8116    8.2176    0.8103 C   0  0  0  0  0  0  0  0  0  0  0  0
    2.4381    9.0941    0.7447 H   0  0  0  0  0  0  0  0  0  0  0  0
    1.6814    7.5475    2.0143 C   0  0  0  0  0  0  0  0  0  0  0  0
    2.1912    7.9086    2.8934 H   0  0  0  0  0  0  0  0  0  0  0  0
   -1.5378    4.5313    0.1807 C   0  0  0  0  0  0  0  0  0  0  0  0
   -2.1265    3.7187    0.6003 H   0  0  0  0  0  0  0  0  0  0  0  0
   -1.0505    4.1917   -0.7395 H   0  0  0  0  0  0  0  0  0  0  0  0
   -2.1927    5.3799   -0.0322 H   0  0  0  0  0  0  0  0  0  0  0  0
  1  3  1  0  0  0  0
  1 14  1  0  0  0  0
  2  1  1  0  0  0  0
  4  5  1  0  0  0  0
  5  7  1  0  0  0  0
  5  6  1  0  0  0  0
  8  5  1  0  0  0  0
  9  4  1  0  0  0  0
 10 13  1  0  0  0  0
 10  9  1  0  0  0  0
 11 10  1  0  0  0  0
 12 10  1  0  0  0  0
 14  4  1  0  0  0  0
 14 30  1  0  0  0  0
 15 14  1  0  0  0  0
 16 15  1  0  0  0  0
 16 17  1  0  0  0  0
 18 16  2  0  0  0  0
 19 18  1  0  0  0  0
 20 22  2  0  0  0  0
 20 18  1  0  0  0  0
 21 20  1  0  0  0  0
 22 24  1  0  0  0  0
 23 22  1  0  0  0  0
 24 25  1  0  0  0  0
 24 15  2  0  0  0  0
 26 17  1  0  0  0  0
 26 29  1  0  0  0  0
 26 27  1  0  0  0  0
 28 26  1  0  0  0  0
 30 39  2  0  0  0  0
 30 31  1  0  0  0  0
 31 33  2  0  0  0  0
 32 31  1  0  0  0  0
 32 41  1  0  0  0  0
 33 35  1  0  0  0  0
 33 34  1  0  0  0  0
 35 36  1  0  0  0  0
 37 38  1  0  0  0  0
 37 35  2  0  0  0  0
 39 37  1  0  0  0  0
 40 39  1  0  0  0  0
 41 44  1  0  0  0  0
 41 43  1  0  0  0  0
 42 41  1  0  0  0  0
 45  9  1  0  0  0  0
 45  1  1  0  0  0  0
 45 46  1  0  0  0  0
 46 47  2  0  0  0  0
 46 55  1  0  0  0  0
 47 49  1  0  0  0  0
 48 57  1  0  0  0  0
 48 47  1  0  0  0  0
 49 50  1  0  0  0  0
 49 51  2  0  0  0  0
 51 52  1  0  0  0  0
 53 51  1  0  0  0  0
 53 54  1  0  0  0  0
 55 53  2  0  0  0  0
 56 55  1  0  0  0  0
 57 59  1  0  0  0  0
 58 57  1  0  0  0  0
 60 57  1  0  0  0  0
 61 45  1  0  0  0  0
 62 63  1  0  0  0  0
 62 61  2  0  0  0  0
 64 62  1  0  0  0  0
 65 64  1  0  0  0  0
 66 64  2  0  0  0  0
 66 68  1  0  0  0  0
 67 66  1  0  0  0  0
 68 70  2  0  0  0  0
 69 68  1  0  0  0  0
 70 61  1  0  0  0  0
 70 71  1  0  0  0  0
 72 73  1  0  0  0  0
 72 63  1  0  0  0  0
 74 72  1  0  0  0  0
 75 72  1  0  0  0  0
M  END
$$$$
