CSD_code = BAGHIB | q = 0 | S = 0 | Stoichiometry = C28H30Cl2N2O4P2Pd | MND = 4
 OpenBabel04212202003D

 69 73  0  0  0  0  0  0  0  0999 V2000
   11.7305    6.4498   14.6535 Pd  0  0  0  0  0  0  0  0  0  0  0  0
   12.1459    4.7007   13.2810 Cl  0  0  0  0  0  0  0  0  0  0  0  0
    9.5848    6.5137   13.9236 Cl  0  0  0  0  0  0  0  0  0  0  0  0
   11.5752    7.9859   16.3030 P   0  0  0  0  0  4  0  0  0  0  0  0
   11.6336    9.5739   16.1548 O   0  0  0  0  0  0  0  0  0  0  0  0
   10.7557   10.3916   15.4650 C   0  0  0  0  0  0  0  0  0  0  0  0
    9.7419    9.8949   14.6671 C   0  0  0  0  0  0  0  0  0  0  0  0
    9.5968    8.8251   14.5786 H   0  0  0  0  0  0  0  0  0  0  0  0
    8.9251   10.7786   13.9827 C   0  0  0  0  0  0  0  0  0  0  0  0
    8.1383   10.3884   13.3564 H   0  0  0  0  0  0  0  0  0  0  0  0
    9.1132   12.1447   14.1016 C   0  0  0  0  0  0  0  0  0  0  0  0
    8.4724   12.8292   13.5668 H   0  0  0  0  0  0  0  0  0  0  0  0
   10.1220   12.6324   14.9150 C   0  0  0  0  0  0  0  0  0  0  0  0
   10.2688   13.6969   15.0200 H   0  0  0  0  0  0  0  0  0  0  0  0
   10.9482   11.7595   15.5995 C   0  0  0  0  0  0  0  0  0  0  0  0
   11.7380   12.1227   16.2383 H   0  0  0  0  0  0  0  0  0  0  0  0
   10.4103    7.9392   17.4264 O   0  0  0  0  0  0  0  0  0  0  0  0
   10.0575    6.7375   18.0288 C   0  0  0  0  0  0  0  0  0  0  0  0
   10.2837    6.5950   19.3903 C   0  0  0  0  0  0  0  0  0  0  0  0
   10.7269    7.4106   19.9412 H   0  0  0  0  0  0  0  0  0  0  0  0
    9.9305    5.4146   20.0207 C   0  0  0  0  0  0  0  0  0  0  0  0
   10.1017    5.3056   21.0812 H   0  0  0  0  0  0  0  0  0  0  0  0
    9.3667    4.3781   19.2956 C   0  0  0  0  0  0  0  0  0  0  0  0
    9.0973    3.4575   19.7906 H   0  0  0  0  0  0  0  0  0  0  0  0
    9.1460    4.5269   17.9367 C   0  0  0  0  0  0  0  0  0  0  0  0
    8.7055    3.7248   17.3652 H   0  0  0  0  0  0  0  0  0  0  0  0
    9.4912    5.7051   17.2938 C   0  0  0  0  0  0  0  0  0  0  0  0
    9.3033    5.8350   16.2341 H   0  0  0  0  0  0  0  0  0  0  0  0
   12.9700    7.7601   17.2165 N   0  0  0  0  0  0  0  0  0  0  0  0
   13.3454    8.6849   18.2727 C   0  0  0  0  0  0  0  0  0  0  0  0
   13.7525    8.1074   19.1107 H   0  0  0  0  0  0  0  0  0  0  0  0
   12.4247    9.1732   18.5990 H   0  0  0  0  0  0  0  0  0  0  0  0
   14.3612    9.7278   17.8240 C   0  0  0  0  0  0  0  0  0  0  0  0
   14.6727   10.3315   18.6725 H   0  0  0  0  0  0  0  0  0  0  0  0
   13.9208   10.3734   17.0703 H   0  0  0  0  0  0  0  0  0  0  0  0
   15.2352    9.2391   17.4003 H   0  0  0  0  0  0  0  0  0  0  0  0
   13.9952    6.8680   16.8232 N   0  0  0  0  0  0  0  0  0  0  0  0
   13.9484    5.5999   17.5752 C   0  0  0  0  0  0  0  0  0  0  0  0
   13.7565    5.8594   18.6201 H   0  0  0  0  0  0  0  0  0  0  0  0
   14.9493    5.1648   17.5071 H   0  0  0  0  0  0  0  0  0  0  0  0
   12.9097    4.5932   17.0877 C   0  0  0  0  0  0  0  0  0  0  0  0
   12.8338    3.7729   17.7985 H   0  0  0  0  0  0  0  0  0  0  0  0
   13.1963    4.1805   16.1165 H   0  0  0  0  0  0  0  0  0  0  0  0
   11.9162    5.0576   17.0043 H   0  0  0  0  0  0  0  0  0  0  0  0
   13.9055    6.6007   15.1342 P   0  0  0  0  0  4  0  0  0  0  0  0
   14.4758    8.0038   14.5876 O   0  0  0  0  0  0  0  0  0  0  0  0
   13.6862    8.8417   13.8057 C   0  0  0  0  0  0  0  0  0  0  0  0
   13.7804   10.2071   14.0263 C   0  0  0  0  0  0  0  0  0  0  0  0
   14.4668   10.5710   14.7746 H   0  0  0  0  0  0  0  0  0  0  0  0
   13.0011   11.0772   13.2829 C   0  0  0  0  0  0  0  0  0  0  0  0
   13.0802   12.1396   13.4536 H   0  0  0  0  0  0  0  0  0  0  0  0
   12.1174   10.5886   12.3364 C   0  0  0  0  0  0  0  0  0  0  0  0
   11.4914   11.2686   11.7806 H   0  0  0  0  0  0  0  0  0  0  0  0
   12.0547    9.2275   12.0893 C   0  0  0  0  0  0  0  0  0  0  0  0
   11.3961    8.8405   11.3267 H   0  0  0  0  0  0  0  0  0  0  0  0
   12.8501    8.3432   12.8065 C   0  0  0  0  0  0  0  0  0  0  0  0
   12.8921    7.2903   12.5153 H   0  0  0  0  0  0  0  0  0  0  0  0
   15.0828    5.5822   14.8447 O   0  0  0  0  0  0  0  0  0  0  0  0
   16.4423    5.8600   14.7983 C   0  0  0  0  0  0  0  0  0  0  0  0
   17.2023    5.1270   13.8984 C   0  0  0  0  0  0  0  0  0  0  0  0
   16.7106    4.4095   13.2609 H   0  0  0  0  0  0  0  0  0  0  0  0
   18.5691    5.3318   13.8393 C   0  0  0  0  0  0  0  0  0  0  0  0
   19.1627    4.7622   13.1408 H   0  0  0  0  0  0  0  0  0  0  0  0
   19.1717    6.2656   14.6663 C   0  0  0  0  0  0  0  0  0  0  0  0
   20.2378    6.4258   14.6142 H   0  0  0  0  0  0  0  0  0  0  0  0
   18.4041    6.9937   15.5587 C   0  0  0  0  0  0  0  0  0  0  0  0
   18.8694    7.7224   16.2054 H   0  0  0  0  0  0  0  0  0  0  0  0
   17.0361    6.7928   15.6308 C   0  0  0  0  0  0  0  0  0  0  0  0
   16.4198    7.3455   16.3228 H   0  0  0  0  0  0  0  0  0  0  0  0
  1 45  1  0  0  0  0
  1  4  1  0  0  0  0
  2  1  1  0  0  0  0
  3  1  1  0  0  0  0
  4 29  1  0  0  0  0
  4 17  1  0  0  0  0
  5  4  1  0  0  0  0
  6 15  1  0  0  0  0
  6  5  1  0  0  0  0
  7  6  2  0  0  0  0
  8  7  1  0  0  0  0
  9 11  2  0  0  0  0
  9  7  1  0  0  0  0
 10  9  1  0  0  0  0
 11 13  1  0  0  0  0
 12 11  1  0  0  0  0
 13 14  1  0  0  0  0
 13 15  2  0  0  0  0
 15 16  1  0  0  0  0
 17 18  1  0  0  0  0
 18 19  1  0  0  0  0
 19 20  1  0  0  0  0
 19 21  2  0  0  0  0
 21 22  1  0  0  0  0
 23 24  1  0  0  0  0
 23 21  1  0  0  0  0
 25 23  2  0  0  0  0
 26 25  1  0  0  0  0
 27 25  1  0  0  0  0
 27 18  2  0  0  0  0
 28 27  1  0  0  0  0
 29 30  1  0  0  0  0
 30 32  1  0  0  0  0
 30 31  1  0  0  0  0
 33 30  1  0  0  0  0
 33 34  1  0  0  0  0
 35 33  1  0  0  0  0
 36 33  1  0  0  0  0
 37 29  1  0  0  0  0
 37 38  1  0  0  0  0
 38 39  1  0  0  0  0
 40 38  1  0  0  0  0
 41 38  1  0  0  0  0
 41 42  1  0  0  0  0
 43 41  1  0  0  0  0
 44 41  1  0  0  0  0
 45 37  1  0  0  0  0
 46 45  1  0  0  0  0
 47 48  1  0  0  0  0
 47 46  1  0  0  0  0
 48 49  1  0  0  0  0
 50 51  1  0  0  0  0
 50 48  2  0  0  0  0
 52 50  1  0  0  0  0
 53 52  1  0  0  0  0
 54 52  2  0  0  0  0
 54 56  1  0  0  0  0
 55 54  1  0  0  0  0
 56 47  2  0  0  0  0
 57 56  1  0  0  0  0
 58 45  1  0  0  0  0
 59 58  1  0  0  0  0
 59 68  1  0  0  0  0
 60 59  2  0  0  0  0
 61 60  1  0  0  0  0
 62 60  1  0  0  0  0
 62 64  2  0  0  0  0
 63 62  1  0  0  0  0
 64 66  1  0  0  0  0
 65 64  1  0  0  0  0
 66 68  2  0  0  0  0
 66 67  1  0  0  0  0
 68 69  1  0  0  0  0
M  END
$$$$
