CSD_code = BAGJEA | q = 1 | S = 0 | Stoichiometry = C24H21Cl2N6ORu(1+) | MND = 6
 OpenBabel04212202003D

 55 62  0  0  1  0  0  0  0  0999 V2000
    3.1353    2.0927    3.9045 N   0  0  0  0  0  0  0  0  0  0  0  0
    0.9483    3.5885    3.5139 N   0  0  1  0  0  4  0  0  0  0  0  0
    0.4872    1.3203    4.8823 N   0  0  0  0  0  0  0  0  0  0  0  0
   -0.4117    1.5697    2.2877 N   0  0  0  0  0  0  0  0  0  0  0  0
   -0.3876   -0.7207    1.7629 N   0  0  0  0  0  0  0  0  0  0  0  0
   -0.9027   -1.4391    1.2683 H   0  0  0  0  0  0  0  0  0  0  0  0
    2.2269   -4.9465    0.9892 N   0  0  0  0  0  0  0  0  0  0  0  0
    4.0948    1.2768    4.3287 C   0  0  0  0  0  3  0  0  0  0  0  0
    3.8720    0.2178    4.2694 H   0  0  0  0  0  0  0  0  0  0  0  0
    5.3096    1.7406    4.8044 C   0  0  0  0  0  0  0  0  0  0  0  0
    6.0654    1.0440    5.1278 H   0  0  0  0  0  0  0  0  0  0  0  0
    5.5307    3.1081    4.8467 C   0  0  0  0  0  0  0  0  0  0  0  0
    6.4646    3.5069    5.2091 H   0  0  0  0  0  0  0  0  0  0  0  0
    4.5281    3.9595    4.4036 C   0  0  0  0  0  0  0  0  0  0  0  0
    4.6696    5.0289    4.4099 H   0  0  0  0  0  0  0  0  0  0  0  0
    3.3434    3.4203    3.9302 C   0  0  0  0  0  0  0  0  0  0  0  0
    2.2406    4.2713    3.3402 C   0  0  0  0  0  0  0  0  0  0  0  0
    2.2373    5.2835    3.7618 H   0  0  0  0  0  0  0  0  0  0  0  0
    2.4454    4.3295    2.2627 H   0  0  0  0  0  0  0  0  0  0  0  0
    0.4455    3.7373    4.8923 C   0  0  0  0  0  0  0  0  0  0  0  0
    1.2597    4.1016    5.5312 H   0  0  0  0  0  0  0  0  0  0  0  0
   -0.3638    4.4760    4.9376 H   0  0  0  0  0  0  0  0  0  0  0  0
   -0.0133    2.4205    5.4677 C   0  0  2  0  0  3  0  0  0  0  0  0
   -0.8383    2.3518    6.5782 C   0  0  0  0  0  0  0  0  0  0  0  0
   -1.2251    3.2584    7.0162 H   0  0  0  0  0  0  0  0  0  0  0  0
   -1.1491    1.1129    7.1186 C   0  0  0  0  0  0  0  0  0  0  0  0
   -1.7903    1.0348    7.9813 H   0  0  0  0  0  0  0  0  0  0  0  0
   -0.6036   -0.0189    6.5283 C   0  0  0  0  0  0  0  0  0  0  0  0
   -0.7999   -1.0018    6.9239 H   0  0  0  0  0  0  0  0  0  0  0  0
    0.2024    0.1296    5.4169 C   0  0  0  0  0  0  0  0  0  0  0  0
    0.6539   -0.7275    4.9329 H   0  0  0  0  0  0  0  0  0  0  0  0
   -0.0708    3.9462    2.5154 C   0  0  0  0  0  0  0  0  0  0  0  0
    0.4515    4.1478    1.5704 H   0  0  0  0  0  0  0  0  0  0  0  0
   -0.6392    4.8388    2.8026 H   0  0  0  0  0  0  0  0  0  0  0  0
   -0.9877    2.7826    2.2136 C   0  0  1  0  0  3  0  0  0  0  0  0
   -2.2813    2.9407    1.7558 C   0  0  0  0  0  0  0  0  0  0  0  0
   -2.7296    3.9194    1.7132 H   0  0  0  0  0  0  0  0  0  0  0  0
   -2.9819    1.8178    1.3218 C   0  0  0  0  0  0  0  0  0  0  0  0
   -3.9928    1.9135    0.9605 H   0  0  0  0  0  0  0  0  0  0  0  0
   -2.3546    0.5894    1.3207 C   0  0  0  0  0  0  0  0  0  0  0  0
   -2.8525   -0.2887    0.9420 H   0  0  0  0  0  0  0  0  0  0  0  0
   -1.0463    0.5006    1.8086 C   0  0  0  0  0  0  0  0  0  0  0  0
    0.9040   -1.0569    2.0919 C   0  0  2  0  0  3  0  0  0  0  0  0
    0.9513   -4.7331    1.2320 C   0  0  0  0  0  0  0  0  0  0  0  0
    0.4264   -3.4949    1.5956 C   0  0  0  0  0  0  0  0  0  0  0  0
   -0.6268   -3.4132    1.8124 H   0  0  0  0  0  0  0  0  0  0  0  0
    1.3154   -2.4287    1.7086 C   0  0  0  0  0  0  0  0  0  0  0  0
    2.6728   -2.6591    1.4649 C   0  0  0  0  0  0  0  0  0  0  0  0
    3.3776   -1.8471    1.5424 H   0  0  0  0  0  0  0  0  0  0  0  0
    3.0692   -3.9354    1.1032 C   0  0  0  0  0  0  0  0  0  0  0  0
    4.1034   -4.1685    0.8943 H   0  0  0  0  0  0  0  0  0  0  0  0
    1.3592    1.6414    3.1198 Ru  0  0  0  0  0  0  0  0  0  0  0  0
    2.2090    2.1385    0.9852 Cl  0  0  0  0  0  0  0  0  0  0  0  0
   -0.0960   -6.0819    1.0840 Cl  0  0  0  0  0  0  0  0  0  0  0  0
    1.7056   -0.3324    2.6840 O   0  0  0  0  0  0  0  0  0  0  0  0
  1 16  1  0  0  0  0
  1  8  1  0  0  0  0
  2 32  1  6  0  0  0
  2 20  1  0  0  0  0
  3 30  1  0  0  0  0
  3 23  1  0  0  0  0
  4 52  1  0  0  0  0
  5 42  1  0  0  0  0
  5 43  1  0  0  0  0
  6  5  1  0  0  0  0
  7 50  2  0  0  0  0
  7 44  1  0  0  0  0
  8 10  1  0  0  0  0
  9  8  1  0  0  0  0
 10 12  2  0  0  0  0
 10 11  1  0  0  0  0
 12 13  1  0  0  0  0
 14 15  1  0  0  0  0
 14 12  1  0  0  0  0
 16 14  2  0  0  0  0
 17  2  1  0  0  0  0
 17 18  1  0  0  0  0
 17 16  1  0  0  0  0
 19 17  1  0  0  0  0
 20 22  1  0  0  0  0
 20 23  1  0  0  0  0
 20 21  1  0  0  0  0
 23 24  1  1  0  0  0
 24 25  1  0  0  0  0
 24 26  2  0  0  0  0
 26 27  1  0  0  0  0
 28 29  1  0  0  0  0
 28 26  1  0  0  0  0
 30 28  2  0  0  0  0
 31 30  1  0  0  0  0
 32 34  1  0  0  0  0
 33 32  1  0  0  0  0
 35 36  1  6  0  0  0
 35  4  1  0  0  0  0
 35 32  1  0  0  0  0
 37 36  1  0  0  0  0
 38 36  2  0  0  0  0
 39 38  1  0  0  0  0
 40 38  1  0  0  0  0
 40 42  2  0  0  0  0
 41 40  1  0  0  0  0
 42  4  1  0  0  0  0
 43 47  1  1  0  0  0
 43 55  1  0  0  0  0
 44 45  2  0  0  0  0
 45 47  1  0  0  0  0
 45 46  1  0  0  0  0
 48 49  1  0  0  0  0
 48 47  2  0  0  0  0
 50 48  1  0  0  0  0
 51 50  1  0  0  0  0
 52  2  1  0  0  0  0
 52  1  1  0  0  0  0
 52  3  1  0  0  0  0
 53 52  1  0  0  0  0
 54 44  1  0  0  0  0
 55 52  1  0  0  0  0
M  END
$$$$
