CSD_code = BAGXUF | q = 0 | S = 0 | Stoichiometry = C20H20BrMnN2O3 | MND = 6
 OpenBabel04212202003D

 47 49  0  0  1  0  0  0  0  0999 V2000
    6.8851    1.7807   10.4253 Mn  0  0  0  0  0  0  0  0  0  0  0  0
    8.9786    0.8269    9.4593 Br  0  0  0  0  0  0  0  0  0  0  0  0
    7.3853    3.4532    9.4139 N   0  0  0  0  0  0  0  0  0  0  0  0
    8.0345    2.7295   11.7963 N   0  0  0  0  0  0  0  0  0  0  0  0
    4.1952    2.8063   10.9261 O   0  0  0  0  0  1  0  0  0  0  0  0
    6.6000   -0.6062   12.1144 O   0  0  0  0  0  1  0  0  0  0  0  0
    5.6868    0.3057    8.1888 O   0  0  0  0  0  1  0  0  0  0  0  0
    5.2772    2.4284   10.8059 C   0  0  0  0  0  2  0  0  0  0  0  0
    6.6946    0.3357   11.4669 C   0  0  0  0  0  2  0  0  0  0  0  0
    6.1368    0.9054    9.0571 C   0  0  0  0  0  2  0  0  0  0  0  0
    6.9907    3.8111    8.1931 C   0  0  0  0  0  3  0  0  0  0  0  0
    6.2180    3.2064    7.7340 H   0  0  0  0  0  0  0  0  0  0  0  0
    7.5252    4.8870    7.5098 C   0  0  0  0  0  0  0  0  0  0  0  0
    7.1700    5.1229    6.5200 H   0  0  0  0  0  0  0  0  0  0  0  0
    8.5259    5.6377    8.1137 C   0  0  0  0  0  0  0  0  0  0  0  0
    8.9748    6.4746    7.6018 H   0  0  0  0  0  0  0  0  0  0  0  0
    8.9361    5.2867    9.3834 C   0  0  0  0  0  0  0  0  0  0  0  0
    9.7139    5.8419    9.8812 H   0  0  0  0  0  0  0  0  0  0  0  0
    8.3451    4.1916   10.0159 C   0  0  0  0  0  0  0  0  0  0  0  0
    8.7090    3.7352   11.3499 C   0  0  1  0  0  3  0  0  0  0  0  0
    8.3980    2.1384   13.0383 C   0  0  0  0  0  0  0  0  0  0  0  0
    9.5381    1.3293   12.9788 C   0  0  0  0  0  0  0  0  0  0  0  0
   10.0753    1.2545   12.0444 H   0  0  0  0  0  0  0  0  0  0  0  0
    9.9584    0.5964   14.0665 C   0  0  0  0  0  0  0  0  0  0  0  0
   10.8323   -0.0308   13.9866 H   0  0  0  0  0  0  0  0  0  0  0  0
    9.2371    0.6746   15.2428 C   0  0  0  0  0  0  0  0  0  0  0  0
    9.5293    0.0958   16.1057 H   0  0  0  0  0  0  0  0  0  0  0  0
    8.1367    1.5052   15.3143 C   0  0  0  0  0  0  0  0  0  0  0  0
    7.6012    1.5475   16.2477 H   0  0  0  0  0  0  0  0  0  0  0  0
    7.6914    2.2779   14.2415 C   0  0  0  0  0  0  0  0  0  0  0  0
    6.4612    3.1554   14.4619 C   0  0  0  0  0  0  0  0  0  0  0  0
    5.2254    2.2608   14.2960 C   0  0  0  0  0  0  0  0  0  0  0  0
    4.3161    2.8426   14.4279 H   0  0  0  0  0  0  0  0  0  0  0  0
    5.2355    1.4567   15.0282 H   0  0  0  0  0  0  0  0  0  0  0  0
    5.2102    1.8121   13.3032 H   0  0  0  0  0  0  0  0  0  0  0  0
    6.4657    3.7523   15.8807 C   0  0  0  0  0  0  0  0  0  0  0  0
    7.4261    4.2134   16.1023 H   0  0  0  0  0  0  0  0  0  0  0  0
    6.2529    3.0069   16.6408 H   0  0  0  0  0  0  0  0  0  0  0  0
    5.6945    4.5154   15.9561 H   0  0  0  0  0  0  0  0  0  0  0  0
    6.3672    4.3413   13.4964 C   0  0  0  0  0  0  0  0  0  0  0  0
    5.5257    4.9705   13.7801 H   0  0  0  0  0  0  0  0  0  0  0  0
    6.1938    4.0183   12.4733 H   0  0  0  0  0  0  0  0  0  0  0  0
    7.2702    4.9478   13.5379 H   0  0  0  0  0  0  0  0  0  0  0  0
    9.7937    4.4316   12.1092 C   0  0  0  0  0  0  0  0  0  0  0  0
    9.8682    4.0392   13.1208 H   0  0  0  0  0  0  0  0  0  0  0  0
    9.5980    5.5021   12.1555 H   0  0  0  0  0  0  0  0  0  0  0  0
   10.7493    4.2786   11.6076 H   0  0  0  0  0  0  0  0  0  0  0  0
  1  8  1  0  0  0  0
  1  9  1  0  0  0  0
  1  4  1  0  0  0  0
  2  1  1  0  0  0  0
  3 19  1  0  0  0  0
  3  1  1  0  0  0  0
  4 21  1  0  0  0  0
  7 10  1  0  0  0  0
  8  5  1  0  0  0  0
  9  6  1  0  0  0  0
 10  1  1  0  0  0  0
 11  3  1  0  0  0  0
 12 11  1  0  0  0  0
 13 15  2  0  0  0  0
 13 11  1  0  0  0  0
 14 13  1  0  0  0  0
 15 17  1  0  0  0  0
 16 15  1  0  0  0  0
 17 18  1  0  0  0  0
 17 19  2  0  0  0  0
 19 20  1  0  0  0  0
 20  4  1  0  0  0  0
 20 44  1  1  0  0  0
 21 30  1  0  0  0  0
 22 21  2  0  0  0  0
 22 24  1  0  0  0  0
 23 22  1  0  0  0  0
 24 26  2  0  0  0  0
 25 24  1  0  0  0  0
 26 28  1  0  0  0  0
 26 27  1  0  0  0  0
 28 29  1  0  0  0  0
 30 31  1  0  0  0  0
 30 28  2  0  0  0  0
 31 36  1  0  0  0  0
 32 33  1  0  0  0  0
 32 31  1  0  0  0  0
 32 34  1  0  0  0  0
 35 32  1  0  0  0  0
 36 39  1  0  0  0  0
 36 37  1  0  0  0  0
 36 38  1  0  0  0  0
 40 43  1  0  0  0  0
 40 41  1  0  0  0  0
 40 31  1  0  0  0  0
 42 40  1  0  0  0  0
 44 46  1  0  0  0  0
 44 45  1  0  0  0  0
 47 44  1  0  0  0  0
M  END
$$$$
