CSD_code = BAHGEZ | q = 0 | S = 0 | Stoichiometry = C22H22BrN3NiO2 | MND = 4
 OpenBabel04212202003D

 51 55  0  0  0  0  0  0  0  0999 V2000
    0.4888    0.4656   12.0696 Br  0  0  0  0  0  0  0  0  0  0  0  0
    0.4848   -0.6938   10.1628 Ni  0  0  0  0  0  0  0  0  0  0  0  0
   -1.3206    0.3559    9.4067 O   0  0  0  0  0  0  0  0  0  0  0  0
    0.9024   -2.2389    8.8754 N   0  0  0  0  0  0  0  0  0  0  0  0
   -2.7020    1.8640   10.0747 O   0  5  0  0  0  0  0  0  0  0  0  0
   -1.1842   -1.8746   10.4772 N   0  0  0  0  0  0  0  0  0  0  0  0
    3.2964   -0.7081   10.4666 C   0  0  0  0  0  0  0  0  0  0  0  0
    1.9196   -2.4032    8.0407 C   0  0  0  0  0  3  0  0  0  0  0  0
    2.6199   -1.5822    7.9653 H   0  0  0  0  0  0  0  0  0  0  0  0
   -2.2245    0.7460   10.1555 N   0  3  0  0  0  3  0  0  0  0  0  0
    2.4218    1.1163    9.1247 C   0  0  0  0  0  0  0  0  0  0  0  0
    2.2245    0.0090    9.9462 C   0  0  0  0  0  0  0  0  0  0  0  0
   -2.7417   -0.1480   11.1271 C   0  0  0  0  0  0  0  0  0  0  0  0
   -0.0031   -3.2334    8.9799 C   0  0  0  0  0  0  0  0  0  0  0  0
    4.8125    0.7151    9.2269 C   0  0  0  0  0  0  0  0  0  0  0  0
   -4.3099   -0.5292   12.9233 C   0  0  0  0  0  0  0  0  0  0  0  0
   -2.2521   -1.4655   11.2373 C   0  0  0  0  0  0  0  0  0  0  0  0
   -2.8316   -2.3001   12.1978 C   0  0  0  0  0  0  0  0  0  0  0  0
   -2.4460   -3.3028   12.3127 H   0  0  0  0  0  0  0  0  0  0  0  0
   -3.7558    0.3005   11.9681 C   0  0  0  0  0  0  0  0  0  0  0  0
   -4.0894    1.3206   11.8527 H   0  0  0  0  0  0  0  0  0  0  0  0
    4.5849   -0.3498   10.0831 C   0  0  0  0  0  0  0  0  0  0  0  0
    5.4195   -0.9129   10.4779 H   0  0  0  0  0  0  0  0  0  0  0  0
   -1.1509   -2.9683    9.8124 C   0  0  0  0  0  3  0  0  0  0  0  0
   -1.9967   -3.6569    9.7735 H   0  0  0  0  0  0  0  0  0  0  0  0
    0.1214   -4.4285    8.2662 C   0  0  0  0  0  0  0  0  0  0  0  0
   -0.6213   -5.2018    8.3902 H   0  0  0  0  0  0  0  0  0  0  0  0
    3.7238    1.4402    8.7635 C   0  0  0  0  0  0  0  0  0  0  0  0
    3.8858    2.2892    8.1137 H   0  0  0  0  0  0  0  0  0  0  0  0
    2.1065   -3.5535    7.2924 C   0  0  0  0  0  0  0  0  0  0  0  0
    2.9509   -3.6296    6.6267 H   0  0  0  0  0  0  0  0  0  0  0  0
    1.1951   -4.5949    7.4165 C   0  0  0  0  0  0  0  0  0  0  0  0
    1.3190   -5.5090    6.8557 H   0  0  0  0  0  0  0  0  0  0  0  0
    3.1026   -1.8376   11.4422 C   0  0  0  0  0  0  0  0  0  0  0  0
    2.0507   -2.1399   11.4903 H   0  0  0  0  0  0  0  0  0  0  0  0
    3.7057   -2.7015   11.1648 H   0  0  0  0  0  0  0  0  0  0  0  0
    3.4014   -1.5134   12.4391 H   0  0  0  0  0  0  0  0  0  0  0  0
   -3.8329   -1.8386   13.0216 C   0  0  0  0  0  0  0  0  0  0  0  0
   -4.2541   -2.5007   13.7636 H   0  0  0  0  0  0  0  0  0  0  0  0
    1.2696    1.9532    8.6537 C   0  0  0  0  0  0  0  0  0  0  0  0
    0.4931    1.3292    8.2085 H   0  0  0  0  0  0  0  0  0  0  0  0
    0.8294    2.4783    9.5032 H   0  0  0  0  0  0  0  0  0  0  0  0
    1.5939    2.6892    7.9219 H   0  0  0  0  0  0  0  0  0  0  0  0
   -5.3723   -0.0343   13.8509 C   0  0  0  0  0  0  0  0  0  0  0  0
   -6.0777   -0.8259   14.0928 H   0  0  0  0  0  0  0  0  0  0  0  0
   -4.9146    0.3048   14.7800 H   0  0  0  0  0  0  0  0  0  0  0  0
   -5.9094    0.8033   13.4147 H   0  0  0  0  0  0  0  0  0  0  0  0
    6.2091    1.1061    8.8440 C   0  0  0  0  0  0  0  0  0  0  0  0
    6.2290    1.5543    7.8531 H   0  0  0  0  0  0  0  0  0  0  0  0
    6.5964    1.8386    9.5526 H   0  0  0  0  0  0  0  0  0  0  0  0
    6.8717    0.2435    8.8559 H   0  0  0  0  0  0  0  0  0  0  0  0
  2  6  1  0  0  0  0
  2  1  1  0  0  0  0
  3 10  1  0  0  0  0
  3  2  1  0  0  0  0
  4 14  1  0  0  0  0
  4  2  1  0  0  0  0
  5 10  1  0  0  0  0
  6 17  1  0  0  0  0
  7 34  1  0  0  0  0
  8  4  1  0  0  0  0
  9  8  1  0  0  0  0
 10 13  1  0  0  0  0
 11 12  1  0  0  0  0
 12  2  1  0  0  0  0
 12  7  2  0  0  0  0
 13 17  2  0  0  0  0
 13 20  1  0  0  0  0
 14 24  1  0  0  0  0
 15 22  2  0  0  0  0
 16 38  1  0  0  0  0
 16 44  1  0  0  0  0
 17 18  1  0  0  0  0
 18 19  1  0  0  0  0
 18 38  2  0  0  0  0
 20 16  2  0  0  0  0
 21 20  1  0  0  0  0
 22  7  1  0  0  0  0
 22 23  1  0  0  0  0
 24  6  1  0  0  0  0
 25 24  1  0  0  0  0
 26 27  1  0  0  0  0
 26 14  2  0  0  0  0
 28 11  2  0  0  0  0
 28 15  1  0  0  0  0
 29 28  1  0  0  0  0
 30 32  2  0  0  0  0
 30  8  1  0  0  0  0
 31 30  1  0  0  0  0
 32 26  1  0  0  0  0
 33 32  1  0  0  0  0
 34 35  1  0  0  0  0
 34 37  1  0  0  0  0
 36 34  1  0  0  0  0
 38 39  1  0  0  0  0
 40 11  1  0  0  0  0
 40 42  1  0  0  0  0
 41 40  1  0  0  0  0
 43 40  1  0  0  0  0
 44 45  1  0  0  0  0
 44 46  1  0  0  0  0
 47 44  1  0  0  0  0
 48 51  1  0  0  0  0
 48 15  1  0  0  0  0
 48 50  1  0  0  0  0
 49 48  1  0  0  0  0
M  CHG  2   5  -1  10   1
M  END
$$$$
