CSD_code = BAHGAV | q = 0 | S = 0 | Stoichiometry = C22H20BrF3N2Ni | MND = 4
 OpenBabel04212202003D

 49 52  0  0  0  0  0  0  0  0999 V2000
   13.4200   10.0982    2.9236 Br  0  0  0  0  0  0  0  0  0  0  0  0
   14.6202    9.6708    4.7391 Ni  0  0  2  0  0  0  0  0  0  0  0  0
   13.1181    9.6656    6.1088 N   0  0  0  0  0  0  0  0  0  0  0  0
   15.7296    9.8085    6.4299 N   0  0  0  0  0  0  0  0  0  0  0  0
   12.6510    6.7147    6.5234 F   0  0  0  0  0  0  0  0  0  0  0  0
   16.6208   11.3046    3.6193 C   0  0  0  0  0  0  0  0  0  0  0  0
   13.5860    7.4574    4.7420 F   0  0  0  0  0  0  0  0  0  0  0  0
   11.7822    9.4903    5.7834 C   0  0  0  0  0  0  0  0  0  0  0  0
   16.1360   10.0036    3.6870 C   0  0  0  0  0  0  0  0  0  0  0  0
   11.9694    6.0476    4.5957 F   0  0  0  0  0  0  0  0  0  0  0  0
   13.5250    9.9953    7.2762 C   0  0  0  0  0  0  0  0  0  0  0  0
   12.8439   10.1649    8.1110 H   0  0  0  0  0  0  0  0  0  0  0  0
   18.0873    9.1990    2.5668 C   0  0  0  0  0  0  0  0  0  0  0  0
   18.6510    8.3777    2.1455 H   0  0  0  0  0  0  0  0  0  0  0  0
   14.9494   10.0669    7.5009 C   0  0  0  0  0  0  0  0  0  0  0  0
   10.8497   10.5194    5.8713 C   0  0  0  0  0  0  0  0  0  0  0  0
   11.1641   11.4817    6.2473 H   0  0  0  0  0  0  0  0  0  0  0  0
   16.8531   10.3318    8.9260 C   0  0  0  0  0  0  0  0  0  0  0  0
   17.2945   10.5399    9.8887 H   0  0  0  0  0  0  0  0  0  0  0  0
   11.3850    8.2520    5.2591 C   0  0  0  0  0  0  0  0  0  0  0  0
    9.5570   10.3193    5.4269 C   0  0  0  0  0  0  0  0  0  0  0  0
    8.8455   11.1285    5.4858 H   0  0  0  0  0  0  0  0  0  0  0  0
   15.8186   12.4691    4.1355 C   0  0  0  0  0  0  0  0  0  0  0  0
   16.4422   13.1492    4.7141 H   0  0  0  0  0  0  0  0  0  0  0  0
   15.3905   13.0183    3.2968 H   0  0  0  0  0  0  0  0  0  0  0  0
   14.9904   12.1203    4.7654 H   0  0  0  0  0  0  0  0  0  0  0  0
   17.0446    9.7929    6.6029 C   0  0  0  0  0  0  0  0  0  0  0  0
   17.6444    9.5768    5.7288 H   0  0  0  0  0  0  0  0  0  0  0  0
   16.8488    8.9395    3.1366 C   0  0  0  0  0  0  0  0  0  0  0  0
   17.6486   10.0405    7.8246 C   0  0  0  0  0  0  0  0  0  0  0  0
   18.7229   10.0082    7.9077 H   0  0  0  0  0  0  0  0  0  0  0  0
   17.8661   11.5265    3.0392 C   0  0  0  0  0  0  0  0  0  0  0  0
   18.2443   12.5386    2.9931 H   0  0  0  0  0  0  0  0  0  0  0  0
   15.4829   10.3431    8.7610 C   0  0  0  0  0  0  0  0  0  0  0  0
   14.8191   10.5564    9.5849 H   0  0  0  0  0  0  0  0  0  0  0  0
    9.1731    9.0952    4.9045 C   0  0  0  0  0  0  0  0  0  0  0  0
    8.1647    8.9482    4.5524 H   0  0  0  0  0  0  0  0  0  0  0  0
   12.3798    7.1302    5.2589 C   0  0  0  0  0  0  0  0  0  0  0  0
   10.0844    8.0563    4.8278 C   0  0  0  0  0  0  0  0  0  0  0  0
    9.7953    7.0970    4.4280 H   0  0  0  0  0  0  0  0  0  0  0  0
   19.9474   10.7263    1.8774 C   0  0  0  0  0  0  0  0  0  0  0  0
   20.2493   11.7648    1.9885 H   0  0  0  0  0  0  0  0  0  0  0  0
   20.7085   10.0903    2.3284 H   0  0  0  0  0  0  0  0  0  0  0  0
   19.9046   10.4914    0.8144 H   0  0  0  0  0  0  0  0  0  0  0  0
   18.6107   10.4846    2.5139 C   0  0  0  0  0  0  0  0  0  0  0  0
   16.2889    7.5463    3.1584 C   0  0  0  0  0  0  0  0  0  0  0  0
   16.9626    6.8468    2.6692 H   0  0  0  0  0  0  0  0  0  0  0  0
   16.1273    7.2137    4.1860 H   0  0  0  0  0  0  0  0  0  0  0  0
   15.3288    7.5281    2.6405 H   0  0  0  0  0  0  0  0  0  0  0  0
  2  1  1  1  0  0  0
  2  3  1  0  0  0  0
  2  4  1  0  0  0  0
  3 11  1  0  0  0  0
  4 27  1  0  0  0  0
  4 15  1  0  0  0  0
  6  9  1  0  0  0  0
  6 23  1  0  0  0  0
  7 38  1  0  0  0  0
  8 16  1  0  0  0  0
  8  3  1  0  0  0  0
  9  2  1  0  0  0  0
 10 38  1  0  0  0  0
 11 15  2  0  0  0  0
 11 12  1  0  0  0  0
 13 29  1  0  0  0  0
 14 13  1  0  0  0  0
 15 34  1  0  0  0  0
 16 17  1  0  0  0  0
 18 19  1  0  0  0  0
 20  8  2  0  0  0  0
 21 22  1  0  0  0  0
 21 16  2  0  0  0  0
 23 24  1  0  0  0  0
 23 26  1  0  0  0  0
 25 23  1  0  0  0  0
 27 30  2  0  0  0  0
 28 27  1  0  0  0  0
 29 46  1  0  0  0  0
 29  9  2  0  0  0  0
 30 31  1  0  0  0  0
 30 18  1  0  0  0  0
 32  6  2  0  0  0  0
 33 32  1  0  0  0  0
 34 18  2  0  0  0  0
 34 35  1  0  0  0  0
 36 21  1  0  0  0  0
 37 36  1  0  0  0  0
 38 20  1  0  0  0  0
 38  5  1  0  0  0  0
 39 36  2  0  0  0  0
 39 20  1  0  0  0  0
 40 39  1  0  0  0  0
 41 42  1  0  0  0  0
 41 43  1  0  0  0  0
 41 45  1  0  0  0  0
 44 41  1  0  0  0  0
 45 13  2  0  0  0  0
 45 32  1  0  0  0  0
 46 48  1  0  0  0  0
 47 46  1  0  0  0  0
 49 46  1  0  0  0  0
M  END
$$$$
