CSD_code = BAHQEI | q = 0 | S = 0 | Stoichiometry = C43H36CuIN4P2S | MND = 4
 OpenBabel04212202003D

 88 95  0  0  1  0  0  0  0  0999 V2000
    3.3666    1.8040   12.3591 Cu  0  0  0  0  0  0  0  0  0  0  0  0
    5.1237    3.1247   11.1181 I   0  0  0  0  0  0  0  0  0  0  0  0
    4.5260    1.1456   14.7381 S   0  0  0  0  0  0  0  0  0  0  0  0
    1.3726    2.6080   12.9872 P   0  0  0  0  0  4  0  0  0  0  0  0
    3.2523   -0.4140   11.9371 P   0  0  0  0  0  4  0  0  0  0  0  0
    6.8560   -0.2936   14.8413 N   0  0  0  0  0  0  0  0  0  0  0  0
    8.0624   -0.2173   14.2387 N   0  0  0  0  0  0  0  0  0  0  0  0
    8.0572    0.7096   13.4089 N   0  0  0  0  0  0  0  0  0  0  0  0
    6.8697    1.3057   13.4193 N   0  0  0  0  0  0  0  0  0  0  0  0
    6.5920    2.0320   12.7442 H   0  0  0  0  0  0  0  0  0  0  0  0
    6.0532    0.6952   14.3240 C   0  0  2  0  0  3  0  0  0  0  0  0
    6.5798   -1.3200   15.7516 C   0  0  0  0  0  0  0  0  0  0  0  0
    5.2769   -1.6740   16.0841 C   0  0  0  0  0  0  0  0  0  0  0  0
    4.4378   -1.1384   15.6721 H   0  0  0  0  0  0  0  0  0  0  0  0
    5.0617   -2.7272   16.9541 C   0  0  0  0  0  0  0  0  0  0  0  0
    4.0480   -3.0022   17.2038 H   0  0  0  0  0  0  0  0  0  0  0  0
    6.1289   -3.4238   17.4942 C   0  0  0  0  0  0  0  0  0  0  0  0
    5.9523   -4.2435   18.1738 H   0  0  0  0  0  0  0  0  0  0  0  0
    7.4258   -3.0659   17.1595 C   0  0  0  0  0  0  0  0  0  0  0  0
    8.2619   -3.6057   17.5777 H   0  0  0  0  0  0  0  0  0  0  0  0
    7.6577   -2.0192   16.2894 C   0  0  0  0  0  0  0  0  0  0  0  0
    8.6599   -1.7332   16.0121 H   0  0  0  0  0  0  0  0  0  0  0  0
    0.3935    2.2225   14.4817 C   0  0  0  0  0  0  0  0  0  0  0  0
   -0.9853    2.0458   14.4882 C   0  0  0  0  0  0  0  0  0  0  0  0
   -1.5483    2.1069   13.5671 H   0  0  0  0  0  0  0  0  0  0  0  0
   -1.6369    1.7801   15.6789 C   0  0  0  0  0  0  0  0  0  0  0  0
   -2.7086    1.6416   15.6816 H   0  0  0  0  0  0  0  0  0  0  0  0
   -0.9240    1.6916   16.8637 C   0  0  0  0  0  0  0  0  0  0  0  0
   -1.4405    1.4803   17.7886 H   0  0  0  0  0  0  0  0  0  0  0  0
    0.4494    1.8733   16.8620 C   0  0  0  0  0  0  0  0  0  0  0  0
    1.0090    1.8043   17.7832 H   0  0  0  0  0  0  0  0  0  0  0  0
    1.1062    2.1389   15.6753 C   0  0  0  0  0  0  0  0  0  0  0  0
    2.1805    2.2734   15.6634 H   0  0  0  0  0  0  0  0  0  0  0  0
    1.2121    4.4236   13.0160 C   0  0  0  0  0  0  0  0  0  0  0  0
   -0.0236    5.0561   12.9098 C   0  0  0  0  0  0  0  0  0  0  0  0
   -0.9220    4.4688   12.7774 H   0  0  0  0  0  0  0  0  0  0  0  0
   -0.0935    6.4342   12.9659 C   0  0  0  0  0  0  0  0  0  0  0  0
   -1.0514    6.9267   12.8786 H   0  0  0  0  0  0  0  0  0  0  0  0
    1.0603    7.1859   13.1338 C   0  0  0  0  0  0  0  0  0  0  0  0
    0.9978    8.2634   13.1739 H   0  0  0  0  0  0  0  0  0  0  0  0
    2.2886    6.5588   13.2500 C   0  0  0  0  0  0  0  0  0  0  0  0
    3.1879    7.1420   13.3789 H   0  0  0  0  0  0  0  0  0  0  0  0
    2.3652    5.1783   13.1946 C   0  0  0  0  0  0  0  0  0  0  0  0
    3.3209    4.6804   13.2823 H   0  0  0  0  0  0  0  0  0  0  0  0
    0.2958    2.1047   11.6170 C   0  0  0  0  0  0  0  0  0  0  0  0
    0.1698    2.8997   10.4815 C   0  0  0  0  0  0  0  0  0  0  0  0
    0.6364    3.8753   10.4551 H   0  0  0  0  0  0  0  0  0  0  0  0
   -0.5495    2.4413    9.3934 C   0  0  0  0  0  0  0  0  0  0  0  0
   -0.6510    3.0652    8.5176 H   0  0  0  0  0  0  0  0  0  0  0  0
   -1.1355    1.1866    9.4234 C   0  0  0  0  0  0  0  0  0  0  0  0
   -1.7019    0.8337    8.5745 H   0  0  0  0  0  0  0  0  0  0  0  0
   -0.9840    0.3774   10.5377 C   0  0  0  0  0  0  0  0  0  0  0  0
   -1.4250   -0.6086   10.5559 H   0  0  0  0  0  0  0  0  0  0  0  0
   -0.2585    0.8254   11.6243 C   0  0  0  0  0  0  0  0  0  0  0  0
   -0.1245    0.1861   12.4887 H   0  0  0  0  0  0  0  0  0  0  0  0
    2.3483   -0.7197   10.3822 C   0  0  0  0  0  0  0  0  0  0  0  0
    2.4189    0.2921    9.4273 C   0  0  0  0  0  0  0  0  0  0  0  0
    2.9697    1.1983    9.6441 H   0  0  0  0  0  0  0  0  0  0  0  0
    1.7766    0.1545    8.2123 C   0  0  0  0  0  0  0  0  0  0  0  0
    1.8457    0.9415    7.4763 H   0  0  0  0  0  0  0  0  0  0  0  0
    1.0405   -0.9882    7.9480 C   0  0  0  0  0  0  0  0  0  0  0  0
    0.5360   -1.0996    6.9996 H   0  0  0  0  0  0  0  0  0  0  0  0
    0.9398   -1.9823    8.9068 C   0  0  0  0  0  0  0  0  0  0  0  0
    0.3524   -2.8674    8.7076 H   0  0  0  0  0  0  0  0  0  0  0  0
    1.5874   -1.8525   10.1219 C   0  0  0  0  0  0  0  0  0  0  0  0
    1.4909   -2.6289   10.8670 H   0  0  0  0  0  0  0  0  0  0  0  0
    4.8974   -1.0966   11.5551 C   0  0  0  0  0  0  0  0  0  0  0  0
    5.6033   -1.8540   12.4872 C   0  0  0  0  0  0  0  0  0  0  0  0
    5.1298   -2.1588   13.4113 H   0  0  0  0  0  0  0  0  0  0  0  0
    6.9125   -2.2228   12.2354 C   0  0  0  0  0  0  0  0  0  0  0  0
    7.4483   -2.8154   12.9635 H   0  0  0  0  0  0  0  0  0  0  0  0
    7.5391   -1.8178   11.0685 C   0  0  0  0  0  0  0  0  0  0  0  0
    8.5662   -2.0932   10.8856 H   0  0  0  0  0  0  0  0  0  0  0  0
    6.8483   -1.0482   10.1466 C   0  0  0  0  0  0  0  0  0  0  0  0
    7.3358   -0.7179    9.2420 H   0  0  0  0  0  0  0  0  0  0  0  0
    5.5362   -0.6866   10.3860 C   0  0  0  0  0  0  0  0  0  0  0  0
    5.0054   -0.0803    9.6661 H   0  0  0  0  0  0  0  0  0  0  0  0
    2.5685   -1.6329   13.1055 C   0  0  0  0  0  0  0  0  0  0  0  0
    1.8519   -1.1224   14.1822 C   0  0  0  0  0  0  0  0  0  0  0  0
    1.7331   -0.0498   14.2785 H   0  0  0  0  0  0  0  0  0  0  0  0
    1.3166   -1.9673   15.1371 C   0  0  0  0  0  0  0  0  0  0  0  0
    0.7655   -1.5552   15.9703 H   0  0  0  0  0  0  0  0  0  0  0  0
    1.4999   -3.3348   15.0210 C   0  0  0  0  0  0  0  0  0  0  0  0
    1.0892   -4.0012   15.7655 H   0  0  0  0  0  0  0  0  0  0  0  0
    2.2161   -3.8520   13.9519 C   0  0  0  0  0  0  0  0  0  0  0  0
    2.3613   -4.9193   13.8660 H   0  0  0  0  0  0  0  0  0  0  0  0
    2.7515   -3.0099   12.9951 C   0  0  0  0  0  0  0  0  0  0  0  0
    3.3223   -3.4168   12.1709 H   0  0  0  0  0  0  0  0  0  0  0  0
  1  4  1  0  0  0  0
  1  3  1  0  0  0  0
  2  1  1  0  0  0  0
  4 34  1  0  0  0  0
  4 23  1  0  0  0  0
  5  1  1  0  0  0  0
  5 78  1  0  0  0  0
  6 12  1  0  0  0  0
  7  6  1  0  0  0  0
  8  9  1  0  0  0  0
  8  7  2  0  0  0  0
  9 11  1  0  0  0  0
 10  9  1  0  0  0  0
 11  3  1  1  0  0  0
 11  6  1  0  0  0  0
 12 13  2  0  0  0  0
 12 21  1  0  0  0  0
 13 15  1  0  0  0  0
 14 13  1  0  0  0  0
 15 16  1  0  0  0  0
 15 17  2  0  0  0  0
 17 18  1  0  0  0  0
 19 17  1  0  0  0  0
 19 20  1  0  0  0  0
 21 19  2  0  0  0  0
 22 21  1  0  0  0  0
 23 24  2  0  0  0  0
 23 32  1  0  0  0  0
 24 26  1  0  0  0  0
 25 24  1  0  0  0  0
 26 27  1  0  0  0  0
 26 28  2  0  0  0  0
 28 29  1  0  0  0  0
 30 28  1  0  0  0  0
 30 31  1  0  0  0  0
 32 30  2  0  0  0  0
 33 32  1  0  0  0  0
 34 43  1  0  0  0  0
 35 37  1  0  0  0  0
 35 34  2  0  0  0  0
 36 35  1  0  0  0  0
 37 39  2  0  0  0  0
 38 37  1  0  0  0  0
 39 40  1  0  0  0  0
 39 41  1  0  0  0  0
 41 42  1  0  0  0  0
 43 41  2  0  0  0  0
 43 44  1  0  0  0  0
 45 54  1  0  0  0  0
 45  4  1  0  0  0  0
 46 45  2  0  0  0  0
 47 46  1  0  0  0  0
 48 50  2  0  0  0  0
 48 46  1  0  0  0  0
 49 48  1  0  0  0  0
 50 52  1  0  0  0  0
 51 50  1  0  0  0  0
 52 53  1  0  0  0  0
 52 54  2  0  0  0  0
 54 55  1  0  0  0  0
 56  5  1  0  0  0  0
 57 58  1  0  0  0  0
 57 56  2  0  0  0  0
 59 57  1  0  0  0  0
 60 59  1  0  0  0  0
 61 59  2  0  0  0  0
 61 63  1  0  0  0  0
 62 61  1  0  0  0  0
 63 65  2  0  0  0  0
 64 63  1  0  0  0  0
 65 56  1  0  0  0  0
 65 66  1  0  0  0  0
 67  5  1  0  0  0  0
 67 68  1  0  0  0  0
 68 69  1  0  0  0  0
 70 68  2  0  0  0  0
 70 71  1  0  0  0  0
 72 70  1  0  0  0  0
 73 72  1  0  0  0  0
 74 76  1  0  0  0  0
 74 72  2  0  0  0  0
 75 74  1  0  0  0  0
 76 67  2  0  0  0  0
 77 76  1  0  0  0  0
 78 79  1  0  0  0  0
 79 80  1  0  0  0  0
 79 81  2  0  0  0  0
 81 82  1  0  0  0  0
 83 81  1  0  0  0  0
 83 84  1  0  0  0  0
 85 83  2  0  0  0  0
 86 85  1  0  0  0  0
 87 78  2  0  0  0  0
 87 85  1  0  0  0  0
 88 87  1  0  0  0  0
M  END
$$$$
