CSD_code = BAJMAC | q = 0 | S = 0 | Stoichiometry = C30H23AuIN3O | MND = 2
 OpenBabel04212202003D

 59 64  0  0  1  0  0  0  0  0999 V2000
    6.6243    5.5959    5.1506 Au  0  0  0  0  0  0  0  0  0  0  0  0
    6.5033    5.7129    7.6989 I   0  0  0  0  0  0  0  0  0  0  0  0
    6.5940    4.6755    2.2075 N   0  0  0  0  0  0  0  0  0  0  0  0
    6.3841    6.8223    2.4505 N   0  0  0  0  0  0  0  0  0  0  0  0
    3.4531    6.1747    3.5199 N   0  0  0  0  0  0  0  0  0  0  0  0
    3.5280    6.8114    4.3014 H   0  0  0  0  0  0  0  0  0  0  0  0
    3.6284    3.9979    2.9138 O   0  0  0  0  0  0  0  0  0  0  0  0
    6.5556    5.6568    3.1181 C   0  0  1  0  0  3  0  0  0  0  0  0
    6.4444    5.1951    0.9410 C   0  0  0  0  0  0  0  0  0  0  0  0
    6.4056    4.6043   -0.3124 C   0  0  0  0  0  0  0  0  0  0  0  0
    6.4731    3.5351   -0.4326 H   0  0  0  0  0  0  0  0  0  0  0  0
    6.2756    5.4461   -1.3994 C   0  0  0  0  0  0  0  0  0  0  0  0
    6.2346    5.0245   -2.3919 H   0  0  0  0  0  0  0  0  0  0  0  0
    6.2159    6.8313   -1.2492 C   0  0  0  0  0  0  0  0  0  0  0  0
    6.1411    7.4538   -2.1273 H   0  0  0  0  0  0  0  0  0  0  0  0
    6.2519    7.4278   -0.0049 C   0  0  0  0  0  0  0  0  0  0  0  0
    6.2255    8.4992    0.1071 H   0  0  0  0  0  0  0  0  0  0  0  0
    6.3295    6.5867    1.0937 C   0  0  0  0  0  0  0  0  0  0  0  0
    6.6785    3.2750    2.5070 C   0  0  0  0  0  0  0  0  0  0  0  0
    5.7023    2.8097    2.3532 H   0  0  0  0  0  0  0  0  0  0  0  0
    6.9675    3.1549    3.5502 H   0  0  0  0  0  0  0  0  0  0  0  0
    7.4189    2.7973    1.8647 H   0  0  0  0  0  0  0  0  0  0  0  0
    6.0805    8.0263    3.1333 C   0  0  0  0  0  0  0  0  0  0  0  0
    7.0374    8.5662    4.0113 C   0  0  0  0  0  0  0  0  0  0  0  0
    8.0126    8.1067    4.0644 H   0  0  0  0  0  0  0  0  0  0  0  0
    6.7320    9.6605    4.7682 C   0  0  0  0  0  0  0  0  0  0  0  0
    7.4617   10.0756    5.4465 H   0  0  0  0  0  0  0  0  0  0  0  0
    5.4547   10.2538    4.6929 C   0  0  0  0  0  0  0  0  0  0  0  0
    5.1024   11.3604    5.4933 C   0  0  0  0  0  0  0  0  0  0  0  0
    5.8388   11.7569    6.1765 H   0  0  0  0  0  0  0  0  0  0  0  0
    3.8548   11.9121    5.4132 C   0  0  0  0  0  0  0  0  0  0  0  0
    3.5913   12.7568    6.0317 H   0  0  0  0  0  0  0  0  0  0  0  0
    2.9018   11.3805    4.5304 C   0  0  0  0  0  0  0  0  0  0  0  0
    1.9175   11.8219    4.4837 H   0  0  0  0  0  0  0  0  0  0  0  0
    3.2111   10.3109    3.7380 C   0  0  0  0  0  0  0  0  0  0  0  0
    2.4774    9.8987    3.0605 H   0  0  0  0  0  0  0  0  0  0  0  0
    4.4937    9.7237    3.7918 C   0  0  0  0  0  0  0  0  0  0  0  0
    4.8303    8.5968    2.9979 C   0  0  0  0  0  0  0  0  0  0  0  0
    3.8786    8.0142    2.0219 C   0  0  0  0  0  0  0  0  0  0  0  0
    3.6248    8.6843    0.7970 C   0  0  0  0  0  0  0  0  0  0  0  0
    4.1344    9.9734    0.5227 C   0  0  0  0  0  0  0  0  0  0  0  0
    4.7201   10.4798    1.2763 H   0  0  0  0  0  0  0  0  0  0  0  0
    3.8914   10.5821   -0.6765 C   0  0  0  0  0  0  0  0  0  0  0  0
    4.2846   11.5692   -0.8708 H   0  0  0  0  0  0  0  0  0  0  0  0
    3.1351    9.9344   -1.6647 C   0  0  0  0  0  0  0  0  0  0  0  0
    2.9561   10.4301   -2.6072 H   0  0  0  0  0  0  0  0  0  0  0  0
    2.6318    8.6858   -1.4314 C   0  0  0  0  0  0  0  0  0  0  0  0
    2.0482    8.1772   -2.1851 H   0  0  0  0  0  0  0  0  0  0  0  0
    2.8601    8.0312   -0.2040 C   0  0  0  0  0  0  0  0  0  0  0  0
    2.3591    6.7386    0.0516 C   0  0  0  0  0  0  0  0  0  0  0  0
    1.7910    6.2391   -0.7190 H   0  0  0  0  0  0  0  0  0  0  0  0
    2.5636    6.1310    1.2546 C   0  0  0  0  0  0  0  0  0  0  0  0
    2.1618    5.1516    1.4546 H   0  0  0  0  0  0  0  0  0  0  0  0
    3.3194    6.7719    2.2552 C   0  0  0  0  0  0  0  0  0  0  0  0
    3.4836    4.8324    3.7817 C   0  0  0  0  0  0  0  0  0  0  0  0
    3.2925    4.4940    5.2380 C   0  0  0  0  0  0  0  0  0  0  0  0
    2.2219    4.4439    5.4366 H   0  0  0  0  0  0  0  0  0  0  0  0
    3.7288    5.2360    5.9000 H   0  0  0  0  0  0  0  0  0  0  0  0
    3.7211    3.5179    5.4483 H   0  0  0  0  0  0  0  0  0  0  0  0
  1  2  1  0  0  0  0
  3 19  1  0  0  0  0
  3  8  1  0  0  0  0
  4  8  1  0  0  0  0
  4 23  1  0  0  0  0
  5 55  1  0  0  0  0
  5  6  1  0  0  0  0
  7 55  2  0  0  0  0
  8  1  1  1  0  0  0
  9 18  1  0  0  0  0
  9  3  1  0  0  0  0
 10  9  2  0  0  0  0
 11 10  1  0  0  0  0
 12 14  2  0  0  0  0
 12 10  1  0  0  0  0
 13 12  1  0  0  0  0
 14 16  1  0  0  0  0
 15 14  1  0  0  0  0
 16 17  1  0  0  0  0
 16 18  2  0  0  0  0
 18  4  1  0  0  0  0
 19 21  1  0  0  0  0
 20 19  1  0  0  0  0
 22 19  1  0  0  0  0
 23 24  1  0  0  0  0
 24 25  1  0  0  0  0
 24 26  2  0  0  0  0
 26 27  1  0  0  0  0
 28 26  1  0  0  0  0
 28 29  1  0  0  0  0
 29 30  1  0  0  0  0
 31 29  2  0  0  0  0
 31 32  1  0  0  0  0
 33 31  1  0  0  0  0
 34 33  1  0  0  0  0
 35 37  1  0  0  0  0
 35 33  2  0  0  0  0
 36 35  1  0  0  0  0
 37 28  2  0  0  0  0
 38 23  2  0  0  0  0
 38 37  1  0  0  0  0
 39 54  1  0  0  0  0
 39 38  1  0  0  0  0
 40 39  2  0  0  0  0
 41 40  1  0  0  0  0
 41 42  1  0  0  0  0
 43 41  2  0  0  0  0
 44 43  1  0  0  0  0
 45 47  2  0  0  0  0
 45 43  1  0  0  0  0
 46 45  1  0  0  0  0
 47 49  1  0  0  0  0
 48 47  1  0  0  0  0
 49 50  2  0  0  0  0
 49 40  1  0  0  0  0
 50 52  1  0  0  0  0
 51 50  1  0  0  0  0
 52 53  1  0  0  0  0
 52 54  2  0  0  0  0
 54  5  1  0  0  0  0
 55 56  1  0  0  0  0
 56 57  1  0  0  0  0
 56 59  1  0  0  0  0
 56 58  1  0  0  0  0
M  END
$$$$
