CSD_code = BAJVUE | q = 0 | S = 0 | Stoichiometry = C28H40ClN3NiO | MND = 5
 OpenBabel04212202003D

 74 77  0  0  0  0  0  0  0  0999 V2000
    1.9996   15.8254   -0.7979 C   0  0  0  0  0  0  0  0  0  0  0  0
    1.5855   15.9919    0.1970 H   0  0  0  0  0  0  0  0  0  0  0  0
    1.2202   15.3812   -1.4201 H   0  0  0  0  0  0  0  0  0  0  0  0
    2.3048   16.7774   -1.2206 H   0  0  0  0  0  0  0  0  0  0  0  0
    3.1407   14.8835   -0.7142 C   0  0  0  0  0  0  0  0  0  0  0  0
    4.5007   15.1797   -1.0563 C   0  0  0  0  0  0  0  0  0  0  0  0
    5.2254   14.0463   -0.8000 C   0  0  0  0  0  0  0  0  0  0  0  0
    4.2903   13.0688   -0.2976 C   0  0  0  0  0  0  0  0  0  0  0  0
    4.6159   11.8197    0.1690 C   0  0  0  0  0  3  0  0  0  0  0  0
    5.6499   11.5163    0.0908 H   0  0  0  0  0  0  0  0  0  0  0  0
    3.7235   10.8924    0.7251 C   0  0  0  0  0  0  0  0  0  0  0  0
    4.0228    9.5446    1.1255 C   0  0  0  0  0  0  0  0  0  0  0  0
    2.8347    8.9923    1.5324 C   0  0  0  0  0  0  0  0  0  0  0  0
    1.8387   10.0167    1.3723 C   0  0  0  0  0  0  0  0  0  0  0  0
    0.4623    9.8883    1.5916 C   0  0  0  0  0  3  0  0  0  0  0  0
    0.1105    8.9362    1.9616 H   0  0  0  0  0  0  0  0  0  0  0  0
   -0.4805   10.8598    1.3539 C   0  0  0  0  0  0  0  0  0  0  0  0
   -1.8903   10.7580    1.6352 C   0  0  0  0  0  0  0  0  0  0  0  0
   -2.4389   11.9731    1.3115 C   0  0  0  0  0  0  0  0  0  0  0  0
   -1.3674   12.7888    0.8301 C   0  0  0  0  0  0  0  0  0  0  0  0
   -1.4946   14.1948    0.3735 C   0  0  0  0  0  0  0  0  0  0  0  0
   -2.1363   14.7625    1.0449 H   0  0  0  0  0  0  0  0  0  0  0  0
   -1.9309   14.2139   -0.6252 H   0  0  0  0  0  0  0  0  0  0  0  0
   -0.5102   14.6583    0.3209 H   0  0  0  0  0  0  0  0  0  0  0  0
    4.9993   16.4943   -1.5592 C   0  0  0  0  0  0  0  0  0  0  0  0
    4.2697   16.9261   -2.2476 H   0  0  0  0  0  0  0  0  0  0  0  0
    5.9266   16.3426   -2.1143 H   0  0  0  0  0  0  0  0  0  0  0  0
    5.2529   17.4683   -0.4060 C   0  0  0  0  0  0  0  0  0  0  0  0
    4.3384   17.6417    0.1564 H   0  0  0  0  0  0  0  0  0  0  0  0
    5.6132   18.4219   -0.7854 H   0  0  0  0  0  0  0  0  0  0  0  0
    5.9988   17.0617    0.2739 H   0  0  0  0  0  0  0  0  0  0  0  0
    6.6814   13.8103   -1.0177 C   0  0  0  0  0  0  0  0  0  0  0  0
    7.0932   13.2230   -0.1933 H   0  0  0  0  0  0  0  0  0  0  0  0
    7.2080   14.7661   -1.0383 H   0  0  0  0  0  0  0  0  0  0  0  0
    6.9195   13.0717   -2.3378 C   0  0  0  0  0  0  0  0  0  0  0  0
    6.3991   12.1170   -2.3396 H   0  0  0  0  0  0  0  0  0  0  0  0
    7.9821   12.8928   -2.4875 H   0  0  0  0  0  0  0  0  0  0  0  0
    6.5444   13.6618   -3.1705 H   0  0  0  0  0  0  0  0  0  0  0  0
    5.3794    8.9241    1.1038 C   0  0  0  0  0  0  0  0  0  0  0  0
    5.9090    9.2243    0.1965 H   0  0  0  0  0  0  0  0  0  0  0  0
    5.2850    7.8365    1.0877 H   0  0  0  0  0  0  0  0  0  0  0  0
    6.1979    9.3377    2.3297 C   0  0  0  0  0  0  0  0  0  0  0  0
    6.3079   10.4195    2.3696 H   0  0  0  0  0  0  0  0  0  0  0  0
    7.1879    8.8882    2.2960 H   0  0  0  0  0  0  0  0  0  0  0  0
    5.7021    9.0130    3.2418 H   0  0  0  0  0  0  0  0  0  0  0  0
    2.5779    7.6223    2.0644 C   0  0  0  0  0  0  0  0  0  0  0  0
    3.3830    6.9527    1.7559 H   0  0  0  0  0  0  0  0  0  0  0  0
    1.6451    7.2333    1.6489 H   0  0  0  0  0  0  0  0  0  0  0  0
    2.4893    7.6277    3.5927 C   0  0  0  0  0  0  0  0  0  0  0  0
    3.4230    7.9818    4.0240 H   0  0  0  0  0  0  0  0  0  0  0  0
    2.2946    6.6248    3.9664 H   0  0  0  0  0  0  0  0  0  0  0  0
    1.6899    8.2851    3.9281 H   0  0  0  0  0  0  0  0  0  0  0  0
   -2.5631    9.5606    2.2148 C   0  0  0  0  0  0  0  0  0  0  0  0
   -2.1744    8.6550    1.7431 H   0  0  0  0  0  0  0  0  0  0  0  0
   -3.6335    9.6130    2.0076 H   0  0  0  0  0  0  0  0  0  0  0  0
   -2.3522    9.4718    3.7292 C   0  0  0  0  0  0  0  0  0  0  0  0
   -1.2924    9.4148    3.9674 H   0  0  0  0  0  0  0  0  0  0  0  0
   -2.8465    8.5891    4.1288 H   0  0  0  0  0  0  0  0  0  0  0  0
   -2.7632   10.3499    4.2220 H   0  0  0  0  0  0  0  0  0  0  0  0
   -3.8604   12.4164    1.4210 C   0  0  0  0  0  0  0  0  0  0  0  0
   -4.5212   11.5581    1.2824 H   0  0  0  0  0  0  0  0  0  0  0  0
   -4.0751   13.1365    0.6292 H   0  0  0  0  0  0  0  0  0  0  0  0
   -4.1536   13.0563    2.7803 C   0  0  0  0  0  0  0  0  0  0  0  0
   -3.9847   12.3409    3.5818 H   0  0  0  0  0  0  0  0  0  0  0  0
   -5.1882   13.3883    2.8274 H   0  0  0  0  0  0  0  0  0  0  0  0
   -3.5079   13.9156    2.9491 H   0  0  0  0  0  0  0  0  0  0  0  0
    0.5918   13.0219   -1.7744 Cl  0  0  0  0  0  0  0  0  0  0  0  0
    1.4681   14.1704    2.1563 O   0  0  0  0  0  0  0  0  0  0  0  0
    0.8214   13.7375    2.7225 H   0  0  0  0  0  0  0  0  0  0  0  0
    2.3406   13.9221    2.4774 H   0  0  0  0  0  0  0  0  0  0  0  0
    3.0225   13.6348   -0.2880 N   0  0  0  0  0  0  0  0  0  0  0  0
    2.4118   11.1539    0.9143 N   0  0  0  0  0  0  0  0  0  0  0  0
   -0.2202   12.1270    0.8516 N   0  0  0  0  0  0  0  0  0  0  0  0
    1.4112   12.8185    0.2270 Ni  0  0  0  0  0  0  0  0  0  0  0  0
  1  5  1  0  0  0  0
  1  2  1  0  0  0  0
  3  1  1  0  0  0  0
  4  1  1  0  0  0  0
  5 71  1  0  0  0  0
  6  7  1  0  0  0  0
  6  5  2  0  0  0  0
  7  8  2  0  0  0  0
  8 71  1  0  0  0  0
  8  9  1  0  0  0  0
  9 11  1  0  0  0  0
 10  9  1  0  0  0  0
 11 72  1  0  0  0  0
 11 12  2  0  0  0  0
 12 13  1  0  0  0  0
 13 46  1  0  0  0  0
 14 13  2  0  0  0  0
 14 15  1  0  0  0  0
 15 16  1  0  0  0  0
 17 15  1  0  0  0  0
 17 18  2  0  0  0  0
 18 53  1  0  0  0  0
 19 60  1  0  0  0  0
 19 18  1  0  0  0  0
 20 73  1  0  0  0  0
 20 19  2  0  0  0  0
 21 20  1  0  0  0  0
 21 22  1  0  0  0  0
 23 21  1  0  0  0  0
 24 21  1  0  0  0  0
 25  6  1  0  0  0  0
 25 28  1  0  0  0  0
 26 25  1  0  0  0  0
 27 25  1  0  0  0  0
 28 29  1  0  0  0  0
 28 31  1  0  0  0  0
 30 28  1  0  0  0  0
 32  7  1  0  0  0  0
 32 33  1  0  0  0  0
 34 32  1  0  0  0  0
 35 32  1  0  0  0  0
 36 35  1  0  0  0  0
 37 35  1  0  0  0  0
 38 35  1  0  0  0  0
 39 12  1  0  0  0  0
 39 42  1  0  0  0  0
 40 39  1  0  0  0  0
 41 39  1  0  0  0  0
 42 43  1  0  0  0  0
 42 45  1  0  0  0  0
 44 42  1  0  0  0  0
 46 49  1  0  0  0  0
 47 46  1  0  0  0  0
 48 46  1  0  0  0  0
 49 52  1  0  0  0  0
 49 51  1  0  0  0  0
 49 50  1  0  0  0  0
 53 56  1  0  0  0  0
 54 53  1  0  0  0  0
 55 53  1  0  0  0  0
 56 57  1  0  0  0  0
 56 58  1  0  0  0  0
 56 59  1  0  0  0  0
 60 63  1  0  0  0  0
 61 60  1  0  0  0  0
 62 60  1  0  0  0  0
 63 65  1  0  0  0  0
 63 66  1  0  0  0  0
 63 64  1  0  0  0  0
 67 74  1  0  0  0  0
 68 70  1  0  0  0  0
 68 69  1  0  0  0  0
 71 74  1  0  0  0  0
 72 14  1  0  0  0  0
 73 17  1  0  0  0  0
 74 73  1  0  0  0  0
 74 72  1  0  0  0  0
M  END
$$$$
