CSD_code = BAKCIB | q = 0 | S = 0 | Stoichiometry = C26H29CuIN3O8 | MND = 4
 OpenBabel04212202003D

 68 72  0  0  0  0  0  0  0  0999 V2000
    5.8306    2.6575    1.7135 Cu  0  0  1  0  0  0  0  0  0  0  0  0
    4.9524    4.6794    2.8493 I   0  0  0  0  0  0  0  0  0  0  0  0
    5.7305    0.7532    2.4432 N   0  0  0  0  0  0  0  0  0  0  0  0
    6.1065    0.2901    3.6257 C   0  0  0  0  0  0  0  0  0  0  0  0
    5.6561   -0.9446    4.1262 C   0  0  0  0  0  0  0  0  0  0  0  0
    5.9887   -1.2483    5.1060 H   0  0  0  0  0  0  0  0  0  0  0  0
    4.8357   -1.7234    3.3545 C   0  0  0  0  0  0  0  0  0  0  0  0
    4.4920   -2.6882    3.6973 H   0  0  0  0  0  0  0  0  0  0  0  0
    3.5482   -1.9652    1.2401 C   0  0  0  0  0  0  0  0  0  0  0  0
    3.2009   -2.9354    1.5636 H   0  0  0  0  0  0  0  0  0  0  0  0
    3.1226   -1.4316    0.0624 C   0  0  0  0  0  0  0  0  0  0  0  0
    2.4294   -1.9691   -0.5677 H   0  0  0  0  0  0  0  0  0  0  0  0
    3.0721    0.4809   -1.5257 C   0  0  0  0  0  0  0  0  0  0  0  0
    2.3707   -0.0391   -2.1613 H   0  0  0  0  0  0  0  0  0  0  0  0
    3.5060    1.7436   -1.8270 C   0  0  0  0  0  0  0  0  0  0  0  0
    3.1629    2.2809   -2.6968 H   0  0  0  0  0  0  0  0  0  0  0  0
    4.4536    2.3686   -0.9953 C   0  0  0  0  0  0  0  0  0  0  0  0
    4.9093    1.7977    0.1105 N   0  0  0  0  0  0  0  0  0  0  0  0
    4.4519    0.5861    0.4501 C   0  0  0  0  0  0  0  0  0  0  0  0
    3.5442   -0.1439   -0.3525 C   0  0  0  0  0  0  0  0  0  0  0  0
    4.8950    0.0259    1.6939 C   0  0  0  0  0  0  0  0  0  0  0  0
    4.4248   -1.2482    2.0915 C   0  0  0  0  0  0  0  0  0  0  0  0
    7.0254    1.0959    4.4738 C   0  0  0  0  0  0  0  0  0  0  0  0
    7.4717    0.6915    5.5240 O   0  0  0  0  0  0  0  0  0  0  0  0
    7.2617    2.2980    3.9647 O   0  0  0  0  0  0  0  0  0  0  0  0
    4.9091    3.7286   -1.3874 C   0  0  0  0  0  0  0  0  0  0  0  0
    4.4900    4.2877   -2.3771 O   0  0  0  0  0  0  0  0  0  0  0  0
    5.7797    4.2695   -0.5407 O   0  0  0  0  0  0  0  0  0  0  0  0
    8.0732    3.1894    4.7146 C   0  0  0  0  0  0  0  0  0  0  0  0
    7.6911    3.2550    5.7391 H   0  0  0  0  0  0  0  0  0  0  0  0
    7.9633    4.1508    4.2133 H   0  0  0  0  0  0  0  0  0  0  0  0
    9.5368    2.7554    4.7627 C   0  0  0  0  0  0  0  0  0  0  0  0
   10.1100    3.5142    5.3175 H   0  0  0  0  0  0  0  0  0  0  0  0
    9.6215    1.7977    5.2961 H   0  0  0  0  0  0  0  0  0  0  0  0
   10.0233    2.6231    3.4473 O   0  0  0  0  0  0  0  0  0  0  0  0
   11.3424    2.1421    3.3835 C   0  0  0  0  0  0  0  0  0  0  0  0
   11.4444    1.2349    3.9987 H   0  0  0  0  0  0  0  0  0  0  0  0
   12.0475    2.8995    3.7569 H   0  0  0  0  0  0  0  0  0  0  0  0
   11.6798    1.7978    1.9370 C   0  0  0  0  0  0  0  0  0  0  0  0
   12.5585    1.1351    1.9150 H   0  0  0  0  0  0  0  0  0  0  0  0
   10.8250    1.2704    1.4905 H   0  0  0  0  0  0  0  0  0  0  0  0
   11.9516    2.9772    1.2158 O   0  0  0  0  0  0  0  0  0  0  0  0
   12.2305    2.7394   -0.1456 C   0  0  0  0  0  0  0  0  0  0  0  0
   11.4685    2.0802   -0.5825 H   0  0  0  0  0  0  0  0  0  0  0  0
   13.2144    2.2563   -0.2426 H   0  0  0  0  0  0  0  0  0  0  0  0
   12.2083    4.0623   -0.9072 C   0  0  0  0  0  0  0  0  0  0  0  0
   12.4728    4.8761   -0.2174 H   0  0  0  0  0  0  0  0  0  0  0  0
   12.9470    4.0434   -1.7235 H   0  0  0  0  0  0  0  0  0  0  0  0
   10.9173    4.2530   -1.4348 O   0  0  0  0  0  0  0  0  0  0  0  0
   10.7388    5.5032   -2.0535 C   0  0  0  0  0  0  0  0  0  0  0  0
   11.4559    5.6259   -2.8806 H   0  0  0  0  0  0  0  0  0  0  0  0
   10.8985    6.3177   -1.3313 H   0  0  0  0  0  0  0  0  0  0  0  0
    9.3212    5.5854   -2.6092 C   0  0  0  0  0  0  0  0  0  0  0  0
    9.2428    6.4614   -3.2713 H   0  0  0  0  0  0  0  0  0  0  0  0
    9.1112    4.6795   -3.1954 H   0  0  0  0  0  0  0  0  0  0  0  0
    8.4072    5.6983   -1.5453 O   0  0  0  0  0  0  0  0  0  0  0  0
    7.0663    5.8120   -1.9706 C   0  0  0  0  0  0  0  0  0  0  0  0
    6.8428    5.0571   -2.7356 H   0  0  0  0  0  0  0  0  0  0  0  0
    6.9030    6.8054   -2.4142 H   0  0  0  0  0  0  0  0  0  0  0  0
    6.1238    5.6300   -0.7804 C   0  0  0  0  0  0  0  0  0  0  0  0
    6.5974    5.9771    0.1375 H   0  0  0  0  0  0  0  0  0  0  0  0
    5.2027    6.1925   -0.9619 H   0  0  0  0  0  0  0  0  0  0  0  0
    7.7486    2.6087    1.0282 N   0  0  0  0  0  2  0  0  0  0  0  0
    8.4400    3.5178    1.1551 C   0  0  0  0  0  2  0  0  0  0  0  0
    9.2631    4.6670    1.2960 C   0  0  0  0  0  0  0  0  0  0  0  0
    8.8802    5.2846    2.1084 H   0  0  0  0  0  0  0  0  0  0  0  0
    9.2308    5.2211    0.3587 H   0  0  0  0  0  0  0  0  0  0  0  0
   10.2828    4.3536    1.5143 H   0  0  0  0  0  0  0  0  0  0  0  0
  1  3  1  0  0  0  0
  1  2  1  1  0  0  0
  3  4  1  0  0  0  0
  4  5  2  0  0  0  0
  4 23  1  0  0  0  0
  5  6  1  0  0  0  0
  7  8  1  0  0  0  0
  7  5  1  0  0  0  0
  9 10  1  0  0  0  0
  9 22  1  0  0  0  0
 11  9  2  0  0  0  0
 12 11  1  0  0  0  0
 13 20  2  0  0  0  0
 14 13  1  0  0  0  0
 15 13  1  0  0  0  0
 15 17  2  0  0  0  0
 16 15  1  0  0  0  0
 17 18  1  0  0  0  0
 18 19  1  0  0  0  0
 18  1  1  0  0  0  0
 19 21  2  0  0  0  0
 20 11  1  0  0  0  0
 20 19  1  0  0  0  0
 21 22  1  0  0  0  0
 21  3  1  0  0  0  0
 22  7  2  0  0  0  0
 23 24  2  0  0  0  0
 25 23  1  0  0  0  0
 25 29  1  0  0  0  0
 26 17  1  0  0  0  0
 26 28  1  0  0  0  0
 27 26  2  0  0  0  0
 29 32  1  0  0  0  0
 29 30  1  0  0  0  0
 31 29  1  0  0  0  0
 32 34  1  0  0  0  0
 32 33  1  0  0  0  0
 35 32  1  0  0  0  0
 36 35  1  0  0  0  0
 36 38  1  0  0  0  0
 36 37  1  0  0  0  0
 39 36  1  0  0  0  0
 40 39  1  0  0  0  0
 41 39  1  0  0  0  0
 42 39  1  0  0  0  0
 43 42  1  0  0  0  0
 44 43  1  0  0  0  0
 45 43  1  0  0  0  0
 46 47  1  0  0  0  0
 46 43  1  0  0  0  0
 48 46  1  0  0  0  0
 49 46  1  0  0  0  0
 50 49  1  0  0  0  0
 50 52  1  0  0  0  0
 51 50  1  0  0  0  0
 53 50  1  0  0  0  0
 53 56  1  0  0  0  0
 54 53  1  0  0  0  0
 55 53  1  0  0  0  0
 57 56  1  0  0  0  0
 57 60  1  0  0  0  0
 58 57  1  0  0  0  0
 59 57  1  0  0  0  0
 60 28  1  0  0  0  0
 60 61  1  0  0  0  0
 62 60  1  0  0  0  0
 63 64  1  0  0  0  0
 63  1  1  0  0  0  0
 64 65  1  0  0  0  0
 65 68  1  0  0  0  0
 65 66  1  0  0  0  0
 67 65  1  0  0  0  0
M  END
$$$$
