CSD_code = BAKPUZ | q = 0 | S = 0 | Stoichiometry = C17H43ClN3OScSi3 | MND = 5
 OpenBabel04212202003D

 69 70  0  0  1  0  0  0  0  0999 V2000
    5.8736    3.0272    2.7523 Sc  0  0  2  0  0  0  0  0  0  0  0  0
    6.1933    2.9293    0.4819 Cl  0  0  0  0  0  0  0  0  0  0  0  0
    4.5290    4.7721    2.5945 O   0  0  0  0  0  0  0  0  0  0  0  0
    4.3590    1.9429    3.6138 N   0  0  0  0  0  0  0  0  0  0  0  0
    7.2230    4.0929    3.8806 N   0  0  0  0  0  0  0  0  0  0  0  0
    7.1268    1.2121    3.8820 N   0  0  2  0  0  4  0  0  0  0  0  0
    2.7918    1.4910    3.1048 Si  0  0  0  0  0  0  0  0  0  0  0  0
    8.1510    5.4787    3.5020 Si  0  0  0  0  0  0  0  0  0  0  0  0
    7.8519    0.2338    2.5790 Si  0  0  0  0  0  0  0  0  0  0  0  0
    4.8263    1.3980    4.8765 C   0  0  0  0  0  0  0  0  0  0  0  0
    6.0843    0.5337    4.6586 C   0  0  0  0  0  0  0  0  0  0  0  0
    8.0790    1.9402    4.7241 C   0  0  0  0  0  0  0  0  0  0  0  0
    7.6089    3.3643    5.0770 C   0  0  0  0  0  0  0  0  0  0  0  0
    2.5656    2.0776    1.3015 C   0  0  0  0  0  0  0  0  0  0  0  0
    1.3928    2.2572    4.1883 C   0  0  0  0  0  0  0  0  0  0  0  0
    2.4779   -0.4051    3.1606 C   0  0  0  0  0  0  0  0  0  0  0  0
    8.0957    6.8061    4.8953 C   0  0  0  0  0  0  0  0  0  0  0  0
    7.4279    6.2526    1.9149 C   0  0  0  0  0  0  0  0  0  0  0  0
   10.0215    5.1272    3.2156 C   0  0  0  0  0  0  0  0  0  0  0  0
    9.0600    1.3844    1.6543 C   0  0  0  0  0  0  0  0  0  0  0  0
    6.3873   -0.3660    1.5128 C   0  0  0  0  0  0  0  0  0  0  0  0
    8.7989   -1.2542    3.3265 C   0  0  0  0  0  0  0  0  0  0  0  0
    4.0713    5.3810    3.8173 C   0  0  0  0  0  0  0  0  0  0  0  0
    3.0826    6.4807    3.4246 C   0  0  0  0  0  0  0  0  0  0  0  0
    2.6175    6.0179    2.0465 C   0  0  0  0  0  0  0  0  0  0  0  0
    3.9108    5.4432    1.4871 C   0  0  0  0  0  0  0  0  0  0  0  0
    5.0531    2.2092    5.5881 H   0  0  0  0  0  0  0  0  0  0  0  0
    4.0739    0.7588    5.3590 H   0  0  0  0  0  0  0  0  0  0  0  0
    6.4860    0.2105    5.6293 H   0  0  0  0  0  0  0  0  0  0  0  0
    5.7606   -0.3560    4.1132 H   0  0  0  0  0  0  0  0  0  0  0  0
    8.2788    1.3763    5.6473 H   0  0  0  0  0  0  0  0  0  0  0  0
    9.0198    2.0443    4.1794 H   0  0  0  0  0  0  0  0  0  0  0  0
    8.4334    3.8533    5.6139 H   0  0  0  0  0  0  0  0  0  0  0  0
    6.7638    3.3085    5.7824 H   0  0  0  0  0  0  0  0  0  0  0  0
    2.1133    1.2975    0.6999 H   0  0  0  0  0  0  0  0  0  0  0  0
    1.9171    2.9446    1.2382 H   0  0  0  0  0  0  0  0  0  0  0  0
    3.5213    2.3290    0.8450 H   0  0  0  0  0  0  0  0  0  0  0  0
    0.4130    1.9192    3.8657 H   0  0  0  0  0  0  0  0  0  0  0  0
    1.5101    1.9677    5.2289 H   0  0  0  0  0  0  0  0  0  0  0  0
    1.3908    3.3436    4.1528 H   0  0  0  0  0  0  0  0  0  0  0  0
    1.4483   -0.6421    2.9120 H   0  0  0  0  0  0  0  0  0  0  0  0
    2.6713   -0.8060    4.1516 H   0  0  0  0  0  0  0  0  0  0  0  0
    3.1153   -0.9392    2.4617 H   0  0  0  0  0  0  0  0  0  0  0  0
    8.6504    7.6958    4.6152 H   0  0  0  0  0  0  0  0  0  0  0  0
    8.5370    6.4232    5.8106 H   0  0  0  0  0  0  0  0  0  0  0  0
    7.0802    7.1138    5.1308 H   0  0  0  0  0  0  0  0  0  0  0  0
    8.1974    6.7912    1.3739 H   0  0  0  0  0  0  0  0  0  0  0  0
    7.0318    5.4888    1.2484 H   0  0  0  0  0  0  0  0  0  0  0  0
    6.6371    6.9611    2.1395 H   0  0  0  0  0  0  0  0  0  0  0  0
   10.5892    6.0477    3.1208 H   0  0  0  0  0  0  0  0  0  0  0  0
   10.4451    4.5693    4.0466 H   0  0  0  0  0  0  0  0  0  0  0  0
   10.1866    4.5464    2.3123 H   0  0  0  0  0  0  0  0  0  0  0  0
    9.0857    1.1388    0.5978 H   0  0  0  0  0  0  0  0  0  0  0  0
   10.0767    1.3082    2.0296 H   0  0  0  0  0  0  0  0  0  0  0  0
    8.7401    2.4251    1.7357 H   0  0  0  0  0  0  0  0  0  0  0  0
    6.6286   -0.3000    0.4569 H   0  0  0  0  0  0  0  0  0  0  0  0
    6.1188   -1.3980    1.7206 H   0  0  0  0  0  0  0  0  0  0  0  0
    5.5067    0.2597    1.6832 H   0  0  0  0  0  0  0  0  0  0  0  0
    9.2467   -1.8609    2.5470 H   0  0  0  0  0  0  0  0  0  0  0  0
    9.5985   -0.9277    3.9849 H   0  0  0  0  0  0  0  0  0  0  0  0
    8.1422   -1.8980    3.9038 H   0  0  0  0  0  0  0  0  0  0  0  0
    4.9419    5.7650    4.3615 H   0  0  0  0  0  0  0  0  0  0  0  0
    3.5858    4.5953    4.4106 H   0  0  0  0  0  0  0  0  0  0  0  0
    3.5898    7.4430    3.3458 H   0  0  0  0  0  0  0  0  0  0  0  0
    2.2688    6.5730    4.1401 H   0  0  0  0  0  0  0  0  0  0  0  0
    2.2187    6.8240    1.4358 H   0  0  0  0  0  0  0  0  0  0  0  0
    1.8677    5.2320    2.1424 H   0  0  0  0  0  0  0  0  0  0  0  0
    4.5711    6.2466    1.1328 H   0  0  0  0  0  0  0  0  0  0  0  0
    3.7673    4.7155    0.6858 H   0  0  0  0  0  0  0  0  0  0  0  0
  1  2  1  6  0  0  0
  1  4  1  0  0  0  0
  1  5  1  0  0  0  0
  1  6  1  0  0  0  0
  3 23  1  0  0  0  0
  4 10  1  0  0  0  0
  5 13  1  0  0  0  0
  6  9  1  6  0  0  0
  6 11  1  0  0  0  0
  6 12  1  0  0  0  0
  7 16  1  0  0  0  0
  7  4  1  0  0  0  0
  7 15  1  0  0  0  0
  8  5  1  0  0  0  0
  8 17  1  0  0  0  0
  9 22  1  0  0  0  0
 10 28  1  0  0  0  0
 10 27  1  0  0  0  0
 11 10  1  0  0  0  0
 11 29  1  0  0  0  0
 12 13  1  0  0  0  0
 12 31  1  0  0  0  0
 13 33  1  0  0  0  0
 13 34  1  0  0  0  0
 14  7  1  0  0  0  0
 15 39  1  0  0  0  0
 16 42  1  0  0  0  0
 17 46  1  0  0  0  0
 17 45  1  0  0  0  0
 18 49  1  0  0  0  0
 18  8  1  0  0  0  0
 19  8  1  0  0  0  0
 19 51  1  0  0  0  0
 20 55  1  0  0  0  0
 20 54  1  0  0  0  0
 20  9  1  0  0  0  0
 21 58  1  0  0  0  0
 21 57  1  0  0  0  0
 21  9  1  0  0  0  0
 22 61  1  0  0  0  0
 22 60  1  0  0  0  0
 23 62  1  0  0  0  0
 23 63  1  0  0  0  0
 24 23  1  0  0  0  0
 24 65  1  0  0  0  0
 25 67  1  0  0  0  0
 25 24  1  0  0  0  0
 26 25  1  0  0  0  0
 26  3  1  0  0  0  0
 30 11  1  0  0  0  0
 32 12  1  0  0  0  0
 35 14  1  0  0  0  0
 36 14  1  0  0  0  0
 37 14  1  0  0  0  0
 38 15  1  0  0  0  0
 40 15  1  0  0  0  0
 41 16  1  0  0  0  0
 43 16  1  0  0  0  0
 44 17  1  0  0  0  0
 47 18  1  0  0  0  0
 48 18  1  0  0  0  0
 50 19  1  0  0  0  0
 52 19  1  0  0  0  0
 53 20  1  0  0  0  0
 56 21  1  0  0  0  0
 59 22  1  0  0  0  0
 64 24  1  0  0  0  0
 66 25  1  0  0  0  0
 68 26  1  0  0  0  0
 69 26  1  0  0  0  0
M  END
$$$$
