CSD_code = BAKYAQ | q = 0 | S = 0 | Stoichiometry = C36H40Cl2N4Ni | MND = 6
 OpenBabel04212202003D

 83 88  0  0  1  0  0  0  0  0999 V2000
   -1.7309   14.4960   12.2695 Ni  0  0  0  0  0  0  0  0  0  0  0  0
   -1.0847   12.6800   11.3004 Cl  0  0  0  0  0  0  0  0  0  0  0  0
    0.0100   15.0017   12.5176 N   0  0  0  0  0  0  0  0  0  0  0  0
   -1.3366   15.8052   10.1538 N   0  0  0  0  0  0  0  0  0  0  0  0
   -2.1287   16.1061    9.0432 C   0  0  0  0  0  0  0  0  0  0  0  0
    0.5424   15.7765   11.5748 C   0  0  2  0  0  3  0  0  0  0  0  0
    2.6369   15.9793   12.6991 C   0  0  0  0  0  0  0  0  0  0  0  0
    0.7882   17.1205    9.5857 C   0  0  0  0  0  0  0  0  0  0  0  0
    1.8355   16.2885   11.6162 C   0  0  0  0  0  0  0  0  0  0  0  0
   -0.1525   16.2020   10.3664 C   0  0  0  0  0  0  0  0  0  0  0  0
    0.7827   14.7020   13.5573 C   0  0  0  0  0  0  0  0  0  0  0  0
   -3.0059   17.1998    9.0686 C   0  0  0  0  0  0  0  0  0  0  0  0
    2.0842   15.1665   13.6801 C   0  0  0  0  0  0  0  0  0  0  0  0
   -2.1551   15.2042    7.9654 C   0  0  0  0  0  0  0  0  0  0  0  0
   -3.1244   18.0974   10.2651 C   0  0  0  0  0  0  0  0  0  0  0  0
    0.2009   18.5332    9.5263 C   0  0  0  0  0  0  0  0  0  0  0  0
    2.1080   17.1170   10.4049 C   0  0  0  0  0  0  0  0  0  0  0  0
    1.0350   16.6083    8.1664 C   0  0  0  0  0  0  0  0  0  0  0  0
   -2.9861   15.4711    6.8889 C   0  0  0  0  0  0  0  0  0  0  0  0
   -3.8210   17.4290    7.9680 C   0  0  0  0  0  0  0  0  0  0  0  0
   -1.3238   13.9588    7.9855 C   0  0  0  0  0  0  0  0  0  0  0  0
   -3.8019   16.5882    6.8723 C   0  0  0  0  0  0  0  0  0  0  0  0
    2.9289   16.6851    9.8281 H   0  0  0  0  0  0  0  0  0  0  0  0
    2.4051   18.1286   10.6880 H   0  0  0  0  0  0  0  0  0  0  0  0
   -2.9951   14.7842    6.0548 H   0  0  0  0  0  0  0  0  0  0  0  0
   -4.4367   16.7864    6.0216 H   0  0  0  0  0  0  0  0  0  0  0  0
   -4.4851   18.2815    7.9852 H   0  0  0  0  0  0  0  0  0  0  0  0
    0.3558   14.0716   14.3245 H   0  0  0  0  0  0  0  0  0  0  0  0
    2.6570   14.8878   14.5505 H   0  0  0  0  0  0  0  0  0  0  0  0
    3.6469   16.3519   12.7816 H   0  0  0  0  0  0  0  0  0  0  0  0
   -4.1763   18.2530   10.5006 H   0  0  0  0  0  0  0  0  0  0  0  0
   -2.6426   17.6660   11.1377 H   0  0  0  0  0  0  0  0  0  0  0  0
   -2.6857   19.0757   10.0701 H   0  0  0  0  0  0  0  0  0  0  0  0
   -0.6897   18.5441    8.9047 H   0  0  0  0  0  0  0  0  0  0  0  0
   -0.0616   18.8808   10.5233 H   0  0  0  0  0  0  0  0  0  0  0  0
    0.9275   19.2188    9.0940 H   0  0  0  0  0  0  0  0  0  0  0  0
    1.4364   15.5971    8.1897 H   0  0  0  0  0  0  0  0  0  0  0  0
    0.1118   16.6084    7.5924 H   0  0  0  0  0  0  0  0  0  0  0  0
    1.7511   17.2547    7.6620 H   0  0  0  0  0  0  0  0  0  0  0  0
   -0.2987   14.1598    7.6769 H   0  0  0  0  0  0  0  0  0  0  0  0
   -1.2898   13.5340    8.9871 H   0  0  0  0  0  0  0  0  0  0  0  0
   -1.7388   13.2195    7.3043 H   0  0  0  0  0  0  0  0  0  0  0  0
   -2.3770   16.3115   13.2396 Cl  0  0  0  0  0  0  0  0  0  0  0  0
   -3.4719   13.9903   12.0214 N   0  0  0  0  0  0  0  0  0  0  0  0
   -2.1252   13.1867   14.3852 N   0  0  0  0  0  0  0  0  0  0  0  0
   -1.3332   12.8859   15.4958 C   0  0  0  0  0  0  0  0  0  0  0  0
   -4.0043   13.2155   12.9642 C   0  0  1  0  0  3  0  0  0  0  0  0
   -6.0988   13.0128   11.8399 C   0  0  0  0  0  0  0  0  0  0  0  0
   -4.2500   11.8714   14.9533 C   0  0  0  0  0  0  0  0  0  0  0  0
   -5.2974   12.7035   12.9229 C   0  0  0  0  0  0  0  0  0  0  0  0
   -3.3094   12.7899   14.1726 C   0  0  0  0  0  0  0  0  0  0  0  0
   -4.2445   14.2900   10.9817 C   0  0  0  0  0  0  0  0  0  0  0  0
   -0.4559   11.7923   15.4704 C   0  0  0  0  0  0  0  0  0  0  0  0
   -5.5461   13.8255   10.8590 C   0  0  0  0  0  0  0  0  0  0  0  0
   -1.3067   13.7879   16.5736 C   0  0  0  0  0  0  0  0  0  0  0  0
   -0.3374   10.8948   14.2738 C   0  0  0  0  0  0  0  0  0  0  0  0
   -3.6628   10.4587   15.0126 C   0  0  0  0  0  0  0  0  0  0  0  0
   -5.5699   11.8750   14.1341 C   0  0  0  0  0  0  0  0  0  0  0  0
   -4.4969   12.3836   16.3726 C   0  0  0  0  0  0  0  0  0  0  0  0
   -0.4757   13.5210   17.6500 C   0  0  0  0  0  0  0  0  0  0  0  0
    0.3592   11.5631   16.5710 C   0  0  0  0  0  0  0  0  0  0  0  0
   -2.1380   15.0333   16.5534 C   0  0  0  0  0  0  0  0  0  0  0  0
    0.3401   12.4038   17.6666 C   0  0  0  0  0  0  0  0  0  0  0  0
   -6.3907   12.3069   14.7110 H   0  0  0  0  0  0  0  0  0  0  0  0
   -5.8670   10.8634   13.8510 H   0  0  0  0  0  0  0  0  0  0  0  0
   -0.4667   14.2079   18.4842 H   0  0  0  0  0  0  0  0  0  0  0  0
    0.9749   12.2057   18.5174 H   0  0  0  0  0  0  0  0  0  0  0  0
    1.0233   10.7106   16.5537 H   0  0  0  0  0  0  0  0  0  0  0  0
   -3.8176   14.9205   10.2145 H   0  0  0  0  0  0  0  0  0  0  0  0
   -6.1188   14.1043    9.9886 H   0  0  0  0  0  0  0  0  0  0  0  0
   -7.1088   12.6401   11.7574 H   0  0  0  0  0  0  0  0  0  0  0  0
    0.7146   10.7393   14.0383 H   0  0  0  0  0  0  0  0  0  0  0  0
   -0.8192   11.3262   13.4012 H   0  0  0  0  0  0  0  0  0  0  0  0
   -0.7760    9.9164   14.4687 H   0  0  0  0  0  0  0  0  0  0  0  0
   -2.7721   10.4478   15.6342 H   0  0  0  0  0  0  0  0  0  0  0  0
   -3.4003   10.1111   14.0157 H   0  0  0  0  0  0  0  0  0  0  0  0
   -4.3894    9.7731   15.4450 H   0  0  0  0  0  0  0  0  0  0  0  0
   -4.8982   13.3948   16.3494 H   0  0  0  0  0  0  0  0  0  0  0  0
   -3.5737   12.3835   16.9466 H   0  0  0  0  0  0  0  0  0  0  0  0
   -5.2129   11.7372   16.8770 H   0  0  0  0  0  0  0  0  0  0  0  0
   -3.1630   14.8323   16.8621 H   0  0  0  0  0  0  0  0  0  0  0  0
   -2.1721   15.4579   15.5517 H   0  0  0  0  0  0  0  0  0  0  0  0
   -1.7229   15.7726   17.2344 H   0  0  0  0  0  0  0  0  0  0  0  0
  1  3  1  0  0  0  0
  1 43  1  0  0  0  0
  2  1  1  0  0  0  0
  3 11  1  0  0  0  0
  4 10  2  0  0  0  0
  5 12  1  0  0  0  0
  5  4  1  0  0  0  0
  6 10  1  1  0  0  0
  6  9  1  0  0  0  0
  6  3  1  0  0  0  0
  7 30  1  0  0  0  0
  7 13  1  0  0  0  0
  8 10  1  0  0  0  0
  8 17  1  0  0  0  0
  9  7  2  0  0  0  0
 11 13  2  0  0  0  0
 11 28  1  0  0  0  0
 12 15  1  0  0  0  0
 13 29  1  0  0  0  0
 14 21  1  0  0  0  0
 14  5  2  0  0  0  0
 15 31  1  0  0  0  0
 15 32  1  0  0  0  0
 16  8  1  0  0  0  0
 16 35  1  0  0  0  0
 17 24  1  0  0  0  0
 17  9  1  0  0  0  0
 18 37  1  0  0  0  0
 18  8  1  0  0  0  0
 19 14  1  0  0  0  0
 20 27  1  0  0  0  0
 20 12  2  0  0  0  0
 21 41  1  0  0  0  0
 22 19  2  0  0  0  0
 22 20  1  0  0  0  0
 23 17  1  0  0  0  0
 25 19  1  0  0  0  0
 26 22  1  0  0  0  0
 33 15  1  0  0  0  0
 34 16  1  0  0  0  0
 36 16  1  0  0  0  0
 38 18  1  0  0  0  0
 39 18  1  0  0  0  0
 40 21  1  0  0  0  0
 42 21  1  0  0  0  0
 44  1  1  0  0  0  0
 44 47  1  0  0  0  0
 45 46  1  0  0  0  0
 46 55  1  0  0  0  0
 47 50  1  6  0  0  0
 47 51  1  0  0  0  0
 48 50  2  0  0  0  0
 49 57  1  0  0  0  0
 49 59  1  0  0  0  0
 50 58  1  0  0  0  0
 51 45  2  0  0  0  0
 51 49  1  0  0  0  0
 52 44  1  0  0  0  0
 53 46  2  0  0  0  0
 53 61  1  0  0  0  0
 54 52  2  0  0  0  0
 54 48  1  0  0  0  0
 55 60  2  0  0  0  0
 56 74  1  0  0  0  0
 56 53  1  0  0  0  0
 57 77  1  0  0  0  0
 57 75  1  0  0  0  0
 58 64  1  0  0  0  0
 58 49  1  0  0  0  0
 59 80  1  0  0  0  0
 59 79  1  0  0  0  0
 60 63  1  0  0  0  0
 60 66  1  0  0  0  0
 61 63  2  0  0  0  0
 62 55  1  0  0  0  0
 62 81  1  0  0  0  0
 62 83  1  0  0  0  0
 63 67  1  0  0  0  0
 65 58  1  0  0  0  0
 68 61  1  0  0  0  0
 69 52  1  0  0  0  0
 70 54  1  0  0  0  0
 71 48  1  0  0  0  0
 72 56  1  0  0  0  0
 73 56  1  0  0  0  0
 76 57  1  0  0  0  0
 78 59  1  0  0  0  0
 82 62  1  0  0  0  0
M  END
$$$$
