CSD_code = BAMBUM | q = 0 | S = 0 | Stoichiometry = C8H12Cl2Pd | MND = 6
 OpenBabel04212202003D

 23 24  0  0  1  0  0  0  0  0999 V2000
    0.8784    0.1941    2.0056 Pd  0  0  0  0  0  0  0  0  0  0  0  0
    1.8982   -1.6546    1.2985 Cl  0  0  0  0  0  0  0  0  0  0  0  0
   -0.7475   -1.1086    2.7911 Cl  0  0  0  0  0  0  0  0  0  0  0  0
    2.8367    1.2152    1.6985 C   0  0  0  0  0  3  0  0  0  0  0  0
    1.9275    1.7574    0.8369 C   0  0  2  0  0  0  0  0  0  0  0  0
    0.9507    2.8717    1.1540 C   0  0  0  0  0  0  0  0  0  0  0  0
   -0.1098    2.1808    1.9878 C   0  0  2  0  0  0  0  0  0  0  0  0
    0.0117    1.7963    3.2916 C   0  0  0  0  0  3  0  0  0  0  0  0
    1.0767    2.0741    4.3231 C   0  0  0  0  0  0  0  0  0  0  0  0
    2.4370    2.6227    3.8861 C   0  0  0  0  0  0  0  0  0  0  0  0
    3.2816    1.6350    3.0774 C   0  0  0  0  0  0  0  0  0  0  0  0
    3.5333    0.4984    1.2621 H   0  0  0  0  0  0  0  0  0  0  0  0
    1.9551    1.4269   -0.2016 H   0  0  0  0  0  0  0  0  0  0  0  0
    0.5100    3.2549    0.2335 H   0  0  0  0  0  0  0  0  0  0  0  0
    1.4181    3.7062    1.6726 H   0  0  0  0  0  0  0  0  0  0  0  0
   -1.0851    2.0625    1.5156 H   0  0  0  0  0  0  0  0  0  0  0  0
   -0.8963    1.4124    3.7579 H   0  0  0  0  0  0  0  0  0  0  0  0
    1.2400    1.1331    4.8729 H   0  0  0  0  0  0  0  0  0  0  0  0
    0.6384    2.7766    5.0416 H   0  0  0  0  0  0  0  0  0  0  0  0
    2.9972    2.8373    4.8008 H   0  0  0  0  0  0  0  0  0  0  0  0
    2.3296    3.5712    3.3642 H   0  0  0  0  0  0  0  0  0  0  0  0
    3.3985    0.7126    3.6679 H   0  0  0  0  0  0  0  0  0  0  0  0
    4.2873    2.0566    2.9644 H   0  0  0  0  0  0  0  0  0  0  0  0
  1  3  1  0  0  0  0
  2  1  1  0  0  0  0
  4 11  1  0  0  0  0
  5 13  1  6  0  0  0
  5  6  1  0  0  0  0
  5  4  1  0  0  0  0
  5  1  1  0  0  0  0
  6 15  1  0  0  0  0
  6  7  1  0  0  0  0
  7 16  1  6  0  0  0
  7  1  1  0  0  0  0
  7  8  1  0  0  0  0
  8 17  1  0  0  0  0
  8  9  1  0  0  0  0
  9 18  1  0  0  0  0
  9 19  1  0  0  0  0
 10  9  1  0  0  0  0
 10 20  1  0  0  0  0
 11 22  1  0  0  0  0
 11 10  1  0  0  0  0
 12  4  1  0  0  0  0
 14  6  1  0  0  0  0
 21 10  1  0  0  0  0
 23 11  1  0  0  0  0
M  END
$$$$
