CSD_code = BAMCOK | q = 0 | S = 0 | Stoichiometry = C31H53INiP2S | MND = 4
 OpenBabel04212202003D

 89 94  0  0  0  0  0  0  0  0999 V2000
    9.7434    0.5618    3.8997 I   0  0  0  0  0  0  0  0  0  0  0  0
    7.7964    0.4457    5.3938 Ni  0  0  0  0  0  0  0  0  0  0  0  0
    9.6819   -0.5050    7.9458 S   0  0  0  0  0  0  0  0  0  0  0  0
    6.3247    0.3830    3.7666 P   0  0  0  0  0  4  0  0  0  0  0  0
    6.2398   -0.1134    6.7839 P   0  0  0  0  0  4  0  0  0  0  0  0
    8.9221    3.1777    6.5256 C   0  0  0  0  0  0  0  0  0  0  0  0
    8.4797    3.9308    7.1787 H   0  0  0  0  0  0  0  0  0  0  0  0
    9.7979    3.6121    6.0422 H   0  0  0  0  0  0  0  0  0  0  0  0
    8.1987    2.9085    5.7428 H   0  0  0  0  0  0  0  0  0  0  0  0
    4.6000   -0.1833    5.9052 C   0  0  0  0  0  0  0  0  0  0  0  0
    3.9819   -0.9667    6.3523 H   0  0  0  0  0  0  0  0  0  0  0  0
    4.1070    0.7705    6.1126 H   0  0  0  0  0  0  0  0  0  0  0  0
    6.6455   -1.8696    7.2116 C   0  0  0  0  0  0  0  0  0  0  0  0
    7.4017   -1.7837    8.0027 H   0  0  0  0  0  0  0  0  0  0  0  0
    6.5780    0.3193    9.5764 C   0  0  0  0  0  0  0  0  0  0  0  0
    6.5923   -0.7579    9.7511 H   0  0  0  0  0  0  0  0  0  0  0  0
    7.5994    0.6460    9.3743 H   0  0  0  0  0  0  0  0  0  0  0  0
    5.6877    0.6603    8.3834 C   0  0  0  0  0  0  0  0  0  0  0  0
    4.6699    0.2896    8.5752 H   0  0  0  0  0  0  0  0  0  0  0  0
    4.7518   -0.3847    4.4001 C   0  0  0  0  0  0  0  0  0  0  0  0
    3.8909    0.0184    3.8584 H   0  0  0  0  0  0  0  0  0  0  0  0
    4.8173   -1.4532    4.1762 H   0  0  0  0  0  0  0  0  0  0  0  0
    5.7560    2.0597    3.1849 C   0  0  0  0  0  0  0  0  0  0  0  0
    4.9213    1.9139    2.4863 H   0  0  0  0  0  0  0  0  0  0  0  0
    5.2629    2.8894    4.3702 C   0  0  0  0  0  0  0  0  0  0  0  0
    4.3946    2.4091    4.8275 H   0  0  0  0  0  0  0  0  0  0  0  0
    6.0560    2.9481    5.1233 H   0  0  0  0  0  0  0  0  0  0  0  0
    7.3260   -2.5312    6.0128 C   0  0  0  0  0  0  0  0  0  0  0  0
    6.6009   -2.6759    5.2080 H   0  0  0  0  0  0  0  0  0  0  0  0
    8.1385   -1.8799    5.6434 H   0  0  0  0  0  0  0  0  0  0  0  0
    7.1166   -1.9408    2.4368 C   0  0  0  0  0  0  0  0  0  0  0  0
    6.3144   -2.5402    2.8777 H   0  0  0  0  0  0  0  0  0  0  0  0
    7.9573   -1.9189    3.1337 H   0  0  0  0  0  0  0  0  0  0  0  0
    8.9273    0.6885    6.9115 C   0  0  0  0  0  0  0  0  0  0  0  0
    7.9014   -3.8808    6.4211 C   0  0  0  0  0  0  0  0  0  0  0  0
    8.6690   -3.7273    7.1825 H   0  0  0  0  0  0  0  0  0  0  0  0
    8.3734   -4.3601    5.5613 H   0  0  0  0  0  0  0  0  0  0  0  0
    7.5594   -2.5979    1.1338 C   0  0  0  0  0  0  0  0  0  0  0  0
    8.3982   -2.0367    0.7179 H   0  0  0  0  0  0  0  0  0  0  0  0
    7.9033   -3.6146    1.3334 H   0  0  0  0  0  0  0  0  0  0  0  0
    5.6490    2.1783    8.1914 C   0  0  0  0  0  0  0  0  0  0  0  0
    5.0006    2.4426    7.3515 H   0  0  0  0  0  0  0  0  0  0  0  0
    6.6598    2.5209    7.9591 H   0  0  0  0  0  0  0  0  0  0  0  0
    5.5081   -2.7492    7.7193 C   0  0  0  0  0  0  0  0  0  0  0  0
    4.9964   -2.2784    8.5628 H   0  0  0  0  0  0  0  0  0  0  0  0
    4.7744   -2.9196    6.9268 H   0  0  0  0  0  0  0  0  0  0  0  0
    6.0737    1.0202   10.8358 C   0  0  0  0  0  0  0  0  0  0  0  0
    5.0658    0.6676   11.0719 H   0  0  0  0  0  0  0  0  0  0  0  0
    6.7222    0.7646   11.6759 H   0  0  0  0  0  0  0  0  0  0  0  0
    5.4507   -0.5500    1.1929 C   0  0  0  0  0  0  0  0  0  0  0  0
    5.0923    0.4574    0.9747 H   0  0  0  0  0  0  0  0  0  0  0  0
    4.6227   -1.1203    1.6222 H   0  0  0  0  0  0  0  0  0  0  0  0
    6.6263   -0.5171    2.1676 C   0  0  0  0  0  0  0  0  0  0  0  0
    7.4596    0.0265    1.7020 H   0  0  0  0  0  0  0  0  0  0  0  0
    6.0835   -4.0996    8.1464 C   0  0  0  0  0  0  0  0  0  0  0  0
    6.7928   -3.9483    8.9633 H   0  0  0  0  0  0  0  0  0  0  0  0
    5.2805   -4.7424    8.5146 H   0  0  0  0  0  0  0  0  0  0  0  0
    6.0288    5.0014    3.2437 C   0  0  0  0  0  0  0  0  0  0  0  0
    6.8627    5.1103    3.9409 H   0  0  0  0  0  0  0  0  0  0  0  0
    5.7227    6.0006    2.9281 H   0  0  0  0  0  0  0  0  0  0  0  0
    4.8691    4.2997    3.9409 C   0  0  0  0  0  0  0  0  0  0  0  0
    4.0179    4.2421    3.2567 H   0  0  0  0  0  0  0  0  0  0  0  0
    4.5536    4.8717    4.8170 H   0  0  0  0  0  0  0  0  0  0  0  0
   10.4744    0.7177    8.8686 C   0  0  0  0  0  0  0  0  0  0  0  0
   11.0999    0.4277    9.6889 H   0  0  0  0  0  0  0  0  0  0  0  0
   10.1918    1.9562    8.4031 C   0  0  0  0  0  0  0  0  0  0  0  0
   10.5899    2.8630    8.8250 H   0  0  0  0  0  0  0  0  0  0  0  0
    6.4802    4.1828    2.0395 C   0  0  0  0  0  0  0  0  0  0  0  0
    5.6601    4.1113    1.3196 H   0  0  0  0  0  0  0  0  0  0  0  0
    7.3189    4.6749    1.5442 H   0  0  0  0  0  0  0  0  0  0  0  0
    5.8899   -1.2094   -0.1142 C   0  0  0  0  0  0  0  0  0  0  0  0
    5.0485   -1.2363   -0.8106 H   0  0  0  0  0  0  0  0  0  0  0  0
    6.6824   -0.6105   -0.5684 H   0  0  0  0  0  0  0  0  0  0  0  0
    6.4076   -2.6225    0.1339 C   0  0  0  0  0  0  0  0  0  0  0  0
    5.5969   -3.2427    0.5260 H   0  0  0  0  0  0  0  0  0  0  0  0
    6.7393   -3.0652   -0.8070 H   0  0  0  0  0  0  0  0  0  0  0  0
    6.7955   -4.7756    6.9766 C   0  0  0  0  0  0  0  0  0  0  0  0
    6.0700   -4.9883    6.1867 H   0  0  0  0  0  0  0  0  0  0  0  0
    7.2179   -5.7274    7.3034 H   0  0  0  0  0  0  0  0  0  0  0  0
    6.9021    2.7848    2.4781 C   0  0  0  0  0  0  0  0  0  0  0  0
    7.2345    2.2155    1.6080 H   0  0  0  0  0  0  0  0  0  0  0  0
    7.7512    2.8696    3.1610 H   0  0  0  0  0  0  0  0  0  0  0  0
    6.0486    2.5311   10.6361 C   0  0  0  0  0  0  0  0  0  0  0  0
    7.0638    2.8863   10.4454 H   0  0  0  0  0  0  0  0  0  0  0  0
    5.6833    3.0235   11.5394 H   0  0  0  0  0  0  0  0  0  0  0  0
    5.1571    2.8836    9.4508 C   0  0  0  0  0  0  0  0  0  0  0  0
    5.1554    3.9638    9.2893 H   0  0  0  0  0  0  0  0  0  0  0  0
    4.1295    2.5764    9.6642 H   0  0  0  0  0  0  0  0  0  0  0  0
    9.3177    1.9452    7.2829 C   0  0  0  0  0  0  0  0  0  0  0  0
  1  2  1  0  0  0  0
  2  5  1  0  0  0  0
  2 34  1  0  0  0  0
  3 64  1  0  0  0  0
  4 20  1  0  0  0  0
  4  2  1  0  0  0  0
  5 13  1  0  0  0  0
  5 18  1  0  0  0  0
  6  7  1  0  0  0  0
  6 89  1  0  0  0  0
  8  6  1  0  0  0  0
  9  6  1  0  0  0  0
 10 12  1  0  0  0  0
 10 11  1  0  0  0  0
 10  5  1  0  0  0  0
 13 44  1  0  0  0  0
 13 14  1  0  0  0  0
 15 16  1  0  0  0  0
 15 47  1  0  0  0  0
 17 15  1  0  0  0  0
 18 19  1  0  0  0  0
 18 15  1  0  0  0  0
 20 10  1  0  0  0  0
 21 20  1  0  0  0  0
 22 20  1  0  0  0  0
 23  4  1  0  0  0  0
 23 25  1  0  0  0  0
 24 23  1  0  0  0  0
 25 26  1  0  0  0  0
 25 27  1  0  0  0  0
 28 35  1  0  0  0  0
 28 13  1  0  0  0  0
 29 28  1  0  0  0  0
 30 28  1  0  0  0  0
 31 32  1  0  0  0  0
 31 33  1  0  0  0  0
 34 89  2  0  0  0  0
 34  3  1  0  0  0  0
 35 77  1  0  0  0  0
 35 36  1  0  0  0  0
 37 35  1  0  0  0  0
 38 40  1  0  0  0  0
 38 31  1  0  0  0  0
 39 38  1  0  0  0  0
 41 18  1  0  0  0  0
 41 86  1  0  0  0  0
 42 41  1  0  0  0  0
 43 41  1  0  0  0  0
 44 55  1  0  0  0  0
 44 45  1  0  0  0  0
 46 44  1  0  0  0  0
 47 48  1  0  0  0  0
 47 49  1  0  0  0  0
 50 52  1  0  0  0  0
 50 53  1  0  0  0  0
 51 50  1  0  0  0  0
 53 31  1  0  0  0  0
 53  4  1  0  0  0  0
 54 53  1  0  0  0  0
 55 57  1  0  0  0  0
 55 56  1  0  0  0  0
 58 61  1  0  0  0  0
 58 59  1  0  0  0  0
 60 58  1  0  0  0  0
 61 25  1  0  0  0  0
 61 63  1  0  0  0  0
 62 61  1  0  0  0  0
 64 65  1  0  0  0  0
 66 67  1  0  0  0  0
 66 64  2  0  0  0  0
 68 80  1  0  0  0  0
 68 58  1  0  0  0  0
 69 68  1  0  0  0  0
 70 68  1  0  0  0  0
 71 74  1  0  0  0  0
 71 50  1  0  0  0  0
 72 71  1  0  0  0  0
 73 71  1  0  0  0  0
 74 75  1  0  0  0  0
 74 38  1  0  0  0  0
 76 74  1  0  0  0  0
 77 79  1  0  0  0  0
 77 55  1  0  0  0  0
 78 77  1  0  0  0  0
 80 82  1  0  0  0  0
 80 23  1  0  0  0  0
 81 80  1  0  0  0  0
 83 47  1  0  0  0  0
 83 85  1  0  0  0  0
 84 83  1  0  0  0  0
 86 88  1  0  0  0  0
 86 83  1  0  0  0  0
 87 86  1  0  0  0  0
 89 66  1  0  0  0  0
M  END
$$$$
