CSD_code = BAMVUJ | q = 0 | S = 0 | Stoichiometry = C36H30As2AuI | MND = 3
 OpenBabel04212202003D

 70 73  0  0  0  0  0  0  0  0999 V2000
   -1.0111    3.3014    5.2181 I   0  0  0  0  0  0  0  0  0  0  0  0
   -2.6464    1.5377    4.2936 Au  0  0  0  0  0  0  0  0  0  0  0  0
    0.5227    0.5558    3.4429 As  0  0  0  0  0  0  0  0  0  0  0  0
    1.0333   -1.0000    2.3626 C   0  0  0  0  0  0  0  0  0  0  0  0
    1.4754   -0.7127    1.0749 C   0  0  0  0  0  0  0  0  0  0  0  0
    1.5052    0.3266    0.7536 H   0  0  0  0  0  0  0  0  0  0  0  0
    1.8805   -1.7189    0.2181 C   0  0  0  0  0  0  0  0  0  0  0  0
    2.2297   -1.4791   -0.7769 H   0  0  0  0  0  0  0  0  0  0  0  0
    1.8355   -3.0383    0.6384 C   0  0  0  0  0  0  0  0  0  0  0  0
    2.1466   -3.8306   -0.0272 H   0  0  0  0  0  0  0  0  0  0  0  0
    1.3932   -3.3377    1.9151 C   0  0  0  0  0  0  0  0  0  0  0  0
    1.3611   -4.3662    2.2482 H   0  0  0  0  0  0  0  0  0  0  0  0
    0.9970   -2.3243    2.7712 C   0  0  0  0  0  0  0  0  0  0  0  0
    0.6595   -2.5740    3.7711 H   0  0  0  0  0  0  0  0  0  0  0  0
    2.3305    0.9624    4.0540 C   0  0  0  0  0  0  0  0  0  0  0  0
    2.7463    2.2866    4.1103 C   0  0  0  0  0  0  0  0  0  0  0  0
    2.0532    3.0724    3.8311 H   0  0  0  0  0  0  0  0  0  0  0  0
    4.0252    2.6007    4.5382 C   0  0  0  0  0  0  0  0  0  0  0  0
    4.3384    3.6336    4.5864 H   0  0  0  0  0  0  0  0  0  0  0  0
    4.8997    1.5926    4.9055 C   0  0  0  0  0  0  0  0  0  0  0  0
    5.8990    1.8355    5.2376 H   0  0  0  0  0  0  0  0  0  0  0  0
    4.4930    0.2692    4.8477 C   0  0  0  0  0  0  0  0  0  0  0  0
    5.1740   -0.5206    5.1341 H   0  0  0  0  0  0  0  0  0  0  0  0
    3.2149   -0.0424    4.4240 C   0  0  0  0  0  0  0  0  0  0  0  0
    2.9001   -1.0798    4.3802 H   0  0  0  0  0  0  0  0  0  0  0  0
   -0.1254   -0.3696    5.0311 C   0  0  0  0  0  0  0  0  0  0  0  0
   -1.2230   -1.2237    4.9395 C   0  0  0  0  0  0  0  0  0  0  0  0
   -1.6627   -1.4319    3.9580 H   0  0  0  0  0  0  0  0  0  0  0  0
   -1.7395   -1.8394    6.0667 C   0  0  0  0  0  0  0  0  0  0  0  0
   -2.5724   -2.5243    5.9791 H   0  0  0  0  0  0  0  0  0  0  0  0
   -1.1843   -1.5825    7.3097 C   0  0  0  0  0  0  0  0  0  0  0  0
   -1.5924   -2.0575    8.1901 H   0  0  0  0  0  0  0  0  0  0  0  0
   -0.1112   -0.7149    7.4174 C   0  0  0  0  0  0  0  0  0  0  0  0
    0.3177   -0.5013    8.3858 H   0  0  0  0  0  0  0  0  0  0  0  0
    0.4138   -0.1161    6.2857 C   0  0  0  0  0  0  0  0  0  0  0  0
    1.2456    0.5720    6.3775 H   0  0  0  0  0  0  0  0  0  0  0  0
   -4.1296   -0.0297    3.3564 As  0  0  0  0  0  0  0  0  0  0  0  0
   -4.7545   -1.5022    4.4267 C   0  0  0  0  0  0  0  0  0  0  0  0
   -5.3870   -1.1791    5.6249 C   0  0  0  0  0  0  0  0  0  0  0  0
   -5.5325   -0.1302    5.8781 H   0  0  0  0  0  0  0  0  0  0  0  0
   -5.8203   -2.1773    6.4777 C   0  0  0  0  0  0  0  0  0  0  0  0
   -6.3127   -1.9227    7.4047 H   0  0  0  0  0  0  0  0  0  0  0  0
   -5.6145   -3.5068    6.1415 C   0  0  0  0  0  0  0  0  0  0  0  0
   -5.9507   -4.2884    6.8064 H   0  0  0  0  0  0  0  0  0  0  0  0
   -4.9706   -3.8345    4.9597 C   0  0  0  0  0  0  0  0  0  0  0  0
   -4.8007   -4.8712    4.7061 H   0  0  0  0  0  0  0  0  0  0  0  0
   -4.5350   -2.8353    4.1049 C   0  0  0  0  0  0  0  0  0  0  0  0
   -4.0111   -3.0894    3.1876 H   0  0  0  0  0  0  0  0  0  0  0  0
   -5.7715    0.8399    2.8363 C   0  0  0  0  0  0  0  0  0  0  0  0
   -5.6550    2.1186    2.3006 C   0  0  0  0  0  0  0  0  0  0  0  0
   -4.6675    2.5738    2.2325 H   0  0  0  0  0  0  0  0  0  0  0  0
   -6.7774    2.8003    1.8683 C   0  0  0  0  0  0  0  0  0  0  0  0
   -6.6818    3.7926    1.4529 H   0  0  0  0  0  0  0  0  0  0  0  0
   -8.0256    2.2080    1.9779 C   0  0  0  0  0  0  0  0  0  0  0  0
   -8.9049    2.7393    1.6457 H   0  0  0  0  0  0  0  0  0  0  0  0
   -8.1492    0.9389    2.5186 C   0  0  0  0  0  0  0  0  0  0  0  0
   -9.1242    0.4817    2.6082 H   0  0  0  0  0  0  0  0  0  0  0  0
   -7.0248    0.2537    2.9460 C   0  0  0  0  0  0  0  0  0  0  0  0
   -7.1220   -0.7382    3.3788 H   0  0  0  0  0  0  0  0  0  0  0  0
   -3.5949   -0.8164    1.6771 C   0  0  0  0  0  0  0  0  0  0  0  0
   -2.3218   -0.5736    1.1779 C   0  0  0  0  0  0  0  0  0  0  0  0
   -1.6381    0.0626    1.7441 H   0  0  0  0  0  0  0  0  0  0  0  0
   -1.9269   -1.1289   -0.0272 C   0  0  0  0  0  0  0  0  0  0  0  0
   -0.9306   -0.9468   -0.4013 H   0  0  0  0  0  0  0  0  0  0  0  0
   -2.8107   -1.9195   -0.7422 C   0  0  0  0  0  0  0  0  0  0  0  0
   -2.5041   -2.3568   -1.6806 H   0  0  0  0  0  0  0  0  0  0  0  0
   -4.0916   -2.1462   -0.2614 C   0  0  0  0  0  0  0  0  0  0  0  0
   -4.7828   -2.7536   -0.8280 H   0  0  0  0  0  0  0  0  0  0  0  0
   -4.4848   -1.5953    0.9446 C   0  0  0  0  0  0  0  0  0  0  0  0
   -5.4891   -1.7629    1.3246 H   0  0  0  0  0  0  0  0  0  0  0  0
  2  1  1  0  0  0  0
  3 15  1  0  0  0  0
  3 26  1  0  0  0  0
  4 13  1  0  0  0  0
  4  3  1  0  0  0  0
  5  4  2  0  0  0  0
  6  5  1  0  0  0  0
  7  9  2  0  0  0  0
  7  5  1  0  0  0  0
  8  7  1  0  0  0  0
  9 11  1  0  0  0  0
 10  9  1  0  0  0  0
 11 12  1  0  0  0  0
 11 13  2  0  0  0  0
 13 14  1  0  0  0  0
 15 16  2  0  0  0  0
 15 24  1  0  0  0  0
 16 18  1  0  0  0  0
 17 16  1  0  0  0  0
 18 19  1  0  0  0  0
 18 20  2  0  0  0  0
 20 21  1  0  0  0  0
 22 20  1  0  0  0  0
 22 23  1  0  0  0  0
 24 22  2  0  0  0  0
 25 24  1  0  0  0  0
 26 35  1  0  0  0  0
 27 26  2  0  0  0  0
 27 29  1  0  0  0  0
 28 27  1  0  0  0  0
 29 31  2  0  0  0  0
 30 29  1  0  0  0  0
 31 33  1  0  0  0  0
 31 32  1  0  0  0  0
 33 34  1  0  0  0  0
 35 36  1  0  0  0  0
 35 33  2  0  0  0  0
 37 38  1  0  0  0  0
 38 39  1  0  0  0  0
 39 40  1  0  0  0  0
 39 41  2  0  0  0  0
 41 42  1  0  0  0  0
 43 41  1  0  0  0  0
 43 44  1  0  0  0  0
 45 43  2  0  0  0  0
 46 45  1  0  0  0  0
 47 38  2  0  0  0  0
 47 45  1  0  0  0  0
 48 47  1  0  0  0  0
 49 58  1  0  0  0  0
 49 37  1  0  0  0  0
 50 49  2  0  0  0  0
 51 50  1  0  0  0  0
 52 54  2  0  0  0  0
 52 50  1  0  0  0  0
 53 52  1  0  0  0  0
 54 56  1  0  0  0  0
 55 54  1  0  0  0  0
 56 57  1  0  0  0  0
 56 58  2  0  0  0  0
 58 59  1  0  0  0  0
 60 37  1  0  0  0  0
 61 60  1  0  0  0  0
 61 62  1  0  0  0  0
 63 61  2  0  0  0  0
 64 63  1  0  0  0  0
 65 67  2  0  0  0  0
 65 63  1  0  0  0  0
 66 65  1  0  0  0  0
 67 69  1  0  0  0  0
 68 67  1  0  0  0  0
 69 70  1  0  0  0  0
 69 60  2  0  0  0  0
M  END
$$$$
