CSD_code = BAMZAR | q = 1 | S = 0 | Stoichiometry = C8H20BrN4OZn(1+) | MND = 5
 OpenBabel04212202003D

 35 38  0  0  1  0  0  0  0  0999 V2000
    6.4360    4.9430    8.8948 Br  0  0  0  0  0  0  0  0  0  0  0  0
    6.6275    5.3506    6.6506 Zn  0  0  0  0  0  0  0  0  0  0  0  0
    6.0038    8.1578    7.7093 O   0  0  0  0  0  0  0  0  0  0  0  0
    6.5536    7.5575    6.5446 N   0  0  2  0  0  4  0  0  0  0  0  0
    4.7550    5.5949    5.5701 N   0  0  1  0  0  4  0  0  0  0  0  0
    6.9124    3.8112    5.1251 N   0  0  1  0  0  4  0  0  0  0  0  0
    8.7036    5.7866    6.0888 N   0  0  1  0  0  4  0  0  0  0  0  0
    5.6401    7.8922    5.4499 C   0  0  0  0  0  0  0  0  0  0  0  0
    4.3899    7.0192    5.5531 C   0  0  0  0  0  0  0  0  0  0  0  0
    4.9561    5.0134    4.2388 C   0  0  0  0  0  0  0  0  0  0  0  0
    5.6585    3.6613    4.3757 C   0  0  0  0  0  0  0  0  0  0  0  0
    8.0506    4.2335    4.3008 C   0  0  0  0  0  0  0  0  0  0  0  0
    9.1852    4.7192    5.2042 C   0  0  0  0  0  0  0  0  0  0  0  0
    8.7312    7.1239    5.4819 C   0  0  0  0  0  0  0  0  0  0  0  0
    7.9086    8.0896    6.3329 C   0  0  0  0  0  0  0  0  0  0  0  0
    6.1141    7.5470    8.4606 H   0  0  0  0  0  0  0  0  0  0  0  0
    5.3530    8.9464    5.5146 H   0  0  0  0  0  0  0  0  0  0  0  0
    6.1558    7.7209    4.5047 H   0  0  0  0  0  0  0  0  0  0  0  0
    3.9952    5.0826    6.0166 H   0  0  0  0  0  0  0  0  0  0  0  0
    3.7105    7.2488    4.7261 H   0  0  0  0  0  0  0  0  0  0  0  0
    3.8874    7.2561    6.4932 H   0  0  0  0  0  0  0  0  0  0  0  0
    7.1503    2.9107    5.5371 H   0  0  0  0  0  0  0  0  0  0  0  0
    4.0085    4.8770    3.7068 H   0  0  0  0  0  0  0  0  0  0  0  0
    5.5754    5.6960    3.6545 H   0  0  0  0  0  0  0  0  0  0  0  0
    9.3016    5.8152    6.9140 H   0  0  0  0  0  0  0  0  0  0  0  0
    5.8349    3.2353    3.3823 H   0  0  0  0  0  0  0  0  0  0  0  0
    5.0085    2.9807    4.9306 H   0  0  0  0  0  0  0  0  0  0  0  0
    8.4149    3.4190    3.6659 H   0  0  0  0  0  0  0  0  0  0  0  0
    7.7228    5.0470    3.6518 H   0  0  0  0  0  0  0  0  0  0  0  0
   10.0270    5.0548    4.5891 H   0  0  0  0  0  0  0  0  0  0  0  0
    9.5242    3.8870    5.8256 H   0  0  0  0  0  0  0  0  0  0  0  0
    9.7539    7.5059    5.3916 H   0  0  0  0  0  0  0  0  0  0  0  0
    8.3080    7.0561    4.4780 H   0  0  0  0  0  0  0  0  0  0  0  0
    7.8790    9.0808    5.8698 H   0  0  0  0  0  0  0  0  0  0  0  0
    8.3670    8.1894    7.3204 H   0  0  0  0  0  0  0  0  0  0  0  0
  2  1  1  0  0  0  0
  3 16  1  0  0  0  0
  4  2  1  0  0  0  0
  4  3  1  1  0  0  0
  5 19  1  1  0  0  0
  5  2  1  0  0  0  0
  6 22  1  1  0  0  0
  6  2  1  0  0  0  0
  7  2  1  0  0  0  0
  7 25  1  1  0  0  0
  8 17  1  0  0  0  0
  8  9  1  0  0  0  0
  8  4  1  0  0  0  0
  9  5  1  0  0  0  0
  9 21  1  0  0  0  0
 10 11  1  0  0  0  0
 10  5  1  0  0  0  0
 11 27  1  0  0  0  0
 11  6  1  0  0  0  0
 12  6  1  0  0  0  0
 12 13  1  0  0  0  0
 13 31  1  0  0  0  0
 13  7  1  0  0  0  0
 14  7  1  0  0  0  0
 14 15  1  0  0  0  0
 15  4  1  0  0  0  0
 15 35  1  0  0  0  0
 18  8  1  0  0  0  0
 20  9  1  0  0  0  0
 23 10  1  0  0  0  0
 24 10  1  0  0  0  0
 26 11  1  0  0  0  0
 28 12  1  0  0  0  0
 29 12  1  0  0  0  0
 30 13  1  0  0  0  0
 32 14  1  0  0  0  0
 33 14  1  0  0  0  0
 34 15  1  0  0  0  0
M  END
$$$$
