CSD_code = BAPCAW | q = 0 | S = 0 | Stoichiometry = C44H32ClF12O2P3Pd | MND = 4
 OpenBabel04212202003D

 95103  0  0  0  0  0  0  0  0999 V2000
   -7.8519   -1.6313   -7.3119 Pd  0  0  0  0  0  0  0  0  0  0  0  0
   -8.3005   -1.2119   -5.1206 Cl  0  0  0  0  0  0  0  0  0  0  0  0
   -9.3817   -3.2499   -7.0132 P   0  0  0  0  0  0  0  0  0  0  0  0
   -7.3405   -2.0767   -9.4563 P   0  0  0  0  0  4  0  0  0  0  0  0
   -6.5318    0.1839   -7.5662 P   0  0  0  0  0  4  0  0  0  0  0  0
   -6.3120   -3.3397   -5.8690 F   0  0  0  0  0  0  0  0  0  0  0  0
   -5.3074   -5.0807   -6.6242 F   0  0  0  0  0  0  0  0  0  0  0  0
   -5.9096   -5.0097   -4.5683 F   0  0  0  0  0  0  0  0  0  0  0  0
   -6.7675   -7.4096   -5.6814 F   0  0  0  0  0  0  0  0  0  0  0  0
   -8.7164   -7.3594   -6.5791 F   0  0  0  0  0  0  0  0  0  0  0  0
   -6.9856   -6.9311   -7.7651 F   0  0  0  0  0  0  0  0  0  0  0  0
  -10.0292   -0.7511   -8.9412 F   0  0  0  0  0  0  0  0  0  0  0  0
  -11.9467   -0.9111   -9.8992 F   0  0  0  0  0  0  0  0  0  0  0  0
  -11.6911    0.4174   -8.2394 F   0  0  0  0  0  0  0  0  0  0  0  0
  -12.9746   -0.7157   -6.1379 F   0  0  0  0  0  0  0  0  0  0  0  0
  -13.4796   -2.7800   -6.4217 F   0  0  0  0  0  0  0  0  0  0  0  0
  -13.9847   -1.3324   -7.9278 F   0  0  0  0  0  0  0  0  0  0  0  0
   -8.0756   -4.5648   -7.3377 O   0  0  0  0  0  0  0  0  0  0  0  0
  -10.6936   -1.9689   -6.7684 O   0  0  0  0  0  0  0  0  0  0  0  0
   -9.6195   -4.0416   -5.3977 C   0  0  0  0  0  0  0  0  0  0  0  0
  -10.5854   -3.7154   -4.4592 C   0  0  0  0  0  0  0  0  0  0  0  0
  -10.6076   -4.3890   -3.2508 C   0  0  0  0  0  0  0  0  0  0  0  0
   -9.6718   -5.3724   -2.9716 C   0  0  0  0  0  0  0  0  0  0  0  0
   -8.6924   -5.6952   -3.8973 C   0  0  0  0  0  0  0  0  0  0  0  0
   -8.6776   -5.0216   -5.1051 C   0  0  0  0  0  0  0  0  0  0  0  0
   -7.6771   -5.2419   -6.2202 C   0  0  0  0  0  0  0  0  0  0  0  0
   -6.2913   -4.6860   -5.8056 C   0  0  0  0  0  0  0  0  0  0  0  0
   -7.5283   -6.7418   -6.5588 C   0  0  0  0  0  0  0  0  0  0  0  0
  -10.5555   -4.0459   -8.1669 C   0  0  0  0  0  0  0  0  0  0  0  0
  -10.4542   -5.3114   -8.7213 C   0  0  0  0  0  0  0  0  0  0  0  0
  -11.4537   -5.7724   -9.5599 C   0  0  0  0  0  0  0  0  0  0  0  0
  -12.5398   -4.9727   -9.8735 C   0  0  0  0  0  0  0  0  0  0  0  0
  -12.6553   -3.7049   -9.3268 C   0  0  0  0  0  0  0  0  0  0  0  0
  -11.6660   -3.2655   -8.4666 C   0  0  0  0  0  0  0  0  0  0  0  0
  -11.6686   -1.9488   -7.7215 C   0  0  0  0  0  0  0  0  0  0  0  0
  -11.3606   -0.7878   -8.7021 C   0  0  0  0  0  0  0  0  0  0  0  0
  -13.0335   -1.6857   -7.0466 C   0  0  0  0  0  0  0  0  0  0  0  0
   -8.3440   -2.9968  -10.6475 C   0  0  0  0  0  0  0  0  0  0  0  0
   -9.2766   -2.3774  -11.4735 C   0  0  0  0  0  0  0  0  0  0  0  0
  -10.0586   -3.1392  -12.3232 C   0  0  0  0  0  0  0  0  0  0  0  0
   -9.9092   -4.5154  -12.3613 C   0  0  0  0  0  0  0  0  0  0  0  0
   -8.9868   -5.1363  -11.5340 C   0  0  0  0  0  0  0  0  0  0  0  0
   -8.2174   -4.3849  -10.6669 C   0  0  0  0  0  0  0  0  0  0  0  0
   -5.6782   -2.7912   -9.6189 C   0  0  0  0  0  0  0  0  0  0  0  0
   -5.2265   -3.3484  -10.8119 C   0  0  0  0  0  0  0  0  0  0  0  0
   -3.9324   -3.8271  -10.9016 C   0  0  0  0  0  0  0  0  0  0  0  0
   -3.0801   -3.7461   -9.8114 C   0  0  0  0  0  0  0  0  0  0  0  0
   -3.5194   -3.1759   -8.6283 C   0  0  0  0  0  0  0  0  0  0  0  0
   -4.8143   -2.6990   -8.5318 C   0  0  0  0  0  0  0  0  0  0  0  0
   -7.0494   -0.4093  -10.2149 C   0  0  0  0  0  0  0  0  0  0  0  0
   -6.0295    0.3306   -9.3531 C   0  0  0  0  0  0  0  0  0  0  0  0
   -4.9976    0.4484   -6.6370 C   0  0  0  0  0  0  0  0  0  0  0  0
   -4.9549   -0.1004   -5.3570 C   0  0  0  0  0  0  0  0  0  0  0  0
   -3.8226    0.0550   -4.5785 C   0  0  0  0  0  0  0  0  0  0  0  0
   -2.7316    0.7515   -5.0731 C   0  0  0  0  0  0  0  0  0  0  0  0
   -2.7708    1.2909   -6.3490 C   0  0  0  0  0  0  0  0  0  0  0  0
   -3.8991    1.1415   -7.1354 C   0  0  0  0  0  0  0  0  0  0  0  0
   -7.5086    1.6938   -7.3063 C   0  0  0  0  0  0  0  0  0  0  0  0
   -8.8649    1.5572   -7.0282 C   0  0  0  0  0  0  0  0  0  0  0  0
   -9.6534    2.6828   -6.8665 C   0  0  0  0  0  0  0  0  0  0  0  0
   -9.0884    3.9426   -6.9746 C   0  0  0  0  0  0  0  0  0  0  0  0
   -7.7334    4.0806   -7.2363 C   0  0  0  0  0  0  0  0  0  0  0  0
   -6.9405    2.9609   -7.4034 C   0  0  0  0  0  0  0  0  0  0  0  0
  -11.2927   -2.9300   -4.6688 H   0  0  0  0  0  0  0  0  0  0  0  0
  -11.3586   -4.1385   -2.5169 H   0  0  0  0  0  0  0  0  0  0  0  0
   -9.6959   -5.8882   -2.0240 H   0  0  0  0  0  0  0  0  0  0  0  0
   -7.9539   -6.4498   -3.6738 H   0  0  0  0  0  0  0  0  0  0  0  0
   -9.6037   -5.9306   -8.4962 H   0  0  0  0  0  0  0  0  0  0  0  0
  -11.3823   -6.7669   -9.9736 H   0  0  0  0  0  0  0  0  0  0  0  0
  -13.3087   -5.3374  -10.5368 H   0  0  0  0  0  0  0  0  0  0  0  0
  -13.5041   -3.0825   -9.5635 H   0  0  0  0  0  0  0  0  0  0  0  0
   -9.3922   -1.3039  -11.4564 H   0  0  0  0  0  0  0  0  0  0  0  0
  -10.7851   -2.6550  -12.9585 H   0  0  0  0  0  0  0  0  0  0  0  0
  -10.5155   -5.1046  -13.0329 H   0  0  0  0  0  0  0  0  0  0  0  0
   -8.8718   -6.2095  -11.5601 H   0  0  0  0  0  0  0  0  0  0  0  0
   -7.5157   -4.8617   -9.9960 H   0  0  0  0  0  0  0  0  0  0  0  0
   -5.8901   -3.4122  -11.6631 H   0  0  0  0  0  0  0  0  0  0  0  0
   -3.5873   -4.2663  -11.8260 H   0  0  0  0  0  0  0  0  0  0  0  0
   -2.0731   -4.1283   -9.8859 H   0  0  0  0  0  0  0  0  0  0  0  0
   -2.8573   -3.1068   -7.7785 H   0  0  0  0  0  0  0  0  0  0  0  0
   -5.1612   -2.2505   -7.6046 H   0  0  0  0  0  0  0  0  0  0  0  0
   -7.9985    0.1346  -10.2109 H   0  0  0  0  0  0  0  0  0  0  0  0
   -6.7013   -0.5207  -11.2471 H   0  0  0  0  0  0  0  0  0  0  0  0
   -5.0418   -0.1286   -9.4666 H   0  0  0  0  0  0  0  0  0  0  0  0
   -5.9678    1.3842   -9.6415 H   0  0  0  0  0  0  0  0  0  0  0  0
   -5.8166   -0.6458   -4.9876 H   0  0  0  0  0  0  0  0  0  0  0  0
   -3.7903   -0.3705   -3.5869 H   0  0  0  0  0  0  0  0  0  0  0  0
   -1.8460    0.8724   -4.4668 H   0  0  0  0  0  0  0  0  0  0  0  0
   -1.9176    1.8302   -6.7343 H   0  0  0  0  0  0  0  0  0  0  0  0
   -3.9167    1.5590   -8.1323 H   0  0  0  0  0  0  0  0  0  0  0  0
   -9.2937    0.5649   -6.9075 H   0  0  0  0  0  0  0  0  0  0  0  0
  -10.7057    2.5717   -6.6543 H   0  0  0  0  0  0  0  0  0  0  0  0
   -9.7016    4.8222   -6.8460 H   0  0  0  0  0  0  0  0  0  0  0  0
   -7.2939    5.0651   -7.3070 H   0  0  0  0  0  0  0  0  0  0  0  0
   -5.8814    3.0666   -7.5950 H   0  0  0  0  0  0  0  0  0  0  0  0
  1  3  1  0  0  0  0
  1  2  1  0  0  0  0
  3 19  1  0  0  0  0
  3 20  1  0  0  0  0
  4  1  1  0  0  0  0
  5  1  1  0  0  0  0
  5 58  1  0  0  0  0
  5 52  1  0  0  0  0
  6 27  1  0  0  0  0
  7 27  1  0  0  0  0
 10 28  1  0  0  0  0
 11 28  1  0  0  0  0
 12 36  1  0  0  0  0
 13 36  1  0  0  0  0
 17 37  1  0  0  0  0
 18  3  1  0  0  0  0
 18 26  1  0  0  0  0
 20 25  2  0  0  0  0
 20 21  1  0  0  0  0
 21 22  2  0  0  0  0
 22 23  1  0  0  0  0
 22 65  1  0  0  0  0
 23 66  1  0  0  0  0
 24 67  1  0  0  0  0
 24 23  2  0  0  0  0
 25 24  1  0  0  0  0
 26 27  1  0  0  0  0
 26 25  1  0  0  0  0
 27  8  1  0  0  0  0
 28 26  1  0  0  0  0
 28  9  1  0  0  0  0
 29  3  1  0  0  0  0
 30 68  1  0  0  0  0
 30 29  2  0  0  0  0
 31 30  1  0  0  0  0
 32 31  2  0  0  0  0
 32 33  1  0  0  0  0
 33 34  2  0  0  0  0
 34 29  1  0  0  0  0
 34 35  1  0  0  0  0
 35 37  1  0  0  0  0
 35 19  1  0  0  0  0
 36 14  1  0  0  0  0
 36 35  1  0  0  0  0
 37 16  1  0  0  0  0
 37 15  1  0  0  0  0
 38  4  1  0  0  0  0
 39 72  1  0  0  0  0
 39 38  2  0  0  0  0
 40 39  1  0  0  0  0
 41 40  2  0  0  0  0
 41 42  1  0  0  0  0
 42 43  2  0  0  0  0
 43 38  1  0  0  0  0
 43 76  1  0  0  0  0
 44  4  1  0  0  0  0
 44 49  1  0  0  0  0
 45 44  2  0  0  0  0
 46 45  1  0  0  0  0
 46 47  2  0  0  0  0
 47 48  1  0  0  0  0
 48 49  2  0  0  0  0
 48 80  1  0  0  0  0
 49 81  1  0  0  0  0
 50 82  1  0  0  0  0
 50  4  1  0  0  0  0
 50 51  1  0  0  0  0
 51  5  1  0  0  0  0
 52 53  1  0  0  0  0
 53 86  1  0  0  0  0
 53 54  2  0  0  0  0
 54 87  1  0  0  0  0
 55 54  1  0  0  0  0
 55 88  1  0  0  0  0
 56 55  2  0  0  0  0
 57 52  2  0  0  0  0
 57 56  1  0  0  0  0
 58 59  1  0  0  0  0
 59 91  1  0  0  0  0
 59 60  2  0  0  0  0
 60 92  1  0  0  0  0
 61 60  1  0  0  0  0
 61 93  1  0  0  0  0
 62 61  2  0  0  0  0
 63 58  2  0  0  0  0
 63 62  1  0  0  0  0
 64 21  1  0  0  0  0
 69 31  1  0  0  0  0
 70 32  1  0  0  0  0
 71 33  1  0  0  0  0
 73 40  1  0  0  0  0
 74 41  1  0  0  0  0
 75 42  1  0  0  0  0
 77 45  1  0  0  0  0
 78 46  1  0  0  0  0
 79 47  1  0  0  0  0
 83 50  1  0  0  0  0
 84 51  1  0  0  0  0
 85 51  1  0  0  0  0
 89 56  1  0  0  0  0
 90 57  1  0  0  0  0
 94 62  1  0  0  0  0
 95 63  1  0  0  0  0
M  END
$$$$
