CSD_code = BAPSET | q = 0 | S = 0 | Stoichiometry = C17H20F4NO2PTi | MND = 6
 OpenBabel04212202003D

 46 48  0  0  1  0  0  0  0  0999 V2000
    4.3910    6.4608    9.1483 Ti  0  0  0  0  0  0  0  0  0  0  0  0
    3.9736    7.3602   12.0488 P   0  0  0  0  0  4  0  0  0  0  0  0
    4.5058    6.8584    7.4626 F   0  0  0  0  0  0  0  0  0  0  0  0
    3.1931    5.2123    9.0547 F   0  0  0  0  0  0  0  0  0  0  0  0
    5.7941    5.4181    9.2192 F   0  0  0  0  0  0  0  0  0  0  0  0
    3.3011    7.7907    9.6052 F   0  0  0  0  0  0  0  0  0  0  0  0
    4.5798    6.2662   11.2366 O   0  0  0  0  0  0  0  0  0  0  0  0
    5.8220    8.0328    9.4940 O   0  0  0  0  0  0  0  0  0  0  0  0
    7.8958    7.5940   10.2450 N   0  0  0  0  0  0  0  0  0  0  0  0
    4.8077    8.9954   11.8043 C   0  0  0  0  0  0  0  0  0  0  0  0
    4.4620    9.4552   10.8767 H   0  0  0  0  0  0  0  0  0  0  0  0
    4.5788    9.6464   12.6486 H   0  0  0  0  0  0  0  0  0  0  0  0
    6.3082    8.7161   11.7389 C   0  0  0  0  0  0  0  0  0  0  0  0
    6.8748    9.6491   11.8199 H   0  0  0  0  0  0  0  0  0  0  0  0
    6.5999    8.0621   12.5661 H   0  0  0  0  0  0  0  0  0  0  0  0
    6.6529    8.0562   10.4063 C   0  0  1  0  0  3  0  0  0  0  0  0
    8.2687    6.9514    8.9993 C   0  0  0  0  0  0  0  0  0  0  0  0
    7.4473    7.0552    8.2889 H   0  0  0  0  0  0  0  0  0  0  0  0
    8.4469    5.8881    9.1650 H   0  0  0  0  0  0  0  0  0  0  0  0
    9.1682    7.4221    8.5998 H   0  0  0  0  0  0  0  0  0  0  0  0
    8.8660    7.5394   11.3140 C   0  0  0  0  0  0  0  0  0  0  0  0
    8.9715    8.5089   11.8018 H   0  0  0  0  0  0  0  0  0  0  0  0
    9.8296    7.2604   10.8939 H   0  0  0  0  0  0  0  0  0  0  0  0
    8.5883    6.7939   12.0637 H   0  0  0  0  0  0  0  0  0  0  0  0
    4.3452    6.9930   13.7981 C   0  0  0  0  0  0  0  0  0  0  0  0
    5.1864    5.9252   14.0796 C   0  0  0  0  0  0  0  0  0  0  0  0
    5.5727    5.3434   13.2540 H   0  0  0  0  0  0  0  0  0  0  0  0
    5.5023    5.6144   15.3908 C   0  0  0  0  0  0  0  0  0  0  0  0
    6.1560    4.7827   15.6079 H   0  0  0  0  0  0  0  0  0  0  0  0
    4.9734    6.3695   16.4248 C   0  0  0  0  0  0  0  0  0  0  0  0
    5.2164    6.1282   17.4489 H   0  0  0  0  0  0  0  0  0  0  0  0
    4.1248    7.4300   16.1480 C   0  0  0  0  0  0  0  0  0  0  0  0
    3.7061    8.0114   16.9561 H   0  0  0  0  0  0  0  0  0  0  0  0
    3.8100    7.7418   14.8375 C   0  0  0  0  0  0  0  0  0  0  0  0
    3.1386    8.5595   14.6193 H   0  0  0  0  0  0  0  0  0  0  0  0
    2.1664    7.4661   11.9688 C   0  0  0  0  0  0  0  0  0  0  0  0
    1.5030    6.3120   11.5708 C   0  0  0  0  0  0  0  0  0  0  0  0
    2.0834    5.4426   11.2872 H   0  0  0  0  0  0  0  0  0  0  0  0
    0.1213    6.3047   11.5054 C   0  0  0  0  0  0  0  0  0  0  0  0
   -0.3976    5.4149   11.1827 H   0  0  0  0  0  0  0  0  0  0  0  0
   -0.5940    7.4431   11.8429 C   0  0  0  0  0  0  0  0  0  0  0  0
   -1.6725    7.4396   11.7871 H   0  0  0  0  0  0  0  0  0  0  0  0
    0.0709    8.5924   12.2379 C   0  0  0  0  0  0  0  0  0  0  0  0
   -0.4890    9.4821   12.4867 H   0  0  0  0  0  0  0  0  0  0  0  0
    1.4536    8.6086   12.3012 C   0  0  0  0  0  0  0  0  0  0  0  0
    1.9723    9.5133   12.5836 H   0  0  0  0  0  0  0  0  0  0  0  0
  1  5  1  0  0  0  0
  1  8  1  0  0  0  0
  1  6  1  0  0  0  0
  1  7  1  0  0  0  0
  2 25  1  0  0  0  0
  3  1  1  0  0  0  0
  4  1  1  0  0  0  0
  7  2  1  0  0  0  0
  8 16  1  0  0  0  0
  9 21  1  0  0  0  0
 10  2  1  0  0  0  0
 10 12  1  0  0  0  0
 11 10  1  0  0  0  0
 13 10  1  0  0  0  0
 13 14  1  0  0  0  0
 13 15  1  0  0  0  0
 16  9  1  6  0  0  0
 16 13  1  0  0  0  0
 17 19  1  0  0  0  0
 17  9  1  0  0  0  0
 18 17  1  0  0  0  0
 20 17  1  0  0  0  0
 21 22  1  0  0  0  0
 21 24  1  0  0  0  0
 23 21  1  0  0  0  0
 25 26  2  0  0  0  0
 25 34  1  0  0  0  0
 26 28  1  0  0  0  0
 27 26  1  0  0  0  0
 28 29  1  0  0  0  0
 28 30  2  0  0  0  0
 30 31  1  0  0  0  0
 32 30  1  0  0  0  0
 32 33  1  0  0  0  0
 34 32  2  0  0  0  0
 35 34  1  0  0  0  0
 36  2  1  0  0  0  0
 36 45  1  0  0  0  0
 37 36  2  0  0  0  0
 38 37  1  0  0  0  0
 39 37  1  0  0  0  0
 39 41  2  0  0  0  0
 40 39  1  0  0  0  0
 41 43  1  0  0  0  0
 42 41  1  0  0  0  0
 43 45  2  0  0  0  0
 43 44  1  0  0  0  0
 45 46  1  0  0  0  0
M  END
$$$$
