CSD_code = BAPXUM | q = 0 | S = 0 | Stoichiometry = C22H26Cl2NPPt | MND = 4
 OpenBabel04212202003D

 53 55  0  0  1  0  0  0  0  0999 V2000
    1.1623   -0.8373    7.2385 Pt  0  0  0  0  0  0  0  0  0  0  0  0
    0.4176    0.4189    8.9508 P   0  0  0  0  0  4  0  0  0  0  0  0
    2.8776   -1.7933    8.4627 Cl  0  0  0  0  0  0  0  0  0  0  0  0
   -0.4474    0.1248    5.8642 Cl  0  0  0  0  0  0  0  0  0  0  0  0
    1.8421   -1.9927    5.6014 N   0  0  0  0  0  4  0  0  0  0  0  0
    2.6731   -2.4835    5.9466 H   0  0  0  0  0  0  0  0  0  0  0  0
    2.1247   -1.3818    4.8327 H   0  0  0  0  0  0  0  0  0  0  0  0
    0.8533   -2.9709    5.1207 C   0  0  2  0  0  0  0  0  0  0  0  0
   -0.0026   -2.4006    4.7396 H   0  0  0  0  0  0  0  0  0  0  0  0
    0.3903   -3.8229    6.3080 C   0  0  0  0  0  0  0  0  0  0  0  0
    0.2239   -3.1471    7.1613 H   0  0  0  0  0  0  0  0  0  0  0  0
    1.1827   -4.5203    6.5884 H   0  0  0  0  0  0  0  0  0  0  0  0
   -0.8991   -4.5822    6.0278 C   0  0  0  0  0  0  0  0  0  0  0  0
   -1.2252   -5.1085    6.9214 H   0  0  0  0  0  0  0  0  0  0  0  0
   -0.7607   -5.3143    5.2358 H   0  0  0  0  0  0  0  0  0  0  0  0
   -1.6853   -3.8934    5.7280 H   0  0  0  0  0  0  0  0  0  0  0  0
    1.4452   -3.8181    3.9964 C   0  0  0  0  0  0  0  0  0  0  0  0
    1.7739   -3.1875    3.1722 H   0  0  0  0  0  0  0  0  0  0  0  0
    0.7030   -4.5110    3.6118 H   0  0  0  0  0  0  0  0  0  0  0  0
    2.2972   -4.3917    4.3585 H   0  0  0  0  0  0  0  0  0  0  0  0
    0.2421    2.1493    8.4364 C   0  0  0  0  0  0  0  0  0  0  0  0
    1.2338    2.6307    7.5848 C   0  0  0  0  0  0  0  0  0  0  0  0
    1.1868    3.9345    7.1316 C   0  0  0  0  0  0  0  0  0  0  0  0
    0.1443    4.7614    7.5221 C   0  0  0  0  0  0  0  0  0  0  0  0
   -0.8480    4.2816    8.3604 C   0  0  0  0  0  0  0  0  0  0  0  0
   -0.8042    2.9762    8.8202 C   0  0  0  0  0  0  0  0  0  0  0  0
    1.4574    0.4998   10.4381 C   0  0  0  0  0  0  0  0  0  0  0  0
    2.2100    1.6174   10.7737 C   0  0  0  0  0  0  0  0  0  0  0  0
    3.0256    1.5867   11.8922 C   0  0  0  0  0  0  0  0  0  0  0  0
    3.6106    2.4570   12.1522 H   0  0  0  0  0  0  0  0  0  0  0  0
    3.0988    0.4444   12.6706 C   0  0  0  0  0  0  0  0  0  0  0  0
    2.3527   -0.6750   12.3338 C   0  0  0  0  0  0  0  0  0  0  0  0
    1.5363   -0.6496   11.2208 C   0  0  0  0  0  0  0  0  0  0  0  0
   -1.1925   -0.0772    9.6268 C   0  0  0  0  0  0  0  0  0  0  0  0
   -1.6210    0.3717   10.8736 C   0  0  0  0  0  0  0  0  0  0  0  0
   -0.9808    1.0151   11.4625 H   0  0  0  0  0  0  0  0  0  0  0  0
   -2.8574   -0.0160   11.3559 C   0  0  0  0  0  0  0  0  0  0  0  0
   -3.1913    0.3342   12.3218 H   0  0  0  0  0  0  0  0  0  0  0  0
   -3.6666   -0.8539   10.6040 C   0  0  0  0  0  0  0  0  0  0  0  0
   -4.6306   -1.1550   10.9868 H   0  0  0  0  0  0  0  0  0  0  0  0
   -3.2392   -1.3080    9.3671 C   0  0  0  0  0  0  0  0  0  0  0  0
   -3.8690   -1.9638    8.7845 H   0  0  0  0  0  0  0  0  0  0  0  0
   -2.0039   -0.9219    8.8780 C   0  0  0  0  0  0  0  0  0  0  0  0
    2.0296    1.9585    7.2772 H   0  0  0  0  0  0  0  0  0  0  0  0
    1.9538    4.3069    6.4685 H   0  0  0  0  0  0  0  0  0  0  0  0
    0.1004    5.7790    7.1625 H   0  0  0  0  0  0  0  0  0  0  0  0
   -1.6651    4.9250    8.6526 H   0  0  0  0  0  0  0  0  0  0  0  0
   -1.5869    2.5984    9.4623 H   0  0  0  0  0  0  0  0  0  0  0  0
    2.1592    2.5075   10.1619 H   0  0  0  0  0  0  0  0  0  0  0  0
    3.7418    0.4229   13.5381 H   0  0  0  0  0  0  0  0  0  0  0  0
    2.4166   -1.5694   12.9357 H   0  0  0  0  0  0  0  0  0  0  0  0
    0.9604   -1.5210   10.9380 H   0  0  0  0  0  0  0  0  0  0  0  0
   -1.6579   -1.2610    7.9091 H   0  0  0  0  0  0  0  0  0  0  0  0
  1  3  1  0  0  0  0
  1  2  1  0  0  0  0
  2 34  1  0  0  0  0
  2 27  1  0  0  0  0
  4  1  1  0  0  0  0
  5  6  1  0  0  0  0
  5  1  1  0  0  0  0
  7  5  1  0  0  0  0
  8  9  1  6  0  0  0
  8  5  1  0  0  0  0
  8 10  1  0  0  0  0
 10 12  1  0  0  0  0
 10 11  1  0  0  0  0
 13 10  1  0  0  0  0
 13 14  1  0  0  0  0
 15 13  1  0  0  0  0
 16 13  1  0  0  0  0
 17 20  1  0  0  0  0
 17  8  1  0  0  0  0
 18 17  1  0  0  0  0
 19 17  1  0  0  0  0
 21 26  1  0  0  0  0
 21  2  1  0  0  0  0
 22 21  2  0  0  0  0
 23 24  2  0  0  0  0
 23 22  1  0  0  0  0
 24 25  1  0  0  0  0
 25 47  1  0  0  0  0
 25 26  2  0  0  0  0
 26 48  1  0  0  0  0
 27 28  2  0  0  0  0
 27 33  1  0  0  0  0
 28 29  1  0  0  0  0
 29 30  1  0  0  0  0
 29 31  2  0  0  0  0
 31 50  1  0  0  0  0
 32 31  1  0  0  0  0
 32 51  1  0  0  0  0
 33 32  2  0  0  0  0
 34 35  1  0  0  0  0
 35 37  2  0  0  0  0
 35 36  1  0  0  0  0
 37 38  1  0  0  0  0
 39 40  1  0  0  0  0
 39 37  1  0  0  0  0
 41 39  2  0  0  0  0
 42 41  1  0  0  0  0
 43 41  1  0  0  0  0
 43 34  2  0  0  0  0
 44 22  1  0  0  0  0
 45 23  1  0  0  0  0
 46 24  1  0  0  0  0
 49 28  1  0  0  0  0
 52 33  1  0  0  0  0
 53 43  1  0  0  0  0
M  END
$$$$
