CSD_code = BAQFIJ | q = 0 | S = 0 | Stoichiometry = C14H30I4N6P2Ru | MND = 6
 OpenBabel04212202003D

 57 62  0  0  1  0  0  0  0  0999 V2000
   -1.2122   -0.5487    8.9840 I   0  0  0  0  0  0  0  0  0  0  0  0
    0.9062   -1.9327   12.0207 I   0  0  0  0  0  0  0  0  0  0  0  0
    1.2855    0.0004   10.0696 Ru  0  0  0  0  0  0  0  0  0  0  0  0
    0.3523    1.4587   11.4682 P   0  0  2  0  0  4  0  0  0  0  0  0
   -1.8938    1.9349   13.1535 N   0  0  2  0  0  4  0  0  0  0  0  0
   -0.8879    3.8644   12.0419 N   0  0  1  0  0  0  0  0  0  0  0  0
    0.2634    2.8232   13.8729 N   0  0  2  0  0  0  0  0  0  0  0  0
   -1.2964    0.9623   12.2182 C   0  0  0  0  0  0  0  0  0  0  0  0
   -1.9976    0.7882   11.3924 H   0  0  0  0  0  0  0  0  0  0  0  0
   -1.1516    0.0058   12.7370 H   0  0  0  0  0  0  0  0  0  0  0  0
   -0.2046    3.1560   10.9672 C   0  0  0  0  0  0  0  0  0  0  0  0
    0.6686    3.7399   10.6553 H   0  0  0  0  0  0  0  0  0  0  0  0
   -0.8704    3.0762   10.0979 H   0  0  0  0  0  0  0  0  0  0  0  0
    1.1254    1.9587   13.0793 C   0  0  0  0  0  0  0  0  0  0  0  0
    1.3766    1.0587   13.6554 H   0  0  0  0  0  0  0  0  0  0  0  0
    2.0616    2.4892   12.8760 H   0  0  0  0  0  0  0  0  0  0  0  0
   -3.1659    1.4152   13.6585 C   0  0  0  0  0  0  0  0  0  0  0  0
   -3.8458    1.2362   12.8258 H   0  0  0  0  0  0  0  0  0  0  0  0
   -3.6203    2.1277   14.3466 H   0  0  0  0  0  0  0  0  0  0  0  0
   -2.9961    0.4725   14.1782 H   0  0  0  0  0  0  0  0  0  0  0  0
   -2.1019    3.2570   12.4327 C   0  0  0  0  0  0  0  0  0  0  0  0
   -2.7255    3.0594   11.5554 H   0  0  0  0  0  0  0  0  0  0  0  0
   -2.6357    3.9171   13.1257 H   0  0  0  0  0  0  0  0  0  0  0  0
   -0.9274    2.1940   14.2974 C   0  0  0  0  0  0  0  0  0  0  0  0
   -1.4483    2.8378   15.0152 H   0  0  0  0  0  0  0  0  0  0  0  0
   -0.6996    1.2295   14.7617 H   0  0  0  0  0  0  0  0  0  0  0  0
   -0.0256    4.0715   13.1913 C   0  0  0  0  0  0  0  0  0  0  0  0
    0.9092    4.5260   12.8625 H   0  0  0  0  0  0  0  0  0  0  0  0
   -0.5266    4.7495   13.8912 H   0  0  0  0  0  0  0  0  0  0  0  0
    3.7826    0.5486   11.1514 I   0  0  0  0  0  0  0  0  0  0  0  0
    1.6620    1.9322    8.1168 I   0  0  0  0  0  0  0  0  0  0  0  0
    2.2161   -1.4589    8.6705 P   0  0  1  0  0  4  0  0  0  0  0  0
    3.8649   -0.9622    7.9205 C   0  0  0  0  0  0  0  0  0  0  0  0
    4.4626   -1.9348    6.9852 N   0  0  1  0  0  4  0  0  0  0  0  0
    5.7347   -1.4151    6.4802 C   0  0  0  0  0  0  0  0  0  0  0  0
    6.4146   -1.2361    7.3129 H   0  0  0  0  0  0  0  0  0  0  0  0
    6.1892   -2.1276    5.7921 H   0  0  0  0  0  0  0  0  0  0  0  0
    5.5650   -0.4725    5.9604 H   0  0  0  0  0  0  0  0  0  0  0  0
    4.6708   -3.2569    7.7061 C   0  0  0  0  0  0  0  0  0  0  0  0
    3.4569   -3.8644    8.0968 N   0  0  1  0  0  0  0  0  0  0  0  0
    2.7735   -3.1561    9.1714 C   0  0  0  0  0  0  0  0  0  0  0  0
    1.4435   -1.9587    7.0591 C   0  0  0  0  0  0  0  0  0  0  0  0
    2.3056   -2.8233    6.2656 N   0  0  1  0  0  0  0  0  0  0  0  0
    3.4964   -2.1941    5.8412 C   0  0  0  0  0  0  0  0  0  0  0  0
    4.0175   -2.8379    5.1235 H   0  0  0  0  0  0  0  0  0  0  0  0
    3.2686   -1.2296    5.3768 H   0  0  0  0  0  0  0  0  0  0  0  0
    2.5946   -4.0716    6.9473 C   0  0  0  0  0  0  0  0  0  0  0  0
    1.6598   -4.5261    7.2761 H   0  0  0  0  0  0  0  0  0  0  0  0
    3.0956   -4.7497    6.2475 H   0  0  0  0  0  0  0  0  0  0  0  0
    1.1923   -1.0588    6.4828 H   0  0  0  0  0  0  0  0  0  0  0  0
    0.5074   -2.4893    7.2624 H   0  0  0  0  0  0  0  0  0  0  0  0
    1.9002   -3.7398    9.4833 H   0  0  0  0  0  0  0  0  0  0  0  0
    3.4393   -3.0761   10.0408 H   0  0  0  0  0  0  0  0  0  0  0  0
    5.2944   -3.0593    8.5834 H   0  0  0  0  0  0  0  0  0  0  0  0
    5.2047   -3.9170    7.0131 H   0  0  0  0  0  0  0  0  0  0  0  0
    4.5659   -0.7880    8.7464 H   0  0  0  0  0  0  0  0  0  0  0  0
    3.7201   -0.0058    7.4015 H   0  0  0  0  0  0  0  0  0  0  0  0
  1  3  1  0  0  0  0
  3 30  1  0  0  0  0
  3  2  1  0  0  0  0
  4  3  1  6  0  0  0
  4  8  1  0  0  0  0
  4 14  1  0  0  0  0
  5 17  1  1  0  0  0
  5 24  1  0  0  0  0
  6 11  1  6  0  0  0
  6 21  1  0  0  0  0
  6 27  1  0  0  0  0
  7 14  1  6  0  0  0
  7 24  1  0  0  0  0
  8 10  1  0  0  0  0
  8  5  1  0  0  0  0
  9  8  1  0  0  0  0
 11  4  1  0  0  0  0
 12 11  1  0  0  0  0
 13 11  1  0  0  0  0
 14 15  1  0  0  0  0
 16 14  1  0  0  0  0
 17 20  1  0  0  0  0
 17 19  1  0  0  0  0
 18 17  1  0  0  0  0
 21 23  1  0  0  0  0
 21  5  1  0  0  0  0
 22 21  1  0  0  0  0
 24 26  1  0  0  0  0
 24 25  1  0  0  0  0
 27  7  1  0  0  0  0
 27 29  1  0  0  0  0
 28 27  1  0  0  0  0
 31  3  1  0  0  0  0
 32 41  1  0  0  0  0
 32  3  1  1  0  0  0
 33 32  1  0  0  0  0
 33 56  1  0  0  0  0
 34 35  1  6  0  0  0
 34 39  1  0  0  0  0
 34 33  1  0  0  0  0
 35 36  1  0  0  0  0
 37 35  1  0  0  0  0
 38 35  1  0  0  0  0
 39 40  1  0  0  0  0
 39 54  1  0  0  0  0
 40 47  1  6  0  0  0
 40 41  1  0  0  0  0
 41 52  1  0  0  0  0
 41 53  1  0  0  0  0
 42 51  1  0  0  0  0
 42 32  1  0  0  0  0
 43 44  1  1  0  0  0
 43 47  1  0  0  0  0
 43 42  1  0  0  0  0
 44 34  1  0  0  0  0
 45 44  1  0  0  0  0
 46 44  1  0  0  0  0
 47 48  1  0  0  0  0
 49 47  1  0  0  0  0
 50 42  1  0  0  0  0
 55 39  1  0  0  0  0
 57 33  1  0  0  0  0
M  END
$$$$
