CSD_code = BAQHUX | q = 0 | S = 0 | Stoichiometry = C21H25Cl2N2PPd | MND = 4
 OpenBabel04212202003D

 52 55  0  0  1  0  0  0  0  0999 V2000
    1.0751    4.8326    6.6815 C   0  0  1  0  0  3  0  0  0  0  0  0
    0.2942    5.9698    6.8169 C   0  0  0  0  0  0  0  0  0  0  0  0
    0.3149    6.6866    7.6111 H   0  0  0  0  0  0  0  0  0  0  0  0
   -0.5370    6.0066    5.6900 C   0  0  0  0  0  0  0  0  0  0  0  0
   -1.5375    7.0561    5.3218 C   0  0  0  0  0  0  0  0  0  0  0  0
   -1.1434    7.6448    4.4846 H   0  0  0  0  0  0  0  0  0  0  0  0
   -1.6550    7.7283    6.1750 H   0  0  0  0  0  0  0  0  0  0  0  0
   -2.9041    6.4841    4.9279 C   0  0  0  0  0  0  0  0  0  0  0  0
   -3.6372    7.2915    4.8419 H   0  0  0  0  0  0  0  0  0  0  0  0
   -3.2413    5.7809    5.6946 H   0  0  0  0  0  0  0  0  0  0  0  0
    2.1439    4.2339    7.5469 C   0  0  0  0  0  0  0  0  0  0  0  0
    2.4537    5.1645    8.7207 C   0  0  0  0  0  0  0  0  0  0  0  0
    2.7946    6.1327    8.3619 H   0  0  0  0  0  0  0  0  0  0  0  0
    3.2366    4.7324    9.3389 H   0  0  0  0  0  0  0  0  0  0  0  0
    1.5718    5.3111    9.3394 H   0  0  0  0  0  0  0  0  0  0  0  0
    3.4088    4.0258    6.7042 C   0  0  0  0  0  0  0  0  0  0  0  0
    3.7446    4.9708    6.2828 H   0  0  0  0  0  0  0  0  0  0  0  0
    3.2270    3.3303    5.8892 H   0  0  0  0  0  0  0  0  0  0  0  0
    4.2053    3.6242    7.3257 H   0  0  0  0  0  0  0  0  0  0  0  0
    1.6445    2.8818    8.0736 C   0  0  0  0  0  0  0  0  0  0  0  0
    0.7365    3.0130    8.6586 H   0  0  0  0  0  0  0  0  0  0  0  0
    2.4009    2.4280    8.7090 H   0  0  0  0  0  0  0  0  0  0  0  0
    1.4314    2.2022    7.2524 H   0  0  0  0  0  0  0  0  0  0  0  0
   -4.5112    5.2200    2.8675 C   0  0  0  0  0  0  0  0  0  0  0  0
   -4.8185    5.0967    1.5136 C   0  0  0  0  0  0  0  0  0  0  0  0
   -4.0415    5.2494    0.7780 H   0  0  0  0  0  0  0  0  0  0  0  0
   -6.1010    4.7622    1.1235 C   0  0  0  0  0  0  0  0  0  0  0  0
   -6.3345    4.6656    0.0738 H   0  0  0  0  0  0  0  0  0  0  0  0
   -7.0828    4.5422    2.0767 C   0  0  0  0  0  0  0  0  0  0  0  0
   -8.0843    4.2785    1.7709 H   0  0  0  0  0  0  0  0  0  0  0  0
   -6.7772    4.6487    3.4233 C   0  0  0  0  0  0  0  0  0  0  0  0
   -7.5391    4.4663    4.1671 H   0  0  0  0  0  0  0  0  0  0  0  0
   -5.4942    4.9796    3.8221 C   0  0  0  0  0  0  0  0  0  0  0  0
   -5.2609    5.0442    4.8752 H   0  0  0  0  0  0  0  0  0  0  0  0
   -2.3485    6.9335    2.1694 C   0  0  0  0  0  0  0  0  0  0  0  0
   -1.1006    6.8837    1.5529 C   0  0  0  0  0  0  0  0  0  0  0  0
   -0.4382    6.0275    1.7434 H   0  0  0  0  0  0  0  0  0  0  0  0
   -0.7120    7.8960    0.6931 C   0  0  0  0  0  0  0  0  0  0  0  0
    0.2525    7.8536    0.2099 H   0  0  0  0  0  0  0  0  0  0  0  0
   -1.5657    8.9597    0.4480 C   0  0  0  0  0  0  0  0  0  0  0  0
   -1.2640    9.7482   -0.2252 H   0  0  0  0  0  0  0  0  0  0  0  0
   -2.8097    9.0111    1.0576 C   0  0  0  0  0  0  0  0  0  0  0  0
   -3.4742    9.8393    0.8595 H   0  0  0  0  0  0  0  0  0  0  0  0
   -3.2039    8.0014    1.9160 C   0  0  0  0  0  0  0  0  0  0  0  0
   -4.1789    8.0308    2.3835 H   0  0  0  0  0  0  0  0  0  0  0  0
   -2.0294    3.2488    1.4273 Cl  0  0  0  0  0  0  0  0  0  0  0  0
    0.6879    2.6933    3.1160 Cl  0  0  0  0  0  0  0  0  0  0  0  0
   -0.2686    4.9494    4.9291 N   0  0  0  0  0  0  0  0  0  0  0  0
    0.6880    4.2500    5.5372 N   0  0  0  0  0  0  0  0  0  0  0  0
    1.0440    3.4388    4.9967 H   0  0  0  0  0  0  0  0  0  0  0  0
   -2.7945    5.5890    3.3133 P   0  0  0  0  0  4  0  0  0  0  0  0
   -1.0907    4.1323    3.2497 Pd  0  0  0  0  0  0  0  0  0  0  0  0
  1  2  1  0  0  0  0
  1 11  1  1  0  0  0
  2  3  1  0  0  0  0
  4  2  2  0  0  0  0
  5  4  1  0  0  0  0
  5  7  1  0  0  0  0
  6  5  1  0  0  0  0
  8  5  1  0  0  0  0
  8 10  1  0  0  0  0
  9  8  1  0  0  0  0
 11 20  1  0  0  0  0
 11 12  1  0  0  0  0
 12 14  1  0  0  0  0
 12 15  1  0  0  0  0
 13 12  1  0  0  0  0
 16 19  1  0  0  0  0
 16 11  1  0  0  0  0
 17 16  1  0  0  0  0
 18 16  1  0  0  0  0
 20 21  1  0  0  0  0
 20 22  1  0  0  0  0
 23 20  1  0  0  0  0
 24 51  1  0  0  0  0
 24 33  1  0  0  0  0
 25 24  2  0  0  0  0
 26 25  1  0  0  0  0
 27 25  1  0  0  0  0
 27 29  2  0  0  0  0
 28 27  1  0  0  0  0
 29 31  1  0  0  0  0
 30 29  1  0  0  0  0
 31 33  2  0  0  0  0
 31 32  1  0  0  0  0
 33 34  1  0  0  0  0
 35 51  1  0  0  0  0
 36 37  1  0  0  0  0
 36 35  2  0  0  0  0
 38 36  1  0  0  0  0
 39 38  1  0  0  0  0
 40 38  2  0  0  0  0
 40 42  1  0  0  0  0
 41 40  1  0  0  0  0
 42 44  2  0  0  0  0
 43 42  1  0  0  0  0
 44 35  1  0  0  0  0
 44 45  1  0  0  0  0
 46 52  1  0  0  0  0
 47 52  1  0  0  0  0
 48 49  1  0  0  0  0
 48  4  1  0  0  0  0
 49  1  1  0  0  0  0
 50 49  1  0  0  0  0
 51  8  1  0  0  0  0
 52 51  1  0  0  0  0
 52 48  1  0  0  0  0
M  END
$$$$
