CSD_code = BAQHEH | q = 0 | S = 0 | Stoichiometry = C9H16Cl2N2PdS | MND = 4
 OpenBabel04212202003D

 31 32  0  0  1  0  0  0  0  0999 V2000
    7.4892    1.2205   10.5384 Pd  0  0  0  0  0  0  0  0  0  0  0  0
    5.5830    2.1529   11.6300 S   0  0  2  0  0  3  0  0  0  0  0  0
    9.2550    0.6264    9.2904 Cl  0  0  0  0  0  0  0  0  0  0  0  0
    8.3469    0.3780   12.3996 Cl  0  0  0  0  0  0  0  0  0  0  0  0
    6.6979    2.0900    8.9199 N   0  0  2  0  0  0  0  0  0  0  0  0
    7.2590    2.2061    7.7228 N   0  0  0  0  0  0  0  0  0  0  0  0
    8.1310    1.6879    7.5849 H   0  0  0  0  0  0  0  0  0  0  0  0
    5.6153    2.8604    8.9405 C   0  0  1  0  0  3  0  0  0  0  0  0
    5.4876    3.4867    7.6939 C   0  0  0  0  0  0  0  0  0  0  0  0
    4.7143    4.1643    7.3987 H   0  0  0  0  0  0  0  0  0  0  0  0
    6.5620    3.0430    6.9352 C   0  0  0  0  0  0  0  0  0  0  0  0
    6.9826    3.4021    5.5402 C   0  0  0  0  0  0  0  0  0  0  0  0
    7.9185    2.3299    4.9746 C   0  0  0  0  0  0  0  0  0  0  0  0
    8.1513    2.5596    3.9380 H   0  0  0  0  0  0  0  0  0  0  0  0
    7.4489    1.3497    5.0089 H   0  0  0  0  0  0  0  0  0  0  0  0
    8.8545    2.2911    5.5258 H   0  0  0  0  0  0  0  0  0  0  0  0
    5.7431    3.5252    4.6482 C   0  0  0  0  0  0  0  0  0  0  0  0
    6.0418    3.7509    3.6278 H   0  0  0  0  0  0  0  0  0  0  0  0
    5.0910    4.3217    4.9954 H   0  0  0  0  0  0  0  0  0  0  0  0
    5.1823    2.5937    4.6454 H   0  0  0  0  0  0  0  0  0  0  0  0
    7.7182    4.7489    5.5970 C   0  0  0  0  0  0  0  0  0  0  0  0
    8.0398    5.0380    4.6000 H   0  0  0  0  0  0  0  0  0  0  0  0
    8.5955    4.6777    6.2355 H   0  0  0  0  0  0  0  0  0  0  0  0
    7.0662    5.5258    5.9894 H   0  0  0  0  0  0  0  0  0  0  0  0
    4.7632    2.9159   10.1619 C   0  0  0  0  0  0  0  0  0  0  0  0
    3.8466    2.3390   10.0179 H   0  0  0  0  0  0  0  0  0  0  0  0
    4.4926    3.9396   10.4241 H   0  0  0  0  0  0  0  0  0  0  0  0
    6.6297    3.5446   12.1741 C   0  0  0  0  0  0  0  0  0  0  0  0
    5.9965    4.3393   12.5620 H   0  0  0  0  0  0  0  0  0  0  0  0
    7.2500    3.9065   11.3486 H   0  0  0  0  0  0  0  0  0  0  0  0
    7.2632    3.1488   12.9680 H   0  0  0  0  0  0  0  0  0  0  0  0
  1  2  1  0  0  0  0
  1  4  1  0  0  0  0
  2 28  1  1  0  0  0
  3  1  1  0  0  0  0
  5  6  1  1  0  0  0
  5  8  1  0  0  0  0
  5  1  1  0  0  0  0
  7  6  1  0  0  0  0
  8  9  1  6  0  0  0
  8 25  1  0  0  0  0
 10  9  1  0  0  0  0
 11  9  2  0  0  0  0
 11  6  1  0  0  0  0
 12 21  1  0  0  0  0
 12 11  1  0  0  0  0
 13 15  1  0  0  0  0
 13 16  1  0  0  0  0
 13 12  1  0  0  0  0
 14 13  1  0  0  0  0
 17 19  1  0  0  0  0
 17 12  1  0  0  0  0
 18 17  1  0  0  0  0
 20 17  1  0  0  0  0
 21 24  1  0  0  0  0
 21 23  1  0  0  0  0
 22 21  1  0  0  0  0
 25 27  1  0  0  0  0
 25  2  1  0  0  0  0
 26 25  1  0  0  0  0
 28 29  1  0  0  0  0
 28 31  1  0  0  0  0
 30 28  1  0  0  0  0
M  END
$$$$
