CSD_code = BAQQAL | q = 0 | S = 0 | Stoichiometry = C43H33ClN2OP2Ru | MND = 6
 OpenBabel04212202003D

 83 92  0  0  0  0  0  0  0  0999 V2000
    5.4358   12.5824    0.6085 Ru  0  0  0  0  0  0  0  0  0  0  0  0
    6.7128   13.3000   -1.1756 Cl  0  0  0  0  0  0  0  0  0  0  0  0
    4.9800   10.9291   -0.5953 N   0  0  0  0  0  0  0  0  0  0  0  0
    5.8855   10.0206   -0.8551 C   0  0  0  0  0  3  0  0  0  0  0  0
    5.7029    9.3699   -1.7134 H   0  0  0  0  0  0  0  0  0  0  0  0
    7.0885    9.7397   -0.1849 C   0  0  0  0  0  0  0  0  0  0  0  0
    7.6354   10.5190    0.8970 C   0  0  0  0  0  0  0  0  0  0  0  0
    7.1513   11.5933    1.3469 O   0  0  0  0  0  0  0  0  0  0  0  0
    8.8399   10.0326    1.4991 C   0  0  0  0  0  0  0  0  0  0  0  0
    9.2337   10.6174    2.3164 H   0  0  0  0  0  0  0  0  0  0  0  0
    9.4738    8.9159    1.0531 C   0  0  0  0  0  0  0  0  0  0  0  0
   10.3876    8.5867    1.5271 H   0  0  0  0  0  0  0  0  0  0  0  0
    8.9578    8.1843   -0.0325 C   0  0  0  0  0  0  0  0  0  0  0  0
    9.4766    7.3062   -0.3850 H   0  0  0  0  0  0  0  0  0  0  0  0
    7.8062    8.5985   -0.6287 C   0  0  0  0  0  0  0  0  0  0  0  0
    7.4017    8.0392   -1.4622 H   0  0  0  0  0  0  0  0  0  0  0  0
    3.8238   10.9716   -1.3753 C   0  0  0  0  0  0  0  0  0  0  0  0
    3.6776   13.5648   -0.4612 P   0  0  0  0  0  4  0  0  0  0  0  0
    3.1213   12.1845   -1.4921 C   0  0  0  0  0  0  0  0  0  0  0  0
    2.0412   12.2998   -2.3589 C   0  0  0  0  0  0  0  0  0  0  0  0
    1.5737   13.2669   -2.4872 H   0  0  0  0  0  0  0  0  0  0  0  0
    1.5821   11.1979   -3.0550 C   0  0  0  0  0  0  0  0  0  0  0  0
    0.7406   11.2866   -3.7249 H   0  0  0  0  0  0  0  0  0  0  0  0
    2.2019    9.9717   -2.8662 C   0  0  0  0  0  0  0  0  0  0  0  0
    1.8255    9.0947   -3.3720 H   0  0  0  0  0  0  0  0  0  0  0  0
    3.3072    9.8556   -2.0479 C   0  0  0  0  0  0  0  0  0  0  0  0
    3.7563    8.8816   -1.9179 H   0  0  0  0  0  0  0  0  0  0  0  0
    3.8211   14.9184   -1.6689 C   0  0  0  0  0  0  0  0  0  0  0  0
    4.3939   14.6296   -2.9068 C   0  0  0  0  0  0  0  0  0  0  0  0
    4.7189   13.6219   -3.1247 H   0  0  0  0  0  0  0  0  0  0  0  0
    4.5625   15.6329   -3.8413 C   0  0  0  0  0  0  0  0  0  0  0  0
    5.0122   15.4048   -4.7962 H   0  0  0  0  0  0  0  0  0  0  0  0
    4.1638   16.9281   -3.5523 C   0  0  0  0  0  0  0  0  0  0  0  0
    4.3004   17.7121   -4.2826 H   0  0  0  0  0  0  0  0  0  0  0  0
    3.5932   17.2174   -2.3244 C   0  0  0  0  0  0  0  0  0  0  0  0
    3.2822   18.2265   -2.0961 H   0  0  0  0  0  0  0  0  0  0  0  0
    3.4232   16.2195   -1.3810 C   0  0  0  0  0  0  0  0  0  0  0  0
    2.9772   16.4542   -0.4252 H   0  0  0  0  0  0  0  0  0  0  0  0
    2.2377   14.0596    0.5331 C   0  0  0  0  0  0  0  0  0  0  0  0
    2.5110   14.9998    1.5268 C   0  0  0  0  0  0  0  0  0  0  0  0
    3.5263   15.3564    1.6455 H   0  0  0  0  0  0  0  0  0  0  0  0
    1.5041   15.4608    2.3523 C   0  0  0  0  0  0  0  0  0  0  0  0
    1.7283   16.1818    3.1246 H   0  0  0  0  0  0  0  0  0  0  0  0
    0.2105   14.9914    2.1865 C   0  0  0  0  0  0  0  0  0  0  0  0
   -0.5817   15.3531    2.8253 H   0  0  0  0  0  0  0  0  0  0  0  0
   -0.0639   14.0520    1.2074 C   0  0  0  0  0  0  0  0  0  0  0  0
   -1.0703   13.6801    1.0821 H   0  0  0  0  0  0  0  0  0  0  0  0
    0.9447   13.5762    0.3867 C   0  0  0  0  0  0  0  0  0  0  0  0
    0.7222   12.8209   -0.3521 H   0  0  0  0  0  0  0  0  0  0  0  0
    5.8341   13.7595    1.9795 N   0  0  0  0  0  2  0  0  0  0  0  0
    5.1862   14.0622    3.0499 C   0  0  0  0  0  0  0  0  0  0  0  0
    4.2900   13.0473    3.5573 C   0  0  0  0  0  0  0  0  0  0  0  0
    3.7821   13.1189    4.8447 C   0  0  0  0  0  0  0  0  0  0  0  0
    3.2195   12.2854    5.2445 H   0  0  0  0  0  0  0  0  0  0  0  0
    3.9900   14.2523    5.6063 C   0  0  0  0  0  0  0  0  0  0  0  0
    3.5785   14.3245    6.6009 H   0  0  0  0  0  0  0  0  0  0  0  0
    4.7488   15.3054    5.0833 C   0  0  0  0  0  0  0  0  0  0  0  0
    4.8849   16.1984    5.6771 H   0  0  0  0  0  0  0  0  0  0  0  0
    5.3491   15.2241    3.8570 C   0  0  0  0  0  0  0  0  0  0  0  0
    5.9438   16.0350    3.4646 H   0  0  0  0  0  0  0  0  0  0  0  0
    4.2088   11.6899    2.3831 P   0  0  0  0  0  4  0  0  0  0  0  0
    5.0347   10.2976    3.2218 C   0  0  0  0  0  0  0  0  0  0  0  0
    4.5766    8.9851    3.2241 C   0  0  0  0  0  0  0  0  0  0  0  0
    3.6274    8.7358    2.7717 H   0  0  0  0  0  0  0  0  0  0  0  0
    5.3344    7.9924    3.8214 C   0  0  0  0  0  0  0  0  0  0  0  0
    4.9747    6.9735    3.8202 H   0  0  0  0  0  0  0  0  0  0  0  0
    6.5473    8.2983    4.4139 C   0  0  0  0  0  0  0  0  0  0  0  0
    7.1381    7.5170    4.8688 H   0  0  0  0  0  0  0  0  0  0  0  0
    6.9993    9.6088    4.4283 C   0  0  0  0  0  0  0  0  0  0  0  0
    7.9404    9.8503    4.8995 H   0  0  0  0  0  0  0  0  0  0  0  0
    6.2480   10.6061    3.8388 C   0  0  0  0  0  0  0  0  0  0  0  0
    6.5974   11.6308    3.8351 H   0  0  0  0  0  0  0  0  0  0  0  0
    2.4781   11.1571    2.2327 C   0  0  0  0  0  0  0  0  0  0  0  0
    2.1952   10.1491    1.3122 C   0  0  0  0  0  0  0  0  0  0  0  0
    3.0041    9.7078    0.7457 H   0  0  0  0  0  0  0  0  0  0  0  0
    0.8964    9.7204    1.1186 C   0  0  0  0  0  0  0  0  0  0  0  0
    0.6865    8.9439    0.3971 H   0  0  0  0  0  0  0  0  0  0  0  0
   -0.1338   10.2886    1.8511 C   0  0  0  0  0  0  0  0  0  0  0  0
   -1.1492    9.9500    1.7069 H   0  0  0  0  0  0  0  0  0  0  0  0
    0.1402   11.2954    2.7611 C   0  0  0  0  0  0  0  0  0  0  0  0
   -0.6620   11.7437    3.3285 H   0  0  0  0  0  0  0  0  0  0  0  0
    1.4376   11.7408    2.9440 C   0  0  0  0  0  0  0  0  0  0  0  0
    1.6400   12.5509    3.6273 H   0  0  0  0  0  0  0  0  0  0  0  0
  1  8  1  0  0  0  0
  1 50  1  0  0  0  0
  1 61  1  0  0  0  0
  2  1  1  0  0  0  0
  3  1  1  0  0  0  0
  4  3  1  0  0  0  0
  4  6  1  0  0  0  0
  5  4  1  0  0  0  0
  6  7  1  0  0  0  0
  7  8  1  0  0  0  0
  7  9  2  0  0  0  0
  9 10  1  0  0  0  0
 11  9  1  0  0  0  0
 11 12  1  0  0  0  0
 13 11  2  0  0  0  0
 14 13  1  0  0  0  0
 15  6  2  0  0  0  0
 15 13  1  0  0  0  0
 16 15  1  0  0  0  0
 17  3  1  0  0  0  0
 18 39  1  0  0  0  0
 18  1  1  0  0  0  0
 19 17  1  0  0  0  0
 19 18  1  0  0  0  0
 20 19  2  0  0  0  0
 21 20  1  0  0  0  0
 22 24  2  0  0  0  0
 22 20  1  0  0  0  0
 23 22  1  0  0  0  0
 24 26  1  0  0  0  0
 25 24  1  0  0  0  0
 26 27  1  0  0  0  0
 26 17  2  0  0  0  0
 28 37  1  0  0  0  0
 28 18  1  0  0  0  0
 29 28  2  0  0  0  0
 30 29  1  0  0  0  0
 31 33  2  0  0  0  0
 31 29  1  0  0  0  0
 32 31  1  0  0  0  0
 33 35  1  0  0  0  0
 34 33  1  0  0  0  0
 35 36  1  0  0  0  0
 35 37  2  0  0  0  0
 37 38  1  0  0  0  0
 39 40  1  0  0  0  0
 40 41  1  0  0  0  0
 40 42  2  0  0  0  0
 42 43  1  0  0  0  0
 44 42  1  0  0  0  0
 44 45  1  0  0  0  0
 46 44  2  0  0  0  0
 47 46  1  0  0  0  0
 48 39  2  0  0  0  0
 48 46  1  0  0  0  0
 49 48  1  0  0  0  0
 50 51  1  0  0  0  0
 51 52  2  0  0  0  0
 51 59  1  0  0  0  0
 52 53  1  0  0  0  0
 53 54  1  0  0  0  0
 53 55  2  0  0  0  0
 55 56  1  0  0  0  0
 57 55  1  0  0  0  0
 57 58  1  0  0  0  0
 59 57  2  0  0  0  0
 60 59  1  0  0  0  0
 61 62  1  0  0  0  0
 61 52  1  0  0  0  0
 62 63  2  0  0  0  0
 62 71  1  0  0  0  0
 63 65  1  0  0  0  0
 64 63  1  0  0  0  0
 65 67  2  0  0  0  0
 66 65  1  0  0  0  0
 67 69  1  0  0  0  0
 67 68  1  0  0  0  0
 69 70  1  0  0  0  0
 71 69  2  0  0  0  0
 72 71  1  0  0  0  0
 73 61  1  0  0  0  0
 73 82  1  0  0  0  0
 74 73  2  0  0  0  0
 75 74  1  0  0  0  0
 76 74  1  0  0  0  0
 76 78  2  0  0  0  0
 77 76  1  0  0  0  0
 78 80  1  0  0  0  0
 79 78  1  0  0  0  0
 80 82  2  0  0  0  0
 80 81  1  0  0  0  0
 82 83  1  0  0  0  0
M  END
$$$$
