CSD_code = BARCAA | q = 0 | S = 0 | Stoichiometry = C14H23ClN2Pd | MND = 4
 OpenBabel04212202003D

 41 43  0  0  1  0  0  0  0  0999 V2000
   -0.4244   12.1630    4.9739 Pd  0  0  1  0  0  0  0  0  0  0  0  0
   -1.0456   14.3232    4.2961 Cl  0  0  0  0  0  0  0  0  0  0  0  0
    1.4548   12.8481    5.4658 N   0  0  1  0  0  4  0  0  0  0  0  0
    1.7212   12.6644    6.4340 H   0  0  0  0  0  0  0  0  0  0  0  0
   -2.2959   11.3710    4.6189 N   0  0  0  0  0  4  0  0  0  0  0  0
    2.5308   12.6926    4.4996 C   0  0  0  0  0  0  0  0  0  0  0  0
    2.0800   14.0399    4.9098 C   0  0  0  0  0  0  0  0  0  0  0  0
    2.6977   14.6263    5.5803 H   0  0  0  0  0  0  0  0  0  0  0  0
    1.4485   14.6247    4.2517 H   0  0  0  0  0  0  0  0  0  0  0  0
    3.8527   12.1559    4.9968 C   0  0  0  0  0  0  0  0  0  0  0  0
    4.6457   12.4132    4.2979 H   0  0  0  0  0  0  0  0  0  0  0  0
    3.8089   11.0709    5.0804 H   0  0  0  0  0  0  0  0  0  0  0  0
    4.1072   12.5726    5.9696 H   0  0  0  0  0  0  0  0  0  0  0  0
    2.0788   12.1508    3.1597 C   0  0  0  0  0  0  0  0  0  0  0  0
    1.0991   12.5816    2.9058 H   0  0  0  0  0  0  0  0  0  0  0  0
    1.9996   11.0623    3.2110 H   0  0  0  0  0  0  0  0  0  0  0  0
    2.7904   12.4164    2.3803 H   0  0  0  0  0  0  0  0  0  0  0  0
   -0.0251   10.2892    5.5869 C   0  0  0  0  0  0  0  0  0  0  0  0
    0.9710    9.7788    6.4124 C   0  0  0  0  0  0  0  0  0  0  0  0
    1.7671   10.4157    6.7822 H   0  0  0  0  0  0  0  0  0  0  0  0
    0.9846    8.4417    6.7865 C   0  0  0  0  0  0  0  0  0  0  0  0
    1.7749    8.0721    7.4258 H   0  0  0  0  0  0  0  0  0  0  0  0
   -0.0070    7.5822    6.3517 C   0  0  0  0  0  0  0  0  0  0  0  0
    0.0023    6.5435    6.6487 H   0  0  0  0  0  0  0  0  0  0  0  0
   -1.0154    8.0630    5.5335 C   0  0  0  0  0  0  0  0  0  0  0  0
   -1.7983    7.4008    5.1875 H   0  0  0  0  0  0  0  0  0  0  0  0
   -1.0192    9.3965    5.1599 C   0  0  0  0  0  0  0  0  0  0  0  0
   -2.0541    9.9671    4.2193 C   0  0  2  0  0  0  0  0  0  0  0  0
   -2.9995    9.4006    4.2586 H   0  0  0  0  0  0  0  0  0  0  0  0
   -1.4736    9.8995    2.8020 C   0  0  0  0  0  0  0  0  0  0  0  0
   -0.6701   10.6431    2.7168 H   0  0  0  0  0  0  0  0  0  0  0  0
   -2.2254   10.0841    2.0389 H   0  0  0  0  0  0  0  0  0  0  0  0
   -1.0499    8.9118    2.6346 H   0  0  0  0  0  0  0  0  0  0  0  0
   -3.1442   12.0657    3.6503 C   0  0  0  0  0  0  0  0  0  0  0  0
   -4.0634   11.4952    3.4640 H   0  0  0  0  0  0  0  0  0  0  0  0
   -2.6109   12.2208    2.7134 H   0  0  0  0  0  0  0  0  0  0  0  0
   -3.4074   13.0481    4.0412 H   0  0  0  0  0  0  0  0  0  0  0  0
   -2.9618   11.4224    5.9268 C   0  0  0  0  0  0  0  0  0  0  0  0
   -2.9872   12.4604    6.2755 H   0  0  0  0  0  0  0  0  0  0  0  0
   -2.4197   10.8123    6.6540 H   0  0  0  0  0  0  0  0  0  0  0  0
   -3.9920   11.0475    5.8507 H   0  0  0  0  0  0  0  0  0  0  0  0
  1  2  1  6  0  0  0
  1  3  1  0  0  0  0
  1 18  1  0  0  0  0
  3  4  1  1  0  0  0
  5  1  1  0  0  0  0
  5 38  1  0  0  0  0
  6  7  1  0  0  0  0
  6 10  1  0  0  0  0
  6  3  1  0  0  0  0
  7  3  1  0  0  0  0
  7  8  1  0  0  0  0
  9  7  1  0  0  0  0
 10 12  1  0  0  0  0
 10 13  1  0  0  0  0
 11 10  1  0  0  0  0
 14 16  1  0  0  0  0
 14  6  1  0  0  0  0
 15 14  1  0  0  0  0
 17 14  1  0  0  0  0
 18 19  1  0  0  0  0
 19 20  1  0  0  0  0
 19 21  2  0  0  0  0
 21 22  1  0  0  0  0
 23 24  1  0  0  0  0
 23 21  1  0  0  0  0
 25 23  2  0  0  0  0
 26 25  1  0  0  0  0
 27 25  1  0  0  0  0
 27 18  2  0  0  0  0
 28 29  1  1  0  0  0
 28  5  1  0  0  0  0
 28 27  1  0  0  0  0
 30 28  1  0  0  0  0
 31 30  1  0  0  0  0
 32 30  1  0  0  0  0
 33 30  1  0  0  0  0
 34 37  1  0  0  0  0
 34  5  1  0  0  0  0
 35 34  1  0  0  0  0
 36 34  1  0  0  0  0
 38 39  1  0  0  0  0
 38 40  1  0  0  0  0
 41 38  1  0  0  0  0
M  END
$$$$
