CSD_code = BARCOO | q = 0 | S = 0 | Stoichiometry = C16H14Cl2N2Pd | MND = 4
 OpenBabel04212202003D

 35 38  0  0  1  0  0  0  0  0999 V2000
    7.9751    1.4258    7.3028 Pd  0  0  0  0  0  0  0  0  0  0  0  0
    8.7904    2.2882    5.3522 Cl  0  0  0  0  0  0  0  0  0  0  0  0
    7.1523    0.5660    9.2526 Cl  0  0  0  0  0  0  0  0  0  0  0  0
    8.9467    2.7110    8.3424 N   0  0  0  0  0  0  0  0  0  0  0  0
    7.0063    0.1389    6.2638 N   0  0  0  0  0  0  0  0  0  0  0  0
    9.1619    3.0812    9.7613 C   0  0  0  0  0  0  0  0  0  0  0  0
    8.3290    3.5454   10.2777 H   0  0  0  0  0  0  0  0  0  0  0  0
    9.7575    2.4010   10.3598 H   0  0  0  0  0  0  0  0  0  0  0  0
    9.7244    3.6973    8.5597 C   0  0  2  0  0  3  0  0  0  0  0  0
   10.5568    4.7006    8.0122 C   0  0  0  0  0  0  0  0  0  0  0  0
   11.2131    5.5920    8.8733 C   0  0  0  0  0  0  0  0  0  0  0  0
   11.0737    5.4984    9.9404 H   0  0  0  0  0  0  0  0  0  0  0  0
   12.0261    6.5756    8.3508 C   0  0  0  0  0  0  0  0  0  0  0  0
   12.5321    7.2636    9.0115 H   0  0  0  0  0  0  0  0  0  0  0  0
   12.1941    6.6822    6.9766 C   0  0  0  0  0  0  0  0  0  0  0  0
   12.8319    7.4551    6.5738 H   0  0  0  0  0  0  0  0  0  0  0  0
   11.5473    5.8019    6.1210 C   0  0  0  0  0  0  0  0  0  0  0  0
   11.6823    5.8897    5.0538 H   0  0  0  0  0  0  0  0  0  0  0  0
   10.7294    4.8110    6.6253 C   0  0  0  0  0  0  0  0  0  0  0  0
   10.2188    4.1177    5.9714 H   0  0  0  0  0  0  0  0  0  0  0  0
    6.7924   -0.2304    4.8445 C   0  0  0  0  0  0  0  0  0  0  0  0
    6.1919    0.4470    4.2476 H   0  0  0  0  0  0  0  0  0  0  0  0
    7.6279   -0.6882    4.3268 H   0  0  0  0  0  0  0  0  0  0  0  0
    6.2349   -0.8521    6.0457 C   0  0  1  0  0  3  0  0  0  0  0  0
    5.4082   -1.8620    6.5894 C   0  0  0  0  0  0  0  0  0  0  0  0
    5.2391   -1.9829    7.9758 C   0  0  0  0  0  0  0  0  0  0  0  0
    5.7482   -1.2921    8.6336 H   0  0  0  0  0  0  0  0  0  0  0  0
    4.4258   -2.9805    8.4744 C   0  0  0  0  0  0  0  0  0  0  0  0
    4.2934   -3.0772    9.5411 H   0  0  0  0  0  0  0  0  0  0  0  0
    3.7799   -3.8566    7.6138 C   0  0  0  0  0  0  0  0  0  0  0  0
    3.1453   -4.6343    8.0120 H   0  0  0  0  0  0  0  0  0  0  0  0
    3.9447   -3.7396    6.2400 C   0  0  0  0  0  0  0  0  0  0  0  0
    3.4394   -4.4240    5.5751 H   0  0  0  0  0  0  0  0  0  0  0  0
    4.7535   -2.7497    5.7231 C   0  0  0  0  0  0  0  0  0  0  0  0
    4.8909   -2.6474    4.6566 H   0  0  0  0  0  0  0  0  0  0  0  0
  1  4  1  0  0  0  0
  1  3  1  0  0  0  0
  2  1  1  0  0  0  0
  4  9  1  0  0  0  0
  4  6  1  0  0  0  0
  5  1  1  0  0  0  0
  6  7  1  0  0  0  0
  6  8  1  0  0  0  0
  9 10  1  6  0  0  0
  9  6  1  0  0  0  0
 10 11  1  0  0  0  0
 11 12  1  0  0  0  0
 13 11  2  0  0  0  0
 13 14  1  0  0  0  0
 15 13  1  0  0  0  0
 16 15  1  0  0  0  0
 17 19  1  0  0  0  0
 17 15  2  0  0  0  0
 18 17  1  0  0  0  0
 19 10  2  0  0  0  0
 20 19  1  0  0  0  0
 21 24  1  0  0  0  0
 21  5  1  0  0  0  0
 22 21  1  0  0  0  0
 23 21  1  0  0  0  0
 24  5  1  0  0  0  0
 24 25  1  1  0  0  0
 25 26  1  0  0  0  0
 26 28  2  0  0  0  0
 26 27  1  0  0  0  0
 28 29  1  0  0  0  0
 30 31  1  0  0  0  0
 30 28  1  0  0  0  0
 32 30  2  0  0  0  0
 33 32  1  0  0  0  0
 34 32  1  0  0  0  0
 34 25  2  0  0  0  0
 35 34  1  0  0  0  0
M  END
$$$$
