CSD_code = BARGAE | q = 0 | S = 0 | Stoichiometry = C24H19BrN2NiS2 | MND = 4
 OpenBabel04212202003D

 49 55  0  0  1  0  0  0  0  0999 V2000
    5.9426    6.5155   14.5621 Ni  0  0  2  0  0  0  0  0  0  0  0  0
    5.9573    6.5526   16.7745 Br  0  0  0  0  0  0  0  0  0  0  0  0
    5.9362    6.4854   12.7310 C   0  0  0  0  0  0  0  0  0  0  0  0
    5.8273    7.6804   12.0171 C   0  0  0  0  0  0  0  0  0  0  0  0
    5.8251    7.6601   10.6264 C   0  0  0  0  0  0  0  0  0  0  0  0
    5.7403    8.5820   10.0694 H   0  0  0  0  0  0  0  0  0  0  0  0
    5.9277    6.4401    9.9709 C   0  0  0  0  0  0  0  0  0  0  0  0
    5.9244    6.4223    8.8913 H   0  0  0  0  0  0  0  0  0  0  0  0
    6.0343    5.2422   10.6655 C   0  0  0  0  0  0  0  0  0  0  0  0
    6.1155    4.3024   10.1386 H   0  0  0  0  0  0  0  0  0  0  0  0
    6.0406    5.2675   12.0561 C   0  0  0  0  0  0  0  0  0  0  0  0
    5.6925    8.7696   12.9569 C   0  0  2  0  0  3  0  0  0  0  0  0
    5.7457    8.4480   14.2099 N   0  0  1  0  0  0  0  0  0  0  0  0
    5.4065   10.4379   12.5866 S   0  0  0  0  0  0  0  0  0  0  0  0
    5.4749   10.8468   14.3640 C   0  0  0  0  0  0  0  0  0  0  0  0
    6.4105   11.3779   14.5413 H   0  0  0  0  0  0  0  0  0  0  0  0
    4.6358   11.4982   14.5991 H   0  0  0  0  0  0  0  0  0  0  0  0
    5.4075    9.5062   15.1280 C   0  0  1  0  0  0  0  0  0  0  0  0
    6.1328    9.5095   15.9517 H   0  0  0  0  0  0  0  0  0  0  0  0
    4.0271    9.2842   15.7278 C   0  0  0  0  0  0  0  0  0  0  0  0
    3.2152    8.2267   15.3440 C   0  0  0  0  0  0  0  0  0  0  0  0
    3.5605    7.5001   14.6081 H   0  0  0  0  0  0  0  0  0  0  0  0
    1.9650    8.0629   15.9139 C   0  0  0  0  0  0  0  0  0  0  0  0
    1.3459    7.2307   15.6132 H   0  0  0  0  0  0  0  0  0  0  0  0
    1.5129    8.9566   16.8676 C   0  0  0  0  0  0  0  0  0  0  0  0
    0.5375    8.8274   17.3122 H   0  0  0  0  0  0  0  0  0  0  0  0
    2.3219   10.0095   17.2605 C   0  0  0  0  0  0  0  0  0  0  0  0
    1.9817   10.7027   18.0154 H   0  0  0  0  0  0  0  0  0  0  0  0
    3.5734   10.1705   16.6966 C   0  0  0  0  0  0  0  0  0  0  0  0
    4.2103   10.9822   17.0188 H   0  0  0  0  0  0  0  0  0  0  0  0
    6.1790    4.2096   13.0304 C   0  0  0  0  0  0  0  0  0  0  0  0
    6.1345    4.5723   14.2725 N   0  0  0  0  0  0  0  0  0  0  0  0
    6.4561    2.5287   12.7135 S   0  0  0  0  0  0  0  0  0  0  0  0
    6.3941    2.1785   14.5035 C   0  0  0  0  0  0  0  0  0  0  0  0
    5.4564    1.6589   14.7025 H   0  0  0  0  0  0  0  0  0  0  0  0
    7.2306    1.5303   14.7562 H   0  0  0  0  0  0  0  0  0  0  0  0
    6.4728    3.5430   15.2228 C   0  0  1  0  0  0  0  0  0  0  0  0
    5.7522    3.5704   16.0503 H   0  0  0  0  0  0  0  0  0  0  0  0
    7.8578    3.7764   15.8071 C   0  0  0  0  0  0  0  0  0  0  0  0
    8.6773    4.8102   15.3776 C   0  0  0  0  0  0  0  0  0  0  0  0
    8.3346    5.5102   14.6156 H   0  0  0  0  0  0  0  0  0  0  0  0
    9.9321    4.9841   15.9341 C   0  0  0  0  0  0  0  0  0  0  0  0
   10.5574    5.7977   15.5975 H   0  0  0  0  0  0  0  0  0  0  0  0
   10.3810    4.1245   16.9202 C   0  0  0  0  0  0  0  0  0  0  0  0
   11.3599    4.2620   17.3544 H   0  0  0  0  0  0  0  0  0  0  0  0
    9.5643    3.0958   17.3586 C   0  0  0  0  0  0  0  0  0  0  0  0
    9.9021    2.4299   18.1387 H   0  0  0  0  0  0  0  0  0  0  0  0
    8.3084    2.9246   16.8077 C   0  0  0  0  0  0  0  0  0  0  0  0
    7.6658    2.1321   17.1645 H   0  0  0  0  0  0  0  0  0  0  0  0
  1  2  1  6  0  0  0
  3  1  2  0  0  0  0
  4  3  1  0  0  0  0
  5  4  2  0  0  0  0
  6  5  1  0  0  0  0
  7  5  1  0  0  0  0
  7  9  2  0  0  0  0
  8  7  1  0  0  0  0
  9 11  1  0  0  0  0
 10  9  1  0  0  0  0
 11  3  1  0  0  0  0
 11 31  2  0  0  0  0
 12  4  1  6  0  0  0
 12 13  1  0  0  0  0
 13  1  1  0  0  0  0
 13 18  1  0  0  0  0
 14 12  1  0  0  0  0
 14 15  1  0  0  0  0
 15 16  1  0  0  0  0
 15 17  1  0  0  0  0
 15 18  1  0  0  0  0
 18 20  1  0  0  0  0
 18 19  1  0  0  0  0
 20 29  1  0  0  0  0
 21 20  2  0  0  0  0
 21 23  1  0  0  0  0
 22 21  1  0  0  0  0
 23 25  2  0  0  0  0
 24 23  1  0  0  0  0
 25 27  1  0  0  0  0
 25 26  1  0  0  0  0
 27 28  1  0  0  0  0
 29 30  1  0  0  0  0
 29 27  2  0  0  0  0
 31 32  1  0  0  0  0
 32  1  1  0  0  0  0
 32 37  1  0  0  0  0
 33 31  1  0  0  0  0
 33 34  1  0  0  0  0
 34 35  1  0  0  0  0
 34 36  1  0  0  0  0
 34 37  1  0  0  0  0
 37 39  1  0  0  0  0
 37 38  1  0  0  0  0
 39 48  1  0  0  0  0
 40 39  2  0  0  0  0
 40 42  1  0  0  0  0
 41 40  1  0  0  0  0
 42 44  2  0  0  0  0
 43 42  1  0  0  0  0
 44 45  1  0  0  0  0
 44 46  1  0  0  0  0
 46 47  1  0  0  0  0
 48 49  1  0  0  0  0
 48 46  2  0  0  0  0
M  END
$$$$
