CSD_code = BARMIQ | q = 0 | S = 0 | Stoichiometry = C14H10AuCl2N3 | MND = 4
 OpenBabel04212202003D

 30 33  0  0  1  0  0  0  0  0999 V2000
    2.6774    7.3927    4.7342 Au  0  0  0  0  0  0  0  0  0  0  0  0
    4.2388    6.5627    3.3919 Cl  0  0  0  0  0  0  0  0  0  0  0  0
    1.5551    5.3592    4.8786 Cl  0  0  0  0  0  0  0  0  0  0  0  0
    1.2061    8.2043    5.8746 N   0  0  0  0  0  0  0  0  0  0  0  0
   -0.6172    9.7049    5.7353 N   0  0  0  0  0  0  0  0  0  0  0  0
    1.3315   10.2317    4.7124 N   0  0  0  0  0  0  0  0  0  0  0  0
    3.5301    9.2077    4.6110 C   0  0  0  0  0  0  0  0  0  0  0  0
    4.9221    9.3547    4.5370 C   0  0  0  0  0  3  0  0  0  0  0  0
    5.4878   10.5840    4.3493 C   0  0  0  0  0  0  0  0  0  0  0  0
    4.6875   11.7365    4.2295 C   0  0  0  0  0  0  0  0  0  0  0  0
    5.2651   13.0058    4.0146 C   0  0  0  0  0  0  0  0  0  0  0  0
    4.4885   14.1254    3.9236 C   0  0  0  0  0  0  0  0  0  0  0  0
    3.0972   14.0172    4.0496 C   0  0  0  0  0  0  0  0  0  0  0  0
    2.5055   12.8005    4.2565 C   0  0  0  0  0  0  0  0  0  0  0  0
    3.2767   11.6207    4.3428 C   0  0  0  0  0  0  0  0  0  0  0  0
    2.7215   10.3179    4.5499 C   0  0  0  0  0  0  0  0  0  0  0  0
    0.6416    9.3551    5.4526 C   0  0  1  0  0  3  0  0  0  0  0  0
   -1.3081    8.9347    6.5420 C   0  0  0  0  0  0  0  0  0  0  0  0
   -0.7545    7.8039    7.1421 C   0  0  0  0  0  0  0  0  0  0  0  0
    0.5160    7.4543    6.7416 C   0  0  0  0  0  0  0  0  0  0  0  0
    0.7913   11.0469    4.4517 H   0  0  0  0  0  0  0  0  0  0  0  0
    5.5473    8.4796    4.5986 H   0  0  0  0  0  0  0  0  0  0  0  0
    6.5604   10.6819    4.2783 H   0  0  0  0  0  0  0  0  0  0  0  0
    6.3393   13.0706    3.9244 H   0  0  0  0  0  0  0  0  0  0  0  0
    4.9354   15.0936    3.7572 H   0  0  0  0  0  0  0  0  0  0  0  0
    2.4870   14.9056    3.9834 H   0  0  0  0  0  0  0  0  0  0  0  0
    1.4295   12.7719    4.3543 H   0  0  0  0  0  0  0  0  0  0  0  0
   -2.3307    9.2381    6.7192 H   0  0  0  0  0  0  0  0  0  0  0  0
   -1.3019    7.2005    7.8440 H   0  0  0  0  0  0  0  0  0  0  0  0
    0.9951    6.5482    7.0767 H   0  0  0  0  0  0  0  0  0  0  0  0
  1  3  1  0  0  0  0
  1  4  1  0  0  0  0
  2  1  1  0  0  0  0
  4 20  1  0  0  0  0
  5 18  2  0  0  0  0
  6 17  1  0  0  0  0
  7  1  2  0  0  0  0
  8 22  1  0  0  0  0
  8  7  1  0  0  0  0
  9  8  1  0  0  0  0
 10 15  1  0  0  0  0
 10  9  2  0  0  0  0
 11 10  1  0  0  0  0
 12 11  2  0  0  0  0
 12 13  1  0  0  0  0
 13 14  2  0  0  0  0
 14 15  1  0  0  0  0
 14 27  1  0  0  0  0
 15 16  2  0  0  0  0
 16  7  1  0  0  0  0
 16  6  1  0  0  0  0
 17  5  1  1  0  0  0
 17  4  1  0  0  0  0
 18 28  1  0  0  0  0
 18 19  1  0  0  0  0
 19 29  1  0  0  0  0
 20 30  1  0  0  0  0
 20 19  2  0  0  0  0
 21  6  1  0  0  0  0
 23  9  1  0  0  0  0
 24 11  1  0  0  0  0
 25 12  1  0  0  0  0
 26 13  1  0  0  0  0
M  END
$$$$
