CSD_code = BARQIV | q = 0 | S = 0 | Stoichiometry = C14H26Cl2NPTi | MND = 8
 OpenBabel04212202003D

 45 45  0  0  1  0  0  0  0  0999 V2000
    7.7531    1.5901   11.6005 Ti  0  0  0  0  0  0  0  0  0  0  0  0
    7.7220   -0.1228   10.2413 Cl  0  0  0  0  0  0  0  0  0  0  0  0
    9.8384    2.1599   11.2306 Cl  0  0  0  0  0  0  0  0  0  0  0  0
    6.3263    3.2370    9.3486 P   0  0  0  0  0  4  0  0  0  0  0  0
    6.8522    2.8707   10.7753 N   0  0  0  0  0  2  0  0  0  0  0  0
    7.6820    3.6708    8.1308 C   0  0  0  0  0  0  0  0  0  0  0  0
    4.5866    2.1939    7.3227 C   0  0  0  0  0  0  0  0  0  0  0  0
    5.3699    1.8235    8.5745 C   0  0  0  0  0  0  0  0  0  0  0  0
    8.1152    0.2975   13.5408 C   0  0  0  0  0  0  0  0  0  0  0  0
    7.1705    2.3710   13.7023 C   0  0  1  0  0  0  0  0  0  0  0  0
    6.1663    1.4630   13.2867 C   0  0  0  0  0  0  0  0  0  0  0  0
    8.5023    2.4314    7.7931 C   0  0  0  0  0  0  0  0  0  0  0  0
    5.3115    4.7962    9.5396 C   0  0  0  0  0  0  0  0  0  0  0  0
    4.9272    5.5535    8.2770 C   0  0  0  0  0  0  0  0  0  0  0  0
    6.7558    0.1828   13.1841 C   0  0  0  0  0  0  0  0  0  0  0  0
    4.1018    4.4863   10.4141 C   0  0  0  0  0  0  0  0  0  0  0  0
    8.3695    1.6415   13.8677 C   0  0  0  0  0  0  0  0  0  0  0  0
    8.5542    4.7171    8.8173 C   0  0  0  0  0  0  0  0  0  0  0  0
    4.4982    1.1390    9.6220 C   0  0  0  0  0  0  0  0  0  0  0  0
    7.2431    4.0834    7.2167 H   0  0  0  0  0  0  0  0  0  0  0  0
    5.2011    2.7589    6.6257 H   0  0  0  0  0  0  0  0  0  0  0  0
    3.7073    2.7826    7.5742 H   0  0  0  0  0  0  0  0  0  0  0  0
    4.2483    1.2884    6.8209 H   0  0  0  0  0  0  0  0  0  0  0  0
    6.1701    1.1183    8.3124 H   0  0  0  0  0  0  0  0  0  0  0  0
    8.8183   -0.5218   13.6291 H   0  0  0  0  0  0  0  0  0  0  0  0
    7.0136    3.4088   13.9745 H   0  0  0  0  0  0  0  0  0  0  0  0
    5.1091    1.6851   13.1998 H   0  0  0  0  0  0  0  0  0  0  0  0
    7.9491    1.7395    7.1613 H   0  0  0  0  0  0  0  0  0  0  0  0
    8.7952    1.9168    8.7129 H   0  0  0  0  0  0  0  0  0  0  0  0
    9.4083    2.7208    7.2624 H   0  0  0  0  0  0  0  0  0  0  0  0
    5.9985    5.4137   10.1356 H   0  0  0  0  0  0  0  0  0  0  0  0
    5.8009    5.8031    7.6805 H   0  0  0  0  0  0  0  0  0  0  0  0
    4.4335    6.4847    8.5535 H   0  0  0  0  0  0  0  0  0  0  0  0
    4.2397    4.9805    7.6619 H   0  0  0  0  0  0  0  0  0  0  0  0
    6.2306   -0.7418   12.9717 H   0  0  0  0  0  0  0  0  0  0  0  0
    4.4092    3.8353   11.2336 H   0  0  0  0  0  0  0  0  0  0  0  0
    3.3192    3.9960    9.8390 H   0  0  0  0  0  0  0  0  0  0  0  0
    3.6876    5.4023   10.8330 H   0  0  0  0  0  0  0  0  0  0  0  0
    9.2997    2.0366   14.2580 H   0  0  0  0  0  0  0  0  0  0  0  0
    8.0109    5.6459    8.9821 H   0  0  0  0  0  0  0  0  0  0  0  0
    9.4322    4.9379    8.2124 H   0  0  0  0  0  0  0  0  0  0  0  0
    8.8857    4.3276    9.7835 H   0  0  0  0  0  0  0  0  0  0  0  0
    5.0824    0.9910   10.5378 H   0  0  0  0  0  0  0  0  0  0  0  0
    4.1779    0.1647    9.2565 H   0  0  0  0  0  0  0  0  0  0  0  0
    3.6127    1.7263    9.8534 H   0  0  0  0  0  0  0  0  0  0  0  0
  1 10  1  0  0  0  0
  2  1  1  0  0  0  0
  3  1  1  0  0  0  0
  4 13  1  0  0  0  0
  4  5  1  0  0  0  0
  5  1  1  0  0  0  0
  6 18  1  0  0  0  0
  6  4  1  0  0  0  0
  7 22  1  0  0  0  0
  7  8  1  0  0  0  0
  8  4  1  0  0  0  0
  8 19  1  0  0  0  0
  9 25  1  0  0  0  0
  9 17  2  0  0  0  0
 10 17  1  0  0  0  0
 10 26  1  1  0  0  0
 11 10  1  0  0  0  0
 12  6  1  0  0  0  0
 12 29  1  0  0  0  0
 13 31  1  0  0  0  0
 13 16  1  0  0  0  0
 14 33  1  0  0  0  0
 14 13  1  0  0  0  0
 15 11  2  0  0  0  0
 15  9  1  0  0  0  0
 16 38  1  0  0  0  0
 16 36  1  0  0  0  0
 17 39  1  0  0  0  0
 18 40  1  0  0  0  0
 18 42  1  0  0  0  0
 19 45  1  0  0  0  0
 19 43  1  0  0  0  0
 20  6  1  0  0  0  0
 21  7  1  0  0  0  0
 23  7  1  0  0  0  0
 24  8  1  0  0  0  0
 27 11  1  0  0  0  0
 28 12  1  0  0  0  0
 30 12  1  0  0  0  0
 32 14  1  0  0  0  0
 34 14  1  0  0  0  0
 35 15  1  0  0  0  0
 37 16  1  0  0  0  0
 41 18  1  0  0  0  0
 44 19  1  0  0  0  0
M  END
$$$$
