CSD_code = BARRAO | q = 0 | S = 0 | Stoichiometry = C22H42Cl2NPTi | MND = 8
 OpenBabel04212202003D

 69 69  0  0  1  0  0  0  0  0999 V2000
    0.1135    3.8774    3.1545 Ti  0  0  0  0  0  0  0  0  0  0  0  0
   -2.4120    1.8130    3.2646 P   0  0  0  0  0  4  0  0  0  0  0  0
   -1.2478    2.7864    2.9045 N   0  0  0  0  0  2  0  0  0  0  0  0
    2.2364    4.6086    2.4334 C   0  0  0  0  0  0  0  0  0  0  0  0
    1.7928    3.5268    1.6229 C   0  0  1  0  0  3  0  0  0  0  0  0
    0.6195    3.9462    0.9283 C   0  0  2  0  0  0  0  0  0  0  0  0
    0.3240    5.2761    1.3544 C   0  0  1  0  0  3  0  0  0  0  0  0
    1.3384    5.6825    2.2663 C   0  0  0  0  0  0  0  0  0  0  0  0
    3.5149    4.6356    3.2167 C   0  0  0  0  0  0  0  0  0  0  0  0
    2.5468    2.2405    1.4345 C   0  0  0  0  0  0  0  0  0  0  0  0
    0.0023    3.2480   -0.2506 C   0  0  0  0  0  0  0  0  0  0  0  0
   -0.7632    6.1727    0.8327 C   0  0  0  0  0  0  0  0  0  0  0  0
    1.4944    7.0616    2.8341 C   0  0  0  0  0  0  0  0  0  0  0  0
   -3.7418    2.0273    1.8822 C   0  0  0  0  0  0  0  0  0  0  0  0
   -3.1720    1.3729    0.6235 C   0  0  0  0  0  0  0  0  0  0  0  0
   -3.8367    3.5298    1.5944 C   0  0  0  0  0  0  0  0  0  0  0  0
   -5.1199    1.4387    2.1632 C   0  0  0  0  0  0  0  0  0  0  0  0
   -3.1941    2.2272    4.9784 C   0  0  0  0  0  0  0  0  0  0  0  0
   -4.1564    1.1744    5.5221 C   0  0  0  0  0  0  0  0  0  0  0  0
   -2.0741    2.4824    5.9890 C   0  0  0  0  0  0  0  0  0  0  0  0
   -3.9279    3.5575    4.8002 C   0  0  0  0  0  0  0  0  0  0  0  0
   -1.7106    0.0195    3.2695 C   0  0  0  0  0  0  0  0  0  0  0  0
   -2.7443   -1.0945    3.1383 C   0  0  0  0  0  0  0  0  0  0  0  0
   -0.6707   -0.0564    2.1497 C   0  0  0  0  0  0  0  0  0  0  0  0
   -0.9397   -0.1587    4.5780 C   0  0  0  0  0  0  0  0  0  0  0  0
   -0.8163    5.4466    4.4013 Cl  0  0  0  0  0  0  0  0  0  0  0  0
    1.2604    2.8394    4.7331 Cl  0  0  0  0  0  0  0  0  0  0  0  0
    4.3313    5.0013    2.5878 H   0  0  0  0  0  0  0  0  0  0  0  0
    3.7778    3.6394    3.5709 H   0  0  0  0  0  0  0  0  0  0  0  0
    3.4345    5.2952    4.0809 H   0  0  0  0  0  0  0  0  0  0  0  0
    3.5334    2.4435    1.0124 H   0  0  0  0  0  0  0  0  0  0  0  0
    2.0200    1.5695    0.7585 H   0  0  0  0  0  0  0  0  0  0  0  0
    2.6885    1.7289    2.3900 H   0  0  0  0  0  0  0  0  0  0  0  0
    0.5380    3.5303   -1.1617 H   0  0  0  0  0  0  0  0  0  0  0  0
   -1.0418    3.5299   -0.3747 H   0  0  0  0  0  0  0  0  0  0  0  0
    0.0623    2.1652   -0.1489 H   0  0  0  0  0  0  0  0  0  0  0  0
   -0.3321    6.9800    0.2354 H   0  0  0  0  0  0  0  0  0  0  0  0
   -1.3223    6.6232    1.6568 H   0  0  0  0  0  0  0  0  0  0  0  0
   -1.4617    5.6213    0.2049 H   0  0  0  0  0  0  0  0  0  0  0  0
    2.1303    7.6644    2.1797 H   0  0  0  0  0  0  0  0  0  0  0  0
    1.9575    7.0333    3.8206 H   0  0  0  0  0  0  0  0  0  0  0  0
    0.5299    7.5593    2.9253 H   0  0  0  0  0  0  0  0  0  0  0  0
   -3.7568    1.6727   -0.2468 H   0  0  0  0  0  0  0  0  0  0  0  0
   -3.2059    0.2889    0.6767 H   0  0  0  0  0  0  0  0  0  0  0  0
   -2.1466    1.7009    0.4790 H   0  0  0  0  0  0  0  0  0  0  0  0
   -4.1667    3.6932    0.5688 H   0  0  0  0  0  0  0  0  0  0  0  0
   -2.8508    3.9880    1.7231 H   0  0  0  0  0  0  0  0  0  0  0  0
   -4.5411    4.0343    2.2467 H   0  0  0  0  0  0  0  0  0  0  0  0
   -5.7339    1.5358    1.2670 H   0  0  0  0  0  0  0  0  0  0  0  0
   -5.6316    1.9604    2.9668 H   0  0  0  0  0  0  0  0  0  0  0  0
   -5.0588    0.3833    2.4141 H   0  0  0  0  0  0  0  0  0  0  0  0
   -4.6216    1.5619    6.4287 H   0  0  0  0  0  0  0  0  0  0  0  0
   -3.6407    0.2555    5.7866 H   0  0  0  0  0  0  0  0  0  0  0  0
   -4.9455    0.9390    4.8149 H   0  0  0  0  0  0  0  0  0  0  0  0
   -2.4660    3.0669    6.8210 H   0  0  0  0  0  0  0  0  0  0  0  0
   -1.2722    3.0601    5.5235 H   0  0  0  0  0  0  0  0  0  0  0  0
   -1.6562    1.5701    6.4003 H   0  0  0  0  0  0  0  0  0  0  0  0
   -4.2052    3.9542    5.7765 H   0  0  0  0  0  0  0  0  0  0  0  0
   -4.8414    3.4473    4.2243 H   0  0  0  0  0  0  0  0  0  0  0  0
   -3.2683    4.2807    4.3194 H   0  0  0  0  0  0  0  0  0  0  0  0
   -2.2443   -2.0560    3.2581 H   0  0  0  0  0  0  0  0  0  0  0  0
   -3.2266   -1.0955    2.1650 H   0  0  0  0  0  0  0  0  0  0  0  0
   -3.5110   -1.0180    3.9039 H   0  0  0  0  0  0  0  0  0  0  0  0
   -0.0167   -0.9121    2.3134 H   0  0  0  0  0  0  0  0  0  0  0  0
   -0.0628    0.8540    2.1744 H   0  0  0  0  0  0  0  0  0  0  0  0
   -1.1185   -0.1676    1.1677 H   0  0  0  0  0  0  0  0  0  0  0  0
   -0.3313   -1.0618    4.5213 H   0  0  0  0  0  0  0  0  0  0  0  0
   -1.6047   -0.2719    5.4286 H   0  0  0  0  0  0  0  0  0  0  0  0
   -0.2719    0.6883    4.7374 H   0  0  0  0  0  0  0  0  0  0  0  0
  1 26  1  0  0  0  0
  1 27  1  0  0  0  0
  2 22  1  0  0  0  0
  2 18  1  0  0  0  0
  3  1  1  0  0  0  0
  3  2  1  0  0  0  0
  4  9  1  0  0  0  0
  5 10  1  6  0  0  0
  5  4  1  0  0  0  0
  6 11  1  6  0  0  0
  6  7  1  0  0  0  0
  6  5  1  0  0  0  0
  6  1  1  0  0  0  0
  7 12  1  6  0  0  0
  7  8  1  0  0  0  0
  8  4  2  0  0  0  0
  8 13  1  0  0  0  0
  9 29  1  0  0  0  0
  9 30  1  0  0  0  0
 10 33  1  0  0  0  0
 11 36  1  0  0  0  0
 12 38  1  0  0  0  0
 13 42  1  0  0  0  0
 13 41  1  0  0  0  0
 14 17  1  0  0  0  0
 14  2  1  0  0  0  0
 15 44  1  0  0  0  0
 15 14  1  0  0  0  0
 16 47  1  0  0  0  0
 16 14  1  0  0  0  0
 16 48  1  0  0  0  0
 17 51  1  0  0  0  0
 17 50  1  0  0  0  0
 18 19  1  0  0  0  0
 18 20  1  0  0  0  0
 19 53  1  0  0  0  0
 19 52  1  0  0  0  0
 20 57  1  0  0  0  0
 20 55  1  0  0  0  0
 21 18  1  0  0  0  0
 21 58  1  0  0  0  0
 22 25  1  0  0  0  0
 23 61  1  0  0  0  0
 23 22  1  0  0  0  0
 23 63  1  0  0  0  0
 24 65  1  0  0  0  0
 24 64  1  0  0  0  0
 24 22  1  0  0  0  0
 25 69  1  0  0  0  0
 25 68  1  0  0  0  0
 28  9  1  0  0  0  0
 31 10  1  0  0  0  0
 32 10  1  0  0  0  0
 34 11  1  0  0  0  0
 35 11  1  0  0  0  0
 37 12  1  0  0  0  0
 39 12  1  0  0  0  0
 40 13  1  0  0  0  0
 43 15  1  0  0  0  0
 45 15  1  0  0  0  0
 46 16  1  0  0  0  0
 49 17  1  0  0  0  0
 54 19  1  0  0  0  0
 56 20  1  0  0  0  0
 59 21  1  0  0  0  0
 60 21  1  0  0  0  0
 62 23  1  0  0  0  0
 66 24  1  0  0  0  0
 67 25  1  0  0  0  0
M  END
$$$$
