CSD_code = BARRES | q = 0 | S = 0 | Stoichiometry = C18H28Cl2NPTi | MND = 8
 OpenBabel04212202003D

 51 53  0  0  1  0  0  0  0  0999 V2000
    5.5789    0.2353    5.3513 Ti  0  0  0  0  0  0  0  0  0  0  0  0
    6.1174    2.2454    6.0360 Cl  0  0  0  0  0  0  0  0  0  0  0  0
    7.1274   -0.8300    6.4660 Cl  0  0  0  0  0  0  0  0  0  0  0  0
    3.2620    0.2832    7.4573 P   0  0  0  0  0  4  0  0  0  0  0  0
    4.0845   -0.1642    6.2040 N   0  0  0  0  0  2  0  0  0  0  0  0
    5.2006   -1.1451    3.5323 C   0  0  1  0  0  0  0  0  0  0  0  0
    4.4118    0.0133    3.3466 C   0  0  0  0  0  3  0  0  0  0  0  0
    5.2531    1.1398    3.2455 C   0  0  2  0  0  0  0  0  0  0  0  0
    6.6045    0.6742    3.2554 C   0  0  0  0  0  0  0  0  0  0  0  0
    6.5711   -0.7555    3.4146 C   0  0  0  0  0  0  0  0  0  0  0  0
    7.7709   -1.4882    3.4069 C   0  0  0  0  0  0  0  0  0  0  0  0
    8.9566   -0.8121    3.2645 C   0  0  0  0  0  0  0  0  0  0  0  0
    8.9914    0.5872    3.1362 C   0  0  0  0  0  0  0  0  0  0  0  0
    7.8394    1.3346    3.1308 C   0  0  0  0  0  0  0  0  0  0  0  0
    4.0908   -0.1461    9.0782 C   0  0  0  0  0  0  0  0  0  0  0  0
    4.5232   -1.6042    8.9700 C   0  0  0  0  0  0  0  0  0  0  0  0
    5.3002    0.7572    9.2874 C   0  0  0  0  0  0  0  0  0  0  0  0
    2.9657    2.1296    7.4561 C   0  0  0  0  0  0  0  0  0  0  0  0
    1.9933    2.6168    8.5216 C   0  0  0  0  0  0  0  0  0  0  0  0
    2.5303    2.5329    6.0512 C   0  0  0  0  0  0  0  0  0  0  0  0
    1.5709   -0.5271    7.4115 C   0  0  0  0  0  0  0  0  0  0  0  0
    1.6604   -1.8027    6.5814 C   0  0  0  0  0  0  0  0  0  0  0  0
    0.9400   -0.7844    8.7741 C   0  0  0  0  0  0  0  0  0  0  0  0
    4.8333   -2.1652    3.5400 H   0  0  0  0  0  0  0  0  0  0  0  0
    3.3317    0.0244    3.2446 H   0  0  0  0  0  0  0  0  0  0  0  0
    4.9383    2.1513    3.0133 H   0  0  0  0  0  0  0  0  0  0  0  0
    7.7498   -2.5657    3.5096 H   0  0  0  0  0  0  0  0  0  0  0  0
    9.8878   -1.3593    3.2530 H   0  0  0  0  0  0  0  0  0  0  0  0
    9.9486    1.0775    3.0347 H   0  0  0  0  0  0  0  0  0  0  0  0
    7.8711    2.4109    3.0155 H   0  0  0  0  0  0  0  0  0  0  0  0
    3.3821   -0.0202    9.9025 H   0  0  0  0  0  0  0  0  0  0  0  0
    3.6654   -2.2674    8.8772 H   0  0  0  0  0  0  0  0  0  0  0  0
    5.0923   -1.9001    9.8498 H   0  0  0  0  0  0  0  0  0  0  0  0
    5.1543   -1.7262    8.0860 H   0  0  0  0  0  0  0  0  0  0  0  0
    5.0056    1.7828    9.5007 H   0  0  0  0  0  0  0  0  0  0  0  0
    5.9301    0.7472    8.3925 H   0  0  0  0  0  0  0  0  0  0  0  0
    5.8935    0.3937   10.1253 H   0  0  0  0  0  0  0  0  0  0  0  0
    3.9590    2.5615    7.6317 H   0  0  0  0  0  0  0  0  0  0  0  0
    2.2990    2.2888    9.5126 H   0  0  0  0  0  0  0  0  0  0  0  0
    0.9858    2.2561    8.3255 H   0  0  0  0  0  0  0  0  0  0  0  0
    1.9650    3.7055    8.5201 H   0  0  0  0  0  0  0  0  0  0  0  0
    3.2502    2.1384    5.3256 H   0  0  0  0  0  0  0  0  0  0  0  0
    2.5036    3.6173    5.9621 H   0  0  0  0  0  0  0  0  0  0  0  0
    1.5399    2.1445    5.8158 H   0  0  0  0  0  0  0  0  0  0  0  0
    0.9472    0.1909    6.8628 H   0  0  0  0  0  0  0  0  0  0  0  0
    2.2492   -1.6127    5.6833 H   0  0  0  0  0  0  0  0  0  0  0  0
    0.6673   -2.1445    6.2950 H   0  0  0  0  0  0  0  0  0  0  0  0
    2.1494   -2.5963    7.1414 H   0  0  0  0  0  0  0  0  0  0  0  0
    0.9011    0.1198    9.3758 H   0  0  0  0  0  0  0  0  0  0  0  0
    1.4937   -1.5419    9.3232 H   0  0  0  0  0  0  0  0  0  0  0  0
   -0.0789   -1.1469    8.6406 H   0  0  0  0  0  0  0  0  0  0  0  0
  1  2  1  0  0  0  0
  1  5  1  0  0  0  0
  1  3  1  0  0  0  0
  4 15  1  0  0  0  0
  5  4  1  0  0  0  0
  6 24  1  1  0  0  0
  6  1  1  0  0  0  0
  7  6  1  0  0  0  0
  8 26  1  6  0  0  0
  8  9  1  0  0  0  0
  8  7  1  0  0  0  0
  8  1  1  0  0  0  0
  9 10  1  0  0  0  0
 10  6  1  0  0  0  0
 11 10  2  0  0  0  0
 11 27  1  0  0  0  0
 12 11  1  0  0  0  0
 13 12  2  0  0  0  0
 14 13  1  0  0  0  0
 14  9  2  0  0  0  0
 15 17  1  0  0  0  0
 15 31  1  0  0  0  0
 16 15  1  0  0  0  0
 16 33  1  0  0  0  0
 17 35  1  0  0  0  0
 17 37  1  0  0  0  0
 18  4  1  0  0  0  0
 18 38  1  0  0  0  0
 18 19  1  0  0  0  0
 19 39  1  0  0  0  0
 20 18  1  0  0  0  0
 21  4  1  0  0  0  0
 21 23  1  0  0  0  0
 22 48  1  0  0  0  0
 22 21  1  0  0  0  0
 23 50  1  0  0  0  0
 23 49  1  0  0  0  0
 25  7  1  0  0  0  0
 28 12  1  0  0  0  0
 29 13  1  0  0  0  0
 30 14  1  0  0  0  0
 32 16  1  0  0  0  0
 34 16  1  0  0  0  0
 36 17  1  0  0  0  0
 40 19  1  0  0  0  0
 41 19  1  0  0  0  0
 42 20  1  0  0  0  0
 43 20  1  0  0  0  0
 44 20  1  0  0  0  0
 45 21  1  0  0  0  0
 46 22  1  0  0  0  0
 47 22  1  0  0  0  0
 51 23  1  0  0  0  0
M  END
$$$$
