CSD_code = BARROC | q = 0 | S = 0 | Stoichiometry = C21H40Cl2NPTi | MND = 8
 OpenBabel04212202013D

 66 66  0  0  1  0  0  0  0  0999 V2000
   13.9763    5.9806    2.4109 Ti  0  0  0  0  0  0  0  0  0  0  0  0
   13.3376    5.7553    4.5060 Cl  0  0  0  0  0  0  0  0  0  0  0  0
   13.9467    3.8555    1.8384 Cl  0  0  0  0  0  0  0  0  0  0  0  0
   11.0480    6.7195    1.1448 P   0  0  0  0  0  4  0  0  0  0  0  0
   12.5048    6.5827    1.6863 N   0  0  0  0  0  2  0  0  0  0  0  0
   15.3939    7.7013    2.9874 C   0  0  1  0  0  0  0  0  0  0  0  0
   16.1007    6.5044    3.2606 C   0  0  0  0  0  0  0  0  0  0  0  0
   16.3093    5.8250    2.0519 C   0  0  0  0  0  0  0  0  0  0  0  0
   15.7309    6.5862    1.0120 C   0  0  0  0  0  0  0  0  0  0  0  0
   15.1883    7.7620    1.5872 C   0  0  0  0  0  0  0  0  0  0  0  0
   15.0854    8.7873    3.9790 C   0  0  0  0  0  0  0  0  0  0  0  0
   16.3198    9.6686    4.2155 C   0  0  0  0  0  0  0  0  0  0  0  0
   16.0405   10.7840    5.2189 C   0  0  0  0  0  0  0  0  0  0  0  0
   17.2689   11.6546    5.4532 C   0  0  0  0  0  0  0  0  0  0  0  0
   11.0074    5.9619   -0.6223 C   0  0  0  0  0  0  0  0  0  0  0  0
   12.3402    6.2976   -1.2953 C   0  0  0  0  0  0  0  0  0  0  0  0
    9.8277    6.3972   -1.4856 C   0  0  0  0  0  0  0  0  0  0  0  0
   10.9874    4.4420   -0.4565 C   0  0  0  0  0  0  0  0  0  0  0  0
    9.8154    5.8133    2.3119 C   0  0  0  0  0  0  0  0  0  0  0  0
    8.4056    5.6484    1.7522 C   0  0  0  0  0  0  0  0  0  0  0  0
   10.4091    4.4527    2.6847 C   0  0  0  0  0  0  0  0  0  0  0  0
    9.7699    6.6335    3.6016 C   0  0  0  0  0  0  0  0  0  0  0  0
   10.6836    8.6109    1.1084 C   0  0  0  0  0  0  0  0  0  0  0  0
   11.5319    9.1864   -0.0264 C   0  0  0  0  0  0  0  0  0  0  0  0
   11.2365    9.2016    2.4103 C   0  0  0  0  0  0  0  0  0  0  0  0
    9.2258    9.0078    0.9069 C   0  0  0  0  0  0  0  0  0  0  0  0
   16.4713    6.2052    4.2332 H   0  0  0  0  0  0  0  0  0  0  0  0
   16.8747    4.9107    1.9225 H   0  0  0  0  0  0  0  0  0  0  0  0
   15.8225    6.3803   -0.0489 H   0  0  0  0  0  0  0  0  0  0  0  0
   14.8013    8.6164    1.0438 H   0  0  0  0  0  0  0  0  0  0  0  0
   14.2667    9.4121    3.6063 H   0  0  0  0  0  0  0  0  0  0  0  0
   14.7695    8.3465    4.9307 H   0  0  0  0  0  0  0  0  0  0  0  0
   16.6358   10.1032    3.2636 H   0  0  0  0  0  0  0  0  0  0  0  0
   17.1394    9.0465    4.5823 H   0  0  0  0  0  0  0  0  0  0  0  0
   15.2203   11.4049    4.8502 H   0  0  0  0  0  0  0  0  0  0  0  0
   15.7211   10.3440    6.1663 H   0  0  0  0  0  0  0  0  0  0  0  0
   17.0499   12.4420    6.1707 H   0  0  0  0  0  0  0  0  0  0  0  0
   17.5918   12.1175    4.5231 H   0  0  0  0  0  0  0  0  0  0  0  0
   18.0913   11.0570    5.8401 H   0  0  0  0  0  0  0  0  0  0  0  0
   12.3886    7.3203   -1.6533 H   0  0  0  0  0  0  0  0  0  0  0  0
   12.4898    5.6408   -2.1513 H   0  0  0  0  0  0  0  0  0  0  0  0
   13.1539    6.1250   -0.5813 H   0  0  0  0  0  0  0  0  0  0  0  0
    8.8806    6.2071   -0.9885 H   0  0  0  0  0  0  0  0  0  0  0  0
    9.8399    5.8287   -2.4157 H   0  0  0  0  0  0  0  0  0  0  0  0
    9.8778    7.4511   -1.7451 H   0  0  0  0  0  0  0  0  0  0  0  0
   10.0220    4.0825   -0.1142 H   0  0  0  0  0  0  0  0  0  0  0  0
   11.7691    4.1331    0.2383 H   0  0  0  0  0  0  0  0  0  0  0  0
   11.1858    3.9699   -1.4188 H   0  0  0  0  0  0  0  0  0  0  0  0
    7.9752    6.6003    1.4547 H   0  0  0  0  0  0  0  0  0  0  0  0
    7.7690    5.2173    2.5248 H   0  0  0  0  0  0  0  0  0  0  0  0
    8.3855    4.9768    0.8984 H   0  0  0  0  0  0  0  0  0  0  0  0
   11.4875    4.5443    2.8455 H   0  0  0  0  0  0  0  0  0  0  0  0
   10.2278    3.6910    1.9345 H   0  0  0  0  0  0  0  0  0  0  0  0
    9.9613    4.1073    3.6158 H   0  0  0  0  0  0  0  0  0  0  0  0
   10.7853    6.8284    3.9499 H   0  0  0  0  0  0  0  0  0  0  0  0
    9.2527    6.0664    4.3750 H   0  0  0  0  0  0  0  0  0  0  0  0
    9.2331    7.5682    3.4717 H   0  0  0  0  0  0  0  0  0  0  0  0
   11.1340    8.9296   -1.0035 H   0  0  0  0  0  0  0  0  0  0  0  0
   12.5533    8.8183    0.0628 H   0  0  0  0  0  0  0  0  0  0  0  0
   11.5499   10.2743    0.0411 H   0  0  0  0  0  0  0  0  0  0  0  0
   10.5172    9.1704    3.2212 H   0  0  0  0  0  0  0  0  0  0  0  0
   11.5094   10.2450    2.2567 H   0  0  0  0  0  0  0  0  0  0  0  0
   12.1319    8.6476    2.7116 H   0  0  0  0  0  0  0  0  0  0  0  0
    8.6094    8.7243    1.7554 H   0  0  0  0  0  0  0  0  0  0  0  0
    8.8096    8.5599    0.0089 H   0  0  0  0  0  0  0  0  0  0  0  0
    9.1640   10.0915    0.8031 H   0  0  0  0  0  0  0  0  0  0  0  0
  1  6  1  0  0  0  0
  1  2  1  0  0  0  0
  3  1  1  0  0  0  0
  4  5  1  0  0  0  0
  4 19  1  0  0  0  0
  5  1  1  0  0  0  0
  6  7  1  0  0  0  0
  6 11  1  1  0  0  0
  7 27  1  0  0  0  0
  8  7  2  0  0  0  0
  9 10  2  0  0  0  0
  9  8  1  0  0  0  0
 10  6  1  0  0  0  0
 11 12  1  0  0  0  0
 11 32  1  0  0  0  0
 12 34  1  0  0  0  0
 12 13  1  0  0  0  0
 13 14  1  0  0  0  0
 13 36  1  0  0  0  0
 14 39  1  0  0  0  0
 14 37  1  0  0  0  0
 15 18  1  0  0  0  0
 15  4  1  0  0  0  0
 16 15  1  0  0  0  0
 16 42  1  0  0  0  0
 17 43  1  0  0  0  0
 17 15  1  0  0  0  0
 18 46  1  0  0  0  0
 18 47  1  0  0  0  0
 19 21  1  0  0  0  0
 19 22  1  0  0  0  0
 20 19  1  0  0  0  0
 20 50  1  0  0  0  0
 21 52  1  0  0  0  0
 21 54  1  0  0  0  0
 22 55  1  0  0  0  0
 22 56  1  0  0  0  0
 23  4  1  0  0  0  0
 23 25  1  0  0  0  0
 24 60  1  0  0  0  0
 24 59  1  0  0  0  0
 24 23  1  0  0  0  0
 25 63  1  0  0  0  0
 25 61  1  0  0  0  0
 26 23  1  0  0  0  0
 26 64  1  0  0  0  0
 28  8  1  0  0  0  0
 29  9  1  0  0  0  0
 30 10  1  0  0  0  0
 31 11  1  0  0  0  0
 33 12  1  0  0  0  0
 35 13  1  0  0  0  0
 38 14  1  0  0  0  0
 40 16  1  0  0  0  0
 41 16  1  0  0  0  0
 44 17  1  0  0  0  0
 45 17  1  0  0  0  0
 48 18  1  0  0  0  0
 49 20  1  0  0  0  0
 51 20  1  0  0  0  0
 53 21  1  0  0  0  0
 57 22  1  0  0  0  0
 58 24  1  0  0  0  0
 62 25  1  0  0  0  0
 65 26  1  0  0  0  0
 66 26  1  0  0  0  0
M  END
$$$$
