CSD_code = BARRIW | q = 0 | S = 0 | Stoichiometry = C21H40Cl2NPTi | MND = 8
 OpenBabel04212202003D

 66 66  0  0  1  0  0  0  0  0999 V2000
    1.6842   10.4755    7.4576 Ti  0  0  0  0  0  0  0  0  0  0  0  0
   -0.2624   11.2306    8.1706 Cl  0  0  0  0  0  0  0  0  0  0  0  0
    1.9463   11.7540    5.6831 Cl  0  0  0  0  0  0  0  0  0  0  0  0
    0.4329    7.9255    5.8077 P   0  0  0  0  0  4  0  0  0  0  0  0
    1.1421    9.0166    6.6640 N   0  0  0  0  0  2  0  0  0  0  0  0
    3.8111   11.1938    8.0880 C   0  0  0  0  0  3  0  0  0  0  0  0
    3.8209    9.7809    8.0276 C   0  0  1  0  0  0  0  0  0  0  0  0
    2.9410    9.3039    9.0250 C   0  0  0  0  0  3  0  0  0  0  0  0
    2.3808   10.4255    9.6800 C   0  0  0  0  0  0  0  0  0  0  0  0
    2.9233   11.5999    9.1076 C   0  0  0  0  0  0  0  0  0  0  0  0
    2.7069   13.0305    9.5545 C   0  0  0  0  0  0  0  0  0  0  0  0
    1.6441   13.1117   10.6551 C   0  0  0  0  0  0  0  0  0  0  0  0
    2.2520   13.8906    8.3663 C   0  0  0  0  0  0  0  0  0  0  0  0
    4.0375   13.5735   10.1001 C   0  0  0  0  0  0  0  0  0  0  0  0
   -0.5266    8.7267    4.3427 C   0  0  0  0  0  0  0  0  0  0  0  0
    0.5193    9.2119    3.3382 C   0  0  0  0  0  0  0  0  0  0  0  0
   -1.2345    9.9801    4.8621 C   0  0  0  0  0  0  0  0  0  0  0  0
   -1.5145    7.7984    3.6421 C   0  0  0  0  0  0  0  0  0  0  0  0
    1.8327    6.7785    5.1476 C   0  0  0  0  0  0  0  0  0  0  0  0
    2.9701    7.6828    4.6582 C   0  0  0  0  0  0  0  0  0  0  0  0
    2.3712    6.0210    6.3618 C   0  0  0  0  0  0  0  0  0  0  0  0
    1.4270    5.7848    4.0651 C   0  0  0  0  0  0  0  0  0  0  0  0
   -0.7695    6.9813    6.9749 C   0  0  0  0  0  0  0  0  0  0  0  0
   -1.2147    5.6110    6.4755 C   0  0  0  0  0  0  0  0  0  0  0  0
   -0.0928    6.8739    8.3433 C   0  0  0  0  0  0  0  0  0  0  0  0
   -1.9895    7.8793    7.1850 C   0  0  0  0  0  0  0  0  0  0  0  0
    4.4553   11.8396    7.5039 H   0  0  0  0  0  0  0  0  0  0  0  0
    4.4954    9.1776    7.4303 H   0  0  0  0  0  0  0  0  0  0  0  0
    2.8229    8.2709    9.3308 H   0  0  0  0  0  0  0  0  0  0  0  0
    1.7324   10.3725   10.5456 H   0  0  0  0  0  0  0  0  0  0  0  0
    0.6979   12.6985   10.3079 H   0  0  0  0  0  0  0  0  0  0  0  0
    1.4801   14.1512   10.9324 H   0  0  0  0  0  0  0  0  0  0  0  0
    1.9633   12.5711   11.5443 H   0  0  0  0  0  0  0  0  0  0  0  0
    1.2939   13.5338    7.9799 H   0  0  0  0  0  0  0  0  0  0  0  0
    2.9824   13.8682    7.5583 H   0  0  0  0  0  0  0  0  0  0  0  0
    2.1264   14.9259    8.6797 H   0  0  0  0  0  0  0  0  0  0  0  0
    4.3854   12.9600   10.9291 H   0  0  0  0  0  0  0  0  0  0  0  0
    3.9107   14.5944   10.4545 H   0  0  0  0  0  0  0  0  0  0  0  0
    4.8036   13.5707    9.3280 H   0  0  0  0  0  0  0  0  0  0  0  0
    1.2774    9.8060    3.8487 H   0  0  0  0  0  0  0  0  0  0  0  0
    0.0388    9.8494    2.5963 H   0  0  0  0  0  0  0  0  0  0  0  0
    0.9856    8.3897    2.8044 H   0  0  0  0  0  0  0  0  0  0  0  0
   -0.5647   10.5405    5.5212 H   0  0  0  0  0  0  0  0  0  0  0  0
   -2.1514    9.7614    5.3975 H   0  0  0  0  0  0  0  0  0  0  0  0
   -1.4915   10.6236    4.0215 H   0  0  0  0  0  0  0  0  0  0  0  0
   -1.0348    6.8846    3.3026 H   0  0  0  0  0  0  0  0  0  0  0  0
   -1.9203    8.3101    2.7692 H   0  0  0  0  0  0  0  0  0  0  0  0
   -2.3499    7.5340    4.2840 H   0  0  0  0  0  0  0  0  0  0  0  0
    3.0195    8.5850    5.2777 H   0  0  0  0  0  0  0  0  0  0  0  0
    2.8519    7.9775    3.6214 H   0  0  0  0  0  0  0  0  0  0  0  0
    3.9207    7.1570    4.7405 H   0  0  0  0  0  0  0  0  0  0  0  0
    1.6761    5.2625    6.7095 H   0  0  0  0  0  0  0  0  0  0  0  0
    2.5813    6.7277    7.1644 H   0  0  0  0  0  0  0  0  0  0  0  0
    3.2999    5.5143    6.0987 H   0  0  0  0  0  0  0  0  0  0  0  0
    0.6060    5.1520    4.3904 H   0  0  0  0  0  0  0  0  0  0  0  0
    2.2777    5.1424    3.8357 H   0  0  0  0  0  0  0  0  0  0  0  0
    1.1363    6.2850    3.1457 H   0  0  0  0  0  0  0  0  0  0  0  0
   -1.6426    5.6704    5.4788 H   0  0  0  0  0  0  0  0  0  0  0  0
   -1.9784    5.2179    7.1469 H   0  0  0  0  0  0  0  0  0  0  0  0
   -0.3940    4.8989    6.4598 H   0  0  0  0  0  0  0  0  0  0  0  0
    0.3123    7.8534    8.6190 H   0  0  0  0  0  0  0  0  0  0  0  0
    0.7038    6.1384    8.3664 H   0  0  0  0  0  0  0  0  0  0  0  0
   -0.8313    6.5850    9.0903 H   0  0  0  0  0  0  0  0  0  0  0  0
   -1.6664    8.8869    7.4499 H   0  0  0  0  0  0  0  0  0  0  0  0
   -2.5882    7.4904    8.0088 H   0  0  0  0  0  0  0  0  0  0  0  0
   -2.6298    7.9137    6.3091 H   0  0  0  0  0  0  0  0  0  0  0  0
  1  7  1  0  0  0  0
  1  2  1  0  0  0  0
  3  1  1  0  0  0  0
  4  5  1  0  0  0  0
  4 23  1  0  0  0  0
  5  1  1  0  0  0  0
  6 10  1  0  0  0  0
  7 28  1  6  0  0  0
  7  6  1  0  0  0  0
  7  8  1  0  0  0  0
  8 29  1  0  0  0  0
  8  9  1  0  0  0  0
  9 30  1  0  0  0  0
 10 11  1  0  0  0  0
 10  9  2  0  0  0  0
 11 14  1  0  0  0  0
 11 12  1  0  0  0  0
 12 32  1  0  0  0  0
 12 33  1  0  0  0  0
 13 36  1  0  0  0  0
 13 11  1  0  0  0  0
 14 38  1  0  0  0  0
 14 37  1  0  0  0  0
 15 17  1  0  0  0  0
 15  4  1  0  0  0  0
 16 40  1  0  0  0  0
 16 15  1  0  0  0  0
 17 44  1  0  0  0  0
 17 43  1  0  0  0  0
 18 48  1  0  0  0  0
 18 15  1  0  0  0  0
 19  4  1  0  0  0  0
 19 21  1  0  0  0  0
 20 51  1  0  0  0  0
 20 19  1  0  0  0  0
 20 49  1  0  0  0  0
 21 52  1  0  0  0  0
 21 53  1  0  0  0  0
 22 55  1  0  0  0  0
 22 19  1  0  0  0  0
 23 26  1  0  0  0  0
 23 25  1  0  0  0  0
 24 23  1  0  0  0  0
 24 59  1  0  0  0  0
 25 62  1  0  0  0  0
 25 61  1  0  0  0  0
 25 63  1  0  0  0  0
 26 64  1  0  0  0  0
 26 65  1  0  0  0  0
 27  6  1  0  0  0  0
 31 12  1  0  0  0  0
 34 13  1  0  0  0  0
 35 13  1  0  0  0  0
 39 14  1  0  0  0  0
 41 16  1  0  0  0  0
 42 16  1  0  0  0  0
 45 17  1  0  0  0  0
 46 18  1  0  0  0  0
 47 18  1  0  0  0  0
 50 20  1  0  0  0  0
 54 21  1  0  0  0  0
 56 22  1  0  0  0  0
 57 22  1  0  0  0  0
 58 24  1  0  0  0  0
 60 24  1  0  0  0  0
 66 26  1  0  0  0  0
M  END
$$$$
