CSD_code = BARSUK | q = 1 | S = 0 | Stoichiometry = C13H38ClN2P4Ru(1+) | MND = 6
 OpenBabel04212202013D

 59 60  0  0  0  0  0  0  0  0999 V2000
    0.0921    3.4130    3.2668 Ru  0  0  0  0  0  0  0  0  0  0  0  0
    0.7548    2.6561    5.4251 Cl  0  0  0  0  0  0  0  0  0  0  0  0
   -1.0222    0.7682    2.4457 N   0  0  0  0  0  0  0  0  0  0  0  0
   -2.1125    2.9342    3.8631 P   0  0  0  0  0  4  0  0  0  0  0  0
   -0.3187    5.5250    4.1350 P   0  0  0  0  0  4  0  0  0  0  0  0
   -0.0653    4.0261    1.0637 P   0  0  0  0  0  4  0  0  0  0  0  0
    2.3523    3.6845    2.9834 P   0  0  0  0  0  4  0  0  0  0  0  0
   -2.4956    1.5657    5.0056 C   0  0  0  0  0  0  0  0  0  0  0  0
   -1.7090    1.5018    5.7571 H   0  0  0  0  0  0  0  0  0  0  0  0
   -2.5643    0.6288    4.4598 H   0  0  0  0  0  0  0  0  0  0  0  0
   -3.4477    1.7797    5.4916 H   0  0  0  0  0  0  0  0  0  0  0  0
   -3.4950    2.8394    2.6691 C   0  0  0  0  0  0  0  0  0  0  0  0
   -4.4240    2.6954    3.2192 H   0  0  0  0  0  0  0  0  0  0  0  0
   -3.3490    2.0058    1.9880 H   0  0  0  0  0  0  0  0  0  0  0  0
   -3.5487    3.7662    2.1011 H   0  0  0  0  0  0  0  0  0  0  0  0
   -2.6668    4.3561    4.9023 C   0  0  0  0  0  0  0  0  0  0  0  0
   -3.7580    4.3535    4.9850 H   0  0  0  0  0  0  0  0  0  0  0  0
   -2.2405    4.2046    5.8995 H   0  0  0  0  0  0  0  0  0  0  0  0
   -2.1490    5.6557    4.3078 C   0  0  0  0  0  0  0  0  0  0  0  0
   -2.3964    6.5179    4.9346 H   0  0  0  0  0  0  0  0  0  0  0  0
   -2.5729    5.8130    3.3105 H   0  0  0  0  0  0  0  0  0  0  0  0
    0.0564    7.1516    3.3763 C   0  0  0  0  0  0  0  0  0  0  0  0
   -0.4049    7.9291    3.9851 H   0  0  0  0  0  0  0  0  0  0  0  0
   -0.3395    7.2065    2.3647 H   0  0  0  0  0  0  0  0  0  0  0  0
    1.1317    7.3198    3.3471 H   0  0  0  0  0  0  0  0  0  0  0  0
    0.2200    5.8439    5.8488 C   0  0  0  0  0  0  0  0  0  0  0  0
    1.2981    5.9902    5.8738 H   0  0  0  0  0  0  0  0  0  0  0  0
   -0.0221    4.9888    6.4773 H   0  0  0  0  0  0  0  0  0  0  0  0
   -0.2796    6.7386    6.2213 H   0  0  0  0  0  0  0  0  0  0  0  0
    0.0327    2.7365   -0.2433 C   0  0  0  0  0  0  0  0  0  0  0  0
   -0.9340    2.2433   -0.3445 H   0  0  0  0  0  0  0  0  0  0  0  0
    0.7965    1.9975   -0.0022 H   0  0  0  0  0  0  0  0  0  0  0  0
    0.2803    3.2085   -1.1942 H   0  0  0  0  0  0  0  0  0  0  0  0
   -1.3372    5.1025    0.3103 C   0  0  0  0  0  0  0  0  0  0  0  0
   -0.9896    5.4622   -0.6583 H   0  0  0  0  0  0  0  0  0  0  0  0
   -1.5520    5.9476    0.9607 H   0  0  0  0  0  0  0  0  0  0  0  0
   -2.2500    4.5239    0.1719 H   0  0  0  0  0  0  0  0  0  0  0  0
    1.4795    4.9809    0.7035 C   0  0  0  0  0  0  0  0  0  0  0  0
    1.5651    5.1515   -0.3741 H   0  0  0  0  0  0  0  0  0  0  0  0
    1.3780    5.9488    1.2023 H   0  0  0  0  0  0  0  0  0  0  0  0
    2.6941    4.2404    1.2497 C   0  0  0  0  0  0  0  0  0  0  0  0
    3.5879    4.8687    1.2248 H   0  0  0  0  0  0  0  0  0  0  0  0
    2.8894    3.3467    0.6491 H   0  0  0  0  0  0  0  0  0  0  0  0
    3.2488    4.8881    4.0117 C   0  0  0  0  0  0  0  0  0  0  0  0
    3.1595    4.5679    5.0502 H   0  0  0  0  0  0  0  0  0  0  0  0
    2.8114    5.8786    3.8973 H   0  0  0  0  0  0  0  0  0  0  0  0
    4.3005    4.9095    3.7241 H   0  0  0  0  0  0  0  0  0  0  0  0
    3.4567    2.2399    3.1593 C   0  0  0  0  0  0  0  0  0  0  0  0
    3.2152    1.4651    2.4319 H   0  0  0  0  0  0  0  0  0  0  0  0
    3.3404    1.8425    4.1684 H   0  0  0  0  0  0  0  0  0  0  0  0
    4.4888    2.5575    3.0103 H   0  0  0  0  0  0  0  0  0  0  0  0
   -1.0410   -0.6859    2.4196 C   0  0  0  0  0  0  0  0  0  0  0  0
   -0.2671   -1.1125    1.7675 H   0  0  0  0  0  0  0  0  0  0  0  0
   -2.0143   -1.0195    2.0682 H   0  0  0  0  0  0  0  0  0  0  0  0
   -0.8898   -1.0626    3.4318 H   0  0  0  0  0  0  0  0  0  0  0  0
    0.2284    1.2880    2.8718 N   0  0  0  0  0  4  0  0  0  0  0  0
    1.0128    0.8987    2.3238 H   0  0  0  0  0  0  0  0  0  0  0  0
    0.3752    0.9875    3.8510 H   0  0  0  0  0  0  0  0  0  0  0  0
   -1.2049    1.1290    1.5088 H   0  0  0  0  0  0  0  0  0  0  0  0
  1  4  1  0  0  0  0
  1  5  1  0  0  0  0
  1  2  1  0  0  0  0
  3 56  1  0  0  0  0
  4 16  1  0  0  0  0
  4  8  1  0  0  0  0
  5 19  1  0  0  0  0
  5 26  1  0  0  0  0
  6  1  1  0  0  0  0
  7 48  1  0  0  0  0
  7  1  1  0  0  0  0
  7 44  1  0  0  0  0
  8 11  1  0  0  0  0
  8  9  1  0  0  0  0
 10  8  1  0  0  0  0
 12 13  1  0  0  0  0
 12  4  1  0  0  0  0
 14 12  1  0  0  0  0
 15 12  1  0  0  0  0
 16 17  1  0  0  0  0
 16 18  1  0  0  0  0
 19 16  1  0  0  0  0
 19 20  1  0  0  0  0
 21 19  1  0  0  0  0
 22 23  1  0  0  0  0
 22  5  1  0  0  0  0
 24 22  1  0  0  0  0
 25 22  1  0  0  0  0
 26 27  1  0  0  0  0
 26 29  1  0  0  0  0
 26 28  1  0  0  0  0
 30 32  1  0  0  0  0
 30  6  1  0  0  0  0
 31 30  1  0  0  0  0
 33 30  1  0  0  0  0
 34 36  1  0  0  0  0
 34  6  1  0  0  0  0
 35 34  1  0  0  0  0
 37 34  1  0  0  0  0
 38  6  1  0  0  0  0
 38 40  1  0  0  0  0
 38 41  1  0  0  0  0
 39 38  1  0  0  0  0
 41  7  1  0  0  0  0
 42 41  1  0  0  0  0
 43 41  1  0  0  0  0
 44 45  1  0  0  0  0
 46 44  1  0  0  0  0
 47 44  1  0  0  0  0
 48 50  1  0  0  0  0
 49 48  1  0  0  0  0
 51 48  1  0  0  0  0
 52  3  1  0  0  0  0
 52 55  1  0  0  0  0
 53 52  1  0  0  0  0
 54 52  1  0  0  0  0
 56  1  1  0  0  0  0
 56 58  1  0  0  0  0
 57 56  1  0  0  0  0
 59  3  1  0  0  0  0
M  END
$$$$
