CSD_code = BARWIC | q = 0 | S = 0 | Stoichiometry = C29H21ClF2IrN3 | MND = 6
 OpenBabel04212202013D

 57 64  0  0  1  0  0  0  0  0999 V2000
    1.9175   -1.9618    2.5312 C   0  0  0  0  0  0  0  0  0  0  0  0
    3.0933   -2.7245    2.4884 C   0  0  0  0  0  0  0  0  0  0  0  0
    3.2884   -3.5563    1.3750 C   0  0  0  0  0  0  0  0  0  0  0  0
    2.2847   -3.5883    0.4124 C   0  0  0  0  0  0  0  0  0  0  0  0
    2.4470   -4.2144   -0.4544 H   0  0  0  0  0  0  0  0  0  0  0  0
    1.0860   -2.8856    0.4785 C   0  0  0  0  0  0  0  0  0  0  0  0
    0.8838   -2.0500    1.5878 C   0  0  0  0  0  0  0  0  0  0  0  0
   -0.2662   -1.2280    1.9622 C   0  0  1  0  0  3  0  0  0  0  0  0
   -1.5246   -1.2580    1.3581 C   0  0  0  0  0  0  0  0  0  0  0  0
   -1.7123   -1.9225    0.5357 H   0  0  0  0  0  0  0  0  0  0  0  0
   -2.5512   -0.4626    1.8275 C   0  0  0  0  0  0  0  0  0  0  0  0
   -3.5236   -0.4949    1.3596 H   0  0  0  0  0  0  0  0  0  0  0  0
   -2.3134    0.3684    2.9119 C   0  0  0  0  0  0  0  0  0  0  0  0
   -3.0830    1.0078    3.3128 H   0  0  0  0  0  0  0  0  0  0  0  0
   -1.0577    0.3443    3.4849 C   0  0  0  0  0  0  0  0  0  0  0  0
   -0.8414    0.9654    4.3442 H   0  0  0  0  0  0  0  0  0  0  0  0
    3.9253   -2.5091    3.6714 C   0  0  2  0  0  3  0  0  0  0  0  0
    5.0399   -3.2666    4.0363 C   0  0  0  0  0  0  0  0  0  0  0  0
    5.3585   -4.0876    3.4219 H   0  0  0  0  0  0  0  0  0  0  0  0
    5.7255   -2.9947    5.2037 C   0  0  0  0  0  0  0  0  0  0  0  0
    6.5830   -3.5881    5.4833 H   0  0  0  0  0  0  0  0  0  0  0  0
    5.2886   -1.9556    6.0114 C   0  0  0  0  0  0  0  0  0  0  0  0
    5.7921   -1.7052    6.9310 H   0  0  0  0  0  0  0  0  0  0  0  0
    4.1689   -1.2521    5.6149 C   0  0  0  0  0  0  0  0  0  0  0  0
    3.7878   -0.4476    6.2300 H   0  0  0  0  0  0  0  0  0  0  0  0
    4.5175   -4.3781    1.1312 C   0  0  0  0  0  0  0  0  0  0  0  0
    5.4178   -3.7825    1.2687 H   0  0  0  0  0  0  0  0  0  0  0  0
    4.5506   -5.2331    1.8059 H   0  0  0  0  0  0  0  0  0  0  0  0
    4.5140   -4.7612    0.1132 H   0  0  0  0  0  0  0  0  0  0  0  0
    0.1209   -3.0419   -0.6575 C   0  0  0  0  0  0  0  0  0  0  0  0
    0.5943   -3.5765   -1.4781 H   0  0  0  0  0  0  0  0  0  0  0  0
   -0.7508   -3.6176   -0.3468 H   0  0  0  0  0  0  0  0  0  0  0  0
   -0.2072   -2.0718   -1.0262 H   0  0  0  0  0  0  0  0  0  0  0  0
    2.5564    0.8990    3.1049 C   0  0  0  0  0  0  0  0  0  0  0  0
    3.0942    0.9424    1.8225 C   0  0  0  0  0  0  0  0  0  0  0  0
    3.0864    0.0659    1.1934 H   0  0  0  0  0  0  0  0  0  0  0  0
    3.6484    2.1063    1.3295 C   0  0  0  0  0  0  0  0  0  0  0  0
    3.6944    3.2682    2.0767 C   0  0  0  0  0  0  0  0  0  0  0  0
    4.1276    4.1752    1.6890 H   0  0  0  0  0  0  0  0  0  0  0  0
    3.1622    3.2285    3.3489 C   0  0  0  0  0  0  0  0  0  0  0  0
    2.5906    2.0776    3.8946 C   0  0  0  0  0  0  0  0  0  0  0  0
    2.0152    1.9871    5.2387 C   0  0  2  0  0  3  0  0  0  0  0  0
    1.9480    3.0245    6.1713 C   0  0  0  0  0  0  0  0  0  0  0  0
    2.3340    4.0018    5.9434 H   0  0  0  0  0  0  0  0  0  0  0  0
    1.3767    2.7952    7.4101 C   0  0  0  0  0  0  0  0  0  0  0  0
    1.3223    3.5939    8.1350 H   0  0  0  0  0  0  0  0  0  0  0  0
    0.8789    1.5354    7.7059 C   0  0  0  0  0  0  0  0  0  0  0  0
    0.4268    1.3170    8.6599 H   0  0  0  0  0  0  0  0  0  0  0  0
    0.9769    0.5539    6.7361 C   0  0  0  0  0  0  0  0  0  0  0  0
    0.6066   -0.4501    6.9016 H   0  0  0  0  0  0  0  0  0  0  0  0
   -0.0638   -0.4196    3.0444 N   0  0  0  0  0  0  0  0  0  0  0  0
    3.4990   -1.5075    4.4963 N   0  0  0  0  0  0  0  0  0  0  0  0
    1.5232    0.7702    5.5481 N   0  0  0  0  0  0  0  0  0  0  0  0
    4.1635    2.1202    0.0815 F   0  0  0  0  0  0  0  0  0  0  0  0
    3.2255    4.3862    4.0507 F   0  0  0  0  0  0  0  0  0  0  0  0
    0.6449   -2.4345    5.3010 Cl  0  0  0  0  0  0  0  0  0  0  0  0
    1.7043   -0.7097    3.9939 Ir  0  0  0  0  0  0  0  0  0  0  0  0
  1 57  1  0  0  0  0
  2  1  1  0  0  0  0
  3  2  2  0  0  0  0
  4  6  2  0  0  0  0
  4  3  1  0  0  0  0
  5  4  1  0  0  0  0
  6  7  1  0  0  0  0
  7  8  1  0  0  0  0
  7  1  2  0  0  0  0
  8  9  1  1  0  0  0
  8 51  1  0  0  0  0
  9 11  2  0  0  0  0
 10  9  1  0  0  0  0
 11 13  1  0  0  0  0
 12 11  1  0  0  0  0
 13 14  1  0  0  0  0
 13 15  2  0  0  0  0
 15 16  1  0  0  0  0
 17  2  1  1  0  0  0
 17 18  1  0  0  0  0
 17 52  1  0  0  0  0
 18 20  2  0  0  0  0
 19 18  1  0  0  0  0
 20 21  1  0  0  0  0
 20 22  1  0  0  0  0
 22 23  1  0  0  0  0
 24 22  2  0  0  0  0
 24 25  1  0  0  0  0
 26 27  1  0  0  0  0
 26  3  1  0  0  0  0
 26 28  1  0  0  0  0
 29 26  1  0  0  0  0
 30 32  1  0  0  0  0
 30  6  1  0  0  0  0
 31 30  1  0  0  0  0
 33 30  1  0  0  0  0
 34 41  1  0  0  0  0
 34 57  1  0  0  0  0
 35 34  2  0  0  0  0
 36 35  1  0  0  0  0
 37 35  1  0  0  0  0
 37 38  2  0  0  0  0
 38 40  1  0  0  0  0
 39 38  1  0  0  0  0
 40 41  2  0  0  0  0
 40 55  1  0  0  0  0
 42 41  1  1  0  0  0
 42 53  1  0  0  0  0
 42 43  1  0  0  0  0
 43 45  2  0  0  0  0
 44 43  1  0  0  0  0
 45 47  1  0  0  0  0
 45 46  1  0  0  0  0
 47 48  1  0  0  0  0
 49 50  1  0  0  0  0
 49 47  2  0  0  0  0
 51 15  1  0  0  0  0
 51 57  1  0  0  0  0
 52 24  1  0  0  0  0
 53 49  1  0  0  0  0
 54 37  1  0  0  0  0
 57 52  1  0  0  0  0
 57 56  1  0  0  0  0
 57 53  1  0  0  0  0
M  END
$$$$
