CSD_code = BASPAP | q = 0 | S = 0 | Stoichiometry = C39H47FN4P2Ru | MND = 6
 OpenBabel04212202013D

 94100  0  0  1  0  0  0  0  0999 V2000
   13.6199    8.2281   11.9914 Ru  0  0  0  0  0  0  0  0  0  0  0  0
   14.6873    6.6534   13.2855 P   0  0  0  0  0  4  0  0  0  0  0  0
   15.9236    8.3608   11.6363 P   0  0  0  0  0  4  0  0  0  0  0  0
   13.2086    6.9517   10.3961 F   0  0  0  0  0  0  0  0  0  0  0  0
   11.0948    8.6461   13.7121 N   0  0  0  0  0  0  0  0  0  0  0  0
   11.4089    6.5783   13.2374 N   0  0  0  0  0  0  0  0  0  0  0  0
   13.3413   11.0077   10.6388 N   0  0  0  0  0  0  0  0  0  0  0  0
   11.7328    9.7116   10.0626 N   0  0  0  0  0  0  0  0  0  0  0  0
   11.8408    7.8262   12.9261 C   0  0  2  0  0  3  0  0  0  0  0  0
   10.2456    7.9197   14.5250 C   0  0  0  0  0  0  0  0  0  0  0  0
   10.4487    6.6116   14.2270 C   0  0  0  0  0  0  0  0  0  0  0  0
   11.1233   10.0803   13.7104 C   0  0  0  0  0  0  0  0  0  0  0  0
   11.3176   10.4587   14.7155 H   0  0  0  0  0  0  0  0  0  0  0  0
   10.1692   10.4830   13.3591 H   0  0  0  0  0  0  0  0  0  0  0  0
   11.9244   10.4013   13.0469 H   0  0  0  0  0  0  0  0  0  0  0  0
    9.3360    8.5679   15.5057 C   0  0  0  0  0  0  0  0  0  0  0  0
    8.7396    7.8157   16.0138 H   0  0  0  0  0  0  0  0  0  0  0  0
    8.6625    9.2673   15.0100 H   0  0  0  0  0  0  0  0  0  0  0  0
    9.9058    9.1197   16.2537 H   0  0  0  0  0  0  0  0  0  0  0  0
    9.8548    5.3741   14.7959 C   0  0  0  0  0  0  0  0  0  0  0  0
    9.1794    5.6225   15.6095 H   0  0  0  0  0  0  0  0  0  0  0  0
   10.6403    4.7248   15.1825 H   0  0  0  0  0  0  0  0  0  0  0  0
    9.2972    4.8206   14.0396 H   0  0  0  0  0  0  0  0  0  0  0  0
   11.8023    5.3697   12.5709 C   0  0  0  0  0  0  0  0  0  0  0  0
   12.3859    5.6370   11.6928 H   0  0  0  0  0  0  0  0  0  0  0  0
   10.9178    4.8142   12.2525 H   0  0  0  0  0  0  0  0  0  0  0  0
   12.4015    4.7322   13.2264 H   0  0  0  0  0  0  0  0  0  0  0  0
   12.8537    9.7532   10.8274 C   0  0  1  0  0  3  0  0  0  0  0  0
   12.5520   11.7263    9.7633 C   0  0  0  0  0  0  0  0  0  0  0  0
   11.5306   10.9068    9.4045 C   0  0  0  0  0  0  0  0  0  0  0  0
   14.4873   11.5772   11.2857 C   0  0  0  0  0  0  0  0  0  0  0  0
   14.2337   12.5523   11.7061 H   0  0  0  0  0  0  0  0  0  0  0  0
   15.3177   11.6976   10.5863 H   0  0  0  0  0  0  0  0  0  0  0  0
   14.7901   10.9052   12.0884 H   0  0  0  0  0  0  0  0  0  0  0  0
   12.8711   13.1231    9.3671 C   0  0  0  0  0  0  0  0  0  0  0  0
   12.1875   13.4566    8.5915 H   0  0  0  0  0  0  0  0  0  0  0  0
   13.8893   13.1894    8.9851 H   0  0  0  0  0  0  0  0  0  0  0  0
   12.7846   13.8009   10.2175 H   0  0  0  0  0  0  0  0  0  0  0  0
   10.3754   11.1365    8.4969 C   0  0  0  0  0  0  0  0  0  0  0  0
    9.4352   10.9351    9.0098 H   0  0  0  0  0  0  0  0  0  0  0  0
   10.4315   10.4850    7.6243 H   0  0  0  0  0  0  0  0  0  0  0  0
   10.3696   12.1677    8.1552 H   0  0  0  0  0  0  0  0  0  0  0  0
   10.8161    8.6104    9.9545 C   0  0  0  0  0  0  0  0  0  0  0  0
   11.3080    7.7127   10.3204 H   0  0  0  0  0  0  0  0  0  0  0  0
   10.5360    8.4589    8.9123 H   0  0  0  0  0  0  0  0  0  0  0  0
    9.9147    8.8010   10.5448 H   0  0  0  0  0  0  0  0  0  0  0  0
   14.2171    6.3285   15.0222 C   0  0  0  0  0  0  0  0  0  0  0  0
   13.9346    5.0555   15.5080 C   0  0  0  0  0  0  0  0  0  0  0  0
   14.1374    4.1868   14.8950 H   0  0  0  0  0  0  0  0  0  0  0  0
   13.4029    4.8933   16.7752 C   0  0  0  0  0  0  0  0  0  0  0  0
   13.1903    3.8995   17.1444 H   0  0  0  0  0  0  0  0  0  0  0  0
   13.1362    5.9972   17.5673 C   0  0  0  0  0  0  0  0  0  0  0  0
   12.7158    5.8664   18.5540 H   0  0  0  0  0  0  0  0  0  0  0  0
   13.4001    7.2695   17.0853 C   0  0  0  0  0  0  0  0  0  0  0  0
   13.1845    8.1336   17.6982 H   0  0  0  0  0  0  0  0  0  0  0  0
   13.9273    7.4329   15.8194 C   0  0  0  0  0  0  0  0  0  0  0  0
   14.0992    8.4232   15.4184 H   0  0  0  0  0  0  0  0  0  0  0  0
   15.4552    5.0591   12.8015 C   0  0  0  0  0  0  0  0  0  0  0  0
   16.4357    4.4742   13.5995 C   0  0  0  0  0  0  0  0  0  0  0  0
   16.6743    4.9110   14.5617 H   0  0  0  0  0  0  0  0  0  0  0  0
   17.0957    3.3401   13.1686 C   0  0  0  0  0  0  0  0  0  0  0  0
   17.8553    2.8886   13.7918 H   0  0  0  0  0  0  0  0  0  0  0  0
   16.7909    2.7853   11.9348 C   0  0  0  0  0  0  0  0  0  0  0  0
   17.3162    1.9032   11.5974 H   0  0  0  0  0  0  0  0  0  0  0  0
   15.8200    3.3641   11.1372 C   0  0  0  0  0  0  0  0  0  0  0  0
   15.5863    2.9372   10.1726 H   0  0  0  0  0  0  0  0  0  0  0  0
   15.1524    4.4970   11.5691 C   0  0  0  0  0  0  0  0  0  0  0  0
   14.4097    4.9640   10.9407 H   0  0  0  0  0  0  0  0  0  0  0  0
   16.2662    7.6375   13.3213 C   0  0  0  0  0  0  0  0  0  0  0  0
   16.1763    8.4189   14.0795 H   0  0  0  0  0  0  0  0  0  0  0  0
   17.1952    7.0745   13.4393 H   0  0  0  0  0  0  0  0  0  0  0  0
   16.8134    7.1420   10.5935 C   0  0  0  0  0  0  0  0  0  0  0  0
   16.1614    6.6178    9.4848 C   0  0  0  0  0  0  0  0  0  0  0  0
   15.1525    6.9394    9.2693 H   0  0  0  0  0  0  0  0  0  0  0  0
   16.7893    5.6761    8.6885 C   0  0  0  0  0  0  0  0  0  0  0  0
   16.2756    5.2667    7.8301 H   0  0  0  0  0  0  0  0  0  0  0  0
   18.0706    5.2536    8.9959 C   0  0  0  0  0  0  0  0  0  0  0  0
   18.5594    4.5097    8.3826 H   0  0  0  0  0  0  0  0  0  0  0  0
   18.7336    5.7903   10.0884 C   0  0  0  0  0  0  0  0  0  0  0  0
   19.7397    5.4698   10.3208 H   0  0  0  0  0  0  0  0  0  0  0  0
   18.1139    6.7383   10.8792 C   0  0  0  0  0  0  0  0  0  0  0  0
   18.6462    7.1750   11.7145 H   0  0  0  0  0  0  0  0  0  0  0  0
   17.1593    9.7102   11.4741 C   0  0  0  0  0  0  0  0  0  0  0  0
   17.6425   10.4447   12.5501 C   0  0  0  0  0  0  0  0  0  0  0  0
   17.3283   10.2042   13.5557 H   0  0  0  0  0  0  0  0  0  0  0  0
   18.5298   11.4868   12.3435 C   0  0  0  0  0  0  0  0  0  0  0  0
   18.9096   12.0442   13.1884 H   0  0  0  0  0  0  0  0  0  0  0  0
   18.9324   11.8169   11.0607 C   0  0  0  0  0  0  0  0  0  0  0  0
   19.6268   12.6293   10.9027 H   0  0  0  0  0  0  0  0  0  0  0  0
   18.4386   11.1036    9.9789 C   0  0  0  0  0  0  0  0  0  0  0  0
   18.7453   11.3623    8.9750 H   0  0  0  0  0  0  0  0  0  0  0  0
   17.5554   10.0620   10.1849 C   0  0  0  0  0  0  0  0  0  0  0  0
   17.1629    9.5014    9.3456 H   0  0  0  0  0  0  0  0  0  0  0  0
   13.8812    9.2133   13.1584 H   0  0  0  0  0  0  0  0  0  0  0  0
  1  9  1  0  0  0  0
  1 94  1  0  0  0  0
  1  2  1  0  0  0  0
  2 69  1  0  0  0  0
  2 47  1  0  0  0  0
  3  1  1  0  0  0  0
  3 69  1  0  0  0  0
  4  1  1  0  0  0  0
  5 10  1  0  0  0  0
  6 11  1  0  0  0  0
  7 28  1  0  0  0  0
  7 31  1  0  0  0  0
  9  6  1  1  0  0  0
  9  5  1  0  0  0  0
 10 16  1  0  0  0  0
 11 10  2  0  0  0  0
 11 20  1  0  0  0  0
 12  5  1  0  0  0  0
 12 13  1  0  0  0  0
 14 12  1  0  0  0  0
 15 12  1  0  0  0  0
 16 17  1  0  0  0  0
 16 19  1  0  0  0  0
 18 16  1  0  0  0  0
 20 22  1  0  0  0  0
 20 21  1  0  0  0  0
 23 20  1  0  0  0  0
 24 27  1  0  0  0  0
 24  6  1  0  0  0  0
 25 24  1  0  0  0  0
 26 24  1  0  0  0  0
 28  8  1  6  0  0  0
 28  1  1  0  0  0  0
 29  7  1  0  0  0  0
 30 29  2  0  0  0  0
 30  8  1  0  0  0  0
 31 32  1  0  0  0  0
 31 34  1  0  0  0  0
 33 31  1  0  0  0  0
 35 29  1  0  0  0  0
 35 38  1  0  0  0  0
 36 35  1  0  0  0  0
 37 35  1  0  0  0  0
 39 40  1  0  0  0  0
 39 30  1  0  0  0  0
 41 39  1  0  0  0  0
 42 39  1  0  0  0  0
 43  8  1  0  0  0  0
 43 44  1  0  0  0  0
 43 46  1  0  0  0  0
 45 43  1  0  0  0  0
 47 48  2  0  0  0  0
 47 56  1  0  0  0  0
 48 50  1  0  0  0  0
 49 48  1  0  0  0  0
 50 51  1  0  0  0  0
 50 52  2  0  0  0  0
 52 53  1  0  0  0  0
 54 52  1  0  0  0  0
 54 55  1  0  0  0  0
 56 54  2  0  0  0  0
 57 56  1  0  0  0  0
 58  2  1  0  0  0  0
 58 59  1  0  0  0  0
 59 60  1  0  0  0  0
 61 59  2  0  0  0  0
 61 62  1  0  0  0  0
 63 61  1  0  0  0  0
 64 63  1  0  0  0  0
 65 67  1  0  0  0  0
 65 63  2  0  0  0  0
 66 65  1  0  0  0  0
 67 58  2  0  0  0  0
 68 67  1  0  0  0  0
 69 71  1  0  0  0  0
 69 70  1  0  0  0  0
 72 81  1  0  0  0  0
 72  3  1  0  0  0  0
 73 72  2  0  0  0  0
 74 73  1  0  0  0  0
 75 77  2  0  0  0  0
 75 73  1  0  0  0  0
 76 75  1  0  0  0  0
 77 79  1  0  0  0  0
 78 77  1  0  0  0  0
 79 80  1  0  0  0  0
 79 81  2  0  0  0  0
 81 82  1  0  0  0  0
 83  3  1  0  0  0  0
 83 84  1  0  0  0  0
 84 85  1  0  0  0  0
 86 84  2  0  0  0  0
 86 87  1  0  0  0  0
 88 86  1  0  0  0  0
 89 88  1  0  0  0  0
 90 92  1  0  0  0  0
 90 88  2  0  0  0  0
 91 90  1  0  0  0  0
 92 83  2  0  0  0  0
 93 92  1  0  0  0  0
M  END
$$$$
