CSD_code = BASWEZ | q = 0 | S = 0 | Stoichiometry = C22H20AuClN2 | MND = 2
 OpenBabel04212202013D

 46 49  0  0  1  0  0  0  0  0999 V2000
   -4.8279   18.6020    9.2062 Au  0  0  0  0  0  0  0  0  0  0  0  0
   -4.5695   19.3350   11.2979 Cl  0  0  0  0  0  0  0  0  0  0  0  0
   -5.0741   17.9100    7.3828 C   0  0  2  0  0  3  0  0  0  0  0  0
   -5.4752   18.6635    6.1522 C   0  0  0  0  0  0  0  0  0  0  0  0
   -6.2938   19.3570    6.3428 H   0  0  0  0  0  0  0  0  0  0  0  0
   -4.6102   19.2531    5.8207 H   0  0  0  0  0  0  0  0  0  0  0  0
   -5.8189   17.6693    5.1320 N   0  0  0  0  0  0  0  0  0  0  0  0
   -5.1998   16.4524    5.5846 C   0  0  0  0  0  0  0  0  0  0  0  0
   -4.2288   16.3012    5.0912 H   0  0  0  0  0  0  0  0  0  0  0  0
   -5.8256   15.5712    5.4182 H   0  0  0  0  0  0  0  0  0  0  0  0
   -4.9481   16.6710    7.0207 N   0  0  0  0  0  0  0  0  0  0  0  0
   -7.2510   17.5379    4.8915 C   0  0  0  0  0  0  0  0  0  0  0  0
   -7.6264   18.5355    4.6440 H   0  0  0  0  0  0  0  0  0  0  0  0
   -7.7922   17.1731    5.7794 H   0  0  0  0  0  0  0  0  0  0  0  0
   -7.4904   16.6183    3.7241 C   0  0  0  0  0  0  0  0  0  0  0  0
   -6.8227   16.8407    2.5255 C   0  0  0  0  0  0  0  0  0  0  0  0
   -6.1411   17.6747    2.4545 H   0  0  0  0  0  0  0  0  0  0  0  0
   -7.0264   16.0031    1.4448 C   0  0  0  0  0  0  0  0  0  0  0  0
   -6.5047   16.1853    0.5169 H   0  0  0  0  0  0  0  0  0  0  0  0
   -7.9016   14.9339    1.5497 C   0  0  0  0  0  0  0  0  0  0  0  0
   -8.0620   14.2807    0.7049 H   0  0  0  0  0  0  0  0  0  0  0  0
   -8.5694   14.7072    2.7399 C   0  0  0  0  0  0  0  0  0  0  0  0
   -9.2531   13.8757    2.8275 H   0  0  0  0  0  0  0  0  0  0  0  0
   -8.3630   15.5446    3.8235 C   0  0  0  0  0  0  0  0  0  0  0  0
   -8.8858   15.3630    4.7517 H   0  0  0  0  0  0  0  0  0  0  0  0
   -4.5062   15.6040    7.8398 C   0  0  0  0  0  0  0  0  0  0  0  0
   -3.1819   15.5810    8.2555 C   0  0  0  0  0  0  0  0  0  0  0  0
   -2.5288   16.3952    7.9799 H   0  0  0  0  0  0  0  0  0  0  0  0
   -2.7150   14.5253    9.0161 C   0  0  0  0  0  0  0  0  0  0  0  0
   -1.6884   14.5151    9.3472 H   0  0  0  0  0  0  0  0  0  0  0  0
   -3.5679   13.4855    9.3481 C   0  0  0  0  0  0  0  0  0  0  0  0
   -3.2067   12.6582    9.9396 H   0  0  0  0  0  0  0  0  0  0  0  0
   -4.8865   13.5102    8.9340 C   0  0  0  0  0  0  0  0  0  0  0  0
   -5.5596   12.7126    9.2114 H   0  0  0  0  0  0  0  0  0  0  0  0
   -5.3818   14.5724    8.1836 C   0  0  0  0  0  0  0  0  0  0  0  0
   -6.8095   14.6118    7.8176 C   0  0  0  0  0  0  0  0  0  0  0  0
   -7.3987   13.5366    7.1585 C   0  0  0  0  0  0  0  0  0  0  0  0
   -6.7903   12.6886    6.8783 H   0  0  0  0  0  0  0  0  0  0  0  0
   -8.7479   13.5566    6.8559 C   0  0  0  0  0  0  0  0  0  0  0  0
   -9.1950   12.7194    6.3407 H   0  0  0  0  0  0  0  0  0  0  0  0
   -9.5247   14.6466    7.2148 C   0  0  0  0  0  0  0  0  0  0  0  0
  -10.5799   14.6594    6.9843 H   0  0  0  0  0  0  0  0  0  0  0  0
   -8.9460   15.7185    7.8748 C   0  0  0  0  0  0  0  0  0  0  0  0
   -9.5497   16.5661    8.1642 H   0  0  0  0  0  0  0  0  0  0  0  0
   -7.5950   15.7051    8.1735 C   0  0  0  0  0  0  0  0  0  0  0  0
   -7.1502   16.5311    8.7117 H   0  0  0  0  0  0  0  0  0  0  0  0
  1  2  1  0  0  0  0
  3  1  1  1  0  0  0
  4  5  1  0  0  0  0
  4  3  1  0  0  0  0
  6  4  1  0  0  0  0
  7  8  1  0  0  0  0
  7  4  1  0  0  0  0
  8 11  1  0  0  0  0
  9  8  1  0  0  0  0
 10  8  1  0  0  0  0
 11  3  1  0  0  0  0
 11 26  1  0  0  0  0
 12  7  1  0  0  0  0
 12 14  1  0  0  0  0
 13 12  1  0  0  0  0
 15 24  1  0  0  0  0
 15 12  1  0  0  0  0
 16 15  2  0  0  0  0
 17 16  1  0  0  0  0
 18 20  2  0  0  0  0
 18 16  1  0  0  0  0
 19 18  1  0  0  0  0
 20 22  1  0  0  0  0
 21 20  1  0  0  0  0
 22 23  1  0  0  0  0
 22 24  2  0  0  0  0
 24 25  1  0  0  0  0
 26 35  2  0  0  0  0
 26 27  1  0  0  0  0
 27 29  2  0  0  0  0
 28 27  1  0  0  0  0
 29 30  1  0  0  0  0
 29 31  1  0  0  0  0
 31 32  1  0  0  0  0
 33 34  1  0  0  0  0
 33 31  2  0  0  0  0
 35 33  1  0  0  0  0
 36 45  1  0  0  0  0
 36 35  1  0  0  0  0
 37 36  2  0  0  0  0
 38 37  1  0  0  0  0
 39 37  1  0  0  0  0
 39 41  2  0  0  0  0
 40 39  1  0  0  0  0
 41 43  1  0  0  0  0
 42 41  1  0  0  0  0
 43 44  1  0  0  0  0
 43 45  2  0  0  0  0
 45 46  1  0  0  0  0
M  END
$$$$
