CSD_code = BATNOA | q = 0 | S = 0 | Stoichiometry = C31H27Cl2NP2Pt | MND = 4
 OpenBabel04212202013D

 64 69  0  0  0  0  0  0  0  0999 V2000
   12.2011   -0.5135   14.4750 C   0  0  0  0  0  0  0  0  0  0  0  0
   12.2713   -1.8807   14.2494 C   0  0  0  0  0  0  0  0  0  0  0  0
   11.6019   -2.3492   13.5431 H   0  0  0  0  0  0  0  0  0  0  0  0
   13.2109   -2.6408   14.9252 C   0  0  0  0  0  0  0  0  0  0  0  0
   13.2629   -3.7052   14.7515 H   0  0  0  0  0  0  0  0  0  0  0  0
   14.0925   -2.0440   15.8102 C   0  0  0  0  0  0  0  0  0  0  0  0
   14.8333   -2.6409   16.3209 H   0  0  0  0  0  0  0  0  0  0  0  0
   14.0298   -0.6794   16.0403 C   0  0  0  0  0  0  0  0  0  0  0  0
   14.7243   -0.2095   16.7237 H   0  0  0  0  0  0  0  0  0  0  0  0
   13.0734    0.0794   15.3865 C   0  0  0  0  0  0  0  0  0  0  0  0
   10.2339   -0.3484   12.4468 C   0  0  0  0  0  0  0  0  0  0  0  0
    9.3774   -1.3530   12.8923 C   0  0  0  0  0  0  0  0  0  0  0  0
    9.2511   -1.5045   13.9566 H   0  0  0  0  0  0  0  0  0  0  0  0
    8.6880   -2.1347   11.9856 C   0  0  0  0  0  0  0  0  0  0  0  0
    8.0223   -2.9101   12.3363 H   0  0  0  0  0  0  0  0  0  0  0  0
    8.8408   -1.9131   10.6260 C   0  0  0  0  0  0  0  0  0  0  0  0
    8.2963   -2.5178    9.9159 H   0  0  0  0  0  0  0  0  0  0  0  0
    9.6778   -0.9046   10.1798 C   0  0  0  0  0  0  0  0  0  0  0  0
    9.7830   -0.7197    9.1208 H   0  0  0  0  0  0  0  0  0  0  0  0
   10.3719   -0.1195   11.0840 C   0  0  0  0  0  0  0  0  0  0  0  0
   11.0039    0.6824   10.7313 H   0  0  0  0  0  0  0  0  0  0  0  0
   12.1647    1.7604   12.8055 C   0  0  0  0  0  0  0  0  0  0  0  0
   13.2151    1.2460   12.0518 C   0  0  0  0  0  0  0  0  0  0  0  0
   13.3629    0.1752   11.9969 H   0  0  0  0  0  0  0  0  0  0  0  0
   14.0601    2.1083   11.3770 C   0  0  0  0  0  0  0  0  0  0  0  0
   14.8737    1.7124   10.7863 H   0  0  0  0  0  0  0  0  0  0  0  0
   13.8625    3.4785   11.4545 C   0  0  0  0  0  0  0  0  0  0  0  0
   14.5221    4.1469   10.9206 H   0  0  0  0  0  0  0  0  0  0  0  0
   12.8231    3.9913   12.2145 C   0  0  0  0  0  0  0  0  0  0  0  0
   12.6734    5.0592   12.2742 H   0  0  0  0  0  0  0  0  0  0  0  0
   11.9767    3.1340   12.8937 C   0  0  0  0  0  0  0  0  0  0  0  0
   11.1558    3.5133   13.4951 H   0  0  0  0  0  0  0  0  0  0  0  0
   10.1629    2.1648   18.5845 C   0  0  0  0  0  0  0  0  0  0  0  0
   10.1598    3.5565   18.6437 C   0  0  0  0  0  0  0  0  0  0  0  0
   10.4325    4.1254   17.7654 H   0  0  0  0  0  0  0  0  0  0  0  0
    9.7709    4.1982   19.8031 C   0  0  0  0  0  0  0  0  0  0  0  0
    9.7610    5.2771   19.8451 H   0  0  0  0  0  0  0  0  0  0  0  0
    9.3763    3.4568   20.9062 C   0  0  0  0  0  0  0  0  0  0  0  0
    9.0650    3.9588   21.8103 H   0  0  0  0  0  0  0  0  0  0  0  0
    9.3641    2.0738   20.8448 C   0  0  0  0  0  0  0  0  0  0  0  0
    9.0429    1.4969   21.6998 H   0  0  0  0  0  0  0  0  0  0  0  0
    9.7499    1.4240   19.6851 C   0  0  0  0  0  0  0  0  0  0  0  0
    9.7224    0.3446   19.6329 H   0  0  0  0  0  0  0  0  0  0  0  0
   10.5976   -0.3876   17.3263 C   0  0  0  0  0  0  0  0  0  0  0  0
   11.5213   -1.0748   18.1047 C   0  0  0  0  0  0  0  0  0  0  0  0
   12.3116   -0.5416   18.6137 H   0  0  0  0  0  0  0  0  0  0  0  0
   11.4273   -2.4490   18.2330 C   0  0  0  0  0  0  0  0  0  0  0  0
   12.1525   -2.9821   18.8302 H   0  0  0  0  0  0  0  0  0  0  0  0
   10.4079   -3.1421   17.6012 C   0  0  0  0  0  0  0  0  0  0  0  0
   10.3439   -4.2153   17.7022 H   0  0  0  0  0  0  0  0  0  0  0  0
    9.4657   -2.4590   16.8491 C   0  0  0  0  0  0  0  0  0  0  0  0
    8.6606   -2.9978   16.3714 H   0  0  0  0  0  0  0  0  0  0  0  0
    9.5621   -1.0870   16.7129 C   0  0  0  0  0  0  0  0  0  0  0  0
    8.8323   -0.5251   16.1327 H   0  0  0  0  0  0  0  0  0  0  0  0
   12.4263    1.8489   16.8968 C   0  0  0  0  0  0  0  0  0  0  0  0
   12.4800    2.9374   17.0006 H   0  0  0  0  0  0  0  0  0  0  0  0
   12.9979    1.3916   17.7200 H   0  0  0  0  0  0  0  0  0  0  0  0
   12.8993    1.4827   15.5743 N   0  0  0  0  0  0  0  0  0  0  0  0
   13.7568    1.9826   15.3510 H   0  0  0  0  0  0  0  0  0  0  0  0
   11.0396    0.6729   13.7147 P   0  0  0  0  0  4  0  0  0  0  0  0
   10.6287    1.4013   17.0081 P   0  0  0  0  0  4  0  0  0  0  0  0
    8.6045    2.2068   13.0034 Cl  0  0  0  0  0  0  0  0  0  0  0  0
    8.0750    3.1375   16.1556 Cl  0  0  0  0  0  0  0  0  0  0  0  0
    9.6041    1.8405   15.0409 Pt  0  0  0  0  0  0  0  0  0  0  0  0
  1 10  1  0  0  0  0
  2  1  2  0  0  0  0
  2  4  1  0  0  0  0
  3  2  1  0  0  0  0
  4  6  2  0  0  0  0
  5  4  1  0  0  0  0
  6  8  1  0  0  0  0
  6  7  1  0  0  0  0
  8  9  1  0  0  0  0
 10 58  1  0  0  0  0
 10  8  2  0  0  0  0
 11 12  1  0  0  0  0
 11 60  1  0  0  0  0
 12 13  1  0  0  0  0
 14 15  1  0  0  0  0
 14 12  2  0  0  0  0
 16 14  1  0  0  0  0
 17 16  1  0  0  0  0
 18 16  2  0  0  0  0
 18 20  1  0  0  0  0
 19 18  1  0  0  0  0
 20 11  2  0  0  0  0
 21 20  1  0  0  0  0
 22 31  1  0  0  0  0
 22 60  1  0  0  0  0
 23 22  2  0  0  0  0
 24 23  1  0  0  0  0
 25 27  2  0  0  0  0
 25 23  1  0  0  0  0
 26 25  1  0  0  0  0
 27 29  1  0  0  0  0
 28 27  1  0  0  0  0
 29 30  1  0  0  0  0
 29 31  2  0  0  0  0
 31 32  1  0  0  0  0
 33 34  2  0  0  0  0
 33 42  1  0  0  0  0
 34 36  1  0  0  0  0
 35 34  1  0  0  0  0
 36 37  1  0  0  0  0
 36 38  2  0  0  0  0
 38 39  1  0  0  0  0
 40 38  1  0  0  0  0
 40 41  1  0  0  0  0
 42 40  2  0  0  0  0
 43 42  1  0  0  0  0
 44 45  1  0  0  0  0
 45 47  2  0  0  0  0
 45 46  1  0  0  0  0
 47 48  1  0  0  0  0
 49 50  1  0  0  0  0
 49 47  1  0  0  0  0
 51 49  2  0  0  0  0
 52 51  1  0  0  0  0
 53 51  1  0  0  0  0
 53 44  2  0  0  0  0
 54 53  1  0  0  0  0
 55 56  1  0  0  0  0
 55 61  1  0  0  0  0
 55 57  1  0  0  0  0
 58 55  1  0  0  0  0
 59 58  1  0  0  0  0
 60  1  1  0  0  0  0
 60 64  1  0  0  0  0
 61 44  1  0  0  0  0
 61 33  1  0  0  0  0
 62 64  1  0  0  0  0
 64 63  1  0  0  0  0
 64 61  1  0  0  0  0
M  END
$$$$
