CSD_code = BATQET | q = 0 | S = 0 | Stoichiometry = C32H27I2NO2P2Pt | MND = 4
 OpenBabel04212202013D

 67 72  0  0  0  0  0  0  0  0999 V2000
    3.1282    3.9899    2.1247 C   0  0  0  0  0  0  0  0  0  0  0  0
    1.7367    4.0186    2.0639 C   0  0  0  0  0  0  0  0  0  0  0  0
    1.1581    3.7934    2.9610 H   0  0  0  0  0  0  0  0  0  0  0  0
    1.0978    4.3490    0.8855 C   0  0  0  0  0  0  0  0  0  0  0  0
    0.0194    4.3732    0.8425 H   0  0  0  0  0  0  0  0  0  0  0  0
    1.8509    4.6663   -0.2345 C   0  0  0  0  0  0  0  0  0  0  0  0
    1.3566    4.9345   -1.1561 H   0  0  0  0  0  0  0  0  0  0  0  0
    3.2352    4.6555   -0.1722 C   0  0  0  0  0  0  0  0  0  0  0  0
    3.8169    4.9149   -1.0442 H   0  0  0  0  0  0  0  0  0  0  0  0
    3.8814    4.3205    1.0043 C   0  0  0  0  0  0  0  0  0  0  0  0
    4.9619    4.3245    1.0487 H   0  0  0  0  0  0  0  0  0  0  0  0
    5.5640    3.8557    3.7654 C   0  0  0  0  0  0  0  0  0  0  0  0
    6.4789    2.9287    4.2564 C   0  0  0  0  0  0  0  0  0  0  0  0
    6.1477    1.9470    4.5682 H   0  0  0  0  0  0  0  0  0  0  0  0
    7.8159    3.2696    4.3377 C   0  0  0  0  0  0  0  0  0  0  0  0
    8.5297    2.5481    4.7065 H   0  0  0  0  0  0  0  0  0  0  0  0
    8.2377    4.5341    3.9569 C   0  0  0  0  0  0  0  0  0  0  0  0
    9.2831    4.7947    4.0262 H   0  0  0  0  0  0  0  0  0  0  0  0
    7.3206    5.4700    3.5046 C   0  0  0  0  0  0  0  0  0  0  0  0
    7.6461    6.4623    3.2317 H   0  0  0  0  0  0  0  0  0  0  0  0
    5.9823    5.1379    3.4131 C   0  0  0  0  0  0  0  0  0  0  0  0
    5.2543    5.8690    3.0875 H   0  0  0  0  0  0  0  0  0  0  0  0
    4.1313    0.8131    3.1470 C   0  0  0  0  0  0  0  0  0  0  0  0
    3.9260   -0.5257    3.4729 C   0  0  0  0  0  0  0  0  0  0  0  0
    3.3011   -0.7763    4.3174 H   0  0  0  0  0  0  0  0  0  0  0  0
    4.5183   -1.5240    2.7208 C   0  0  0  0  0  0  0  0  0  0  0  0
    4.3477   -2.5567    2.9842 H   0  0  0  0  0  0  0  0  0  0  0  0
    5.3259   -1.2073    1.6440 C   0  0  0  0  0  0  0  0  0  0  0  0
    5.7996   -1.9724    1.0499 H   0  0  0  0  0  0  0  0  0  0  0  0
    5.5377    0.1293    1.3162 C   0  0  0  0  0  0  0  0  0  0  0  0
    4.9366    1.1334    2.0616 C   0  0  0  0  0  0  0  0  0  0  0  0
    5.1000    2.1652    1.7962 H   0  0  0  0  0  0  0  0  0  0  0  0
    6.4143    0.4578    0.1652 C   0  0  0  0  0  0  0  0  0  0  0  0
    7.4257    2.1801   -1.0582 C   0  0  0  0  0  0  0  0  0  0  0  0
    8.3761    1.6440   -1.0219 H   0  0  0  0  0  0  0  0  0  0  0  0
    7.5840    3.2496   -0.9434 H   0  0  0  0  0  0  0  0  0  0  0  0
    6.9383    1.9652   -2.0115 H   0  0  0  0  0  0  0  0  0  0  0  0
    3.2865    0.8543    6.5319 C   0  0  0  0  0  0  0  0  0  0  0  0
    3.0278   -0.4454    6.9496 C   0  0  0  0  0  0  0  0  0  0  0  0
    2.2564   -1.0325    6.4694 H   0  0  0  0  0  0  0  0  0  0  0  0
    3.7566   -0.9794    7.9976 C   0  0  0  0  0  0  0  0  0  0  0  0
    3.5554   -1.9877    8.3277 H   0  0  0  0  0  0  0  0  0  0  0  0
    4.7339   -0.2257    8.6275 C   0  0  0  0  0  0  0  0  0  0  0  0
    5.2930   -0.6495    9.4479 H   0  0  0  0  0  0  0  0  0  0  0  0
    4.9855    1.0755    8.2198 C   0  0  0  0  0  0  0  0  0  0  0  0
    5.7350    1.6686    8.7215 H   0  0  0  0  0  0  0  0  0  0  0  0
    4.2570    1.6158    7.1790 C   0  0  0  0  0  0  0  0  0  0  0  0
    4.4220    2.6474    6.8659 H   0  0  0  0  0  0  0  0  0  0  0  0
    1.0284    0.7197    4.6577 C   0  0  0  0  0  0  0  0  0  0  0  0
    0.1008    0.3460    5.6298 C   0  0  0  0  0  0  0  0  0  0  0  0
    0.2778    0.6022    6.6660 H   0  0  0  0  0  0  0  0  0  0  0  0
   -1.0470   -0.3271    5.2576 C   0  0  0  0  0  0  0  0  0  0  0  0
   -1.7658   -0.6164    6.0090 H   0  0  0  0  0  0  0  0  0  0  0  0
   -1.2783   -0.6165    3.9216 C   0  0  0  0  0  0  0  0  0  0  0  0
   -2.1758   -1.1421    3.6324 H   0  0  0  0  0  0  0  0  0  0  0  0
   -0.3702   -0.2183    2.9528 C   0  0  0  0  0  0  0  0  0  0  0  0
   -0.5608   -0.4302    1.9112 H   0  0  0  0  0  0  0  0  0  0  0  0
    0.7787    0.4611    3.3131 C   0  0  0  0  0  0  0  0  0  0  0  0
    1.4792    0.7862    2.5554 H   0  0  0  0  0  0  0  0  0  0  0  0
    3.5472    1.8324    3.8972 N   0  0  0  0  0  0  0  0  0  0  0  0
    6.9226   -0.3596   -0.5600 O   0  0  0  0  0  0  0  0  0  0  0  0
    6.5927    1.7818    0.0206 O   0  0  0  0  0  0  0  0  0  0  0  0
    2.7989    6.5328    5.3441 I   0  0  0  0  0  0  0  0  0  0  0  0
    0.6179    3.8840    7.3670 I   0  0  0  0  0  0  0  0  0  0  0  0
    2.3755    3.9741    5.4595 Pt  0  0  0  0  0  0  0  0  0  0  0  0
    3.7903    3.5400    3.7515 P   0  0  0  0  0  4  0  0  0  0  0  0
    2.4184    1.7280    5.2025 P   0  0  0  0  0  4  0  0  0  0  0  0
  1 66  1  0  0  0  0
  2  1  1  0  0  0  0
  2  3  1  0  0  0  0
  4  2  2  0  0  0  0
  5  4  1  0  0  0  0
  6  8  2  0  0  0  0
  6  4  1  0  0  0  0
  7  6  1  0  0  0  0
  8 10  1  0  0  0  0
  9  8  1  0  0  0  0
 10 11  1  0  0  0  0
 10  1  2  0  0  0  0
 12 13  1  0  0  0  0
 13 15  2  0  0  0  0
 13 14  1  0  0  0  0
 15 16  1  0  0  0  0
 17 18  1  0  0  0  0
 17 15  1  0  0  0  0
 19 17  2  0  0  0  0
 20 19  1  0  0  0  0
 21 19  1  0  0  0  0
 21 12  2  0  0  0  0
 22 21  1  0  0  0  0
 23 24  1  0  0  0  0
 23 60  1  0  0  0  0
 24 25  1  0  0  0  0
 26 27  1  0  0  0  0
 26 24  2  0  0  0  0
 28 26  1  0  0  0  0
 29 28  1  0  0  0  0
 30 28  2  0  0  0  0
 30 31  1  0  0  0  0
 31 23  2  0  0  0  0
 32 31  1  0  0  0  0
 33 30  1  0  0  0  0
 34 35  1  0  0  0  0
 34 36  1  0  0  0  0
 34 62  1  0  0  0  0
 37 34  1  0  0  0  0
 38 39  2  0  0  0  0
 38 47  1  0  0  0  0
 39 41  1  0  0  0  0
 40 39  1  0  0  0  0
 41 42  1  0  0  0  0
 41 43  2  0  0  0  0
 43 44  1  0  0  0  0
 45 43  1  0  0  0  0
 45 46  1  0  0  0  0
 47 45  2  0  0  0  0
 48 47  1  0  0  0  0
 49 67  1  0  0  0  0
 49 50  1  0  0  0  0
 50 51  1  0  0  0  0
 52 50  2  0  0  0  0
 52 53  1  0  0  0  0
 54 52  1  0  0  0  0
 55 54  1  0  0  0  0
 56 58  1  0  0  0  0
 56 54  2  0  0  0  0
 57 56  1  0  0  0  0
 58 49  2  0  0  0  0
 59 58  1  0  0  0  0
 60 67  1  0  0  0  0
 61 33  2  0  0  0  0
 62 33  1  0  0  0  0
 63 65  1  0  0  0  0
 65 64  1  0  0  0  0
 66 12  1  0  0  0  0
 66 60  1  0  0  0  0
 66 65  1  0  0  0  0
 67 65  1  0  0  0  0
 67 38  1  0  0  0  0
M  END
$$$$
