CSD_code = BATTIZ | q = 0 | S = 0 | Stoichiometry = C11H10Cl2N2O2Pd | MND = 4
 OpenBabel04212202013D

 28 30  0  0  0  0  0  0  0  0999 V2000
    5.0323    1.8937    2.8891 Pd  0  0  0  0  0  0  0  0  0  0  0  0
    3.4462    0.4052    3.3289 Cl  0  0  0  0  0  0  0  0  0  0  0  0
    3.8282    3.5579    3.7371 Cl  0  0  0  0  0  0  0  0  0  0  0  0
    9.2626    1.4403    3.8874 O   0  0  0  0  0  0  0  0  0  0  0  0
    7.0781    1.4889    4.5937 O   0  0  0  0  0  0  0  0  0  0  0  0
    6.5076    3.2087    2.4213 N   0  0  0  0  0  0  0  0  0  0  0  0
    6.2193    0.4328    2.1628 N   0  0  0  0  0  0  0  0  0  0  0  0
    6.2762    4.3502    1.7732 C   0  0  0  0  0  3  0  0  0  0  0  0
    7.3023    5.1924    1.3831 C   0  0  0  0  0  0  0  0  0  0  0  0
    8.6124    4.8425    1.6769 C   0  0  0  0  0  0  0  0  0  0  0  0
    8.8500    3.6597    2.3610 C   0  0  0  0  0  0  0  0  0  0  0  0
    7.7670    2.8758    2.7199 C   0  0  0  0  0  0  0  0  0  0  0  0
    5.7830   -0.5206    1.3410 C   0  0  0  0  0  3  0  0  0  0  0  0
    6.6259   -1.4886    0.8234 C   0  0  0  0  0  0  0  0  0  0  0  0
    7.9696   -1.4641    1.1651 C   0  0  0  0  0  0  0  0  0  0  0  0
    8.4179   -0.4771    2.0300 C   0  0  0  0  0  0  0  0  0  0  0  0
    7.5076    0.4452    2.5172 C   0  0  0  0  0  0  0  0  0  0  0  0
    7.9344    1.5620    3.4781 C   0  0  0  0  0  0  0  0  0  0  0  0
    5.2349    4.5874    1.5875 H   0  0  0  0  0  0  0  0  0  0  0  0
    7.0756    6.1076    0.8606 H   0  0  0  0  0  0  0  0  0  0  0  0
    9.4342    5.4787    1.3881 H   0  0  0  0  0  0  0  0  0  0  0  0
    9.8438    3.3442    2.6314 H   0  0  0  0  0  0  0  0  0  0  0  0
    4.7229   -0.5030    1.1155 H   0  0  0  0  0  0  0  0  0  0  0  0
    6.2336   -2.2456    0.1638 H   0  0  0  0  0  0  0  0  0  0  0  0
    8.6561   -2.1996    0.7756 H   0  0  0  0  0  0  0  0  0  0  0  0
    9.4535   -0.4168    2.3253 H   0  0  0  0  0  0  0  0  0  0  0  0
    9.3165    0.7086    4.5163 H   0  0  0  0  0  0  0  0  0  0  0  0
    7.1410    2.2965    5.1259 H   0  0  0  0  0  0  0  0  0  0  0  0
  1  2  1  0  0  0  0
  1  3  1  0  0  0  0
  4 27  1  0  0  0  0
  5 28  1  0  0  0  0
  6 12  1  0  0  0  0
  6  1  1  0  0  0  0
  7 17  1  0  0  0  0
  7  1  1  0  0  0  0
  8  6  1  0  0  0  0
  9 10  2  0  0  0  0
  9  8  1  0  0  0  0
 10 11  1  0  0  0  0
 11 22  1  0  0  0  0
 11 12  2  0  0  0  0
 12 18  1  0  0  0  0
 13  7  1  0  0  0  0
 14 15  2  0  0  0  0
 14 13  1  0  0  0  0
 15 16  1  0  0  0  0
 16 26  1  0  0  0  0
 16 17  2  0  0  0  0
 17 18  1  0  0  0  0
 18  4  1  0  0  0  0
 18  5  1  0  0  0  0
 19  8  1  0  0  0  0
 20  9  1  0  0  0  0
 21 10  1  0  0  0  0
 23 13  1  0  0  0  0
 24 14  1  0  0  0  0
 25 15  1  0  0  0  0
M  END
$$$$
