CSD_code = BATTIB | q = 0 | S = 0 | Stoichiometry = C18H32I2N4Pd | MND = 4
 OpenBabel04212202013D

 57 60  0  0  1  0  0  0  0  0999 V2000
    0.0011    5.5698   -0.0014 Pd  0  0  0  0  0  0  0  0  0  0  0  0
    1.0790    3.2788    0.6496 I   0  0  0  0  0  0  0  0  0  0  0  0
    1.0783    6.4928    1.4039 N   0  0  0  0  0  0  0  0  0  0  0  0
    1.3674    7.3668    3.5418 N   0  0  1  0  0  0  0  0  0  0  0  0
    0.6585    6.7044    2.6026 C   0  0  2  0  0  3  0  0  0  0  0  0
   -0.7028    6.1659    2.9641 C   0  0  0  0  0  0  0  0  0  0  0  0
   -1.1935    5.8374    2.0226 H   0  0  0  0  0  0  0  0  0  0  0  0
   -1.3188    6.9555    3.4005 H   0  0  0  0  0  0  0  0  0  0  0  0
   -0.6181    4.9634    3.9128 C   0  0  0  0  0  0  0  0  0  0  0  0
    0.1978    4.3112    3.5934 H   0  0  0  0  0  0  0  0  0  0  0  0
   -1.5444    4.3911    3.8279 H   0  0  0  0  0  0  0  0  0  0  0  0
   -0.4278    5.3530    5.3746 C   0  0  0  0  0  0  0  0  0  0  0  0
   -1.2736    5.9656    5.6991 H   0  0  0  0  0  0  0  0  0  0  0  0
   -0.4293    4.4439    5.9794 H   0  0  0  0  0  0  0  0  0  0  0  0
    0.8679    6.1157    5.6343 C   0  0  0  0  0  0  0  0  0  0  0  0
    1.7215    5.5115    5.3199 H   0  0  0  0  0  0  0  0  0  0  0  0
    0.9619    6.2927    6.7074 H   0  0  0  0  0  0  0  0  0  0  0  0
    0.9159    7.4666    4.9122 C   0  0  0  0  0  0  0  0  0  0  0  0
   -0.0727    7.9371    4.9438 H   0  0  0  0  0  0  0  0  0  0  0  0
    1.6118    8.1305    5.4290 H   0  0  0  0  0  0  0  0  0  0  0  0
    2.7136    7.8121    3.2368 C   0  0  0  0  0  0  0  0  0  0  0  0
    3.4403    7.0263    3.4862 H   0  0  0  0  0  0  0  0  0  0  0  0
    2.9361    8.6888    3.8513 H   0  0  0  0  0  0  0  0  0  0  0  0
    2.8144    8.1681    1.7597 C   0  0  0  0  0  0  0  0  0  0  0  0
    3.8343    8.4525    1.5042 H   0  0  0  0  0  0  0  0  0  0  0  0
    2.1491    9.0066    1.5416 H   0  0  0  0  0  0  0  0  0  0  0  0
    2.3698    6.9547    0.9527 C   0  0  0  0  0  0  0  0  0  0  0  0
    2.2897    7.2117   -0.1168 H   0  0  0  0  0  0  0  0  0  0  0  0
    3.0983    6.1359    1.0509 H   0  0  0  0  0  0  0  0  0  0  0  0
   -1.0804    7.8609   -0.6497 I   0  0  0  0  0  0  0  0  0  0  0  0
   -1.0779    4.6447   -1.4040 N   0  0  0  0  0  0  0  0  0  0  0  0
   -1.3674    3.7710   -3.5419 N   0  0  2  0  0  0  0  0  0  0  0  0
   -0.6585    4.4332   -2.6026 C   0  0  1  0  0  3  0  0  0  0  0  0
    0.7028    4.9719   -2.9641 C   0  0  0  0  0  0  0  0  0  0  0  0
    1.1934    5.3005   -2.0224 H   0  0  0  0  0  0  0  0  0  0  0  0
    1.3189    4.1825   -3.4004 H   0  0  0  0  0  0  0  0  0  0  0  0
    0.6181    6.1745   -3.9126 C   0  0  0  0  0  0  0  0  0  0  0  0
   -0.1979    6.8267   -3.5932 H   0  0  0  0  0  0  0  0  0  0  0  0
    1.5443    6.7469   -3.8276 H   0  0  0  0  0  0  0  0  0  0  0  0
    0.4279    5.7850   -5.3745 C   0  0  0  0  0  0  0  0  0  0  0  0
    1.2736    5.1724   -5.6990 H   0  0  0  0  0  0  0  0  0  0  0  0
    0.4294    6.6941   -5.9792 H   0  0  0  0  0  0  0  0  0  0  0  0
   -0.8679    5.0223   -5.6342 C   0  0  0  0  0  0  0  0  0  0  0  0
   -1.7215    5.6265   -5.3198 H   0  0  0  0  0  0  0  0  0  0  0  0
   -0.9618    4.8454   -6.7073 H   0  0  0  0  0  0  0  0  0  0  0  0
   -0.9159    3.6714   -4.9122 C   0  0  0  0  0  0  0  0  0  0  0  0
    0.0726    3.2009   -4.9439 H   0  0  0  0  0  0  0  0  0  0  0  0
   -1.6119    3.0076   -5.4291 H   0  0  0  0  0  0  0  0  0  0  0  0
   -2.7137    3.3258   -3.2368 C   0  0  0  0  0  0  0  0  0  0  0  0
   -3.4402    4.1117   -3.4862 H   0  0  0  0  0  0  0  0  0  0  0  0
   -2.9363    2.4492   -3.8513 H   0  0  0  0  0  0  0  0  0  0  0  0
   -2.8145    2.9698   -1.7597 C   0  0  0  0  0  0  0  0  0  0  0  0
   -3.8345    2.6856   -1.5043 H   0  0  0  0  0  0  0  0  0  0  0  0
   -2.1494    2.1312   -1.5417 H   0  0  0  0  0  0  0  0  0  0  0  0
   -2.3697    4.1831   -0.9525 C   0  0  0  0  0  0  0  0  0  0  0  0
   -2.2897    3.9260    0.1168 H   0  0  0  0  0  0  0  0  0  0  0  0
   -3.0979    5.0020   -1.0508 H   0  0  0  0  0  0  0  0  0  0  0  0
  1  2  1  0  0  0  0
  1  3  1  0  0  0  0
  4 21  1  1  0  0  0
  4 18  1  0  0  0  0
  5  3  1  1  0  0  0
  5  6  1  0  0  0  0
  5  4  1  0  0  0  0
  6  8  1  0  0  0  0
  6  9  1  0  0  0  0
  7  6  1  0  0  0  0
  9 12  1  0  0  0  0
 10  9  1  0  0  0  0
 11  9  1  0  0  0  0
 12 15  1  0  0  0  0
 12 13  1  0  0  0  0
 12 14  1  0  0  0  0
 15 17  1  0  0  0  0
 16 15  1  0  0  0  0
 18 19  1  0  0  0  0
 18 20  1  0  0  0  0
 18 15  1  0  0  0  0
 21 22  1  0  0  0  0
 21 23  1  0  0  0  0
 24 21  1  0  0  0  0
 25 24  1  0  0  0  0
 26 24  1  0  0  0  0
 27 29  1  0  0  0  0
 27  3  1  0  0  0  0
 27 24  1  0  0  0  0
 28 27  1  0  0  0  0
 30  1  1  0  0  0  0
 31 55  1  0  0  0  0
 31  1  1  0  0  0  0
 32 46  1  6  0  0  0
 32 49  1  0  0  0  0
 32 33  1  0  0  0  0
 33 34  1  6  0  0  0
 33 31  1  0  0  0  0
 34 35  1  0  0  0  0
 36 34  1  0  0  0  0
 37 39  1  0  0  0  0
 37 38  1  0  0  0  0
 37 34  1  0  0  0  0
 40 37  1  0  0  0  0
 41 40  1  0  0  0  0
 42 40  1  0  0  0  0
 43 40  1  0  0  0  0
 43 44  1  0  0  0  0
 43 46  1  0  0  0  0
 45 43  1  0  0  0  0
 47 46  1  0  0  0  0
 48 46  1  0  0  0  0
 49 52  1  0  0  0  0
 50 49  1  0  0  0  0
 51 49  1  0  0  0  0
 52 54  1  0  0  0  0
 52 53  1  0  0  0  0
 52 55  1  0  0  0  0
 55 56  1  0  0  0  0
 57 55  1  0  0  0  0
M  END
$$$$
