CSD_code = BATZUR | q = 0 | S = 0 | Stoichiometry = C11H32Br2IrP3 | MND = 6
 OpenBabel04212202013D

 49 48  0  0  0  0  0  0  0  0999 V2000
    2.0920    2.8395    2.3197 Ir  0  0  0  0  0  0  0  0  0  0  0  0
    0.6105    2.8394    4.3631 Br  0  0  0  0  0  0  0  0  0  0  0  0
    4.2785    2.8395    3.7526 Br  0  0  0  0  0  0  0  0  0  0  0  0
    3.3314    2.8395    0.3196 P   0  0  0  0  0  4  0  0  0  0  0  0
    2.1995    0.5094    2.6029 P   0  0  0  0  0  4  0  0  0  0  0  0
    0.3921    2.8395    1.0040 C   0  0  0  0  0  0  0  0  0  0  0  0
   -1.0145    2.8395    1.5784 C   0  0  0  0  0  0  0  0  0  0  0  0
    3.0760    1.4698   -0.8844 C   0  0  0  0  0  0  0  0  0  0  0  0
    5.1569    2.8395    0.4572 C   0  0  0  0  0  0  0  0  0  0  0  0
    3.8127   -0.3152    2.2885 C   0  0  0  0  0  0  0  0  0  0  0  0
    1.9249   -0.1198    4.2955 C   0  0  0  0  0  0  0  0  0  0  0  0
    1.0410   -0.5706    1.6708 C   0  0  0  0  0  0  0  0  0  0  0  0
    0.4865    1.9586    0.3591 H   0  0  0  0  0  0  0  0  0  0  0  0
   -1.2011    3.7188    2.1903 H   0  0  0  0  0  0  0  0  0  0  0  0
   -1.7403    2.8395    0.7603 H   0  0  0  0  0  0  0  0  0  0  0  0
    2.0615    1.5261   -1.2738 H   0  0  0  0  0  0  0  0  0  0  0  0
    3.2165    0.4978   -0.4202 H   0  0  0  0  0  0  0  0  0  0  0  0
    3.7799    1.5775   -1.7094 H   0  0  0  0  0  0  0  0  0  0  0  0
    5.4797    3.7158    1.0159 H   0  0  0  0  0  0  0  0  0  0  0  0
    5.6145    2.8395   -0.5319 H   0  0  0  0  0  0  0  0  0  0  0  0
    3.6894   -1.3936    2.3848 H   0  0  0  0  0  0  0  0  0  0  0  0
    4.5211    0.0355    3.0375 H   0  0  0  0  0  0  0  0  0  0  0  0
    4.2108   -0.0877    1.3032 H   0  0  0  0  0  0  0  0  0  0  0  0
    0.8820    0.0055    4.5785 H   0  0  0  0  0  0  0  0  0  0  0  0
    2.5413    0.4467    4.9929 H   0  0  0  0  0  0  0  0  0  0  0  0
    2.2003   -1.1739    4.3356 H   0  0  0  0  0  0  0  0  0  0  0  0
    1.1830   -1.6090    1.9670 H   0  0  0  0  0  0  0  0  0  0  0  0
    1.1942   -0.4751    0.5983 H   0  0  0  0  0  0  0  0  0  0  0  0
    0.0223   -0.2675    1.9050 H   0  0  0  0  0  0  0  0  0  0  0  0
    2.1995    5.1696    2.6029 P   0  0  0  0  0  4  0  0  0  0  0  0
    3.0760    4.2092   -0.8843 C   0  0  0  0  0  0  0  0  0  0  0  0
    0.4865    3.7204    0.3591 H   0  0  0  0  0  0  0  0  0  0  0  0
   -1.2011    1.9602    2.1903 H   0  0  0  0  0  0  0  0  0  0  0  0
    5.4797    1.9632    1.0159 H   0  0  0  0  0  0  0  0  0  0  0  0
    3.8127    5.9942    2.2884 C   0  0  0  0  0  0  0  0  0  0  0  0
    1.9249    5.7988    4.2955 C   0  0  0  0  0  0  0  0  0  0  0  0
    1.0410    6.2496    1.6708 C   0  0  0  0  0  0  0  0  0  0  0  0
    2.0615    4.1529   -1.2738 H   0  0  0  0  0  0  0  0  0  0  0  0
    3.2165    5.1812   -0.4202 H   0  0  0  0  0  0  0  0  0  0  0  0
    3.7799    4.1015   -1.7094 H   0  0  0  0  0  0  0  0  0  0  0  0
    3.6895    7.0726    2.3847 H   0  0  0  0  0  0  0  0  0  0  0  0
    4.5211    5.6435    3.0375 H   0  0  0  0  0  0  0  0  0  0  0  0
    4.2109    5.7667    1.3032 H   0  0  0  0  0  0  0  0  0  0  0  0
    0.8821    5.6735    4.5785 H   0  0  0  0  0  0  0  0  0  0  0  0
    2.5414    5.2323    4.9929 H   0  0  0  0  0  0  0  0  0  0  0  0
    2.2003    6.8529    4.3356 H   0  0  0  0  0  0  0  0  0  0  0  0
    1.1830    7.2880    1.9670 H   0  0  0  0  0  0  0  0  0  0  0  0
    1.1942    6.1541    0.5983 H   0  0  0  0  0  0  0  0  0  0  0  0
    0.0223    5.9465    1.9050 H   0  0  0  0  0  0  0  0  0  0  0  0
  1 30  1  0  0  0  0
  1  5  1  0  0  0  0
  1  3  1  0  0  0  0
  1  2  1  0  0  0  0
  4  9  1  0  0  0  0
  4  1  1  0  0  0  0
  5 11  1  0  0  0  0
  6  7  1  0  0  0  0
  6  1  1  0  0  0  0
  7 14  1  0  0  0  0
  7 33  1  0  0  0  0
  8 17  1  0  0  0  0
  8  4  1  0  0  0  0
  9 34  1  0  0  0  0
  9 19  1  0  0  0  0
 10 21  1  0  0  0  0
 10  5  1  0  0  0  0
 10 22  1  0  0  0  0
 11 26  1  0  0  0  0
 11 24  1  0  0  0  0
 11 25  1  0  0  0  0
 12 29  1  0  0  0  0
 12 27  1  0  0  0  0
 12  5  1  0  0  0  0
 13  6  1  0  0  0  0
 15  7  1  0  0  0  0
 16  8  1  0  0  0  0
 18  8  1  0  0  0  0
 20  9  1  0  0  0  0
 23 10  1  0  0  0  0
 28 12  1  0  0  0  0
 30 36  1  0  0  0  0
 31 39  1  0  0  0  0
 31  4  1  0  0  0  0
 32  6  1  0  0  0  0
 35 41  1  0  0  0  0
 35 30  1  0  0  0  0
 35 42  1  0  0  0  0
 36 46  1  0  0  0  0
 36 44  1  0  0  0  0
 36 45  1  0  0  0  0
 37 49  1  0  0  0  0
 37 47  1  0  0  0  0
 37 30  1  0  0  0  0
 38 31  1  0  0  0  0
 40 31  1  0  0  0  0
 43 35  1  0  0  0  0
 48 37  1  0  0  0  0
M  END
$$$$
