CSD_code = BAVCUX | q = 0 | S = 0 | Stoichiometry = C33H37I2O5P3W | MND = 7
 OpenBabel04212202013D

 81 85  0  0  0  0  0  0  0  0999 V2000
    4.3566    5.5794    1.2761 W   0  0  0  0  0  0  0  0  0  0  0  0
    5.8687    6.4094   -0.9489 I   0  0  0  0  0 15  0  0  0  0  0  0
    5.3202    7.7652    2.7368 I   0  0  0  0  0  0  0  0  0  0  0  0
    3.4633    5.0212    3.5222 P   0  0  0  0  0  4  0  0  0  0  0  0
    6.0446    4.3842    2.6443 P   0  0  0  0  0  4  0  0  0  0  0  0
    2.7167    7.0848    0.3724 P   0  0  0  0  0  4  0  0  0  0  0  0
    1.7435    3.9497    0.6268 O   0  0  0  0  0  0  0  0  0  0  0  0
    4.3600    2.7684   -0.1771 O   0  0  0  0  0  0  0  0  0  0  0  0
    2.0647    6.8646   -1.0799 O   0  0  0  0  0  0  0  0  0  0  0  0
    2.6875    8.6781    0.4050 O   0  0  0  0  0  0  0  0  0  0  0  0
    1.5289    6.8276    1.4257 O   0  0  0  0  0  0  0  0  0  0  0  0
    7.7018    4.9854    3.1113 C   0  0  0  0  0  0  0  0  0  0  0  0
    8.4195    5.7854    2.2310 C   0  0  0  0  0  0  0  0  0  0  0  0
    7.9857    6.0938    1.2895 H   0  0  0  0  0  0  0  0  0  0  0  0
    9.6935    6.2049    2.5692 C   0  0  0  0  0  0  0  0  0  0  0  0
   10.2444    6.8354    1.8888 H   0  0  0  0  0  0  0  0  0  0  0  0
   10.2515    5.8223    3.7768 C   0  0  0  0  0  0  0  0  0  0  0  0
   11.2433    6.1553    4.0430 H   0  0  0  0  0  0  0  0  0  0  0  0
    9.5410    5.0111    4.6481 C   0  0  0  0  0  0  0  0  0  0  0  0
    9.9798    4.7090    5.5879 H   0  0  0  0  0  0  0  0  0  0  0  0
    8.2689    4.5865    4.3174 C   0  0  0  0  0  0  0  0  0  0  0  0
    7.7152    3.9472    4.9926 H   0  0  0  0  0  0  0  0  0  0  0  0
    6.5157    2.6655    2.2719 C   0  0  0  0  0  0  0  0  0  0  0  0
    6.4211    1.5812    3.1341 C   0  0  0  0  0  0  0  0  0  0  0  0
    6.0260    1.6958    4.1345 H   0  0  0  0  0  0  0  0  0  0  0  0
    6.8312    0.3300    2.7073 C   0  0  0  0  0  0  0  0  0  0  0  0
    6.7484   -0.5143    3.3763 H   0  0  0  0  0  0  0  0  0  0  0  0
    7.3404    0.1583    1.4313 C   0  0  0  0  0  0  0  0  0  0  0  0
    7.6490   -0.8231    1.1038 H   0  0  0  0  0  0  0  0  0  0  0  0
    7.4540    1.2425    0.5751 C   0  0  0  0  0  0  0  0  0  0  0  0
    7.8519    1.1123   -0.4195 H   0  0  0  0  0  0  0  0  0  0  0  0
    7.0440    2.4924    0.9935 C   0  0  0  0  0  0  0  0  0  0  0  0
    7.1243    3.3458    0.3291 H   0  0  0  0  0  0  0  0  0  0  0  0
    5.0797    4.4096    4.2350 C   0  0  0  0  0  0  0  0  0  0  0  0
    5.0008    3.4586    4.7670 H   0  0  0  0  0  0  0  0  0  0  0  0
    5.4960    5.1759    4.9004 H   0  0  0  0  0  0  0  0  0  0  0  0
    2.7735    6.0338    4.8704 C   0  0  0  0  0  0  0  0  0  0  0  0
    2.1827    7.2632    4.6092 C   0  0  0  0  0  0  0  0  0  0  0  0
    2.1414    7.6361    3.5961 H   0  0  0  0  0  0  0  0  0  0  0  0
    1.6536    8.0070    5.6495 C   0  0  0  0  0  0  0  0  0  0  0  0
    1.2004    8.9656    5.4467 H   0  0  0  0  0  0  0  0  0  0  0  0
    1.7124    7.5262    6.9464 C   0  0  0  0  0  0  0  0  0  0  0  0
    1.3033    8.1096    7.7576 H   0  0  0  0  0  0  0  0  0  0  0  0
    2.2960    6.2958    7.2079 C   0  0  0  0  0  0  0  0  0  0  0  0
    2.3390    5.9203    8.2197 H   0  0  0  0  0  0  0  0  0  0  0  0
    2.8254    5.5475    6.1746 C   0  0  0  0  0  0  0  0  0  0  0  0
    3.2736    4.5827    6.3735 H   0  0  0  0  0  0  0  0  0  0  0  0
    2.4146    3.5404    3.6022 C   0  0  0  0  0  0  0  0  0  0  0  0
    1.0922    3.6165    4.0244 C   0  0  0  0  0  0  0  0  0  0  0  0
    0.7014    4.5524    4.4000 H   0  0  0  0  0  0  0  0  0  0  0  0
    0.2819    2.4974    3.9581 C   0  0  0  0  0  0  0  0  0  0  0  0
   -0.7462    2.5618    4.2828 H   0  0  0  0  0  0  0  0  0  0  0  0
    0.7812    1.3038    3.4651 C   0  0  0  0  0  0  0  0  0  0  0  0
    0.1433    0.4347    3.4066 H   0  0  0  0  0  0  0  0  0  0  0  0
    2.0952    1.2271    3.0303 C   0  0  0  0  0  0  0  0  0  0  0  0
    2.4847    0.3035    2.6286 H   0  0  0  0  0  0  0  0  0  0  0  0
    2.9065    2.3427    3.0891 C   0  0  0  0  0  0  0  0  0  0  0  0
    3.9240    2.2862    2.7167 H   0  0  0  0  0  0  0  0  0  0  0  0
    2.8254    4.4197    0.8119 C   0  0  0  0  0  0  0  0  0  0  0  0
    4.2151    3.8373    0.3342 C   0  0  0  0  0  0  0  0  0  0  0  0
    2.1577    5.7191   -1.9180 C   0  0  0  0  0  0  0  0  0  0  0  0
    1.2263    5.1507   -1.8243 H   0  0  0  0  0  0  0  0  0  0  0  0
    2.9852    5.0719   -1.5993 H   0  0  0  0  0  0  0  0  0  0  0  0
    2.3806    6.1687   -3.3517 C   0  0  0  0  0  0  0  0  0  0  0  0
    2.3469    5.3050   -4.0093 H   0  0  0  0  0  0  0  0  0  0  0  0
    3.3525    6.6460   -3.4513 H   0  0  0  0  0  0  0  0  0  0  0  0
    1.6081    6.8742   -3.6465 H   0  0  0  0  0  0  0  0  0  0  0  0
    3.6085    9.5806   -0.2122 C   0  0  0  0  0  0  0  0  0  0  0  0
    4.6328    9.3316    0.0795 H   0  0  0  0  0  0  0  0  0  0  0  0
    3.3549   10.5526    0.2200 H   0  0  0  0  0  0  0  0  0  0  0  0
    3.4828    9.6121   -1.7231 C   0  0  0  0  0  0  0  0  0  0  0  0
    3.8382    8.6811   -2.1551 H   0  0  0  0  0  0  0  0  0  0  0  0
    4.0884   10.4251   -2.1133 H   0  0  0  0  0  0  0  0  0  0  0  0
    2.4461    9.7642   -2.0127 H   0  0  0  0  0  0  0  0  0  0  0  0
    0.2111    7.3598    1.2514 C   0  0  0  0  0  0  0  0  0  0  0  0
    0.0352    7.5375    0.1864 H   0  0  0  0  0  0  0  0  0  0  0  0
    0.1447    8.3144    1.7827 H   0  0  0  0  0  0  0  0  0  0  0  0
   -0.7792    6.3508    1.8047 C   0  0  0  0  0  0  0  0  0  0  0  0
   -1.7958    6.6775    1.6041 H   0  0  0  0  0  0  0  0  0  0  0  0
   -0.6439    6.2431    2.8784 H   0  0  0  0  0  0  0  0  0  0  0  0
   -0.6120    5.3821    1.3388 H   0  0  0  0  0  0  0  0  0  0  0  0
  1  5  1  0  0  0  0
  1  3  1  0  0  0  0
  1  4  1  0  0  0  0
  4 48  1  0  0  0  0
  4 34  1  0  0  0  0
  4 37  1  0  0  0  0
  5 12  1  0  0  0  0
  5 34  1  0  0  0  0
  6 10  1  0  0  0  0
  6  1  1  0  0  0  0
  6 11  1  0  0  0  0
  7 59  2  0  0  0  0
  8 60  2  0  0  0  0
  9  6  1  0  0  0  0
 12 21  1  0  0  0  0
 13 15  1  0  0  0  0
 13 12  2  0  0  0  0
 14 13  1  0  0  0  0
 15 17  2  0  0  0  0
 16 15  1  0  0  0  0
 17 18  1  0  0  0  0
 17 19  1  0  0  0  0
 19 20  1  0  0  0  0
 21 19  2  0  0  0  0
 21 22  1  0  0  0  0
 23  5  1  0  0  0  0
 23 24  1  0  0  0  0
 24 25  1  0  0  0  0
 26 24  2  0  0  0  0
 26 27  1  0  0  0  0
 28 26  1  0  0  0  0
 29 28  1  0  0  0  0
 30 32  1  0  0  0  0
 30 28  2  0  0  0  0
 31 30  1  0  0  0  0
 32 23  2  0  0  0  0
 33 32  1  0  0  0  0
 34 35  1  0  0  0  0
 34 36  1  0  0  0  0
 37 46  1  0  0  0  0
 38 37  2  0  0  0  0
 38 40  1  0  0  0  0
 39 38  1  0  0  0  0
 40 42  2  0  0  0  0
 41 40  1  0  0  0  0
 42 44  1  0  0  0  0
 42 43  1  0  0  0  0
 44 45  1  0  0  0  0
 46 47  1  0  0  0  0
 46 44  2  0  0  0  0
 48 49  1  0  0  0  0
 49 50  1  0  0  0  0
 51 49  2  0  0  0  0
 51 52  1  0  0  0  0
 53 51  1  0  0  0  0
 54 53  1  0  0  0  0
 55 57  1  0  0  0  0
 55 53  2  0  0  0  0
 56 55  1  0  0  0  0
 57 48  2  0  0  0  0
 58 57  1  0  0  0  0
 59  1  1  0  0  0  0
 60 59  1  0  0  0  0
 60  1  1  0  0  0  0
 61 62  1  0  0  0  0
 61 63  1  0  0  0  0
 61  9  1  0  0  0  0
 64 61  1  0  0  0  0
 65 64  1  0  0  0  0
 66 64  1  0  0  0  0
 67 64  1  0  0  0  0
 68 69  1  0  0  0  0
 68 70  1  0  0  0  0
 68 10  1  0  0  0  0
 71 68  1  0  0  0  0
 72 71  1  0  0  0  0
 73 71  1  0  0  0  0
 74 71  1  0  0  0  0
 75 11  1  0  0  0  0
 75 77  1  0  0  0  0
 75 78  1  0  0  0  0
 76 75  1  0  0  0  0
 78 80  1  0  0  0  0
 79 78  1  0  0  0  0
 81 78  1  0  0  0  0
M  END
$$$$
