CSD_code = BAWKUI | q = 0 | S = 0 | Stoichiometry = C26H39Cl2FeNOP2 | MND = 6
 OpenBabel04212202013D

 72 75  0  0  1  0  0  0  0  0999 V2000
    8.3394    2.3214   17.7504 Fe  0  0  0  0  0  0  0  0  0  0  0  0
    8.2127    3.2777   19.7193 Cl  0  0  0  0  0  0  0  0  0  0  0  0
    8.1491    1.4917   15.7368 Cl  0  0  0  0  0  0  0  0  0  0  0  0
    8.8473    0.4103   18.6675 P   0  0  0  0  0  4  0  0  0  0  0  0
    7.5965    4.1734   16.9241 P   0  0  0  0  0  4  0  0  0  0  0  0
   11.0621    3.1111   17.2131 O   0  0  0  0  0  1  0  0  0  0  0  0
    6.3829    1.8314   18.0732 N   0  0  2  0  0  4  0  0  0  0  0  0
    6.2346    2.1817   19.0274 H   0  0  0  0  0  0  0  0  0  0  0  0
    7.1633   -0.2304   19.1071 C   0  0  0  0  0  0  0  0  0  0  0  0
    7.1051   -1.3194   19.1054 H   0  0  0  0  0  0  0  0  0  0  0  0
    6.9304    0.1355   20.1131 H   0  0  0  0  0  0  0  0  0  0  0  0
    6.1900    0.3768   18.1035 C   0  0  0  0  0  0  0  0  0  0  0  0
    6.3911   -0.0048   17.0990 H   0  0  0  0  0  0  0  0  0  0  0  0
    5.1654    0.1089   18.3870 H   0  0  0  0  0  0  0  0  0  0  0  0
    5.4333    2.5527   17.2018 C   0  0  2  0  0  0  0  0  0  0  0  0
    5.6234    2.1934   16.1815 H   0  0  0  0  0  0  0  0  0  0  0  0
    5.7926    4.0394   17.2815 C   0  0  0  0  0  0  0  0  0  0  0  0
    5.6588    4.4108   18.3029 H   0  0  0  0  0  0  0  0  0  0  0  0
    5.1977    4.6443   16.5972 H   0  0  0  0  0  0  0  0  0  0  0  0
    3.9457    2.2879   17.5288 C   0  0  0  0  0  0  0  0  0  0  0  0
    3.7597    1.2198   17.3738 H   0  0  0  0  0  0  0  0  0  0  0  0
    3.0339    3.0332   16.5530 C   0  0  0  0  0  0  0  0  0  0  0  0
    2.0113    2.6781   16.6589 H   0  0  0  0  0  0  0  0  0  0  0  0
    3.3463    2.8604   15.5254 H   0  0  0  0  0  0  0  0  0  0  0  0
    3.0355    4.1029   16.7469 H   0  0  0  0  0  0  0  0  0  0  0  0
    3.5747    2.6394   18.9690 C   0  0  0  0  0  0  0  0  0  0  0  0
    2.5295    2.3952   19.1464 H   0  0  0  0  0  0  0  0  0  0  0  0
    3.7053    3.7016   19.1609 H   0  0  0  0  0  0  0  0  0  0  0  0
    4.1707    2.0828   19.6892 H   0  0  0  0  0  0  0  0  0  0  0  0
    9.6772   -0.9769   17.7381 C   0  0  0  0  0  0  0  0  0  0  0  0
   10.0389   -1.6874   18.4921 H   0  0  0  0  0  0  0  0  0  0  0  0
   10.8609   -0.3879   16.9741 C   0  0  0  0  0  0  0  0  0  0  0  0
   11.5118    0.1899   17.6270 H   0  0  0  0  0  0  0  0  0  0  0  0
   10.4938    0.2705   16.1903 H   0  0  0  0  0  0  0  0  0  0  0  0
   11.4479   -1.1798   16.5121 H   0  0  0  0  0  0  0  0  0  0  0  0
    8.7533   -1.7090   16.7700 C   0  0  0  0  0  0  0  0  0  0  0  0
    7.9292   -2.2025   17.2803 H   0  0  0  0  0  0  0  0  0  0  0  0
    9.3233   -2.4724   16.2427 H   0  0  0  0  0  0  0  0  0  0  0  0
    8.3578   -1.0149   16.0337 H   0  0  0  0  0  0  0  0  0  0  0  0
    9.6523    0.4064   20.3497 C   0  0  0  0  0  0  0  0  0  0  0  0
    8.9845    1.0550   20.9318 H   0  0  0  0  0  0  0  0  0  0  0  0
    9.7208   -0.9618   21.0214 C   0  0  0  0  0  0  0  0  0  0  0  0
    8.7753   -1.4950   20.9467 H   0  0  0  0  0  0  0  0  0  0  0  0
    9.9541   -0.8323   22.0770 H   0  0  0  0  0  0  0  0  0  0  0  0
   10.5049   -1.5770   20.5855 H   0  0  0  0  0  0  0  0  0  0  0  0
   11.0213    1.0761   20.3140 C   0  0  0  0  0  0  0  0  0  0  0  0
   10.9514    2.0368   19.8080 H   0  0  0  0  0  0  0  0  0  0  0  0
   11.7533    0.4568   19.7997 H   0  0  0  0  0  0  0  0  0  0  0  0
   11.3772    1.2505   21.3280 H   0  0  0  0  0  0  0  0  0  0  0  0
    8.0183    5.8291   17.5544 C   0  0  0  0  0  0  0  0  0  0  0  0
    9.1651    6.0297   18.3104 C   0  0  0  0  0  0  0  0  0  0  0  0
    9.7901    5.1867   18.5646 H   0  0  0  0  0  0  0  0  0  0  0  0
    9.4922    7.3003   18.7504 C   0  0  0  0  0  0  0  0  0  0  0  0
   10.3820    7.4505   19.3436 H   0  0  0  0  0  0  0  0  0  0  0  0
    8.6795    8.3749   18.4329 C   0  0  0  0  0  0  0  0  0  0  0  0
    8.9330    9.3660   18.7794 H   0  0  0  0  0  0  0  0  0  0  0  0
    7.5412    8.1813   17.6660 C   0  0  0  0  0  0  0  0  0  0  0  0
    6.9107    9.0212   17.4115 H   0  0  0  0  0  0  0  0  0  0  0  0
    7.2125    6.9147   17.2229 C   0  0  0  0  0  0  0  0  0  0  0  0
    6.3328    6.7656   16.6114 H   0  0  0  0  0  0  0  0  0  0  0  0
    7.7292    4.5135   15.1424 C   0  0  0  0  0  0  0  0  0  0  0  0
    8.9723    4.9694   14.7098 C   0  0  0  0  0  0  0  0  0  0  0  0
    9.7607    5.1184   15.4375 H   0  0  0  0  0  0  0  0  0  0  0  0
    9.1971    5.2188   13.3706 C   0  0  0  0  0  0  0  0  0  0  0  0
   10.1642    5.5699   13.0416 H   0  0  0  0  0  0  0  0  0  0  0  0
    8.1824    5.0094   12.4501 C   0  0  0  0  0  0  0  0  0  0  0  0
    8.3563    5.2000   11.4013 H   0  0  0  0  0  0  0  0  0  0  0  0
    6.9496    4.5446   12.8736 C   0  0  0  0  0  0  0  0  0  0  0  0
    6.1623    4.3691   12.1546 H   0  0  0  0  0  0  0  0  0  0  0  0
    6.7207    4.2913   14.2147 C   0  0  0  0  0  0  0  0  0  0  0  0
    5.7595    3.9098   14.5264 H   0  0  0  0  0  0  0  0  0  0  0  0
    9.9899    2.7803   17.4569 C   0  0  0  0  0  2  0  0  0  0  0  0
  1  7  1  0  0  0  0
  1  4  1  0  0  0  0
  1  2  1  0  0  0  0
  3  1  1  0  0  0  0
  4  9  1  0  0  0  0
  4 40  1  0  0  0  0
  5 17  1  0  0  0  0
  5 50  1  0  0  0  0
  5  1  1  0  0  0  0
  6 72  1  0  0  0  0
  7 12  1  0  0  0  0
  7  8  1  1  0  0  0
  9 11  1  0  0  0  0
 10  9  1  0  0  0  0
 12 14  1  0  0  0  0
 12  9  1  0  0  0  0
 13 12  1  0  0  0  0
 15 16  1  6  0  0  0
 15 17  1  0  0  0  0
 15 20  1  0  0  0  0
 15  7  1  0  0  0  0
 17 18  1  0  0  0  0
 19 17  1  0  0  0  0
 20 26  1  0  0  0  0
 21 20  1  0  0  0  0
 22 23  1  0  0  0  0
 22 25  1  0  0  0  0
 22 20  1  0  0  0  0
 24 22  1  0  0  0  0
 26 27  1  0  0  0  0
 26 28  1  0  0  0  0
 26 29  1  0  0  0  0
 30 31  1  0  0  0  0
 30  4  1  0  0  0  0
 32 33  1  0  0  0  0
 32 30  1  0  0  0  0
 34 32  1  0  0  0  0
 35 32  1  0  0  0  0
 36 37  1  0  0  0  0
 36 30  1  0  0  0  0
 38 36  1  0  0  0  0
 39 36  1  0  0  0  0
 40 41  1  0  0  0  0
 40 42  1  0  0  0  0
 42 44  1  0  0  0  0
 43 42  1  0  0  0  0
 45 42  1  0  0  0  0
 46 40  1  0  0  0  0
 46 49  1  0  0  0  0
 47 46  1  0  0  0  0
 48 46  1  0  0  0  0
 50 51  1  0  0  0  0
 51 52  1  0  0  0  0
 51 53  2  0  0  0  0
 53 54  1  0  0  0  0
 55 53  1  0  0  0  0
 55 56  1  0  0  0  0
 57 55  2  0  0  0  0
 58 57  1  0  0  0  0
 59 50  2  0  0  0  0
 59 57  1  0  0  0  0
 60 59  1  0  0  0  0
 61  5  1  0  0  0  0
 62 61  1  0  0  0  0
 62 63  1  0  0  0  0
 64 62  2  0  0  0  0
 65 64  1  0  0  0  0
 66 68  2  0  0  0  0
 66 64  1  0  0  0  0
 67 66  1  0  0  0  0
 68 70  1  0  0  0  0
 69 68  1  0  0  0  0
 70 71  1  0  0  0  0
 70 61  2  0  0  0  0
 72  1  1  0  0  0  0
M  END
$$$$
