CSD_code = BAWLET | q = 0 | S = 0 | Stoichiometry = C20H15AuClN | MND = 4
 OpenBabel04212202013D

 38 41  0  0  0  0  0  0  0  0999 V2000
    0.3096    2.6131    3.8229 Au  0  0  1  0  0  0  0  0  0  0  0  0
    1.4320    2.6007    1.8045 Cl  0  0  0  0  0  0  0  0  0  0  0  0
   -1.5495    2.6594    2.9219 N   0  0  0  0  0  0  0  0  0  0  0  0
   -0.7990    2.6234    5.4706 C   0  0  0  0  0  0  0  0  0  0  0  0
   -0.3778    2.5987    6.7876 C   0  0  0  0  0  0  0  0  0  0  0  0
    0.6784    2.5700    7.0068 H   0  0  0  0  0  0  0  0  0  0  0  0
   -1.2955    2.6086    7.8281 C   0  0  0  0  0  0  0  0  0  0  0  0
   -0.9459    2.5883    8.8495 H   0  0  0  0  0  0  0  0  0  0  0  0
   -2.6533    2.6434    7.5587 C   0  0  0  0  0  0  0  0  0  0  0  0
   -3.3684    2.6509    8.3678 H   0  0  0  0  0  0  0  0  0  0  0  0
   -3.0948    2.6679    6.2508 C   0  0  0  0  0  0  0  0  0  0  0  0
   -4.1551    2.6937    6.0505 H   0  0  0  0  0  0  0  0  0  0  0  0
   -2.1779    2.6583    5.1988 C   0  0  0  0  0  0  0  0  0  0  0  0
   -2.5715    2.6812    3.7971 C   0  0  0  0  0  0  0  0  0  0  0  0
   -3.8842    2.7231    3.3272 C   0  0  0  0  0  0  0  0  0  0  0  0
   -4.7071    2.7415    4.0226 H   0  0  0  0  0  0  0  0  0  0  0  0
   -4.1232    2.7418    1.9662 C   0  0  0  0  0  0  0  0  0  0  0  0
   -5.1361    2.7750    1.5934 H   0  0  0  0  0  0  0  0  0  0  0  0
   -3.0485    2.7177    1.0880 C   0  0  0  0  0  0  0  0  0  0  0  0
   -3.1929    2.7310    0.0203 H   0  0  0  0  0  0  0  0  0  0  0  0
   -1.7720    2.6764    1.6150 C   0  0  0  0  0  0  0  0  0  0  0  0
   -0.8856    2.6564    0.9940 H   0  0  0  0  0  0  0  0  0  0  0  0
    1.9359    2.5825    4.7968 C   0  0  0  0  0  0  0  0  0  0  0  0
    3.0070    2.5685    5.3484 C   0  0  0  0  0  0  0  0  0  0  0  0
    4.2461    2.5591    6.0373 C   0  0  0  0  0  0  0  0  0  0  0  0
    5.2040    1.5881    5.7477 C   0  0  0  0  0  0  0  0  0  0  0  0
    4.9961    0.8448    4.9927 H   0  0  0  0  0  0  0  0  0  0  0  0
    6.4048    1.5934    6.4294 C   0  0  0  0  0  0  0  0  0  0  0  0
    7.1507    0.8432    6.2092 H   0  0  0  0  0  0  0  0  0  0  0  0
    6.6605    2.5554    7.3934 C   0  0  0  0  0  0  0  0  0  0  0  0
    7.6048    2.5491    7.9192 H   0  0  0  0  0  0  0  0  0  0  0  0
    5.7164    3.5301    7.6910 C   0  0  0  0  0  0  0  0  0  0  0  0
    4.5091    3.5228    7.0075 C   0  0  0  0  0  0  0  0  0  0  0  0
    3.7613    4.2738    7.2224 H   0  0  0  0  0  0  0  0  0  0  0  0
    5.9881    4.5848    8.7214 C   0  0  0  0  0  0  0  0  0  0  0  0
    6.1058    5.5563    8.2414 H   0  0  0  0  0  0  0  0  0  0  0  0
    6.8966    4.3634    9.2760 H   0  0  0  0  0  0  0  0  0  0  0  0
    5.1580    4.6592    9.4222 H   0  0  0  0  0  0  0  0  0  0  0  0
  1  2  1  6  0  0  0
  1 23  1  0  0  0  0
  1  4  2  0  0  0  0
  3 14  1  0  0  0  0
  3  1  1  0  0  0  0
  4  5  1  0  0  0  0
  5  6  1  0  0  0  0
  5  7  2  0  0  0  0
  7  8  1  0  0  0  0
  9  7  1  0  0  0  0
  9 10  1  0  0  0  0
 11  9  2  0  0  0  0
 12 11  1  0  0  0  0
 13  4  1  0  0  0  0
 13 11  1  0  0  0  0
 14 13  2  0  0  0  0
 15 14  1  0  0  0  0
 15 16  1  0  0  0  0
 17 15  2  0  0  0  0
 18 17  1  0  0  0  0
 19 21  2  0  0  0  0
 19 17  1  0  0  0  0
 20 19  1  0  0  0  0
 21  3  1  0  0  0  0
 22 21  1  0  0  0  0
 23 24  3  0  0  0  0
 24 25  1  0  0  0  0
 25 33  1  0  0  0  0
 26 25  2  0  0  0  0
 26 28  1  0  0  0  0
 27 26  1  0  0  0  0
 28 30  2  0  0  0  0
 29 28  1  0  0  0  0
 30 32  1  0  0  0  0
 30 31  1  0  0  0  0
 32 35  1  0  0  0  0
 33 34  1  0  0  0  0
 33 32  2  0  0  0  0
 35 37  1  0  0  0  0
 35 38  1  0  0  0  0
 36 35  1  0  0  0  0
M  END
$$$$
