CSD_code = BAWSOH | q = 0 | S = 0 | Stoichiometry = C12H32Cl2FeP4 | MND = 6
 OpenBabel04212202013D

 51 52  0  0  0  0  0  0  0  0999 V2000
   -0.0001    0.0000    0.0001 Fe  0  0  0  0  0  0  0  0  0  0  0  0
   -0.4045    1.6166   -1.4361 Cl  0  0  0  0  0  0  0  0  0  0  0  0
    1.1605    1.4802    1.0724 P   0  0  0  0  0  4  0  0  0  0  0  0
    1.8344   -0.4663   -1.0735 P   0  0  0  0  0  4  0  0  0  0  0  0
    2.5722    1.9627   -0.0112 C   0  0  0  0  0  0  0  0  0  0  0  0
    3.1917    0.6861   -0.5515 C   0  0  0  0  0  0  0  0  0  0  0  0
    0.5553    3.1417    1.5319 C   0  0  0  0  0  0  0  0  0  0  0  0
    2.0177    0.9682    2.6023 C   0  0  0  0  0  0  0  0  0  0  0  0
    1.8570   -0.2610   -2.8902 C   0  0  0  0  0  0  0  0  0  0  0  0
    2.7269   -2.0520   -0.8871 C   0  0  0  0  0  0  0  0  0  0  0  0
    3.2925    2.5726    0.5442 H   0  0  0  0  0  0  0  0  0  0  0  0
    2.1496    2.5613   -0.8242 H   0  0  0  0  0  0  0  0  0  0  0  0
    3.8696    0.8739   -1.3899 H   0  0  0  0  0  0  0  0  0  0  0  0
    3.7497    0.1784    0.2430 H   0  0  0  0  0  0  0  0  0  0  0  0
   -0.1240    3.0732    2.3810 H   0  0  0  0  0  0  0  0  0  0  0  0
    0.0353    3.5672    0.6748 H   0  0  0  0  0  0  0  0  0  0  0  0
    1.4050    3.7717    1.7982 H   0  0  0  0  0  0  0  0  0  0  0  0
    1.2733    0.7558    3.3682 H   0  0  0  0  0  0  0  0  0  0  0  0
    2.6952    1.7513    2.9438 H   0  0  0  0  0  0  0  0  0  0  0  0
    2.5631    0.0458    2.4088 H   0  0  0  0  0  0  0  0  0  0  0  0
    1.5232    0.7464   -3.1324 H   0  0  0  0  0  0  0  0  0  0  0  0
    1.1645   -0.9747   -3.3364 H   0  0  0  0  0  0  0  0  0  0  0  0
    2.8625   -0.4321   -3.2754 H   0  0  0  0  0  0  0  0  0  0  0  0
    2.7416   -2.3204    0.1681 H   0  0  0  0  0  0  0  0  0  0  0  0
    3.7453   -1.9341   -1.2597 H   0  0  0  0  0  0  0  0  0  0  0  0
    2.2234   -2.8398   -1.4418 H   0  0  0  0  0  0  0  0  0  0  0  0
    0.4041   -1.6167    1.4362 Cl  0  0  0  0  0  0  0  0  0  0  0  0
   -1.1604   -1.4802   -1.0724 P   0  0  0  0  0  4  0  0  0  0  0  0
   -1.8344    0.4664    1.0736 P   0  0  0  0  0  4  0  0  0  0  0  0
   -2.5723   -1.9625    0.0110 C   0  0  0  0  0  0  0  0  0  0  0  0
   -0.5553   -3.1418   -1.5317 C   0  0  0  0  0  0  0  0  0  0  0  0
   -2.0175   -0.9682   -2.6024 C   0  0  0  0  0  0  0  0  0  0  0  0
   -3.1918   -0.6859    0.5513 C   0  0  0  0  0  0  0  0  0  0  0  0
   -1.8571    0.2608    2.8902 C   0  0  0  0  0  0  0  0  0  0  0  0
   -2.7268    2.0521    0.8873 C   0  0  0  0  0  0  0  0  0  0  0  0
   -3.2926   -2.5724   -0.5445 H   0  0  0  0  0  0  0  0  0  0  0  0
   -2.1499   -2.5611    0.8240 H   0  0  0  0  0  0  0  0  0  0  0  0
    0.1241   -3.0735   -2.3807 H   0  0  0  0  0  0  0  0  0  0  0  0
   -0.0354   -3.5672   -0.6744 H   0  0  0  0  0  0  0  0  0  0  0  0
   -1.4050   -3.7718   -1.7980 H   0  0  0  0  0  0  0  0  0  0  0  0
   -1.2730   -0.7559   -3.3683 H   0  0  0  0  0  0  0  0  0  0  0  0
   -2.6950   -1.7513   -2.9439 H   0  0  0  0  0  0  0  0  0  0  0  0
   -2.5628   -0.0458   -2.4090 H   0  0  0  0  0  0  0  0  0  0  0  0
   -3.8698   -0.8737    1.3896 H   0  0  0  0  0  0  0  0  0  0  0  0
   -3.7497   -0.1781   -0.2433 H   0  0  0  0  0  0  0  0  0  0  0  0
   -1.5235   -0.7468    3.1323 H   0  0  0  0  0  0  0  0  0  0  0  0
   -1.1644    0.9742    3.3366 H   0  0  0  0  0  0  0  0  0  0  0  0
   -2.8626    0.4319    3.2754 H   0  0  0  0  0  0  0  0  0  0  0  0
   -2.7412    2.3208   -0.1678 H   0  0  0  0  0  0  0  0  0  0  0  0
   -3.7453    1.9342    1.2596 H   0  0  0  0  0  0  0  0  0  0  0  0
   -2.2234    2.8398    1.4423 H   0  0  0  0  0  0  0  0  0  0  0  0
  1  3  1  0  0  0  0
  1 29  1  0  0  0  0
  1 27  1  0  0  0  0
  2  1  1  0  0  0  0
  3  7  1  0  0  0  0
  3  8  1  0  0  0  0
  4 10  1  0  0  0  0
  4  6  1  0  0  0  0
  4  1  1  0  0  0  0
  5 11  1  0  0  0  0
  5  3  1  0  0  0  0
  6  5  1  0  0  0  0
  6 14  1  0  0  0  0
  7 17  1  0  0  0  0
  7 15  1  0  0  0  0
  8 19  1  0  0  0  0
  8 18  1  0  0  0  0
  9  4  1  0  0  0  0
 10 24  1  0  0  0  0
 12  5  1  0  0  0  0
 13  6  1  0  0  0  0
 16  7  1  0  0  0  0
 20  8  1  0  0  0  0
 21  9  1  0  0  0  0
 22  9  1  0  0  0  0
 23  9  1  0  0  0  0
 25 10  1  0  0  0  0
 26 10  1  0  0  0  0
 28  1  1  0  0  0  0
 28 30  1  0  0  0  0
 29 34  1  0  0  0  0
 30 33  1  0  0  0  0
 30 37  1  0  0  0  0
 31 28  1  0  0  0  0
 31 39  1  0  0  0  0
 32 43  1  0  0  0  0
 32 28  1  0  0  0  0
 33 29  1  0  0  0  0
 33 44  1  0  0  0  0
 34 46  1  0  0  0  0
 34 48  1  0  0  0  0
 34 47  1  0  0  0  0
 35 29  1  0  0  0  0
 35 50  1  0  0  0  0
 35 51  1  0  0  0  0
 36 30  1  0  0  0  0
 38 31  1  0  0  0  0
 40 31  1  0  0  0  0
 41 32  1  0  0  0  0
 42 32  1  0  0  0  0
 45 33  1  0  0  0  0
 49 35  1  0  0  0  0
M  END
$$$$
