CSD_code = BAWYOP | q = 1 | S = 0 | Stoichiometry = C24H25ClN3Pt(1+) | MND = 4
 OpenBabel04212202013D

 54 59  0  0  0  0  0  0  0  0999 V2000
    2.6948    7.0094    6.3268 Pt  0  0  1  0  0  0  0  0  0  0  0  0
    1.5504    5.2463    7.1498 Cl  0  0  0  0  0  0  0  0  0  0  0  0
    3.5724    8.6620    5.6465 N   0  0  0  0  0  0  0  0  0  0  0  0
    0.9465    8.2264    6.1029 N   0  0  0  0  0  0  0  0  0  0  0  0
    3.0318    3.4926    5.2583 N   0  0  0  0  0  4  0  0  0  0  0  0
    2.4731    4.0438    5.9922 H   0  0  0  0  0  0  0  0  0  0  0  0
    4.8542    8.8604    5.3750 C   0  0  0  0  0  0  0  0  0  0  0  0
    5.5140    8.0109    5.4827 H   0  0  0  0  0  0  0  0  0  0  0  0
    5.3587   10.0983    4.9786 C   0  0  0  0  0  0  0  0  0  0  0  0
    6.4123   10.1951    4.7739 H   0  0  0  0  0  0  0  0  0  0  0  0
    4.5108   11.1749    4.8631 C   0  0  0  0  0  0  0  0  0  0  0  0
    4.8741   12.1473    4.5692 H   0  0  0  0  0  0  0  0  0  0  0  0
    3.1443   10.9938    5.1336 C   0  0  0  0  0  0  0  0  0  0  0  0
    2.7148    9.7058    5.5181 C   0  0  0  0  0  0  0  0  0  0  0  0
    2.1887   12.0466    5.0372 C   0  0  0  0  0  0  0  0  0  0  0  0
    2.5424   13.0246    4.7496 H   0  0  0  0  0  0  0  0  0  0  0  0
    0.8761   11.8326    5.2974 C   0  0  0  0  0  0  0  0  0  0  0  0
    0.1587   12.6355    5.2249 H   0  0  0  0  0  0  0  0  0  0  0  0
    0.4037   10.5412    5.6669 C   0  0  0  0  0  0  0  0  0  0  0  0
    1.3255    9.4786    5.7747 C   0  0  0  0  0  0  0  0  0  0  0  0
   -0.9471   10.2573    5.9327 C   0  0  0  0  0  0  0  0  0  0  0  0
   -1.6804   11.0467    5.8680 H   0  0  0  0  0  0  0  0  0  0  0  0
   -1.3089    8.9747    6.2690 C   0  0  0  0  0  0  0  0  0  0  0  0
   -2.3349    8.7199    6.4791 H   0  0  0  0  0  0  0  0  0  0  0  0
   -0.3257    7.9842    6.3384 C   0  0  0  0  0  0  0  0  0  0  0  0
   -0.5903    6.9660    6.5926 H   0  0  0  0  0  0  0  0  0  0  0  0
    4.4197    6.0278    6.6634 C   0  0  0  0  0  0  0  0  0  0  0  0
    5.1852    6.4617    7.7457 C   0  0  0  0  0  0  0  0  0  0  0  0
    4.8271    7.2795    8.3631 H   0  0  0  0  0  0  0  0  0  0  0  0
    6.4010    5.8749    8.0547 C   0  0  0  0  0  0  0  0  0  0  0  0
    6.9717    6.2293    8.8995 H   0  0  0  0  0  0  0  0  0  0  0  0
    6.8873    4.8405    7.2736 C   0  0  0  0  0  0  0  0  0  0  0  0
    7.8402    4.3883    7.4994 H   0  0  0  0  0  0  0  0  0  0  0  0
    6.1397    4.3844    6.2040 C   0  0  0  0  0  0  0  0  0  0  0  0
    6.5169    3.5774    5.5916 H   0  0  0  0  0  0  0  0  0  0  0  0
    4.9091    4.9599    5.9035 C   0  0  0  0  0  0  0  0  0  0  0  0
    4.0826    4.4177    4.7629 C   0  0  0  0  0  0  0  0  0  0  0  0
    4.7065    3.8881    4.0392 H   0  0  0  0  0  0  0  0  0  0  0  0
    3.5704    5.2512    4.2631 H   0  0  0  0  0  0  0  0  0  0  0  0
    3.5793    2.2992    5.9297 C   0  0  0  0  0  0  0  0  0  0  0  0
    4.2987    2.6283    6.6806 H   0  0  0  0  0  0  0  0  0  0  0  0
    4.0955    1.6855    5.1858 H   0  0  0  0  0  0  0  0  0  0  0  0
    2.4513    1.5135    6.5840 C   0  0  0  0  0  0  0  0  0  0  0  0
    2.8674    0.6373    7.0797 H   0  0  0  0  0  0  0  0  0  0  0  0
    1.9744    2.1376    7.3411 H   0  0  0  0  0  0  0  0  0  0  0  0
    1.4227    1.0971    5.5380 C   0  0  0  0  0  0  0  0  0  0  0  0
    1.8777    0.4089    4.8230 H   0  0  0  0  0  0  0  0  0  0  0  0
    0.5931    0.5791    6.0162 H   0  0  0  0  0  0  0  0  0  0  0  0
    0.9136    2.3377    4.8124 C   0  0  0  0  0  0  0  0  0  0  0  0
    0.3921    2.9860    5.5179 H   0  0  0  0  0  0  0  0  0  0  0  0
    0.2160    2.0591    4.0232 H   0  0  0  0  0  0  0  0  0  0  0  0
    2.0781    3.1067    4.2019 C   0  0  0  0  0  0  0  0  0  0  0  0
    2.6000    2.4941    3.4614 H   0  0  0  0  0  0  0  0  0  0  0  0
    1.7151    4.0144    3.7165 H   0  0  0  0  0  0  0  0  0  0  0  0
  1 27  1  0  0  0  0
  1  2  1  6  0  0  0
  3  1  1  0  0  0  0
  4  1  1  0  0  0  0
  4 25  1  0  0  0  0
  5 40  1  0  0  0  0
  5  6  1  0  0  0  0
  7  8  1  0  0  0  0
  7  3  1  0  0  0  0
  9  7  2  0  0  0  0
 10  9  1  0  0  0  0
 11  9  1  0  0  0  0
 11 13  2  0  0  0  0
 12 11  1  0  0  0  0
 13 14  1  0  0  0  0
 14  3  1  0  0  0  0
 14 20  2  0  0  0  0
 15 13  1  0  0  0  0
 15 17  2  0  0  0  0
 16 15  1  0  0  0  0
 17 19  1  0  0  0  0
 18 17  1  0  0  0  0
 19 20  1  0  0  0  0
 19 21  2  0  0  0  0
 20  4  1  0  0  0  0
 21 23  1  0  0  0  0
 22 21  1  0  0  0  0
 23 25  2  0  0  0  0
 23 24  1  0  0  0  0
 25 26  1  0  0  0  0
 27 28  1  0  0  0  0
 28 30  2  0  0  0  0
 28 29  1  0  0  0  0
 30 31  1  0  0  0  0
 32 33  1  0  0  0  0
 32 30  1  0  0  0  0
 34 32  2  0  0  0  0
 35 34  1  0  0  0  0
 36 34  1  0  0  0  0
 36 27  2  0  0  0  0
 37  5  1  0  0  0  0
 37 36  1  0  0  0  0
 38 37  1  0  0  0  0
 39 37  1  0  0  0  0
 40 43  1  0  0  0  0
 40 41  1  0  0  0  0
 42 40  1  0  0  0  0
 43 44  1  0  0  0  0
 43 45  1  0  0  0  0
 46 48  1  0  0  0  0
 46 43  1  0  0  0  0
 47 46  1  0  0  0  0
 49 50  1  0  0  0  0
 49 46  1  0  0  0  0
 51 49  1  0  0  0  0
 52 49  1  0  0  0  0
 52  5  1  0  0  0  0
 53 52  1  0  0  0  0
 54 52  1  0  0  0  0
M  END
$$$$
