CSD_code = BAXWUS | q = 0 | S = 0 | Stoichiometry = C21H39ClN2OSiTi | MND = 9
 OpenBabel04212202013D

 66 65  0  0  1  0  0  0  0  0999 V2000
    0.2313    3.8507   10.2865 Ti  0  0  0  0  0  0  0  0  0  0  0  0
    0.4478    1.0316    9.7081 Si  0  0  0  0  0  0  0  0  0  0  0  0
    2.7578    1.1455    7.2679 O   0  0  0  0  0  0  0  0  0  0  0  0
    0.6580    2.5762    8.9676 N   0  0  0  0  0  0  0  0  0  0  0  0
   -0.4549    5.6288    9.8289 N   0  0  0  0  0  0  0  0  0  0  0  0
    2.3115    4.7058   10.2818 Cl  0  0  0  0  0 15  0  0  0  0  0  0
   -0.1597    1.9011   11.3026 C   0  0  0  0  0  0  0  0  0  0  0  0
   -1.3760    2.6548   11.3390 C   0  0  0  0  0  0  0  0  0  0  0  0
   -1.1959    3.7814   12.1855 C   0  0  0  0  0  0  0  0  0  0  0  0
    0.1438    3.7677   12.6476 C   0  0  0  0  0  0  0  0  0  0  0  0
    0.7753    2.6143   12.1104 C   0  0  1  0  0  3  0  0  0  0  0  0
   -2.7085    2.2067   10.8169 C   0  0  0  0  0  0  0  0  0  0  0  0
   -2.2960    4.7132   12.6076 C   0  0  0  0  0  0  0  0  0  0  0  0
    0.7796    4.6962   13.6428 C   0  0  0  0  0  0  0  0  0  0  0  0
    2.1512    2.1544   12.5004 C   0  0  0  0  0  0  0  0  0  0  0  0
   -0.8243   -0.0620    8.7770 C   0  0  0  0  0  0  0  0  0  0  0  0
    1.9542   -0.1165   10.0101 C   0  0  0  0  0  0  0  0  0  0  0  0
    1.1521    2.8684    7.6536 C   0  0  0  0  0  0  0  0  0  0  0  0
    2.6415    2.5293    7.4999 C   0  0  0  0  0  0  0  0  0  0  0  0
    4.0893    0.7061    7.2447 C   0  0  0  0  0  0  0  0  0  0  0  0
   -1.1489    4.8058    9.1605 C   0  0  0  0  0  2  0  0  0  0  0  0
   -2.1232    5.0829    8.0531 C   0  0  0  0  0  0  0  0  0  0  0  0
   -2.5375    3.8051    7.3273 C   0  0  0  0  0  0  0  0  0  0  0  0
   -0.2745    7.0814    9.7823 C   0  0  0  0  0  0  0  0  0  0  0  0
    0.3790    7.4751   11.1117 C   0  0  0  0  0  0  0  0  0  0  0  0
    0.6808    7.3984    8.6233 C   0  0  0  0  0  0  0  0  0  0  0  0
   -1.6021    7.8343    9.6251 C   0  0  0  0  0  0  0  0  0  0  0  0
   -2.5858    1.4974   10.0046 H   0  0  0  0  0  0  0  0  0  0  0  0
   -3.3032    3.0523   10.4705 H   0  0  0  0  0  0  0  0  0  0  0  0
   -3.2695    1.7134   11.6161 H   0  0  0  0  0  0  0  0  0  0  0  0
   -1.9036    5.5794   13.1374 H   0  0  0  0  0  0  0  0  0  0  0  0
   -2.9889    4.1957   13.2757 H   0  0  0  0  0  0  0  0  0  0  0  0
   -2.8674    5.0658   11.7459 H   0  0  0  0  0  0  0  0  0  0  0  0
    0.9149    4.1858   14.6003 H   0  0  0  0  0  0  0  0  0  0  0  0
    0.1644    5.5770   13.8177 H   0  0  0  0  0  0  0  0  0  0  0  0
    1.7598    5.0227   13.2913 H   0  0  0  0  0  0  0  0  0  0  0  0
    2.2134    1.0702   12.4464 H   0  0  0  0  0  0  0  0  0  0  0  0
    2.3713    2.4616   13.5237 H   0  0  0  0  0  0  0  0  0  0  0  0
    2.9209    2.5822   11.8538 H   0  0  0  0  0  0  0  0  0  0  0  0
   -1.3434   -0.7375    9.4478 H   0  0  0  0  0  0  0  0  0  0  0  0
   -0.3013   -0.6666    8.0446 H   0  0  0  0  0  0  0  0  0  0  0  0
   -1.5640    0.5262    8.2435 H   0  0  0  0  0  0  0  0  0  0  0  0
    2.1454   -0.7004    9.1171 H   0  0  0  0  0  0  0  0  0  0  0  0
    1.7692   -0.8096   10.8254 H   0  0  0  0  0  0  0  0  0  0  0  0
    2.8568    0.4403   10.2360 H   0  0  0  0  0  0  0  0  0  0  0  0
    0.6143    2.2852    6.8889 H   0  0  0  0  0  0  0  0  0  0  0  0
    1.0238    3.9443    7.4420 H   0  0  0  0  0  0  0  0  0  0  0  0
    3.0760    3.0884    6.6549 H   0  0  0  0  0  0  0  0  0  0  0  0
    3.1738    2.8163    8.4198 H   0  0  0  0  0  0  0  0  0  0  0  0
    4.6553    1.1952    6.4408 H   0  0  0  0  0  0  0  0  0  0  0  0
    4.0649   -0.3675    7.0670 H   0  0  0  0  0  0  0  0  0  0  0  0
    4.5941    0.9080    8.1975 H   0  0  0  0  0  0  0  0  0  0  0  0
   -3.0106    5.5629    8.4813 H   0  0  0  0  0  0  0  0  0  0  0  0
   -1.6772    5.7811    7.3333 H   0  0  0  0  0  0  0  0  0  0  0  0
   -3.2026    4.0366    6.4972 H   0  0  0  0  0  0  0  0  0  0  0  0
   -3.0520    3.1321    8.0082 H   0  0  0  0  0  0  0  0  0  0  0  0
   -1.6580    3.2939    6.9417 H   0  0  0  0  0  0  0  0  0  0  0  0
    0.6577    8.5262   11.1039 H   0  0  0  0  0  0  0  0  0  0  0  0
    1.2730    6.8725   11.2680 H   0  0  0  0  0  0  0  0  0  0  0  0
   -0.3150    7.3023   11.9327 H   0  0  0  0  0  0  0  0  0  0  0  0
    0.8864    8.4659    8.5909 H   0  0  0  0  0  0  0  0  0  0  0  0
    0.2496    7.0972    7.6691 H   0  0  0  0  0  0  0  0  0  0  0  0
    1.6173    6.8596    8.7686 H   0  0  0  0  0  0  0  0  0  0  0  0
   -2.0001    7.7486    8.6180 H   0  0  0  0  0  0  0  0  0  0  0  0
   -1.4418    8.8895    9.8354 H   0  0  0  0  0  0  0  0  0  0  0  0
   -2.3378    7.4527   10.3314 H   0  0  0  0  0  0  0  0  0  0  0  0
  2 17  1  0  0  0  0
  2  7  1  0  0  0  0
  3 19  1  0  0  0  0
  4  2  1  0  0  0  0
  4  1  1  0  0  0  0
  5  1  1  0  0  0  0
  7  8  2  0  0  0  0
  7 11  1  0  0  0  0
  8  9  1  0  0  0  0
  9 13  1  0  0  0  0
  9 10  2  0  0  0  0
 10 14  1  0  0  0  0
 11 15  1  1  0  0  0
 11 10  1  0  0  0  0
 12  8  1  0  0  0  0
 12 30  1  0  0  0  0
 13 31  1  0  0  0  0
 13 32  1  0  0  0  0
 14 35  1  0  0  0  0
 14 34  1  0  0  0  0
 15 38  1  0  0  0  0
 16 40  1  0  0  0  0
 16  2  1  0  0  0  0
 17 45  1  0  0  0  0
 17 44  1  0  0  0  0
 18  4  1  0  0  0  0
 19 18  1  0  0  0  0
 19 49  1  0  0  0  0
 20  3  1  0  0  0  0
 20 52  1  0  0  0  0
 21  5  1  0  0  0  0
 22 53  1  0  0  0  0
 22 21  1  0  0  0  0
 23 56  1  0  0  0  0
 23 22  1  0  0  0  0
 24  5  1  0  0  0  0
 24 25  1  0  0  0  0
 25 59  1  0  0  0  0
 25 60  1  0  0  0  0
 26 63  1  0  0  0  0
 26 24  1  0  0  0  0
 27 24  1  0  0  0  0
 27 65  1  0  0  0  0
 27 66  1  0  0  0  0
 28 12  1  0  0  0  0
 29 12  1  0  0  0  0
 33 13  1  0  0  0  0
 36 14  1  0  0  0  0
 37 15  1  0  0  0  0
 39 15  1  0  0  0  0
 41 16  1  0  0  0  0
 42 16  1  0  0  0  0
 43 17  1  0  0  0  0
 46 18  1  0  0  0  0
 47 18  1  0  0  0  0
 48 19  1  0  0  0  0
 50 20  1  0  0  0  0
 51 20  1  0  0  0  0
 54 22  1  0  0  0  0
 55 23  1  0  0  0  0
 57 23  1  0  0  0  0
 58 25  1  0  0  0  0
 61 26  1  0  0  0  0
 62 26  1  0  0  0  0
 64 27  1  0  0  0  0
M  END
$$$$
