CSD_code = BAYJOC | q = 0 | S = 0 | Stoichiometry = C34H57ClCuN4PS2 | MND = 4
 OpenBabel04212202013D

100104  0  0  0  0  0  0  0  0999 V2000
    7.7654    9.5311   14.1533 Cu  0  0  2  0  0  0  0  0  0  0  0  0
    7.3006    7.2367   13.9339 Cl  0  0  0  0  0  0  0  0  0  0  0  0
    5.9169   10.7401   13.2632 S   0  0  0  0  0  0  0  0  0  0  0  0
    6.1622    8.2105   10.3071 N   0  0  0  0  0  2  0  0  0  0  0  0
    6.2282    8.8067   11.4737 N   0  0  0  0  0  0  0  0  0  0  0  0
    6.6685    8.2441   12.2314 H   0  0  0  0  0  0  0  0  0  0  0  0
    5.7666   10.0498   11.7476 C   0  0  0  0  0  0  0  0  0  0  0  0
    5.1390   10.7262   10.6644 C   0  0  0  0  0  0  0  0  0  0  0  0
    4.7466   11.7135   10.8498 H   0  0  0  0  0  0  0  0  0  0  0  0
    5.0629   10.1230    9.4498 C   0  0  0  0  0  0  0  0  0  0  0  0
    4.5967   10.6219    8.6149 H   0  0  0  0  0  0  0  0  0  0  0  0
    5.6115    8.8155    9.2962 C   0  0  0  0  0  0  0  0  0  0  0  0
    5.5701    8.0844    7.9739 C   0  0  0  0  0  0  0  0  0  0  0  0
    6.2477    6.7204    8.1082 C   0  0  0  0  0  0  0  0  0  0  0  0
    7.2831    6.8410    8.4125 H   0  0  0  0  0  0  0  0  0  0  0  0
    6.2175    6.1953    7.1566 H   0  0  0  0  0  0  0  0  0  0  0  0
    5.7447    6.1191    8.8594 H   0  0  0  0  0  0  0  0  0  0  0  0
    6.3086    8.9179    6.9189 C   0  0  0  0  0  0  0  0  0  0  0  0
    5.8293    9.8814    6.7643 H   0  0  0  0  0  0  0  0  0  0  0  0
    6.3179    8.3863    5.9704 H   0  0  0  0  0  0  0  0  0  0  0  0
    7.3371    9.0906    7.2279 H   0  0  0  0  0  0  0  0  0  0  0  0
    4.1066    7.8880    7.5582 C   0  0  0  0  0  0  0  0  0  0  0  0
    3.5726    7.3188    8.3157 H   0  0  0  0  0  0  0  0  0  0  0  0
    4.0608    7.3403    6.6200 H   0  0  0  0  0  0  0  0  0  0  0  0
    3.5998    8.8404    7.4219 H   0  0  0  0  0  0  0  0  0  0  0  0
    9.3168    9.8035   12.2514 S   0  0  0  0  0  0  0  0  0  0  0  0
   11.0378    6.4976   13.3855 N   0  0  0  0  0  2  0  0  0  0  0  0
   10.1722    7.4290   13.0543 N   0  0  0  0  0  0  0  0  0  0  0  0
    9.1658    7.1956   13.2272 H   0  0  0  0  0  0  0  0  0  0  0  0
   10.4928    8.6836   12.6497 C   0  0  0  0  0  0  0  0  0  0  0  0
   11.8830    8.9730   12.5677 C   0  0  0  0  0  0  0  0  0  0  0  0
   12.1731    9.9608   12.2453 H   0  0  0  0  0  0  0  0  0  0  0  0
   12.7890    8.0169   12.9001 C   0  0  0  0  0  0  0  0  0  0  0  0
   13.8474    8.2182   12.8505 H   0  0  0  0  0  0  0  0  0  0  0  0
   12.3138    6.7382   13.3204 C   0  0  0  0  0  0  0  0  0  0  0  0
   13.2642    5.6256   13.7001 C   0  0  0  0  0  0  0  0  0  0  0  0
   12.4780    4.3812   14.1135 C   0  0  0  0  0  0  0  0  0  0  0  0
   11.8314    4.6013   14.9577 H   0  0  0  0  0  0  0  0  0  0  0  0
   13.1630    3.5841   14.3919 H   0  0  0  0  0  0  0  0  0  0  0  0
   11.8524    4.0396   13.2946 H   0  0  0  0  0  0  0  0  0  0  0  0
   14.1411    6.0889   14.8707 C   0  0  0  0  0  0  0  0  0  0  0  0
   14.7441    6.9522   14.5998 H   0  0  0  0  0  0  0  0  0  0  0  0
   14.8115    5.2862   15.1682 H   0  0  0  0  0  0  0  0  0  0  0  0
   13.5236    6.3548   15.7257 H   0  0  0  0  0  0  0  0  0  0  0  0
   14.1451    5.2901   12.4895 C   0  0  0  0  0  0  0  0  0  0  0  0
   13.5280    4.9875   11.6466 H   0  0  0  0  0  0  0  0  0  0  0  0
   14.8151    4.4705   12.7377 H   0  0  0  0  0  0  0  0  0  0  0  0
   14.7477    6.1430   12.1866 H   0  0  0  0  0  0  0  0  0  0  0  0
    8.5215   10.3912   16.0954 P   0  0  0  0  0  4  0  0  0  0  0  0
    9.4834    9.2655   17.2415 C   0  0  0  0  0  0  0  0  0  0  0  0
    8.7171    8.7753   17.8570 H   0  0  0  0  0  0  0  0  0  0  0  0
   10.5074    9.9116   18.1725 C   0  0  0  0  0  0  0  0  0  0  0  0
   11.2933   10.3951   17.5900 H   0  0  0  0  0  0  0  0  0  0  0  0
   10.0343   10.6706   18.7981 H   0  0  0  0  0  0  0  0  0  0  0  0
   11.1453    8.8426   19.0597 C   0  0  0  0  0  0  0  0  0  0  0  0
   11.8786    9.3074   19.7228 H   0  0  0  0  0  0  0  0  0  0  0  0
   10.3771    8.3795   19.6838 H   0  0  0  0  0  0  0  0  0  0  0  0
   11.8183    7.7688   18.2096 C   0  0  0  0  0  0  0  0  0  0  0  0
   12.2682    7.0109   18.8546 H   0  0  0  0  0  0  0  0  0  0  0  0
   12.6184    8.2243   17.6197 H   0  0  0  0  0  0  0  0  0  0  0  0
   10.8011    7.1235   17.2737 C   0  0  0  0  0  0  0  0  0  0  0  0
   10.0321    6.6210   17.8645 H   0  0  0  0  0  0  0  0  0  0  0  0
   11.2826    6.3694   16.6478 H   0  0  0  0  0  0  0  0  0  0  0  0
   10.1471    8.1793   16.3905 C   0  0  0  0  0  0  0  0  0  0  0  0
    9.3930    7.7121   15.7527 H   0  0  0  0  0  0  0  0  0  0  0  0
   10.9019    8.6310   15.7396 H   0  0  0  0  0  0  0  0  0  0  0  0
    7.0097   10.8416   17.0778 C   0  0  0  0  0  0  0  0  0  0  0  0
    6.5063   11.5925   16.4528 H   0  0  0  0  0  0  0  0  0  0  0  0
    7.2342   11.4172   18.4730 C   0  0  0  0  0  0  0  0  0  0  0  0
    7.7023   10.6658   19.1127 H   0  0  0  0  0  0  0  0  0  0  0  0
    7.8926   12.2877   18.4283 H   0  0  0  0  0  0  0  0  0  0  0  0
    5.8915   11.8196   19.0814 C   0  0  0  0  0  0  0  0  0  0  0  0
    6.0471   12.2249   20.0840 H   0  0  0  0  0  0  0  0  0  0  0  0
    5.4385   12.6033   18.4696 H   0  0  0  0  0  0  0  0  0  0  0  0
    4.9491   10.6209   19.1443 C   0  0  0  0  0  0  0  0  0  0  0  0
    3.9889   10.9265   19.5649 H   0  0  0  0  0  0  0  0  0  0  0  0
    5.3751    9.8605   19.8038 H   0  0  0  0  0  0  0  0  0  0  0  0
    4.7425   10.0264   17.7538 C   0  0  0  0  0  0  0  0  0  0  0  0
    4.2601   10.7637   17.1083 H   0  0  0  0  0  0  0  0  0  0  0  0
    4.0879    9.1548   17.8142 H   0  0  0  0  0  0  0  0  0  0  0  0
    6.0816    9.6268   17.1434 C   0  0  0  0  0  0  0  0  0  0  0  0
    5.9308    9.2316   16.1343 H   0  0  0  0  0  0  0  0  0  0  0  0
    6.5307    8.8350   17.7486 H   0  0  0  0  0  0  0  0  0  0  0  0
    9.5006   11.9737   15.9848 C   0  0  0  0  0  0  0  0  0  0  0  0
    9.8455   12.2896   16.9756 H   0  0  0  0  0  0  0  0  0  0  0  0
   10.6981   11.7079   15.0689 C   0  0  0  0  0  0  0  0  0  0  0  0
   11.3442   10.9357   15.4942 H   0  0  0  0  0  0  0  0  0  0  0  0
   10.3212   11.3363   14.1119 H   0  0  0  0  0  0  0  0  0  0  0  0
   11.5030   12.9795   14.8259 C   0  0  0  0  0  0  0  0  0  0  0  0
   11.8967   13.3538   15.7751 H   0  0  0  0  0  0  0  0  0  0  0  0
   12.3520   12.7595   14.1748 H   0  0  0  0  0  0  0  0  0  0  0  0
   10.6136   14.0397   14.1876 C   0  0  0  0  0  0  0  0  0  0  0  0
   11.1833   14.9547   14.0115 H   0  0  0  0  0  0  0  0  0  0  0  0
   10.2531   13.6731   13.2244 H   0  0  0  0  0  0  0  0  0  0  0  0
    9.4236   14.3305   15.0943 C   0  0  0  0  0  0  0  0  0  0  0  0
    8.7754   15.0778   14.6325 H   0  0  0  0  0  0  0  0  0  0  0  0
    9.7834   14.7399   16.0426 H   0  0  0  0  0  0  0  0  0  0  0  0
    8.6206   13.0610   15.3663 C   0  0  0  0  0  0  0  0  0  0  0  0
    8.1994   12.6813   14.4299 H   0  0  0  0  0  0  0  0  0  0  0  0
    7.7915   13.3050   16.0330 H   0  0  0  0  0  0  0  0  0  0  0  0
  1  2  1  1  0  0  0
  1 49  1  0  0  0  0
  3  1  1  0  0  0  0
  4  5  1  0  0  0  0
  5  7  1  0  0  0  0
  5  6  1  0  0  0  0
  7  3  1  0  0  0  0
  8  9  1  0  0  0  0
  8  7  2  0  0  0  0
 10  8  1  0  0  0  0
 11 10  1  0  0  0  0
 12 10  2  0  0  0  0
 12  4  1  0  0  0  0
 13 14  1  0  0  0  0
 13 12  1  0  0  0  0
 14 15  1  0  0  0  0
 14 17  1  0  0  0  0
 16 14  1  0  0  0  0
 18 21  1  0  0  0  0
 18 13  1  0  0  0  0
 19 18  1  0  0  0  0
 20 18  1  0  0  0  0
 22 13  1  0  0  0  0
 22 23  1  0  0  0  0
 24 22  1  0  0  0  0
 25 22  1  0  0  0  0
 26 30  1  0  0  0  0
 26  1  1  0  0  0  0
 28 29  1  0  0  0  0
 28 27  1  0  0  0  0
 30 28  1  0  0  0  0
 31 30  2  0  0  0  0
 31 33  1  0  0  0  0
 32 31  1  0  0  0  0
 33 35  2  0  0  0  0
 34 33  1  0  0  0  0
 35 27  1  0  0  0  0
 35 36  1  0  0  0  0
 36 37  1  0  0  0  0
 36 41  1  0  0  0  0
 37 39  1  0  0  0  0
 37 38  1  0  0  0  0
 40 37  1  0  0  0  0
 41 43  1  0  0  0  0
 41 44  1  0  0  0  0
 42 41  1  0  0  0  0
 45 47  1  0  0  0  0
 45 36  1  0  0  0  0
 46 45  1  0  0  0  0
 48 45  1  0  0  0  0
 49 67  1  0  0  0  0
 49 50  1  0  0  0  0
 50 51  1  0  0  0  0
 50 52  1  0  0  0  0
 52 54  1  0  0  0  0
 52 55  1  0  0  0  0
 53 52  1  0  0  0  0
 55 57  1  0  0  0  0
 55 56  1  0  0  0  0
 58 59  1  0  0  0  0
 58 55  1  0  0  0  0
 60 58  1  0  0  0  0
 61 62  1  0  0  0  0
 61 58  1  0  0  0  0
 63 61  1  0  0  0  0
 64 50  1  0  0  0  0
 64 61  1  0  0  0  0
 65 64  1  0  0  0  0
 66 64  1  0  0  0  0
 67 81  1  0  0  0  0
 67 69  1  0  0  0  0
 68 67  1  0  0  0  0
 69 72  1  0  0  0  0
 69 70  1  0  0  0  0
 71 69  1  0  0  0  0
 72 75  1  0  0  0  0
 72 73  1  0  0  0  0
 74 72  1  0  0  0  0
 75 76  1  0  0  0  0
 75 77  1  0  0  0  0
 78 80  1  0  0  0  0
 78 75  1  0  0  0  0
 79 78  1  0  0  0  0
 81 83  1  0  0  0  0
 81 78  1  0  0  0  0
 82 81  1  0  0  0  0
 84 49  1  0  0  0  0
 84 85  1  0  0  0  0
 86 87  1  0  0  0  0
 86 84  1  0  0  0  0
 88 86  1  0  0  0  0
 89 86  1  0  0  0  0
 89 90  1  0  0  0  0
 91 89  1  0  0  0  0
 92 89  1  0  0  0  0
 92 95  1  0  0  0  0
 93 92  1  0  0  0  0
 94 92  1  0  0  0  0
 95 98  1  0  0  0  0
 95 97  1  0  0  0  0
 96 95  1  0  0  0  0
 98 84  1  0  0  0  0
 98100  1  0  0  0  0
 99 98  1  0  0  0  0
M  END
$$$$
