CSD_code = BAYTUT | q = -1 | S = 0 | Stoichiometry = C12H11Cl4N2OZn(1-) | MND = 5
 OpenBabel04212202013D

 31 33  0  0  1  0  0  0  0  0999 V2000
    4.5054    0.6151    4.4342 C   0  0  0  0  0  0  0  0  0  0  0  0
    4.1390    0.5697    3.0625 C   0  0  0  0  0  0  0  0  0  0  0  0
    4.9423   -0.2310    2.2234 C   0  0  0  0  0  0  0  0  0  0  0  0
    4.7018   -0.2932    1.1715 H   0  0  0  0  0  0  0  0  0  0  0  0
    6.0051   -0.9221    2.7431 C   0  0  0  0  0  0  0  0  0  0  0  0
    6.6217   -1.5490    2.1160 H   0  0  0  0  0  0  0  0  0  0  0  0
    6.2962   -0.8074    4.1137 C   0  0  0  0  0  0  0  0  0  0  0  0
    3.0176    1.3147    2.6704 C   0  0  2  0  0  3  0  0  0  0  0  0
    2.2982    2.0455    3.5897 C   0  0  0  0  0  0  0  0  0  0  0  0
    1.4355    2.6131    3.2752 H   0  0  0  0  0  0  0  0  0  0  0  0
    2.6608    2.0618    4.9288 C   0  0  0  0  0  0  0  0  0  0  0  0
    3.7705    1.3550    5.4359 C   0  0  0  0  0  0  0  0  0  0  0  0
    7.4063   -1.5483    4.8016 C   0  0  0  0  0  0  0  0  0  0  0  0
    6.9737   -2.4674    5.2116 H   0  0  0  0  0  0  0  0  0  0  0  0
    8.2016   -1.8196    4.0845 H   0  0  0  0  0  0  0  0  0  0  0  0
    8.7510    0.3230    5.4467 C   0  0  0  0  0  0  0  0  0  0  0  0
    9.6835   -0.0536    4.9948 H   0  0  0  0  0  0  0  0  0  0  0  0
    8.9902    0.9668    6.2904 H   0  0  0  0  0  0  0  0  0  0  0  0
    8.2141    0.9127    4.7049 H   0  0  0  0  0  0  0  0  0  0  0  0
    8.6192   -1.5772    6.8814 C   0  0  0  0  0  0  0  0  0  0  0  0
    9.5058   -2.0595    6.4400 H   0  0  0  0  0  0  0  0  0  0  0  0
    7.9449   -2.3367    7.2715 H   0  0  0  0  0  0  0  0  0  0  0  0
    8.9294   -0.9392    7.7062 H   0  0  0  0  0  0  0  0  0  0  0  0
    5.5634   -0.0510    4.8900 N   0  0  0  0  0  0  0  0  0  0  0  0
    7.9075   -0.7614    5.9154 N   0  0  0  0  0  0  0  0  0  0  0  0
    4.1249    1.3360    6.6479 O   0  0  0  0  0  0  0  0  0  0  0  0
    5.8145    0.1159    6.9735 Zn  0  0  0  0  0  0  0  0  0  0  0  0
    7.1571    1.3371    8.2886 Cl  0  0  0  0  0  0  0  0  0  0  0  0
    5.2236   -1.9726    7.6038 Cl  0  0  0  0  0  0  0  0  0  0  0  0
    1.7064    2.9898    6.0298 Cl  0  0  0  0  0  0  0  0  0  0  0  0
    2.5184    1.3160    1.0057 Cl  0  0  0  0  0  0  0  0  0  0  0  0
  1 24  1  0  0  0  0
  1 12  2  0  0  0  0
  2  1  1  0  0  0  0
  3  5  1  0  0  0  0
  3  2  2  0  0  0  0
  4  3  1  0  0  0  0
  5  7  2  0  0  0  0
  6  5  1  0  0  0  0
  7 13  1  0  0  0  0
  7 24  1  0  0  0  0
  8 31  1  1  0  0  0
  8  2  1  0  0  0  0
  8  9  1  0  0  0  0
  9 11  2  0  0  0  0
 10  9  1  0  0  0  0
 11 12  1  0  0  0  0
 11 30  1  0  0  0  0
 12 26  1  0  0  0  0
 13 14  1  0  0  0  0
 13 25  1  0  0  0  0
 15 13  1  0  0  0  0
 16 25  1  0  0  0  0
 16 18  1  0  0  0  0
 17 16  1  0  0  0  0
 19 16  1  0  0  0  0
 20 22  1  0  0  0  0
 20 23  1  0  0  0  0
 21 20  1  0  0  0  0
 24 27  1  0  0  0  0
 25 20  1  0  0  0  0
 26 27  1  0  0  0  0
 27 29  1  0  0  0  0
 27 28  1  0  0  0  0
M  END
$$$$
