CSD_code = BAYYIM | q = 1 | S = 0 | Stoichiometry = C23H28IN4Os(1+) | MND = 9
 OpenBabel04212202013D

 57 59  0  0  1  0  0  0  0  0999 V2000
    3.5995    7.9873   14.7050 I   0  0  0  0  0 15  0  0  0  0  0  0
    5.2588    7.5808   11.6746 N   0  0  0  0  0  0  0  0  0  0  0  0
    3.9870    6.4352   12.6894 Os  0  0  0  0  0  0  0  0  0  0  0  0
    6.5625    7.7616   11.8896 C   0  0  0  0  0  3  0  0  0  0  0  0
    7.0023    7.1921   12.6982 H   0  0  0  0  0  0  0  0  0  0  0  0
    7.3173    8.6380   11.1423 C   0  0  0  0  0  0  0  0  0  0  0  0
    8.3668    8.7548   11.3533 H   0  0  0  0  0  0  0  0  0  0  0  0
    6.7008    9.3746   10.1275 C   0  0  0  0  0  0  0  0  0  0  0  0
    7.2760   10.0701    9.5381 H   0  0  0  0  0  0  0  0  0  0  0  0
    5.3557    9.2114    9.8991 C   0  0  0  0  0  0  0  0  0  0  0  0
    4.8211    9.7603    9.1431 H   0  0  0  0  0  0  0  0  0  0  0  0
    4.6400    8.3061   10.6952 C   0  0  0  0  0  0  0  0  0  0  0  0
    3.3218    8.0918   10.5439 N   0  0  0  0  0  2  0  0  0  0  0  0
    2.8230    7.2508   11.3929 N   0  0  0  0  0  0  0  0  0  0  0  0
    1.4910    6.9510   11.2723 C   0  0  0  0  0  0  0  0  0  0  0  0
    0.7711    7.2632   10.1034 C   0  0  0  0  0  0  0  0  0  0  0  0
    1.3003    7.7418    9.2950 H   0  0  0  0  0  0  0  0  0  0  0  0
   -0.5580    6.9678    9.9960 C   0  0  0  0  0  0  0  0  0  0  0  0
   -1.0657    7.2262    9.0830 H   0  0  0  0  0  0  0  0  0  0  0  0
   -1.2693    6.3574   11.0578 C   0  0  0  0  0  0  0  0  0  0  0  0
   -0.5364    6.0555   12.2315 C   0  0  0  0  0  0  0  0  0  0  0  0
   -1.0299    5.6087   13.0774 H   0  0  0  0  0  0  0  0  0  0  0  0
    0.7972    6.3411   12.3317 C   0  0  0  0  0  0  0  0  0  0  0  0
    1.3107    6.1370   13.2635 H   0  0  0  0  0  0  0  0  0  0  0  0
   -2.5847    6.0839   10.9603 N   0  0  0  0  0  0  0  0  0  0  0  0
   -3.3137    6.3791    9.7484 C   0  0  0  0  0  0  0  0  0  0  0  0
   -4.3297    6.0045    9.8341 H   0  0  0  0  0  0  0  0  0  0  0  0
   -2.8478    5.8956    8.8875 H   0  0  0  0  0  0  0  0  0  0  0  0
   -3.3600    7.4561    9.5671 H   0  0  0  0  0  0  0  0  0  0  0  0
   -3.3136    5.5415   12.0835 C   0  0  0  0  0  0  0  0  0  0  0  0
   -4.3701    5.4824   11.8385 H   0  0  0  0  0  0  0  0  0  0  0  0
   -3.2066    6.1796   12.9634 H   0  0  0  0  0  0  0  0  0  0  0  0
   -2.9650    4.5354   12.3307 H   0  0  0  0  0  0  0  0  0  0  0  0
    5.1755    4.5222   12.2059 C   0  0  1  0  0  0  0  0  0  0  0  0
    5.9290    4.5793   11.4275 H   0  0  0  0  0  0  0  0  0  0  0  0
    5.5941    4.5328   13.5549 C   0  0  0  0  0  0  0  0  0  0  0  0
    6.6416    4.6853   13.7821 H   0  0  0  0  0  0  0  0  0  0  0  0
    4.6979    4.2891   14.5910 C   0  0  0  0  0  0  0  0  0  0  0  0
    3.3639    3.9639   14.2541 C   0  0  0  0  0  0  0  0  0  0  0  0
    2.6707    3.7250   15.0485 H   0  0  0  0  0  0  0  0  0  0  0  0
    2.9581    3.8823   12.9362 C   0  0  0  0  0  0  0  0  0  0  0  0
    1.9557    3.5498   12.7011 H   0  0  0  0  0  0  0  0  0  0  0  0
    3.8401    4.1910   11.8717 C   0  0  2  0  0  3  0  0  0  0  0  0
    3.4034    3.8869   10.4550 C   0  0  0  0  0  0  0  0  0  0  0  0
    2.3366    4.1302   10.3696 H   0  0  0  0  0  0  0  0  0  0  0  0
    3.5737    2.3802   10.2188 C   0  0  0  0  0  0  0  0  0  0  0  0
    3.2355    2.1226    9.2190 H   0  0  0  0  0  0  0  0  0  0  0  0
    2.9961    1.8042   10.9378 H   0  0  0  0  0  0  0  0  0  0  0  0
    4.6199    2.0970   10.3122 H   0  0  0  0  0  0  0  0  0  0  0  0
    4.1626    4.6737    9.3872 C   0  0  0  0  0  0  0  0  0  0  0  0
    5.1963    4.3446    9.3123 H   0  0  0  0  0  0  0  0  0  0  0  0
    4.1482    5.7442    9.5911 H   0  0  0  0  0  0  0  0  0  0  0  0
    3.6952    4.5125    8.4195 H   0  0  0  0  0  0  0  0  0  0  0  0
    5.1183    4.3270   16.0215 C   0  0  0  0  0  0  0  0  0  0  0  0
    6.2003    4.3651   16.1149 H   0  0  0  0  0  0  0  0  0  0  0  0
    4.7454    3.4529   16.5520 H   0  0  0  0  0  0  0  0  0  0  0  0
    4.7020    5.2094   16.5111 H   0  0  0  0  0  0  0  0  0  0  0  0
  2  4  1  0  0  0  0
  2  3  1  0  0  0  0
  4  5  1  0  0  0  0
  6  7  1  0  0  0  0
  6  4  1  0  0  0  0
  8  6  2  0  0  0  0
  9  8  1  0  0  0  0
 10  8  1  0  0  0  0
 10 12  2  0  0  0  0
 11 10  1  0  0  0  0
 12  2  1  0  0  0  0
 13 12  1  0  0  0  0
 13 14  1  0  0  0  0
 14  3  1  0  0  0  0
 15 14  1  0  0  0  0
 15 23  1  0  0  0  0
 16 15  2  0  0  0  0
 17 16  1  0  0  0  0
 18 16  1  0  0  0  0
 18 20  2  0  0  0  0
 19 18  1  0  0  0  0
 20 21  1  0  0  0  0
 21 23  2  0  0  0  0
 21 22  1  0  0  0  0
 23 24  1  0  0  0  0
 25 20  1  0  0  0  0
 25 30  1  0  0  0  0
 26 27  1  0  0  0  0
 26 25  1  0  0  0  0
 28 26  1  0  0  0  0
 29 26  1  0  0  0  0
 30 33  1  0  0  0  0
 30 32  1  0  0  0  0
 31 30  1  0  0  0  0
 34 35  1  6  0  0  0
 34  3  1  0  0  0  0
 34 36  1  0  0  0  0
 36 37  1  0  0  0  0
 36 38  2  0  0  0  0
 38 54  1  0  0  0  0
 39 38  1  0  0  0  0
 39 40  1  0  0  0  0
 41 39  2  0  0  0  0
 42 41  1  0  0  0  0
 43 44  1  6  0  0  0
 43 34  1  0  0  0  0
 43 41  1  0  0  0  0
 45 44  1  0  0  0  0
 46 49  1  0  0  0  0
 46 44  1  0  0  0  0
 46 48  1  0  0  0  0
 47 46  1  0  0  0  0
 50 52  1  0  0  0  0
 50 44  1  0  0  0  0
 51 50  1  0  0  0  0
 53 50  1  0  0  0  0
 54 55  1  0  0  0  0
 54 57  1  0  0  0  0
 54 56  1  0  0  0  0
M  END
$$$$
