CSD_code = BAYZUZ | q = 0 | S = 0 | Stoichiometry = C12H14ClNO3Pd | MND = 4
 OpenBabel04212202013D

 32 34  0  0  0  0  0  0  0  0999 V2000
    1.7477    3.0040    6.1145 Pd  0  0  1  0  0  0  0  0  0  0  0  0
    2.8457    4.1507    7.5878 Cl  0  0  0  0  0  0  0  0  0  0  0  0
    1.6505    4.6134    4.4338 O   0  0  0  0  0  0  0  0  0  0  0  0
    0.5204    4.8297    2.5077 O   0  0  0  0  0  0  0  0  0  0  0  0
    0.6129    0.7242    4.6021 O   0  0  0  0  0  0  0  0  0  0  0  0
    0.8823    2.0685    4.6396 N   0  0  0  0  0  0  0  0  0  0  0  0
    1.0974    1.6455    7.4337 C   0  0  0  0  0  0  0  0  0  0  0  0
    0.6677    1.9837    8.7128 C   0  0  0  0  0  0  0  0  0  0  0  0
    0.7889    2.9940    9.0829 H   0  0  0  0  0  0  0  0  0  0  0  0
    0.0988    1.0231    9.5371 C   0  0  0  0  0  0  0  0  0  0  0  0
   -0.2232    1.2975   10.5308 H   0  0  0  0  0  0  0  0  0  0  0  0
   -0.0577   -0.2784    9.0945 C   0  0  0  0  0  0  0  0  0  0  0  0
   -0.4985   -1.0239    9.7391 H   0  0  0  0  0  0  0  0  0  0  0  0
    0.3458   -0.6224    7.8166 C   0  0  0  0  0  0  0  0  0  0  0  0
    0.2192   -1.6344    7.4588 H   0  0  0  0  0  0  0  0  0  0  0  0
    0.9216    0.3329    6.9908 C   0  0  0  0  0  0  0  0  0  0  0  0
    1.3429   -0.0137    5.5822 C   0  0  0  0  0  0  0  0  0  0  0  0
    2.4221    0.1873    5.4479 H   0  0  0  0  0  0  0  0  0  0  0  0
    1.1270   -1.0555    5.3390 H   0  0  0  0  0  0  0  0  0  0  0  0
    0.5128    2.7316    3.5763 C   0  0  0  0  0  0  0  0  0  0  0  0
   -0.2186    2.0984    2.4403 C   0  0  0  0  0  0  0  0  0  0  0  0
    0.3710    1.2776    2.0305 H   0  0  0  0  0  0  0  0  0  0  0  0
   -0.4184    2.8302    1.6653 H   0  0  0  0  0  0  0  0  0  0  0  0
   -1.1564    1.6743    2.7985 H   0  0  0  0  0  0  0  0  0  0  0  0
    0.9324    4.1285    3.5599 C   0  0  0  0  0  0  0  0  0  0  0  0
    0.9501    6.1949    2.4539 C   0  0  0  0  0  0  0  0  0  0  0  0
    2.0382    6.2278    2.5732 H   0  0  0  0  0  0  0  0  0  0  0  0
    0.4995    6.7368    3.2923 H   0  0  0  0  0  0  0  0  0  0  0  0
    0.5174    6.7754    1.1223 C   0  0  0  0  0  0  0  0  0  0  0  0
    0.9757    6.2259    0.3048 H   0  0  0  0  0  0  0  0  0  0  0  0
    0.8220    7.8159    1.0647 H   0  0  0  0  0  0  0  0  0  0  0  0
   -0.5626    6.7153    1.0202 H   0  0  0  0  0  0  0  0  0  0  0  0
  1  7  1  0  0  0  0
  1  2  1  6  0  0  0
  3  1  1  0  0  0  0
  4 25  1  0  0  0  0
  5  6  1  0  0  0  0
  5 17  1  0  0  0  0
  6  1  1  0  0  0  0
  7  8  1  0  0  0  0
  8  9  1  0  0  0  0
  8 10  2  0  0  0  0
 10 11  1  0  0  0  0
 12 10  1  0  0  0  0
 12 13  1  0  0  0  0
 14 12  2  0  0  0  0
 15 14  1  0  0  0  0
 16  7  2  0  0  0  0
 16 14  1  0  0  0  0
 17 16  1  0  0  0  0
 18 17  1  0  0  0  0
 19 17  1  0  0  0  0
 20  6  1  0  0  0  0
 21 24  1  0  0  0  0
 21 20  1  0  0  0  0
 22 21  1  0  0  0  0
 23 21  1  0  0  0  0
 25 20  2  0  0  0  0
 25  3  1  0  0  0  0
 26  4  1  0  0  0  0
 26 27  1  0  0  0  0
 26 28  1  0  0  0  0
 29 26  1  0  0  0  0
 30 29  1  0  0  0  0
 31 29  1  0  0  0  0
 32 29  1  0  0  0  0
M  END
$$$$
