CSD_code = BAZCIQ | q = 1 | S = 0 | Stoichiometry = C36H44ClFeN4O(1+) | MND = 5
 OpenBabel04212202013D

 87 94  0  0  0  0  0  0  0  0999 V2000
    9.6431    2.4422    1.2129 Fe  0  0  0  0  0  0  0  0  0  0  0  0
    8.0397    3.6385    1.1003 Cl  0  0  0  0  0  0  0  0  0  0  0  0
    6.9211   -0.1696    5.0505 O   0  0  0  0  0  1  0  0  0  0  0  0
   10.9366    3.5731    2.0914 N   0  0  0  0  0  0  0  0  0  0  0  0
    9.0878    1.6993    3.0465 N   0  0  0  0  0  4  0  0  0  0  0  0
    8.9983    0.8059    0.3597 N   0  0  0  0  0  0  0  0  0  0  0  0
   10.3586    3.0548   -0.5840 N   0  0  0  0  0  4  0  0  0  0  0  0
   11.7285    4.5461    1.5027 C   0  0  0  0  0  0  0  0  0  0  0  0
   11.1217    3.7382    3.4494 C   0  0  0  0  0  0  0  0  0  0  0  0
    9.3951    2.2053    4.2498 C   0  0  0  0  0  0  0  0  0  0  0  0
    8.1942    0.6973    3.2147 C   0  0  0  0  0  0  0  0  0  0  0  0
    8.2270   -0.1818    0.9412 C   0  0  0  0  0  0  0  0  0  0  0  0
    9.0175    0.4943   -0.9867 C   0  0  0  0  0  0  0  0  0  0  0  0
   10.0693    2.5384   -1.8119 C   0  0  0  0  0  0  0  0  0  0  0  0
   11.0732    4.1873   -0.8211 C   0  0  0  0  0  0  0  0  0  0  0  0
   12.4792    5.2577    2.4972 C   0  0  0  0  0  0  0  0  0  0  0  0
   12.1044    4.7458    3.7144 C   0  0  0  0  0  0  0  0  0  0  0  0
    8.6087    1.5835    5.3818 C   0  0  0  0  0  0  0  0  0  0  0  0
    7.7592    0.5826    4.6270 C   0  0  0  0  0  0  0  0  0  0  0  0
    7.8167   -1.1495   -0.0234 C   0  0  0  0  0  0  0  0  0  0  0  0
    8.3255   -0.7342   -1.2348 C   0  0  0  0  0  0  0  0  0  0  0  0
   10.5644    3.3979   -2.8592 C   0  0  0  0  0  0  0  0  0  0  0  0
   11.1803    4.4444   -2.2351 C   0  0  0  0  0  0  0  0  0  0  0  0
   10.3844    3.1318    4.4542 C   0  0  0  0  0  0  0  0  0  0  0  0
   10.5907    3.4332    5.4679 H   0  0  0  0  0  0  0  0  0  0  0  0
    7.8083   -0.2058    2.2644 C   0  0  0  0  0  0  0  0  0  0  0  0
    7.1375   -0.9873    2.5871 H   0  0  0  0  0  0  0  0  0  0  0  0
    9.4934    1.3018   -2.0015 C   0  0  0  0  0  0  0  0  0  0  0  0
    9.3919    0.9438   -3.0130 H   0  0  0  0  0  0  0  0  0  0  0  0
   11.7417    4.8827    0.1675 C   0  0  0  0  0  0  0  0  0  0  0  0
   12.3397    5.7285   -0.1300 H   0  0  0  0  0  0  0  0  0  0  0  0
   13.4795    6.3212    2.2130 C   0  0  0  0  0  0  0  0  0  0  0  0
   13.6608    6.9028    3.1171 H   0  0  0  0  0  0  0  0  0  0  0  0
   13.0957    7.0036    1.4523 H   0  0  0  0  0  0  0  0  0  0  0  0
   14.8030    5.7149    1.7342 C   0  0  0  0  0  0  0  0  0  0  0  0
   15.2227    5.0691    2.5011 H   0  0  0  0  0  0  0  0  0  0  0  0
   15.5172    6.5055    1.5215 H   0  0  0  0  0  0  0  0  0  0  0  0
   14.6566    5.1246    0.8328 H   0  0  0  0  0  0  0  0  0  0  0  0
   12.6065    5.1202    5.0650 C   0  0  0  0  0  0  0  0  0  0  0  0
   11.7718    5.2214    5.7614 H   0  0  0  0  0  0  0  0  0  0  0  0
   13.1079    6.0867    5.0109 H   0  0  0  0  0  0  0  0  0  0  0  0
   13.5923    4.0741    5.5948 C   0  0  0  0  0  0  0  0  0  0  0  0
   13.1219    3.0963    5.6668 H   0  0  0  0  0  0  0  0  0  0  0  0
   13.9468    4.3637    6.5801 H   0  0  0  0  0  0  0  0  0  0  0  0
   14.4496    3.9924    4.9316 H   0  0  0  0  0  0  0  0  0  0  0  0
    9.5606    0.8306    6.3429 C   0  0  0  0  0  0  0  0  0  0  0  0
   10.1376    0.1123    5.7532 H   0  0  0  0  0  0  0  0  0  0  0  0
   10.2631    1.5501    6.7684 H   0  0  0  0  0  0  0  0  0  0  0  0
    8.8450    0.0967    7.4698 C   0  0  0  0  0  0  0  0  0  0  0  0
    8.4180    0.7942    8.1844 H   0  0  0  0  0  0  0  0  0  0  0  0
    9.5560   -0.5344    7.9967 H   0  0  0  0  0  0  0  0  0  0  0  0
    8.0511   -0.5341    7.0798 H   0  0  0  0  0  0  0  0  0  0  0  0
    7.7408    2.6183    6.1165 C   0  0  0  0  0  0  0  0  0  0  0  0
    8.3856    3.2735    6.7054 H   0  0  0  0  0  0  0  0  0  0  0  0
    7.0832    2.0792    6.7984 H   0  0  0  0  0  0  0  0  0  0  0  0
    6.8912    3.4477    5.1596 C   0  0  0  0  0  0  0  0  0  0  0  0
    7.5091    4.0012    4.4540 H   0  0  0  0  0  0  0  0  0  0  0  0
    6.2938    4.1601    5.7222 H   0  0  0  0  0  0  0  0  0  0  0  0
    6.2137    2.8100    4.5956 H   0  0  0  0  0  0  0  0  0  0  0  0
    6.9569   -2.3309    0.2579 C   0  0  0  0  0  0  0  0  0  0  0  0
    7.2367   -2.7749    1.2147 H   0  0  0  0  0  0  0  0  0  0  0  0
    7.1121   -3.0812   -0.5186 H   0  0  0  0  0  0  0  0  0  0  0  0
    5.4721   -1.9509    0.2895 C   0  0  0  0  0  0  0  0  0  0  0  0
    5.2758   -1.2094    1.0596 H   0  0  0  0  0  0  0  0  0  0  0  0
    4.8707   -2.8318    0.4949 H   0  0  0  0  0  0  0  0  0  0  0  0
    5.1621   -1.5384   -0.6670 H   0  0  0  0  0  0  0  0  0  0  0  0
    8.1472   -1.3664   -2.5694 C   0  0  0  0  0  0  0  0  0  0  0  0
    7.9770   -2.4360   -2.4392 H   0  0  0  0  0  0  0  0  0  0  0  0
    9.0537   -1.2424   -3.1647 H   0  0  0  0  0  0  0  0  0  0  0  0
    6.9541   -0.7664   -3.3224 C   0  0  0  0  0  0  0  0  0  0  0  0
    6.0320   -0.9388   -2.7742 H   0  0  0  0  0  0  0  0  0  0  0  0
    6.8635   -1.2299   -4.3008 H   0  0  0  0  0  0  0  0  0  0  0  0
    7.0756    0.3061   -3.4542 H   0  0  0  0  0  0  0  0  0  0  0  0
   10.3769    3.1600   -4.3170 C   0  0  0  0  0  0  0  0  0  0  0  0
   11.0880    3.7662   -4.8783 H   0  0  0  0  0  0  0  0  0  0  0  0
   10.5767    2.1122   -4.5514 H   0  0  0  0  0  0  0  0  0  0  0  0
    8.9529    3.5195   -4.7516 C   0  0  0  0  0  0  0  0  0  0  0  0
    8.2197    2.9334   -4.2024 H   0  0  0  0  0  0  0  0  0  0  0  0
    8.8268    3.3289   -5.8140 H   0  0  0  0  0  0  0  0  0  0  0  0
    8.7556    4.5718   -4.5636 H   0  0  0  0  0  0  0  0  0  0  0  0
   11.9047    5.5942   -2.8457 C   0  0  0  0  0  0  0  0  0  0  0  0
   11.7801    6.4834   -2.2253 H   0  0  0  0  0  0  0  0  0  0  0  0
   11.4762    5.8097   -3.8252 H   0  0  0  0  0  0  0  0  0  0  0  0
   13.3960    5.2832   -3.0084 C   0  0  0  0  0  0  0  0  0  0  0  0
   13.8547    5.0638   -2.0470 H   0  0  0  0  0  0  0  0  0  0  0  0
   13.9083    6.1328   -3.4514 H   0  0  0  0  0  0  0  0  0  0  0  0
   13.5352    4.4204   -3.6551 H   0  0  0  0  0  0  0  0  0  0  0  0
  1  4  1  0  0  0  0
  1  5  1  0  0  0  0
  2  1  1  0  0  0  0
  4  9  1  0  0  0  0
  5 11  1  0  0  0  0
  5 10  2  0  0  0  0
  6 12  1  0  0  0  0
  6  1  1  0  0  0  0
  7  1  1  0  0  0  0
  8  4  1  0  0  0  0
  8 16  1  0  0  0  0
  9 17  1  0  0  0  0
  9 24  2  0  0  0  0
 10 24  1  0  0  0  0
 10 18  1  0  0  0  0
 11 19  1  0  0  0  0
 12 26  1  0  0  0  0
 13  6  1  0  0  0  0
 14  7  1  0  0  0  0
 15  7  2  0  0  0  0
 15 30  1  0  0  0  0
 16 17  2  0  0  0  0
 17 39  1  0  0  0  0
 18 53  1  0  0  0  0
 18 46  1  0  0  0  0
 19  3  1  0  0  0  0
 19 18  2  0  0  0  0
 20 60  1  0  0  0  0
 20 12  2  0  0  0  0
 21 13  2  0  0  0  0
 21 20  1  0  0  0  0
 22 23  2  0  0  0  0
 22 14  1  0  0  0  0
 23 15  1  0  0  0  0
 24 25  1  0  0  0  0
 26 27  1  0  0  0  0
 26 11  2  0  0  0  0
 28 14  2  0  0  0  0
 28 13  1  0  0  0  0
 29 28  1  0  0  0  0
 30  8  2  0  0  0  0
 31 30  1  0  0  0  0
 32 16  1  0  0  0  0
 32 33  1  0  0  0  0
 34 32  1  0  0  0  0
 35 32  1  0  0  0  0
 35 36  1  0  0  0  0
 37 35  1  0  0  0  0
 38 35  1  0  0  0  0
 39 42  1  0  0  0  0
 39 40  1  0  0  0  0
 41 39  1  0  0  0  0
 42 43  1  0  0  0  0
 42 44  1  0  0  0  0
 45 42  1  0  0  0  0
 46 48  1  0  0  0  0
 46 49  1  0  0  0  0
 47 46  1  0  0  0  0
 49 51  1  0  0  0  0
 49 50  1  0  0  0  0
 52 49  1  0  0  0  0
 53 54  1  0  0  0  0
 53 55  1  0  0  0  0
 56 58  1  0  0  0  0
 56 53  1  0  0  0  0
 57 56  1  0  0  0  0
 59 56  1  0  0  0  0
 60 63  1  0  0  0  0
 60 61  1  0  0  0  0
 62 60  1  0  0  0  0
 63 65  1  0  0  0  0
 63 64  1  0  0  0  0
 66 63  1  0  0  0  0
 67 68  1  0  0  0  0
 67 21  1  0  0  0  0
 69 67  1  0  0  0  0
 70 71  1  0  0  0  0
 70 67  1  0  0  0  0
 72 70  1  0  0  0  0
 73 70  1  0  0  0  0
 74 22  1  0  0  0  0
 75 74  1  0  0  0  0
 76 74  1  0  0  0  0
 77 80  1  0  0  0  0
 77 74  1  0  0  0  0
 77 78  1  0  0  0  0
 79 77  1  0  0  0  0
 81 23  1  0  0  0  0
 81 82  1  0  0  0  0
 83 81  1  0  0  0  0
 84 81  1  0  0  0  0
 84 85  1  0  0  0  0
 86 84  1  0  0  0  0
 87 84  1  0  0  0  0
M  END
$$$$
