CSD_code = BAZLAS | q = 0 | S = 0 | Stoichiometry = C31H33F6IN2O3Pd | MND = 4
 OpenBabel04212202013D

 77 80  0  0  1  0  0  0  0  0999 V2000
    0.8194    6.9062    6.4966 Pd  0  0  2  0  0  0  0  0  0  0  0  0
    0.3144    8.2000    4.3280 I   0  0  0  0  0  0  0  0  0  0  0  0
    4.2742    9.4668    8.3412 F   0  0  0  0  0  0  0  0  0  0  0  0
    3.0346    8.3638    6.9718 F   0  0  0  0  0  0  0  0  0  0  0  0
    3.6284   10.3760    6.5252 F   0  0  0  0  0  0  0  0  0  0  0  0
    2.9696   10.6798   10.3621 F   0  0  0  0  0  0  0  0  0  0  0  0
    1.2135   11.7444    9.7503 F   0  0  0  0  0  0  0  0  0  0  0  0
    3.0959   12.0774    8.7662 F   0  0  0  0  0  0  0  0  0  0  0  0
    1.3547    8.9081    8.8567 O   0  0  0  0  0  0  0  0  0  0  0  0
    1.3148    5.7398    8.1910 O   0  0  0  0  0  0  0  0  0  0  0  0
    2.3125    5.9047    5.4755 O   0  0  0  0  0  0  0  0  0  0  0  0
   -0.9122    9.0152    7.7633 N   0  0  0  0  0  0  0  0  0  0  0  0
   -1.4738    7.0044    8.2879 N   0  0  0  0  0  0  0  0  0  0  0  0
   -0.6238    7.7198    7.5223 C   0  0  0  0  0  0  0  0  0  0  0  0
   -0.3836   10.1513    7.0965 C   0  0  0  0  0  0  0  0  0  0  0  0
    0.9123   10.6464    7.2830 C   0  0  0  0  0  0  0  0  0  0  0  0
    1.9271   10.0276    8.2600 C   0  0  0  0  0  0  0  0  0  0  0  0
    2.0062    8.1832    9.9135 C   0  0  0  0  0  0  0  0  0  0  0  0
    3.0918    8.2985    9.8976 H   0  0  0  0  0  0  0  0  0  0  0  0
    1.7763    7.1349    9.6778 H   0  0  0  0  0  0  0  0  0  0  0  0
    1.4702    8.5113   11.2736 C   0  0  0  0  0  0  0  0  0  0  0  0
    0.3910    9.2295   11.5184 C   0  0  0  0  0  0  0  0  0  0  0  0
    3.2255    9.5798    7.5077 C   0  0  0  0  0  0  0  0  0  0  0  0
    2.3105   11.1312    9.2930 C   0  0  0  0  0  0  0  0  0  0  0  0
    1.2951   11.7881    6.5824 C   0  0  0  0  0  0  0  0  0  0  0  0
    2.2830   12.1998    6.6945 H   0  0  0  0  0  0  0  0  0  0  0  0
    0.4378   12.4327    5.7057 C   0  0  0  0  0  0  0  0  0  0  0  0
    0.8983   13.6266    4.9356 C   0  0  0  0  0  0  0  0  0  0  0  0
    1.2049   13.3108    3.9393 H   0  0  0  0  0  0  0  0  0  0  0  0
    1.7469   14.1019    5.4187 H   0  0  0  0  0  0  0  0  0  0  0  0
    0.0948   14.3503    4.8260 H   0  0  0  0  0  0  0  0  0  0  0  0
   -0.8390   11.9241    5.5319 C   0  0  0  0  0  0  0  0  0  0  0  0
   -1.5122   12.4029    4.8377 H   0  0  0  0  0  0  0  0  0  0  0  0
   -1.2596   10.7950    6.2084 C   0  0  0  0  0  0  0  0  0  0  0  0
   -2.6210   10.2334    5.9352 C   0  0  0  0  0  0  0  0  0  0  0  0
   -3.0560   10.7300    5.0737 H   0  0  0  0  0  0  0  0  0  0  0  0
   -3.2911   10.3620    6.7835 H   0  0  0  0  0  0  0  0  0  0  0  0
   -2.5477    9.1713    5.7103 H   0  0  0  0  0  0  0  0  0  0  0  0
   -1.9358    9.1083    8.6755 C   0  0  0  0  0  0  0  0  0  0  0  0
   -2.3102   10.0525    9.0145 H   0  0  0  0  0  0  0  0  0  0  0  0
   -2.2852    7.8469    9.0067 C   0  0  0  0  0  0  0  0  0  0  0  0
   -3.0466    7.4868    9.6661 H   0  0  0  0  0  0  0  0  0  0  0  0
   -1.4704    5.5881    8.4037 C   0  0  0  0  0  0  0  0  0  0  0  0
   -1.6327    4.7864    7.2668 C   0  0  0  0  0  0  0  0  0  0  0  0
   -1.8624    5.3489    5.8938 C   0  0  0  0  0  0  0  0  0  0  0  0
   -2.3075    6.3440    5.9247 H   0  0  0  0  0  0  0  0  0  0  0  0
   -2.5215    4.6918    5.3292 H   0  0  0  0  0  0  0  0  0  0  0  0
   -0.9065    5.4044    5.3452 H   0  0  0  0  0  0  0  0  0  0  0  0
   -1.5861    3.4071    7.4173 C   0  0  0  0  0  0  0  0  0  0  0  0
   -1.7003    2.7848    6.5412 H   0  0  0  0  0  0  0  0  0  0  0  0
   -1.3929    2.8092    8.6529 C   0  0  0  0  0  0  0  0  0  0  0  0
   -1.3317    1.3171    8.7706 C   0  0  0  0  0  0  0  0  0  0  0  0
   -1.2693    1.0089    9.8111 H   0  0  0  0  0  0  0  0  0  0  0  0
   -0.4597    0.9331    8.2419 H   0  0  0  0  0  0  0  0  0  0  0  0
   -2.2149    0.8638    8.3234 H   0  0  0  0  0  0  0  0  0  0  0  0
   -1.2520    3.6259    9.7634 C   0  0  0  0  0  0  0  0  0  0  0  0
   -1.0981    3.1793   10.7357 H   0  0  0  0  0  0  0  0  0  0  0  0
   -1.2822    5.0090    9.6626 C   0  0  0  0  0  0  0  0  0  0  0  0
   -1.0903    5.8312   10.9031 C   0  0  0  0  0  0  0  0  0  0  0  0
   -0.5883    6.7718   10.6910 H   0  0  0  0  0  0  0  0  0  0  0  0
   -0.4965    5.2778   11.6275 H   0  0  0  0  0  0  0  0  0  0  0  0
   -2.0505    6.0520   11.3706 H   0  0  0  0  0  0  0  0  0  0  0  0
    2.1544    4.7925    8.2043 C   0  0  2  0  0  3  0  0  0  0  0  0
    2.2749    4.0353    9.5155 C   0  0  0  0  0  0  0  0  0  0  0  0
    1.7178    4.5494   10.2948 H   0  0  0  0  0  0  0  0  0  0  0  0
    3.3179    3.9444    9.8085 H   0  0  0  0  0  0  0  0  0  0  0  0
    1.8619    3.0360    9.3922 H   0  0  0  0  0  0  0  0  0  0  0  0
    2.9752    4.3781    7.1644 C   0  0  0  0  0  0  0  0  0  0  0  0
    3.6431    3.5519    7.3555 H   0  0  0  0  0  0  0  0  0  0  0  0
    3.0165    4.9586    5.8848 C   0  0  0  0  0  0  0  0  0  0  0  0
    4.0163    4.3743    4.9066 C   0  0  0  0  0  0  0  0  0  0  0  0
    3.9375    4.8902    3.9527 H   0  0  0  0  0  0  0  0  0  0  0  0
    3.8219    3.3133    4.7640 H   0  0  0  0  0  0  0  0  0  0  0  0
    5.0254    4.4885    5.2973 H   0  0  0  0  0  0  0  0  0  0  0  0
    0.0518    9.4165   12.5216 H   0  0  0  0  0  0  0  0  0  0  0  0
    2.0455    8.0726   12.0766 H   0  0  0  0  0  0  0  0  0  0  0  0
   -0.1886    9.6717   10.7250 H   0  0  0  0  0  0  0  0  0  0  0  0
  1  2  1  1  0  0  0
  1 14  2  0  0  0  0
  1 10  1  0  0  0  0
  4 23  1  0  0  0  0
  5 23  1  0  0  0  0
  8 24  1  0  0  0  0
  9 18  1  0  0  0  0
 10 63  1  0  0  0  0
 11 70  1  0  0  0  0
 11  1  1  0  0  0  0
 12 39  1  0  0  0  0
 13 43  1  0  0  0  0
 13 41  1  0  0  0  0
 14 12  1  0  0  0  0
 14 13  1  0  0  0  0
 15 16  1  0  0  0  0
 15 12  1  0  0  0  0
 16 17  1  0  0  0  0
 17  9  1  0  0  0  0
 17 24  1  0  0  0  0
 18 21  1  0  0  0  0
 19 18  1  0  0  0  0
 20 18  1  0  0  0  0
 21 22  2  0  0  0  0
 21 76  1  0  0  0  0
 22 75  1  0  0  0  0
 23 17  1  0  0  0  0
 23  3  1  0  0  0  0
 24  7  1  0  0  0  0
 24  6  1  0  0  0  0
 25 26  1  0  0  0  0
 25 16  2  0  0  0  0
 27 25  1  0  0  0  0
 28 30  1  0  0  0  0
 28 27  1  0  0  0  0
 29 28  1  0  0  0  0
 31 28  1  0  0  0  0
 32 27  2  0  0  0  0
 32 34  1  0  0  0  0
 33 32  1  0  0  0  0
 34 15  2  0  0  0  0
 35 34  1  0  0  0  0
 35 37  1  0  0  0  0
 36 35  1  0  0  0  0
 38 35  1  0  0  0  0
 39 41  2  0  0  0  0
 39 40  1  0  0  0  0
 41 42  1  0  0  0  0
 43 58  1  0  0  0  0
 44 49  1  0  0  0  0
 44 43  2  0  0  0  0
 45 46  1  0  0  0  0
 45 44  1  0  0  0  0
 47 45  1  0  0  0  0
 48 45  1  0  0  0  0
 49 51  2  0  0  0  0
 50 49  1  0  0  0  0
 51 52  1  0  0  0  0
 51 56  1  0  0  0  0
 52 53  1  0  0  0  0
 54 52  1  0  0  0  0
 55 52  1  0  0  0  0
 56 57  1  0  0  0  0
 58 56  2  0  0  0  0
 58 59  1  0  0  0  0
 59 62  1  0  0  0  0
 59 61  1  0  0  0  0
 60 59  1  0  0  0  0
 63 64  1  1  0  0  0
 64 66  1  0  0  0  0
 64 65  1  0  0  0  0
 67 64  1  0  0  0  0
 68 69  1  0  0  0  0
 68 63  1  0  0  0  0
 70 68  2  0  0  0  0
 71 74  1  0  0  0  0
 71 70  1  0  0  0  0
 72 71  1  0  0  0  0
 73 71  1  0  0  0  0
 77 22  1  0  0  0  0
M  END
$$$$
