CSD_code = BAZLIA | q = 0 | S = 0 | Stoichiometry = C32H36ClF6N2ORh | MND = 6
 OpenBabel04212202013D

 79 81  0  0  1  0  0  0  0  0999 V2000
    3.1416   14.8921   13.5012 Rh  0  0  0  0  0  0  0  0  0  0  0  0
    1.7583   15.1242   11.7065 Cl  0  0  0  0  0 15  0  0  0  0  0  0
    8.1061   17.9814   17.0316 F   0  0  0  0  0  0  0  0  0  0  0  0
    8.6059   16.2780   15.8437 F   0  0  0  0  0  0  0  0  0  0  0  0
    6.6828   16.3981   16.7645 F   0  0  0  0  0  0  0  0  0  0  0  0
    7.6201   19.6179   13.3973 F   0  0  0  0  0  0  0  0  0  0  0  0
    9.2129   18.8372   14.6088 F   0  0  0  0  0  0  0  0  0  0  0  0
    7.6799   20.0426   15.4872 F   0  0  0  0  0  0  0  0  0  0  0  0
    7.1106   16.8867   13.7966 O   0  0  0  0  0  0  0  0  0  0  0  0
    4.7582   17.4222   12.9184 N   0  0  0  0  0  0  0  0  0  0  0  0
    4.8300   16.0573   11.2642 N   0  0  0  0  0  0  0  0  0  0  0  0
    4.3869   16.1721   12.5358 C   0  0  2  0  0  3  0  0  0  0  0  0
    4.5484   18.0166   14.1848 C   0  0  0  0  0  0  0  0  0  0  0  0
    3.2434   18.4125   14.5125 C   0  0  0  0  0  0  0  0  0  0  0  0
    2.1226   18.1645   13.5622 C   0  0  0  0  0  0  0  0  0  0  0  0
    1.2090   18.6391   13.9071 H   0  0  0  0  0  0  0  0  0  0  0  0
    1.9465   17.0806   13.4756 H   0  0  0  0  0  0  0  0  0  0  0  0
    2.3584   18.5289   12.5640 H   0  0  0  0  0  0  0  0  0  0  0  0
    3.0018   19.0143   15.7376 C   0  0  0  0  0  0  0  0  0  0  0  0
    1.9926   19.3093   15.9841 H   0  0  0  0  0  0  0  0  0  0  0  0
    4.0213   19.2467   16.6445 C   0  0  0  0  0  0  0  0  0  0  0  0
    3.7610   19.8872   17.9705 C   0  0  0  0  0  0  0  0  0  0  0  0
    2.7741   20.3405   17.9967 H   0  0  0  0  0  0  0  0  0  0  0  0
    4.5085   20.6489   18.1799 H   0  0  0  0  0  0  0  0  0  0  0  0
    3.8180   19.1390   18.7604 H   0  0  0  0  0  0  0  0  0  0  0  0
    5.3093   18.8528   16.3100 C   0  0  0  0  0  0  0  0  0  0  0  0
    6.0903   19.0384   17.0288 H   0  0  0  0  0  0  0  0  0  0  0  0
    5.5921   18.2380   15.0944 C   0  0  0  0  0  0  0  0  0  0  0  0
    7.0446   17.8067   14.8459 C   0  0  0  0  0  0  0  0  0  0  0  0
    8.2988   16.7376   13.0220 C   0  0  0  0  0  0  0  0  0  0  0  0
    8.0872   15.8803   12.3874 H   0  0  0  0  0  0  0  0  0  0  0  0
    9.1795   16.5281   13.6286 H   0  0  0  0  0  0  0  0  0  0  0  0
    8.4767   17.6114   12.3914 H   0  0  0  0  0  0  0  0  0  0  0  0
    7.6098   17.1188   16.1352 C   0  0  0  0  0  0  0  0  0  0  0  0
    7.8967   19.0805   14.5905 C   0  0  0  0  0  0  0  0  0  0  0  0
    5.4106   18.0696   11.8968 C   0  0  0  0  0  0  0  0  0  0  0  0
    5.7651   19.0743   11.9909 H   0  0  0  0  0  0  0  0  0  0  0  0
    5.4604   17.2059   10.8626 C   0  0  0  0  0  0  0  0  0  0  0  0
    5.9012   17.3041    9.8920 H   0  0  0  0  0  0  0  0  0  0  0  0
    4.6376   14.9589   10.3804 C   0  0  0  0  0  0  0  0  0  0  0  0
    5.3096   13.7575   10.5884 C   0  0  0  0  0  0  0  0  0  0  0  0
    6.3144   13.5741   11.6863 C   0  0  0  0  0  0  0  0  0  0  0  0
    7.3106   13.4654   11.2537 H   0  0  0  0  0  0  0  0  0  0  0  0
    6.0978   12.6673   12.2461 H   0  0  0  0  0  0  0  0  0  0  0  0
    6.3163   14.4146   12.3727 H   0  0  0  0  0  0  0  0  0  0  0  0
    5.0884   12.7060    9.7061 C   0  0  0  0  0  0  0  0  0  0  0  0
    5.6009   11.7699    9.8776 H   0  0  0  0  0  0  0  0  0  0  0  0
    4.2382   12.8346    8.6232 C   0  0  0  0  0  0  0  0  0  0  0  0
    3.9849   11.6911    7.6891 C   0  0  0  0  0  0  0  0  0  0  0  0
    4.6381   10.8514    7.9121 H   0  0  0  0  0  0  0  0  0  0  0  0
    4.1456   11.9973    6.6567 H   0  0  0  0  0  0  0  0  0  0  0  0
    2.9514   11.3590    7.7800 H   0  0  0  0  0  0  0  0  0  0  0  0
    3.6174   14.0595    8.4121 C   0  0  0  0  0  0  0  0  0  0  0  0
    2.9601   14.1760    7.5626 H   0  0  0  0  0  0  0  0  0  0  0  0
    3.8027   15.1305    9.2680 C   0  0  0  0  0  0  0  0  0  0  0  0
    3.0948   16.4251    9.0119 C   0  0  0  0  0  0  0  0  0  0  0  0
    2.5025   16.6893    9.8861 H   0  0  0  0  0  0  0  0  0  0  0  0
    2.4257   16.3230    8.1627 H   0  0  0  0  0  0  0  0  0  0  0  0
    3.7933   17.2341    8.8047 H   0  0  0  0  0  0  0  0  0  0  0  0
    4.6311   14.0888   14.7849 C   0  0  1  0  0  0  0  0  0  0  0  0
    5.6356   14.3604   14.4667 H   0  0  0  0  0  0  0  0  0  0  0  0
    3.9166   15.0576   15.4873 C   0  0  0  0  0  3  0  0  0  0  0  0
    4.4010   16.0177   15.6220 H   0  0  0  0  0  0  0  0  0  0  0  0
    2.9103   14.7371   16.5722 C   0  0  0  0  0  0  0  0  0  0  0  0
    3.2001   13.8082   17.0652 H   0  0  0  0  0  0  0  0  0  0  0  0
    2.9467   15.5260   17.3266 H   0  0  0  0  0  0  0  0  0  0  0  0
    1.4767   14.6349   16.0248 C   0  0  0  0  0  0  0  0  0  0  0  0
    1.0070   15.6208   16.0730 H   0  0  0  0  0  0  0  0  0  0  0  0
    0.8788   13.9601   16.6476 H   0  0  0  0  0  0  0  0  0  0  0  0
    1.4296   14.1626   14.5913 C   0  0  0  0  0  3  0  0  0  0  0  0
    0.5447   14.4969   14.0499 H   0  0  0  0  0  0  0  0  0  0  0  0
    2.1146   13.0741   14.0917 C   0  0  0  0  0  3  0  0  0  0  0  0
    1.7577   12.6335   13.1604 H   0  0  0  0  0  0  0  0  0  0  0  0
    2.9694   12.1618   14.9417 C   0  0  0  0  0  0  0  0  0  0  0  0
    2.5640   12.1369   15.9545 H   0  0  0  0  0  0  0  0  0  0  0  0
    2.9077   11.1460   14.5451 H   0  0  0  0  0  0  0  0  0  0  0  0
    4.4454   12.5993   14.9630 C   0  0  0  0  0  0  0  0  0  0  0  0
    4.9751   12.0897   14.1546 H   0  0  0  0  0  0  0  0  0  0  0  0
    4.9174   12.2885   15.9024 H   0  0  0  0  0  0  0  0  0  0  0  0
  1 60  1  0  0  0  0
  4 34  1  0  0  0  0
  6 35  1  0  0  0  0
  9 29  1  0  0  0  0
 10 13  1  0  0  0  0
 11 12  1  0  0  0  0
 12 10  1  0  0  0  0
 12  1  1  6  0  0  0
 13 14  2  0  0  0  0
 13 28  1  0  0  0  0
 14 19  1  0  0  0  0
 15 16  1  0  0  0  0
 15 14  1  0  0  0  0
 17 15  1  0  0  0  0
 18 15  1  0  0  0  0
 19 20  1  0  0  0  0
 19 21  2  0  0  0  0
 21 22  1  0  0  0  0
 22 23  1  0  0  0  0
 22 24  1  0  0  0  0
 22 25  1  0  0  0  0
 26 21  1  0  0  0  0
 26 27  1  0  0  0  0
 28 26  2  0  0  0  0
 29 28  1  0  0  0  0
 29 34  1  0  0  0  0
 30 32  1  0  0  0  0
 30  9  1  0  0  0  0
 31 30  1  0  0  0  0
 33 30  1  0  0  0  0
 34  5  1  0  0  0  0
 34  3  1  0  0  0  0
 35  7  1  0  0  0  0
 35 29  1  0  0  0  0
 35  8  1  0  0  0  0
 36 37  1  0  0  0  0
 36 10  1  0  0  0  0
 38 11  1  0  0  0  0
 38 36  2  0  0  0  0
 39 38  1  0  0  0  0
 40 41  1  0  0  0  0
 40 11  1  0  0  0  0
 41 42  1  0  0  0  0
 42 44  1  0  0  0  0
 42 45  1  0  0  0  0
 43 42  1  0  0  0  0
 46 47  1  0  0  0  0
 46 41  2  0  0  0  0
 48 46  1  0  0  0  0
 49 52  1  0  0  0  0
 49 50  1  0  0  0  0
 49 48  1  0  0  0  0
 51 49  1  0  0  0  0
 53 48  2  0  0  0  0
 53 55  1  0  0  0  0
 54 53  1  0  0  0  0
 55 40  2  0  0  0  0
 56 55  1  0  0  0  0
 56 57  1  0  0  0  0
 58 56  1  0  0  0  0
 59 56  1  0  0  0  0
 60 61  1  6  0  0  0
 60 77  1  0  0  0  0
 60 62  1  0  0  0  0
 62 63  1  0  0  0  0
 62 64  1  0  0  0  0
 64 65  1  0  0  0  0
 64 66  1  0  0  0  0
 67 68  1  0  0  0  0
 67 64  1  0  0  0  0
 67 69  1  0  0  0  0
 70 67  1  0  0  0  0
 71 70  1  0  0  0  0
 72 70  1  0  0  0  0
 72 74  1  0  0  0  0
 73 72  1  0  0  0  0
 74 77  1  0  0  0  0
 74 75  1  0  0  0  0
 76 74  1  0  0  0  0
 77 79  1  0  0  0  0
 78 77  1  0  0  0  0
M  END
$$$$
