CSD_code = BAZPUQ | q = 1 | S = 0 | Stoichiometry = C18H24AuCl2N8(1+) | MND = 6
 OpenBabel04212202013D

 53 58  0  0  1  0  0  0  0  0999 V2000
    4.2074    2.8805   11.8361 Au  0  0  0  0  0  0  0  0  0  0  0  0
    3.1922    1.5719   10.7081 C   0  0  2  0  0  3  0  0  0  0  0  0
    2.9219    0.3375   11.1710 N   0  0  0  0  0  0  0  0  0  0  0  0
    2.2639   -0.3860   10.2201 C   0  0  0  0  0  0  0  0  0  0  0  0
    1.9440   -1.3950   10.3774 H   0  0  0  0  0  0  0  0  0  0  0  0
    2.1323    0.4276    9.1427 C   0  0  0  0  0  0  0  0  0  0  0  0
    1.6842    0.2437    8.1879 H   0  0  0  0  0  0  0  0  0  0  0  0
    2.7163    1.6215    9.4584 N   0  0  0  0  0  0  0  0  0  0  0  0
    2.8410    2.7214    8.5398 C   0  0  0  0  0  0  0  0  0  0  0  0
    2.0579    3.4630    8.7020 H   0  0  0  0  0  0  0  0  0  0  0  0
    2.7651    2.3468    7.5213 H   0  0  0  0  0  0  0  0  0  0  0  0
    3.8174    3.1922    8.6745 H   0  0  0  0  0  0  0  0  0  0  0  0
    3.3676   -0.1184   12.4625 C   0  0  0  0  0  0  0  0  0  0  0  0
    2.8633    0.4917   13.2439 H   0  0  0  0  0  0  0  0  0  0  0  0
    3.1449   -1.1794   12.5839 H   0  0  0  0  0  0  0  0  0  0  0  0
    5.3482    1.3027   12.3100 C   0  0  1  0  0  3  0  0  0  0  0  0
    4.7874    0.1045   12.5570 N   0  0  0  0  0  0  0  0  0  0  0  0
    5.7551   -0.8220   12.8135 C   0  0  0  0  0  0  0  0  0  0  0  0
    5.5336   -1.8433   13.0439 H   0  0  0  0  0  0  0  0  0  0  0  0
    6.9422   -0.1730   12.7157 C   0  0  0  0  0  0  0  0  0  0  0  0
    7.9417   -0.5377   12.8360 H   0  0  0  0  0  0  0  0  0  0  0  0
    6.6720    1.1275   12.3971 N   0  0  0  0  0  0  0  0  0  0  0  0
    7.6834    2.1167   12.1369 C   0  0  0  0  0  0  0  0  0  0  0  0
    7.3621    2.7479   11.3052 H   0  0  0  0  0  0  0  0  0  0  0  0
    8.6107    1.6170   11.8655 H   0  0  0  0  0  0  0  0  0  0  0  0
    7.8622    2.7399   13.0138 H   0  0  0  0  0  0  0  0  0  0  0  0
    3.0650    4.4574   11.3627 C   0  0  2  0  0  3  0  0  0  0  0  0
    3.6224    5.6582   11.1219 N   0  0  0  0  0  0  0  0  0  0  0  0
    2.6525    6.5823   10.8652 C   0  0  0  0  0  0  0  0  0  0  0  0
    2.8714    7.6052   10.6391 H   0  0  0  0  0  0  0  0  0  0  0  0
    1.4673    5.9290   10.9568 C   0  0  0  0  0  0  0  0  0  0  0  0
    0.4670    6.2907   10.8344 H   0  0  0  0  0  0  0  0  0  0  0  0
    1.7409    4.6284   11.2718 N   0  0  0  0  0  0  0  0  0  0  0  0
    0.7320    3.6353   11.5270 C   0  0  0  0  0  0  0  0  0  0  0  0
    0.5656    3.0061   10.6520 H   0  0  0  0  0  0  0  0  0  0  0  0
   -0.2007    4.1316   11.7857 H   0  0  0  0  0  0  0  0  0  0  0  0
    1.0480    3.0104   12.3655 H   0  0  0  0  0  0  0  0  0  0  0  0
    5.0412    5.8862   11.2195 C   0  0  0  0  0  0  0  0  0  0  0  0
    5.2596    6.9489   11.1043 H   0  0  0  0  0  0  0  0  0  0  0  0
    5.5488    5.2827   10.4351 H   0  0  0  0  0  0  0  0  0  0  0  0
    5.2227    4.1877   12.9659 C   0  0  1  0  0  3  0  0  0  0  0  0
    5.4884    5.4251   12.5086 N   0  0  0  0  0  0  0  0  0  0  0  0
    6.1463    6.1458   13.4616 C   0  0  0  0  0  0  0  0  0  0  0  0
    6.4631    7.1565   13.3088 H   0  0  0  0  0  0  0  0  0  0  0  0
    6.2823    5.3274   14.5348 C   0  0  0  0  0  0  0  0  0  0  0  0
    6.7316    5.5079   15.4897 H   0  0  0  0  0  0  0  0  0  0  0  0
    5.7012    4.1334   14.2144 N   0  0  0  0  0  0  0  0  0  0  0  0
    5.5800    3.0294   15.1285 C   0  0  0  0  0  0  0  0  0  0  0  0
    4.6005    2.5631   14.9995 H   0  0  0  0  0  0  0  0  0  0  0  0
    5.6658    3.3986   16.1481 H   0  0  0  0  0  0  0  0  0  0  0  0
    6.3586    2.2856   14.9562 H   0  0  0  0  0  0  0  0  0  0  0  0
    5.8934    3.3428    9.6429 Cl  0  0  0  0  0  0  0  0  0  0  0  0
    2.5195    2.4320   14.0312 Cl  0  0  0  0  0  0  0  0  0  0  0  0
  1 16  1  0  0  0  0
  1 41  1  0  0  0  0
  1 53  1  0  0  0  0
  2  8  1  6  0  0  0
  2  3  1  0  0  0  0
  2  1  1  0  0  0  0
  3 13  1  0  0  0  0
  4  5  1  0  0  0  0
  4  3  1  0  0  0  0
  6  8  1  0  0  0  0
  6  4  2  0  0  0  0
  7  6  1  0  0  0  0
  9 12  1  0  0  0  0
  9 10  1  0  0  0  0
  9  8  1  0  0  0  0
 11  9  1  0  0  0  0
 13 17  1  0  0  0  0
 13 15  1  0  0  0  0
 13 14  1  0  0  0  0
 16 22  1  6  0  0  0
 16 17  1  0  0  0  0
 17 18  1  0  0  0  0
 18 19  1  0  0  0  0
 20 18  2  0  0  0  0
 20 21  1  0  0  0  0
 22 20  1  0  0  0  0
 23 22  1  0  0  0  0
 23 26  1  0  0  0  0
 24 23  1  0  0  0  0
 25 23  1  0  0  0  0
 27 28  1  1  0  0  0
 27  1  1  0  0  0  0
 28 38  1  0  0  0  0
 29 31  2  0  0  0  0
 29 28  1  0  0  0  0
 30 29  1  0  0  0  0
 31 33  1  0  0  0  0
 32 31  1  0  0  0  0
 33 27  1  0  0  0  0
 33 34  1  0  0  0  0
 34 36  1  0  0  0  0
 34 37  1  0  0  0  0
 35 34  1  0  0  0  0
 38 42  1  0  0  0  0
 39 38  1  0  0  0  0
 40 38  1  0  0  0  0
 41 42  1  1  0  0  0
 41 47  1  0  0  0  0
 42 43  1  0  0  0  0
 43 45  2  0  0  0  0
 44 43  1  0  0  0  0
 45 46  1  0  0  0  0
 47 45  1  0  0  0  0
 47 48  1  0  0  0  0
 48 50  1  0  0  0  0
 49 48  1  0  0  0  0
 51 48  1  0  0  0  0
 52  1  1  0  0  0  0
M  END
$$$$
