CSD_code = BAZZUY | q = 1 | S = 0 | Stoichiometry = C6H18BrPtS3(1+) | MND = 4
 OpenBabel04212202013D

 29 28  0  0  0  0  0  0  0  0999 V2000
    4.6384   21.8336    1.0422 Pt  0  0  0  0  0  0  0  0  0  0  0  0
    2.8160   22.4507    2.4503 Br  0  0  0  0  0  0  0  0  0  0  0  0
    5.4630   23.9458    1.7072 S   0  0  0  0  0  3  0  0  0  0  0  0
    6.5048   21.3342   -0.3529 S   0  0  0  0  0  3  0  0  0  0  0  0
    3.5896   19.7570    0.4541 S   0  0  0  0  0  3  0  0  0  0  0  0
    6.0961   23.5054    3.3494 C   0  0  0  0  0  0  0  0  0  0  0  0
    5.2508   23.2564    3.9854 H   0  0  0  0  0  0  0  0  0  0  0  0
    6.6059   24.3757    3.7534 H   0  0  0  0  0  0  0  0  0  0  0  0
    6.7818   22.6647    3.2824 H   0  0  0  0  0  0  0  0  0  0  0  0
    5.7660   21.0691   -1.9841 C   0  0  0  0  0  0  0  0  0  0  0  0
    5.3007   22.0001   -2.2946 H   0  0  0  0  0  0  0  0  0  0  0  0
    5.0289   20.2722   -1.9398 H   0  0  0  0  0  0  0  0  0  0  0  0
    6.5622   20.8126   -2.6779 H   0  0  0  0  0  0  0  0  0  0  0  0
    7.0415   24.3119    0.8970 C   0  0  0  0  0  0  0  0  0  0  0  0
    6.8536   24.4621   -0.1614 H   0  0  0  0  0  0  0  0  0  0  0  0
    7.7545   23.5066    1.0421 H   0  0  0  0  0  0  0  0  0  0  0  0
    7.4219   25.2345    1.3283 H   0  0  0  0  0  0  0  0  0  0  0  0
    7.0190   19.6393    0.0289 C   0  0  0  0  0  0  0  0  0  0  0  0
    7.4059   19.6271    1.0433 H   0  0  0  0  0  0  0  0  0  0  0  0
    7.8114   19.3674   -0.6634 H   0  0  0  0  0  0  0  0  0  0  0  0
    6.1805   18.9553   -0.0645 H   0  0  0  0  0  0  0  0  0  0  0  0
    1.9331   20.2181   -0.1087 C   0  0  0  0  0  0  0  0  0  0  0  0
    2.0360   20.8551   -0.9826 H   0  0  0  0  0  0  0  0  0  0  0  0
    1.4054   20.7467    0.6801 H   0  0  0  0  0  0  0  0  0  0  0  0
    1.4088   19.3052   -0.3785 H   0  0  0  0  0  0  0  0  0  0  0  0
    3.1798   18.9576    2.0243 C   0  0  0  0  0  0  0  0  0  0  0  0
    4.1089   18.7094    2.5291 H   0  0  0  0  0  0  0  0  0  0  0  0
    2.6287   18.0483    1.8003 H   0  0  0  0  0  0  0  0  0  0  0  0
    2.5850   19.6283    2.6385 H   0  0  0  0  0  0  0  0  0  0  0  0
  1  3  1  0  0  0  0
  1  2  1  0  0  0  0
  3  6  1  0  0  0  0
  4 18  1  0  0  0  0
  4  1  1  0  0  0  0
  5  1  1  0  0  0  0
  5 26  1  0  0  0  0
  6  8  1  0  0  0  0
  6  7  1  0  0  0  0
  9  6  1  0  0  0  0
 10 12  1  0  0  0  0
 10  4  1  0  0  0  0
 11 10  1  0  0  0  0
 13 10  1  0  0  0  0
 14 16  1  0  0  0  0
 14 17  1  0  0  0  0
 14  3  1  0  0  0  0
 15 14  1  0  0  0  0
 18 19  1  0  0  0  0
 20 18  1  0  0  0  0
 21 18  1  0  0  0  0
 22  5  1  0  0  0  0
 22 24  1  0  0  0  0
 23 22  1  0  0  0  0
 25 22  1  0  0  0  0
 26 27  1  0  0  0  0
 26 29  1  0  0  0  0
 28 26  1  0  0  0  0
M  END
$$$$
