CSD_code = BCPERH | q = 0 | S = 0 | Stoichiometry = C11H16ClN2O3Re | MND = 6
 OpenBabel04212202013D

 34 34  0  0  0  0  0  0  0  0999 V2000
    2.3939    1.9322    0.7384 Re  0  0  0  0  0  0  0  0  0  0  0  0
    4.6331    1.6824    1.4972 Cl  0  0  0  0  0  0  0  0  0  0  0  0
    2.3234    3.6756    1.6097 C   0  0  0  0  0  2  0  0  0  0  0  0
    2.3334    4.6684    2.1801 O   0  0  0  0  0  1  0  0  0  0  0  0
    1.7579    1.2018    2.4311 C   0  0  0  0  0  2  0  0  0  0  0  0
    1.4451    0.8098    3.4607 O   0  0  0  0  0  1  0  0  0  0  0  0
    0.5970    2.0990    0.0175 C   0  0  0  0  0  2  0  0  0  0  0  0
   -0.4534    2.1849   -0.4403 O   0  0  0  0  0  1  0  0  0  0  0  0
    3.3659    2.5390   -1.0982 N   0  0  0  0  0  0  0  0  0  0  0  0
    3.8766    1.5473   -1.7321 C   0  0  0  0  0  0  0  0  0  0  0  0
    3.6450    3.8708   -1.5867 C   0  0  0  0  0  0  0  0  0  0  0  0
    2.3523    4.6814   -1.6631 C   0  0  0  0  0  0  0  0  0  0  0  0
    4.6721    4.5426   -0.6718 C   0  0  0  0  0  0  0  0  0  0  0  0
    2.8120    0.0644   -0.2713 N   0  0  0  0  0  0  0  0  0  0  0  0
    3.5799    0.2185   -1.2876 C   0  0  0  0  0  0  0  0  0  0  0  0
    2.4917   -1.2851    0.1366 C   0  0  0  0  0  0  0  0  0  0  0  0
    0.9870   -1.4187    0.3646 C   0  0  0  0  0  0  0  0  0  0  0  0
    3.2813   -1.6352    1.4006 C   0  0  0  0  0  0  0  0  0  0  0  0
    4.5026    1.6818   -2.6133 H   0  0  0  0  0  0  0  0  0  0  0  0
    4.0781    3.7993   -2.5981 H   0  0  0  0  0  0  0  0  0  0  0  0
    4.2870    4.6193    0.3414 H   0  0  0  0  0  0  0  0  0  0  0  0
    5.5917    3.9616   -0.6428 H   0  0  0  0  0  0  0  0  0  0  0  0
    4.8951    5.5399   -1.0413 H   0  0  0  0  0  0  0  0  0  0  0  0
    1.9100    4.7891   -0.6749 H   0  0  0  0  0  0  0  0  0  0  0  0
    1.6314    4.1884   -2.3121 H   0  0  0  0  0  0  0  0  0  0  0  0
    2.5651    5.6688   -2.0633 H   0  0  0  0  0  0  0  0  0  0  0  0
    3.9880   -0.6265   -1.8405 H   0  0  0  0  0  0  0  0  0  0  0  0
    3.0249   -0.9569    2.2098 H   0  0  0  0  0  0  0  0  0  0  0  0
    3.0514   -2.6524    1.7061 H   0  0  0  0  0  0  0  0  0  0  0  0
    4.3504   -1.5539    1.2148 H   0  0  0  0  0  0  0  0  0  0  0  0
    0.4404   -1.1601   -0.5400 H   0  0  0  0  0  0  0  0  0  0  0  0
    0.7496   -2.4439    0.6354 H   0  0  0  0  0  0  0  0  0  0  0  0
    0.6618   -0.7580    1.1654 H   0  0  0  0  0  0  0  0  0  0  0  0
    2.7920   -1.9831   -0.6622 H   0  0  0  0  0  0  0  0  0  0  0  0
  1  2  1  0  0  0  0
  1  3  1  0  0  0  0
  1  5  1  0  0  0  0
  3  4  1  0  0  0  0
  5  6  1  0  0  0  0
  7  1  1  0  0  0  0
  8  7  1  0  0  0  0
  9  1  1  0  0  0  0
 10 15  2  0  0  0  0
 10  9  1  0  0  0  0
 11  9  1  0  0  0  0
 11 13  1  0  0  0  0
 12 11  1  0  0  0  0
 12 24  1  0  0  0  0
 13 22  1  0  0  0  0
 13 21  1  0  0  0  0
 14 16  1  0  0  0  0
 14  1  1  0  0  0  0
 15 14  1  0  0  0  0
 16 17  1  0  0  0  0
 16 18  1  0  0  0  0
 17 32  1  0  0  0  0
 17 33  1  0  0  0  0
 18 29  1  0  0  0  0
 18 28  1  0  0  0  0
 19 10  1  0  0  0  0
 20 11  1  0  0  0  0
 23 13  1  0  0  0  0
 25 12  1  0  0  0  0
 26 12  1  0  0  0  0
 27 15  1  0  0  0  0
 30 18  1  0  0  0  0
 31 17  1  0  0  0  0
 34 16  1  0  0  0  0
M  END
$$$$
