CSD_code = BCPZRB | q = 0 | S = 0 | Stoichiometry = C23H45ClSi4Zr | MND = 12
 OpenBabel04212202013D

 74 75  0  0  1  0  0  0  0  0999 V2000
    0.9516    1.4169    4.9477 Zr  0  0  1  0  0  0  0  0  0  0  0  0
    1.6552    3.6429    4.6062 Cl  0  0  0  0  0  0  0  0  0  0  0  0
   -1.6053    3.6166    5.7729 Si  0  0  0  0  0  0  0  0  0  0  0  0
   -2.1341    0.5163    6.3946 Si  0  0  0  0  0  0  0  0  0  0  0  0
   -0.8688    1.9012    6.1472 C   0  0  0  0  0  0  0  0  0  0  0  0
   -3.3929    3.8670    6.4288 C   0  0  0  0  0  0  0  0  0  0  0  0
   -1.7226    4.0879    3.9153 C   0  0  0  0  0  0  0  0  0  0  0  0
   -0.6252    5.0095    6.6609 C   0  0  0  0  0  0  0  0  0  0  0  0
   -3.4823    0.3645    5.0333 C   0  0  0  0  0  0  0  0  0  0  0  0
   -3.0854    0.6622    8.0581 C   0  0  0  0  0  0  0  0  0  0  0  0
   -1.3248   -1.2296    6.5162 C   0  0  0  0  0  0  0  0  0  0  0  0
    0.3063    1.7364    2.5873 C   0  0  2  0  0  0  0  0  0  0  0  0
   -0.6615    0.8552    3.1003 C   0  0  0  0  0  3  0  0  0  0  0  0
   -0.0184   -0.3788    3.3707 C   0  0  0  0  0  0  0  0  0  0  0  0
    1.3342   -0.2462    3.0228 C   0  0  0  0  0  0  0  0  0  0  0  0
    1.5645    1.0755    2.5576 C   0  0  1  0  0  3  0  0  0  0  0  0
    3.0998    1.7749    1.7235 Si  0  0  0  0  0  0  0  0  0  0  0  0
    4.4903    2.4090    2.8760 C   0  0  0  0  0  0  0  0  0  0  0  0
    3.8377    0.3921    0.6246 C   0  0  0  0  0  0  0  0  0  0  0  0
    2.5480    3.2466    0.6391 C   0  0  0  0  0  0  0  0  0  0  0  0
    3.2781    1.3927    5.9683 C   0  0  0  0  0  0  0  0  0  0  0  0
    3.1849    0.1536    5.3183 C   0  0  0  0  0  0  0  0  0  0  0  0
    2.1745   -0.5990    5.9586 C   0  0  0  0  0  0  0  0  0  0  0  0
    1.6479    0.1834    7.0025 C   0  0  0  0  0  0  0  0  0  0  0  0
    2.3226    1.4386    7.0185 C   0  0  2  0  0  0  0  0  0  0  0  0
    2.4167    2.6408    8.4597 Si  0  0  0  0  0  0  0  0  0  0  0  0
    0.7617    2.7933    9.4102 C   0  0  0  0  0  0  0  0  0  0  0  0
    3.6834    1.8989    9.6940 C   0  0  0  0  0  0  0  0  0  0  0  0
    3.0678    4.3422    7.8869 C   0  0  0  0  0  0  0  0  0  0  0  0
   -0.3837    2.0252    7.1268 H   0  0  0  0  0  0  0  0  0  0  0  0
    0.1168    2.7132    2.1651 H   0  0  0  0  0  0  0  0  0  0  0  0
   -1.7272    1.0235    3.1198 H   0  0  0  0  0  0  0  0  0  0  0  0
   -0.5202   -1.3029    3.6237 H   0  0  0  0  0  0  0  0  0  0  0  0
    2.0514   -1.0561    2.9838 H   0  0  0  0  0  0  0  0  0  0  0  0
    4.0265    2.1522    5.7882 H   0  0  0  0  0  0  0  0  0  0  0  0
    3.8564   -0.2156    4.5535 H   0  0  0  0  0  0  0  0  0  0  0  0
    1.9514   -1.6419    5.7676 H   0  0  0  0  0  0  0  0  0  0  0  0
    0.9648   -0.1598    7.7679 H   0  0  0  0  0  0  0  0  0  0  0  0
   -4.0934    3.1664    5.9906 H   0  0  0  0  0  0  0  0  0  0  0  0
   -3.7483    4.8679    6.2061 H   0  0  0  0  0  0  0  0  0  0  0  0
   -3.4346    3.7418    7.5047 H   0  0  0  0  0  0  0  0  0  0  0  0
   -2.1694    3.3102    3.3047 H   0  0  0  0  0  0  0  0  0  0  0  0
   -2.3409    4.9741    3.8048 H   0  0  0  0  0  0  0  0  0  0  0  0
   -0.7450    4.3280    3.5112 H   0  0  0  0  0  0  0  0  0  0  0  0
    0.4315    4.7813    6.7372 H   0  0  0  0  0  0  0  0  0  0  0  0
   -0.7155    5.9434    6.1157 H   0  0  0  0  0  0  0  0  0  0  0  0
   -1.0055    5.1850    7.6627 H   0  0  0  0  0  0  0  0  0  0  0  0
   -2.4155    0.8959    8.8802 H   0  0  0  0  0  0  0  0  0  0  0  0
   -3.5937   -0.2650    8.3059 H   0  0  0  0  0  0  0  0  0  0  0  0
   -3.8339    1.4444    8.0189 H   0  0  0  0  0  0  0  0  0  0  0  0
   -3.2159   -0.3543    4.2650 H   0  0  0  0  0  0  0  0  0  0  0  0
   -4.4160    0.0287    5.4738 H   0  0  0  0  0  0  0  0  0  0  0  0
   -3.6793    1.3159    4.5515 H   0  0  0  0  0  0  0  0  0  0  0  0
   -1.0210   -1.4540    7.5339 H   0  0  0  0  0  0  0  0  0  0  0  0
   -2.0404   -1.9945    6.2291 H   0  0  0  0  0  0  0  0  0  0  0  0
   -0.4525   -1.3380    5.8774 H   0  0  0  0  0  0  0  0  0  0  0  0
    5.2605    2.8944    2.2832 H   0  0  0  0  0  0  0  0  0  0  0  0
    4.1095    3.1448    3.5786 H   0  0  0  0  0  0  0  0  0  0  0  0
    4.9728    1.6140    3.4367 H   0  0  0  0  0  0  0  0  0  0  0  0
    4.2018   -0.4443    1.2128 H   0  0  0  0  0  0  0  0  0  0  0  0
    4.6743    0.7705    0.0472 H   0  0  0  0  0  0  0  0  0  0  0  0
    3.1031    0.0059   -0.0741 H   0  0  0  0  0  0  0  0  0  0  0  0
    3.3752    3.6195    0.0441 H   0  0  0  0  0  0  0  0  0  0  0  0
    1.7502    2.9715   -0.0436 H   0  0  0  0  0  0  0  0  0  0  0  0
    2.1944    4.0667    1.2565 H   0  0  0  0  0  0  0  0  0  0  0  0
    0.9387    3.2582   10.3752 H   0  0  0  0  0  0  0  0  0  0  0  0
    0.0307    3.3995    8.8866 H   0  0  0  0  0  0  0  0  0  0  0  0
    0.3167    1.8206    9.6002 H   0  0  0  0  0  0  0  0  0  0  0  0
    4.6419    1.7162    9.2182 H   0  0  0  0  0  0  0  0  0  0  0  0
    3.8533    2.5704   10.5296 H   0  0  0  0  0  0  0  0  0  0  0  0
    3.3362    0.9531   10.0982 H   0  0  0  0  0  0  0  0  0  0  0  0
    4.1528    4.3690    7.9155 H   0  0  0  0  0  0  0  0  0  0  0  0
    2.7071    5.1381    8.5302 H   0  0  0  0  0  0  0  0  0  0  0  0
    2.7633    4.5733    6.8706 H   0  0  0  0  0  0  0  0  0  0  0  0
  1  2  1  6  0  0  0
  1  5  1  0  0  0  0
  1 25  1  0  0  0  0
  3  5  1  0  0  0  0
  3  6  1  0  0  0  0
  3  8  1  0  0  0  0
  4 11  1  0  0  0  0
  4 10  1  0  0  0  0
  5  4  1  0  0  0  0
  5 30  1  0  0  0  0
  6 41  1  0  0  0  0
  7  3  1  0  0  0  0
  8 45  1  0  0  0  0
  8 47  1  0  0  0  0
  9 52  1  0  0  0  0
  9  4  1  0  0  0  0
 10 49  1  0  0  0  0
 10 48  1  0  0  0  0
 11 54  1  0  0  0  0
 12 31  1  6  0  0  0
 12 13  1  0  0  0  0
 12  1  1  0  0  0  0
 13 32  1  0  0  0  0
 13 14  1  0  0  0  0
 14 33  1  0  0  0  0
 15 14  2  0  0  0  0
 16 17  1  6  0  0  0
 16 12  1  0  0  0  0
 16 15  1  0  0  0  0
 17 18  1  0  0  0  0
 18 59  1  0  0  0  0
 18 58  1  0  0  0  0
 19 60  1  0  0  0  0
 19 17  1  0  0  0  0
 20 65  1  0  0  0  0
 20 17  1  0  0  0  0
 21 25  1  0  0  0  0
 22 23  1  0  0  0  0
 22 21  2  0  0  0  0
 23 24  2  0  0  0  0
 24 25  1  0  0  0  0
 24 38  1  0  0  0  0
 25 26  1  1  0  0  0
 26 27  1  0  0  0  0
 26 28  1  0  0  0  0
 27 68  1  0  0  0  0
 27 66  1  0  0  0  0
 28 71  1  0  0  0  0
 28 70  1  0  0  0  0
 29 72  1  0  0  0  0
 29 26  1  0  0  0  0
 29 73  1  0  0  0  0
 34 15  1  0  0  0  0
 35 21  1  0  0  0  0
 36 22  1  0  0  0  0
 37 23  1  0  0  0  0
 39  6  1  0  0  0  0
 40  6  1  0  0  0  0
 42  7  1  0  0  0  0
 43  7  1  0  0  0  0
 44  7  1  0  0  0  0
 46  8  1  0  0  0  0
 50 10  1  0  0  0  0
 51  9  1  0  0  0  0
 53  9  1  0  0  0  0
 55 11  1  0  0  0  0
 56 11  1  0  0  0  0
 57 18  1  0  0  0  0
 61 19  1  0  0  0  0
 62 19  1  0  0  0  0
 63 20  1  0  0  0  0
 64 20  1  0  0  0  0
 67 27  1  0  0  0  0
 69 28  1  0  0  0  0
 74 29  1  0  0  0  0
M  END
$$$$
