CSD_code = BEBFUL | q = -1 | S = 0 | Stoichiometry = C18H10Cl4CoN4O2(1-) | MND = 6
 OpenBabel04212202013D

 39 44  0  0  1  0  0  0  0  0999 V2000
    1.6771   16.0523   14.1812 Co  0  0  0  0  0  0  0  0  0  0  0  0
   -0.3857   12.3362    9.0053 Cl  0  0  0  0  0  0  0  0  0  0  0  0
    2.3726   13.4497    8.0494 Cl  0  0  0  0  0  0  0  0  0  0  0  0
    2.5769   14.2934   15.1821 Cl  0  0  0  0  0  0  0  0  0  0  0  0
    0.8020   17.9189   13.3722 Cl  0  0  0  0  0  0  0  0  0  0  0  0
    0.3466   16.1680   15.5910 N   0  0  0  0  0  0  0  0  0  0  0  0
    0.4152   14.9598   13.3721 N   0  0  0  0  0  0  0  0  0  0  0  0
    2.6522   15.8215   12.6201 N   0  0  0  0  0  0  0  0  0  0  0  0
    3.2478   17.0435   14.7511 N   0  0  0  0  0  0  0  0  0  0  0  0
   -1.5376   13.7769   13.7645 O   0  0  0  0  0  0  0  0  0  0  0  0
    4.5143   16.5773   11.4676 O   0  0  0  0  0  0  0  0  0  0  0  0
    0.2573   16.9670   16.6485 C   0  0  0  0  0  3  0  0  0  0  0  0
    1.0277   17.7155   16.7619 H   0  0  0  0  0  0  0  0  0  0  0  0
   -0.7766   16.9016   17.5657 C   0  0  0  0  0  0  0  0  0  0  0  0
   -0.7853   17.5751   18.4091 H   0  0  0  0  0  0  0  0  0  0  0  0
   -1.7867   15.9686   17.3805 C   0  0  0  0  0  0  0  0  0  0  0  0
   -2.5984   15.8808   18.0881 H   0  0  0  0  0  0  0  0  0  0  0  0
   -1.7366   15.1805   16.2485 C   0  0  0  0  0  0  0  0  0  0  0  0
   -2.5007   14.4609   15.9983 H   0  0  0  0  0  0  0  0  0  0  0  0
   -0.6673   15.3144   15.3717 C   0  0  0  0  0  0  0  0  0  0  0  0
   -0.6499   14.5665   14.0742 C   0  0  0  0  0  0  0  0  0  0  0  0
    0.7739   14.5285   12.1148 C   0  0  0  0  0  0  0  0  0  0  0  0
    0.0320   13.6973   11.2860 C   0  0  0  0  0  0  0  0  0  0  0  0
   -0.9186   13.3141   11.6188 H   0  0  0  0  0  0  0  0  0  0  0  0
    0.5373   13.3711   10.0372 C   0  0  0  0  0  0  0  0  0  0  0  0
    1.7635   13.8653    9.6127 C   0  0  0  0  0  0  0  0  0  0  0  0
    2.5184   14.6933   10.4287 C   0  0  0  0  0  0  0  0  0  0  0  0
    3.4698   15.0794   10.1016 H   0  0  0  0  0  0  0  0  0  0  0  0
    2.0284   15.0273   11.6843 C   0  0  0  0  0  0  0  0  0  0  0  0
    3.7825   16.5113   12.4513 C   0  0  0  0  0  0  0  0  0  0  0  0
    4.1123   17.2069   13.7361 C   0  0  2  0  0  3  0  0  0  0  0  0
    5.3051   17.9059   13.8734 C   0  0  0  0  0  0  0  0  0  0  0  0
    5.9332   17.9985   13.0010 H   0  0  0  0  0  0  0  0  0  0  0  0
    5.6422   18.4347   15.1028 C   0  0  0  0  0  0  0  0  0  0  0  0
    6.5568   18.9931   15.2402 H   0  0  0  0  0  0  0  0  0  0  0  0
    4.7833   18.1998   16.1668 C   0  0  0  0  0  0  0  0  0  0  0  0
    5.0155   18.5508   17.1607 H   0  0  0  0  0  0  0  0  0  0  0  0
    3.6102   17.5005   15.9447 C   0  0  0  0  0  0  0  0  0  0  0  0
    2.9538   17.2783   16.7729 H   0  0  0  0  0  0  0  0  0  0  0  0
  1  9  1  0  0  0  0
  1  4  1  0  0  0  0
  1  6  1  0  0  0  0
  2 25  1  0  0  0  0
  3 26  1  0  0  0  0
  5  1  1  0  0  0  0
  6 12  1  0  0  0  0
  7 21  1  0  0  0  0
  7  1  1  0  0  0  0
  8  1  1  0  0  0  0
  9 38  1  0  0  0  0
 10 21  2  0  0  0  0
 11 30  2  0  0  0  0
 12 13  1  0  0  0  0
 12 14  1  0  0  0  0
 14 15  1  0  0  0  0
 16 14  2  0  0  0  0
 16 17  1  0  0  0  0
 18 16  1  0  0  0  0
 19 18  1  0  0  0  0
 20  6  1  0  0  0  0
 20 18  2  0  0  0  0
 21 20  1  0  0  0  0
 22  7  1  0  0  0  0
 23 24  1  0  0  0  0
 23 22  2  0  0  0  0
 25 23  1  0  0  0  0
 26 25  2  0  0  0  0
 26 27  1  0  0  0  0
 27 29  2  0  0  0  0
 28 27  1  0  0  0  0
 29 22  1  0  0  0  0
 29  8  1  0  0  0  0
 30  8  1  0  0  0  0
 31 30  1  1  0  0  0
 31 32  1  0  0  0  0
 31  9  1  0  0  0  0
 32 34  2  0  0  0  0
 33 32  1  0  0  0  0
 34 35  1  0  0  0  0
 34 36  1  0  0  0  0
 36 37  1  0  0  0  0
 38 36  2  0  0  0  0
 38 39  1  0  0  0  0
M  END
$$$$
