CSD_code = BEBGUL | q = 0 | S = 0 | Stoichiometry = C32H37Cl2N2O2PPd | MND = 4
 OpenBabel04212202013D

 77 82  0  0  1  0  0  0  0  0999 V2000
    8.8043   11.0672    3.0140 Pd  0  0  0  0  0  0  0  0  0  0  0  0
   10.1436   10.2368    1.3390 Cl  0  0  0  0  0  0  0  0  0  0  0  0
   10.4836   12.3511    3.7789 Cl  0  0  0  0  0  0  0  0  0  0  0  0
    7.3320   12.1020    4.3347 P   0  0  2  0  0  4  0  0  0  0  0  0
    7.3206    9.7423    2.5759 N   0  0  1  0  0  0  0  0  0  0  0  0
    5.3864    8.8829    1.9000 O   0  0  0  0  0  0  0  0  0  0  0  0
    7.9525   13.6699    2.4418 N   0  0  0  0  0  0  0  0  0  0  0  0
    9.0961   15.5918    2.5650 O   0  0  0  0  0  0  0  0  0  0  0  0
    5.6977   12.1627    3.5477 C   0  0  0  0  0  0  0  0  0  0  0  0
    4.8614   13.2543    3.7470 C   0  0  0  0  0  0  0  0  0  0  0  0
    5.2057   14.0719    4.3638 H   0  0  0  0  0  0  0  0  0  0  0  0
    3.6062   13.3109    3.1672 C   0  0  0  0  0  0  0  0  0  0  0  0
    2.9770   14.1734    3.3288 H   0  0  0  0  0  0  0  0  0  0  0  0
    3.1608   12.2576    2.3845 C   0  0  0  0  0  0  0  0  0  0  0  0
    2.1809   12.2907    1.9334 H   0  0  0  0  0  0  0  0  0  0  0  0
    3.9774   11.1643    2.1754 C   0  0  0  0  0  0  0  0  0  0  0  0
    3.6424   10.3449    1.5592 H   0  0  0  0  0  0  0  0  0  0  0  0
    5.2555   11.1024    2.7386 C   0  0  0  0  0  0  0  0  0  0  0  0
    6.0597    9.9216    2.4331 C   0  0  2  0  0  3  0  0  0  0  0  0
    6.3455    7.8921    1.5441 C   0  0  0  0  0  0  0  0  0  0  0  0
    6.4016    7.8434    0.4518 H   0  0  0  0  0  0  0  0  0  0  0  0
    5.9983    6.9326    1.9265 H   0  0  0  0  0  0  0  0  0  0  0  0
    7.6661    8.3850    2.1727 C   0  0  2  0  0  0  0  0  0  0  0  0
    8.4715    8.4539    1.4305 H   0  0  0  0  0  0  0  0  0  0  0  0
    8.1829    7.5109    3.3509 C   0  0  0  0  0  0  0  0  0  0  0  0
    9.4767    8.1032    3.9214 C   0  0  0  0  0  0  0  0  0  0  0  0
    9.3092    9.1030    4.3563 H   0  0  0  0  0  0  0  0  0  0  0  0
   10.2340    8.1809    3.1411 H   0  0  0  0  0  0  0  0  0  0  0  0
    9.8594    7.4566    4.7089 H   0  0  0  0  0  0  0  0  0  0  0  0
    7.1349    7.4169    4.4627 C   0  0  0  0  0  0  0  0  0  0  0  0
    7.5315    6.8430    5.2968 H   0  0  0  0  0  0  0  0  0  0  0  0
    6.2250    6.9269    4.1228 H   0  0  0  0  0  0  0  0  0  0  0  0
    6.8749    8.4083    4.8283 H   0  0  0  0  0  0  0  0  0  0  0  0
    8.5080    6.1156    2.8071 C   0  0  0  0  0  0  0  0  0  0  0  0
    9.2425    6.1846    2.0086 H   0  0  0  0  0  0  0  0  0  0  0  0
    7.6268    5.6104    2.4197 H   0  0  0  0  0  0  0  0  0  0  0  0
    8.9235    5.5016    3.6023 H   0  0  0  0  0  0  0  0  0  0  0  0
    7.4801   13.6842    5.2182 C   0  0  0  0  0  0  0  0  0  0  0  0
    7.1811   13.7972    6.5729 C   0  0  0  0  0  0  0  0  0  0  0  0
    6.8145   12.9401    7.1186 H   0  0  0  0  0  0  0  0  0  0  0  0
    7.3511   15.0020    7.2322 C   0  0  0  0  0  0  0  0  0  0  0  0
    7.1092   15.0725    8.2825 H   0  0  0  0  0  0  0  0  0  0  0  0
    7.8395   16.1107    6.5574 C   0  0  0  0  0  0  0  0  0  0  0  0
    7.9827   17.0436    7.0815 H   0  0  0  0  0  0  0  0  0  0  0  0
    8.1517   16.0157    5.2151 C   0  0  0  0  0  0  0  0  0  0  0  0
    8.5453   16.8609    4.6720 H   0  0  0  0  0  0  0  0  0  0  0  0
    7.9645   14.8127    4.5424 C   0  0  0  0  0  0  0  0  0  0  0  0
    8.3216   14.6682    3.1458 C   0  0  0  0  0  0  0  0  0  0  0  0
    9.3663   15.1236    1.2459 C   0  0  0  0  0  0  0  0  0  0  0  0
   10.4470   15.0265    1.1292 H   0  0  0  0  0  0  0  0  0  0  0  0
    8.9878   15.8671    0.5385 H   0  0  0  0  0  0  0  0  0  0  0  0
    8.6370   13.7591    1.1546 C   0  0  2  0  0  0  0  0  0  0  0  0
    9.3768   12.9386    1.1226 H   0  0  0  0  0  0  0  0  0  0  0  0
    7.6902   13.5702   -0.0461 C   0  0  0  0  0  0  0  0  0  0  0  0
    7.1493   12.1413    0.0220 C   0  0  0  0  0  0  0  0  0  0  0  0
    6.5274   12.0330    0.9073 H   0  0  0  0  0  0  0  0  0  0  0  0
    7.9721   11.4249    0.0747 H   0  0  0  0  0  0  0  0  0  0  0  0
    6.5482   11.9147   -0.8563 H   0  0  0  0  0  0  0  0  0  0  0  0
    8.4828   13.7424   -1.3431 C   0  0  0  0  0  0  0  0  0  0  0  0
    7.8399   13.5469   -2.1983 H   0  0  0  0  0  0  0  0  0  0  0  0
    9.3125   13.0403   -1.3701 H   0  0  0  0  0  0  0  0  0  0  0  0
    8.8808   14.7493   -1.4414 H   0  0  0  0  0  0  0  0  0  0  0  0
    6.5225   14.5573    0.0152 C   0  0  0  0  0  0  0  0  0  0  0  0
    5.8311   14.3662   -0.8022 H   0  0  0  0  0  0  0  0  0  0  0  0
    6.8645   15.5867   -0.0663 H   0  0  0  0  0  0  0  0  0  0  0  0
    5.9864   14.4427    0.9560 H   0  0  0  0  0  0  0  0  0  0  0  0
    7.0130   10.9706    5.7382 C   0  0  0  0  0  0  0  0  0  0  0  0
    5.7614   10.5336    6.1571 C   0  0  0  0  0  0  0  0  0  0  0  0
    4.8691   10.8939    5.6628 H   0  0  0  0  0  0  0  0  0  0  0  0
    5.6611    9.6366    7.2080 C   0  0  0  0  0  0  0  0  0  0  0  0
    4.6874    9.2957    7.5287 H   0  0  0  0  0  0  0  0  0  0  0  0
    6.8014    9.1767    7.8458 C   0  0  0  0  0  0  0  0  0  0  0  0
    6.7146    8.4762    8.6630 H   0  0  0  0  0  0  0  0  0  0  0  0
    8.0525    9.6120    7.4349 C   0  0  0  0  0  0  0  0  0  0  0  0
    8.9414    9.2531    7.9319 H   0  0  0  0  0  0  0  0  0  0  0  0
    8.1584   10.5003    6.3814 C   0  0  0  0  0  0  0  0  0  0  0  0
    9.1311   10.8537    6.0448 H   0  0  0  0  0  0  0  0  0  0  0  0
  1  3  1  0  0  0  0
  1  4  1  0  0  0  0
  2  1  1  0  0  0  0
  4 38  1  1  0  0  0
  4 67  1  0  0  0  0
  5  1  1  6  0  0  0
  7 48  2  0  0  0  0
  8 48  1  0  0  0  0
  9 10  1  0  0  0  0
  9  4  1  0  0  0  0
 10 11  1  0  0  0  0
 12 13  1  0  0  0  0
 12 10  2  0  0  0  0
 14 12  1  0  0  0  0
 15 14  1  0  0  0  0
 16 14  2  0  0  0  0
 16 18  1  0  0  0  0
 17 16  1  0  0  0  0
 18  9  2  0  0  0  0
 19  6  1  6  0  0  0
 19  5  1  0  0  0  0
 19 18  1  0  0  0  0
 20  6  1  0  0  0  0
 20 22  1  0  0  0  0
 20 23  1  0  0  0  0
 21 20  1  0  0  0  0
 23 24  1  6  0  0  0
 23  5  1  0  0  0  0
 23 25  1  0  0  0  0
 25 26  1  0  0  0  0
 25 30  1  0  0  0  0
 26 27  1  0  0  0  0
 26 29  1  0  0  0  0
 28 26  1  0  0  0  0
 30 33  1  0  0  0  0
 30 31  1  0  0  0  0
 32 30  1  0  0  0  0
 34 25  1  0  0  0  0
 34 37  1  0  0  0  0
 35 34  1  0  0  0  0
 36 34  1  0  0  0  0
 38 39  1  0  0  0  0
 39 40  1  0  0  0  0
 39 41  2  0  0  0  0
 41 42  1  0  0  0  0
 43 44  1  0  0  0  0
 43 41  1  0  0  0  0
 45 43  2  0  0  0  0
 46 45  1  0  0  0  0
 47 45  1  0  0  0  0
 47 38  2  0  0  0  0
 48 47  1  0  0  0  0
 49  8  1  0  0  0  0
 50 49  1  0  0  0  0
 51 49  1  0  0  0  0
 52 53  1  6  0  0  0
 52 49  1  0  0  0  0
 52  7  1  0  0  0  0
 54 63  1  0  0  0  0
 54 55  1  0  0  0  0
 54 52  1  0  0  0  0
 55 57  1  0  0  0  0
 55 56  1  0  0  0  0
 58 55  1  0  0  0  0
 59 54  1  0  0  0  0
 60 59  1  0  0  0  0
 61 59  1  0  0  0  0
 62 59  1  0  0  0  0
 63 66  1  0  0  0  0
 64 63  1  0  0  0  0
 65 63  1  0  0  0  0
 67 68  2  0  0  0  0
 67 76  1  0  0  0  0
 68 70  1  0  0  0  0
 69 68  1  0  0  0  0
 70 71  1  0  0  0  0
 70 72  2  0  0  0  0
 72 73  1  0  0  0  0
 74 72  1  0  0  0  0
 74 75  1  0  0  0  0
 76 74  2  0  0  0  0
 77 76  1  0  0  0  0
M  END
$$$$
