CSD_code = BEBHUO | q = 0 | S = 0 | Stoichiometry = C34H50Cl2N2PdSi2 | MND = 4
 OpenBabel04212202013D

 91 93  0  0  0  0  0  0  0  0999 V2000
    3.5626   -0.1685    9.5782 C   0  0  0  0  0  3  0  0  0  0  0  0
    2.6110    0.1785    9.9632 H   0  0  0  0  0  0  0  0  0  0  0  0
    4.0974   -1.3890    9.9501 C   0  0  0  0  0  0  0  0  0  0  0  0
    3.5728   -2.0164   10.6519 H   0  0  0  0  0  0  0  0  0  0  0  0
    5.3056   -1.7869    9.3950 C   0  0  0  0  0  0  0  0  0  0  0  0
    5.7460   -2.7367    9.6554 H   0  0  0  0  0  0  0  0  0  0  0  0
    5.9406   -0.9465    8.4975 C   0  0  0  0  0  0  0  0  0  0  0  0
    6.8816   -1.2235    8.0500 H   0  0  0  0  0  0  0  0  0  0  0  0
    5.3447    0.2701    8.1710 C   0  0  0  0  0  0  0  0  0  0  0  0
    5.9892    1.2100    7.2328 C   0  0  0  0  0  0  0  0  0  0  0  0
    6.1232    2.6271    7.6270 C   0  0  0  0  0  0  0  0  0  0  0  0
    7.3452    3.2896    7.5300 C   0  0  0  0  0  0  0  0  0  0  0  0
    8.2118    2.7690    7.1550 H   0  0  0  0  0  0  0  0  0  0  0  0
    7.4241    4.6162    7.9161 C   0  0  0  0  0  0  0  0  0  0  0  0
    8.3586    5.1502    7.8406 H   0  0  0  0  0  0  0  0  0  0  0  0
    6.2843    5.2450    8.3978 C   0  0  0  0  0  0  0  0  0  0  0  0
    6.3057    6.2775    8.7058 H   0  0  0  0  0  0  0  0  0  0  0  0
    5.1050    4.5253    8.4684 C   0  0  0  0  0  0  0  0  0  0  0  0
    4.1822    4.9749    8.8155 H   0  0  0  0  0  0  0  0  0  0  0  0
    6.5129    0.7693    6.0536 C   0  0  0  0  0  3  0  0  0  0  0  0
    6.4237   -0.5606    5.5844 C   0  0  0  0  0  0  0  0  0  0  0  0
    6.3973   -1.6553    5.0682 C   0  0  0  0  0  0  0  0  0  0  0  0
    5.5100   -4.6065    5.1991 C   0  0  0  0  0  0  0  0  0  0  0  0
    4.4814   -4.6238    4.8251 H   0  0  0  0  0  0  0  0  0  0  0  0
    5.4383   -4.2459    6.6816 C   0  0  0  0  0  0  0  0  0  0  0  0
    4.8633   -4.9932    7.2272 H   0  0  0  0  0  0  0  0  0  0  0  0
    4.9609   -3.2786    6.8170 H   0  0  0  0  0  0  0  0  0  0  0  0
    6.4341   -4.1988    7.1166 H   0  0  0  0  0  0  0  0  0  0  0  0
    6.0822   -6.0130    5.0259 C   0  0  0  0  0  0  0  0  0  0  0  0
    6.1184   -6.2966    3.9767 H   0  0  0  0  0  0  0  0  0  0  0  0
    5.4658   -6.7412    5.5522 H   0  0  0  0  0  0  0  0  0  0  0  0
    7.0904   -6.0731    5.4297 H   0  0  0  0  0  0  0  0  0  0  0  0
    8.3589   -3.6471    4.0371 C   0  0  0  0  0  0  0  0  0  0  0  0
    8.5082   -4.6459    3.6155 H   0  0  0  0  0  0  0  0  0  0  0  0
    9.0401   -3.6127    5.4033 C   0  0  0  0  0  0  0  0  0  0  0  0
    8.9194   -2.6318    5.8583 H   0  0  0  0  0  0  0  0  0  0  0  0
   10.1062   -3.8147    5.3054 H   0  0  0  0  0  0  0  0  0  0  0  0
    8.6165   -4.3556    6.0742 H   0  0  0  0  0  0  0  0  0  0  0  0
    9.0341   -2.6414    3.1065 C   0  0  0  0  0  0  0  0  0  0  0  0
    8.6277   -2.7041    2.1008 H   0  0  0  0  0  0  0  0  0  0  0  0
   10.1053   -2.8320    3.0521 H   0  0  0  0  0  0  0  0  0  0  0  0
    8.8851   -1.6272    3.4717 H   0  0  0  0  0  0  0  0  0  0  0  0
    5.6751   -2.9847    2.4673 C   0  0  0  0  0  0  0  0  0  0  0  0
    6.2701   -2.2281    1.9468 H   0  0  0  0  0  0  0  0  0  0  0  0
    5.6631   -4.2457    1.6064 C   0  0  0  0  0  0  0  0  0  0  0  0
    5.2547   -4.0299    0.6197 H   0  0  0  0  0  0  0  0  0  0  0  0
    5.0435   -5.0151    2.0625 H   0  0  0  0  0  0  0  0  0  0  0  0
    6.6682   -4.6424    1.4773 H   0  0  0  0  0  0  0  0  0  0  0  0
    4.2608   -2.4288    2.6088 C   0  0  0  0  0  0  0  0  0  0  0  0
    3.6100   -3.1444    3.1058 H   0  0  0  0  0  0  0  0  0  0  0  0
    3.8363   -2.2122    1.6297 H   0  0  0  0  0  0  0  0  0  0  0  0
    4.2641   -1.5110    3.1913 H   0  0  0  0  0  0  0  0  0  0  0  0
    7.1325    1.6061    5.0980 C   0  0  0  0  0  0  0  0  0  0  0  0
    7.6636    2.2298    4.2069 C   0  0  0  0  0  0  0  0  0  0  0  0
   10.2583    2.5130    2.7435 C   0  0  0  0  0  0  0  0  0  0  0  0
   10.2601    1.4293    2.9067 H   0  0  0  0  0  0  0  0  0  0  0  0
   11.0363    3.1394    3.8973 C   0  0  0  0  0  0  0  0  0  0  0  0
   11.1297    4.2142    3.7615 H   0  0  0  0  0  0  0  0  0  0  0  0
   12.0411    2.7216    3.9526 H   0  0  0  0  0  0  0  0  0  0  0  0
   10.5354    2.9528    4.8444 H   0  0  0  0  0  0  0  0  0  0  0  0
   10.9752    2.7762    1.4209 C   0  0  0  0  0  0  0  0  0  0  0  0
   10.4682    2.2787    0.5978 H   0  0  0  0  0  0  0  0  0  0  0  0
   11.9977    2.4017    1.4634 H   0  0  0  0  0  0  0  0  0  0  0  0
   11.0172    3.8405    1.2038 H   0  0  0  0  0  0  0  0  0  0  0  0
    8.0521    4.9392    2.8879 C   0  0  0  0  0  0  0  0  0  0  0  0
    7.0039    5.0911    2.6117 H   0  0  0  0  0  0  0  0  0  0  0  0
    8.1998    5.4279    4.3274 C   0  0  0  0  0  0  0  0  0  0  0  0
    7.9329    6.4817    4.3978 H   0  0  0  0  0  0  0  0  0  0  0  0
    9.2230    5.3139    4.6764 H   0  0  0  0  0  0  0  0  0  0  0  0
    7.5462    4.8650    4.9894 H   0  0  0  0  0  0  0  0  0  0  0  0
    8.9003    5.7932    1.9479 C   0  0  0  0  0  0  0  0  0  0  0  0
    8.7987    5.4598    0.9173 H   0  0  0  0  0  0  0  0  0  0  0  0
    9.9511    5.7447    2.2252 H   0  0  0  0  0  0  0  0  0  0  0  0
    8.5908    6.8367    1.9982 H   0  0  0  0  0  0  0  0  0  0  0  0
    7.5095    2.2744    1.2175 C   0  0  0  0  0  0  0  0  0  0  0  0
    7.9559    2.6404    0.2869 H   0  0  0  0  0  0  0  0  0  0  0  0
    7.6507    0.7534    1.2385 C   0  0  0  0  0  0  0  0  0  0  0  0
    7.1418    0.3127    0.3820 H   0  0  0  0  0  0  0  0  0  0  0  0
    7.2067    0.3469    2.1449 H   0  0  0  0  0  0  0  0  0  0  0  0
    8.6946    0.4518    1.2049 H   0  0  0  0  0  0  0  0  0  0  0  0
    6.0295    2.6478    1.1998 C   0  0  0  0  0  0  0  0  0  0  0  0
    5.5460    2.3275    2.1197 H   0  0  0  0  0  0  0  0  0  0  0  0
    5.5249    2.1640    0.3645 H   0  0  0  0  0  0  0  0  0  0  0  0
    5.8946    3.7212    1.0971 H   0  0  0  0  0  0  0  0  0  0  0  0
    4.1740    0.6355    8.7126 N   0  0  0  0  0  0  0  0  0  0  0  0
    5.0321    3.2511    8.0927 N   0  0  0  0  0  0  0  0  0  0  0  0
    6.4750   -3.2888    4.1840 Si  0  0  0  0  0  0  0  0  0  0  0  0
    8.4113    3.0592    2.7193 Si  0  0  0  0  0  0  0  0  0  0  0  0
    1.5129    1.0069    7.4495 Cl  0  0  0  0  0  0  0  0  0  0  0  0
    2.4836    3.9701    6.7422 Cl  0  0  0  0  0  0  0  0  0  0  0  0
    3.3325    2.2235    7.8163 Pd  0  0  0  0  0  0  0  0  0  0  0  0
  1  3  1  0  0  0  0
  1  2  1  0  0  0  0
  3  4  1  0  0  0  0
  5  6  1  0  0  0  0
  5  3  2  0  0  0  0
  7  5  1  0  0  0  0
  8  7  1  0  0  0  0
  9  7  2  0  0  0  0
  9 85  1  0  0  0  0
 10 11  2  0  0  0  0
 10  9  1  0  0  0  0
 11 86  1  0  0  0  0
 12 11  1  0  0  0  0
 12 14  2  0  0  0  0
 13 12  1  0  0  0  0
 14 16  1  0  0  0  0
 15 14  1  0  0  0  0
 16 18  2  0  0  0  0
 16 17  1  0  0  0  0
 18 19  1  0  0  0  0
 20 10  1  0  0  0  0
 21 20  1  0  0  0  0
 22 21  3  0  0  0  0
 23 25  1  0  0  0  0
 24 23  1  0  0  0  0
 25 27  1  0  0  0  0
 25 28  1  0  0  0  0
 25 26  1  0  0  0  0
 29 23  1  0  0  0  0
 29 32  1  0  0  0  0
 29 31  1  0  0  0  0
 30 29  1  0  0  0  0
 33 87  1  0  0  0  0
 33 35  1  0  0  0  0
 34 33  1  0  0  0  0
 35 36  1  0  0  0  0
 35 38  1  0  0  0  0
 37 35  1  0  0  0  0
 39 42  1  0  0  0  0
 39 33  1  0  0  0  0
 40 39  1  0  0  0  0
 41 39  1  0  0  0  0
 43 49  1  0  0  0  0
 43 87  1  0  0  0  0
 44 43  1  0  0  0  0
 45 47  1  0  0  0  0
 45 43  1  0  0  0  0
 46 45  1  0  0  0  0
 48 45  1  0  0  0  0
 49 50  1  0  0  0  0
 49 52  1  0  0  0  0
 51 49  1  0  0  0  0
 53 20  1  0  0  0  0
 54 53  3  0  0  0  0
 55 56  1  0  0  0  0
 55 57  1  0  0  0  0
 57 59  1  0  0  0  0
 57 60  1  0  0  0  0
 58 57  1  0  0  0  0
 61 63  1  0  0  0  0
 61 55  1  0  0  0  0
 62 61  1  0  0  0  0
 64 61  1  0  0  0  0
 65 67  1  0  0  0  0
 66 65  1  0  0  0  0
 67 68  1  0  0  0  0
 67 69  1  0  0  0  0
 67 70  1  0  0  0  0
 71 74  1  0  0  0  0
 71 73  1  0  0  0  0
 71 65  1  0  0  0  0
 72 71  1  0  0  0  0
 75 77  1  0  0  0  0
 75 88  1  0  0  0  0
 76 75  1  0  0  0  0
 77 79  1  0  0  0  0
 78 77  1  0  0  0  0
 80 77  1  0  0  0  0
 81 75  1  0  0  0  0
 81 82  1  0  0  0  0
 83 81  1  0  0  0  0
 84 81  1  0  0  0  0
 85  1  1  0  0  0  0
 86 18  1  0  0  0  0
 87 22  1  0  0  0  0
 87 23  1  0  0  0  0
 88 55  1  0  0  0  0
 88 65  1  0  0  0  0
 88 54  1  0  0  0  0
 89 91  1  0  0  0  0
 90 91  1  0  0  0  0
 91 86  1  0  0  0  0
 91 85  1  0  0  0  0
M  END
$$$$
