CSD_code = BEDBIX | q = 0 | S = 0 | Stoichiometry = C30H23Cl2N2PPd | MND = 4
 OpenBabel04212202013D

 59 65  0  0  0  0  0  0  0  0999 V2000
    2.2938    8.3468   11.0084 C   0  0  0  0  0  0  0  0  0  0  0  0
    3.5088   10.1446   10.4406 C   0  0  0  0  0  0  0  0  0  0  0  0
    4.4338   11.0438    9.9347 C   0  0  0  0  0  0  0  0  0  0  0  0
    4.4734   12.2985   10.5139 C   0  0  0  0  0  0  0  0  0  0  0  0
    3.6241   12.6482   11.5615 C   0  0  0  0  0  0  0  0  0  0  0  0
    2.7091   11.7518   12.0807 C   0  0  0  0  0  0  0  0  0  0  0  0
    2.6678   10.4888   11.5112 C   0  0  0  0  0  0  0  0  0  0  0  0
    0.9855    9.2744   12.8909 C   0  0  0  0  0  0  0  0  0  0  0  0
    3.9507    8.0357    9.2211 C   0  0  0  0  0  0  0  0  0  0  0  0
    4.0450    8.4450    7.8685 C   0  0  0  0  0  0  0  0  0  0  0  0
    3.3256    9.5427    7.3455 C   0  0  0  0  0  0  0  0  0  0  0  0
    3.4479    9.8920    6.0300 C   0  0  0  0  0  0  0  0  0  0  0  0
    4.2939    9.1696    5.1745 C   0  0  0  0  0  0  0  0  0  0  0  0
    4.9818    8.0864    5.6443 C   0  0  0  0  0  0  0  0  0  0  0  0
    4.8665    7.6851    6.9913 C   0  0  0  0  0  0  0  0  0  0  0  0
    5.5270    6.5393    7.4813 C   0  0  0  0  0  0  0  0  0  0  0  0
    5.3638    6.1309    8.7739 C   0  0  0  0  0  0  0  0  0  0  0  0
    4.5759    6.8808    9.6666 C   0  0  0  0  0  0  0  0  0  0  0  0
    5.2740    4.8931   11.6222 C   0  0  0  0  0  0  0  0  0  0  0  0
    4.8658    3.6899   11.0483 C   0  0  0  0  0  0  0  0  0  0  0  0
    5.6300    2.5522   11.2253 C   0  0  0  0  0  0  0  0  0  0  0  0
    6.7919    2.6099   11.9797 C   0  0  0  0  0  0  0  0  0  0  0  0
    7.1897    3.8034   12.5606 C   0  0  0  0  0  0  0  0  0  0  0  0
    6.4325    4.9487   12.3886 C   0  0  0  0  0  0  0  0  0  0  0  0
    4.8639    7.6685   12.3884 C   0  0  0  0  0  0  0  0  0  0  0  0
    5.9293    8.4768   12.0104 C   0  0  0  0  0  0  0  0  0  0  0  0
    6.2848    9.5571   12.7991 C   0  0  0  0  0  0  0  0  0  0  0  0
    5.5875    9.8280   13.9649 C   0  0  0  0  0  0  0  0  0  0  0  0
    4.5338    9.0147   14.3536 C   0  0  0  0  0  0  0  0  0  0  0  0
    4.1672    7.9413   13.5634 C   0  0  0  0  0  0  0  0  0  0  0  0
    1.9408    9.3613   11.8173 N   0  0  0  0  0  0  0  0  0  0  0  0
    3.2333    8.8217   10.1491 N   0  0  0  0  0  0  0  0  0  0  0  0
    1.9523    6.4311   11.4015 Pd  0  0  0  0  0  0  0  0  0  0  0  0
    1.7252    4.2904   12.0323 Cl  0  0  0  0  0  0  0  0  0  0  0  0
    4.1955    6.3208   11.3597 P   0  0  0  0  0  4  0  0  0  0  0  0
   -0.2841    6.6661   11.1607 Cl  0  0  0  0  0  0  0  0  0  0  0  0
    5.0957   10.7752    9.1268 H   0  0  0  0  0  0  0  0  0  0  0  0
    5.1813   13.0252   10.1463 H   0  0  0  0  0  0  0  0  0  0  0  0
    3.6885   13.6404   11.9805 H   0  0  0  0  0  0  0  0  0  0  0  0
    2.0601   12.0205   12.8985 H   0  0  0  0  0  0  0  0  0  0  0  0
    0.1152    9.8960   12.6742 H   0  0  0  0  0  0  0  0  0  0  0  0
    1.4470    9.6073   13.8223 H   0  0  0  0  0  0  0  0  0  0  0  0
    0.6558    8.2301   12.9833 H   0  0  0  0  0  0  0  0  0  0  0  0
    2.6566   10.0939    7.9883 H   0  0  0  0  0  0  0  0  0  0  0  0
    2.8857   10.7268    5.6394 H   0  0  0  0  0  0  0  0  0  0  0  0
    4.3833    9.4674    4.1407 H   0  0  0  0  0  0  0  0  0  0  0  0
    5.6174    7.5100    4.9881 H   0  0  0  0  0  0  0  0  0  0  0  0
    6.1520    5.9736    6.8059 H   0  0  0  0  0  0  0  0  0  0  0  0
    5.8495    5.2350    9.1329 H   0  0  0  0  0  0  0  0  0  0  0  0
    3.9377    3.6587   10.4907 H   0  0  0  0  0  0  0  0  0  0  0  0
    5.3149    1.6180   10.7856 H   0  0  0  0  0  0  0  0  0  0  0  0
    7.3851    1.7190   12.1243 H   0  0  0  0  0  0  0  0  0  0  0  0
    8.0908    3.8413   13.1552 H   0  0  0  0  0  0  0  0  0  0  0  0
    6.7350    5.8793   12.8488 H   0  0  0  0  0  0  0  0  0  0  0  0
    6.4673    8.2640   11.0962 H   0  0  0  0  0  0  0  0  0  0  0  0
    7.1043   10.1935   12.5000 H   0  0  0  0  0  0  0  0  0  0  0  0
    5.8645   10.6772   14.5713 H   0  0  0  0  0  0  0  0  0  0  0  0
    3.9972    9.2253   15.2670 H   0  0  0  0  0  0  0  0  0  0  0  0
    3.3273    7.2985   13.8337 H   0  0  0  0  0  0  0  0  0  0  0  0
  1 33  2  0  0  0  0
  1 31  1  0  0  0  0
  2  7  1  0  0  0  0
  3  2  2  0  0  0  0
  3  4  1  0  0  0  0
  4  5  2  0  0  0  0
  5 39  1  0  0  0  0
  5  6  1  0  0  0  0
  6 40  1  0  0  0  0
  7 31  1  0  0  0  0
  7  6  2  0  0  0  0
  8 43  1  0  0  0  0
  8 42  1  0  0  0  0
  9 18  1  0  0  0  0
  9 32  1  0  0  0  0
 10  9  2  0  0  0  0
 11 10  1  0  0  0  0
 11 44  1  0  0  0  0
 12 11  2  0  0  0  0
 13 14  2  0  0  0  0
 13 12  1  0  0  0  0
 14 15  1  0  0  0  0
 15 16  2  0  0  0  0
 15 10  1  0  0  0  0
 16 17  1  0  0  0  0
 17 49  1  0  0  0  0
 17 18  2  0  0  0  0
 18 35  1  0  0  0  0
 19 24  1  0  0  0  0
 20 21  1  0  0  0  0
 20 19  2  0  0  0  0
 21 22  2  0  0  0  0
 22 52  1  0  0  0  0
 22 23  1  0  0  0  0
 23 53  1  0  0  0  0
 24 23  2  0  0  0  0
 24 54  1  0  0  0  0
 25 30  1  0  0  0  0
 26 25  2  0  0  0  0
 26 27  1  0  0  0  0
 27 28  2  0  0  0  0
 28 29  1  0  0  0  0
 28 57  1  0  0  0  0
 29 58  1  0  0  0  0
 30 59  1  0  0  0  0
 30 29  2  0  0  0  0
 31  8  1  0  0  0  0
 32  2  1  0  0  0  0
 32  1  1  0  0  0  0
 33 34  1  0  0  0  0
 35 33  1  0  0  0  0
 35 19  1  0  0  0  0
 35 25  1  0  0  0  0
 36 33  1  0  0  0  0
 37  3  1  0  0  0  0
 38  4  1  0  0  0  0
 41  8  1  0  0  0  0
 45 12  1  0  0  0  0
 46 13  1  0  0  0  0
 47 14  1  0  0  0  0
 48 16  1  0  0  0  0
 50 20  1  0  0  0  0
 51 21  1  0  0  0  0
 55 26  1  0  0  0  0
 56 27  1  0  0  0  0
M  END
$$$$
