CSD_code = BEDLUT | q = 0 | S = 0 | Stoichiometry = C38H27ClP2Pt | MND = 4
 OpenBabel04212202013D

 69 77  0  0  0  0  0  0  0  0999 V2000
    2.2456    6.6507    5.7679 Pt  0  0  0  0  0  0  0  0  0  0  0  0
    1.1679    4.9891    4.5290 Cl  0  0  0  0  0  0  0  0  0  0  0  0
    3.1328    5.2508    7.3069 P   0  0  0  0  0  4  0  0  0  0  0  0
    1.5683    8.3881    4.4848 P   0  0  0  0  0  4  0  0  0  0  0  0
    3.1718    8.0829    6.8442 C   0  0  0  0  0  0  0  0  0  0  0  0
    3.0829    9.4348    6.4749 C   0  0  0  0  0  0  0  0  0  0  0  0
    2.3211    9.8111    5.3330 C   0  0  0  0  0  0  0  0  0  0  0  0
    2.2278   11.1178    4.9412 C   0  0  0  0  0  0  0  0  0  0  0  0
    1.6526   11.3927    4.0682 H   0  0  0  0  0  0  0  0  0  0  0  0
    2.8839   12.1169    5.6867 C   0  0  0  0  0  0  0  0  0  0  0  0
    2.7987   13.1464    5.3698 H   0  0  0  0  0  0  0  0  0  0  0  0
    3.6159   11.7962    6.7918 C   0  0  0  0  0  0  0  0  0  0  0  0
    4.1156   12.5688    7.3592 H   0  0  0  0  0  0  0  0  0  0  0  0
    3.7470   10.4526    7.2273 C   0  0  0  0  0  0  0  0  0  0  0  0
    4.4952   10.0930    8.3465 C   0  0  0  0  0  0  0  0  0  0  0  0
    5.0023   10.8587    8.9167 H   0  0  0  0  0  0  0  0  0  0  0  0
    4.6028    8.7602    8.7386 C   0  0  0  0  0  0  0  0  0  0  0  0
    5.3626    8.3500    9.8641 C   0  0  0  0  0  0  0  0  0  0  0  0
    5.8716    9.1091   10.4414 H   0  0  0  0  0  0  0  0  0  0  0  0
    5.4610    7.0357   10.2150 C   0  0  0  0  0  0  0  0  0  0  0  0
    6.0500    6.7436   11.0724 H   0  0  0  0  0  0  0  0  0  0  0  0
    4.7987    6.0393    9.4713 C   0  0  0  0  0  0  0  0  0  0  0  0
    4.8900    5.0020    9.7627 H   0  0  0  0  0  0  0  0  0  0  0  0
    4.0430    6.3950    8.3886 C   0  0  0  0  0  0  0  0  0  0  0  0
    3.9298    7.7534    7.9796 C   0  0  0  0  0  0  0  0  0  0  0  0
    2.0905    4.2229    8.3695 C   0  0  0  0  0  0  0  0  0  0  0  0
    1.7697    4.5761    9.6754 C   0  0  0  0  0  0  0  0  0  0  0  0
    2.1867    5.4748   10.1085 H   0  0  0  0  0  0  0  0  0  0  0  0
    0.9166    3.7734   10.4123 C   0  0  0  0  0  0  0  0  0  0  0  0
    0.6718    4.0430   11.4295 H   0  0  0  0  0  0  0  0  0  0  0  0
    0.3725    2.6314    9.8479 C   0  0  0  0  0  0  0  0  0  0  0  0
   -0.2935    2.0092   10.4277 H   0  0  0  0  0  0  0  0  0  0  0  0
    0.6704    2.2924    8.5366 C   0  0  0  0  0  0  0  0  0  0  0  0
    0.2317    1.4111    8.0924 H   0  0  0  0  0  0  0  0  0  0  0  0
    1.5225    3.0868    7.7946 C   0  0  0  0  0  0  0  0  0  0  0  0
    1.7468    2.8477    6.7635 H   0  0  0  0  0  0  0  0  0  0  0  0
    4.4266    4.1273    6.7152 C   0  0  0  0  0  0  0  0  0  0  0  0
    4.8160    2.9716    7.3810 C   0  0  0  0  0  0  0  0  0  0  0  0
    4.3112    2.6726    8.2894 H   0  0  0  0  0  0  0  0  0  0  0  0
    5.8416    2.1995    6.8647 C   0  0  0  0  0  0  0  0  0  0  0  0
    6.1439    1.2975    7.3769 H   0  0  0  0  0  0  0  0  0  0  0  0
    6.4786    2.5759    5.6932 C   0  0  0  0  0  0  0  0  0  0  0  0
    7.2750    1.9650    5.2945 H   0  0  0  0  0  0  0  0  0  0  0  0
    6.0921    3.7292    5.0281 C   0  0  0  0  0  0  0  0  0  0  0  0
    6.5859    4.0168    4.1117 H   0  0  0  0  0  0  0  0  0  0  0  0
    5.0683    4.5027    5.5394 C   0  0  0  0  0  0  0  0  0  0  0  0
    4.7347    5.4060    5.0343 H   0  0  0  0  0  0  0  0  0  0  0  0
   -0.1692    8.8033    4.2013 C   0  0  0  0  0  0  0  0  0  0  0  0
   -0.8438    9.7313    4.9877 C   0  0  0  0  0  0  0  0  0  0  0  0
   -0.3116   10.2689    5.7605 H   0  0  0  0  0  0  0  0  0  0  0  0
   -2.1917    9.9600    4.7751 C   0  0  0  0  0  0  0  0  0  0  0  0
   -2.7150   10.6857    5.3808 H   0  0  0  0  0  0  0  0  0  0  0  0
   -2.8713    9.2570    3.7937 C   0  0  0  0  0  0  0  0  0  0  0  0
   -3.9238    9.4384    3.6324 H   0  0  0  0  0  0  0  0  0  0  0  0
   -2.2063    8.3122    3.0269 C   0  0  0  0  0  0  0  0  0  0  0  0
   -2.7412    7.7533    2.2733 H   0  0  0  0  0  0  0  0  0  0  0  0
   -0.8601    8.0791    3.2315 C   0  0  0  0  0  0  0  0  0  0  0  0
   -0.3341    7.3308    2.6541 H   0  0  0  0  0  0  0  0  0  0  0  0
    2.3194    8.4399    2.8355 C   0  0  0  0  0  0  0  0  0  0  0  0
    1.8875    9.2816    1.8172 C   0  0  0  0  0  0  0  0  0  0  0  0
    1.0291    9.9213    1.9703 H   0  0  0  0  0  0  0  0  0  0  0  0
    2.5511    9.2809    0.6036 C   0  0  0  0  0  0  0  0  0  0  0  0
    2.2161    9.9306   -0.1919 H   0  0  0  0  0  0  0  0  0  0  0  0
    3.6403    8.4475    0.4032 C   0  0  0  0  0  0  0  0  0  0  0  0
    4.1503    8.4501   -0.5489 H   0  0  0  0  0  0  0  0  0  0  0  0
    4.0708    7.6053    1.4163 C   0  0  0  0  0  0  0  0  0  0  0  0
    4.9134    6.9496    1.2542 H   0  0  0  0  0  0  0  0  0  0  0  0
    3.4111    7.6032    2.6303 C   0  0  0  0  0  0  0  0  0  0  0  0
    3.7128    6.9393    3.4382 H   0  0  0  0  0  0  0  0  0  0  0  0
  1  5  1  0  0  0  0
  1  3  1  0  0  0  0
  2  1  1  0  0  0  0
  3 26  1  0  0  0  0
  3 24  1  0  0  0  0
  4  7  1  0  0  0  0
  4  1  1  0  0  0  0
  5 25  1  0  0  0  0
  6  5  2  0  0  0  0
  6 14  1  0  0  0  0
  7  6  1  0  0  0  0
  8  7  2  0  0  0  0
  8 10  1  0  0  0  0
  9  8  1  0  0  0  0
 10 12  2  0  0  0  0
 11 10  1  0  0  0  0
 12 14  1  0  0  0  0
 12 13  1  0  0  0  0
 14 15  2  0  0  0  0
 15 17  1  0  0  0  0
 15 16  1  0  0  0  0
 17 18  1  0  0  0  0
 18 20  2  0  0  0  0
 18 19  1  0  0  0  0
 20 21  1  0  0  0  0
 22 23  1  0  0  0  0
 22 20  1  0  0  0  0
 24 22  2  0  0  0  0
 25 24  1  0  0  0  0
 25 17  2  0  0  0  0
 26 27  1  0  0  0  0
 27 28  1  0  0  0  0
 27 29  2  0  0  0  0
 29 30  1  0  0  0  0
 31 29  1  0  0  0  0
 31 32  1  0  0  0  0
 33 31  2  0  0  0  0
 34 33  1  0  0  0  0
 35 26  2  0  0  0  0
 35 33  1  0  0  0  0
 36 35  1  0  0  0  0
 37  3  1  0  0  0  0
 37 38  1  0  0  0  0
 38 39  1  0  0  0  0
 40 41  1  0  0  0  0
 40 38  2  0  0  0  0
 42 40  1  0  0  0  0
 43 42  1  0  0  0  0
 44 46  1  0  0  0  0
 44 42  2  0  0  0  0
 45 44  1  0  0  0  0
 46 37  2  0  0  0  0
 47 46  1  0  0  0  0
 48  4  1  0  0  0  0
 48 49  1  0  0  0  0
 49 50  1  0  0  0  0
 51 49  2  0  0  0  0
 51 52  1  0  0  0  0
 53 51  1  0  0  0  0
 54 53  1  0  0  0  0
 55 57  1  0  0  0  0
 55 53  2  0  0  0  0
 56 55  1  0  0  0  0
 57 48  2  0  0  0  0
 58 57  1  0  0  0  0
 59  4  1  0  0  0  0
 60 61  1  0  0  0  0
 60 59  2  0  0  0  0
 62 60  1  0  0  0  0
 63 62  1  0  0  0  0
 64 62  2  0  0  0  0
 64 66  1  0  0  0  0
 65 64  1  0  0  0  0
 66 68  2  0  0  0  0
 67 66  1  0  0  0  0
 68 59  1  0  0  0  0
 68 69  1  0  0  0  0
M  END
$$$$
