CSD_code = BEDMAA | q = 0 | S = 0 | Stoichiometry = C38H27ClO2P2Pt | MND = 4
 OpenBabel04212202013D

 71 79  0  0  1  0  0  0  0  0999 V2000
    2.2534   11.5578    1.9907 Pt  0  0  2  0  0  0  0  0  0  0  0  0
    3.8982   13.2365    1.7135 Cl  0  0  0  0  0  0  0  0  0  0  0  0
    3.7177    9.9019    2.4478 P   0  0  0  0  0  4  0  0  0  0  0  0
    0.4651   12.8644    1.5540 P   0  0  0  0  0  4  0  0  0  0  0  0
   -1.9268    7.0631    2.2311 O   0  0  0  0  0  0  0  0  0  0  0  0
    0.5668   10.5415    3.8897 O   0  0  0  0  0  0  0  0  0  0  0  0
    1.3491   10.3200    4.4108 H   0  0  0  0  0  0  0  0  0  0  0  0
    0.8061   10.1668    2.5187 C   0  0  2  0  0  0  0  0  0  0  0  0
    1.2640    8.7362    2.4453 C   0  0  0  0  0  0  0  0  0  0  0  0
    2.6272    8.4445    2.5478 C   0  0  0  0  0  0  0  0  0  0  0  0
    3.0762    7.1313    2.5654 C   0  0  0  0  0  0  0  0  0  0  0  0
    4.1365    6.9285    2.6264 H   0  0  0  0  0  0  0  0  0  0  0  0
    2.1636    6.0911    2.4805 C   0  0  0  0  0  0  0  0  0  0  0  0
    2.5086    5.0681    2.4974 H   0  0  0  0  0  0  0  0  0  0  0  0
    0.8172    6.3675    2.3421 C   0  0  0  0  0  0  0  0  0  0  0  0
    0.0921    5.5738    2.2389 H   0  0  0  0  0  0  0  0  0  0  0  0
    0.3547    7.6833    2.3180 C   0  0  0  0  0  0  0  0  0  0  0  0
   -1.0881    7.9360    2.1079 C   0  0  0  0  0  0  0  0  0  0  0  0
   -1.4241    9.3095    1.6799 C   0  0  0  0  0  0  0  0  0  0  0  0
   -2.6719    9.5614    1.1069 C   0  0  0  0  0  0  0  0  0  0  0  0
   -3.3558    8.7329    0.9954 H   0  0  0  0  0  0  0  0  0  0  0  0
   -3.0163   10.8328    0.6934 C   0  0  0  0  0  0  0  0  0  0  0  0
   -3.9841   11.0150    0.2502 H   0  0  0  0  0  0  0  0  0  0  0  0
   -2.1130   11.8763    0.8364 C   0  0  0  0  0  0  0  0  0  0  0  0
   -2.3660   12.8708    0.4963 H   0  0  0  0  0  0  0  0  0  0  0  0
   -0.8699   11.6364    1.4020 C   0  0  0  0  0  0  0  0  0  0  0  0
   -0.5136   10.3564    1.8295 C   0  0  0  0  0  0  0  0  0  0  0  0
    4.8258    9.4711    1.0807 C   0  0  0  0  0  0  0  0  0  0  0  0
    4.3886    9.8403   -0.1878 C   0  0  0  0  0  0  0  0  0  0  0  0
    3.4469   10.3788   -0.2751 H   0  0  0  0  0  0  0  0  0  0  0  0
    5.1528    9.5413   -1.2986 C   0  0  0  0  0  0  0  0  0  0  0  0
    4.8183    9.8329   -2.2831 H   0  0  0  0  0  0  0  0  0  0  0  0
    6.3576    8.8730   -1.1437 C   0  0  0  0  0  0  0  0  0  0  0  0
    6.9610    8.6430   -2.0093 H   0  0  0  0  0  0  0  0  0  0  0  0
    6.7964    8.5073    0.1186 C   0  0  0  0  0  0  0  0  0  0  0  0
    7.7393    7.9930    0.2343 H   0  0  0  0  0  0  0  0  0  0  0  0
    6.0345    8.8038    1.2351 C   0  0  0  0  0  0  0  0  0  0  0  0
    6.3828    8.5314    2.2222 H   0  0  0  0  0  0  0  0  0  0  0  0
    4.7779    9.8716    3.9154 C   0  0  0  0  0  0  0  0  0  0  0  0
    5.8105   10.8078    3.9561 C   0  0  0  0  0  0  0  0  0  0  0  0
    5.9415   11.4833    3.1209 H   0  0  0  0  0  0  0  0  0  0  0  0
    6.6367   10.8726    5.0610 C   0  0  0  0  0  0  0  0  0  0  0  0
    7.4384   11.5951    5.0927 H   0  0  0  0  0  0  0  0  0  0  0  0
    6.4311   10.0145    6.1314 C   0  0  0  0  0  0  0  0  0  0  0  0
    7.0776   10.0651    6.9950 H   0  0  0  0  0  0  0  0  0  0  0  0
    5.3920    9.0991    6.1013 C   0  0  0  0  0  0  0  0  0  0  0  0
    5.2270    8.4397    6.9409 H   0  0  0  0  0  0  0  0  0  0  0  0
    4.5583    9.0279    4.9985 C   0  0  0  0  0  0  0  0  0  0  0  0
    3.7429    8.3170    4.9773 H   0  0  0  0  0  0  0  0  0  0  0  0
    0.4067   13.7742   -0.0116 C   0  0  0  0  0  0  0  0  0  0  0  0
   -0.4418   14.8515   -0.2393 C   0  0  0  0  0  0  0  0  0  0  0  0
   -1.0880   15.2082    0.5516 H   0  0  0  0  0  0  0  0  0  0  0  0
   -0.4389   15.4735   -1.4749 C   0  0  0  0  0  0  0  0  0  0  0  0
   -1.0946   16.3130   -1.6551 H   0  0  0  0  0  0  0  0  0  0  0  0
    0.4067   15.0277   -2.4785 C   0  0  0  0  0  0  0  0  0  0  0  0
    0.4072   15.5221   -3.4387 H   0  0  0  0  0  0  0  0  0  0  0  0
    1.2591   13.9590   -2.2502 C   0  0  0  0  0  0  0  0  0  0  0  0
    1.9264   13.6228   -3.0298 H   0  0  0  0  0  0  0  0  0  0  0  0
    1.2591   13.3334   -1.0181 C   0  0  0  0  0  0  0  0  0  0  0  0
    1.9341   12.5099   -0.8044 H   0  0  0  0  0  0  0  0  0  0  0  0
   -0.0916   14.0642    2.7875 C   0  0  0  0  0  0  0  0  0  0  0  0
   -1.2068   13.8582    3.5905 C   0  0  0  0  0  0  0  0  0  0  0  0
   -1.7953   12.9589    3.4763 H   0  0  0  0  0  0  0  0  0  0  0  0
   -1.5488   14.8066    4.5388 C   0  0  0  0  0  0  0  0  0  0  0  0
   -2.4178   14.6524    5.1617 H   0  0  0  0  0  0  0  0  0  0  0  0
   -0.7786   15.9475    4.6943 C   0  0  0  0  0  0  0  0  0  0  0  0
   -1.0507   16.6834    5.4368 H   0  0  0  0  0  0  0  0  0  0  0  0
    0.3473   16.1423    3.9080 C   0  0  0  0  0  0  0  0  0  0  0  0
    0.9548   17.0253    4.0414 H   0  0  0  0  0  0  0  0  0  0  0  0
    0.6957   15.2019    2.9582 C   0  0  0  0  0  0  0  0  0  0  0  0
    1.5806   15.3288    2.3480 H   0  0  0  0  0  0  0  0  0  0  0  0
  1  2  1  1  0  0  0
  1  3  1  0  0  0  0
  1  8  1  0  0  0  0
  3 10  1  0  0  0  0
  3 39  1  0  0  0  0
  4  1  1  0  0  0  0
  4 61  1  0  0  0  0
  6  7  1  0  0  0  0
  8  6  1  1  0  0  0
  9  8  1  0  0  0  0
  9 10  1  0  0  0  0
 10 11  2  0  0  0  0
 11 12  1  0  0  0  0
 13 14  1  0  0  0  0
 13 11  1  0  0  0  0
 15 13  2  0  0  0  0
 16 15  1  0  0  0  0
 17 15  1  0  0  0  0
 17  9  2  0  0  0  0
 18  5  2  0  0  0  0
 18 17  1  0  0  0  0
 19 27  1  0  0  0  0
 19 18  1  0  0  0  0
 20 19  2  0  0  0  0
 21 20  1  0  0  0  0
 22 24  2  0  0  0  0
 22 20  1  0  0  0  0
 23 22  1  0  0  0  0
 24 26  1  0  0  0  0
 25 24  1  0  0  0  0
 26  4  1  0  0  0  0
 26 27  2  0  0  0  0
 27  8  1  0  0  0  0
 28 37  1  0  0  0  0
 28  3  1  0  0  0  0
 29 28  2  0  0  0  0
 30 29  1  0  0  0  0
 31 33  2  0  0  0  0
 31 29  1  0  0  0  0
 32 31  1  0  0  0  0
 33 35  1  0  0  0  0
 34 33  1  0  0  0  0
 35 36  1  0  0  0  0
 35 37  2  0  0  0  0
 37 38  1  0  0  0  0
 39 40  2  0  0  0  0
 39 48  1  0  0  0  0
 40 42  1  0  0  0  0
 41 40  1  0  0  0  0
 42 43  1  0  0  0  0
 42 44  2  0  0  0  0
 44 45  1  0  0  0  0
 46 44  1  0  0  0  0
 46 47  1  0  0  0  0
 48 46  2  0  0  0  0
 49 48  1  0  0  0  0
 50  4  1  0  0  0  0
 51 50  1  0  0  0  0
 51 52  1  0  0  0  0
 53 51  2  0  0  0  0
 54 53  1  0  0  0  0
 55 57  2  0  0  0  0
 55 53  1  0  0  0  0
 56 55  1  0  0  0  0
 57 59  1  0  0  0  0
 58 57  1  0  0  0  0
 59 60  1  0  0  0  0
 59 50  2  0  0  0  0
 61 70  2  0  0  0  0
 61 62  1  0  0  0  0
 62 64  2  0  0  0  0
 63 62  1  0  0  0  0
 64 66  1  0  0  0  0
 64 65  1  0  0  0  0
 66 67  1  0  0  0  0
 68 69  1  0  0  0  0
 68 66  2  0  0  0  0
 70 68  1  0  0  0  0
 71 70  1  0  0  0  0
M  END
$$$$
