CSD_code = BEDRUZ | q = 0 | S = 0 | Stoichiometry = C24H18Cl3N4O3Rh | MND = 6
 OpenBabel04212202013D

 53 57  0  0  0  0  0  0  0  0999 V2000
    2.2560    6.3362    6.4393 Rh  0  0  0  0  0  0  0  0  0  0  0  0
    4.5277    6.6681    6.7698 Cl  0  0  0  0  0  0  0  0  0  0  0  0
   -0.0792   11.5985   10.4478 Cl  0  0  0  0  0  0  0  0  0  0  0  0
    0.2814    6.1470    6.0416 N   0  0  0  0  0  0  0  0  0  0  0  0
    1.8010    8.2551    6.0921 N   0  0  0  0  0  0  0  0  0  0  0  0
    2.6352    9.2925    6.0409 C   0  0  0  0  0  3  0  0  0  0  0  0
    3.6938    9.0615    6.0293 H   0  0  0  0  0  0  0  0  0  0  0  0
    2.5129    4.4385    6.8938 N   0  0  0  0  0  0  0  0  0  0  0  0
   -1.9095    0.6946    6.3999 Cl  0  0  0  0  0  0  0  0  0  0  0  0
    3.0612    6.1524    4.2805 O   0  0  0  0  0  0  0  0  0  0  0  0
    2.8183    6.8571    3.6703 H   0  0  0  0  0  0  0  0  0  0  0  0
    3.9754    6.3271    4.5879 H   0  0  0  0  0  0  0  0  0  0  0  0
   -0.3345    4.8971    6.0861 C   0  0  0  0  0  0  0  0  0  0  0  0
   -0.3774    2.6174    5.2968 C   0  0  0  0  0  0  0  0  0  0  0  0
   -0.0258    1.8488    4.6259 H   0  0  0  0  0  0  0  0  0  0  0  0
   -1.6413    7.4049    6.0827 O   0  0  0  0  0  0  0  0  0  0  0  0
    0.4804    8.4869    6.1080 C   0  0  0  0  0  0  0  0  0  0  0  0
   -1.3239    4.5849    7.0190 C   0  0  0  0  0  0  0  0  0  0  0  0
   -1.6979    5.3538    7.6750 H   0  0  0  0  0  0  0  0  0  0  0  0
    2.1862   10.6013    6.0290 C   0  0  0  0  0  0  0  0  0  0  0  0
    2.8992   11.4093    5.9930 H   0  0  0  0  0  0  0  0  0  0  0  0
   -0.4258    7.2830    6.1047 C   0  0  0  0  0  0  0  0  0  0  0  0
    2.4385    1.7796    7.6625 C   0  0  0  0  0  0  0  0  0  0  0  0
    2.4000    0.7406    7.9510 H   0  0  0  0  0  0  0  0  0  0  0  0
    0.1108    3.9044    5.2094 C   0  0  0  0  0  0  0  0  0  0  0  0
    0.8500    4.1594    4.4623 H   0  0  0  0  0  0  0  0  0  0  0  0
   -1.3300    2.3173    6.2586 C   0  0  0  0  0  0  0  0  0  0  0  0
   -1.8184    3.2988    7.1062 C   0  0  0  0  0  0  0  0  0  0  0  0
   -2.5714    3.0546    7.8387 H   0  0  0  0  0  0  0  0  0  0  0  0
    3.0732    3.5043    6.1325 C   0  0  0  0  0  3  0  0  0  0  0  0
    3.5428    3.8378    5.2157 H   0  0  0  0  0  0  0  0  0  0  0  0
    0.8220   10.8499    6.0792 C   0  0  0  0  0  0  0  0  0  0  0  0
    0.4453   11.8608    6.0953 H   0  0  0  0  0  0  0  0  0  0  0  0
   -0.0430    9.7713    6.1059 C   0  0  0  0  0  0  0  0  0  0  0  0
   -1.1159    9.8800    6.1321 H   0  0  0  0  0  0  0  0  0  0  0  0
    3.0593    2.1656    6.4831 C   0  0  0  0  0  0  0  0  0  0  0  0
    3.5256    1.4394    5.8368 H   0  0  0  0  0  0  0  0  0  0  0  0
    1.6746    6.3908    8.3320 N   0  0  0  0  0  0  0  0  0  0  0  0
    1.2557    7.5872    8.9203 C   0  0  0  0  0  0  0  0  0  0  0  0
    1.9403    4.0794    8.0494 C   0  0  0  0  0  0  0  0  0  0  0  0
   -0.0606    7.7745    9.3433 C   0  0  0  0  0  0  0  0  0  0  0  0
   -0.7582    6.9549    9.2896 H   0  0  0  0  0  0  0  0  0  0  0  0
    1.4013    5.1994    8.8907 C   0  0  0  0  0  0  0  0  0  0  0  0
    1.8788    2.7580    8.4642 C   0  0  0  0  0  0  0  0  0  0  0  0
    1.3935    2.5411    9.4028 H   0  0  0  0  0  0  0  0  0  0  0  0
    0.8626    5.0069    9.9681 O   0  0  0  0  0  0  0  0  0  0  0  0
   -0.4667    9.0013    9.8294 C   0  0  0  0  0  0  0  0  0  0  0  0
   -1.4876    9.1506   10.1434 H   0  0  0  0  0  0  0  0  0  0  0  0
    2.1688    8.6372    9.0423 C   0  0  0  0  0  0  0  0  0  0  0  0
    3.1974    8.4757    8.7534 H   0  0  0  0  0  0  0  0  0  0  0  0
    0.4410   10.0466    9.8954 C   0  0  0  0  0  0  0  0  0  0  0  0
    1.7641    9.8661    9.5209 C   0  0  0  0  0  0  0  0  0  0  0  0
    2.4665   10.6806    9.6065 H   0  0  0  0  0  0  0  0  0  0  0  0
  1  2  1  0  0  0  0
  1  8  1  0  0  0  0
  1 38  1  0  0  0  0
  4 13  1  0  0  0  0
  4 22  1  0  0  0  0
  4  1  1  0  0  0  0
  5 17  1  0  0  0  0
  5  1  1  0  0  0  0
  6  5  1  0  0  0  0
  7  6  1  0  0  0  0
  8 40  1  0  0  0  0
 10 12  1  0  0  0  0
 11 10  1  0  0  0  0
 13 18  1  0  0  0  0
 14 27  2  0  0  0  0
 15 14  1  0  0  0  0
 16 22  2  0  0  0  0
 18 28  2  0  0  0  0
 18 19  1  0  0  0  0
 20  6  1  0  0  0  0
 20 32  2  0  0  0  0
 21 20  1  0  0  0  0
 22 17  1  0  0  0  0
 23 24  1  0  0  0  0
 23 44  1  0  0  0  0
 25 14  1  0  0  0  0
 25 13  2  0  0  0  0
 26 25  1  0  0  0  0
 27  9  1  0  0  0  0
 27 28  1  0  0  0  0
 28 29  1  0  0  0  0
 30 36  1  0  0  0  0
 30  8  1  0  0  0  0
 31 30  1  0  0  0  0
 32 33  1  0  0  0  0
 32 34  1  0  0  0  0
 34 17  2  0  0  0  0
 34 35  1  0  0  0  0
 36 23  2  0  0  0  0
 37 36  1  0  0  0  0
 38 43  1  0  0  0  0
 38 39  1  0  0  0  0
 39 49  2  0  0  0  0
 39 41  1  0  0  0  0
 40 44  2  0  0  0  0
 40 43  1  0  0  0  0
 41 47  2  0  0  0  0
 42 41  1  0  0  0  0
 43 46  2  0  0  0  0
 44 45  1  0  0  0  0
 47 51  1  0  0  0  0
 47 48  1  0  0  0  0
 49 52  1  0  0  0  0
 50 49  1  0  0  0  0
 51  3  1  0  0  0  0
 52 53  1  0  0  0  0
 52 51  2  0  0  0  0
M  END
$$$$
