CSD_code = BEDSAG | q = 0 | S = 0 | Stoichiometry = C26H23Cl2N4O4Rh | MND = 6
 OpenBabel04212202013D

 60 65  0  0  1  0  0  0  0  0999 V2000
    3.6005    2.5794    1.9493 Rh  0  0  0  0  0  0  0  0  0  0  0  0
    3.2343    1.5018   -0.1025 Cl  0  0  0  0  0  0  0  0  0  0  0  0
    5.1510    3.5096    0.7554 O   0  0  0  0  0  0  0  0  0  0  0  0
    2.1523    1.5830    2.8747 N   0  0  0  0  0  0  0  0  0  0  0  0
    2.6363    4.1451    1.1870 N   0  0  0  0  0  0  0  0  0  0  0  0
    4.6376    1.0924    2.6678 N   0  0  0  0  0  0  0  0  0  0  0  0
    4.0007    3.7383    3.8847 Cl  0  0  0  0  0  0  0  0  0  0  0  0
    1.8021   -0.1104    4.3849 O   0  0  0  0  0  0  0  0  0  0  0  0
    5.9339    0.8951    2.4449 C   0  0  0  0  0  3  0  0  0  0  0  0
    6.4140    1.5671    1.7438 H   0  0  0  0  0  0  0  0  0  0  0  0
   -3.1183    3.3151    2.6171 O   0  0  0  0  0  0  0  0  0  0  0  0
    4.6259   -0.7407    4.1916 C   0  0  0  0  0  0  0  0  0  0  0  0
    4.0404   -1.3447    4.8669 H   0  0  0  0  0  0  0  0  0  0  0  0
   -3.8830    3.5573    3.7726 C   0  0  0  0  0  0  0  0  0  0  0  0
   -3.9682    2.6600    4.3933 H   0  0  0  0  0  0  0  0  0  0  0  0
   -4.8717    3.8442    3.4172 H   0  0  0  0  0  0  0  0  0  0  0  0
   -3.4638    4.3736    4.3704 H   0  0  0  0  0  0  0  0  0  0  0  0
    3.1808    4.5395    0.0195 C   0  0  2  0  0  3  0  0  0  0  0  0
    0.1528    2.1387    1.6243 C   0  0  0  0  0  0  0  0  0  0  0  0
    0.6693    1.8880    0.7093 H   0  0  0  0  0  0  0  0  0  0  0  0
    5.0223    4.0122   -1.4695 N   0  0  0  0  0  0  0  0  0  0  0  0
    4.3683    4.2402   -2.2059 H   0  0  0  0  0  0  0  0  0  0  0  0
    7.3159    3.2339   -1.0859 C   0  0  0  0  0  0  0  0  0  0  0  0
    7.2216    3.4077   -0.0274 H   0  0  0  0  0  0  0  0  0  0  0  0
    3.9890    0.2928    3.5205 C   0  0  0  0  0  0  0  0  0  0  0  0
   -1.8337    2.8788    2.7682 C   0  0  0  0  0  0  0  0  0  0  0  0
   -1.1808    2.7261    3.9867 C   0  0  0  0  0  0  0  0  0  0  0  0
   -1.6822    2.9395    4.9174 H   0  0  0  0  0  0  0  0  0  0  0  0
    0.8174    1.9996    2.8471 C   0  0  0  0  0  0  0  0  0  0  0  0
    7.5781    2.8185   -3.8108 C   0  0  0  0  0  0  0  0  0  0  0  0
    7.7010    2.6516   -4.8686 H   0  0  0  0  0  0  0  0  0  0  0  0
    0.1334    2.2963    4.0232 C   0  0  0  0  0  0  0  0  0  0  0  0
    0.6383    2.1798    4.9687 H   0  0  0  0  0  0  0  0  0  0  0  0
    4.5193    3.9356   -0.2257 C   0  0  1  0  0  3  0  0  0  0  0  0
    8.5058    2.7448   -1.5965 C   0  0  0  0  0  0  0  0  0  0  0  0
    9.3149    2.5409   -0.9135 H   0  0  0  0  0  0  0  0  0  0  0  0
    6.6359   -0.1168    3.0747 C   0  0  0  0  0  0  0  0  0  0  0  0
    7.6865   -0.2469    2.8686 H   0  0  0  0  0  0  0  0  0  0  0  0
    6.2481    3.5060   -1.9296 C   0  0  0  0  0  0  0  0  0  0  0  0
    6.3950    3.2995   -3.3012 C   0  0  0  0  0  0  0  0  0  0  0  0
    5.5715    3.5112   -3.9678 H   0  0  0  0  0  0  0  0  0  0  0  0
    1.4334    6.1350   -0.3136 C   0  0  0  0  0  0  0  0  0  0  0  0
    0.9518    6.8966   -0.9073 H   0  0  0  0  0  0  0  0  0  0  0  0
    2.5238    0.5700    3.6706 C   0  0  0  0  0  0  0  0  0  0  0  0
    8.6515    2.5294   -2.9630 C   0  0  0  0  0  0  0  0  0  0  0  0
    5.9745   -0.9484    3.9690 C   0  0  0  0  0  0  0  0  0  0  0  0
    6.5034   -1.7397    4.4781 H   0  0  0  0  0  0  0  0  0  0  0  0
    0.9234    5.7681    0.9223 C   0  0  0  0  0  0  0  0  0  0  0  0
    0.0431    6.2413    1.3252 H   0  0  0  0  0  0  0  0  0  0  0  0
    1.5580    4.7712    1.6442 C   0  0  0  0  0  0  0  0  0  0  0  0
    1.1979    4.4701    2.6181 H   0  0  0  0  0  0  0  0  0  0  0  0
   -1.1506    2.5791    1.5874 C   0  0  0  0  0  0  0  0  0  0  0  0
   -1.6745    2.6875    0.6506 H   0  0  0  0  0  0  0  0  0  0  0  0
    2.5965    5.5297   -0.7603 C   0  0  0  0  0  0  0  0  0  0  0  0
    3.0499    5.8408   -1.6888 H   0  0  0  0  0  0  0  0  0  0  0  0
   10.8857    1.7343   -2.7690 C   0  0  0  0  0  0  0  0  0  0  0  0
   11.2681    2.6115   -2.2377 H   0  0  0  0  0  0  0  0  0  0  0  0
   11.6459    1.3726   -3.4592 H   0  0  0  0  0  0  0  0  0  0  0  0
   10.6473    0.9457   -2.0485 H   0  0  0  0  0  0  0  0  0  0  0  0
    9.7717    2.0581   -3.5670 O   0  0  0  0  0  0  0  0  0  0  0  0
  1  6  1  0  0  0  0
  1  4  1  0  0  0  0
  1  7  1  0  0  0  0
  2  1  1  0  0  0  0
  3  1  1  0  0  0  0
  4 44  1  0  0  0  0
  5 50  1  0  0  0  0
  5  1  1  0  0  0  0
  6 25  1  0  0  0  0
  9  6  1  0  0  0  0
  9 37  1  0  0  0  0
 10  9  1  0  0  0  0
 11 26  1  0  0  0  0
 11 14  1  0  0  0  0
 12 13  1  0  0  0  0
 14 17  1  0  0  0  0
 14 15  1  0  0  0  0
 16 14  1  0  0  0  0
 18 54  1  1  0  0  0
 18  5  1  0  0  0  0
 19 29  1  0  0  0  0
 20 19  1  0  0  0  0
 22 21  1  0  0  0  0
 23 24  1  0  0  0  0
 25 44  1  0  0  0  0
 25 12  2  0  0  0  0
 26 27  2  0  0  0  0
 27 32  1  0  0  0  0
 27 28  1  0  0  0  0
 29  4  1  0  0  0  0
 29 32  2  0  0  0  0
 30 40  2  0  0  0  0
 30 45  1  0  0  0  0
 31 30  1  0  0  0  0
 32 33  1  0  0  0  0
 34 21  1  1  0  0  0
 34 18  1  0  0  0  0
 34  3  1  0  0  0  0
 35 23  1  0  0  0  0
 35 36  1  0  0  0  0
 37 46  2  0  0  0  0
 38 37  1  0  0  0  0
 39 21  1  0  0  0  0
 39 23  2  0  0  0  0
 40 39  1  0  0  0  0
 41 40  1  0  0  0  0
 42 48  1  0  0  0  0
 43 42  1  0  0  0  0
 44  8  2  0  0  0  0
 45 35  2  0  0  0  0
 46 12  1  0  0  0  0
 46 47  1  0  0  0  0
 48 49  1  0  0  0  0
 48 50  2  0  0  0  0
 50 51  1  0  0  0  0
 52 19  2  0  0  0  0
 52 26  1  0  0  0  0
 53 52  1  0  0  0  0
 54 42  2  0  0  0  0
 55 54  1  0  0  0  0
 56 57  1  0  0  0  0
 56 59  1  0  0  0  0
 58 56  1  0  0  0  0
 60 45  1  0  0  0  0
 60 56  1  0  0  0  0
M  END
$$$$
