CSD_code = BEFCAR | q = 0 | S = 0 | Stoichiometry = C25H21ClHgNP | MND = 2
 OpenBabel04212202013D

 50 53  0  0  0  0  0  0  0  0999 V2000
    2.6069    4.6316   -0.0500 Hg  0  0  0  0  0  0  0  0  0  0  0  0
    3.8660    2.8161    0.9435 Cl  0  0  0  0  0  0  0  0  0  0  0  0
    0.7482    2.9469   -3.5154 P   0  0  0  0  0  4  0  0  0  0  0  0
    1.1554    3.9630   -2.3736 N   0  0  0  0  0  2  0  0  0  0  0  0
    1.3236    6.0100   -1.2037 C   0  0  0  0  0  0  0  0  0  0  0  0
    0.7936    5.2931   -2.2871 C   0  0  0  0  0  0  0  0  0  0  0  0
   -0.0517    5.9564   -3.1773 C   0  0  0  0  0  0  0  0  0  0  0  0
   -0.4590    5.4021   -4.0153 H   0  0  0  0  0  0  0  0  0  0  0  0
   -0.3606    7.2871   -2.9877 C   0  0  0  0  0  0  0  0  0  0  0  0
   -1.0173    7.7844   -3.6878 H   0  0  0  0  0  0  0  0  0  0  0  0
    0.1558    7.9989   -1.9120 C   0  0  0  0  0  0  0  0  0  0  0  0
    1.0041    7.3429   -1.0219 C   0  0  0  0  0  0  0  0  0  0  0  0
    1.4108    7.8945   -0.1841 H   0  0  0  0  0  0  0  0  0  0  0  0
   -0.1929    9.4449   -1.7206 C   0  0  0  0  0  0  0  0  0  0  0  0
    0.2560    9.8367   -0.8117 H   0  0  0  0  0  0  0  0  0  0  0  0
   -1.2732    9.5710   -1.6567 H   0  0  0  0  0  0  0  0  0  0  0  0
    0.1616   10.0365   -2.5643 H   0  0  0  0  0  0  0  0  0  0  0  0
    1.2242    3.4276   -5.2084 C   0  0  0  0  0  0  0  0  0  0  0  0
    0.3199    3.7421   -6.2135 C   0  0  0  0  0  0  0  0  0  0  0  0
   -0.7425    3.6301   -6.0421 H   0  0  0  0  0  0  0  0  0  0  0  0
    0.7874    4.1914   -7.4364 C   0  0  0  0  0  0  0  0  0  0  0  0
    0.0869    4.4325   -8.2225 H   0  0  0  0  0  0  0  0  0  0  0  0
    2.1482    4.3348   -7.6522 C   0  0  0  0  0  0  0  0  0  0  0  0
    2.5067    4.6857   -8.6085 H   0  0  0  0  0  0  0  0  0  0  0  0
    3.0508    4.0367   -6.6424 C   0  0  0  0  0  0  0  0  0  0  0  0
    4.1109    4.1570   -6.8103 H   0  0  0  0  0  0  0  0  0  0  0  0
    2.5897    3.5898   -5.4191 C   0  0  0  0  0  0  0  0  0  0  0  0
    3.2730    3.3596   -4.6111 H   0  0  0  0  0  0  0  0  0  0  0  0
   -1.0117    2.4621   -3.5782 C   0  0  0  0  0  0  0  0  0  0  0  0
   -1.4804    1.5251   -4.4931 C   0  0  0  0  0  0  0  0  0  0  0  0
   -0.8052    1.0988   -5.2217 H   0  0  0  0  0  0  0  0  0  0  0  0
   -2.8098    1.1468   -4.4654 C   0  0  0  0  0  0  0  0  0  0  0  0
   -3.1778    0.4221   -5.1771 H   0  0  0  0  0  0  0  0  0  0  0  0
   -3.6694    1.6935   -3.5248 C   0  0  0  0  0  0  0  0  0  0  0  0
   -4.7072    1.3953   -3.5083 H   0  0  0  0  0  0  0  0  0  0  0  0
   -3.1999    2.6160   -2.6040 C   0  0  0  0  0  0  0  0  0  0  0  0
   -3.8691    3.0366   -1.8682 H   0  0  0  0  0  0  0  0  0  0  0  0
   -1.8701    2.9973   -2.6261 C   0  0  0  0  0  0  0  0  0  0  0  0
   -1.4844    3.7120   -1.9116 H   0  0  0  0  0  0  0  0  0  0  0  0
    1.6485    1.4249   -3.1517 C   0  0  0  0  0  0  0  0  0  0  0  0
    1.9560    0.5156   -4.1577 C   0  0  0  0  0  0  0  0  0  0  0  0
    1.6849    0.7304   -5.1831 H   0  0  0  0  0  0  0  0  0  0  0  0
    2.6322   -0.6492   -3.8438 C   0  0  0  0  0  0  0  0  0  0  0  0
    2.8790   -1.3542   -4.6244 H   0  0  0  0  0  0  0  0  0  0  0  0
    2.9994   -0.9083   -2.5324 C   0  0  0  0  0  0  0  0  0  0  0  0
    3.5348   -1.8155   -2.2943 H   0  0  0  0  0  0  0  0  0  0  0  0
    2.6843   -0.0063   -1.5288 C   0  0  0  0  0  0  0  0  0  0  0  0
    2.9756   -0.1999   -0.5079 H   0  0  0  0  0  0  0  0  0  0  0  0
    2.0010    1.1555   -1.8364 C   0  0  0  0  0  0  0  0  0  0  0  0
    1.7500    1.8708   -1.0628 H   0  0  0  0  0  0  0  0  0  0  0  0
  1  2  1  0  0  0  0
  3 40  1  0  0  0  0
  3  4  1  0  0  0  0
  4  6  1  0  0  0  0
  5 12  1  0  0  0  0
  5  1  1  0  0  0  0
  6  5  2  0  0  0  0
  7  9  2  0  0  0  0
  7  6  1  0  0  0  0
  8  7  1  0  0  0  0
  9 11  1  0  0  0  0
 10  9  1  0  0  0  0
 11 14  1  0  0  0  0
 11 12  2  0  0  0  0
 12 13  1  0  0  0  0
 14 16  1  0  0  0  0
 14 15  1  0  0  0  0
 17 14  1  0  0  0  0
 18  3  1  0  0  0  0
 19 20  1  0  0  0  0
 19 18  2  0  0  0  0
 21 19  1  0  0  0  0
 22 21  1  0  0  0  0
 23 21  2  0  0  0  0
 23 25  1  0  0  0  0
 24 23  1  0  0  0  0
 25 27  2  0  0  0  0
 26 25  1  0  0  0  0
 27 18  1  0  0  0  0
 27 28  1  0  0  0  0
 29  3  1  0  0  0  0
 29 38  1  0  0  0  0
 30 32  1  0  0  0  0
 30 29  2  0  0  0  0
 31 30  1  0  0  0  0
 32 34  2  0  0  0  0
 33 32  1  0  0  0  0
 34 35  1  0  0  0  0
 34 36  1  0  0  0  0
 36 37  1  0  0  0  0
 38 36  2  0  0  0  0
 38 39  1  0  0  0  0
 40 49  1  0  0  0  0
 41 43  1  0  0  0  0
 41 40  2  0  0  0  0
 42 41  1  0  0  0  0
 43 45  2  0  0  0  0
 44 43  1  0  0  0  0
 45 46  1  0  0  0  0
 45 47  1  0  0  0  0
 47 48  1  0  0  0  0
 49 47  2  0  0  0  0
 49 50  1  0  0  0  0
M  END
$$$$
