CSD_code = BEGGEA | q = 0 | S = 0 | Stoichiometry = C18H22CdI2N2O4 | MND = 6
 OpenBabel04212202013D

 49 51  0  0  1  0  0  0  0  0999 V2000
   -0.1812   10.6382   11.2380 Cd  0  0  0  0  0  0  0  0  0  0  0  0
    2.2165    9.3539   11.7017 I   0  0  0  0  0  0  0  0  0  0  0  0
   -0.4540   12.6282    9.4803 I   0  0  0  0  0  0  0  0  0  0  0  0
    0.3381   12.0366   13.2791 N   0  0  0  0  0  0  0  0  0  0  0  0
   -0.6801    9.5199   13.5364 O   0  0  0  0  0  0  0  0  0  0  0  0
    0.7518    9.0994   15.2031 O   0  0  0  0  0  0  0  0  0  0  0  0
    0.7757   13.2820   13.2132 C   0  0  0  0  0  3  0  0  0  0  0  0
    0.4204   13.8694   12.3747 H   0  0  0  0  0  0  0  0  0  0  0  0
    1.6495   13.8214   14.1499 C   0  0  0  0  0  0  0  0  0  0  0  0
    1.9889   14.8398   14.0482 H   0  0  0  0  0  0  0  0  0  0  0  0
    2.0810   13.0220   15.1956 C   0  0  0  0  0  0  0  0  0  0  0  0
    2.7695   13.4030   15.9348 H   0  0  0  0  0  0  0  0  0  0  0  0
    1.6191   11.7176   15.2753 C   0  0  0  0  0  0  0  0  0  0  0  0
    1.9271   11.0519   16.0647 H   0  0  0  0  0  0  0  0  0  0  0  0
    0.7495   11.2668   14.2889 C   0  0  0  0  0  0  0  0  0  0  0  0
    0.2075    9.8797   14.2861 C   0  0  0  0  0  0  0  0  0  0  0  0
    0.3699    7.7224   15.1751 C   0  0  0  0  0  0  0  0  0  0  0  0
    1.1347    7.2105   15.7617 H   0  0  0  0  0  0  0  0  0  0  0  0
    0.4082    7.3709   14.1380 H   0  0  0  0  0  0  0  0  0  0  0  0
   -1.0205    7.4878   15.7597 C   0  0  0  0  0  0  0  0  0  0  0  0
   -1.7538    8.0256   15.1564 H   0  0  0  0  0  0  0  0  0  0  0  0
   -1.0515    7.8892   16.7750 H   0  0  0  0  0  0  0  0  0  0  0  0
   -1.3573    6.0030   15.7747 C   0  0  0  0  0  0  0  0  0  0  0  0
   -2.3483    5.8465   16.1930 H   0  0  0  0  0  0  0  0  0  0  0  0
   -0.6387    5.4532   16.3778 H   0  0  0  0  0  0  0  0  0  0  0  0
   -1.3380    5.5983   14.7652 H   0  0  0  0  0  0  0  0  0  0  0  0
   -1.1267    8.4504   10.4574 N   0  0  0  0  0  0  0  0  0  0  0  0
   -2.6300   10.3324   11.7251 O   0  0  0  0  0  0  0  0  0  0  0  0
   -3.7682    8.7314   12.7884 O   0  0  0  0  0  0  0  0  0  0  0  0
   -0.4124    7.5305    9.8307 C   0  0  0  0  0  3  0  0  0  0  0  0
    0.3638    7.8951    9.1680 H   0  0  0  0  0  0  0  0  0  0  0  0
   -0.6223    6.1685   10.0044 C   0  0  0  0  0  0  0  0  0  0  0  0
   -0.0108    5.4551    9.4756 H   0  0  0  0  0  0  0  0  0  0  0  0
   -1.6158    5.7554   10.8773 C   0  0  0  0  0  0  0  0  0  0  0  0
   -1.7984    4.7047   11.0479 H   0  0  0  0  0  0  0  0  0  0  0  0
   -2.3729    6.7152   11.5303 C   0  0  0  0  0  0  0  0  0  0  0  0
   -3.1596    6.4472   12.2169 H   0  0  0  0  0  0  0  0  0  0  0  0
   -2.0934    8.0551   11.2848 C   0  0  0  0  0  0  0  0  0  0  0  0
   -2.8427    9.1622   11.9465 C   0  0  1  0  0  3  0  0  0  0  0  0
   -4.4946    9.7416   13.4963 C   0  0  0  0  0  0  0  0  0  0  0  0
   -4.9298   10.4369   12.7704 H   0  0  0  0  0  0  0  0  0  0  0  0
   -3.7891   10.2997   14.1227 H   0  0  0  0  0  0  0  0  0  0  0  0
   -5.5710    9.0690   14.3354 C   0  0  0  0  0  0  0  0  0  0  0  0
   -6.1894    9.8495   14.7805 H   0  0  0  0  0  0  0  0  0  0  0  0
   -6.2011    8.4669   13.6789 H   0  0  0  0  0  0  0  0  0  0  0  0
   -4.9750    8.1875   15.4264 C   0  0  0  0  0  0  0  0  0  0  0  0
   -5.7652    7.7108   16.0006 H   0  0  0  0  0  0  0  0  0  0  0  0
   -4.3648    8.7791   16.1054 H   0  0  0  0  0  0  0  0  0  0  0  0
   -4.3523    7.4136   14.9855 H   0  0  0  0  0  0  0  0  0  0  0  0
  1  2  1  0  0  0  0
  1 28  1  0  0  0  0
  1  4  1  0  0  0  0
  3  1  1  0  0  0  0
  4 15  1  0  0  0  0
  5 16  2  0  0  0  0
  7  4  1  0  0  0  0
  7  9  1  0  0  0  0
  8  7  1  0  0  0  0
  9 11  2  0  0  0  0
 10  9  1  0  0  0  0
 11 13  1  0  0  0  0
 11 12  1  0  0  0  0
 13 14  1  0  0  0  0
 15 13  2  0  0  0  0
 16 15  1  0  0  0  0
 16  6  1  0  0  0  0
 17  6  1  0  0  0  0
 17 20  1  0  0  0  0
 17 18  1  0  0  0  0
 19 17  1  0  0  0  0
 20 23  1  0  0  0  0
 20 22  1  0  0  0  0
 21 20  1  0  0  0  0
 23 24  1  0  0  0  0
 23 25  1  0  0  0  0
 26 23  1  0  0  0  0
 27  1  1  0  0  0  0
 27 38  1  0  0  0  0
 28 39  1  0  0  0  0
 29 40  1  0  0  0  0
 30 32  1  0  0  0  0
 30 27  1  0  0  0  0
 31 30  1  0  0  0  0
 32 34  2  0  0  0  0
 33 32  1  0  0  0  0
 34 35  1  0  0  0  0
 34 36  1  0  0  0  0
 36 37  1  0  0  0  0
 38 36  2  0  0  0  0
 38 39  1  0  0  0  0
 39 29  1  6  0  0  0
 40 42  1  0  0  0  0
 40 43  1  0  0  0  0
 41 40  1  0  0  0  0
 43 44  1  0  0  0  0
 43 46  1  0  0  0  0
 45 43  1  0  0  0  0
 46 47  1  0  0  0  0
 46 48  1  0  0  0  0
 49 46  1  0  0  0  0
M  END
$$$$
