CSD_code = BEGQOU | q = 0 | S = 0 | Stoichiometry = C24H24Br2N2O2PRe | MND = 6
 OpenBabel04212202013D

 56 60  0  0  1  0  0  0  0  0999 V2000
    6.7352    1.7547   35.2914 Re  0  0  0  0  0  0  0  0  0  0  0  0
    6.7998    3.7117   33.8254 Br  0  0  0  0  0  0  0  0  0  0  0  0
    7.9844    2.9842   37.0984 Br  0  0  0  0  0  0  0  0  0  0  0  0
    8.1101    1.0222   34.7401 O   0  0  0  0  0  1  0  0  0  0  0  0
    5.4669    0.5568   33.4761 P   0  0  0  0  0  4  0  0  0  0  0  0
    6.5748   -0.2009   32.2550 C   0  0  0  0  0  0  0  0  0  0  0  0
    6.3302   -1.4643   31.7235 C   0  0  0  0  0  0  0  0  0  0  0  0
    5.4675   -2.0323   32.0444 H   0  0  0  0  0  0  0  0  0  0  0  0
    7.1953   -1.9923   30.7824 C   0  0  0  0  0  0  0  0  0  0  0  0
    7.0049   -2.9739   30.3733 H   0  0  0  0  0  0  0  0  0  0  0  0
    8.3010   -1.2675   30.3673 C   0  0  0  0  0  0  0  0  0  0  0  0
    8.9753   -1.6877   29.6361 H   0  0  0  0  0  0  0  0  0  0  0  0
    8.5424   -0.0078   30.8912 C   0  0  0  0  0  0  0  0  0  0  0  0
    9.4035    0.5580   30.5704 H   0  0  0  0  0  0  0  0  0  0  0  0
    7.6836    0.5286   31.8332 C   0  0  0  0  0  0  0  0  0  0  0  0
    7.8789    1.5072   32.2494 H   0  0  0  0  0  0  0  0  0  0  0  0
    4.2878    1.5261   32.4934 C   0  0  0  0  0  0  0  0  0  0  0  0
    3.5715    2.5479   33.1105 C   0  0  0  0  0  0  0  0  0  0  0  0
    3.7478    2.7747   34.1529 H   0  0  0  0  0  0  0  0  0  0  0  0
    2.6583    3.2882   32.3836 C   0  0  0  0  0  0  0  0  0  0  0  0
    2.1103    4.0860   32.8620 H   0  0  0  0  0  0  0  0  0  0  0  0
    2.4589    3.0147   31.0403 C   0  0  0  0  0  0  0  0  0  0  0  0
    1.7504    3.5977   30.4709 H   0  0  0  0  0  0  0  0  0  0  0  0
    3.1762    2.0032   30.4224 C   0  0  0  0  0  0  0  0  0  0  0  0
    3.0280    1.7975   29.3726 H   0  0  0  0  0  0  0  0  0  0  0  0
    4.0924    1.2582   31.1422 C   0  0  0  0  0  0  0  0  0  0  0  0
    4.6600    0.4765   30.6573 H   0  0  0  0  0  0  0  0  0  0  0  0
    4.5025   -0.8282   34.1362 C   0  0  0  0  0  0  0  0  0  0  0  0
    5.2105   -1.8422   34.7809 C   0  0  0  0  0  0  0  0  0  0  0  0
    6.2922   -1.8027   34.7844 H   0  0  0  0  0  0  0  0  0  0  0  0
    4.5349   -2.8770   35.3968 C   0  0  0  0  0  0  0  0  0  0  0  0
    5.0863   -3.6595   35.8963 H   0  0  0  0  0  0  0  0  0  0  0  0
    3.1480   -2.9064   35.3762 C   0  0  0  0  0  0  0  0  0  0  0  0
    2.6187   -3.7118   35.8629 H   0  0  0  0  0  0  0  0  0  0  0  0
    2.4410   -1.9073   34.7280 C   0  0  0  0  0  0  0  0  0  0  0  0
    1.3615   -1.9354   34.7055 H   0  0  0  0  0  0  0  0  0  0  0  0
    3.1125   -0.8649   34.1102 C   0  0  0  0  0  0  0  0  0  0  0  0
    2.5617   -0.0855   33.6005 H   0  0  0  0  0  0  0  0  0  0  0  0
    6.2364    0.2696   36.8432 N   0  0  0  0  0  0  0  0  0  0  0  0
    5.1313    0.5795   37.5043 N   0  0  1  0  0  0  0  0  0  0  0  0
    4.9014   -0.3077   38.4806 C   0  0  0  0  0  3  0  0  0  0  0  0
    4.0558   -0.2304   39.1322 H   0  0  0  0  0  0  0  0  0  0  0  0
    5.9234   -1.2329   38.4384 C   0  0  0  0  0  0  0  0  0  0  0  0
    6.0616   -2.0795   39.0778 H   0  0  0  0  0  0  0  0  0  0  0  0
    6.7450   -0.8192   37.3900 C   0  0  0  0  0  0  0  0  0  0  0  0
    7.6615   -1.2362   37.0228 H   0  0  0  0  0  0  0  0  0  0  0  0
    4.4206    1.8223   37.1053 C   0  0  0  0  0  0  0  0  0  0  0  0
    2.9579    1.4630   36.7960 C   0  0  0  0  0  0  0  0  0  0  0  0
    2.4418    2.3544   36.4479 H   0  0  0  0  0  0  0  0  0  0  0  0
    2.4606    1.0929   37.6879 H   0  0  0  0  0  0  0  0  0  0  0  0
    2.9141    0.7022   36.0179 H   0  0  0  0  0  0  0  0  0  0  0  0
    4.5029    2.8216   38.2714 C   0  0  0  0  0  0  0  0  0  0  0  0
    5.5436    3.0372   38.5077 H   0  0  0  0  0  0  0  0  0  0  0  0
    4.0065    2.4209   39.1507 H   0  0  0  0  0  0  0  0  0  0  0  0
    4.0209    3.7493   37.9733 H   0  0  0  0  0  0  0  0  0  0  0  0
    5.0758    2.2762   36.0095 O   0  0  0  0  0  0  0  0  0  0  0  0
  1 56  1  0  0  0  0
  1 39  1  0  0  0  0
  1  3  1  0  0  0  0
  2  1  1  0  0  0  0
  4  1  1  0  0  0  0
  5 28  1  0  0  0  0
  5  1  1  0  0  0  0
  6  5  1  0  0  0  0
  7  8  1  0  0  0  0
  7  6  2  0  0  0  0
  9  7  1  0  0  0  0
 10  9  1  0  0  0  0
 11  9  2  0  0  0  0
 11 13  1  0  0  0  0
 12 11  1  0  0  0  0
 13 15  2  0  0  0  0
 14 13  1  0  0  0  0
 15 16  1  0  0  0  0
 15  6  1  0  0  0  0
 17 18  1  0  0  0  0
 17  5  1  0  0  0  0
 18 19  1  0  0  0  0
 20 21  1  0  0  0  0
 20 18  2  0  0  0  0
 22 20  1  0  0  0  0
 23 22  1  0  0  0  0
 24 22  2  0  0  0  0
 24 26  1  0  0  0  0
 25 24  1  0  0  0  0
 26 17  2  0  0  0  0
 27 26  1  0  0  0  0
 28 29  1  0  0  0  0
 29 30  1  0  0  0  0
 29 31  2  0  0  0  0
 31 32  1  0  0  0  0
 33 31  1  0  0  0  0
 33 34  1  0  0  0  0
 35 33  2  0  0  0  0
 36 35  1  0  0  0  0
 37 28  2  0  0  0  0
 37 35  1  0  0  0  0
 38 37  1  0  0  0  0
 39 45  1  0  0  0  0
 39 40  1  0  0  0  0
 40 41  1  1  0  0  0
 41 42  1  0  0  0  0
 43 41  1  0  0  0  0
 43 44  1  0  0  0  0
 45 43  2  0  0  0  0
 46 45  1  0  0  0  0
 47 40  1  0  0  0  0
 47 52  1  0  0  0  0
 48 47  1  0  0  0  0
 48 50  1  0  0  0  0
 49 48  1  0  0  0  0
 51 48  1  0  0  0  0
 52 53  1  0  0  0  0
 52 54  1  0  0  0  0
 55 52  1  0  0  0  0
 56 47  1  0  0  0  0
M  END
$$$$
