CSD_code = BEGTEP | q = 0 | S = 0 | Stoichiometry = C14H19Cl3N4O2Zn | MND = 4
 OpenBabel04212202013D

 43 44  0  0  1  0  0  0  0  0999 V2000
    5.5448    2.6129   13.9682 Zn  0  0  0  0  0  0  0  0  0  0  0  0
    5.1558    1.4973   11.8850 Cl  0  0  0  0  0  0  0  0  0  0  0  0
    4.4012    4.4919   14.2429 Cl  0  0  0  0  0  0  0  0  0  0  0  0
    6.8149    1.2857   15.2303 Cl  0  0  0  0  0  0  0  0  0  0  0  0
   11.4989    1.3394   12.7794 O   0  0  0  0  0  0  0  0  0  0  0  0
    4.1566    5.8808    8.7335 O   0  0  0  0  0  0  0  0  0  0  0  0
    7.4506    3.5130   12.9265 N   0  0  0  0  0  0  0  0  0  0  0  0
    8.8726    2.2985   11.7376 N   0  0  0  0  0  0  0  0  0  0  0  0
    6.7541    2.2071    9.5499 N   0  0  0  0  0  0  0  0  0  0  0  0
    7.0737    1.2498    9.5985 H   0  0  0  0  0  0  0  0  0  0  0  0
    6.0100    4.1069   10.3289 N   0  0  0  0  0  0  0  0  0  0  0  0
    9.4225    1.4509   10.7090 C   0  0  0  0  0  0  0  0  0  0  0  0
   10.5073    1.4335   10.8336 H   0  0  0  0  0  0  0  0  0  0  0  0
    9.1902    1.8794    9.7297 H   0  0  0  0  0  0  0  0  0  0  0  0
    8.8751    0.0223   10.8455 C   0  0  0  0  0  0  0  0  0  0  0  0
    9.3321   -0.4379   11.7226 H   0  0  0  0  0  0  0  0  0  0  0  0
    7.7962    0.0461   11.0293 H   0  0  0  0  0  0  0  0  0  0  0  0
    8.5180    3.2483   13.6923 C   0  0  0  0  0  0  0  0  0  0  0  0
    8.5836    3.6115   14.6981 H   0  0  0  0  0  0  0  0  0  0  0  0
    9.1961   -0.8106    9.6117 C   0  0  0  0  0  0  0  0  0  0  0  0
    8.7611   -0.3779    8.7115 H   0  0  0  0  0  0  0  0  0  0  0  0
    8.8054   -1.8172    9.7296 H   0  0  0  0  0  0  0  0  0  0  0  0
   10.2720   -0.8770    9.4710 H   0  0  0  0  0  0  0  0  0  0  0  0
    9.4312    2.4863   12.9821 C   0  0  0  0  0  0  0  0  0  0  0  0
    7.6793    2.9370   11.7458 C   0  0  2  0  0  3  0  0  0  0  0  0
    6.7744    3.0442   10.6208 C   0  0  2  0  0  3  0  0  0  0  0  0
    5.4120    3.8867    9.1016 C   0  0  0  0  0  0  0  0  0  0  0  0
    5.8694    2.6786    8.6429 C   0  0  0  0  0  0  0  0  0  0  0  0
    5.6373    2.1531    7.7389 H   0  0  0  0  0  0  0  0  0  0  0  0
   10.7093    1.9778   13.4341 C   0  0  0  0  0  0  0  0  0  0  0  0
   10.9097    2.2462   14.4849 H   0  0  0  0  0  0  0  0  0  0  0  0
    4.4821    4.7722    8.4054 C   0  0  0  0  0  0  0  0  0  0  0  0
    4.0955    4.3012    7.4832 H   0  0  0  0  0  0  0  0  0  0  0  0
    5.7995    5.2785   11.1479 C   0  0  0  0  0  0  0  0  0  0  0  0
    4.9102    5.7886   10.7791 H   0  0  0  0  0  0  0  0  0  0  0  0
    5.6198    4.9693   12.1801 H   0  0  0  0  0  0  0  0  0  0  0  0
    6.9932    6.2338   11.0898 C   0  0  0  0  0  0  0  0  0  0  0  0
    7.1448    6.5706   10.0611 H   0  0  0  0  0  0  0  0  0  0  0  0
    7.8963    5.7156   11.4190 H   0  0  0  0  0  0  0  0  0  0  0  0
    6.7309    7.4291   11.9948 C   0  0  0  0  0  0  0  0  0  0  0  0
    5.8567    7.9770   11.6542 H   0  0  0  0  0  0  0  0  0  0  0  0
    7.5842    8.1020   11.9933 H   0  0  0  0  0  0  0  0  0  0  0  0
    6.5502    7.0932   13.0120 H   0  0  0  0  0  0  0  0  0  0  0  0
  1  3  1  0  0  0  0
  1  4  1  0  0  0  0
  2  1  1  0  0  0  0
  5 30  2  0  0  0  0
  7 18  1  0  0  0  0
  7  1  1  0  0  0  0
  8 24  1  0  0  0  0
  9 10  1  0  0  0  0
 11 26  1  0  0  0  0
 11 34  1  0  0  0  0
 12 13  1  0  0  0  0
 12 15  1  0  0  0  0
 12  8  1  0  0  0  0
 14 12  1  0  0  0  0
 15 17  1  0  0  0  0
 15 16  1  0  0  0  0
 18 19  1  0  0  0  0
 20 22  1  0  0  0  0
 20 15  1  0  0  0  0
 21 20  1  0  0  0  0
 23 20  1  0  0  0  0
 24 30  1  0  0  0  0
 24 18  2  0  0  0  0
 25  8  1  6  0  0  0
 25  7  1  0  0  0  0
 26  9  1  6  0  0  0
 26 25  1  0  0  0  0
 27 11  1  0  0  0  0
 28 27  2  0  0  0  0
 28  9  1  0  0  0  0
 29 28  1  0  0  0  0
 30 31  1  0  0  0  0
 32  6  2  0  0  0  0
 32 27  1  0  0  0  0
 33 32  1  0  0  0  0
 34 36  1  0  0  0  0
 35 34  1  0  0  0  0
 37 34  1  0  0  0  0
 37 39  1  0  0  0  0
 37 40  1  0  0  0  0
 38 37  1  0  0  0  0
 40 43  1  0  0  0  0
 41 40  1  0  0  0  0
 42 40  1  0  0  0  0
M  END
$$$$
