CSD_code = BEHFIF | q = 0 | S = 0 | Stoichiometry = C6H8BrCuN4O2S2 | MND = 3
 OpenBabel04212202013D

 24 25  0  0  1  0  0  0  0  0999 V2000
    1.6661    2.8542    1.0595 Cu  0  0  0  0  0  0  0  0  0  0  0  0
    1.2663    2.1416    3.2308 Br  0  0  0  0  0  0  0  0  0  0  0  0
   -4.1538    5.8478    1.6956 O   0  0  0  0  0  0  0  0  0  0  0  0
    0.1505    4.1992   -0.0643 S   0  0  0  0  0  0  0  0  0  0  0  0
    7.1799   -0.6821    1.6374 O   0  0  0  0  0  0  0  0  0  0  0  0
    3.5902    2.2375   -0.0753 S   0  0  0  0  0  0  0  0  0  0  0  0
   -1.2640    3.9643    2.2356 N   0  0  0  0  0  0  0  0  0  0  0  0
   -0.5891    3.3736    2.7238 H   0  0  0  0  0  0  0  0  0  0  0  0
   -1.1004    4.4299    0.9998 C   0  0  2  0  0  3  0  0  0  0  0  0
   -2.1975    5.1948    0.6823 N   0  0  0  0  0  0  0  0  0  0  0  0
   -2.3011    5.6540   -0.2102 H   0  0  0  0  0  0  0  0  0  0  0  0
   -3.1152    5.2541    1.7071 C   0  0  0  0  0  0  0  0  0  0  0  0
   -2.5023    4.4077    2.8160 C   0  0  0  0  0  0  0  0  0  0  0  0
   -2.3409    5.0037    3.7196 H   0  0  0  0  0  0  0  0  0  0  0  0
   -3.1565    3.5693    3.0744 H   0  0  0  0  0  0  0  0  0  0  0  0
    4.1143    0.8860    2.2148 N   0  0  0  0  0  0  0  0  0  0  0  0
    3.2677    1.1704    2.7101 H   0  0  0  0  0  0  0  0  0  0  0  0
    4.4240    1.2641    0.9772 C   0  0  1  0  0  3  0  0  0  0  0  0
    5.6311    0.6958    0.6460 N   0  0  0  0  0  0  0  0  0  0  0  0
    6.0724    0.8382   -0.2502 H   0  0  0  0  0  0  0  0  0  0  0  0
    6.1485   -0.0763    1.6619 C   0  0  0  0  0  0  0  0  0  0  0  0
    5.1198    0.0287    2.7811 C   0  0  0  0  0  0  0  0  0  0  0  0
    4.7197   -0.9572    3.0375 H   0  0  0  0  0  0  0  0  0  0  0  0
    5.5651    0.4597    3.6830 H   0  0  0  0  0  0  0  0  0  0  0  0
  1  2  1  0  0  0  0
  3 12  2  0  0  0  0
  4  1  1  0  0  0  0
  5 21  2  0  0  0  0
  6  1  1  0  0  0  0
  7  8  1  0  0  0  0
  7 13  1  0  0  0  0
  9  4  1  6  0  0  0
  9  7  1  0  0  0  0
 10  9  1  0  0  0  0
 10 12  1  0  0  0  0
 11 10  1  0  0  0  0
 12 13  1  0  0  0  0
 13 15  1  0  0  0  0
 13 14  1  0  0  0  0
 16 17  1  0  0  0  0
 16 22  1  0  0  0  0
 18  6  1  6  0  0  0
 18 16  1  0  0  0  0
 19 18  1  0  0  0  0
 19 21  1  0  0  0  0
 20 19  1  0  0  0  0
 21 22  1  0  0  0  0
 22 23  1  0  0  0  0
 22 24  1  0  0  0  0
M  END
$$$$
