CSD_code = BEHFOL | q = 0 | S = 0 | Stoichiometry = C39H34ClCuN2OP2S | MND = 4
 OpenBabel04212202013D

 81 87  0  0  1  0  0  0  0  0999 V2000
   14.7572    3.2029   17.0774 Cu  0  0  0  0  0  0  0  0  0  0  0  0
   16.5689    4.1854   17.9858 Cl  0  0  0  0  0  0  0  0  0  0  0  0
   12.6750    4.1705   18.4785 S   0  0  0  0  0  0  0  0  0  0  0  0
   13.4011    4.4025   23.3570 O   0  0  0  0  0  0  0  0  0  0  0  0
   14.6715    4.8637   20.1270 N   0  0  0  0  0  0  0  0  0  0  0  0
   13.4356    4.4245   19.9189 C   0  0  1  0  0  3  0  0  0  0  0  0
   12.8183    4.2458   21.1414 N   0  0  0  0  0  0  0  0  0  0  0  0
   13.6640    4.4988   22.1895 C   0  0  0  0  0  0  0  0  0  0  0  0
   14.9692    4.9254   21.5325 C   0  0  0  0  0  0  0  0  0  0  0  0
   15.2463    5.9390   21.8391 H   0  0  0  0  0  0  0  0  0  0  0  0
   15.7838    4.2500   21.8085 H   0  0  0  0  0  0  0  0  0  0  0  0
   14.3923    1.1579   17.9665 P   0  0  0  0  0  4  0  0  0  0  0  0
   15.7957    0.0762   17.5556 C   0  0  0  0  0  0  0  0  0  0  0  0
   16.4253    0.3224   16.3392 C   0  0  0  0  0  0  0  0  0  0  0  0
   16.0657    1.1331   15.7144 H   0  0  0  0  0  0  0  0  0  0  0  0
   17.5048   -0.4440   15.9425 C   0  0  0  0  0  0  0  0  0  0  0  0
   17.9902   -0.2440   14.9982 H   0  0  0  0  0  0  0  0  0  0  0  0
   17.9656   -1.4592   16.7652 C   0  0  0  0  0  0  0  0  0  0  0  0
   18.8132   -2.0562   16.4627 H   0  0  0  0  0  0  0  0  0  0  0  0
   17.3456   -1.7054   17.9803 C   0  0  0  0  0  0  0  0  0  0  0  0
   17.7101   -2.4949   18.6216 H   0  0  0  0  0  0  0  0  0  0  0  0
   16.2628   -0.9430   18.3795 C   0  0  0  0  0  0  0  0  0  0  0  0
   15.7820   -1.1316   19.3298 H   0  0  0  0  0  0  0  0  0  0  0  0
   12.9483    0.1607   17.4787 C   0  0  0  0  0  0  0  0  0  0  0  0
   11.7209    0.8183   17.4261 C   0  0  0  0  0  0  0  0  0  0  0  0
   11.6734    1.8723   17.6664 H   0  0  0  0  0  0  0  0  0  0  0  0
   10.5792    0.1301   17.0640 C   0  0  0  0  0  0  0  0  0  0  0  0
    9.6294    0.6433   17.0333 H   0  0  0  0  0  0  0  0  0  0  0  0
   10.6573   -1.2130   16.7320 C   0  0  0  0  0  0  0  0  0  0  0  0
    9.7661   -1.7519   16.4456 H   0  0  0  0  0  0  0  0  0  0  0  0
   11.8799   -1.8630   16.7586 C   0  0  0  0  0  0  0  0  0  0  0  0
   11.9420   -2.9085   16.4920 H   0  0  0  0  0  0  0  0  0  0  0  0
   13.0258   -1.1825   17.1300 C   0  0  0  0  0  0  0  0  0  0  0  0
   13.9775   -1.6947   17.1500 H   0  0  0  0  0  0  0  0  0  0  0  0
   14.3477    1.0994   19.7810 C   0  0  0  0  0  0  0  0  0  0  0  0
   15.5103    1.4926   20.4443 C   0  0  0  0  0  0  0  0  0  0  0  0
   16.3892    1.7476   19.8658 H   0  0  0  0  0  0  0  0  0  0  0  0
   15.5299    1.5610   21.8240 C   0  0  0  0  0  0  0  0  0  0  0  0
   16.4388    1.8413   22.3377 H   0  0  0  0  0  0  0  0  0  0  0  0
   14.3848    1.2719   22.5514 C   0  0  0  0  0  0  0  0  0  0  0  0
   14.3966    1.3396   23.6284 H   0  0  0  0  0  0  0  0  0  0  0  0
   13.2213    0.9116   21.8922 C   0  0  0  0  0  0  0  0  0  0  0  0
   12.3270    0.6963   22.4587 H   0  0  0  0  0  0  0  0  0  0  0  0
   13.1969    0.8239   20.5109 C   0  0  0  0  0  0  0  0  0  0  0  0
   12.2884    0.5399   19.9981 H   0  0  0  0  0  0  0  0  0  0  0  0
   14.1372    3.5411   14.9691 P   0  0  0  0  0  4  0  0  0  0  0  0
   12.7213    2.5328   14.4513 C   0  0  0  0  0  0  0  0  0  0  0  0
   11.4286    3.0461   14.4514 C   0  0  0  0  0  0  0  0  0  0  0  0
   11.2675    4.0902   14.6806 H   0  0  0  0  0  0  0  0  0  0  0  0
   10.3588    2.2193   14.1606 C   0  0  0  0  0  0  0  0  0  0  0  0
    9.3567    2.6231   14.1524 H   0  0  0  0  0  0  0  0  0  0  0  0
   10.5677    0.8786   13.8827 C   0  0  0  0  0  0  0  0  0  0  0  0
    9.7305    0.2373   13.6501 H   0  0  0  0  0  0  0  0  0  0  0  0
   11.8508    0.3555   13.9149 C   0  0  0  0  0  0  0  0  0  0  0  0
   12.0134   -0.6938   13.7167 H   0  0  0  0  0  0  0  0  0  0  0  0
   12.9225    1.1742   14.2112 C   0  0  0  0  0  0  0  0  0  0  0  0
   13.9247    0.7662   14.2521 H   0  0  0  0  0  0  0  0  0  0  0  0
   13.6841    5.2395   14.4979 C   0  0  0  0  0  0  0  0  0  0  0  0
   13.2093    5.5653   13.2309 C   0  0  0  0  0  0  0  0  0  0  0  0
   13.0668    4.7899   12.4911 H   0  0  0  0  0  0  0  0  0  0  0  0
   12.9190    6.8820   12.9289 C   0  0  0  0  0  0  0  0  0  0  0  0
   12.5481    7.1391   11.9471 H   0  0  0  0  0  0  0  0  0  0  0  0
   13.1052    7.8739   13.8804 C   0  0  0  0  0  0  0  0  0  0  0  0
   12.8770    8.9011   13.6361 H   0  0  0  0  0  0  0  0  0  0  0  0
   13.5837    7.5516   15.1391 C   0  0  0  0  0  0  0  0  0  0  0  0
   13.7303    8.3250   15.8785 H   0  0  0  0  0  0  0  0  0  0  0  0
   13.8754    6.2351   15.4490 C   0  0  0  0  0  0  0  0  0  0  0  0
   14.2511    5.9644   16.4277 H   0  0  0  0  0  0  0  0  0  0  0  0
   15.4116    3.1734   13.7187 C   0  0  0  0  0  0  0  0  0  0  0  0
   15.1417    2.6943   12.4416 C   0  0  0  0  0  0  0  0  0  0  0  0
   14.1234    2.4886   12.1419 H   0  0  0  0  0  0  0  0  0  0  0  0
   16.1832    2.4677   11.5601 C   0  0  0  0  0  0  0  0  0  0  0  0
   15.9728    2.0941   10.5682 H   0  0  0  0  0  0  0  0  0  0  0  0
   17.4916    2.7168   11.9428 C   0  0  0  0  0  0  0  0  0  0  0  0
   18.2993    2.5342   11.2493 H   0  0  0  0  0  0  0  0  0  0  0  0
   17.7642    3.1965   13.2137 C   0  0  0  0  0  0  0  0  0  0  0  0
   18.7832    3.3890   13.5154 H   0  0  0  0  0  0  0  0  0  0  0  0
   16.7276    3.4236   14.0995 C   0  0  0  0  0  0  0  0  0  0  0  0
   16.9280    3.7921   15.0978 H   0  0  0  0  0  0  0  0  0  0  0  0
   15.4116    4.7993   19.3901 H   0  0  0  0  0  0  0  0  0  0  0  0
   11.8642    3.9322   21.2311 H   0  0  0  0  0  0  0  0  0  0  0  0
  1 12  1  0  0  0  0
  1  2  1  0  0  0  0
  1  3  1  0  0  0  0
  5  9  1  0  0  0  0
  6  3  1  6  0  0  0
  6  5  1  0  0  0  0
  6  7  1  0  0  0  0
  7 81  1  0  0  0  0
  7  8  1  0  0  0  0
  8  4  2  0  0  0  0
  9 11  1  0  0  0  0
  9 10  1  0  0  0  0
  9  8  1  0  0  0  0
 12 35  1  0  0  0  0
 13 12  1  0  0  0  0
 13 22  1  0  0  0  0
 14 13  2  0  0  0  0
 15 14  1  0  0  0  0
 16 14  1  0  0  0  0
 16 18  2  0  0  0  0
 17 16  1  0  0  0  0
 18 20  1  0  0  0  0
 19 18  1  0  0  0  0
 20 22  2  0  0  0  0
 20 21  1  0  0  0  0
 22 23  1  0  0  0  0
 24 12  1  0  0  0  0
 25 24  1  0  0  0  0
 25 26  1  0  0  0  0
 27 25  2  0  0  0  0
 28 27  1  0  0  0  0
 29 31  2  0  0  0  0
 29 27  1  0  0  0  0
 30 29  1  0  0  0  0
 31 33  1  0  0  0  0
 32 31  1  0  0  0  0
 33 34  1  0  0  0  0
 33 24  2  0  0  0  0
 35 36  2  0  0  0  0
 35 44  1  0  0  0  0
 36 38  1  0  0  0  0
 37 36  1  0  0  0  0
 38 39  1  0  0  0  0
 38 40  2  0  0  0  0
 40 41  1  0  0  0  0
 42 43  1  0  0  0  0
 42 40  1  0  0  0  0
 44 42  2  0  0  0  0
 45 44  1  0  0  0  0
 46  1  1  0  0  0  0
 47 48  1  0  0  0  0
 47 46  1  0  0  0  0
 48 49  1  0  0  0  0
 50 48  2  0  0  0  0
 51 50  1  0  0  0  0
 52 54  2  0  0  0  0
 52 50  1  0  0  0  0
 53 52  1  0  0  0  0
 54 56  1  0  0  0  0
 55 54  1  0  0  0  0
 56 57  1  0  0  0  0
 56 47  2  0  0  0  0
 58 46  1  0  0  0  0
 58 67  1  0  0  0  0
 59 58  2  0  0  0  0
 60 59  1  0  0  0  0
 61 59  1  0  0  0  0
 61 63  2  0  0  0  0
 62 61  1  0  0  0  0
 63 65  1  0  0  0  0
 64 63  1  0  0  0  0
 65 67  2  0  0  0  0
 65 66  1  0  0  0  0
 67 68  1  0  0  0  0
 69 78  1  0  0  0  0
 69 46  1  0  0  0  0
 70 69  2  0  0  0  0
 71 70  1  0  0  0  0
 72 74  2  0  0  0  0
 72 70  1  0  0  0  0
 73 72  1  0  0  0  0
 74 76  1  0  0  0  0
 75 74  1  0  0  0  0
 76 77  1  0  0  0  0
 76 78  2  0  0  0  0
 78 79  1  0  0  0  0
 80  5  1  0  0  0  0
M  END
$$$$
