CSD_code = BEHHIF | q = 0 | S = 0 | Stoichiometry = C16H28Cl3NOPTa | MND = 6
 OpenBabel04212202013D

 51 51  0  0  0  0  0  0  0  0999 V2000
    0.9275    1.9386    3.9526 Ta  0  0  0  0  0  0  0  0  0  0  0  0
    0.5432    4.5599    3.7923 P   0  0  0  0  0  4  0  0  0  0  0  0
    0.0766    2.3404    6.0845 Cl  0  0  0  0  0  0  0  0  0  0  0  0
    2.5325    2.3970    2.3294 Cl  0  0  0  0  0  0  0  0  0  0  0  0
    1.7487   -0.1259    4.4797 Cl  0  0  0  0  0  0  0  0  0  0  0  0
    3.1275    2.5511    5.3552 O   0  0  0  0  0  0  0  0  0  0  0  0
   -0.5386    1.7244    2.9343 N   0  0  0  0  0  2  0  0  0  0  0  0
   -1.5830    1.5468    2.1213 C   0  0  0  0  0  0  0  0  0  0  0  0
   -2.8306    1.1113    2.6065 C   0  0  0  0  0  0  0  0  0  0  0  0
   -3.9010    0.9632    1.7506 C   0  0  0  0  0  0  0  0  0  0  0  0
   -3.7673    1.2420    0.3983 C   0  0  0  0  0  0  0  0  0  0  0  0
   -2.5430    1.6673   -0.0969 C   0  0  0  0  0  0  0  0  0  0  0  0
   -1.4622    1.8186    0.7441 C   0  0  0  0  0  0  0  0  0  0  0  0
    0.3560    5.0824    2.0350 C   0  0  0  0  0  0  0  0  0  0  0  0
    0.0170    6.5480    1.7928 C   0  0  0  0  0  0  0  0  0  0  0  0
   -0.9789    5.1723    4.6304 C   0  0  0  0  0  0  0  0  0  0  0  0
   -2.2173    4.4162    4.1696 C   0  0  0  0  0  0  0  0  0  0  0  0
    1.8104    5.6965    4.5110 C   0  0  0  0  0  0  0  0  0  0  0  0
    3.1270    5.6570    3.7452 C   0  0  0  0  0  0  0  0  0  0  0  0
    4.3759    2.0072    4.9106 C   0  0  0  0  0  0  0  0  0  0  0  0
    5.3531    2.0695    6.0941 C   0  0  0  0  0  0  0  0  0  0  0  0
    4.5939    2.8953    7.1336 C   0  0  0  0  0  0  0  0  0  0  0  0
    3.1505    2.5657    6.7764 C   0  0  0  0  0  0  0  0  0  0  0  0
   -2.9202    0.8911    3.6601 H   0  0  0  0  0  0  0  0  0  0  0  0
   -4.8511    0.6241    2.1376 H   0  0  0  0  0  0  0  0  0  0  0  0
   -4.6097    1.1236   -0.2664 H   0  0  0  0  0  0  0  0  0  0  0  0
   -2.4341    1.8789   -1.1511 H   0  0  0  0  0  0  0  0  0  0  0  0
   -0.4983    2.1378    0.3743 H   0  0  0  0  0  0  0  0  0  0  0  0
    1.2938    4.8104    1.5435 H   0  0  0  0  0  0  0  0  0  0  0  0
   -0.4202    4.4322    1.6213 H   0  0  0  0  0  0  0  0  0  0  0  0
   -0.0224    6.7400    0.7227 H   0  0  0  0  0  0  0  0  0  0  0  0
    0.7668    7.2063    2.2247 H   0  0  0  0  0  0  0  0  0  0  0  0
   -0.9526    6.8028    2.2127 H   0  0  0  0  0  0  0  0  0  0  0  0
   -0.8281    5.0090    5.7006 H   0  0  0  0  0  0  0  0  0  0  0  0
   -1.0788    6.2465    4.4517 H   0  0  0  0  0  0  0  0  0  0  0  0
   -3.0943    4.7616    4.7126 H   0  0  0  0  0  0  0  0  0  0  0  0
   -2.0868    3.3528    4.3583 H   0  0  0  0  0  0  0  0  0  0  0  0
   -2.3939    4.5550    3.1056 H   0  0  0  0  0  0  0  0  0  0  0  0
    1.4021    6.7110    4.5459 H   0  0  0  0  0  0  0  0  0  0  0  0
    1.9624    5.3609    5.5411 H   0  0  0  0  0  0  0  0  0  0  0  0
    3.9075    6.1717    4.3029 H   0  0  0  0  0  0  0  0  0  0  0  0
    3.0276    6.1385    2.7754 H   0  0  0  0  0  0  0  0  0  0  0  0
    3.4345    4.6274    3.5778 H   0  0  0  0  0  0  0  0  0  0  0  0
    4.7068    2.6092    4.0606 H   0  0  0  0  0  0  0  0  0  0  0  0
    4.2215    0.9776    4.5692 H   0  0  0  0  0  0  0  0  0  0  0  0
    6.3013    2.5221    5.8123 H   0  0  0  0  0  0  0  0  0  0  0  0
    5.5483    1.0678    6.4760 H   0  0  0  0  0  0  0  0  0  0  0  0
    4.7801    3.9606    6.9897 H   0  0  0  0  0  0  0  0  0  0  0  0
    4.8418    2.6254    8.1570 H   0  0  0  0  0  0  0  0  0  0  0  0
    2.4230    3.3036    7.1161 H   0  0  0  0  0  0  0  0  0  0  0  0
    2.8670    1.5789    7.1670 H   0  0  0  0  0  0  0  0  0  0  0  0
  1  5  1  0  0  0  0
  1  3  1  0  0  0  0
  2  1  1  0  0  0  0
  2 18  1  0  0  0  0
  2 16  1  0  0  0  0
  4  1  1  0  0  0  0
  6 23  1  0  0  0  0
  7  1  1  0  0  0  0
  8  9  1  0  0  0  0
  8  7  1  0  0  0  0
  9 24  1  0  0  0  0
 10 25  1  0  0  0  0
 10  9  2  0  0  0  0
 11 10  1  0  0  0  0
 12 11  2  0  0  0  0
 12 13  1  0  0  0  0
 13  8  2  0  0  0  0
 14  2  1  0  0  0  0
 15 14  1  0  0  0  0
 15 33  1  0  0  0  0
 15 32  1  0  0  0  0
 16 34  1  0  0  0  0
 17 37  1  0  0  0  0
 17 16  1  0  0  0  0
 17 36  1  0  0  0  0
 18 39  1  0  0  0  0
 18 40  1  0  0  0  0
 19 41  1  0  0  0  0
 19 18  1  0  0  0  0
 20  6  1  0  0  0  0
 20 21  1  0  0  0  0
 21 47  1  0  0  0  0
 21 22  1  0  0  0  0
 22 49  1  0  0  0  0
 23 50  1  0  0  0  0
 23 22  1  0  0  0  0
 23 51  1  0  0  0  0
 26 11  1  0  0  0  0
 27 12  1  0  0  0  0
 28 13  1  0  0  0  0
 29 14  1  0  0  0  0
 30 14  1  0  0  0  0
 31 15  1  0  0  0  0
 35 16  1  0  0  0  0
 38 17  1  0  0  0  0
 42 19  1  0  0  0  0
 43 19  1  0  0  0  0
 44 20  1  0  0  0  0
 45 20  1  0  0  0  0
 46 21  1  0  0  0  0
 48 22  1  0  0  0  0
M  END
$$$$
