CSD_code = BEHHEC | q = 0 | S = 0 | Stoichiometry = C16H26ClN2Rh | MND = 6
 OpenBabel04212202013D

 46 46  0  0  1  0  0  0  0  0999 V2000
   -0.9659    8.0640    9.9356 Cl  0  0  0  0  0 15  0  0  0  0  0  0
   -0.6524    5.8828    9.3699 Rh  0  0  0  0  0  0  0  0  0  0  0  0
   -2.3807    6.6990    7.0444 N   0  0  0  0  0  0  0  0  0  0  0  0
   -0.2990    7.0160    6.6161 N   0  0  0  0  0  0  0  0  0  0  0  0
   -3.5915    6.3647    7.7417 C   0  0  0  0  0  0  0  0  0  0  0  0
   -4.0909    5.5126    7.2740 H   0  0  0  0  0  0  0  0  0  0  0  0
   -4.2691    7.2190    7.7460 H   0  0  0  0  0  0  0  0  0  0  0  0
   -3.3254    6.1156    8.7748 H   0  0  0  0  0  0  0  0  0  0  0  0
   -2.3149    7.3049    5.8171 C   0  0  0  0  0  0  0  0  0  0  0  0
   -3.1891    7.5404    5.2455 H   0  0  0  0  0  0  0  0  0  0  0  0
   -1.0042    7.5093    5.5507 C   0  0  0  0  0  0  0  0  0  0  0  0
   -0.5267    7.9548    4.7023 H   0  0  0  0  0  0  0  0  0  0  0  0
   -1.1422    6.5159    7.5404 C   0  0  1  0  0  3  0  0  0  0  0  0
    1.1214    7.1598    6.8115 C   0  0  0  0  0  0  0  0  0  0  0  0
    1.6424    6.9148    5.8802 H   0  0  0  0  0  0  0  0  0  0  0  0
    1.4157    6.4492    7.5953 H   0  0  0  0  0  0  0  0  0  0  0  0
    1.4678    8.5767    7.2743 C   0  0  0  0  0  0  0  0  0  0  0  0
    0.8718    8.7960    8.1632 H   0  0  0  0  0  0  0  0  0  0  0  0
    1.1969    9.2952    6.4970 H   0  0  0  0  0  0  0  0  0  0  0  0
    2.9495    8.7107    7.6095 C   0  0  0  0  0  0  0  0  0  0  0  0
    3.2058    7.9855    8.3846 H   0  0  0  0  0  0  0  0  0  0  0  0
    3.5507    8.4814    6.7252 H   0  0  0  0  0  0  0  0  0  0  0  0
    3.2796   10.1130    8.1038 C   0  0  0  0  0  0  0  0  0  0  0  0
    3.0519   10.8525    7.3392 H   0  0  0  0  0  0  0  0  0  0  0  0
    4.3344   10.1930    8.3562 H   0  0  0  0  0  0  0  0  0  0  0  0
    2.6929   10.3449    8.9891 H   0  0  0  0  0  0  0  0  0  0  0  0
   -0.7321    5.2026   11.4297 C   0  0  0  0  0  3  0  0  0  0  0  0
   -1.3442    5.9326   11.9596 H   0  0  0  0  0  0  0  0  0  0  0  0
    0.5617    5.5590   11.1130 C   0  0  0  0  0  3  0  0  0  0  0  0
    0.9155    6.5392   11.4340 H   0  0  0  0  0  0  0  0  0  0  0  0
    1.6696    4.5860   10.7790 C   0  0  0  0  0  0  0  0  0  0  0  0
    2.0146    4.1019   11.6995 H   0  0  0  0  0  0  0  0  0  0  0  0
    2.5129    5.1573   10.3813 H   0  0  0  0  0  0  0  0  0  0  0  0
    1.2553    3.5206    9.7451 C   0  0  0  0  0  0  0  0  0  0  0  0
    2.1398    3.2196    9.1790 H   0  0  0  0  0  0  0  0  0  0  0  0
    0.8790    2.6280   10.2473 H   0  0  0  0  0  0  0  0  0  0  0  0
    0.2008    4.0291    8.7829 C   0  0  0  0  0  3  0  0  0  0  0  0
    0.5277    4.0641    7.7436 H   0  0  0  0  0  0  0  0  0  0  0  0
   -1.1729    3.8763    8.9989 C   0  0  1  0  0  0  0  0  0  0  0  0
   -1.8040    3.7798    8.1139 H   0  0  0  0  0  0  0  0  0  0  0  0
   -1.7855    3.2389   10.2260 C   0  0  0  0  0  0  0  0  0  0  0  0
   -1.6633    2.1508   10.1696 H   0  0  0  0  0  0  0  0  0  0  0  0
   -2.8602    3.4414   10.2096 H   0  0  0  0  0  0  0  0  0  0  0  0
   -1.1980    3.7685   11.5476 C   0  0  0  0  0  0  0  0  0  0  0  0
   -1.9634    3.7042   12.3240 H   0  0  0  0  0  0  0  0  0  0  0  0
   -0.3612    3.1466   11.8687 H   0  0  0  0  0  0  0  0  0  0  0  0
  3 13  1  0  0  0  0
  3  5  1  0  0  0  0
  4 14  1  0  0  0  0
  4 13  1  0  0  0  0
  5  7  1  0  0  0  0
  5  8  1  0  0  0  0
  6  5  1  0  0  0  0
  9  3  1  0  0  0  0
 10  9  1  0  0  0  0
 11  9  2  0  0  0  0
 11  4  1  0  0  0  0
 12 11  1  0  0  0  0
 13  2  1  1  0  0  0
 14 17  1  0  0  0  0
 14 16  1  0  0  0  0
 15 14  1  0  0  0  0
 17 20  1  0  0  0  0
 17 18  1  0  0  0  0
 19 17  1  0  0  0  0
 20 23  1  0  0  0  0
 20 21  1  0  0  0  0
 22 20  1  0  0  0  0
 23 25  1  0  0  0  0
 23 26  1  0  0  0  0
 24 23  1  0  0  0  0
 27 44  1  0  0  0  0
 27 28  1  0  0  0  0
 29 27  1  0  0  0  0
 29 30  1  0  0  0  0
 31 29  1  0  0  0  0
 31 32  1  0  0  0  0
 33 31  1  0  0  0  0
 34 36  1  0  0  0  0
 34 31  1  0  0  0  0
 35 34  1  0  0  0  0
 37 39  1  0  0  0  0
 37 34  1  0  0  0  0
 38 37  1  0  0  0  0
 39 40  1  6  0  0  0
 39  2  1  0  0  0  0
 39 41  1  0  0  0  0
 41 44  1  0  0  0  0
 42 41  1  0  0  0  0
 43 41  1  0  0  0  0
 44 46  1  0  0  0  0
 44 45  1  0  0  0  0
M  END
$$$$
