CSD_code = BEHHON | q = 0 | S = 0 | Stoichiometry = C18H21ClN4PdS | MND = 4
 OpenBabel04212202013D

 46 49  0  0  1  0  0  0  0  0999 V2000
    8.8363    7.1985    1.4931 Pd  0  0  1  0  0  0  0  0  0  0  0  0
   10.9458    7.3288    0.7591 Cl  0  0  0  0  0  0  0  0  0  0  0  0
    8.8324    9.4489    1.7098 S   0  0  0  0  0  0  0  0  0  0  0  0
    7.4588    9.7958    2.6984 C   0  0  2  0  0  3  0  0  0  0  0  0
    6.3362    9.1108    2.7774 N   0  0  0  0  0  2  0  0  0  0  0  0
    6.0565    7.8856    2.3775 C   0  0  1  0  0  3  0  0  0  0  0  0
    6.9136    6.9462    2.0631 N   0  0  1  0  0  0  0  0  0  0  0  0
    6.4332    5.5923    1.8538 C   0  0  0  0  0  0  0  0  0  0  0  0
    5.7829    5.5416    0.9657 H   0  0  0  0  0  0  0  0  0  0  0  0
    5.8289    5.2642    2.7128 H   0  0  0  0  0  0  0  0  0  0  0  0
    4.5918    7.5967    2.4188 C   0  0  0  0  0  0  0  0  0  0  0  0
    3.9329    7.5199    3.6388 C   0  0  0  0  0  0  0  0  0  0  0  0
    4.4905    7.6663    4.5518 H   0  0  0  0  0  0  0  0  0  0  0  0
    2.5746    7.2589    3.6786 C   0  0  0  0  0  0  0  0  0  0  0  0
    2.0673    7.1961    4.6301 H   0  0  0  0  0  0  0  0  0  0  0  0
    1.8660    7.0833    2.5019 C   0  0  0  0  0  0  0  0  0  0  0  0
    0.8057    6.8810    2.5340 H   0  0  0  0  0  0  0  0  0  0  0  0
    2.5167    7.1764    1.2829 C   0  0  0  0  0  0  0  0  0  0  0  0
    1.9637    7.0533    0.3633 H   0  0  0  0  0  0  0  0  0  0  0  0
    3.8762    7.4301    1.2392 C   0  0  0  0  0  0  0  0  0  0  0  0
    4.3823    7.5194    0.2880 H   0  0  0  0  0  0  0  0  0  0  0  0
    7.4837   10.9506    3.3878 N   0  0  0  0  0  0  0  0  0  0  0  0
    8.6315   11.8284    3.3884 C   0  0  0  0  0  0  0  0  0  0  0  0
    8.6432   12.3655    4.3400 H   0  0  0  0  0  0  0  0  0  0  0  0
    9.5386   11.2224    3.3166 H   0  0  0  0  0  0  0  0  0  0  0  0
    8.5936   12.8175    2.2260 C   0  0  0  0  0  0  0  0  0  0  0  0
    9.4554   13.4768    2.2737 H   0  0  0  0  0  0  0  0  0  0  0  0
    7.6880   13.4192    2.2621 H   0  0  0  0  0  0  0  0  0  0  0  0
    8.6193   12.2788    1.2832 H   0  0  0  0  0  0  0  0  0  0  0  0
    6.3356   11.3420    4.1796 C   0  0  0  0  0  0  0  0  0  0  0  0
    5.4398   10.9698    3.6784 H   0  0  0  0  0  0  0  0  0  0  0  0
    6.3031   12.4331    4.2159 H   0  0  0  0  0  0  0  0  0  0  0  0
    6.4036   10.7656    5.5915 C   0  0  0  0  0  0  0  0  0  0  0  0
    5.5331   11.0748    6.1636 H   0  0  0  0  0  0  0  0  0  0  0  0
    7.2994   11.1065    6.1056 H   0  0  0  0  0  0  0  0  0  0  0  0
    6.4244    9.6806    5.5408 H   0  0  0  0  0  0  0  0  0  0  0  0
    7.5753    4.6357    1.6444 C   0  0  1  0  0  3  0  0  0  0  0  0
    7.3803    3.2603    1.6887 C   0  0  0  0  0  0  0  0  0  0  0  0
    6.3974    2.8675    1.8995 H   0  0  0  0  0  0  0  0  0  0  0  0
    8.4523    2.4159    1.4585 C   0  0  0  0  0  0  0  0  0  0  0  0
    8.3217    1.3449    1.4881 H   0  0  0  0  0  0  0  0  0  0  0  0
    9.6938    2.9752    1.1900 C   0  0  0  0  0  0  0  0  0  0  0  0
   10.5553    2.3550    1.0029 H   0  0  0  0  0  0  0  0  0  0  0  0
    9.8156    4.3521    1.1656 C   0  0  0  0  0  0  0  0  0  0  0  0
   10.7595    4.8448    0.9565 H   0  0  0  0  0  0  0  0  0  0  0  0
    8.7789    5.1612    1.3875 N   0  0  0  0  0  0  0  0  0  0  0  0
  1  2  1  6  0  0  0
  1  3  1  0  0  0  0
  1  7  1  0  0  0  0
  3  4  1  0  0  0  0
  4  5  1  0  0  0  0
  4 22  1  6  0  0  0
  6 11  1  1  0  0  0
  6  5  1  0  0  0  0
  7  8  1  6  0  0  0
  7  6  1  0  0  0  0
  8 10  1  0  0  0  0
  9  8  1  0  0  0  0
 11 12  1  0  0  0  0
 12 14  2  0  0  0  0
 12 13  1  0  0  0  0
 14 15  1  0  0  0  0
 16 17  1  0  0  0  0
 16 14  1  0  0  0  0
 18 16  2  0  0  0  0
 19 18  1  0  0  0  0
 20 18  1  0  0  0  0
 20 11  2  0  0  0  0
 21 20  1  0  0  0  0
 22 23  1  0  0  0  0
 22 30  1  0  0  0  0
 23 24  1  0  0  0  0
 25 23  1  0  0  0  0
 26 28  1  0  0  0  0
 26 27  1  0  0  0  0
 26 23  1  0  0  0  0
 29 26  1  0  0  0  0
 30 32  1  0  0  0  0
 30 33  1  0  0  0  0
 31 30  1  0  0  0  0
 33 35  1  0  0  0  0
 33 34  1  0  0  0  0
 36 33  1  0  0  0  0
 37 38  1  6  0  0  0
 37  8  1  0  0  0  0
 38 39  1  0  0  0  0
 40 41  1  0  0  0  0
 40 38  2  0  0  0  0
 42 40  1  0  0  0  0
 43 42  1  0  0  0  0
 44 42  2  0  0  0  0
 44 46  1  0  0  0  0
 45 44  1  0  0  0  0
 46  1  1  0  0  0  0
 46 37  1  0  0  0  0
M  END
$$$$
