CSD_code = BEHNIM | q = 0 | S = 0 | Stoichiometry = C10H10Cl2N2S2Zn | MND = 4
 OpenBabel04212202013D

 27 28  0  0  1  0  0  0  0  0999 V2000
    1.8788    3.1646    2.4322 C   0  0  2  0  0  3  0  0  0  0  0  0
    1.7686    1.8818    3.0105 C   0  0  0  0  0  0  0  0  0  0  0  0
    1.1400    1.7579    3.8797 H   0  0  0  0  0  0  0  0  0  0  0  0
    2.4448    0.8253    2.4682 C   0  0  0  0  0  0  0  0  0  0  0  0
    2.3485   -0.1571    2.9033 H   0  0  0  0  0  0  0  0  0  0  0  0
    3.2651    1.0120    1.3381 C   0  0  0  0  0  0  0  0  0  0  0  0
    3.7936    0.1836    0.8980 H   0  0  0  0  0  0  0  0  0  0  0  0
    3.3740    2.2635    0.8094 C   0  0  0  0  0  0  0  0  0  0  0  0
    3.9835    2.4863   -0.0526 H   0  0  0  0  0  0  0  0  0  0  0  0
   -1.2683    2.0008    5.0679 Cl  0  0  0  0  0  0  0  0  0  0  0  0
    2.7011    3.2927    1.3595 N   0  0  0  0  0  0  0  0  0  0  0  0
    2.7580    4.2222    0.9558 H   0  0  0  0  0  0  0  0  0  0  0  0
    1.1044    4.5600    2.9805 S   0  0  0  0  0  0  0  0  0  0  0  0
   -1.1178    3.3075    3.2272 Zn  0  0  0  0  0  0  0  0  0  0  0  0
   -0.9673    2.0008    1.3864 Cl  0  0  0  0  0  0  0  0  0  0  0  0
   -3.3400    4.5600    3.4738 S   0  0  0  0  0  0  0  0  0  0  0  0
   -4.1144    3.1646    4.0221 C   0  0  2  0  0  3  0  0  0  0  0  0
   -4.0042    1.8817    3.4438 C   0  0  0  0  0  0  0  0  0  0  0  0
   -3.3755    1.7579    2.5747 H   0  0  0  0  0  0  0  0  0  0  0  0
   -4.6805    0.8253    3.9861 C   0  0  0  0  0  0  0  0  0  0  0  0
   -4.5841   -0.1571    3.5510 H   0  0  0  0  0  0  0  0  0  0  0  0
   -5.5008    1.0120    5.1161 C   0  0  0  0  0  0  0  0  0  0  0  0
   -6.0293    0.1836    5.5562 H   0  0  0  0  0  0  0  0  0  0  0  0
   -5.6097    2.2636    5.6448 C   0  0  0  0  0  0  0  0  0  0  0  0
   -6.2193    2.4864    6.5068 H   0  0  0  0  0  0  0  0  0  0  0  0
   -4.9367    3.2927    5.0947 N   0  0  0  0  0  0  0  0  0  0  0  0
   -4.9937    4.2222    5.4985 H   0  0  0  0  0  0  0  0  0  0  0  0
  1 13  1  1  0  0  0
  1  2  1  0  0  0  0
  2  3  1  0  0  0  0
  4  5  1  0  0  0  0
  4  2  2  0  0  0  0
  6  4  1  0  0  0  0
  7  6  1  0  0  0  0
  8  6  2  0  0  0  0
  8 11  1  0  0  0  0
  9  8  1  0  0  0  0
 11  1  1  0  0  0  0
 12 11  1  0  0  0  0
 13 14  1  0  0  0  0
 14 16  1  0  0  0  0
 14 10  1  0  0  0  0
 15 14  1  0  0  0  0
 17 16  1  6  0  0  0
 17 26  1  0  0  0  0
 18 20  2  0  0  0  0
 18 17  1  0  0  0  0
 19 18  1  0  0  0  0
 20 22  1  0  0  0  0
 21 20  1  0  0  0  0
 22 23  1  0  0  0  0
 22 24  2  0  0  0  0
 24 25  1  0  0  0  0
 26 27  1  0  0  0  0
 26 24  1  0  0  0  0
M  END
$$$$
