CSD_code = BEHQIO | q = 0 | S = 0 | Stoichiometry = C29H38BrClNPPd | MND = 4
 OpenBabel04212202013D

 72 75  0  0  1  0  0  0  0  0999 V2000
    3.8933    0.0866    0.4306 Pd  0  0  2  0  0  0  0  0  0  0  0  0
   -2.1376    1.2116    4.4188 Br  0  0  0  0  0  0  0  0  0  0  0  0
    4.1501   -1.4276    2.2246 Cl  0  0  0  0  0  0  0  0  0  0  0  0
    1.9498   -0.8406   -0.1933 P   0  0  1  0  0  4  0  0  0  0  0  0
    5.7283    1.0535    0.9867 N   0  0  0  0  0  4  0  0  0  0  0  0
    3.7869    1.6899   -0.7642 C   0  0  0  0  0  0  0  0  0  0  0  0
    2.6631    2.3870   -1.1865 C   0  0  0  0  0  0  0  0  0  0  0  0
    1.6722    1.9770   -1.0269 H   0  0  0  0  0  0  0  0  0  0  0  0
    2.7728    3.6228   -1.8073 C   0  0  0  0  0  0  0  0  0  0  0  0
    1.8808    4.1372   -2.1359 H   0  0  0  0  0  0  0  0  0  0  0  0
    4.0150    4.2026   -1.9861 C   0  0  0  0  0  0  0  0  0  0  0  0
    4.1046    5.1684   -2.4616 H   0  0  0  0  0  0  0  0  0  0  0  0
    5.1437    3.5542   -1.5162 C   0  0  0  0  0  0  0  0  0  0  0  0
    6.1120    4.0282   -1.6054 H   0  0  0  0  0  0  0  0  0  0  0  0
    5.0359    2.3072   -0.9164 C   0  0  0  0  0  0  0  0  0  0  0  0
    6.2343    1.6166   -0.2959 C   0  0  2  0  0  0  0  0  0  0  0  0
    7.0083    2.3698   -0.0611 H   0  0  0  0  0  0  0  0  0  0  0  0
    6.8926    0.6059   -1.2982 C   0  0  0  0  0  0  0  0  0  0  0  0
    6.1097   -0.7054   -1.4274 C   0  0  0  0  0  0  0  0  0  0  0  0
    6.6432   -1.3762   -2.0993 H   0  0  0  0  0  0  0  0  0  0  0  0
    5.1224   -0.5045   -1.8602 H   0  0  0  0  0  0  0  0  0  0  0  0
    5.9883   -1.2241   -0.4687 H   0  0  0  0  0  0  0  0  0  0  0  0
    8.3573    0.3111   -0.9375 C   0  0  0  0  0  0  0  0  0  0  0  0
    8.8481   -0.1600   -1.7870 H   0  0  0  0  0  0  0  0  0  0  0  0
    8.4621   -0.3598   -0.0926 H   0  0  0  0  0  0  0  0  0  0  0  0
    8.8933    1.2318   -0.7152 H   0  0  0  0  0  0  0  0  0  0  0  0
    6.9206    1.2637   -2.6885 C   0  0  0  0  0  0  0  0  0  0  0  0
    7.4096    0.5982   -3.3966 H   0  0  0  0  0  0  0  0  0  0  0  0
    7.4766    2.1977   -2.6639 H   0  0  0  0  0  0  0  0  0  0  0  0
    5.9177    1.4692   -3.0527 H   0  0  0  0  0  0  0  0  0  0  0  0
    5.2909    2.1503    1.8641 C   0  0  0  0  0  0  0  0  0  0  0  0
    6.1530    2.7530    2.1859 H   0  0  0  0  0  0  0  0  0  0  0  0
    4.8153    1.7254    2.7533 H   0  0  0  0  0  0  0  0  0  0  0  0
    4.5819    2.8112    1.3614 H   0  0  0  0  0  0  0  0  0  0  0  0
    6.7386    0.3157    1.7422 C   0  0  0  0  0  0  0  0  0  0  0  0
    7.6491    0.9162    1.8636 H   0  0  0  0  0  0  0  0  0  0  0  0
    6.9817   -0.6306    1.2676 H   0  0  0  0  0  0  0  0  0  0  0  0
    6.3424    0.0782    2.7298 H   0  0  0  0  0  0  0  0  0  0  0  0
    0.7195   -0.3240    1.0513 C   0  0  0  0  0  0  0  0  0  0  0  0
    1.1511    0.6400    1.9622 C   0  0  0  0  0  0  0  0  0  0  0  0
    2.1752    1.0257    1.8895 H   0  0  0  0  0  0  0  0  0  0  0  0
    0.3141    1.1013    2.9607 C   0  0  0  0  0  0  0  0  0  0  0  0
    0.6522    1.8442    3.6670 H   0  0  0  0  0  0  0  0  0  0  0  0
   -0.9694    0.5889    3.0487 C   0  0  0  0  0  0  0  0  0  0  0  0
   -1.4226   -0.3696    2.1576 C   0  0  0  0  0  0  0  0  0  0  0  0
   -2.4252   -0.7605    2.2445 H   0  0  0  0  0  0  0  0  0  0  0  0
   -0.5769   -0.8223    1.1614 C   0  0  0  0  0  0  0  0  0  0  0  0
   -0.9383   -1.5732    0.4747 H   0  0  0  0  0  0  0  0  0  0  0  0
    1.2224   -0.3390   -1.7938 C   0  0  0  0  0  0  0  0  0  0  0  0
   -0.0873    0.0915   -1.9646 C   0  0  0  0  0  0  0  0  0  0  0  0
   -0.7558    0.1553   -1.1186 H   0  0  0  0  0  0  0  0  0  0  0  0
   -0.5372    0.4702   -3.2181 C   0  0  0  0  0  0  0  0  0  0  0  0
   -1.5557    0.8094   -3.3392 H   0  0  0  0  0  0  0  0  0  0  0  0
    0.3115    0.4246   -4.3102 C   0  0  0  0  0  0  0  0  0  0  0  0
   -0.0437    0.7242   -5.2848 H   0  0  0  0  0  0  0  0  0  0  0  0
    1.6229    0.0078   -4.1461 C   0  0  0  0  0  0  0  0  0  0  0  0
    2.2938   -0.0166   -4.9922 H   0  0  0  0  0  0  0  0  0  0  0  0
    2.0738   -0.3646   -2.8954 C   0  0  0  0  0  0  0  0  0  0  0  0
    3.1048   -0.6632   -2.7544 H   0  0  0  0  0  0  0  0  0  0  0  0
    1.8768   -2.7304   -0.3109 C   0  0  0  0  0  0  0  0  0  0  0  0
    1.6060   -3.3270    1.0689 C   0  0  0  0  0  0  0  0  0  0  0  0
    1.7526   -4.4055    1.0342 H   0  0  0  0  0  0  0  0  0  0  0  0
    0.5897   -3.1323    1.4029 H   0  0  0  0  0  0  0  0  0  0  0  0
    2.2989   -2.9144    1.8001 H   0  0  0  0  0  0  0  0  0  0  0  0
    0.8312   -3.2178   -1.3147 C   0  0  0  0  0  0  0  0  0  0  0  0
    0.8091   -4.3068   -1.3018 H   0  0  0  0  0  0  0  0  0  0  0  0
    1.0689   -2.8950   -2.3265 H   0  0  0  0  0  0  0  0  0  0  0  0
   -0.1665   -2.8602   -1.0707 H   0  0  0  0  0  0  0  0  0  0  0  0
    3.2741   -3.1471   -0.7785 C   0  0  0  0  0  0  0  0  0  0  0  0
    3.3460   -4.2323   -0.8301 H   0  0  0  0  0  0  0  0  0  0  0  0
    4.0215   -2.7871   -0.0675 H   0  0  0  0  0  0  0  0  0  0  0  0
    3.4931   -2.7433   -1.7673 H   0  0  0  0  0  0  0  0  0  0  0  0
  1  5  1  0  0  0  0
  1  3  1  1  0  0  0
  4 60  1  1  0  0  0
  4  1  1  0  0  0  0
  4 39  1  0  0  0  0
  5 35  1  0  0  0  0
  5 31  1  0  0  0  0
  6  1  1  0  0  0  0
  7  8  1  0  0  0  0
  7  6  2  0  0  0  0
  9  7  1  0  0  0  0
 10  9  1  0  0  0  0
 11  9  2  0  0  0  0
 11 13  1  0  0  0  0
 12 11  1  0  0  0  0
 13 15  2  0  0  0  0
 14 13  1  0  0  0  0
 15  6  1  0  0  0  0
 15 16  1  0  0  0  0
 16 17  1  1  0  0  0
 16  5  1  0  0  0  0
 18 23  1  0  0  0  0
 18 16  1  0  0  0  0
 19 18  1  0  0  0  0
 19 22  1  0  0  0  0
 20 19  1  0  0  0  0
 21 19  1  0  0  0  0
 23 26  1  0  0  0  0
 23 25  1  0  0  0  0
 24 23  1  0  0  0  0
 27 29  1  0  0  0  0
 27 18  1  0  0  0  0
 28 27  1  0  0  0  0
 30 27  1  0  0  0  0
 31 32  1  0  0  0  0
 31 33  1  0  0  0  0
 34 31  1  0  0  0  0
 35 36  1  0  0  0  0
 35 38  1  0  0  0  0
 37 35  1  0  0  0  0
 39 47  2  0  0  0  0
 39 40  1  0  0  0  0
 40 42  2  0  0  0  0
 41 40  1  0  0  0  0
 42 44  1  0  0  0  0
 42 43  1  0  0  0  0
 44  2  1  0  0  0  0
 45 46  1  0  0  0  0
 45 44  2  0  0  0  0
 47 45  1  0  0  0  0
 48 47  1  0  0  0  0
 49  4  1  0  0  0  0
 50 49  1  0  0  0  0
 50 51  1  0  0  0  0
 52 50  2  0  0  0  0
 53 52  1  0  0  0  0
 54 56  2  0  0  0  0
 54 52  1  0  0  0  0
 55 54  1  0  0  0  0
 56 58  1  0  0  0  0
 57 56  1  0  0  0  0
 58 59  1  0  0  0  0
 58 49  2  0  0  0  0
 60 61  1  0  0  0  0
 61 63  1  0  0  0  0
 61 64  1  0  0  0  0
 62 61  1  0  0  0  0
 65 66  1  0  0  0  0
 65 68  1  0  0  0  0
 65 60  1  0  0  0  0
 67 65  1  0  0  0  0
 69 60  1  0  0  0  0
 69 71  1  0  0  0  0
 70 69  1  0  0  0  0
 72 69  1  0  0  0  0
M  END
$$$$
