CSD_code = BEHYEV | q = 0 | S = 0 | Stoichiometry = C19H15Cl2F2NOPtS | MND = 6
 OpenBabel04212202013D

 42 46  0  0  1  0  0  0  0  0999 V2000
    9.7290    3.2343    5.1408 C   0  0  0  0  0  0  0  0  0  0  0  0
    6.6959    3.1288    4.4355 Cl  0  0  0  0  0  0  0  0  0  0  0  0
   10.8525    6.5808    3.8799 O   0  0  0  0  0  1  0  0  0  0  0  0
    8.5868    4.3095    3.7472 Pt  0  0  0  0  0  0  0  0  0  0  0  0
   10.4968    5.4656    3.0196 S   0  0  0  0  0  0  0  0  0  0  0  0
   10.4187    2.0381    5.0468 C   0  0  0  0  0  0  0  0  0  0  0  0
   10.4412    1.4789    4.1226 H   0  0  0  0  0  0  0  0  0  0  0  0
   11.0809    1.5372    6.1562 C   0  0  0  0  0  0  0  0  0  0  0  0
   11.7600    0.3785    6.0463 F   0  0  0  0  0  0  0  0  0  0  0  0
   11.0782    2.1936    7.3752 C   0  0  0  0  0  0  0  0  0  0  0  0
   11.6020    1.7664    8.2156 H   0  0  0  0  0  0  0  0  0  0  0  0
   10.3894    3.3845    7.4834 C   0  0  0  0  0  0  0  0  0  0  0  0
   10.3738    3.8961    8.4333 H   0  0  0  0  0  0  0  0  0  0  0  0
    9.7158    3.9133    6.3810 C   0  0  0  0  0  0  0  0  0  0  0  0
    8.9951    2.9930    1.8745 Cl  0  0  0  0  0  0  0  0  0  0  0  0
    8.9636    5.1655    6.4389 C   0  0  2  0  0  3  0  0  0  0  0  0
    8.3351    5.4915    5.3063 N   0  0  0  0  0  0  0  0  0  0  0  0
    8.8489    6.0224    7.5332 C   0  0  0  0  0  0  0  0  0  0  0  0
    9.3437    5.7933    8.4617 H   0  0  0  0  0  0  0  0  0  0  0  0
    8.0928    7.1750    7.4050 C   0  0  0  0  0  0  0  0  0  0  0  0
    7.9973    7.8486    8.2432 H   0  0  0  0  0  0  0  0  0  0  0  0
    7.4609    7.4726    6.2097 C   0  0  0  0  0  0  0  0  0  0  0  0
    6.8762    8.3712    6.1090 H   0  0  0  0  0  0  0  0  0  0  0  0
    7.5981    6.5924    5.1367 C   0  0  0  0  0  0  0  0  0  0  0  0
    7.0133    6.7364    3.8046 C   0  0  0  0  0  0  0  0  0  0  0  0
    6.1678    7.7924    3.4601 C   0  0  0  0  0  0  0  0  0  0  0  0
    5.9159    8.5523    4.1837 H   0  0  0  0  0  0  0  0  0  0  0  0
    5.6345    7.8737    2.1900 C   0  0  0  0  0  0  0  0  0  0  0  0
    4.9761    8.6791    1.9052 H   0  0  0  0  0  0  0  0  0  0  0  0
    5.9518    6.8866    1.2727 C   0  0  0  0  0  0  0  0  0  0  0  0
    5.4376    6.9683    0.0297 F   0  0  0  0  0  0  0  0  0  0  0  0
    6.7872    5.8269    1.5881 C   0  0  0  0  0  0  0  0  0  0  0  0
    6.9920    5.0760    0.8387 H   0  0  0  0  0  0  0  0  0  0  0  0
    7.3332    5.7369    2.8566 C   0  0  0  0  0  0  0  0  0  0  0  0
   11.9566    4.4039    2.8251 C   0  0  0  0  0  0  0  0  0  0  0  0
   12.7662    4.9933    2.4115 H   0  0  0  0  0  0  0  0  0  0  0  0
   11.6658    3.5926    2.1672 H   0  0  0  0  0  0  0  0  0  0  0  0
   12.2274    4.0234    3.8041 H   0  0  0  0  0  0  0  0  0  0  0  0
   10.3685    6.0766    1.3148 C   0  0  0  0  0  0  0  0  0  0  0  0
    9.5787    6.8194    1.2838 H   0  0  0  0  0  0  0  0  0  0  0  0
   10.1150    5.2229    0.6960 H   0  0  0  0  0  0  0  0  0  0  0  0
   11.3156    6.5191    1.0286 H   0  0  0  0  0  0  0  0  0  0  0  0
  1 14  1  0  0  0  0
  4  2  1  0  0  0  0
  4  1  1  0  0  0  0
  4 17  1  0  0  0  0
  5  4  1  0  0  0  0
  5  3  1  0  0  0  0
  6  1  2  0  0  0  0
  6  8  1  0  0  0  0
  7  6  1  0  0  0  0
  8 10  2  0  0  0  0
  9  8  1  0  0  0  0
 10 12  1  0  0  0  0
 10 11  1  0  0  0  0
 12 13  1  0  0  0  0
 14 12  2  0  0  0  0
 15  4  1  0  0  0  0
 16 14  1  6  0  0  0
 16 18  1  0  0  0  0
 17 16  1  0  0  0  0
 18 19  1  0  0  0  0
 20 18  2  0  0  0  0
 20 21  1  0  0  0  0
 22 20  1  0  0  0  0
 23 22  1  0  0  0  0
 24 17  1  0  0  0  0
 24 22  2  0  0  0  0
 25 24  1  0  0  0  0
 26 25  1  0  0  0  0
 26 27  1  0  0  0  0
 28 26  2  0  0  0  0
 29 28  1  0  0  0  0
 30 32  2  0  0  0  0
 30 28  1  0  0  0  0
 31 30  1  0  0  0  0
 32 34  1  0  0  0  0
 33 32  1  0  0  0  0
 34  4  1  0  0  0  0
 34 25  2  0  0  0  0
 35  5  1  0  0  0  0
 35 38  1  0  0  0  0
 36 35  1  0  0  0  0
 37 35  1  0  0  0  0
 39  5  1  0  0  0  0
 40 39  1  0  0  0  0
 41 39  1  0  0  0  0
 42 39  1  0  0  0  0
M  END
$$$$
