CSD_code = BEJJUW | q = 0 | S = 0 | Stoichiometry = C27H53BBrFeP3 | MND = 4
 OpenBabel04212202013D

 86 88  0  0  0  0  0  0  0  0999 V2000
    8.8706    7.8836    2.3519 Br  0  0  0  0  0  0  0  0  0  0  0  0
   10.1706    9.6065    2.2106 Fe  0  0  2  0  0  0  0  0  0  0  0  0
   10.1305   11.7885    2.4047 P   0  0  0  0  0  4  0  0  0  0  0  0
   11.1164    9.6927    0.2139 P   0  0  0  0  0  4  0  0  0  0  0  0
   12.1369    9.4820    3.1544 P   0  0  0  0  0  4  0  0  0  0  0  0
   14.0596   12.7656    1.0430 C   0  0  0  0  0  0  0  0  0  0  0  0
   15.1740   13.0149    1.8419 C   0  0  0  0  0  0  0  0  0  0  0  0
   16.1604   13.9153    1.4771 C   0  0  0  0  0  0  0  0  0  0  0  0
   16.0629   14.6109    0.2860 C   0  0  0  0  0  0  0  0  0  0  0  0
   14.9629   14.3965   -0.5260 C   0  0  0  0  0  0  0  0  0  0  0  0
   13.9876   13.4937   -0.1459 C   0  0  0  0  0  0  0  0  0  0  0  0
   11.5057   12.6842    1.6449 C   0  0  0  0  0  0  0  0  0  0  0  0
   12.6631   10.6472    0.2214 C   0  0  0  0  0  0  0  0  0  0  0  0
   13.2269   10.8996    2.8268 C   0  0  0  0  0  0  0  0  0  0  0  0
    8.4753   12.6375    2.0181 C   0  0  0  0  0  0  0  0  0  0  0  0
    8.5300   13.7393    0.9669 C   0  0  0  0  0  0  0  0  0  0  0  0
    7.4072   11.5924    1.7014 C   0  0  0  0  0  0  0  0  0  0  0  0
   10.2396   12.2403    4.2194 C   0  0  0  0  0  0  0  0  0  0  0  0
   10.1211   13.7180    4.5816 C   0  0  0  0  0  0  0  0  0  0  0  0
    9.2270   11.3940    4.9887 C   0  0  0  0  0  0  0  0  0  0  0  0
    9.9289   10.6839   -0.8502 C   0  0  0  0  0  0  0  0  0  0  0  0
    8.6968    9.8462   -1.1964 C   0  0  0  0  0  0  0  0  0  0  0  0
   13.0034    7.9810    2.4220 C   0  0  0  0  0  0  0  0  0  0  0  0
   12.4966    6.6706    3.0188 C   0  0  0  0  0  0  0  0  0  0  0  0
   14.5296    7.9942    2.3824 C   0  0  0  0  0  0  0  0  0  0  0  0
   12.2073    9.2905    5.0301 C   0  0  0  0  0  0  0  0  0  0  0  0
   13.6066    9.0345    5.5809 C   0  0  0  0  0  0  0  0  0  0  0  0
   11.1986    8.2852    5.5833 C   0  0  0  0  0  0  0  0  0  0  0  0
   10.7342    6.9666   -0.5129 C   0  0  0  0  0  0  0  0  0  0  0  0
   12.8870    7.9654   -1.3284 C   0  0  0  0  0  0  0  0  0  0  0  0
   11.4263    8.2435   -0.9818 C   0  0  0  0  0  0  0  0  0  0  0  0
   10.5226   11.3141   -2.1062 C   0  0  0  0  0  0  0  0  0  0  0  0
   12.8654   11.7446    1.4454 B   0  0  1  0  0  0  0  0  0  0  0  0
   15.2827   12.4979    2.7850 H   0  0  0  0  0  0  0  0  0  0  0  0
   17.0104   14.0764    2.1274 H   0  0  0  0  0  0  0  0  0  0  0  0
   16.8311   15.3141   -0.0044 H   0  0  0  0  0  0  0  0  0  0  0  0
   14.8664   14.9377   -1.4583 H   0  0  0  0  0  0  0  0  0  0  0  0
   13.1356   13.3566   -0.7995 H   0  0  0  0  0  0  0  0  0  0  0  0
   11.1761   13.0378    0.6665 H   0  0  0  0  0  0  0  0  0  0  0  0
   11.7298   13.5674    2.2487 H   0  0  0  0  0  0  0  0  0  0  0  0
   13.4658    9.9132    0.3153 H   0  0  0  0  0  0  0  0  0  0  0  0
   12.7727   11.1009   -0.7648 H   0  0  0  0  0  0  0  0  0  0  0  0
   13.1629   11.5554    3.6998 H   0  0  0  0  0  0  0  0  0  0  0  0
   14.2507   10.5271    2.7836 H   0  0  0  0  0  0  0  0  0  0  0  0
    8.1913   13.1113    2.9629 H   0  0  0  0  0  0  0  0  0  0  0  0
    9.2845   14.4794    1.2250 H   0  0  0  0  0  0  0  0  0  0  0  0
    8.7491   13.3527   -0.0260 H   0  0  0  0  0  0  0  0  0  0  0  0
    7.5635   14.2415    0.9200 H   0  0  0  0  0  0  0  0  0  0  0  0
    6.4123   12.0301    1.7772 H   0  0  0  0  0  0  0  0  0  0  0  0
    7.5232   11.1990    0.6966 H   0  0  0  0  0  0  0  0  0  0  0  0
    7.4630   10.7608    2.4079 H   0  0  0  0  0  0  0  0  0  0  0  0
   11.2502   11.9224    4.4924 H   0  0  0  0  0  0  0  0  0  0  0  0
   10.4043   13.8555    5.6247 H   0  0  0  0  0  0  0  0  0  0  0  0
   10.7833   14.3286    3.9720 H   0  0  0  0  0  0  0  0  0  0  0  0
    9.1061   14.0925    4.4673 H   0  0  0  0  0  0  0  0  0  0  0  0
    8.2123   11.7550    4.8288 H   0  0  0  0  0  0  0  0  0  0  0  0
    9.2746   10.3524    4.6539 H   0  0  0  0  0  0  0  0  0  0  0  0
    9.4260   11.4178    6.0592 H   0  0  0  0  0  0  0  0  0  0  0  0
    9.6169   11.4903   -0.1769 H   0  0  0  0  0  0  0  0  0  0  0  0
    7.8890   10.4862   -1.5520 H   0  0  0  0  0  0  0  0  0  0  0  0
    8.9118    9.1287   -1.9853 H   0  0  0  0  0  0  0  0  0  0  0  0
    8.3424    9.2949   -0.3250 H   0  0  0  0  0  0  0  0  0  0  0  0
   12.6410    8.0245    1.3867 H   0  0  0  0  0  0  0  0  0  0  0  0
   11.4149    6.6833    3.1326 H   0  0  0  0  0  0  0  0  0  0  0  0
   12.7564    5.8395    2.3632 H   0  0  0  0  0  0  0  0  0  0  0  0
   12.9510    6.4769    3.9868 H   0  0  0  0  0  0  0  0  0  0  0  0
   14.9618    8.0710    3.3757 H   0  0  0  0  0  0  0  0  0  0  0  0
   14.8779    7.0611    1.9385 H   0  0  0  0  0  0  0  0  0  0  0  0
   14.9091    8.8114    1.7741 H   0  0  0  0  0  0  0  0  0  0  0  0
   11.8994   10.2845    5.3782 H   0  0  0  0  0  0  0  0  0  0  0  0
   13.9349    8.0197    5.3727 H   0  0  0  0  0  0  0  0  0  0  0  0
   14.3260    9.7334    5.1599 H   0  0  0  0  0  0  0  0  0  0  0  0
   13.5997    9.1650    6.6631 H   0  0  0  0  0  0  0  0  0  0  0  0
   10.9718    8.5176    6.6232 H   0  0  0  0  0  0  0  0  0  0  0  0
   10.2658    8.3120    5.0206 H   0  0  0  0  0  0  0  0  0  0  0  0
   11.5826    7.2706    5.5469 H   0  0  0  0  0  0  0  0  0  0  0  0
    9.6667    7.1241   -0.3837 H   0  0  0  0  0  0  0  0  0  0  0  0
   10.8694    6.1766   -1.2511 H   0  0  0  0  0  0  0  0  0  0  0  0
   11.1418    6.6186    0.4331 H   0  0  0  0  0  0  0  0  0  0  0  0
   13.4518    7.5903   -0.4788 H   0  0  0  0  0  0  0  0  0  0  0  0
   12.9210    7.2027   -2.1068 H   0  0  0  0  0  0  0  0  0  0  0  0
   13.3805    8.8547   -1.7121 H   0  0  0  0  0  0  0  0  0  0  0  0
   10.9431    8.5627   -1.9121 H   0  0  0  0  0  0  0  0  0  0  0  0
   11.2213   12.1081   -1.8566 H   0  0  0  0  0  0  0  0  0  0  0  0
   11.0397   10.5792   -2.7208 H   0  0  0  0  0  0  0  0  0  0  0  0
    9.7232   11.7492   -2.7061 H   0  0  0  0  0  0  0  0  0  0  0  0
  2  1  1  1  0  0  0
  2  3  1  0  0  0  0
  2  5  1  0  0  0  0
  3 18  1  0  0  0  0
  4 13  1  0  0  0  0
  4  2  1  0  0  0  0
  5 26  1  0  0  0  0
  6  7  1  0  0  0  0
  7 34  1  0  0  0  0
  8  7  2  0  0  0  0
  8 35  1  0  0  0  0
  9  8  1  0  0  0  0
 10 11  1  0  0  0  0
 10  9  2  0  0  0  0
 11  6  2  0  0  0  0
 12 40  1  0  0  0  0
 12  3  1  0  0  0  0
 13 41  1  0  0  0  0
 13 33  1  0  0  0  0
 14  5  1  0  0  0  0
 14 43  1  0  0  0  0
 15  3  1  0  0  0  0
 15 45  1  0  0  0  0
 16 46  1  0  0  0  0
 16 15  1  0  0  0  0
 17 49  1  0  0  0  0
 17 15  1  0  0  0  0
 17 51  1  0  0  0  0
 18 52  1  0  0  0  0
 18 19  1  0  0  0  0
 18 20  1  0  0  0  0
 19 53  1  0  0  0  0
 20 58  1  0  0  0  0
 21 59  1  0  0  0  0
 21  4  1  0  0  0  0
 22 21  1  0  0  0  0
 22 62  1  0  0  0  0
 23 24  1  0  0  0  0
 23  5  1  0  0  0  0
 24 64  1  0  0  0  0
 24 66  1  0  0  0  0
 25 23  1  0  0  0  0
 25 67  1  0  0  0  0
 26 70  1  0  0  0  0
 26 27  1  0  0  0  0
 26 28  1  0  0  0  0
 27 73  1  0  0  0  0
 28 74  1  0  0  0  0
 29 77  1  0  0  0  0
 29 79  1  0  0  0  0
 30 31  1  0  0  0  0
 30 80  1  0  0  0  0
 31 29  1  0  0  0  0
 31  4  1  0  0  0  0
 32 84  1  0  0  0  0
 32 21  1  0  0  0  0
 33  6  1  6  0  0  0
 33 12  1  0  0  0  0
 33 14  1  0  0  0  0
 36  9  1  0  0  0  0
 37 10  1  0  0  0  0
 38 11  1  0  0  0  0
 39 12  1  0  0  0  0
 42 13  1  0  0  0  0
 44 14  1  0  0  0  0
 47 16  1  0  0  0  0
 48 16  1  0  0  0  0
 50 17  1  0  0  0  0
 54 19  1  0  0  0  0
 55 19  1  0  0  0  0
 56 20  1  0  0  0  0
 57 20  1  0  0  0  0
 60 22  1  0  0  0  0
 61 22  1  0  0  0  0
 63 23  1  0  0  0  0
 65 24  1  0  0  0  0
 68 25  1  0  0  0  0
 69 25  1  0  0  0  0
 71 27  1  0  0  0  0
 72 27  1  0  0  0  0
 75 28  1  0  0  0  0
 76 28  1  0  0  0  0
 78 29  1  0  0  0  0
 81 30  1  0  0  0  0
 82 30  1  0  0  0  0
 83 31  1  0  0  0  0
 85 32  1  0  0  0  0
 86 32  1  0  0  0  0
M  END
$$$$
