CSD_code = BEJKOQ | q = 0 | S = 0 | Stoichiometry = C10H12Cl2Pd | MND = 6
 OpenBabel04212202013D

 25 26  0  0  1  0  0  0  0  0999 V2000
    1.5019    1.0905    1.0826 Pd  0  0  0  0  0  0  0  0  0  0  0  0
    0.6477   -0.8688    1.7566 Cl  0  0  0  0  0 15  0  0  0  0  0  0
   -0.1408    2.0386    2.2655 Cl  0  0  0  0  0 15  0  0  0  0  0  0
    2.3967    3.1446    0.8976 C   0  0  0  0  0  3  0  0  0  0  0  0
    1.6084    2.8322   -0.1888 C   0  0  1  0  0  0  0  0  0  0  0  0
    2.5573    2.7145   -1.3693 C   0  0  2  0  0  0  0  0  0  0  0  0
    3.4638    1.4795   -1.1104 C   0  0  2  0  0  0  0  0  0  0  0  0
    2.7691    0.2902   -0.4937 C   0  0  1  0  0  0  0  0  0  0  0  0
    3.3246   -0.0388    0.7158 C   0  0  0  0  0  3  0  0  0  0  0  0
    4.4401    0.8952    1.1011 C   0  0  0  0  0  0  0  0  0  0  0  0
    4.4319    1.9665    0.0014 C   0  0  2  0  0  0  0  0  0  0  0  0
    3.8141    3.3273    0.3804 C   0  0  1  0  0  0  0  0  0  0  0  0
    3.5142    3.8680   -1.0302 C   0  0  0  0  0  0  0  0  0  0  0  0
    2.0590    3.6099    1.8185 H   0  0  0  0  0  0  0  0  0  0  0  0
    0.5465    3.0426   -0.3095 H   0  0  0  0  0  0  0  0  0  0  0  0
    2.0879    2.7290   -2.3504 H   0  0  0  0  0  0  0  0  0  0  0  0
    3.9799    1.1846   -2.0280 H   0  0  0  0  0  0  0  0  0  0  0  0
    2.1701   -0.3882   -1.0970 H   0  0  0  0  0  0  0  0  0  0  0  0
    3.2265   -1.0088    1.1937 H   0  0  0  0  0  0  0  0  0  0  0  0
    5.3876    0.3505    1.1184 H   0  0  0  0  0  0  0  0  0  0  0  0
    4.2897    1.3223    2.1024 H   0  0  0  0  0  0  0  0  0  0  0  0
    5.4396    2.1344   -0.3818 H   0  0  0  0  0  0  0  0  0  0  0  0
    4.4514    3.9372    1.0175 H   0  0  0  0  0  0  0  0  0  0  0  0
    3.0136    4.8346   -1.0181 H   0  0  0  0  0  0  0  0  0  0  0  0
    4.3908    3.9184   -1.6746 H   0  0  0  0  0  0  0  0  0  0  0  0
  4 14  1  0  0  0  0
  5 15  1  6  0  0  0
  5  4  1  0  0  0  0
  5  1  1  0  0  0  0
  6 16  1  6  0  0  0
  6  7  1  0  0  0  0
  6 13  1  0  0  0  0
  6  5  1  0  0  0  0
  7 17  1  6  0  0  0
  7  8  1  0  0  0  0
  7 11  1  0  0  0  0
  8 18  1  6  0  0  0
  8  9  1  0  0  0  0
  8  1  1  0  0  0  0
  9 10  1  0  0  0  0
  9 19  1  0  0  0  0
 10 20  1  0  0  0  0
 10 21  1  0  0  0  0
 11 22  1  6  0  0  0
 11 12  1  0  0  0  0
 11 10  1  0  0  0  0
 12  4  1  0  0  0  0
 12 23  1  1  0  0  0
 13 24  1  0  0  0  0
 13 12  1  0  0  0  0
 25 13  1  0  0  0  0
M  END
$$$$
