CSD_code = BEJLAD | q = 0 | S = 0 | Stoichiometry = C10H10Br2HgN2 | MND = 4
 OpenBabel04212202013D

 25 24  0  0  0  0  0  0  0  0999 V2000
   16.1569    6.8789    6.4098 Hg  0  0  0  0  0  0  0  0  0  0  0  0
   17.9837    5.2866    6.7420 Br  0  0  0  0  0  0  0  0  0  0  0  0
   16.6529    7.4884    4.0299 N   0  0  0  0  0  0  0  0  0  0  0  0
   15.9806    8.4602    3.4168 C   0  0  0  0  0  0  0  0  0  0  0  0
   16.2399    8.8484    2.1139 C   0  0  0  0  0  0  0  0  0  0  0  0
   17.2438    8.2008    1.4119 C   0  0  0  0  0  0  0  0  0  0  0  0
   17.9437    7.1872    2.0464 C   0  0  0  0  0  0  0  0  0  0  0  0
   17.6144    6.8659    3.3517 C   0  0  0  0  0  0  0  0  0  0  0  0
   14.6783    8.7563    6.9329 Br  0  0  0  0  0  0  0  0  0  0  0  0
   14.4052    5.2541    5.6622 N   0  0  0  0  0  0  0  0  0  0  0  0
   13.1431    5.6429    5.4951 C   0  0  0  0  0  0  0  0  0  0  0  0
   12.1389    4.7829    5.0863 C   0  0  0  0  0  0  0  0  0  0  0  0
   12.4559    3.4573    4.8372 C   0  0  0  0  0  0  0  0  0  0  0  0
   13.7688    3.0495    5.0094 C   0  0  0  0  0  0  0  0  0  0  0  0
   14.7067    3.9795    5.4229 C   0  0  0  0  0  0  0  0  0  0  0  0
   15.2075    8.9489    3.9952 H   0  0  0  0  0  0  0  0  0  0  0  0
   15.6666    9.6441    1.6655 H   0  0  0  0  0  0  0  0  0  0  0  0
   17.4766    8.4807    0.3952 H   0  0  0  0  0  0  0  0  0  0  0  0
   18.7352    6.6537    1.5447 H   0  0  0  0  0  0  0  0  0  0  0  0
   18.1435    6.0818    3.8774 H   0  0  0  0  0  0  0  0  0  0  0  0
   12.9290    6.6831    5.7023 H   0  0  0  0  0  0  0  0  0  0  0  0
   11.1316    5.1500    4.9685 H   0  0  0  0  0  0  0  0  0  0  0  0
   11.6969    2.7580    4.5191 H   0  0  0  0  0  0  0  0  0  0  0  0
   14.0659    2.0280    4.8317 H   0  0  0  0  0  0  0  0  0  0  0  0
   15.7396    3.6939    5.5710 H   0  0  0  0  0  0  0  0  0  0  0  0
  1  2  1  0  0  0  0
  1  9  1  0  0  0  0
  4 16  1  0  0  0  0
  4  3  1  0  0  0  0
  5  4  2  0  0  0  0
  6  7  2  0  0  0  0
  6  5  1  0  0  0  0
  7  8  1  0  0  0  0
  8 20  1  0  0  0  0
  8  3  2  0  0  0  0
 11 10  1  0  0  0  0
 11 21  1  0  0  0  0
 12 11  2  0  0  0  0
 13 14  2  0  0  0  0
 13 12  1  0  0  0  0
 14 15  1  0  0  0  0
 15 25  1  0  0  0  0
 15 10  2  0  0  0  0
 17  5  1  0  0  0  0
 18  6  1  0  0  0  0
 19  7  1  0  0  0  0
 22 12  1  0  0  0  0
 23 13  1  0  0  0  0
 24 14  1  0  0  0  0
M  END
$$$$
