CSD_code = BEJMUA | q = 0 | S = 0 | Stoichiometry = C29H34ClN2O2Rh | MND = 6
 OpenBabel04212202013D

 69 71  0  0  1  0  0  0  0  0999 V2000
    1.3133    1.2003    3.1910 Rh  0  0  0  0  0  0  0  0  0  0  0  0
    1.6832   -0.8943    3.9676 Cl  0  0  0  0  0 15  0  0  0  0  0  0
    6.4976    2.1387    2.6887 O   0  0  0  0  0  0  0  0  0  0  0  0
    5.8433    1.9106    5.6477 O   0  0  0  0  0  0  0  0  0  0  0  0
    4.2100    1.8089    2.5858 N   0  0  0  0  0  0  0  0  0  0  0  0
    3.7395    1.6394    4.7235 N   0  0  0  0  0  0  0  0  0  0  0  0
    3.1879    1.6049    3.4718 C   0  0  0  0  0  3  0  0  0  0  0  0
    5.4326    1.9523    3.2201 C   0  0  0  0  0  0  0  0  0  0  0  0
    5.1043    1.8342    4.6986 C   0  0  0  0  0  0  0  0  0  0  0  0
    4.0892    1.9605    1.1718 C   0  0  0  0  0  0  0  0  0  0  0  0
    3.7726    0.8635    0.3690 C   0  0  0  0  0  0  0  0  0  0  0  0
    3.6814    1.0581   -1.0006 C   0  0  0  0  0  0  0  0  0  0  0  0
    3.4348    0.2170   -1.6325 H   0  0  0  0  0  0  0  0  0  0  0  0
    3.9102    2.2983   -1.5803 C   0  0  0  0  0  0  0  0  0  0  0  0
    4.2334    3.3666   -0.7579 C   0  0  0  0  0  0  0  0  0  0  0  0
    4.4167    4.3381   -1.1933 H   0  0  0  0  0  0  0  0  0  0  0  0
    4.3282    3.2202    0.6187 C   0  0  0  0  0  0  0  0  0  0  0  0
    3.5228   -0.4818    0.9668 C   0  0  0  0  0  0  0  0  0  0  0  0
    4.3138   -0.7522    1.6645 H   0  0  0  0  0  0  0  0  0  0  0  0
    3.4618   -1.2427    0.1940 H   0  0  0  0  0  0  0  0  0  0  0  0
    2.5788   -0.4750    1.5247 H   0  0  0  0  0  0  0  0  0  0  0  0
    3.8250    2.4638   -3.0664 C   0  0  0  0  0  0  0  0  0  0  0  0
    4.6925    2.0051   -3.5407 H   0  0  0  0  0  0  0  0  0  0  0  0
    3.8007    3.5148   -3.3423 H   0  0  0  0  0  0  0  0  0  0  0  0
    2.9349    1.9745   -3.4576 H   0  0  0  0  0  0  0  0  0  0  0  0
    4.6668    4.3976    1.4816 C   0  0  0  0  0  0  0  0  0  0  0  0
    4.5205    5.3252    0.9343 H   0  0  0  0  0  0  0  0  0  0  0  0
    5.7104    4.3441    1.7916 H   0  0  0  0  0  0  0  0  0  0  0  0
    4.0491    4.4207    2.3796 H   0  0  0  0  0  0  0  0  0  0  0  0
    3.0009    1.3689    5.9177 C   0  0  0  0  0  0  0  0  0  0  0  0
    3.1842    0.1381    6.5588 C   0  0  0  0  0  0  0  0  0  0  0  0
    2.4035   -0.1428    7.6666 C   0  0  0  0  0  0  0  0  0  0  0  0
    2.5200   -1.0967    8.1598 H   0  0  0  0  0  0  0  0  0  0  0  0
    1.4700    0.7628    8.1553 C   0  0  0  0  0  0  0  0  0  0  0  0
    1.3706    2.0020    7.5478 C   0  0  0  0  0  0  0  0  0  0  0  0
    0.6921    2.7430    7.9475 H   0  0  0  0  0  0  0  0  0  0  0  0
    2.1408    2.3329    6.4383 C   0  0  0  0  0  0  0  0  0  0  0  0
    4.2081   -0.8430    6.0828 C   0  0  0  0  0  0  0  0  0  0  0  0
    4.1151   -1.7786    6.6269 H   0  0  0  0  0  0  0  0  0  0  0  0
    5.2102   -0.4453    6.2422 H   0  0  0  0  0  0  0  0  0  0  0  0
    4.0812   -1.0498    5.0217 H   0  0  0  0  0  0  0  0  0  0  0  0
    0.6171    0.4011    9.3325 C   0  0  0  0  0  0  0  0  0  0  0  0
    1.2389    0.0942   10.1720 H   0  0  0  0  0  0  0  0  0  0  0  0
   -0.0344   -0.4347    9.0795 H   0  0  0  0  0  0  0  0  0  0  0  0
    0.0004    1.2408    9.6429 H   0  0  0  0  0  0  0  0  0  0  0  0
    2.0941    3.7419    5.9229 C   0  0  0  0  0  0  0  0  0  0  0  0
    2.7372    3.8798    5.0577 H   0  0  0  0  0  0  0  0  0  0  0  0
    2.4390    4.4146    6.7087 H   0  0  0  0  0  0  0  0  0  0  0  0
    1.0771    4.0287    5.6649 H   0  0  0  0  0  0  0  0  0  0  0  0
    0.9227    2.6375    1.6369 C   0  0  2  0  0  0  0  0  0  0  0  0
    1.8540    2.9545    1.1746 H   0  0  0  0  0  0  0  0  0  0  0  0
    0.5891    3.2214    2.8539 C   0  0  0  0  0  3  0  0  0  0  0  0
    1.3007    3.9423    3.2465 H   0  0  0  0  0  0  0  0  0  0  0  0
   -0.8297    3.4318    3.3416 C   0  0  0  0  0  0  0  0  0  0  0  0
   -1.4799    3.6007    2.4822 H   0  0  0  0  0  0  0  0  0  0  0  0
   -0.8650    4.3401    3.9474 H   0  0  0  0  0  0  0  0  0  0  0  0
   -1.3457    2.2560    4.1912 C   0  0  0  0  0  0  0  0  0  0  0  0
   -1.0574    2.4156    5.2336 H   0  0  0  0  0  0  0  0  0  0  0  0
   -2.4402    2.2220    4.1599 H   0  0  0  0  0  0  0  0  0  0  0  0
   -0.8001    0.9152    3.7640 C   0  0  0  0  0  3  0  0  0  0  0  0
   -0.7667    0.1793    4.5671 H   0  0  0  0  0  0  0  0  0  0  0  0
   -0.6881    0.4711    2.4734 C   0  0  0  0  0  3  0  0  0  0  0  0
   -0.5328   -0.5951    2.3173 H   0  0  0  0  0  0  0  0  0  0  0  0
   -1.1697    1.2267    1.2593 C   0  0  0  0  0  0  0  0  0  0  0  0
   -2.0127    1.8609    1.5347 H   0  0  0  0  0  0  0  0  0  0  0  0
   -1.5325    0.5115    0.5185 H   0  0  0  0  0  0  0  0  0  0  0  0
   -0.0417    2.0603    0.6298 C   0  0  0  0  0  0  0  0  0  0  0  0
    0.5336    1.4279   -0.0523 H   0  0  0  0  0  0  0  0  0  0  0  0
   -0.4620    2.8774    0.0331 H   0  0  0  0  0  0  0  0  0  0  0  0
  1  7  1  0  0  0  0
  3  8  2  0  0  0  0
  5  8  1  0  0  0  0
  5  7  1  0  0  0  0
  6 30  1  0  0  0  0
  7  6  1  0  0  0  0
  8  9  1  0  0  0  0
  9  6  1  0  0  0  0
  9  4  2  0  0  0  0
 10  5  1  0  0  0  0
 11 18  1  0  0  0  0
 11 10  2  0  0  0  0
 12 11  1  0  0  0  0
 13 12  1  0  0  0  0
 14 12  2  0  0  0  0
 14 15  1  0  0  0  0
 15 17  2  0  0  0  0
 16 15  1  0  0  0  0
 17 10  1  0  0  0  0
 17 26  1  0  0  0  0
 18 21  1  0  0  0  0
 18 19  1  0  0  0  0
 20 18  1  0  0  0  0
 22 14  1  0  0  0  0
 23 22  1  0  0  0  0
 24 22  1  0  0  0  0
 25 22  1  0  0  0  0
 26 28  1  0  0  0  0
 26 29  1  0  0  0  0
 27 26  1  0  0  0  0
 30 37  2  0  0  0  0
 30 31  1  0  0  0  0
 31 32  2  0  0  0  0
 32 34  1  0  0  0  0
 32 33  1  0  0  0  0
 34 42  1  0  0  0  0
 35 36  1  0  0  0  0
 35 34  2  0  0  0  0
 37 35  1  0  0  0  0
 38 40  1  0  0  0  0
 38 31  1  0  0  0  0
 38 39  1  0  0  0  0
 41 38  1  0  0  0  0
 42 45  1  0  0  0  0
 42 43  1  0  0  0  0
 44 42  1  0  0  0  0
 46 37  1  0  0  0  0
 46 48  1  0  0  0  0
 47 46  1  0  0  0  0
 49 46  1  0  0  0  0
 50 51  1  6  0  0  0
 50 52  1  0  0  0  0
 50  1  1  0  0  0  0
 52 53  1  0  0  0  0
 52 54  1  0  0  0  0
 54 56  1  0  0  0  0
 54 57  1  0  0  0  0
 55 54  1  0  0  0  0
 57 58  1  0  0  0  0
 59 57  1  0  0  0  0
 60 57  1  0  0  0  0
 60 61  1  0  0  0  0
 62 60  1  0  0  0  0
 63 62  1  0  0  0  0
 64 65  1  0  0  0  0
 64 62  1  0  0  0  0
 66 64  1  0  0  0  0
 67 64  1  0  0  0  0
 67 50  1  0  0  0  0
 68 67  1  0  0  0  0
 69 67  1  0  0  0  0
M  END
$$$$
