CSD_code = BEJNOT | q = 0 | S = 0 | Stoichiometry = C4H12I2N2O2Pt | MND = 4
 OpenBabel04212202013D

 23 22  0  0  0  0  0  0  0  0999 V2000
    1.1311    3.4911    1.3681 Pt  0  0  0  0  0  0  0  0  0  0  0  0
    2.5242    1.3011    1.3634 I   0  0  0  0  0  0  0  0  0  0  0  0
   -0.2617    5.6821    1.3770 I   0  0  0  0  0  0  0  0  0  0  0  0
    5.2627    4.4123    0.1492 O   0  0  0  0  0  1  0  0  0  0  0  0
   -2.9995    2.5769    2.5900 O   0  0  0  0  0  1  0  0  0  0  0  0
    2.7411    4.5303    0.5938 N   0  0  0  0  0  4  0  0  0  0  0  0
   -0.4786    2.4519    2.1424 N   0  0  0  0  0  4  0  0  0  0  0  0
    3.5462    5.1806    1.6334 C   0  0  0  0  0  0  0  0  0  0  0  0
    4.9885    5.3452    1.0450 C   0  0  0  0  0  0  0  0  0  0  0  0
   -1.2873    1.8072    1.1021 C   0  0  0  0  0  0  0  0  0  0  0  0
   -2.7284    1.6438    1.6936 C   0  0  0  0  0  0  0  0  0  0  0  0
    2.4427    5.2355   -0.0878 H   0  0  0  0  0  0  0  0  0  0  0  0
    3.4617    3.9458    0.1033 H   0  0  0  0  0  0  0  0  0  0  0  0
   -1.1971    3.0366    2.6360 H   0  0  0  0  0  0  0  0  0  0  0  0
   -0.1804    1.7437    2.8209 H   0  0  0  0  0  0  0  0  0  0  0  0
    3.1183    6.1360    1.9389 H   0  0  0  0  0  0  0  0  0  0  0  0
    3.6022    4.5159    2.5046 H   0  0  0  0  0  0  0  0  0  0  0  0
    5.0710    6.3525    0.5757 H   0  0  0  0  0  0  0  0  0  0  0  0
    5.7375    5.3749    1.8627 H   0  0  0  0  0  0  0  0  0  0  0  0
   -1.3444    2.4756    0.2337 H   0  0  0  0  0  0  0  0  0  0  0  0
   -0.8623    0.8522    0.7917 H   0  0  0  0  0  0  0  0  0  0  0  0
   -3.4793    1.6145    0.8777 H   0  0  0  0  0  0  0  0  0  0  0  0
   -2.8104    0.6367    2.1634 H   0  0  0  0  0  0  0  0  0  0  0  0
  1  3  1  0  0  0  0
  1  7  1  0  0  0  0
  2  1  1  0  0  0  0
  4  9  1  0  0  0  0
  6  1  1  0  0  0  0
  6  8  1  0  0  0  0
  7 14  1  0  0  0  0
  7 15  1  0  0  0  0
  8 16  1  0  0  0  0
  8 17  1  0  0  0  0
  9  8  1  0  0  0  0
  9 19  1  0  0  0  0
 10 11  1  0  0  0  0
 10  7  1  0  0  0  0
 11 23  1  0  0  0  0
 11  5  1  0  0  0  0
 12  6  1  0  0  0  0
 13  6  1  0  0  0  0
 18  9  1  0  0  0  0
 20 10  1  0  0  0  0
 21 10  1  0  0  0  0
 22 11  1  0  0  0  0
M  END
$$$$
