CSD_code = BEJRAL | q = 0 | S = 0 | Stoichiometry = C39H41Cl2N3OZr | MND = 6
 OpenBabel04212202013D

 87 93  0  0  1  0  0  0  0  0999 V2000
    3.9524    7.9607    8.1741 Zr  0  0  0  0  0  0  0  0  0  0  0  0
    6.2256    8.7103    8.0249 Cl  0  0  0  0  0  0  0  0  0  0  0  0
    1.6165    7.6867    7.7143 Cl  0  0  0  0  0  0  0  0  0  0  0  0
    3.8152    9.1293    6.1974 O   0  0  0  0  0  0  0  0  0  0  0  0
    3.5035    9.4193    9.5844 N   0  0  0  0  0  0  0  0  0  0  0  0
    4.0818    6.8054    9.9823 N   0  0  0  0  0  0  0  0  0  0  0  0
    4.4880    6.1123    7.3808 N   0  0  0  0  0  0  0  0  0  0  0  0
    2.4067    9.2427   10.3499 C   0  0  0  0  0  0  0  0  0  0  0  0
    1.5706   10.3053   10.7666 C   0  0  0  0  0  0  0  0  0  0  0  0
    1.8836   11.3167   10.5535 H   0  0  0  0  0  0  0  0  0  0  0  0
    0.3779   10.0727   11.4020 C   0  0  0  0  0  0  0  0  0  0  0  0
   -0.2560   10.9060   11.6695 H   0  0  0  0  0  0  0  0  0  0  0  0
   -0.0282    8.7716   11.6908 C   0  0  0  0  0  0  0  0  0  0  0  0
   -0.9941    8.5861   12.1339 H   0  0  0  0  0  0  0  0  0  0  0  0
    0.8413    7.7333   11.4504 C   0  0  0  0  0  0  0  0  0  0  0  0
    0.5578    6.7271   11.7249 H   0  0  0  0  0  0  0  0  0  0  0  0
    2.0813    7.9381   10.8345 C   0  0  0  0  0  0  0  0  0  0  0  0
    3.1172    6.9172   10.9280 C   0  0  2  0  0  3  0  0  0  0  0  0
    3.1767    6.1607   12.1062 C   0  0  0  0  0  0  0  0  0  0  0  0
    2.4050    6.2734   12.8493 H   0  0  0  0  0  0  0  0  0  0  0  0
    4.2522    5.3257   12.3319 C   0  0  0  0  0  0  0  0  0  0  0  0
    4.3183    4.7502   13.2432 H   0  0  0  0  0  0  0  0  0  0  0  0
    5.2424    5.2380   11.3743 C   0  0  0  0  0  0  0  0  0  0  0  0
    6.0766    4.5704   11.5109 H   0  0  0  0  0  0  0  0  0  0  0  0
    5.1320    5.9730   10.1858 C   0  0  0  0  0  0  0  0  0  0  0  0
    6.0888    5.6840    9.1243 C   0  0  0  0  0  0  0  0  0  0  0  0
    7.3895    5.2831    9.4545 C   0  0  0  0  0  0  0  0  0  0  0  0
    7.7591    5.4893   10.4489 H   0  0  0  0  0  0  0  0  0  0  0  0
    8.2093    4.6569    8.5452 C   0  0  0  0  0  0  0  0  0  0  0  0
    9.2201    4.3900    8.8106 H   0  0  0  0  0  0  0  0  0  0  0  0
    7.6925    4.3163    7.2967 C   0  0  0  0  0  0  0  0  0  0  0  0
    8.2856    3.7289    6.6105 H   0  0  0  0  0  0  0  0  0  0  0  0
    6.4395    4.7314    6.9264 C   0  0  0  0  0  0  0  0  0  0  0  0
    6.0363    4.4489    5.9653 H   0  0  0  0  0  0  0  0  0  0  0  0
    5.6477    5.5453    7.7716 C   0  0  0  0  0  0  0  0  0  0  0  0
    4.0310   10.7095    9.3737 C   0  0  0  0  0  0  0  0  0  0  0  0
    5.1927   11.0543   10.0877 C   0  0  0  0  0  0  0  0  0  0  0  0
    5.7940   12.2771    9.8565 C   0  0  0  0  0  0  0  0  0  0  0  0
    6.6923   12.5362   10.3984 H   0  0  0  0  0  0  0  0  0  0  0  0
    5.2641   13.1860    8.9465 C   0  0  0  0  0  0  0  0  0  0  0  0
    4.0942   12.8534    8.2843 C   0  0  0  0  0  0  0  0  0  0  0  0
    3.6521   13.5610    7.5951 H   0  0  0  0  0  0  0  0  0  0  0  0
    3.4602   11.6313    8.4858 C   0  0  0  0  0  0  0  0  0  0  0  0
    5.7327   10.0868   11.0994 C   0  0  0  0  0  0  0  0  0  0  0  0
    6.0188    9.1515   10.6108 H   0  0  0  0  0  0  0  0  0  0  0  0
    4.9684    9.8540   11.8431 H   0  0  0  0  0  0  0  0  0  0  0  0
    6.6030   10.5017   11.6011 H   0  0  0  0  0  0  0  0  0  0  0  0
    5.9437   14.5020    8.7136 C   0  0  0  0  0  0  0  0  0  0  0  0
    5.9603   15.0879    9.6320 H   0  0  0  0  0  0  0  0  0  0  0  0
    5.4305   15.0762    7.9465 H   0  0  0  0  0  0  0  0  0  0  0  0
    6.9750   14.3449    8.4013 H   0  0  0  0  0  0  0  0  0  0  0  0
    2.1610   11.3399    7.7856 C   0  0  0  0  0  0  0  0  0  0  0  0
    1.3413   11.8466    8.2977 H   0  0  0  0  0  0  0  0  0  0  0  0
    1.9376   10.2706    7.7884 H   0  0  0  0  0  0  0  0  0  0  0  0
    2.1812   11.7153    6.7633 H   0  0  0  0  0  0  0  0  0  0  0  0
    3.9301    5.8206    6.1193 C   0  0  0  0  0  0  0  0  0  0  0  0
    4.5114    6.2520    4.9136 C   0  0  0  0  0  0  0  0  0  0  0  0
    3.8623    5.9792    3.7155 C   0  0  0  0  0  0  0  0  0  0  0  0
    4.3184    6.3074    2.7907 H   0  0  0  0  0  0  0  0  0  0  0  0
    2.6578    5.2945    3.6733 C   0  0  0  0  0  0  0  0  0  0  0  0
    2.1087    4.8527    4.8701 C   0  0  0  0  0  0  0  0  0  0  0  0
    1.1807    4.2991    4.8552 H   0  0  0  0  0  0  0  0  0  0  0  0
    2.7276    5.0915    6.0860 C   0  0  0  0  0  0  0  0  0  0  0  0
    5.8265    6.9801    4.8853 C   0  0  0  0  0  0  0  0  0  0  0  0
    6.0496    7.4448    5.8468 H   0  0  0  0  0  0  0  0  0  0  0  0
    5.8286    7.7357    4.1006 H   0  0  0  0  0  0  0  0  0  0  0  0
    6.6380    6.2853    4.6639 H   0  0  0  0  0  0  0  0  0  0  0  0
    1.9639    5.0172    2.3735 C   0  0  0  0  0  0  0  0  0  0  0  0
    1.9074    3.9438    2.1957 H   0  0  0  0  0  0  0  0  0  0  0  0
    2.4930    5.4771    1.5427 H   0  0  0  0  0  0  0  0  0  0  0  0
    0.9460    5.4035    2.3970 H   0  0  0  0  0  0  0  0  0  0  0  0
    2.1307    4.5396    7.3495 C   0  0  0  0  0  0  0  0  0  0  0  0
    1.0807    4.8172    7.4199 H   0  0  0  0  0  0  0  0  0  0  0  0
    2.6547    4.9237    8.2287 H   0  0  0  0  0  0  0  0  0  0  0  0
    2.1991    3.4509    7.3468 H   0  0  0  0  0  0  0  0  0  0  0  0
    4.7195   10.1795    5.7760 C   0  0  0  0  0  0  0  0  0  0  0  0
    5.6928    9.7286    5.5548 H   0  0  0  0  0  0  0  0  0  0  0  0
    4.8464   10.8908    6.5989 H   0  0  0  0  0  0  0  0  0  0  0  0
    4.1161   10.8152    4.5256 C   0  0  0  0  0  0  0  0  0  0  0  0
    4.8850   11.1786    3.8481 H   0  0  0  0  0  0  0  0  0  0  0  0
    3.4644   11.6483    4.7894 H   0  0  0  0  0  0  0  0  0  0  0  0
    3.2982    9.6665    3.9452 C   0  0  0  0  0  0  0  0  0  0  0  0
    2.4944    9.9993    3.2932 H   0  0  0  0  0  0  0  0  0  0  0  0
    3.9371    8.9776    3.3938 H   0  0  0  0  0  0  0  0  0  0  0  0
    2.7688    9.0038    5.2097 C   0  0  0  0  0  0  0  0  0  0  0  0
    1.8697    9.5191    5.5696 H   0  0  0  0  0  0  0  0  0  0  0  0
    2.5368    7.9440    5.0796 H   0  0  0  0  0  0  0  0  0  0  0  0
  1  5  1  0  0  0  0
  1  6  1  0  0  0  0
  2  1  1  0  0  0  0
  3  1  1  0  0  0  0
  5  8  1  0  0  0  0
  6 25  1  0  0  0  0
  6 18  1  0  0  0  0
  7 35  1  0  0  0  0
  7  1  1  0  0  0  0
  8  9  2  0  0  0  0
  8 17  1  0  0  0  0
  9 11  1  0  0  0  0
 10  9  1  0  0  0  0
 11 12  1  0  0  0  0
 11 13  2  0  0  0  0
 13 14  1  0  0  0  0
 15 13  1  0  0  0  0
 15 16  1  0  0  0  0
 17 15  2  0  0  0  0
 18 17  1  1  0  0  0
 18 19  1  0  0  0  0
 19 21  2  0  0  0  0
 19 20  1  0  0  0  0
 21 22  1  0  0  0  0
 23 24  1  0  0  0  0
 23 21  1  0  0  0  0
 25 23  2  0  0  0  0
 26 27  1  0  0  0  0
 26 25  1  0  0  0  0
 27 28  1  0  0  0  0
 29 30  1  0  0  0  0
 29 27  2  0  0  0  0
 31 29  1  0  0  0  0
 32 31  1  0  0  0  0
 33 31  2  0  0  0  0
 33 35  1  0  0  0  0
 34 33  1  0  0  0  0
 35 26  2  0  0  0  0
 36  5  1  0  0  0  0
 36 37  1  0  0  0  0
 37 44  1  0  0  0  0
 38 37  2  0  0  0  0
 38 39  1  0  0  0  0
 40 38  1  0  0  0  0
 41 43  1  0  0  0  0
 41 40  2  0  0  0  0
 42 41  1  0  0  0  0
 43 36  2  0  0  0  0
 44 47  1  0  0  0  0
 44 46  1  0  0  0  0
 45 44  1  0  0  0  0
 48 40  1  0  0  0  0
 48 49  1  0  0  0  0
 50 48  1  0  0  0  0
 51 48  1  0  0  0  0
 52 54  1  0  0  0  0
 52 53  1  0  0  0  0
 52 43  1  0  0  0  0
 55 52  1  0  0  0  0
 56  7  1  0  0  0  0
 57 56  2  0  0  0  0
 58 57  1  0  0  0  0
 59 58  1  0  0  0  0
 60 58  2  0  0  0  0
 60 61  1  0  0  0  0
 61 63  2  0  0  0  0
 62 61  1  0  0  0  0
 63 56  1  0  0  0  0
 63 72  1  0  0  0  0
 64 57  1  0  0  0  0
 64 65  1  0  0  0  0
 66 64  1  0  0  0  0
 67 64  1  0  0  0  0
 68 71  1  0  0  0  0
 68 60  1  0  0  0  0
 69 68  1  0  0  0  0
 70 68  1  0  0  0  0
 72 73  1  0  0  0  0
 72 74  1  0  0  0  0
 75 72  1  0  0  0  0
 76  4  1  0  0  0  0
 76 78  1  0  0  0  0
 77 76  1  0  0  0  0
 79 81  1  0  0  0  0
 79 76  1  0  0  0  0
 80 79  1  0  0  0  0
 82 79  1  0  0  0  0
 82 85  1  0  0  0  0
 83 82  1  0  0  0  0
 84 82  1  0  0  0  0
 85 86  1  0  0  0  0
 85  4  1  0  0  0  0
 87 85  1  0  0  0  0
M  END
$$$$
