CSD_code = BEJWUL | q = 0 | S = 0 | Stoichiometry = C19H19Cl2NPdSe | MND = 4
 OpenBabel04212202013D

 43 45  0  0  0  0  0  0  0  0999 V2000
    8.4346    4.8998    6.5990 Pd  0  0  0  0  0  0  0  0  0  0  0  0
    7.5871    2.7609    6.0842 Se  0  0  0  0  0  0  0  0  0  0  0  0
    9.5736    4.0394    8.3239 Cl  0  0  0  0  0  0  0  0  0  0  0  0
    9.2035    6.9526    7.0976 Cl  0  0  0  0  0  0  0  0  0  0  0  0
    7.2838    5.6824    4.9291 N   0  0  0  0  0  4  0  0  0  0  0  0
    6.6186    4.6621    4.1160 C   0  0  0  0  0  0  0  0  0  0  0  0
    5.7799    5.0971    3.5514 H   0  0  0  0  0  0  0  0  0  0  0  0
    7.3495    4.2815    3.3920 H   0  0  0  0  0  0  0  0  0  0  0  0
   10.0177    3.1723    4.5700 C   0  0  0  0  0  0  0  0  0  0  0  0
   10.2433    3.9394    5.3260 H   0  0  0  0  0  0  0  0  0  0  0  0
    8.8456    2.4268    4.6476 C   0  0  0  0  0  0  0  0  0  0  0  0
    6.1143    3.5041    4.9622 C   0  0  0  0  0  0  0  0  0  0  0  0
    5.6977    2.7146    4.3349 H   0  0  0  0  0  0  0  0  0  0  0  0
    5.3548    3.8311    5.6790 H   0  0  0  0  0  0  0  0  0  0  0  0
    7.9760    6.6876    4.0987 C   0  0  0  0  0  0  0  0  0  0  0  0
    8.6265    6.1560    3.3968 H   0  0  0  0  0  0  0  0  0  0  0  0
    8.6045    7.2909    4.7639 H   0  0  0  0  0  0  0  0  0  0  0  0
    6.9913    7.5532    3.3576 C   0  0  0  0  0  0  0  0  0  0  0  0
    6.1930    8.4893    4.0721 C   0  0  0  0  0  0  0  0  0  0  0  0
    5.2080    9.2266    3.3592 C   0  0  0  0  0  0  0  0  0  0  0  0
    6.3374    8.7276    5.4590 C   0  0  0  0  0  0  0  0  0  0  0  0
    7.1111    8.2291    6.0264 H   0  0  0  0  0  0  0  0  0  0  0  0
    5.5315    9.6278    6.1007 C   0  0  0  0  0  0  0  0  0  0  0  0
    5.6606    9.8023    7.1582 H   0  0  0  0  0  0  0  0  0  0  0  0
    6.8216    7.4041    2.0046 C   0  0  0  0  0  0  0  0  0  0  0  0
    7.4368    6.6988    1.4627 H   0  0  0  0  0  0  0  0  0  0  0  0
    4.3917   10.1421    4.0560 C   0  0  0  0  0  0  0  0  0  0  0  0
    3.6455   10.6926    3.5009 H   0  0  0  0  0  0  0  0  0  0  0  0
   10.9104    2.9295    3.5393 C   0  0  0  0  0  0  0  0  0  0  0  0
   11.8209    3.5059    3.4759 H   0  0  0  0  0  0  0  0  0  0  0  0
    8.5790    1.4339    3.7138 C   0  0  0  0  0  0  0  0  0  0  0  0
    7.6760    0.8455    3.7972 H   0  0  0  0  0  0  0  0  0  0  0  0
    5.0661    9.0345    1.9688 C   0  0  0  0  0  0  0  0  0  0  0  0
    4.3146    9.6043    1.4416 H   0  0  0  0  0  0  0  0  0  0  0  0
    5.8653    8.1509    1.3024 C   0  0  0  0  0  0  0  0  0  0  0  0
    5.7628    8.0114    0.2365 H   0  0  0  0  0  0  0  0  0  0  0  0
   10.6379    1.9519    2.5958 C   0  0  0  0  0  0  0  0  0  0  0  0
   11.3368    1.7669    1.7942 H   0  0  0  0  0  0  0  0  0  0  0  0
    9.4744    1.2044    2.6840 C   0  0  0  0  0  0  0  0  0  0  0  0
    9.2670    0.4355    1.9550 H   0  0  0  0  0  0  0  0  0  0  0  0
    4.5437   10.3346    5.3998 C   0  0  0  0  0  0  0  0  0  0  0  0
    3.9159   11.0380    5.9266 H   0  0  0  0  0  0  0  0  0  0  0  0
    6.5779    6.1823    5.4833 H   0  0  0  0  0  0  0  0  0  0  0  0
  1  4  1  0  0  0  0
  1  3  1  0  0  0  0
  5 43  1  0  0  0  0
  5  1  1  0  0  0  0
  6  5  1  0  0  0  0
  6 12  1  0  0  0  0
  7  6  1  0  0  0  0
  8  6  1  0  0  0  0
  9 11  1  0  0  0  0
  9 10  1  0  0  0  0
 11  2  1  0  0  0  0
 12 14  1  0  0  0  0
 12  2  1  0  0  0  0
 13 12  1  0  0  0  0
 15 17  1  0  0  0  0
 15  5  1  0  0  0  0
 16 15  1  0  0  0  0
 18 19  1  0  0  0  0
 18 15  1  0  0  0  0
 19 21  1  0  0  0  0
 20 27  1  0  0  0  0
 20 19  2  0  0  0  0
 21 22  1  0  0  0  0
 21 23  2  0  0  0  0
 23 24  1  0  0  0  0
 25 18  2  0  0  0  0
 26 25  1  0  0  0  0
 27 41  2  0  0  0  0
 28 27  1  0  0  0  0
 29  9  2  0  0  0  0
 30 29  1  0  0  0  0
 31 32  1  0  0  0  0
 31 11  2  0  0  0  0
 33 20  1  0  0  0  0
 34 33  1  0  0  0  0
 35 33  2  0  0  0  0
 35 25  1  0  0  0  0
 36 35  1  0  0  0  0
 37 39  2  0  0  0  0
 37 29  1  0  0  0  0
 38 37  1  0  0  0  0
 39 31  1  0  0  0  0
 40 39  1  0  0  0  0
 41 42  1  0  0  0  0
 41 23  1  0  0  0  0
M  END
$$$$
