CSD_code = BEJWUI | q = 1 | S = 0 | Stoichiometry = C16H24Cl2N8Rh(1+) | MND = 6
 OpenBabel04212202013D

 51 54  0  0  0  0  0  0  0  0999 V2000
    5.0028    1.9445    0.0001 Rh  0  0  0  0  0  0  0  0  0  0  0  0
    3.5977    3.7972   -0.0118 Cl  0  0  0  0  0  0  0  0  0  0  0  0
    4.4203    1.5520    1.9084 N   0  0  0  0  0  0  0  0  0  0  0  0
    3.3040    1.6265    3.7939 N   0  0  0  0  0  0  0  0  0  0  0  0
    3.4797    0.8102   -0.6620 N   0  0  0  0  0  0  0  0  0  0  0  0
    1.6207    0.1959   -1.6445 N   0  0  0  0  0  0  0  0  0  0  0  0
    3.4344    2.1395    2.5656 C   0  0  0  0  0  3  0  0  0  0  0  0
    2.3440    2.0154    4.7892 C   0  0  0  0  0  0  0  0  0  0  0  0
    4.2518    0.6578    3.9300 C   0  0  0  0  0  0  0  0  0  0  0  0
    4.9411    0.6182    2.7562 C   0  0  0  0  0  0  0  0  0  0  0  0
    2.4727    1.2041   -1.4221 C   0  0  0  0  0  3  0  0  0  0  0  0
    0.4158    0.2441   -2.4251 C   0  0  0  0  0  0  0  0  0  0  0  0
    2.1115   -0.8979   -0.9972 C   0  0  0  0  0  0  0  0  0  0  0  0
    3.2652   -0.5074   -0.3865 C   0  0  0  0  0  0  0  0  0  0  0  0
    2.8203    2.9306    2.1794 H   0  0  0  0  0  0  0  0  0  0  0  0
    2.8531    2.3306    5.7010 H   0  0  0  0  0  0  0  0  0  0  0  0
    1.6870    1.1778    5.0292 H   0  0  0  0  0  0  0  0  0  0  0  0
    1.7450    2.8415    4.4122 H   0  0  0  0  0  0  0  0  0  0  0  0
    4.3625    0.0837    4.8262 H   0  0  0  0  0  0  0  0  0  0  0  0
    5.7500   -0.0234    2.4674 H   0  0  0  0  0  0  0  0  0  0  0  0
    2.3329    2.2012   -1.7927 H   0  0  0  0  0  0  0  0  0  0  0  0
   -0.4247   -0.1324   -1.8410 H   0  0  0  0  0  0  0  0  0  0  0  0
    0.5183   -0.3696   -3.3221 H   0  0  0  0  0  0  0  0  0  0  0  0
    0.2134    1.2720   -2.7185 H   0  0  0  0  0  0  0  0  0  0  0  0
    1.6181   -1.8472   -1.0192 H   0  0  0  0  0  0  0  0  0  0  0  0
    3.9476   -1.0842    0.2061 H   0  0  0  0  0  0  0  0  0  0  0  0
    6.4068    0.0909    0.0112 Cl  0  0  0  0  0  0  0  0  0  0  0  0
    5.5848    2.3363   -1.9085 N   0  0  0  0  0  0  0  0  0  0  0  0
    6.5710    1.7489   -2.5655 C   0  0  0  0  0  3  0  0  0  0  0  0
    6.7016    2.2620   -3.7937 N   0  0  0  0  0  0  0  0  0  0  0  0
    7.6615    1.8728   -4.7890 C   0  0  0  0  0  0  0  0  0  0  0  0
    7.1523    1.5577   -5.7009 H   0  0  0  0  0  0  0  0  0  0  0  0
    8.3188    2.7101   -5.0291 H   0  0  0  0  0  0  0  0  0  0  0  0
    8.2602    1.0464   -4.4120 H   0  0  0  0  0  0  0  0  0  0  0  0
    5.7538    3.2308   -3.9299 C   0  0  0  0  0  0  0  0  0  0  0  0
    5.0645    3.2705   -2.7561 C   0  0  0  0  0  0  0  0  0  0  0  0
    4.2556    3.9121   -2.4674 H   0  0  0  0  0  0  0  0  0  0  0  0
    5.6434    3.8050   -4.8261 H   0  0  0  0  0  0  0  0  0  0  0  0
    7.1849    0.9576   -2.1793 H   0  0  0  0  0  0  0  0  0  0  0  0
    6.5261    3.0785    0.6619 N   0  0  0  0  0  0  0  0  0  0  0  0
    7.5330    2.6845    1.4219 C   0  0  0  0  0  3  0  0  0  0  0  0
    8.3849    3.6928    1.6444 N   0  0  0  0  0  0  0  0  0  0  0  0
    9.5899    3.6444    2.4249 C   0  0  0  0  0  0  0  0  0  0  0  0
   10.4303    4.0209    1.8408 H   0  0  0  0  0  0  0  0  0  0  0  0
    9.4874    4.2580    3.3219 H   0  0  0  0  0  0  0  0  0  0  0  0
    9.7921    2.6165    2.7182 H   0  0  0  0  0  0  0  0  0  0  0  0
    7.8940    4.7867    0.9973 C   0  0  0  0  0  0  0  0  0  0  0  0
    6.7402    4.3962    0.3868 C   0  0  0  0  0  0  0  0  0  0  0  0
    6.0576    4.9730   -0.2056 H   0  0  0  0  0  0  0  0  0  0  0  0
    8.3873    5.7360    1.0194 H   0  0  0  0  0  0  0  0  0  0  0  0
    7.6730    1.6874    1.7923 H   0  0  0  0  0  0  0  0  0  0  0  0
  1 27  1  0  0  0  0
  1 40  1  0  0  0  0
  1  3  1  0  0  0  0
  2  1  1  0  0  0  0
  3  7  1  0  0  0  0
  3 10  1  0  0  0  0
  4  9  1  0  0  0  0
  4  8  1  0  0  0  0
  5 14  1  0  0  0  0
  5  1  1  0  0  0  0
  6 11  1  0  0  0  0
  6 13  1  0  0  0  0
  7  4  1  0  0  0  0
  8 17  1  0  0  0  0
  8 16  1  0  0  0  0
  9 19  1  0  0  0  0
 10  9  2  0  0  0  0
 11  5  1  0  0  0  0
 12 22  1  0  0  0  0
 12  6  1  0  0  0  0
 13 14  2  0  0  0  0
 14 26  1  0  0  0  0
 15  7  1  0  0  0  0
 18  8  1  0  0  0  0
 20 10  1  0  0  0  0
 21 11  1  0  0  0  0
 23 12  1  0  0  0  0
 24 12  1  0  0  0  0
 25 13  1  0  0  0  0
 28  1  1  0  0  0  0
 29 39  1  0  0  0  0
 29 28  1  0  0  0  0
 30 29  1  0  0  0  0
 31 34  1  0  0  0  0
 31 30  1  0  0  0  0
 32 31  1  0  0  0  0
 33 31  1  0  0  0  0
 35 30  1  0  0  0  0
 35 36  2  0  0  0  0
 36 37  1  0  0  0  0
 36 28  1  0  0  0  0
 38 35  1  0  0  0  0
 40 41  1  0  0  0  0
 41 42  1  0  0  0  0
 41 51  1  0  0  0  0
 42 43  1  0  0  0  0
 43 46  1  0  0  0  0
 43 45  1  0  0  0  0
 44 43  1  0  0  0  0
 47 50  1  0  0  0  0
 47 42  1  0  0  0  0
 48 40  1  0  0  0  0
 48 47  2  0  0  0  0
 49 48  1  0  0  0  0
M  END
$$$$
