CSD_code = BEKBAX | q = 0 | S = 0 | Stoichiometry = C16H16Cl2F4N2O2Pd | MND = 4
 OpenBabel04212202013D

 43 45  0  0  0  0  0  0  0  0999 V2000
    3.0713   14.1608   15.6369 Pd  0  0  0  0  0  0  0  0  0  0  0  0
    2.9439   12.2027   14.6179 Cl  0  0  0  0  0  0  0  0  0  0  0  0
    3.9766   13.1539   17.3850 Cl  0  0  0  0  0  0  0  0  0  0  0  0
    2.8345   18.8435   21.7341 F   0  0  0  0  0  0  0  0  0  0  0  0
    2.1956   20.9113   21.8702 F   0  0  0  0  0  0  0  0  0  0  0  0
   -1.0477   16.2195    7.5421 F   0  0  0  0  0  0  0  0  0  0  0  0
    2.8821   20.1250   19.2969 O   0  0  0  0  0  0  0  0  0  0  0  0
    0.5836   17.1248    9.8721 O   0  0  0  0  0  0  0  0  0  0  0  0
    3.1121   16.0002   16.4536 N   0  0  0  0  0  0  0  0  0  0  0  0
    2.2548   15.2006   14.1178 N   0  0  0  0  0  0  0  0  0  0  0  0
    2.5821   16.9687   15.6727 C   0  0  0  0  0  0  0  0  0  0  0  0
    2.4925   18.2834   16.1277 C   0  0  0  0  0  0  0  0  0  0  0  0
    2.0534   19.0472   15.5061 H   0  0  0  0  0  0  0  0  0  0  0  0
    2.9707   18.6152   17.3855 C   0  0  0  0  0  0  0  0  0  0  0  0
    3.5331   17.6025   18.1626 C   0  0  0  0  0  0  0  0  0  0  0  0
    3.9246   17.8246   19.1427 H   0  0  0  0  0  0  0  0  0  0  0  0
   -0.1099   17.8646    6.4959 F   0  0  0  0  0  0  0  0  0  0  0  0
    3.5758   16.3164   17.6629 C   0  0  0  0  0  0  0  0  0  0  0  0
    3.9922   15.4943   18.2359 H   0  0  0  0  0  0  0  0  0  0  0  0
    2.1207   16.5247   14.3571 C   0  0  0  0  0  0  0  0  0  0  0  0
    1.5878   17.3747   13.3899 C   0  0  0  0  0  0  0  0  0  0  0  0
    1.4930   18.4309   13.5848 H   0  0  0  0  0  0  0  0  0  0  0  0
    1.1804   16.8635   12.1667 C   0  0  0  0  0  0  0  0  0  0  0  0
    1.3228   15.4954   11.9470 C   0  0  0  0  0  0  0  0  0  0  0  0
    1.0175   15.0670   11.0078 H   0  0  0  0  0  0  0  0  0  0  0  0
    1.8647   14.7073   12.9432 C   0  0  0  0  0  0  0  0  0  0  0  0
    1.9977   13.6377   12.8173 H   0  0  0  0  0  0  0  0  0  0  0  0
    2.9071   20.0333   17.8959 C   0  0  0  0  0  0  0  0  0  0  0  0
    3.8198   20.5606   17.5972 H   0  0  0  0  0  0  0  0  0  0  0  0
    2.0446   20.5559   17.4546 H   0  0  0  0  0  0  0  0  0  0  0  0
    1.6654   19.7315   19.8780 C   0  0  0  0  0  0  0  0  0  0  0  0
    1.3650   18.7259   19.5497 H   0  0  0  0  0  0  0  0  0  0  0  0
    0.8625   20.4446   19.6358 H   0  0  0  0  0  0  0  0  0  0  0  0
    1.8476   19.6991   21.3943 C   0  0  0  0  0  0  0  0  0  0  0  0
    0.5861   17.7678   11.1247 C   0  0  0  0  0  0  0  0  0  0  0  0
   -0.4460   18.0258   11.4201 H   0  0  0  0  0  0  0  0  0  0  0  0
    1.1601   18.7072   11.0710 H   0  0  0  0  0  0  0  0  0  0  0  0
    0.0004   17.8952    8.8556 C   0  0  0  0  0  0  0  0  0  0  0  0
    0.5762   18.8151    8.6709 H   0  0  0  0  0  0  0  0  0  0  0  0
   -1.0363   18.1674    9.1039 H   0  0  0  0  0  0  0  0  0  0  0  0
    0.0068   17.0610    7.5779 C   0  0  0  0  0  0  0  0  0  0  0  0
    0.9283   19.3812   21.9129 H   0  0  0  0  0  0  0  0  0  0  0  0
    0.9261   16.4659    7.4782 H   0  0  0  0  0  0  0  0  0  0  0  0
  1  9  1  0  0  0  0
  1  3  1  0  0  0  0
  2  1  1  0  0  0  0
  6 41  1  0  0  0  0
  7 31  1  0  0  0  0
  8 35  1  0  0  0  0
  9 18  1  0  0  0  0
 10 20  1  0  0  0  0
 10  1  1  0  0  0  0
 11 12  1  0  0  0  0
 11  9  1  0  0  0  0
 12 14  2  0  0  0  0
 13 12  1  0  0  0  0
 14 28  1  0  0  0  0
 14 15  1  0  0  0  0
 15 16  1  0  0  0  0
 17 41  1  0  0  0  0
 18 15  2  0  0  0  0
 18 19  1  0  0  0  0
 20 11  2  0  0  0  0
 21 22  1  0  0  0  0
 21 20  1  0  0  0  0
 23 21  2  0  0  0  0
 24 23  1  0  0  0  0
 24 26  2  0  0  0  0
 25 24  1  0  0  0  0
 26 10  1  0  0  0  0
 27 26  1  0  0  0  0
 28  7  1  0  0  0  0
 29 28  1  0  0  0  0
 30 28  1  0  0  0  0
 31 34  1  0  0  0  0
 32 31  1  0  0  0  0
 33 31  1  0  0  0  0
 34  4  1  0  0  0  0
 34  5  1  0  0  0  0
 34 42  1  0  0  0  0
 35 36  1  0  0  0  0
 35 23  1  0  0  0  0
 37 35  1  0  0  0  0
 38 40  1  0  0  0  0
 38  8  1  0  0  0  0
 39 38  1  0  0  0  0
 41 38  1  0  0  0  0
 43 41  1  0  0  0  0
M  END
$$$$
