CSD_code = BEKLOS | q = 0 | S = 0 | Stoichiometry = C12H36Cl2N6P6Pd | MND = 4
 OpenBabel04212202013D

 63 64  0  0  1  0  0  0  0  0999 V2000
   11.7127   11.9944    5.8950 Pd  0  0  0  0  0  0  0  0  0  0  0  0
   13.1222   11.9663    4.1571 Cl  0  0  0  0  0  0  0  0  0  0  0  0
   10.2241   10.7348    4.7813 Cl  0  0  0  0  0  0  0  0  0  0  0  0
   12.2098   14.5986    6.8101 P   0  0  0  0  0  4  0  0  0  0  0  0
   14.2275   12.6590    7.8227 P   0  0  0  0  0  4  0  0  0  0  0  0
   13.0913   12.7367   10.4636 P   0  0  0  0  0  4  0  0  0  0  0  0
   10.9082   10.7473   10.7323 P   0  0  0  0  0  4  0  0  0  0  0  0
    9.9194   10.4932    8.1006 P   0  0  0  0  0  4  0  0  0  0  0  0
    9.7823   13.3443    7.4347 P   0  0  0  0  0  4  0  0  0  0  0  0
   13.0597   13.2262    6.8466 N   0  0  1  0  0  0  0  0  0  0  0  0
   14.2410   13.0737    9.3802 N   0  0  0  0  0  2  0  0  0  0  0  0
   12.2129   11.4432   10.0831 N   0  0  0  0  0  2  0  0  0  0  0  0
    9.6932   10.4610    9.7033 N   0  0  0  0  0  2  0  0  0  0  0  0
   10.5383   11.9207    7.5961 N   0  0  2  0  0  0  0  0  0  0  0  0
   10.7857   14.6047    7.5880 N   0  0  0  0  0  2  0  0  0  0  0  0
   12.0266   15.0496    5.0448 C   0  0  0  0  0  0  0  0  0  0  0  0
   13.1617   15.9501    7.5620 C   0  0  0  0  0  0  0  0  0  0  0  0
   14.1936   10.8657    7.5268 C   0  0  0  0  0  0  0  0  0  0  0  0
   15.8155   13.2546    7.1682 C   0  0  0  0  0  0  0  0  0  0  0  0
   14.0239   12.5164   12.0244 C   0  0  0  0  0  0  0  0  0  0  0  0
   12.0958   14.2465   10.7604 C   0  0  0  0  0  0  0  0  0  0  0  0
   11.4568    9.1571   11.4647 C   0  0  0  0  0  0  0  0  0  0  0  0
   10.1180   11.5793   12.1591 C   0  0  0  0  0  0  0  0  0  0  0  0
   11.0821    9.1981    7.5365 C   0  0  0  0  0  0  0  0  0  0  0  0
    8.2860   10.0635    7.4285 C   0  0  0  0  0  0  0  0  0  0  0  0
    8.7958   13.4761    5.8909 C   0  0  0  0  0  0  0  0  0  0  0  0
    8.5779   13.5871    8.7760 C   0  0  0  0  0  0  0  0  0  0  0  0
   13.0179   15.1566    4.6042 H   0  0  0  0  0  0  0  0  0  0  0  0
   11.4907   14.2558    4.5000 H   0  0  0  0  0  0  0  0  0  0  0  0
   11.4763   15.9884    4.9810 H   0  0  0  0  0  0  0  0  0  0  0  0
   13.9728   16.2383    6.8958 H   0  0  0  0  0  0  0  0  0  0  0  0
   12.5010   16.7952    7.7366 H   0  0  0  0  0  0  0  0  0  0  0  0
   13.5724   15.5956    8.5064 H   0  0  0  0  0  0  0  0  0  0  0  0
   13.3652   10.4768    8.1237 H   0  0  0  0  0  0  0  0  0  0  0  0
   14.0410   10.6753    6.4541 H   0  0  0  0  0  0  0  0  0  0  0  0
   15.1295   10.4242    7.8689 H   0  0  0  0  0  0  0  0  0  0  0  0
   16.6333   12.7623    7.6873 H   0  0  0  0  0  0  0  0  0  0  0  0
   15.8454   13.0251    6.1040 H   0  0  0  0  0  0  0  0  0  0  0  0
   15.8896   14.3296    7.3181 H   0  0  0  0  0  0  0  0  0  0  0  0
   13.3521   12.4641   12.8788 H   0  0  0  0  0  0  0  0  0  0  0  0
   14.5917   11.5911   11.9480 H   0  0  0  0  0  0  0  0  0  0  0  0
   14.7111   13.3500   12.1411 H   0  0  0  0  0  0  0  0  0  0  0  0
   12.7806   15.0784   10.9156 H   0  0  0  0  0  0  0  0  0  0  0  0
   11.4863   14.4333    9.8743 H   0  0  0  0  0  0  0  0  0  0  0  0
   11.4599   14.1291   11.6351 H   0  0  0  0  0  0  0  0  0  0  0  0
   10.5785    8.5630   11.7069 H   0  0  0  0  0  0  0  0  0  0  0  0
   12.0704    8.6200   10.7438 H   0  0  0  0  0  0  0  0  0  0  0  0
   12.0440    9.3419   12.3620 H   0  0  0  0  0  0  0  0  0  0  0  0
   10.8339   11.7184   12.9671 H   0  0  0  0  0  0  0  0  0  0  0  0
    9.7107   12.5403   11.8518 H   0  0  0  0  0  0  0  0  0  0  0  0
    9.3020   10.9412   12.4911 H   0  0  0  0  0  0  0  0  0  0  0  0
   10.4951    8.3161    7.2795 H   0  0  0  0  0  0  0  0  0  0  0  0
   11.6474    9.5278    6.6517 H   0  0  0  0  0  0  0  0  0  0  0  0
   11.7524    8.9524    8.3602 H   0  0  0  0  0  0  0  0  0  0  0  0
    7.5600   10.8126    7.7377 H   0  0  0  0  0  0  0  0  0  0  0  0
    8.3478   10.0061    6.3432 H   0  0  0  0  0  0  0  0  0  0  0  0
    8.0030    9.1020    7.8499 H   0  0  0  0  0  0  0  0  0  0  0  0
    8.3514   14.4709    5.8696 H   0  0  0  0  0  0  0  0  0  0  0  0
    9.4435   13.3337    5.0144 H   0  0  0  0  0  0  0  0  0  0  0  0
    8.0188   12.7131    5.8738 H   0  0  0  0  0  0  0  0  0  0  0  0
    9.0383   13.2489    9.7023 H   0  0  0  0  0  0  0  0  0  0  0  0
    8.3472   14.6477    8.8414 H   0  0  0  0  0  0  0  0  0  0  0  0
    7.6697   13.0155    8.5997 H   0  0  0  0  0  0  0  0  0  0  0  0
  2  1  1  0  0  0  0
  3  1  1  0  0  0  0
  4 10  1  0  0  0  0
  4 17  1  0  0  0  0
  4 15  1  0  0  0  0
  5 11  1  0  0  0  0
  6 21  1  0  0  0  0
  6 20  1  0  0  0  0
  7 22  1  0  0  0  0
  7 23  1  0  0  0  0
  8 13  1  0  0  0  0
  9 15  1  0  0  0  0
  9 14  1  0  0  0  0
  9 27  1  0  0  0  0
 10  1  1  1  0  0  0
 10  5  1  0  0  0  0
 11  6  1  0  0  0  0
 12  6  1  0  0  0  0
 12  7  1  0  0  0  0
 13  7  1  0  0  0  0
 14  1  1  6  0  0  0
 14  8  1  0  0  0  0
 16  4  1  0  0  0  0
 17 32  1  0  0  0  0
 17 33  1  0  0  0  0
 18  5  1  0  0  0  0
 18 36  1  0  0  0  0
 18 34  1  0  0  0  0
 19 39  1  0  0  0  0
 19 37  1  0  0  0  0
 19  5  1  0  0  0  0
 20 42  1  0  0  0  0
 20 40  1  0  0  0  0
 21 43  1  0  0  0  0
 21 45  1  0  0  0  0
 22 46  1  0  0  0  0
 22 48  1  0  0  0  0
 23 51  1  0  0  0  0
 23 49  1  0  0  0  0
 24  8  1  0  0  0  0
 24 54  1  0  0  0  0
 25 55  1  0  0  0  0
 25 57  1  0  0  0  0
 25  8  1  0  0  0  0
 26  9  1  0  0  0  0
 27 62  1  0  0  0  0
 27 61  1  0  0  0  0
 28 16  1  0  0  0  0
 29 16  1  0  0  0  0
 30 16  1  0  0  0  0
 31 17  1  0  0  0  0
 35 18  1  0  0  0  0
 38 19  1  0  0  0  0
 41 20  1  0  0  0  0
 44 21  1  0  0  0  0
 47 22  1  0  0  0  0
 50 23  1  0  0  0  0
 52 24  1  0  0  0  0
 53 24  1  0  0  0  0
 56 25  1  0  0  0  0
 58 26  1  0  0  0  0
 59 26  1  0  0  0  0
 60 26  1  0  0  0  0
 63 27  1  0  0  0  0
M  END
$$$$
