CSD_code = BEKVUK | q = 0 | S = 0 | Stoichiometry = C38H55ClP3Re | MND = 7
 OpenBabel04212202013D

 98 97  0  0  0  0  0  0  0  0999 V2000
    7.0682    7.6638   15.1376 Re  0  0  0  0  0  0  0  0  0  0  0  0
    8.9269    7.5652   16.6800 Cl  0  0  0  0  0 15  0  0  0  0  0  0
    6.2047    8.7741   17.1014 P   0  0  0  0  0  0  0  0  0  0  0  0
    6.5510    5.4147   15.9574 P   0  0  0  0  0  0  0  0  0  0  0  0
    8.7280    7.0093   13.5332 P   0  0  0  0  0  0  0  0  0  0  0  0
    7.8024    9.6080   14.5919 C   0  0  0  0  0  0  0  0  0  0  0  0
    8.7071   10.0110   15.0508 H   0  0  0  0  0  0  0  0  0  0  0  0
    7.1794   10.3979   13.6752 C   0  0  0  0  0  0  0  0  0  0  0  0
    7.5443   11.3795   13.3942 H   0  0  0  0  0  0  0  0  0  0  0  0
    5.9958    9.8530   13.0987 C   0  0  0  0  0  0  0  0  0  0  0  0
    5.7427    8.6005   13.5912 C   0  0  0  0  0  0  0  0  0  0  0  0
    5.3657    7.3995   13.9046 C   0  0  0  0  0  0  0  0  0  0  0  0
    4.3220    6.4319   13.4874 C   0  0  0  0  0  0  0  0  0  0  0  0
    3.3444    6.9172   13.5910 H   0  0  0  0  0  0  0  0  0  0  0  0
    4.3237    5.5453   14.1256 H   0  0  0  0  0  0  0  0  0  0  0  0
    4.5174    6.0045   12.0275 C   0  0  0  0  0  0  0  0  0  0  0  0
    5.4663    5.4692   11.9343 H   0  0  0  0  0  0  0  0  0  0  0  0
    4.5784    6.8918   11.3926 H   0  0  0  0  0  0  0  0  0  0  0  0
    3.3816    5.1072   11.5452 C   0  0  0  0  0  0  0  0  0  0  0  0
    3.3192    4.2250   12.1875 H   0  0  0  0  0  0  0  0  0  0  0  0
    2.4349    5.6461   11.6321 H   0  0  0  0  0  0  0  0  0  0  0  0
    3.5778    4.6657   10.0966 C   0  0  0  0  0  0  0  0  0  0  0  0
    3.6518    5.5493    9.4580 H   0  0  0  0  0  0  0  0  0  0  0  0
    4.5185    4.1163   10.0105 H   0  0  0  0  0  0  0  0  0  0  0  0
    2.4321    3.7862    9.6119 C   0  0  0  0  0  0  0  0  0  0  0  0
    2.5917    3.4827    8.5799 H   0  0  0  0  0  0  0  0  0  0  0  0
    1.4884    4.3243    9.6695 H   0  0  0  0  0  0  0  0  0  0  0  0
    2.3526    2.8911   10.2251 H   0  0  0  0  0  0  0  0  0  0  0  0
    5.1258   10.5259   12.0616 C   0  0  0  0  0  0  0  0  0  0  0  0
    3.6969    9.9813   12.1480 C   0  0  0  0  0  0  0  0  0  0  0  0
    3.0559   10.4852   11.4264 H   0  0  0  0  0  0  0  0  0  0  0  0
    3.2915   10.1372   13.1453 H   0  0  0  0  0  0  0  0  0  0  0  0
    3.6806    8.9159   11.9386 H   0  0  0  0  0  0  0  0  0  0  0  0
    5.0941   12.0425   12.2784 C   0  0  0  0  0  0  0  0  0  0  0  0
    6.0725   12.4847   12.1096 H   0  0  0  0  0  0  0  0  0  0  0  0
    4.7792   12.2768   13.2930 H   0  0  0  0  0  0  0  0  0  0  0  0
    4.3927   12.5023   11.5845 H   0  0  0  0  0  0  0  0  0  0  0  0
    5.7040   10.2256   10.6702 C   0  0  0  0  0  0  0  0  0  0  0  0
    5.7182    9.1526   10.4890 H   0  0  0  0  0  0  0  0  0  0  0  0
    6.7226   10.6005   10.5919 H   0  0  0  0  0  0  0  0  0  0  0  0
    5.1010   10.7006    9.8984 H   0  0  0  0  0  0  0  0  0  0  0  0
    4.5381    9.5191   17.0600 C   0  0  0  0  0  0  0  0  0  0  0  0
    3.5120    9.1931   17.9374 C   0  0  0  0  0  0  0  0  0  0  0  0
    3.6649    8.4517   18.7071 H   0  0  0  0  0  0  0  0  0  0  0  0
    2.2793    9.8135   17.8271 C   0  0  0  0  0  0  0  0  0  0  0  0
    1.4876    9.5577   18.5175 H   0  0  0  0  0  0  0  0  0  0  0  0
    2.0573   10.7589   16.8409 C   0  0  0  0  0  0  0  0  0  0  0  0
    1.0942   11.2417   16.7598 H   0  0  0  0  0  0  0  0  0  0  0  0
    3.0746   11.0820   15.9570 C   0  0  0  0  0  0  0  0  0  0  0  0
    2.9028   11.8200   15.1859 H   0  0  0  0  0  0  0  0  0  0  0  0
    4.3053   10.4633   16.0640 C   0  0  0  0  0  0  0  0  0  0  0  0
    5.1032   10.6965   15.3734 H   0  0  0  0  0  0  0  0  0  0  0  0
    6.2323    7.8752   18.6993 C   0  0  0  0  0  0  0  0  0  0  0  0
    5.6127    6.9806   18.6527 H   0  0  0  0  0  0  0  0  0  0  0  0
    5.8942    8.5296   19.5027 H   0  0  0  0  0  0  0  0  0  0  0  0
    7.2683    7.5876   18.8797 H   0  0  0  0  0  0  0  0  0  0  0  0
    7.1554   10.2604   17.6024 C   0  0  0  0  0  0  0  0  0  0  0  0
    8.1911    9.9654   17.7627 H   0  0  0  0  0  0  0  0  0  0  0  0
    6.7321   10.6672   18.5214 H   0  0  0  0  0  0  0  0  0  0  0  0
    7.1133   11.0072   16.8128 H   0  0  0  0  0  0  0  0  0  0  0  0
    4.8993    5.1041   16.7049 C   0  0  0  0  0  0  0  0  0  0  0  0
    4.5706    3.8823   17.2836 C   0  0  0  0  0  0  0  0  0  0  0  0
    5.2871    3.0734   17.3031 H   0  0  0  0  0  0  0  0  0  0  0  0
    3.3217    3.6855   17.8435 C   0  0  0  0  0  0  0  0  0  0  0  0
    3.0809    2.7332   18.2946 H   0  0  0  0  0  0  0  0  0  0  0  0
    2.3795    4.7013   17.8275 C   0  0  0  0  0  0  0  0  0  0  0  0
    1.4043    4.5413   18.2638 H   0  0  0  0  0  0  0  0  0  0  0  0
    2.6950    5.9188   17.2497 C   0  0  0  0  0  0  0  0  0  0  0  0
    1.9687    6.7184   17.2277 H   0  0  0  0  0  0  0  0  0  0  0  0
    3.9481    6.1159   16.6980 C   0  0  0  0  0  0  0  0  0  0  0  0
    4.1995    7.0684   16.2472 H   0  0  0  0  0  0  0  0  0  0  0  0
    7.6281    4.6795   17.2508 C   0  0  0  0  0  0  0  0  0  0  0  0
    7.4075    3.6217   17.3869 H   0  0  0  0  0  0  0  0  0  0  0  0
    7.4992    5.2128   18.1904 H   0  0  0  0  0  0  0  0  0  0  0  0
    8.6617    4.7967   16.9286 H   0  0  0  0  0  0  0  0  0  0  0  0
    6.6201    4.0260   14.7436 C   0  0  0  0  0  0  0  0  0  0  0  0
    6.3488    4.3825   13.7535 H   0  0  0  0  0  0  0  0  0  0  0  0
    5.9462    3.2228   15.0381 H   0  0  0  0  0  0  0  0  0  0  0  0
    7.6410    3.6508   14.7069 H   0  0  0  0  0  0  0  0  0  0  0  0
    9.4316    5.3260   13.5226 C   0  0  0  0  0  0  0  0  0  0  0  0
   10.2287    4.9622   14.6061 C   0  0  0  0  0  0  0  0  0  0  0  0
   10.4146    5.6855   15.3882 H   0  0  0  0  0  0  0  0  0  0  0  0
   10.7651    3.6911   14.6864 C   0  0  0  0  0  0  0  0  0  0  0  0
   11.3838    3.4187   15.5296 H   0  0  0  0  0  0  0  0  0  0  0  0
   10.5102    2.7664   13.6858 C   0  0  0  0  0  0  0  0  0  0  0  0
   10.9307    1.7730   13.7451 H   0  0  0  0  0  0  0  0  0  0  0  0
    9.7120    3.1185   12.6103 C   0  0  0  0  0  0  0  0  0  0  0  0
    9.5094    2.3982   11.8302 H   0  0  0  0  0  0  0  0  0  0  0  0
    9.1694    4.3894   12.5295 C   0  0  0  0  0  0  0  0  0  0  0  0
    8.5419    4.6478   11.6893 H   0  0  0  0  0  0  0  0  0  0  0  0
   10.2897    7.9679   13.6055 C   0  0  0  0  0  0  0  0  0  0  0  0
   11.0405    7.4886   12.9765 H   0  0  0  0  0  0  0  0  0  0  0  0
   10.6385    8.0154   14.6350 H   0  0  0  0  0  0  0  0  0  0  0  0
   10.0916    8.9778   13.2520 H   0  0  0  0  0  0  0  0  0  0  0  0
    8.2875    7.2938   11.7777 C   0  0  0  0  0  0  0  0  0  0  0  0
    9.1255    7.0431   11.1282 H   0  0  0  0  0  0  0  0  0  0  0  0
    8.0444    8.3513   11.6814 H   0  0  0  0  0  0  0  0  0  0  0  0
    7.4078    6.7165   11.5036 H   0  0  0  0  0  0  0  0  0  0  0  0
  3 57  1  0  0  0  0
  3 53  1  0  0  0  0
  4 61  1  0  0  0  0
  4 72  1  0  0  0  0
  5 91  1  0  0  0  0
  6  7  1  0  0  0  0
  6  1  1  0  0  0  0
  8  6  2  0  0  0  0
  9  8  1  0  0  0  0
 10 11  2  0  0  0  0
 10  8  1  0  0  0  0
 11 12  2  0  0  0  0
 12  1  1  0  0  0  0
 13 14  1  0  0  0  0
 13 12  1  0  0  0  0
 13 15  1  0  0  0  0
 16 13  1  0  0  0  0
 17 16  1  0  0  0  0
 18 16  1  0  0  0  0
 19 21  1  0  0  0  0
 19 16  1  0  0  0  0
 19 20  1  0  0  0  0
 22 19  1  0  0  0  0
 23 22  1  0  0  0  0
 24 22  1  0  0  0  0
 25 27  1  0  0  0  0
 25 22  1  0  0  0  0
 25 28  1  0  0  0  0
 26 25  1  0  0  0  0
 29 30  1  0  0  0  0
 29 34  1  0  0  0  0
 29 10  1  0  0  0  0
 30 32  1  0  0  0  0
 31 30  1  0  0  0  0
 33 30  1  0  0  0  0
 34 36  1  0  0  0  0
 35 34  1  0  0  0  0
 37 34  1  0  0  0  0
 38 29  1  0  0  0  0
 39 38  1  0  0  0  0
 40 38  1  0  0  0  0
 41 38  1  0  0  0  0
 42  3  1  0  0  0  0
 42 43  1  0  0  0  0
 43 44  1  0  0  0  0
 45 43  2  0  0  0  0
 45 46  1  0  0  0  0
 47 45  1  0  0  0  0
 48 47  1  0  0  0  0
 49 51  1  0  0  0  0
 49 47  2  0  0  0  0
 50 49  1  0  0  0  0
 51 42  2  0  0  0  0
 52 51  1  0  0  0  0
 53 56  1  0  0  0  0
 53 55  1  0  0  0  0
 54 53  1  0  0  0  0
 57 58  1  0  0  0  0
 57 59  1  0  0  0  0
 60 57  1  0  0  0  0
 61 62  1  0  0  0  0
 62 63  1  0  0  0  0
 62 64  2  0  0  0  0
 64 65  1  0  0  0  0
 66 64  1  0  0  0  0
 66 67  1  0  0  0  0
 68 66  2  0  0  0  0
 69 68  1  0  0  0  0
 70 61  2  0  0  0  0
 70 68  1  0  0  0  0
 71 70  1  0  0  0  0
 72 73  1  0  0  0  0
 72 74  1  0  0  0  0
 75 72  1  0  0  0  0
 76 78  1  0  0  0  0
 76  4  1  0  0  0  0
 77 76  1  0  0  0  0
 79 76  1  0  0  0  0
 80  5  1  0  0  0  0
 80 81  1  0  0  0  0
 81 83  2  0  0  0  0
 81 82  1  0  0  0  0
 83 84  1  0  0  0  0
 85 86  1  0  0  0  0
 85 83  1  0  0  0  0
 87 85  2  0  0  0  0
 88 87  1  0  0  0  0
 89 87  1  0  0  0  0
 89 80  2  0  0  0  0
 90 89  1  0  0  0  0
 91 93  1  0  0  0  0
 92 91  1  0  0  0  0
 94 91  1  0  0  0  0
 95  5  1  0  0  0  0
 96 95  1  0  0  0  0
 97 95  1  0  0  0  0
 98 95  1  0  0  0  0
M  END
$$$$
