CSD_code = BELJUZ | q = 0 | S = 0 | Stoichiometry = C15H21ClFeO2 | MND = 8
 OpenBabel04212202013D

 40 40  0  0  1  0  0  0  0  0999 V2000
    3.5740    1.4807    2.1045 Fe  0  0  0  0  0  0  0  0  0  0  0  0
    4.5594   -0.3040    2.7588 Cl  0  0  0  0  0  0  0  0  0  0  0  0
    5.4109    2.9412    2.3532 C   0  0  0  0  0  0  0  0  0  0  0  0
    4.1966    3.6587    2.3408 C   0  0  0  0  0  0  0  0  0  0  0  0
    3.8525    4.3178    3.1195 H   0  0  0  0  0  0  0  0  0  0  0  0
    3.5391    3.4563    1.0878 C   0  0  1  0  0  0  0  0  0  0  0  0
    4.4191    2.6613    0.2905 C   0  0  0  0  0  0  0  0  0  0  0  0
    4.2837    2.4107   -0.7472 H   0  0  0  0  0  0  0  0  0  0  0  0
    5.5383    2.3273    1.0646 C   0  0  0  0  0  0  0  0  0  0  0  0
    6.3859    1.7601    0.7204 H   0  0  0  0  0  0  0  0  0  0  0  0
    6.4388    2.9663    3.4579 C   0  0  0  0  0  0  0  0  0  0  0  0
    7.0778    4.3637    3.4823 C   0  0  0  0  0  0  0  0  0  0  0  0
    7.8415    4.4094    4.2550 H   0  0  0  0  0  0  0  0  0  0  0  0
    6.3317    5.1277    3.6889 H   0  0  0  0  0  0  0  0  0  0  0  0
    7.5421    4.5879    2.5241 H   0  0  0  0  0  0  0  0  0  0  0  0
    7.5186    1.9085    3.2200 C   0  0  0  0  0  0  0  0  0  0  0  0
    8.2102    1.8921    4.0591 H   0  0  0  0  0  0  0  0  0  0  0  0
    8.0885    2.1258    2.3192 H   0  0  0  0  0  0  0  0  0  0  0  0
    7.0663    0.9236    3.1288 H   0  0  0  0  0  0  0  0  0  0  0  0
    5.7590    2.6825    4.8026 C   0  0  0  0  0  0  0  0  0  0  0  0
    6.4945    2.6934    5.6034 H   0  0  0  0  0  0  0  0  0  0  0  0
    5.2886    1.7010    4.7781 H   0  0  0  0  0  0  0  0  0  0  0  0
    4.9994    3.4269    5.0286 H   0  0  0  0  0  0  0  0  0  0  0  0
    2.3285    4.2189    0.6062 C   0  0  0  0  0  0  0  0  0  0  0  0
    2.7681    5.6632    0.3188 C   0  0  0  0  0  0  0  0  0  0  0  0
    1.9276    6.2423   -0.0562 H   0  0  0  0  0  0  0  0  0  0  0  0
    3.5595    5.6783   -0.4271 H   0  0  0  0  0  0  0  0  0  0  0  0
    3.1404    6.1389    1.2228 H   0  0  0  0  0  0  0  0  0  0  0  0
    1.7639    3.5948   -0.6719 C   0  0  0  0  0  0  0  0  0  0  0  0
    0.8477    4.1043   -0.9603 H   0  0  0  0  0  0  0  0  0  0  0  0
    1.5366    2.5431   -0.5120 H   0  0  0  0  0  0  0  0  0  0  0  0
    2.4686    3.6806   -1.4949 H   0  0  0  0  0  0  0  0  0  0  0  0
    1.2371    4.2172    1.6808 C   0  0  0  0  0  0  0  0  0  0  0  0
    0.3678    4.7701    1.3331 H   0  0  0  0  0  0  0  0  0  0  0  0
    1.5860    4.6787    2.6002 H   0  0  0  0  0  0  0  0  0  0  0  0
    0.9354    3.1946    1.9025 H   0  0  0  0  0  0  0  0  0  0  0  0
    2.2932    0.6045    1.3057 C   0  0  0  0  0  2  0  0  0  0  0  0
    1.4210    0.0157    0.8572 O   0  0  0  0  0  1  0  0  0  0  0  0
    2.4817    1.5235    3.4586 C   0  0  0  0  0  2  0  0  0  0  0  0
    1.7370    1.5212    4.3261 O   0  0  0  0  0  1  0  0  0  0  0  0
  1  2  1  0  0  0  0
  1 39  1  0  0  0  0
  3 11  1  0  0  0  0
  4  3  2  0  0  0  0
  4  5  1  0  0  0  0
  6 24  1  6  0  0  0
  6  1  1  0  0  0  0
  6  4  1  0  0  0  0
  7  9  2  0  0  0  0
  7  6  1  0  0  0  0
  8  7  1  0  0  0  0
  9  3  1  0  0  0  0
 10  9  1  0  0  0  0
 11 12  1  0  0  0  0
 11 20  1  0  0  0  0
 12 14  1  0  0  0  0
 12 13  1  0  0  0  0
 15 12  1  0  0  0  0
 16 11  1  0  0  0  0
 16 17  1  0  0  0  0
 18 16  1  0  0  0  0
 19 16  1  0  0  0  0
 20 23  1  0  0  0  0
 20 21  1  0  0  0  0
 22 20  1  0  0  0  0
 24 33  1  0  0  0  0
 25 24  1  0  0  0  0
 25 28  1  0  0  0  0
 26 25  1  0  0  0  0
 27 25  1  0  0  0  0
 29 31  1  0  0  0  0
 29 24  1  0  0  0  0
 30 29  1  0  0  0  0
 32 29  1  0  0  0  0
 33 36  1  0  0  0  0
 33 35  1  0  0  0  0
 34 33  1  0  0  0  0
 37  1  1  0  0  0  0
 38 37  1  0  0  0  0
 39 40  1  0  0  0  0
M  END
$$$$
