CSD_code = BELMEM | q = 1 | S = 0 | Stoichiometry = C13H15ClN3Pd(1+) | MND = 4
 OpenBabel04212202013D

 33 36  0  0  1  0  0  0  0  0999 V2000
    4.0390   11.6949   12.2028 Pd  0  0  2  0  0  0  0  0  0  0  0  0
    1.8299   11.9164   12.0896 Cl  0  0  0  0  0  0  0  0  0  0  0  0
    4.4272   13.6404   12.2020 N   0  0  0  0  0  0  0  0  0  0  0  0
    3.6060   14.6487   12.4883 C   0  0  0  0  0  3  0  0  0  0  0  0
    2.5685   14.3872   12.6638 H   0  0  0  0  0  0  0  0  0  0  0  0
    4.0455   15.9619   12.5460 C   0  0  0  0  0  0  0  0  0  0  0  0
    3.3483   16.7514   12.7727 H   0  0  0  0  0  0  0  0  0  0  0  0
    5.3833   16.2319   12.3081 C   0  0  0  0  0  0  0  0  0  0  0  0
    5.7598   17.2417   12.3469 H   0  0  0  0  0  0  0  0  0  0  0  0
    6.2379   15.1766   12.0187 C   0  0  0  0  0  0  0  0  0  0  0  0
    7.2850   15.3524   11.8289 H   0  0  0  0  0  0  0  0  0  0  0  0
    5.7309   13.8881   11.9685 C   0  0  0  0  0  0  0  0  0  0  0  0
    4.0344    9.7112   12.1785 N   0  0  0  0  0  0  0  0  0  0  0  0
    3.0298    8.8820   12.4546 C   0  0  0  0  0  3  0  0  0  0  0  0
    2.0643    9.3413   12.6343 H   0  0  0  0  0  0  0  0  0  0  0  0
    3.2012    7.5072   12.4972 C   0  0  0  0  0  0  0  0  0  0  0  0
    2.3614    6.8687   12.7161 H   0  0  0  0  0  0  0  0  0  0  0  0
    4.4595    6.9809   12.2548 C   0  0  0  0  0  0  0  0  0  0  0  0
    4.6291    5.9162   12.2819 H   0  0  0  0  0  0  0  0  0  0  0  0
    5.5060    7.8496   11.9760 C   0  0  0  0  0  0  0  0  0  0  0  0
    6.4979    7.4728   11.7830 H   0  0  0  0  0  0  0  0  0  0  0  0
    5.2636    9.2133   11.9406 C   0  0  0  0  0  0  0  0  0  0  0  0
    6.1022   11.4882   12.2825 N   0  0  2  0  0  4  0  0  0  0  0  0
    6.5942   12.6948   11.6027 C   0  0  0  0  0  0  0  0  0  0  0  0
    6.5149   12.5516   10.5164 H   0  0  0  0  0  0  0  0  0  0  0  0
    7.6471   12.8930   11.8448 H   0  0  0  0  0  0  0  0  0  0  0  0
    6.3458   10.2168   11.5867 C   0  0  0  0  0  0  0  0  0  0  0  0
    7.3389    9.8113   11.8233 H   0  0  0  0  0  0  0  0  0  0  0  0
    6.2956   10.3864   10.5025 H   0  0  0  0  0  0  0  0  0  0  0  0
    6.5772   11.4317   13.6654 C   0  0  0  0  0  0  0  0  0  0  0  0
    6.1238   10.5823   14.1815 H   0  0  0  0  0  0  0  0  0  0  0  0
    6.3004   12.3474   14.1930 H   0  0  0  0  0  0  0  0  0  0  0  0
    7.6681   11.3223   13.7013 H   0  0  0  0  0  0  0  0  0  0  0  0
  1  2  1  1  0  0  0
  1 23  1  0  0  0  0
  3  1  1  0  0  0  0
  3  4  1  0  0  0  0
  4  6  1  0  0  0  0
  4  5  1  0  0  0  0
  6  7  1  0  0  0  0
  8  9  1  0  0  0  0
  8  6  2  0  0  0  0
 10  8  1  0  0  0  0
 11 10  1  0  0  0  0
 12 10  2  0  0  0  0
 12  3  1  0  0  0  0
 13  1  1  0  0  0  0
 13 14  1  0  0  0  0
 14 16  1  0  0  0  0
 14 15  1  0  0  0  0
 16 17  1  0  0  0  0
 18 19  1  0  0  0  0
 18 16  2  0  0  0  0
 20 18  1  0  0  0  0
 21 20  1  0  0  0  0
 22 20  2  0  0  0  0
 22 13  1  0  0  0  0
 23 30  1  1  0  0  0
 24 26  1  0  0  0  0
 24 12  1  0  0  0  0
 24 23  1  0  0  0  0
 25 24  1  0  0  0  0
 27 28  1  0  0  0  0
 27 22  1  0  0  0  0
 27 23  1  0  0  0  0
 29 27  1  0  0  0  0
 30 33  1  0  0  0  0
 30 31  1  0  0  0  0
 30 32  1  0  0  0  0
M  END
$$$$
