CSD_code = BELMUC | q = 1 | S = 0 | Stoichiometry = C13H15ClN3Pt(1+) | MND = 4
 OpenBabel04212202013D

 33 36  0  0  1  0  0  0  0  0999 V2000
    2.7392    1.0073    5.2059 Pt  0  0  1  0  0  0  0  0  0  0  0  0
    2.1403   -1.0604    5.8188 Cl  0  0  0  0  0  0  0  0  0  0  0  0
    3.3246    2.9076    4.6371 N   0  0  1  0  0  4  0  0  0  0  0  0
    3.1144    1.6468    7.0379 N   0  0  0  0  0  0  0  0  0  0  0  0
    2.5094    0.7045    3.2664 N   0  0  0  0  0  0  0  0  0  0  0  0
    2.1957    3.8374    4.5855 C   0  0  0  0  0  0  0  0  0  0  0  0
    2.5272    4.8371    4.2841 H   0  0  0  0  0  0  0  0  0  0  0  0
    1.7239    3.9080    5.5658 H   0  0  0  0  0  0  0  0  0  0  0  0
    1.4540    3.4856    3.8681 H   0  0  0  0  0  0  0  0  0  0  0  0
    4.2788    3.3049    5.6832 C   0  0  0  0  0  0  0  0  0  0  0  0
    4.4226    4.3923    5.7049 H   0  0  0  0  0  0  0  0  0  0  0  0
    5.2503    2.8395    5.4778 H   0  0  0  0  0  0  0  0  0  0  0  0
    3.8094    2.8028    7.0338 C   0  0  2  0  0  3  0  0  0  0  0  0
    3.0860    1.6793    2.5340 C   0  0  1  0  0  3  0  0  0  0  0  0
    3.8960    2.7083    3.2967 C   0  0  0  0  0  0  0  0  0  0  0  0
    4.9157    2.3176    3.3963 H   0  0  0  0  0  0  0  0  0  0  0  0
    3.9479    3.6503    2.7371 H   0  0  0  0  0  0  0  0  0  0  0  0
    4.1112    3.4647    8.2115 C   0  0  0  0  0  0  0  0  0  0  0  0
    4.6682    4.3878    8.1832 H   0  0  0  0  0  0  0  0  0  0  0  0
    2.9746    1.7041    1.1545 C   0  0  0  0  0  0  0  0  0  0  0  0
    3.4438    2.4942    0.5899 H   0  0  0  0  0  0  0  0  0  0  0  0
    3.6959    2.9241    9.4211 C   0  0  0  0  0  0  0  0  0  0  0  0
    3.9259    3.4247   10.3482 H   0  0  0  0  0  0  0  0  0  0  0  0
    2.2610    0.7012    0.5118 C   0  0  0  0  0  0  0  0  0  0  0  0
    2.1673    0.7032   -0.5625 H   0  0  0  0  0  0  0  0  0  0  0  0
    2.9833    1.7360    9.4109 C   0  0  0  0  0  0  0  0  0  0  0  0
    2.6433    1.2812   10.3264 H   0  0  0  0  0  0  0  0  0  0  0  0
    1.6749   -0.2948    1.2760 C   0  0  0  0  0  0  0  0  0  0  0  0
    1.1141   -1.0926    0.8180 H   0  0  0  0  0  0  0  0  0  0  0  0
    2.7084    1.1294    8.1970 C   0  0  0  0  0  0  0  0  0  0  0  0
    2.1581    0.1990    8.1388 H   0  0  0  0  0  0  0  0  0  0  0  0
    1.8182   -0.2557    2.6526 C   0  0  0  0  0  0  0  0  0  0  0  0
    1.3813   -1.0130    3.2909 H   0  0  0  0  0  0  0  0  0  0  0  0
  1  2  1  1  0  0  0
  1  4  1  0  0  0  0
  3  6  1  6  0  0  0
  3  1  1  0  0  0  0
  3 10  1  0  0  0  0
  4 30  1  0  0  0  0
  5  1  1  0  0  0  0
  6  8  1  0  0  0  0
  7  6  1  0  0  0  0
  9  6  1  0  0  0  0
 10 11  1  0  0  0  0
 10 13  1  0  0  0  0
 12 10  1  0  0  0  0
 13  4  1  0  0  0  0
 13 18  1  1  0  0  0
 14 20  1  6  0  0  0
 14  5  1  0  0  0  0
 14 15  1  0  0  0  0
 15 16  1  0  0  0  0
 15  3  1  0  0  0  0
 17 15  1  0  0  0  0
 18 22  2  0  0  0  0
 19 18  1  0  0  0  0
 21 20  1  0  0  0  0
 22 23  1  0  0  0  0
 24 20  2  0  0  0  0
 24 28  1  0  0  0  0
 25 24  1  0  0  0  0
 26 22  1  0  0  0  0
 26 27  1  0  0  0  0
 28 32  2  0  0  0  0
 29 28  1  0  0  0  0
 30 26  2  0  0  0  0
 31 30  1  0  0  0  0
 32  5  1  0  0  0  0
 32 33  1  0  0  0  0
M  END
$$$$
