CSD_code = BELSUI | q = 0 | S = 0 | Stoichiometry = C23H25Cl2CuN2O2 | MND = 4
 OpenBabel04212202013D

 55 58  0  0  1  0  0  0  0  0999 V2000
    1.0546    4.2600    1.6454 Cu  0  0  0  0  0  0  0  0  0  0  0  0
    3.1006    4.4102    2.9460 O   0  0  0  0  0  0  0  0  0  0  0  0
    1.9765    4.3356   -0.2590 Cl  0  0  0  0  0  0  0  0  0  0  0  0
    1.0865    2.4069    1.5077 N   0  0  0  0  0  0  0  0  0  0  0  0
    0.7660    6.3656    1.7124 Cl  0  0  0  0  0  0  0  0  0  0  0  0
    0.1974    4.0035    3.3404 N   0  0  0  0  0  0  0  0  0  0  0  0
    2.6267    2.1061    3.4388 C   0  0  0  0  0  0  0  0  0  0  0  0
    3.7340    7.0887    2.3421 O   0  0  0  0  0  0  0  0  0  0  0  0
    2.8270    6.7378    2.2895 H   0  0  0  0  0  0  0  0  0  0  0  0
    4.6642    6.1101    2.2728 C   0  0  0  0  0  0  0  0  0  0  0  0
    5.4219    3.8277    2.5293 C   0  0  0  0  0  0  0  0  0  0  0  0
    5.1994    2.8004    2.7808 H   0  0  0  0  0  0  0  0  0  0  0  0
    3.0158    3.3745    3.8670 C   0  0  0  0  0  0  0  0  0  0  0  0
    4.4086    4.7725    2.5791 C   0  0  0  0  0  0  0  0  0  0  0  0
    6.7111    4.1899    2.1771 C   0  0  0  0  0  0  0  0  0  0  0  0
   -0.0626    1.9338    2.2557 C   0  0  0  0  0  0  0  0  0  0  0  0
    0.0396    0.8661    2.4717 H   0  0  0  0  0  0  0  0  0  0  0  0
   -0.9501    2.0701    1.6228 H   0  0  0  0  0  0  0  0  0  0  0  0
   -0.2234    2.7446    3.5000 C   0  0  1  0  0  3  0  0  0  0  0  0
    2.3401    1.8605    1.9766 C   0  0  0  0  0  0  0  0  0  0  0  0
    2.3132    0.7797    1.7864 H   0  0  0  0  0  0  0  0  0  0  0  0
    3.1243    2.2923    1.3487 H   0  0  0  0  0  0  0  0  0  0  0  0
    2.6676    1.3451    5.7349 C   0  0  0  0  0  0  0  0  0  0  0  0
    2.4566    1.1055    4.3858 C   0  0  0  0  0  0  0  0  0  0  0  0
    2.1621    0.1177    4.0589 H   0  0  0  0  0  0  0  0  0  0  0  0
    3.2496    3.6407    5.2173 C   0  0  0  0  0  0  0  0  0  0  0  0
    3.0651    2.6155    6.1311 C   0  0  0  0  0  0  0  0  0  0  0  0
    3.2371    2.8126    7.1797 H   0  0  0  0  0  0  0  0  0  0  0  0
    0.1548    4.8576    4.3551 C   0  0  0  0  0  0  0  0  0  0  0  0
    0.4910    5.8629    4.1431 H   0  0  0  0  0  0  0  0  0  0  0  0
    6.9651    5.5215    1.8767 C   0  0  0  0  0  0  0  0  0  0  0  0
    7.9664    5.8187    1.6002 H   0  0  0  0  0  0  0  0  0  0  0  0
    5.9688    6.4789    1.9180 C   0  0  0  0  0  0  0  0  0  0  0  0
    6.2363    7.9170    1.6028 C   0  0  0  0  0  0  0  0  0  0  0  0
    5.5489    8.2571    0.8306 H   0  0  0  0  0  0  0  0  0  0  0  0
    7.2596    8.0586    1.2665 H   0  0  0  0  0  0  0  0  0  0  0  0
    6.0594    8.5319    2.4841 H   0  0  0  0  0  0  0  0  0  0  0  0
    2.4892    0.2576    6.7503 C   0  0  0  0  0  0  0  0  0  0  0  0
    1.9317   -0.5778    6.3345 H   0  0  0  0  0  0  0  0  0  0  0  0
    1.9651    0.6320    7.6274 H   0  0  0  0  0  0  0  0  0  0  0  0
    3.4616   -0.1109    7.0765 H   0  0  0  0  0  0  0  0  0  0  0  0
    3.6889    5.0056    5.6461 C   0  0  0  0  0  0  0  0  0  0  0  0
    4.7381    5.1566    5.3882 H   0  0  0  0  0  0  0  0  0  0  0  0
    3.5741    5.1285    6.7199 H   0  0  0  0  0  0  0  0  0  0  0  0
    3.1137    5.7741    5.1323 H   0  0  0  0  0  0  0  0  0  0  0  0
   -0.7104    2.2991    4.7205 C   0  0  0  0  0  0  0  0  0  0  0  0
   -1.0401    1.2778    4.8228 H   0  0  0  0  0  0  0  0  0  0  0  0
   -0.3097    4.4816    5.6012 C   0  0  0  0  0  0  0  0  0  0  0  0
   -0.3246    5.1985    6.4054 H   0  0  0  0  0  0  0  0  0  0  0  0
   -0.7448    3.1778    5.7888 C   0  0  0  0  0  0  0  0  0  0  0  0
   -1.1041    2.8519    6.7531 H   0  0  0  0  0  0  0  0  0  0  0  0
    7.8029    3.1648    2.1033 C   0  0  0  0  0  0  0  0  0  0  0  0
    7.5271    2.2628    2.6442 H   0  0  0  0  0  0  0  0  0  0  0  0
    8.7283    3.5573    2.5201 H   0  0  0  0  0  0  0  0  0  0  0  0
    7.9921    2.8951    1.0641 H   0  0  0  0  0  0  0  0  0  0  0  0
  1  5  1  0  0  0  0
  1  6  1  0  0  0  0
  2 13  1  0  0  0  0
  3  1  1  0  0  0  0
  4  1  1  0  0  0  0
  4 20  1  0  0  0  0
  4 16  1  0  0  0  0
  6 19  1  0  0  0  0
  6 29  1  0  0  0  0
  7 13  2  0  0  0  0
  7 24  1  0  0  0  0
  9  8  1  0  0  0  0
 10  8  1  0  0  0  0
 10 14  1  0  0  0  0
 11 14  2  0  0  0  0
 11 12  1  0  0  0  0
 13 26  1  0  0  0  0
 14  2  1  0  0  0  0
 15 11  1  0  0  0  0
 16 17  1  0  0  0  0
 16 19  1  0  0  0  0
 18 16  1  0  0  0  0
 19 46  1  1  0  0  0
 20  7  1  0  0  0  0
 21 20  1  0  0  0  0
 22 20  1  0  0  0  0
 23 27  1  0  0  0  0
 23 38  1  0  0  0  0
 24 23  2  0  0  0  0
 25 24  1  0  0  0  0
 26 42  1  0  0  0  0
 26 27  2  0  0  0  0
 27 28  1  0  0  0  0
 29 48  2  0  0  0  0
 30 29  1  0  0  0  0
 31 33  1  0  0  0  0
 31 15  2  0  0  0  0
 32 31  1  0  0  0  0
 33 10  2  0  0  0  0
 34 33  1  0  0  0  0
 34 37  1  0  0  0  0
 35 34  1  0  0  0  0
 36 34  1  0  0  0  0
 38 41  1  0  0  0  0
 38 40  1  0  0  0  0
 39 38  1  0  0  0  0
 42 44  1  0  0  0  0
 43 42  1  0  0  0  0
 45 42  1  0  0  0  0
 46 47  1  0  0  0  0
 46 50  2  0  0  0  0
 48 50  1  0  0  0  0
 48 49  1  0  0  0  0
 50 51  1  0  0  0  0
 52 15  1  0  0  0  0
 52 54  1  0  0  0  0
 52 53  1  0  0  0  0
 55 52  1  0  0  0  0
M  END
$$$$
