CSD_code = BELXAR | q = 1 | S = 0 | Stoichiometry = C24H31ClN2PPt(1+) | MND = 4
 OpenBabel04212202013D

 60 63  0  0  0  0  0  0  0  0999 V2000
   -3.3554    3.0050    8.1468 Pt  0  0  2  0  0  0  0  0  0  0  0  0
   -2.9023    2.9500   10.4124 Cl  0  0  0  0  0  0  0  0  0  0  0  0
   -5.4567    3.5728    8.7592 P   0  0  0  0  0  4  0  0  0  0  0  0
   -1.3514    2.3018    7.6222 N   0  0  0  0  0  4  0  0  0  0  0  0
   -2.1491    3.3463    5.5536 N   0  0  0  0  0  4  0  0  0  0  0  0
   -1.4492    0.9043    8.0687 C   0  0  0  0  0  0  0  0  0  0  0  0
   -0.2605    2.9497    8.3582 C   0  0  0  0  0  0  0  0  0  0  0  0
   -1.1822    2.3882    6.1759 C   0  0  0  0  0  0  0  0  0  0  0  0
   -1.8070    4.7324    5.9115 C   0  0  0  0  0  0  0  0  0  0  0  0
   -2.0933    3.2058    4.0883 C   0  0  0  0  0  0  0  0  0  0  0  0
   -3.5208    3.0338    6.0782 C   0  0  0  0  0  0  0  0  0  0  0  0
   -5.6077    5.3500    9.0538 C   0  0  0  0  0  0  0  0  0  0  0  0
   -6.7682    5.9031    9.5898 C   0  0  0  0  0  0  0  0  0  0  0  0
   -6.8430    7.2688    9.7946 C   0  0  0  0  0  0  0  0  0  0  0  0
   -5.7654    8.0824    9.4779 C   0  0  0  0  0  0  0  0  0  0  0  0
   -4.6031    7.5321    8.9617 C   0  0  0  0  0  0  0  0  0  0  0  0
   -4.5266    6.1679    8.7495 C   0  0  0  0  0  0  0  0  0  0  0  0
   -6.1470    2.8204   10.2606 C   0  0  0  0  0  0  0  0  0  0  0  0
   -5.8698    3.4188   11.4888 C   0  0  0  0  0  0  0  0  0  0  0  0
   -6.3483    2.8545   12.6554 C   0  0  0  0  0  0  0  0  0  0  0  0
   -7.1025    1.6924   12.6079 C   0  0  0  0  0  0  0  0  0  0  0  0
   -7.3813    1.0973   11.3889 C   0  0  0  0  0  0  0  0  0  0  0  0
   -6.9047    1.6548   10.2152 C   0  0  0  0  0  0  0  0  0  0  0  0
   -6.6489    3.1387    7.4578 C   0  0  0  0  0  0  0  0  0  0  0  0
   -7.6485    3.9849    6.9990 C   0  0  0  0  0  0  0  0  0  0  0  0
   -8.5257    3.5452    6.0210 C   0  0  0  0  0  0  0  0  0  0  0  0
   -8.4116    2.2667    5.5017 C   0  0  0  0  0  0  0  0  0  0  0  0
   -7.4063    1.4221    5.9487 C   0  0  0  0  0  0  0  0  0  0  0  0
   -6.5247    1.8598    6.9179 C   0  0  0  0  0  0  0  0  0  0  0  0
   -0.5295    0.3525    7.8445 H   0  0  0  0  0  0  0  0  0  0  0  0
   -2.2945    0.4063    7.5904 H   0  0  0  0  0  0  0  0  0  0  0  0
   -1.6094    0.8950    9.1471 H   0  0  0  0  0  0  0  0  0  0  0  0
   -0.0994    3.9693    8.0148 H   0  0  0  0  0  0  0  0  0  0  0  0
    0.6721    2.3868    8.2471 H   0  0  0  0  0  0  0  0  0  0  0  0
   -0.5315    2.9847    9.4143 H   0  0  0  0  0  0  0  0  0  0  0  0
   -1.3764    1.4109    5.7226 H   0  0  0  0  0  0  0  0  0  0  0  0
   -0.1660    2.7028    5.9065 H   0  0  0  0  0  0  0  0  0  0  0  0
   -2.5038    5.4149    5.4288 H   0  0  0  0  0  0  0  0  0  0  0  0
   -0.7936    4.9726    5.5919 H   0  0  0  0  0  0  0  0  0  0  0  0
   -1.9015    4.8570    6.9933 H   0  0  0  0  0  0  0  0  0  0  0  0
   -2.8039    3.8923    3.6318 H   0  0  0  0  0  0  0  0  0  0  0  0
   -2.3603    2.1917    3.7961 H   0  0  0  0  0  0  0  0  0  0  0  0
   -1.0946    3.4313    3.7152 H   0  0  0  0  0  0  0  0  0  0  0  0
   -4.2076    3.7613    5.6353 H   0  0  0  0  0  0  0  0  0  0  0  0
   -3.8008    2.0561    5.6694 H   0  0  0  0  0  0  0  0  0  0  0  0
   -7.5975    5.2621    9.8572 H   0  0  0  0  0  0  0  0  0  0  0  0
   -7.7410    7.7008   10.2093 H   0  0  0  0  0  0  0  0  0  0  0  0
   -5.8285    9.1465    9.6462 H   0  0  0  0  0  0  0  0  0  0  0  0
   -3.7595    8.1665    8.7344 H   0  0  0  0  0  0  0  0  0  0  0  0
   -3.6195    5.7047    8.3712 H   0  0  0  0  0  0  0  0  0  0  0  0
   -5.2729    4.3192   11.5257 H   0  0  0  0  0  0  0  0  0  0  0  0
   -6.1276    3.3194   13.6043 H   0  0  0  0  0  0  0  0  0  0  0  0
   -7.4712    1.2509   13.5210 H   0  0  0  0  0  0  0  0  0  0  0  0
   -7.9698    0.1930   11.3499 H   0  0  0  0  0  0  0  0  0  0  0  0
   -7.1292    1.1869    9.2679 H   0  0  0  0  0  0  0  0  0  0  0  0
   -7.7403    4.9844    7.3974 H   0  0  0  0  0  0  0  0  0  0  0  0
   -9.3038    4.2038    5.6662 H   0  0  0  0  0  0  0  0  0  0  0  0
   -9.1034    1.9278    4.7460 H   0  0  0  0  0  0  0  0  0  0  0  0
   -7.3159    0.4262    5.5412 H   0  0  0  0  0  0  0  0  0  0  0  0
   -5.7243    1.2197    7.2750 H   0  0  0  0  0  0  0  0  0  0  0  0
  1  3  1  0  0  0  0
  1  2  1  1  0  0  0
  3 12  1  0  0  0  0
  3 18  1  0  0  0  0
  4  6  1  0  0  0  0
  4  1  1  0  0  0  0
  4  7  1  0  0  0  0
  5  9  1  0  0  0  0
  5 11  1  0  0  0  0
  5  8  1  0  0  0  0
  6 32  1  0  0  0  0
  7 35  1  0  0  0  0
  8  4  1  0  0  0  0
  9 40  1  0  0  0  0
 10  5  1  0  0  0  0
 11  1  1  0  0  0  0
 12 13  1  0  0  0  0
 13 14  2  0  0  0  0
 13 46  1  0  0  0  0
 14 47  1  0  0  0  0
 15 48  1  0  0  0  0
 15 14  1  0  0  0  0
 16 15  2  0  0  0  0
 17 16  1  0  0  0  0
 17 12  2  0  0  0  0
 18 19  1  0  0  0  0
 19 51  1  0  0  0  0
 19 20  2  0  0  0  0
 20 52  1  0  0  0  0
 21 20  1  0  0  0  0
 21 53  1  0  0  0  0
 22 21  2  0  0  0  0
 23 18  2  0  0  0  0
 23 22  1  0  0  0  0
 24  3  1  0  0  0  0
 25 56  1  0  0  0  0
 25 24  1  0  0  0  0
 26 25  2  0  0  0  0
 27 28  2  0  0  0  0
 27 26  1  0  0  0  0
 28 29  1  0  0  0  0
 29 60  1  0  0  0  0
 29 24  2  0  0  0  0
 30  6  1  0  0  0  0
 31  6  1  0  0  0  0
 33  7  1  0  0  0  0
 34  7  1  0  0  0  0
 36  8  1  0  0  0  0
 37  8  1  0  0  0  0
 38  9  1  0  0  0  0
 39  9  1  0  0  0  0
 41 10  1  0  0  0  0
 42 10  1  0  0  0  0
 43 10  1  0  0  0  0
 44 11  1  0  0  0  0
 45 11  1  0  0  0  0
 49 16  1  0  0  0  0
 50 17  1  0  0  0  0
 54 22  1  0  0  0  0
 55 23  1  0  0  0  0
 57 26  1  0  0  0  0
 58 27  1  0  0  0  0
 59 28  1  0  0  0  0
M  END
$$$$
