CSD_code = BELZIB | q = 0 | S = 0 | Stoichiometry = C8H16Br2N6O4Pd | MND = 4
 OpenBabel04212202013D

 37 36  0  0  0  0  0  0  0  0999 V2000
   -0.0001    0.0002    0.0003 Pd  0  0  0  0  0  0  0  0  0  0  0  0
   -0.8555   -1.2660    1.9357 Br  0  0  0  0  0  0  0  0  0  0  0  0
    3.8254   -2.1213   -0.7001 N   0  0  0  0  0  0  0  0  0  0  0  0
    1.6027   -1.8412   -0.5728 O   0  0  0  0  0  0  0  0  0  0  0  0
    2.7343   -1.4383   -0.3425 C   0  0  0  0  0  0  0  0  0  0  0  0
    2.9848   -0.1082    0.3528 C   0  0  0  0  0  0  0  0  0  0  0  0
    1.7850    0.3198    1.0732 N   0  0  0  0  0  4  0  0  0  0  0  0
    1.8693    1.6935    1.5550 C   0  0  0  0  0  0  0  0  0  0  0  0
    2.9757    1.8649    2.6244 C   0  0  0  0  0  0  0  0  0  0  0  0
    2.8478    2.9107    3.3636 N   0  0  0  0  0  2  0  0  0  0  0  0
    3.8898    1.0231    2.7242 O   0  0  0  0  0  0  0  0  0  0  0  0
    3.7149   -2.9898   -1.1998 H   0  0  0  0  0  0  0  0  0  0  0  0
    4.7529   -1.7822   -0.5135 H   0  0  0  0  0  0  0  0  0  0  0  0
    3.8282   -0.1606    1.0596 H   0  0  0  0  0  0  0  0  0  0  0  0
    3.2245    0.6344   -0.4195 H   0  0  0  0  0  0  0  0  0  0  0  0
    1.6876   -0.2876    1.8990 H   0  0  0  0  0  0  0  0  0  0  0  0
    2.0892    2.3687    0.7199 H   0  0  0  0  0  0  0  0  0  0  0  0
    0.9170    1.9935    2.0108 H   0  0  0  0  0  0  0  0  0  0  0  0
    3.5779    3.0426    4.0539 H   0  0  0  0  0  0  0  0  0  0  0  0
    0.8558    1.2669   -1.9347 Br  0  0  0  0  0  0  0  0  0  0  0  0
   -1.7850   -0.3195   -1.0729 N   0  0  0  0  0  4  0  0  0  0  0  0
   -2.9853    0.1084   -0.3534 C   0  0  0  0  0  0  0  0  0  0  0  0
   -1.8686   -1.6932   -1.5548 C   0  0  0  0  0  0  0  0  0  0  0  0
   -1.6870    0.2879   -1.8986 H   0  0  0  0  0  0  0  0  0  0  0  0
   -2.7351    1.4383    0.3426 C   0  0  0  0  0  0  0  0  0  0  0  0
   -3.8279    0.1614   -1.0609 H   0  0  0  0  0  0  0  0  0  0  0  0
   -3.2259   -0.6344    0.4184 H   0  0  0  0  0  0  0  0  0  0  0  0
   -2.9744   -1.8646   -2.6248 C   0  0  0  0  0  0  0  0  0  0  0  0
   -2.0883   -2.3686   -0.7198 H   0  0  0  0  0  0  0  0  0  0  0  0
   -0.9161   -1.9927   -2.0104 H   0  0  0  0  0  0  0  0  0  0  0  0
   -3.8265    2.1208    0.7000 N   0  0  0  0  0  0  0  0  0  0  0  0
   -1.6036    1.8411    0.5737 O   0  0  0  0  0  0  0  0  0  0  0  0
   -2.8471   -2.9115   -3.3626 N   0  0  0  0  0  2  0  0  0  0  0  0
   -3.8884   -1.0228   -2.7254 O   0  0  0  0  0  0  0  0  0  0  0  0
   -3.7169    2.9891    1.2002 H   0  0  0  0  0  0  0  0  0  0  0  0
   -4.7537    1.7816    0.5118 H   0  0  0  0  0  0  0  0  0  0  0  0
   -3.5774   -3.0441   -4.0526 H   0  0  0  0  0  0  0  0  0  0  0  0
  1  7  1  0  0  0  0
  1  2  1  0  0  0  0
  3 13  1  0  0  0  0
  3  5  1  0  0  0  0
  4  5  2  0  0  0  0
  5  6  1  0  0  0  0
  6 14  1  0  0  0  0
  6  7  1  0  0  0  0
  7  8  1  0  0  0  0
  7 16  1  0  0  0  0
  8 18  1  0  0  0  0
  8  9  1  0  0  0  0
  9 11  2  0  0  0  0
  9 10  1  0  0  0  0
 10 19  1  0  0  0  0
 12  3  1  0  0  0  0
 15  6  1  0  0  0  0
 17  8  1  0  0  0  0
 20  1  1  0  0  0  0
 21 22  1  0  0  0  0
 21  1  1  0  0  0  0
 22 25  1  0  0  0  0
 22 27  1  0  0  0  0
 23 21  1  0  0  0  0
 23 29  1  0  0  0  0
 24 21  1  0  0  0  0
 25 32  2  0  0  0  0
 25 31  1  0  0  0  0
 26 22  1  0  0  0  0
 28 23  1  0  0  0  0
 30 23  1  0  0  0  0
 31 35  1  0  0  0  0
 33 28  1  0  0  0  0
 34 28  2  0  0  0  0
 36 31  1  0  0  0  0
 37 33  1  0  0  0  0
M  END
$$$$
