CSD_code = BEMGOP | q = 0 | S = 0 | Stoichiometry = C32H35ClO2P2Pt | MND = 4
 OpenBabel04212202013D

 73 78  0  0  1  0  0  0  0  0999 V2000
   -1.6511   -3.4108   -2.0100 Pt  0  0  1  0  0  0  0  0  0  0  0  0
   -2.4888   -5.4265   -1.2908 Cl  0  0  0  0  0  0  0  0  0  0  0  0
   -2.5404   -2.8009    0.1028 P   0  0  0  0  0  4  0  0  0  0  0  0
   -0.6143   -1.4728   -2.5412 P   0  0  0  0  0  4  0  0  0  0  0  0
   -1.9022    1.9986   -0.8311 O   0  0  0  0  0  0  0  0  0  0  0  0
   -3.4044    1.0451    0.5570 O   0  0  0  0  0  0  0  0  0  0  0  0
   -1.4439    0.1727   -2.3256 C   0  0  0  0  0  0  0  0  0  0  0  0
   -1.6247    0.6101   -0.8735 C   0  0  2  0  0  0  0  0  0  0  0  0
   -2.8064   -0.0403   -0.1221 C   0  0  1  0  0  0  0  0  0  0  0  0
   -2.4342   -1.1148    0.8893 C   0  0  0  0  0  0  0  0  0  0  0  0
   -3.1504    2.2146   -0.1858 C   0  0  0  0  0  0  0  0  0  0  0  0
   -3.0247    3.3958    0.7725 C   0  0  0  0  0  0  0  0  0  0  0  0
   -4.2494    2.4648   -1.2283 C   0  0  0  0  0  0  0  0  0  0  0  0
   -1.1618   -4.2414   -3.8345 C   0  0  0  0  0  0  0  0  0  0  0  0
   -4.3421   -2.8698   -0.1309 C   0  0  0  0  0  0  0  0  0  0  0  0
   -5.2427   -2.7874    0.9261 C   0  0  0  0  0  0  0  0  0  0  0  0
   -6.6022   -2.7982    0.6750 C   0  0  0  0  0  0  0  0  0  0  0  0
   -7.0712   -2.8815   -0.6267 C   0  0  0  0  0  0  0  0  0  0  0  0
   -6.1786   -2.9559   -1.6832 C   0  0  0  0  0  0  0  0  0  0  0  0
   -4.8182   -2.9491   -1.4355 C   0  0  0  0  0  0  0  0  0  0  0  0
   -2.2109   -3.8432    1.5530 C   0  0  0  0  0  0  0  0  0  0  0  0
   -1.0474   -3.6289    2.2874 C   0  0  0  0  0  0  0  0  0  0  0  0
   -0.7323   -4.4554    3.3497 C   0  0  0  0  0  0  0  0  0  0  0  0
   -1.5667   -5.5110    3.6791 C   0  0  0  0  0  0  0  0  0  0  0  0
   -2.7113   -5.7437    2.9350 C   0  0  0  0  0  0  0  0  0  0  0  0
   -3.0321   -4.9196    1.8719 C   0  0  0  0  0  0  0  0  0  0  0  0
    0.8394   -1.3414   -1.4560 C   0  0  0  0  0  0  0  0  0  0  0  0
    1.1188   -2.4227   -0.6264 C   0  0  0  0  0  0  0  0  0  0  0  0
    2.2025   -2.3816    0.2326 C   0  0  0  0  0  0  0  0  0  0  0  0
    3.0136   -1.2587    0.2643 C   0  0  0  0  0  0  0  0  0  0  0  0
    2.7480   -0.1842   -0.5711 C   0  0  0  0  0  0  0  0  0  0  0  0
    1.6668   -0.2222   -1.4325 C   0  0  0  0  0  0  0  0  0  0  0  0
    0.1098   -1.2595   -4.1970 C   0  0  0  0  0  0  0  0  0  0  0  0
    1.3967   -1.7183   -4.4591 C   0  0  0  0  0  0  0  0  0  0  0  0
    1.9213   -1.6261   -5.7352 C   0  0  0  0  0  0  0  0  0  0  0  0
    1.1629   -1.0887   -6.7621 C   0  0  0  0  0  0  0  0  0  0  0  0
   -0.1271   -0.6502   -6.5117 C   0  0  0  0  0  0  0  0  0  0  0  0
   -0.6551   -0.7401   -5.2370 C   0  0  0  0  0  0  0  0  0  0  0  0
   -2.4155    0.1348   -2.8264 H   0  0  0  0  0  0  0  0  0  0  0  0
   -0.8360    0.9332   -2.8259 H   0  0  0  0  0  0  0  0  0  0  0  0
   -0.6867    0.4449   -0.3224 H   0  0  0  0  0  0  0  0  0  0  0  0
   -3.5232   -0.4559   -0.8540 H   0  0  0  0  0  0  0  0  0  0  0  0
   -1.4327   -0.9365    1.2854 H   0  0  0  0  0  0  0  0  0  0  0  0
   -3.1441   -1.0585    1.7188 H   0  0  0  0  0  0  0  0  0  0  0  0
   -2.2300    3.1962    1.4854 H   0  0  0  0  0  0  0  0  0  0  0  0
   -2.7866    4.2933    0.2110 H   0  0  0  0  0  0  0  0  0  0  0  0
   -3.9598    3.5281    1.3066 H   0  0  0  0  0  0  0  0  0  0  0  0
   -5.1927    2.6478   -0.7226 H   0  0  0  0  0  0  0  0  0  0  0  0
   -3.9829    3.3269   -1.8321 H   0  0  0  0  0  0  0  0  0  0  0  0
   -4.3604    1.5994   -1.8766 H   0  0  0  0  0  0  0  0  0  0  0  0
   -1.5687   -5.2498   -3.9203 H   0  0  0  0  0  0  0  0  0  0  0  0
   -1.5536   -3.6410   -4.6628 H   0  0  0  0  0  0  0  0  0  0  0  0
   -0.0756   -4.3015   -3.9597 H   0  0  0  0  0  0  0  0  0  0  0  0
   -4.8793   -2.7273    1.9432 H   0  0  0  0  0  0  0  0  0  0  0  0
   -7.3006   -2.7424    1.4976 H   0  0  0  0  0  0  0  0  0  0  0  0
   -8.1346   -2.8923   -0.8162 H   0  0  0  0  0  0  0  0  0  0  0  0
   -6.5431   -3.0244   -2.6977 H   0  0  0  0  0  0  0  0  0  0  0  0
   -4.1033   -3.0290   -2.2580 H   0  0  0  0  0  0  0  0  0  0  0  0
   -0.3802   -2.8206    2.0184 H   0  0  0  0  0  0  0  0  0  0  0  0
    0.1706   -4.2815    3.9175 H   0  0  0  0  0  0  0  0  0  0  0  0
   -1.3177   -6.1586    4.5069 H   0  0  0  0  0  0  0  0  0  0  0  0
   -3.3537   -6.5775    3.1777 H   0  0  0  0  0  0  0  0  0  0  0  0
   -3.9096   -5.1201    1.2752 H   0  0  0  0  0  0  0  0  0  0  0  0
    0.4780   -3.3041   -0.6737 H   0  0  0  0  0  0  0  0  0  0  0  0
    2.4147   -3.2238    0.8745 H   0  0  0  0  0  0  0  0  0  0  0  0
    3.8584   -1.2211    0.9362 H   0  0  0  0  0  0  0  0  0  0  0  0
    3.3875    0.6861   -0.5503 H   0  0  0  0  0  0  0  0  0  0  0  0
    1.4658    0.6127   -2.0889 H   0  0  0  0  0  0  0  0  0  0  0  0
    1.9835   -2.1477   -3.6591 H   0  0  0  0  0  0  0  0  0  0  0  0
    2.9230   -1.9796   -5.9308 H   0  0  0  0  0  0  0  0  0  0  0  0
    1.5730   -1.0196   -7.7585 H   0  0  0  0  0  0  0  0  0  0  0  0
   -0.7249   -0.2432   -7.3140 H   0  0  0  0  0  0  0  0  0  0  0  0
   -1.6683   -0.4144   -5.0486 H   0  0  0  0  0  0  0  0  0  0  0  0
  1  2  1  1  0  0  0
  1  3  1  0  0  0  0
  3 10  1  0  0  0  0
  3 21  1  0  0  0  0
  4  7  1  0  0  0  0
  4  1  1  0  0  0  0
  4 27  1  0  0  0  0
  5 11  1  0  0  0  0
  7  8  1  0  0  0  0
  8  5  1  0  0  0  0
  8 41  1  1  0  0  0
  8  9  1  0  0  0  0
  9 42  1  6  0  0  0
  9  6  1  0  0  0  0
  9 10  1  0  0  0  0
 10 43  1  0  0  0  0
 10 44  1  0  0  0  0
 11  6  1  0  0  0  0
 11 12  1  0  0  0  0
 12 47  1  0  0  0  0
 12 45  1  0  0  0  0
 13 48  1  0  0  0  0
 13 11  1  0  0  0  0
 14  1  1  0  0  0  0
 15  3  1  0  0  0  0
 15 16  1  0  0  0  0
 16 54  1  0  0  0  0
 17 16  2  0  0  0  0
 17 55  1  0  0  0  0
 18 17  1  0  0  0  0
 19 20  1  0  0  0  0
 19 18  2  0  0  0  0
 20 15  2  0  0  0  0
 21 26  2  0  0  0  0
 21 22  1  0  0  0  0
 22 23  2  0  0  0  0
 23 24  1  0  0  0  0
 23 60  1  0  0  0  0
 24 61  1  0  0  0  0
 25 62  1  0  0  0  0
 25 24  2  0  0  0  0
 26 25  1  0  0  0  0
 27 32  2  0  0  0  0
 27 28  1  0  0  0  0
 28 29  2  0  0  0  0
 29 30  1  0  0  0  0
 29 65  1  0  0  0  0
 30 66  1  0  0  0  0
 31 67  1  0  0  0  0
 31 30  2  0  0  0  0
 32 31  1  0  0  0  0
 33  4  1  0  0  0  0
 34 33  1  0  0  0  0
 34 69  1  0  0  0  0
 35 34  2  0  0  0  0
 36 37  2  0  0  0  0
 36 35  1  0  0  0  0
 37 38  1  0  0  0  0
 38 73  1  0  0  0  0
 38 33  2  0  0  0  0
 39  7  1  0  0  0  0
 40  7  1  0  0  0  0
 46 12  1  0  0  0  0
 49 13  1  0  0  0  0
 50 13  1  0  0  0  0
 51 14  1  0  0  0  0
 52 14  1  0  0  0  0
 53 14  1  0  0  0  0
 56 18  1  0  0  0  0
 57 19  1  0  0  0  0
 58 20  1  0  0  0  0
 59 22  1  0  0  0  0
 63 26  1  0  0  0  0
 64 28  1  0  0  0  0
 68 32  1  0  0  0  0
 70 35  1  0  0  0  0
 71 36  1  0  0  0  0
 72 37  1  0  0  0  0
M  END
$$$$
