CSD_code = BEMLEL | q = 0 | S = 0 | Stoichiometry = C12H17Cl2N4NbO2 | MND = 6
 OpenBabel04212202013D

 38 41  0  0  1  0  0  0  0  0999 V2000
    4.2553    6.3611    1.6256 Nb  0  0  0  0  0  0  0  0  0  0  0  0
    5.5084    5.4653   -0.0642 Cl  0  0  0  0  0  0  0  0  0  0  0  0
    2.6413    4.7331    1.5476 Cl  0  0  0  0  0  0  0  0  0  0  0  0
    4.8306    8.1394    1.4159 O   0  0  0  0  0  0  0  0  0  0  0  0
    2.6983    7.4032   -0.0463 N   0  0  0  0  0  0  0  0  0  0  0  0
    2.3190    8.6800    0.1432 N   0  0  2  0  0  0  0  0  0  0  0  0
    2.6562    7.5553    2.8384 N   0  0  0  0  0  0  0  0  0  0  0  0
    2.2959    8.8078    2.5056 N   0  0  1  0  0  0  0  0  0  0  0  0
    5.0308    5.7714    3.0125 O   0  0  0  0  0  1  0  0  0  0  0  0
    1.5463    9.1165   -0.8844 C   0  0  1  0  0  3  0  0  0  0  0  0
    1.4368    8.0598   -1.7591 C   0  0  0  0  0  0  0  0  0  0  0  0
    0.8984    8.0438   -2.6842 H   0  0  0  0  0  0  0  0  0  0  0  0
    2.1754    7.0044   -1.1936 C   0  0  0  0  0  0  0  0  0  0  0  0
    2.3838    5.6371   -1.7262 C   0  0  0  0  0  0  0  0  0  0  0  0
    3.4452    5.3850   -1.7035 H   0  0  0  0  0  0  0  0  0  0  0  0
    2.0109    5.5679   -2.7445 H   0  0  0  0  0  0  0  0  0  0  0  0
    1.8634    4.9126   -1.0984 H   0  0  0  0  0  0  0  0  0  0  0  0
    0.9742   10.4853   -0.9548 C   0  0  0  0  0  0  0  0  0  0  0  0
    0.3021   10.6729   -0.1170 H   0  0  0  0  0  0  0  0  0  0  0  0
    0.4072   10.5864   -1.8758 H   0  0  0  0  0  0  0  0  0  0  0  0
    1.7577   11.2431   -0.9483 H   0  0  0  0  0  0  0  0  0  0  0  0
    1.5292    9.3591    3.4777 C   0  0  1  0  0  3  0  0  0  0  0  0
    1.4029    8.4044    4.4636 C   0  0  0  0  0  0  0  0  0  0  0  0
    0.8610    8.4997    5.3818 H   0  0  0  0  0  0  0  0  0  0  0  0
    2.1297    7.2860    4.0238 C   0  0  0  0  0  0  0  0  0  0  0  0
    2.3531    5.9843    4.6910 C   0  0  0  0  0  0  0  0  0  0  0  0
    3.4064    5.7073    4.5796 H   0  0  0  0  0  0  0  0  0  0  0  0
    1.7616    5.2093    4.2011 H   0  0  0  0  0  0  0  0  0  0  0  0
    2.0833    6.0385    5.7416 H   0  0  0  0  0  0  0  0  0  0  0  0
    0.9776   10.7362    3.4051 C   0  0  0  0  0  0  0  0  0  0  0  0
    1.7751   11.4768    3.3479 H   0  0  0  0  0  0  0  0  0  0  0  0
    0.3913   10.9325    4.2979 H   0  0  0  0  0  0  0  0  0  0  0  0
    0.3301   10.8552    2.5364 H   0  0  0  0  0  0  0  0  0  0  0  0
    2.7896    9.4110    1.2907 C   0  0  1  0  0  0  0  0  0  0  0  0
    2.4190   10.4384    1.2327 H   0  0  0  0  0  0  0  0  0  0  0  0
    4.3566    9.4001    1.3156 C   0  0  0  0  0  0  0  0  0  0  0  0
    4.7093    9.8833    0.3851 H   0  0  0  0  0  0  0  0  0  0  0  0
    4.6817   10.0176    2.1764 H   0  0  0  0  0  0  0  0  0  0  0  0
  1  7  1  0  0  0  0
  1  9  1  0  0  0  0
  2  1  1  0  0  0  0
  3  1  1  0  0  0  0
  4  1  1  0  0  0  0
  5  1  1  0  0  0  0
  6  5  1  6  0  0  0
  6 34  1  0  0  0  0
  7 25  1  0  0  0  0
  8  7  1  1  0  0  0
  8 22  1  0  0  0  0
 10 18  1  1  0  0  0
 10  6  1  0  0  0  0
 11 13  2  0  0  0  0
 11 10  1  0  0  0  0
 12 11  1  0  0  0  0
 13  5  1  0  0  0  0
 14 15  1  0  0  0  0
 14 13  1  0  0  0  0
 14 17  1  0  0  0  0
 16 14  1  0  0  0  0
 18 21  1  0  0  0  0
 18 19  1  0  0  0  0
 20 18  1  0  0  0  0
 22 30  1  1  0  0  0
 22 23  1  0  0  0  0
 23 24  1  0  0  0  0
 25 23  2  0  0  0  0
 25 26  1  0  0  0  0
 26 29  1  0  0  0  0
 27 26  1  0  0  0  0
 28 26  1  0  0  0  0
 30 32  1  0  0  0  0
 31 30  1  0  0  0  0
 33 30  1  0  0  0  0
 34 35  1  6  0  0  0
 34 36  1  0  0  0  0
 34  8  1  0  0  0  0
 36  4  1  0  0  0  0
 36 38  1  0  0  0  0
 37 36  1  0  0  0  0
M  END
$$$$
