CSD_code = BEMMUC | q = 0 | S = 0 | Stoichiometry = C34H38Cl2Zr | MND = 12
 OpenBabel04212202013D

 75 82  0  0  1  0  0  0  0  0999 V2000
    1.2992    9.1447   23.3092 Zr  0  0  0  0  0  0  0  0  0  0  0  0
    1.4971   11.4189   22.8065 Cl  0  0  0  0  0  0  0  0  0  0  0  0
    2.3494    8.7082   21.2677 Cl  0  0  0  0  0  0  0  0  0  0  0  0
   -1.0943    9.6846   23.0792 C   0  0  2  0  0  3  0  0  0  0  0  0
   -0.7168    8.9638   21.9158 C   0  0  2  0  0  0  0  0  0  0  0  0
   -0.7398    9.3378   20.8988 H   0  0  0  0  0  0  0  0  0  0  0  0
   -0.4249    7.6216   22.2993 C   0  0  0  0  0  0  0  0  0  0  0  0
   -0.0986    6.4676   21.5603 C   0  0  0  0  0  0  0  0  0  0  0  0
    0.0330    6.5307   20.4888 H   0  0  0  0  0  0  0  0  0  0  0  0
    0.0004    5.2658   22.2173 C   0  0  0  0  0  0  0  0  0  0  0  0
    0.2125    4.3648   21.6612 H   0  0  0  0  0  0  0  0  0  0  0  0
   -0.2079    5.1669   23.6051 C   0  0  0  0  0  0  0  0  0  0  0  0
   -0.1519    4.1950   24.0734 H   0  0  0  0  0  0  0  0  0  0  0  0
   -0.5003    6.2723   24.3645 C   0  0  0  0  0  0  0  0  0  0  0  0
   -0.6913    6.1791   25.4255 H   0  0  0  0  0  0  0  0  0  0  0  0
   -0.6006    7.5285   23.7340 C   0  0  0  0  0  0  0  0  0  0  0  0
   -0.9529    8.8266   24.2104 C   0  0  1  0  0  0  0  0  0  0  0  0
   -1.3185    9.0383   25.2068 H   0  0  0  0  0  0  0  0  0  0  0  0
   -1.5891   11.0675   23.1136 C   0  0  0  0  0  0  0  0  0  0  0  0
   -2.2309   11.5823   22.0662 C   0  0  0  0  0  0  0  0  0  0  0  0
   -2.3993   11.0123   21.1689 H   0  0  0  0  0  0  0  0  0  0  0  0
   -2.6163   12.5852   22.0657 H   0  0  0  0  0  0  0  0  0  0  0  0
   -1.3917   11.8213   24.4130 C   0  0  0  0  0  0  0  0  0  0  0  0
   -0.5429   11.3669   24.9503 H   0  0  0  0  0  0  0  0  0  0  0  0
   -2.6469   11.7176   25.2908 C   0  0  0  0  0  0  0  0  0  0  0  0
   -3.4768   12.2099   24.7792 H   0  0  0  0  0  0  0  0  0  0  0  0
   -2.9271   10.6723   25.4368 H   0  0  0  0  0  0  0  0  0  0  0  0
   -2.4048   12.3866   26.6402 C   0  0  0  0  0  0  0  0  0  0  0  0
   -3.3041   12.3135   27.2562 H   0  0  0  0  0  0  0  0  0  0  0  0
   -1.5981   11.8647   27.1595 H   0  0  0  0  0  0  0  0  0  0  0  0
   -2.0213   13.8513   26.4526 C   0  0  0  0  0  0  0  0  0  0  0  0
   -2.8601   14.3879   26.0030 H   0  0  0  0  0  0  0  0  0  0  0  0
   -1.8158   14.3085   27.4230 H   0  0  0  0  0  0  0  0  0  0  0  0
   -0.7998   13.9752   25.5463 C   0  0  0  0  0  0  0  0  0  0  0  0
    0.0619   13.5054   26.0232 H   0  0  0  0  0  0  0  0  0  0  0  0
   -0.5615   15.0291   25.3894 H   0  0  0  0  0  0  0  0  0  0  0  0
   -1.0583   13.3010   24.2031 C   0  0  0  0  0  0  0  0  0  0  0  0
   -0.1785   13.3838   23.5652 H   0  0  0  0  0  0  0  0  0  0  0  0
   -1.8902   13.8059   23.7105 H   0  0  0  0  0  0  0  0  0  0  0  0
    3.3846    8.1512   24.1672 C   0  0  1  0  0  3  0  0  0  0  0  0
    2.3073    7.6306   24.9445 C   0  0  1  0  0  0  0  0  0  0  0  0
    2.1033    6.5805   25.1088 H   0  0  0  0  0  0  0  0  0  0  0  0
    1.7946    8.6922   25.7485 C   0  0  0  0  0  0  0  0  0  0  0  0
    0.8656    8.7281   26.8073 C   0  0  0  0  0  0  0  0  0  0  0  0
    0.3760    7.8196   27.1328 H   0  0  0  0  0  0  0  0  0  0  0  0
    0.6314    9.9190   27.4485 C   0  0  0  0  0  0  0  0  0  0  0  0
   -0.0609    9.9541   28.2770 H   0  0  0  0  0  0  0  0  0  0  0  0
    1.2926   11.0999   27.0647 C   0  0  0  0  0  0  0  0  0  0  0  0
    1.0859   12.0086   27.6104 H   0  0  0  0  0  0  0  0  0  0  0  0
    2.2136   11.1085   26.0460 C   0  0  0  0  0  0  0  0  0  0  0  0
    2.7400   12.0140   25.7767 H   0  0  0  0  0  0  0  0  0  0  0  0
    2.5030    9.9010   25.3811 C   0  0  0  0  0  0  0  0  0  0  0  0
    3.4681    9.5506   24.3914 C   0  0  2  0  0  0  0  0  0  0  0  0
    4.2013   10.2226   23.9607 H   0  0  0  0  0  0  0  0  0  0  0  0
    4.2805    7.3606   23.3124 C   0  0  0  0  0  0  0  0  0  0  0  0
    5.5358    7.7531   23.1026 C   0  0  0  0  0  0  0  0  0  0  0  0
    5.9281    8.6546   23.5407 H   0  0  0  0  0  0  0  0  0  0  0  0
    6.2190    7.1903   22.4937 H   0  0  0  0  0  0  0  0  0  0  0  0
    3.7177    6.0657   22.7626 C   0  0  0  0  0  0  0  0  0  0  0  0
    2.6188    6.1508   22.7355 H   0  0  0  0  0  0  0  0  0  0  0  0
    4.1865    5.7660   21.3360 C   0  0  0  0  0  0  0  0  0  0  0  0
    3.9326    6.6070   20.6908 H   0  0  0  0  0  0  0  0  0  0  0  0
    5.2687    5.6319   21.3182 H   0  0  0  0  0  0  0  0  0  0  0  0
    3.5249    4.4911   20.8237 C   0  0  0  0  0  0  0  0  0  0  0  0
    2.4438    4.6354   20.7936 H   0  0  0  0  0  0  0  0  0  0  0  0
    3.8629    4.2842   19.8064 H   0  0  0  0  0  0  0  0  0  0  0  0
    3.8619    3.3105   21.7301 C   0  0  0  0  0  0  0  0  0  0  0  0
    4.9383    3.1263   21.6974 H   0  0  0  0  0  0  0  0  0  0  0  0
    3.3592    2.4087   21.3736 H   0  0  0  0  0  0  0  0  0  0  0  0
    3.4459    3.6023   23.1685 C   0  0  0  0  0  0  0  0  0  0  0  0
    2.3604    3.7122   23.2163 H   0  0  0  0  0  0  0  0  0  0  0  0
    3.7284    2.7675   23.8141 H   0  0  0  0  0  0  0  0  0  0  0  0
    4.1017    4.8861   23.6671 C   0  0  0  0  0  0  0  0  0  0  0  0
    5.1879    4.7729   23.6567 H   0  0  0  0  0  0  0  0  0  0  0  0
    3.8035    5.0819   24.6992 H   0  0  0  0  0  0  0  0  0  0  0  0
  1 17  1  0  0  0  0
  1 53  1  0  0  0  0
  1 41  1  0  0  0  0
  2  1  1  0  0  0  0
  3  1  1  0  0  0  0
  4 19  1  6  0  0  0
  4 17  1  0  0  0  0
  5  6  1  6  0  0  0
  5  7  1  0  0  0  0
  5  4  1  0  0  0  0
  5  1  1  0  0  0  0
  7 16  1  0  0  0  0
  8 10  1  0  0  0  0
  8  7  2  0  0  0  0
  9  8  1  0  0  0  0
 10 12  2  0  0  0  0
 11 10  1  0  0  0  0
 12 13  1  0  0  0  0
 12 14  1  0  0  0  0
 14 15  1  0  0  0  0
 16 17  1  0  0  0  0
 16 14  2  0  0  0  0
 17 18  1  1  0  0  0
 19 23  1  0  0  0  0
 20 19  2  0  0  0  0
 21 20  1  0  0  0  0
 22 20  1  0  0  0  0
 23 24  1  0  0  0  0
 23 25  1  0  0  0  0
 25 27  1  0  0  0  0
 25 28  1  0  0  0  0
 26 25  1  0  0  0  0
 28 30  1  0  0  0  0
 28 29  1  0  0  0  0
 31 28  1  0  0  0  0
 31 33  1  0  0  0  0
 32 31  1  0  0  0  0
 34 35  1  0  0  0  0
 34 31  1  0  0  0  0
 36 34  1  0  0  0  0
 37 23  1  0  0  0  0
 37 34  1  0  0  0  0
 38 37  1  0  0  0  0
 39 37  1  0  0  0  0
 40 55  1  1  0  0  0
 40 53  1  0  0  0  0
 40 41  1  0  0  0  0
 41 42  1  1  0  0  0
 41 43  1  0  0  0  0
 43 44  1  0  0  0  0
 44 45  1  0  0  0  0
 44 46  2  0  0  0  0
 46 47  1  0  0  0  0
 48 46  1  0  0  0  0
 48 49  1  0  0  0  0
 50 48  2  0  0  0  0
 51 50  1  0  0  0  0
 52 43  2  0  0  0  0
 52 50  1  0  0  0  0
 53 54  1  6  0  0  0
 53 52  1  0  0  0  0
 56 55  2  0  0  0  0
 56 57  1  0  0  0  0
 58 56  1  0  0  0  0
 59 55  1  0  0  0  0
 59 73  1  0  0  0  0
 60 59  1  0  0  0  0
 61 59  1  0  0  0  0
 62 61  1  0  0  0  0
 63 61  1  0  0  0  0
 64 61  1  0  0  0  0
 64 67  1  0  0  0  0
 65 64  1  0  0  0  0
 66 64  1  0  0  0  0
 67 70  1  0  0  0  0
 68 67  1  0  0  0  0
 69 67  1  0  0  0  0
 70 71  1  0  0  0  0
 70 73  1  0  0  0  0
 70 72  1  0  0  0  0
 73 75  1  0  0  0  0
 74 73  1  0  0  0  0
M  END
$$$$
