CSD_code = BEMVIB | q = 0 | S = 0 | Stoichiometry = C18H31Cl3N4O4Zn | MND = 4
 OpenBabel04212202013D

 61 62  0  0  1  0  0  0  0  0999 V2000
    0.0174    7.2481    3.0752 Zn  0  0  0  0  0  0  0  0  0  0  0  0
    0.9300    5.1873    3.3696 Cl  0  0  0  0  0  0  0  0  0  0  0  0
    0.9284    7.9853    0.9523 Cl  0  0  0  0  0  0  0  0  0  0  0  0
   -1.8587    8.1792    3.6986 Cl  0  0  0  0  0  0  0  0  0  0  0  0
    1.7286   12.5127    4.5462 O   0  0  0  0  0  0  0  0  0  0  0  0
    5.7350    3.3665    2.3174 O   0  0  0  0  0  0  0  0  0  0  0  0
    4.4747    3.0728    4.2615 O   0  0  0  0  0  0  0  0  0  0  0  0
    2.1555   12.3747    2.2543 O   0  0  0  0  0  0  0  0  0  0  0  0
    3.2778    6.5911    1.7882 N   0  0  0  0  0  0  0  0  0  0  0  0
    2.5501    7.0196    1.1361 H   0  0  0  0  0  0  0  0  0  0  0  0
    3.2565    9.5357    3.1915 N   0  0  0  0  0  0  0  0  0  0  0  0
    4.0488    6.2032    3.7888 N   0  0  0  0  0  0  0  0  0  0  0  0
    5.2768   10.0692    0.0373 C   0  0  0  0  0  0  0  0  0  0  0  0
    4.9917   10.2962   -0.9855 H   0  0  0  0  0  0  0  0  0  0  0  0
    5.7502    9.0895    0.0508 H   0  0  0  0  0  0  0  0  0  0  0  0
    6.0047   10.8095    0.3622 H   0  0  0  0  0  0  0  0  0  0  0  0
    1.5908    8.4059    4.1018 N   0  0  0  0  0  0  0  0  0  0  0  0
    3.3007    2.5368    3.6485 C   0  0  0  0  0  0  0  0  0  0  0  0
    3.5349    2.1299    2.6630 H   0  0  0  0  0  0  0  0  0  0  0  0
    2.5208    3.2973    3.5591 H   0  0  0  0  0  0  0  0  0  0  0  0
    2.9701    1.7400    4.3097 H   0  0  0  0  0  0  0  0  0  0  0  0
    2.5043   11.9353    3.5398 C   0  0  0  0  0  0  0  0  0  0  0  0
    3.5619   12.2479    3.6441 H   0  0  0  0  0  0  0  0  0  0  0  0
    0.8548   11.9896    1.8221 C   0  0  0  0  0  0  0  0  0  0  0  0
    0.6424   12.5997    0.9474 H   0  0  0  0  0  0  0  0  0  0  0  0
    0.1137   12.1799    2.6004 H   0  0  0  0  0  0  0  0  0  0  0  0
    0.8297   10.9321    1.5475 H   0  0  0  0  0  0  0  0  0  0  0  0
    2.7446    8.3132    3.4645 C   0  0  1  0  0  3  0  0  0  0  0  0
    2.3695   10.4497    3.6927 C   0  0  0  0  0  0  0  0  0  0  0  0
    6.6696    2.3383    2.5890 C   0  0  0  0  0  0  0  0  0  0  0  0
    6.9540    1.9296    1.6227 H   0  0  0  0  0  0  0  0  0  0  0  0
    6.2281    1.5552    3.2103 H   0  0  0  0  0  0  0  0  0  0  0  0
    7.5520    2.7438    3.0967 H   0  0  0  0  0  0  0  0  0  0  0  0
    3.3473    7.0579    3.0339 C   0  0  1  0  0  3  0  0  0  0  0  0
    3.9013    5.3905    1.7496 C   0  0  0  0  0  0  0  0  0  0  0  0
    3.9640    4.7911    0.8662 H   0  0  0  0  0  0  0  0  0  0  0  0
    4.4022    5.1426    2.9972 C   0  0  0  0  0  0  0  0  0  0  0  0
    3.3806    5.8830    7.5055 C   0  0  0  0  0  0  0  0  0  0  0  0
    4.3749    5.6312    7.8688 H   0  0  0  0  0  0  0  0  0  0  0  0
    2.6536    5.3099    8.0728 H   0  0  0  0  0  0  0  0  0  0  0  0
    3.2004    6.9398    7.6903 H   0  0  0  0  0  0  0  0  0  0  0  0
    4.4268    9.7890    2.3886 C   0  0  0  0  0  0  0  0  0  0  0  0
    5.0600    8.8975    2.4323 H   0  0  0  0  0  0  0  0  0  0  0  0
    4.9777   10.6304    2.8175 H   0  0  0  0  0  0  0  0  0  0  0  0
    4.0474   10.0895    0.9343 C   0  0  0  0  0  0  0  0  0  0  0  0
    3.5707   11.0688    0.8887 H   0  0  0  0  0  0  0  0  0  0  0  0
    3.3218    9.3473    0.5958 H   0  0  0  0  0  0  0  0  0  0  0  0
    1.8694   13.9169    4.6400 C   0  0  0  0  0  0  0  0  0  0  0  0
    1.6154   14.4048    3.6954 H   0  0  0  0  0  0  0  0  0  0  0  0
    2.8959   14.1841    4.9167 H   0  0  0  0  0  0  0  0  0  0  0  0
    1.1811   14.2347    5.4189 H   0  0  0  0  0  0  0  0  0  0  0  0
    1.3474    9.7302    4.2521 C   0  0  0  0  0  0  0  0  0  0  0  0
    0.4648   10.0821    4.7454 H   0  0  0  0  0  0  0  0  0  0  0  0
    5.2021    3.9574    3.4697 C   0  0  0  0  0  0  0  0  0  0  0  0
    6.0229    4.2944    4.1343 H   0  0  0  0  0  0  0  0  0  0  0  0
    3.2463    5.5632    6.0240 C   0  0  0  0  0  0  0  0  0  0  0  0
    3.4003    4.4981    5.8543 H   0  0  0  0  0  0  0  0  0  0  0  0
    2.2469    5.8198    5.6724 H   0  0  0  0  0  0  0  0  0  0  0  0
    4.2719    6.3539    5.2069 C   0  0  0  0  0  0  0  0  0  0  0  0
    4.1854    7.4185    5.4422 H   0  0  0  0  0  0  0  0  0  0  0  0
    5.2844    6.0160    5.4429 H   0  0  0  0  0  0  0  0  0  0  0  0
  1  2  1  0  0  0  0
  1  4  1  0  0  0  0
  1 17  1  0  0  0  0
  3  1  1  0  0  0  0
  5 48  1  0  0  0  0
  6 30  1  0  0  0  0
  6 54  1  0  0  0  0
  8 22  1  0  0  0  0
 10  9  1  0  0  0  0
 11 29  1  0  0  0  0
 12 59  1  0  0  0  0
 13 15  1  0  0  0  0
 13 16  1  0  0  0  0
 13 45  1  0  0  0  0
 14 13  1  0  0  0  0
 17 52  1  0  0  0  0
 18  7  1  0  0  0  0
 18 21  1  0  0  0  0
 19 18  1  0  0  0  0
 20 18  1  0  0  0  0
 22 23  1  0  0  0  0
 22 29  1  0  0  0  0
 22  5  1  0  0  0  0
 24  8  1  0  0  0  0
 24 26  1  0  0  0  0
 25 24  1  0  0  0  0
 27 24  1  0  0  0  0
 28 11  1  6  0  0  0
 28 17  1  0  0  0  0
 29 52  2  0  0  0  0
 30 33  1  0  0  0  0
 30 32  1  0  0  0  0
 31 30  1  0  0  0  0
 34  9  1  6  0  0  0
 34 28  1  0  0  0  0
 34 12  1  0  0  0  0
 35  9  1  0  0  0  0
 35 37  2  0  0  0  0
 36 35  1  0  0  0  0
 37 54  1  0  0  0  0
 37 12  1  0  0  0  0
 38 41  1  0  0  0  0
 38 39  1  0  0  0  0
 38 40  1  0  0  0  0
 42 43  1  0  0  0  0
 42 44  1  0  0  0  0
 42 11  1  0  0  0  0
 45 42  1  0  0  0  0
 46 45  1  0  0  0  0
 47 45  1  0  0  0  0
 48 50  1  0  0  0  0
 48 51  1  0  0  0  0
 49 48  1  0  0  0  0
 52 53  1  0  0  0  0
 54 55  1  0  0  0  0
 54  7  1  0  0  0  0
 56 38  1  0  0  0  0
 57 56  1  0  0  0  0
 58 56  1  0  0  0  0
 59 60  1  0  0  0  0
 59 61  1  0  0  0  0
 59 56  1  0  0  0  0
M  END
$$$$
