CSD_code = BENCUT | q = 0 | S = 0 | Stoichiometry = C14H14Br2N2Zn | MND = 4
 OpenBabel04212202013D

 33 34  0  0  0  0  0  0  0  0999 V2000
    1.3505    6.8335    3.5214 Zn  0  0  0  0  0  0  0  0  0  0  0  0
    2.1312    9.0587    3.6523 Br  0  0  0  0  0  0  0  0  0  0  0  0
   -0.6286    5.5507    3.3988 Br  0  0  0  0  0  0  0  0  0  0  0  0
    2.5460    6.0080    1.8992 N   0  0  0  0  0  0  0  0  0  0  0  0
    2.4465    5.8519    5.1268 N   0  0  0  0  0  0  0  0  0  0  0  0
    3.6126    6.6548    1.4332 C   0  0  0  0  0  3  0  0  0  0  0  0
    3.8538    7.5920    1.9153 H   0  0  0  0  0  0  0  0  0  0  0  0
    4.3814    6.1871    0.3882 C   0  0  0  0  0  0  0  0  0  0  0  0
    5.2325    6.7627    0.0640 H   0  0  0  0  0  0  0  0  0  0  0  0
    4.0463    4.9791   -0.2289 C   0  0  0  0  0  0  0  0  0  0  0  0
    2.9288    4.3088    0.2765 C   0  0  0  0  0  0  0  0  0  0  0  0
    2.6120    3.3708   -0.1526 H   0  0  0  0  0  0  0  0  0  0  0  0
    2.2166    4.8534    1.3246 C   0  0  0  0  0  0  0  0  0  0  0  0
    1.3426    4.3522    1.7166 H   0  0  0  0  0  0  0  0  0  0  0  0
    4.7886    4.4048   -1.3423 C   0  0  0  0  0  0  0  0  0  0  0  0
    4.4651    3.4143   -1.6360 H   0  0  0  0  0  0  0  0  0  0  0  0
    5.7796    4.9917   -2.0032 C   0  0  0  0  0  0  0  0  0  0  0  0
    6.1336    5.9808   -1.7675 H   0  0  0  0  0  0  0  0  0  0  0  0
    6.2728    4.4972   -2.8219 H   0  0  0  0  0  0  0  0  0  0  0  0
    3.4655    6.4558    5.7356 C   0  0  0  0  0  3  0  0  0  0  0  0
    3.7204    7.4437    5.3779 H   0  0  0  0  0  0  0  0  0  0  0  0
    4.1680    5.8852    6.7761 C   0  0  0  0  0  0  0  0  0  0  0  0
    4.9742    6.4372    7.2298 H   0  0  0  0  0  0  0  0  0  0  0  0
    3.8147    4.6125    7.2320 C   0  0  0  0  0  0  0  0  0  0  0  0
    2.7425    3.9929    6.5839 C   0  0  0  0  0  0  0  0  0  0  0  0
    2.4119    3.0117    6.8877 H   0  0  0  0  0  0  0  0  0  0  0  0
    2.0971    4.6395    5.5508 C   0  0  0  0  0  0  0  0  0  0  0  0
    1.2598    4.1762    5.0478 H   0  0  0  0  0  0  0  0  0  0  0  0
    4.4905    3.9267    8.3244 C   0  0  0  0  0  0  0  0  0  0  0  0
    4.0339    2.9903    8.6188 H   0  0  0  0  0  0  0  0  0  0  0  0
    5.5851    4.3451    8.9491 C   0  0  0  0  0  0  0  0  0  0  0  0
    6.0897    5.2613    8.6939 H   0  0  0  0  0  0  0  0  0  0  0  0
    6.0233    3.7728    9.7483 H   0  0  0  0  0  0  0  0  0  0  0  0
  1  2  1  0  0  0  0
  1  5  1  0  0  0  0
  3  1  1  0  0  0  0
  4  1  1  0  0  0  0
  5 27  1  0  0  0  0
  5 20  1  0  0  0  0
  6  4  1  0  0  0  0
  6  7  1  0  0  0  0
  8  6  1  0  0  0  0
  9  8  1  0  0  0  0
 10 11  1  0  0  0  0
 10  8  2  0  0  0  0
 11 13  2  0  0  0  0
 12 11  1  0  0  0  0
 13 14  1  0  0  0  0
 13  4  1  0  0  0  0
 15 10  1  0  0  0  0
 16 15  1  0  0  0  0
 17 18  1  0  0  0  0
 17 15  2  0  0  0  0
 19 17  1  0  0  0  0
 20 22  1  0  0  0  0
 21 20  1  0  0  0  0
 22 23  1  0  0  0  0
 22 24  2  0  0  0  0
 24 29  1  0  0  0  0
 25 26  1  0  0  0  0
 25 24  1  0  0  0  0
 27 25  2  0  0  0  0
 28 27  1  0  0  0  0
 29 30  1  0  0  0  0
 29 31  2  0  0  0  0
 31 33  1  0  0  0  0
 32 31  1  0  0  0  0
M  END
$$$$
