CSD_code = BEPTEV | q = 0 | S = 0 | Stoichiometry = C9H13ClN2Pd | MND = 5
 OpenBabel04212202013D

 26 24  0  0  0  0  0  0  0  0999 V2000
   -4.6117    4.1446   10.0056 Pd  0  0  0  0  0  0  0  0  0  0  0  0
   -3.5871    5.5492   11.4813 Cl  0  0  0  0  0 15  0  0  0  0  0  0
   -3.9723    2.5236   11.1779 N   0  0  0  0  0  0  0  0  0  0  0  0
   -1.8811    3.0238   10.3692 N   0  0  0  0  0  0  0  0  0  0  0  0
   -2.6509    2.2924   11.2194 C   0  0  0  0  0  0  0  0  0  0  0  0
   -2.1199    1.2943   12.0488 C   0  0  0  0  0  0  0  0  0  0  0  0
   -2.9568    0.5516   12.8554 C   0  0  0  0  0  0  0  0  0  0  0  0
   -4.3280    0.8303   12.8085 C   0  0  0  0  0  0  0  0  0  0  0  0
   -4.7845    1.8138   11.9619 C   0  0  0  0  0  0  0  0  0  0  0  0
   -2.4314   -0.5077   13.7682 C   0  0  0  0  0  0  0  0  0  0  0  0
   -5.5093    5.5658    8.7685 C   0  0  0  0  0  0  0  0  0  0  0  0
   -5.3241    4.3591    8.0555 C   0  0  0  0  0  3  0  0  0  0  0  0
   -5.8646    3.1787    8.5828 C   0  0  0  0  0  3  0  0  0  0  0  0
   -1.0538    1.1258   12.0525 H   0  0  0  0  0  0  0  0  0  0  0  0
   -5.0180    0.2822   13.4294 H   0  0  0  0  0  0  0  0  0  0  0  0
   -5.8417    2.0561   11.9003 H   0  0  0  0  0  0  0  0  0  0  0  0
   -4.5966    4.3105    7.2454 H   0  0  0  0  0  0  0  0  0  0  0  0
   -2.2925    3.9337   10.1112 H   0  0  0  0  0  0  0  0  0  0  0  0
   -0.8877    3.0297   10.5371 H   0  0  0  0  0  0  0  0  0  0  0  0
   -1.3734   -0.6863   13.5940 H   0  0  0  0  0  0  0  0  0  0  0  0
   -2.5672   -0.2021   14.8055 H   0  0  0  0  0  0  0  0  0  0  0  0
   -2.9779   -1.4383   13.6228 H   0  0  0  0  0  0  0  0  0  0  0  0
   -5.0099    6.4624    8.4104 H   0  0  0  0  0  0  0  0  0  0  0  0
   -6.4709    5.7464    9.2615 H   0  0  0  0  0  0  0  0  0  0  0  0
   -5.6445    2.2358    8.0954 H   0  0  0  0  0  0  0  0  0  0  0  0
   -6.8287    3.2185    9.0958 H   0  0  0  0  0  0  0  0  0  0  0  0
  3  5  2  0  0  0  0
  3  9  1  0  0  0  0
  4 19  1  0  0  0  0
  4  5  1  0  0  0  0
  5  6  1  0  0  0  0
  6 14  1  0  0  0  0
  6  7  2  0  0  0  0
  7 10  1  0  0  0  0
  8  7  1  0  0  0  0
  8 15  1  0  0  0  0
  9  8  2  0  0  0  0
 10 21  1  0  0  0  0
 11 24  1  0  0  0  0
 11  1  1  0  0  0  0
 12 13  1  0  0  0  0
 12 11  1  0  0  0  0
 13 26  1  0  0  0  0
 16  9  1  0  0  0  0
 17 12  1  0  0  0  0
 18  4  1  0  0  0  0
 20 10  1  0  0  0  0
 22 10  1  0  0  0  0
 23 11  1  0  0  0  0
 25 13  1  0  0  0  0
M  END
$$$$
