CSD_code = BEPTIA | q = 0 | S = 0 | Stoichiometry = C12H10ClMnN2O5 | MND = 6
 OpenBabel04212202013D

 31 33  0  0  1  0  0  0  0  0999 V2000
    3.1909    6.4162    2.2700 Mn  0  0  0  0  0  0  0  0  0  0  0  0
    1.3325    5.6846    2.8083 Cl  0  0  0  0  0  0  0  0  0  0  0  0
    5.2977    7.3169    1.5520 O   0  0  0  0  0  0  0  0  0  0  0  0
    5.8231    6.7499    0.9752 H   0  0  0  0  0  0  0  0  0  0  0  0
    3.8499    5.1163    1.0794 O   0  0  0  0  0  0  0  0  0  0  0  0
    2.4043    7.5483    0.9311 N   0  0  0  0  0  0  0  0  0  0  0  0
    3.3529    8.0013    3.2375 O   0  0  0  0  0  0  0  0  0  0  0  0
    4.0350    5.3048    3.5967 N   0  0  0  0  0  0  0  0  0  0  0  0
    3.9992    5.4416    4.9202 C   0  0  0  0  0  3  0  0  0  0  0  0
    3.4598    6.3020    5.2925 H   0  0  0  0  0  0  0  0  0  0  0  0
    2.4610    8.8492    1.2497 C   0  0  2  0  0  3  0  0  0  0  0  0
    5.2526    3.3879    0.9208 O   0  0  0  0  0  0  0  0  0  0  0  0
    3.0609    9.1030    2.6195 C   0  0  0  0  0  0  0  0  0  0  0  0
    3.2455   10.2206    3.0486 O   0  0  0  0  0  0  0  0  0  0  0  0
    4.6188    4.1949    1.5668 C   0  0  0  0  0  0  0  0  0  0  0  0
    5.3327    3.3078    3.8636 C   0  0  0  0  0  0  0  0  0  0  0  0
    5.8357    2.4869    3.3772 H   0  0  0  0  0  0  0  0  0  0  0  0
    4.6857    4.2487    3.0815 C   0  0  0  0  0  0  0  0  0  0  0  0
    4.6176    4.5425    5.7729 C   0  0  0  0  0  0  0  0  0  0  0  0
    4.5595    4.6930    6.8392 H   0  0  0  0  0  0  0  0  0  0  0  0
    2.0039    9.8487    0.4081 C   0  0  0  0  0  0  0  0  0  0  0  0
    2.0836   10.8750    0.7302 H   0  0  0  0  0  0  0  0  0  0  0  0
    5.2978    3.4552    5.2417 C   0  0  0  0  0  0  0  0  0  0  0  0
    5.7829    2.7384    5.8863 H   0  0  0  0  0  0  0  0  0  0  0  0
    1.3933    8.1387   -1.1366 C   0  0  0  0  0  0  0  0  0  0  0  0
    0.9720    7.8118   -2.0740 H   0  0  0  0  0  0  0  0  0  0  0  0
    1.4573    9.4866   -0.8135 C   0  0  0  0  0  0  0  0  0  0  0  0
    1.0867   10.2359   -1.4961 H   0  0  0  0  0  0  0  0  0  0  0  0
    1.8753    7.2015   -0.2373 C   0  0  0  0  0  0  0  0  0  0  0  0
    1.8463    6.1410   -0.4488 H   0  0  0  0  0  0  0  0  0  0  0  0
    5.8749    7.6974    2.2229 H   0  0  0  0  0  0  0  0  0  0  0  0
  1  2  1  0  0  0  0
  1  7  1  0  0  0  0
  1  8  1  0  0  0  0
  3 31  1  0  0  0  0
  4  3  1  0  0  0  0
  5 15  1  0  0  0  0
  5  1  1  0  0  0  0
  6 11  1  0  0  0  0
  6  1  1  0  0  0  0
  8  9  1  0  0  0  0
  9 10  1  0  0  0  0
  9 19  1  0  0  0  0
 11 21  1  1  0  0  0
 11 13  1  0  0  0  0
 12 15  2  0  0  0  0
 13 14  2  0  0  0  0
 13  7  1  0  0  0  0
 15 18  1  0  0  0  0
 16 23  1  0  0  0  0
 17 16  1  0  0  0  0
 18  8  1  0  0  0  0
 18 16  2  0  0  0  0
 19 20  1  0  0  0  0
 21 22  1  0  0  0  0
 23 19  2  0  0  0  0
 23 24  1  0  0  0  0
 25 27  1  0  0  0  0
 25 29  2  0  0  0  0
 26 25  1  0  0  0  0
 27 21  2  0  0  0  0
 28 27  1  0  0  0  0
 29  6  1  0  0  0  0
 30 29  1  0  0  0  0
M  END
$$$$
