CSD_code = BEQLAK | q = 0 | S = 0 | Stoichiometry = C30H23BrCuN2P | MND = 4
 OpenBabel04212202013D

 58 64  0  0  0  0  0  0  0  0999 V2000
   11.7310    9.5500    5.1987 Br  0  0  0  0  0  0  0  0  0  0  0  0
   10.4580    7.6927    5.5283 Cu  0  0  2  0  0  0  0  0  0  0  0  0
    9.3325    7.1419    3.6574 P   0  0  0  0  0  4  0  0  0  0  0  0
    9.0979    7.8590    7.0520 N   0  0  0  0  0  0  0  0  0  0  0  0
   11.0519    6.0899    6.5364 N   0  0  0  0  0  0  0  0  0  0  0  0
    8.0846    9.5590    6.5646 H   0  0  0  0  0  0  0  0  0  0  0  0
    6.6920    9.5519    8.6289 H   0  0  0  0  0  0  0  0  0  0  0  0
    6.9942    7.7099   10.2826 H   0  0  0  0  0  0  0  0  0  0  0  0
    8.2285    5.6109   10.9269 H   0  0  0  0  0  0  0  0  0  0  0  0
    9.9733    3.9498   10.4227 H   0  0  0  0  0  0  0  0  0  0  0  0
   11.8146    3.1426    8.9145 H   0  0  0  0  0  0  0  0  0  0  0  0
   13.1247    3.4854    6.8195 H   0  0  0  0  0  0  0  0  0  0  0  0
   12.5659    5.4093    5.3484 H   0  0  0  0  0  0  0  0  0  0  0  0
    9.1810    4.7653    5.1947 H   0  0  0  0  0  0  0  0  0  0  0  0
    7.5892    2.8765    5.3007 H   0  0  0  0  0  0  0  0  0  0  0  0
    5.6134    2.8547    3.8217 H   0  0  0  0  0  0  0  0  0  0  0  0
    5.2345    4.7081    2.2414 H   0  0  0  0  0  0  0  0  0  0  0  0
    6.8210    6.5920    2.1371 H   0  0  0  0  0  0  0  0  0  0  0  0
    6.8364    8.0706    4.6552 H   0  0  0  0  0  0  0  0  0  0  0  0
    5.4980   10.1057    4.2662 H   0  0  0  0  0  0  0  0  0  0  0  0
    6.2438   11.7729    2.6063 H   0  0  0  0  0  0  0  0  0  0  0  0
    8.3286   11.4030    1.3409 H   0  0  0  0  0  0  0  0  0  0  0  0
    9.6654    9.3759    1.7201 H   0  0  0  0  0  0  0  0  0  0  0  0
    9.1364    5.1808    1.3939 H   0  0  0  0  0  0  0  0  0  0  0  0
   10.5886    4.8165   -0.5533 H   0  0  0  0  0  0  0  0  0  0  0  0
   12.5916    6.2129   -0.8908 H   0  0  0  0  0  0  0  0  0  0  0  0
   13.1571    7.9749    0.7493 H   0  0  0  0  0  0  0  0  0  0  0  0
   11.7243    8.3357    2.7123 H   0  0  0  0  0  0  0  0  0  0  0  0
    8.1946    8.7803    7.3079 C   0  0  0  0  0  0  0  0  0  0  0  0
    7.4167    8.7704    8.4649 C   0  0  0  0  0  0  0  0  0  0  0  0
    7.5872    7.7534    9.3804 C   0  0  0  0  0  0  0  0  0  0  0  0
    8.5533    6.7665    9.1374 C   0  0  0  0  0  0  0  0  0  0  0  0
    8.8158    5.6825   10.0228 C   0  0  0  0  0  0  0  0  0  0  0  0
    9.7773    4.7689    9.7460 C   0  0  0  0  0  0  0  0  0  0  0  0
   10.5707    4.8651    8.5664 C   0  0  0  0  0  0  0  0  0  0  0  0
   11.5984    3.9655    8.2491 C   0  0  0  0  0  0  0  0  0  0  0  0
   12.3234    4.1546    7.0897 C   0  0  0  0  0  0  0  0  0  0  0  0
   12.0161    5.2311    6.2628 C   0  0  0  0  0  0  0  0  0  0  0  0
   10.3313    5.9258    7.6653 C   0  0  0  0  0  0  0  0  0  0  0  0
    9.3044    6.8740    7.9458 C   0  0  0  0  0  0  0  0  0  0  0  0
    8.1039    5.7938    3.6599 C   0  0  0  0  0  0  0  0  0  0  0  0
    8.3121    4.7445    4.5489 C   0  0  0  0  0  0  0  0  0  0  0  0
    7.4212    3.6883    4.6074 C   0  0  0  0  0  0  0  0  0  0  0  0
    6.3127    3.6765    3.7772 C   0  0  0  0  0  0  0  0  0  0  0  0
    6.0988    4.7201    2.8897 C   0  0  0  0  0  0  0  0  0  0  0  0
    6.9876    5.7772    2.8283 C   0  0  0  0  0  0  0  0  0  0  0  0
    8.3226    8.5791    3.1921 C   0  0  0  0  0  0  0  0  0  0  0  0
    7.1537    8.8014    3.9204 C   0  0  0  0  0  0  0  0  0  0  0  0
    6.4057    9.9415    3.7028 C   0  0  0  0  0  0  0  0  0  0  0  0
    6.8254   10.8779    2.7704 C   0  0  0  0  0  0  0  0  0  0  0  0
    7.9947   10.6692    2.0591 C   0  0  0  0  0  0  0  0  0  0  0  0
    8.7477    9.5275    2.2691 C   0  0  0  0  0  0  0  0  0  0  0  0
   10.3174    6.8035    2.1644 C   0  0  0  0  0  0  0  0  0  0  0  0
   10.0111    5.8000    1.2513 C   0  0  0  0  0  0  0  0  0  0  0  0
   10.8312    5.5945    0.1564 C   0  0  0  0  0  0  0  0  0  0  0  0
   11.9576    6.3789   -0.0322 C   0  0  0  0  0  0  0  0  0  0  0  0
   12.2746    7.3680    0.8850 C   0  0  0  0  0  0  0  0  0  0  0  0
   11.4647    7.5767    1.9858 C   0  0  0  0  0  0  0  0  0  0  0  0
  2  1  1  6  0  0  0
  2  5  1  0  0  0  0
  2  4  1  0  0  0  0
  3 41  1  0  0  0  0
  3  2  1  0  0  0  0
  4 29  1  0  0  0  0
  4 40  1  0  0  0  0
  5 39  1  0  0  0  0
  6 29  1  0  0  0  0
 12 37  1  0  0  0  0
 13 38  1  0  0  0  0
 17 45  1  0  0  0  0
 18 46  1  0  0  0  0
 21 50  1  0  0  0  0
 22 51  1  0  0  0  0
 23 52  1  0  0  0  0
 25 55  1  0  0  0  0
 26 56  1  0  0  0  0
 27 57  1  0  0  0  0
 29 30  2  0  0  0  0
 30  7  1  0  0  0  0
 30 31  1  0  0  0  0
 31  8  1  0  0  0  0
 32 31  2  0  0  0  0
 32 33  1  0  0  0  0
 33  9  1  0  0  0  0
 34 33  2  0  0  0  0
 34 10  1  0  0  0  0
 35 34  1  0  0  0  0
 36 35  2  0  0  0  0
 36 11  1  0  0  0  0
 37 36  1  0  0  0  0
 38  5  1  0  0  0  0
 38 37  2  0  0  0  0
 39 40  2  0  0  0  0
 39 35  1  0  0  0  0
 40 32  1  0  0  0  0
 41 42  1  0  0  0  0
 42 43  2  0  0  0  0
 42 14  1  0  0  0  0
 43 15  1  0  0  0  0
 44 16  1  0  0  0  0
 44 43  1  0  0  0  0
 45 44  2  0  0  0  0
 46 45  1  0  0  0  0
 46 41  2  0  0  0  0
 47  3  1  0  0  0  0
 47 48  1  0  0  0  0
 48 19  1  0  0  0  0
 49 48  2  0  0  0  0
 49 20  1  0  0  0  0
 50 49  1  0  0  0  0
 51 52  1  0  0  0  0
 51 50  2  0  0  0  0
 52 47  2  0  0  0  0
 53  3  1  0  0  0  0
 54 24  1  0  0  0  0
 54 53  2  0  0  0  0
 55 54  1  0  0  0  0
 56 55  2  0  0  0  0
 56 57  1  0  0  0  0
 57 58  2  0  0  0  0
 58 53  1  0  0  0  0
 58 28  1  0  0  0  0
M  END
$$$$
