CSD_code = BEQLUE | q = 1 | S = 0 | Stoichiometry = C14H30ClN4Pd(1+) | MND = 5
 OpenBabel04212202013D

 50 54  0  0  1  0  0  0  0  0999 V2000
    4.1771    5.9913    1.2655 Pd  0  0  0  0  0  0  0  0  0  0  0  0
    6.2572    6.8062    1.6709 Cl  0  0  0  0  0  0  0  0  0  0  0  0
    2.0974    5.3413    1.1005 N   0  0  1  0  0  4  0  0  0  0  0  0
    1.6913    5.4373    2.5151 C   0  0  0  0  0  0  0  0  0  0  0  0
    1.6030    6.4959    2.7802 H   0  0  0  0  0  0  0  0  0  0  0  0
    0.7042    4.9754    2.6666 H   0  0  0  0  0  0  0  0  0  0  0  0
    2.7105    4.7813    3.4339 C   0  0  0  0  0  0  0  0  0  0  0  0
    2.3885    4.8880    4.4781 H   0  0  0  0  0  0  0  0  0  0  0  0
    2.7494    3.7197    3.2031 H   0  0  0  0  0  0  0  0  0  0  0  0
    4.0442    5.3781    3.2439 N   0  0  1  0  0  4  0  0  0  0  0  0
    5.1134    4.4265    3.6220 C   0  0  0  0  0  0  0  0  0  0  0  0
    5.0636    4.2784    4.7102 H   0  0  0  0  0  0  0  0  0  0  0  0
    6.0655    4.9100    3.3839 H   0  0  0  0  0  0  0  0  0  0  0  0
    5.1054    3.0317    2.9800 C   0  0  0  0  0  0  0  0  0  0  0  0
    5.9240    2.4919    3.4617 H   0  0  0  0  0  0  0  0  0  0  0  0
    4.2005    2.4772    3.2333 H   0  0  0  0  0  0  0  0  0  0  0  0
    5.3917    2.9576    1.4761 C   0  0  0  0  0  0  0  0  0  0  0  0
    6.3518    3.4530    1.3098 H   0  0  0  0  0  0  0  0  0  0  0  0
    5.5009    1.8963    1.2027 H   0  0  0  0  0  0  0  0  0  0  0  0
    4.4139    3.6179    0.6066 N   0  0  2  0  0  4  0  0  0  0  0  0
    4.9779    3.8775   -0.7195 C   0  0  0  0  0  0  0  0  0  0  0  0
    4.9560    2.9691   -1.3437 H   0  0  0  0  0  0  0  0  0  0  0  0
    6.0223    4.1724   -0.5876 H   0  0  0  0  0  0  0  0  0  0  0  0
    4.2430    4.9854   -1.4852 C   0  0  0  0  0  0  0  0  0  0  0  0
    4.6949    5.0651   -2.4820 H   0  0  0  0  0  0  0  0  0  0  0  0
    3.2107    4.6754   -1.6190 H   0  0  0  0  0  0  0  0  0  0  0  0
    4.2875    6.3089   -0.8220 N   0  0  1  0  0  4  0  0  0  0  0  0
    3.1665    7.1687   -1.2561 C   0  0  0  0  0  0  0  0  0  0  0  0
    3.2954    7.4044   -2.3228 H   0  0  0  0  0  0  0  0  0  0  0  0
    3.2496    8.1073   -0.6930 H   0  0  0  0  0  0  0  0  0  0  0  0
    1.7492    6.6173   -1.0879 C   0  0  0  0  0  0  0  0  0  0  0  0
    1.5849    5.7451   -1.7213 H   0  0  0  0  0  0  0  0  0  0  0  0
    1.0751    7.3889   -1.4674 H   0  0  0  0  0  0  0  0  0  0  0  0
    1.3243    6.3530    0.3548 C   0  0  0  0  0  0  0  0  0  0  0  0
    1.4243    7.3020    0.8945 H   0  0  0  0  0  0  0  0  0  0  0  0
    0.2597    6.0742    0.3565 H   0  0  0  0  0  0  0  0  0  0  0  0
    1.8865    3.9854    0.5596 C   0  0  0  0  0  0  0  0  0  0  0  0
    1.5534    4.0851   -0.4728 H   0  0  0  0  0  0  0  0  0  0  0  0
    1.0622    3.5023    1.0999 H   0  0  0  0  0  0  0  0  0  0  0  0
    3.0987    2.9962    0.5842 C   0  0  0  0  0  0  0  0  0  0  0  0
    3.0087    2.3582    1.4637 H   0  0  0  0  0  0  0  0  0  0  0  0
    2.9914    2.3382   -0.2913 H   0  0  0  0  0  0  0  0  0  0  0  0
    4.1750    6.5780    4.0824 C   0  0  0  0  0  0  0  0  0  0  0  0
    4.0174    6.3336    5.1396 H   0  0  0  0  0  0  0  0  0  0  0  0
    3.4456    7.3343    3.7809 H   0  0  0  0  0  0  0  0  0  0  0  0
    5.1736    6.9997    3.9657 H   0  0  0  0  0  0  0  0  0  0  0  0
    5.5244    6.9911   -1.2317 C   0  0  0  0  0  0  0  0  0  0  0  0
    5.5322    7.1484   -2.3167 H   0  0  0  0  0  0  0  0  0  0  0  0
    6.3929    6.3974   -0.9541 H   0  0  0  0  0  0  0  0  0  0  0  0
    5.6037    7.9582   -0.7357 H   0  0  0  0  0  0  0  0  0  0  0  0
  1  2  1  0  0  0  0
  1 10  1  0  0  0  0
  3 34  1  6  0  0  0
  3  1  1  0  0  0  0
  3  4  1  0  0  0  0
  4  6  1  0  0  0  0
  4  5  1  0  0  0  0
  4  7  1  0  0  0  0
  7  8  1  0  0  0  0
  9  7  1  0  0  0  0
 10  7  1  0  0  0  0
 10 11  1  0  0  0  0
 10 43  1  1  0  0  0
 11 12  1  0  0  0  0
 13 11  1  0  0  0  0
 14 16  1  0  0  0  0
 14 15  1  0  0  0  0
 14 11  1  0  0  0  0
 17 14  1  0  0  0  0
 18 17  1  0  0  0  0
 19 17  1  0  0  0  0
 20 21  1  6  0  0  0
 20  1  1  0  0  0  0
 20 17  1  0  0  0  0
 21 23  1  0  0  0  0
 22 21  1  0  0  0  0
 24 27  1  0  0  0  0
 24 21  1  0  0  0  0
 25 24  1  0  0  0  0
 26 24  1  0  0  0  0
 27 47  1  6  0  0  0
 27  1  1  0  0  0  0
 28 31  1  0  0  0  0
 28 27  1  0  0  0  0
 28 30  1  0  0  0  0
 29 28  1  0  0  0  0
 31 34  1  0  0  0  0
 32 31  1  0  0  0  0
 33 31  1  0  0  0  0
 34 36  1  0  0  0  0
 34 35  1  0  0  0  0
 37 40  1  0  0  0  0
 37 39  1  0  0  0  0
 37  3  1  0  0  0  0
 38 37  1  0  0  0  0
 40 20  1  0  0  0  0
 40 41  1  0  0  0  0
 42 40  1  0  0  0  0
 43 44  1  0  0  0  0
 45 43  1  0  0  0  0
 46 43  1  0  0  0  0
 47 49  1  0  0  0  0
 47 50  1  0  0  0  0
 48 47  1  0  0  0  0
M  END
$$$$
