CSD_code = BEQSEV | q = 0 | S = 0 | Stoichiometry = C41H33ClINP2Pd | MND = 4
 OpenBabel04212202013D

 80 86  0  0  0  0  0  0  0  0999 V2000
    6.9725   10.9215    1.4266 Pd  0  0  0  0  0  0  0  0  0  0  0  0
    6.3871    9.8893   -0.9237 I   0  0  0  0  0  0  0  0  0  0  0  0
    8.4661   15.3906    3.7248 Cl  0  0  0  0  0  0  0  0  0  0  0  0
    9.1593   10.3961    1.2170 P   0  0  0  0  0  4  0  0  0  0  0  0
    4.8682   11.6489    1.7829 P   0  0  0  0  0  4  0  0  0  0  0  0
    7.4187   11.7437    3.1431 C   0  0  0  0  0  0  0  0  0  0  0  0
    7.7375   13.0216    2.9735 N   0  0  0  0  0  0  0  0  0  0  0  0
    8.0709   13.7374    4.0249 C   0  0  0  0  0  0  0  0  0  0  0  0
    8.1159   13.2440    5.3167 C   0  0  0  0  0  0  0  0  0  0  0  0
    8.3966   13.8772    6.1421 H   0  0  0  0  0  0  0  0  0  0  0  0
    7.7854   11.9086    5.4946 C   0  0  0  0  0  0  0  0  0  0  0  0
    7.8071   11.4759    6.4852 H   0  0  0  0  0  0  0  0  0  0  0  0
    7.4295   11.1422    4.4002 C   0  0  0  0  0  0  0  0  0  0  0  0
    7.1666   10.0951    4.5126 H   0  0  0  0  0  0  0  0  0  0  0  0
   10.3049   11.0386    2.4770 C   0  0  0  0  0  0  0  0  0  0  0  0
   10.9016   12.2901    2.3786 C   0  0  0  0  0  0  0  0  0  0  0  0
   10.7886   12.8757    1.4768 H   0  0  0  0  0  0  0  0  0  0  0  0
   11.6398   12.7881    3.4374 C   0  0  0  0  0  0  0  0  0  0  0  0
   12.0977   13.7631    3.3577 H   0  0  0  0  0  0  0  0  0  0  0  0
   11.7837   12.0471    4.5980 C   0  0  0  0  0  0  0  0  0  0  0  0
   12.3543   12.4433    5.4249 H   0  0  0  0  0  0  0  0  0  0  0  0
   11.1932   10.7973    4.6998 C   0  0  0  0  0  0  0  0  0  0  0  0
   11.3044   10.2170    5.6043 H   0  0  0  0  0  0  0  0  0  0  0  0
   10.4520   10.2975    3.6475 C   0  0  0  0  0  0  0  0  0  0  0  0
    9.9774    9.3262    3.7238 H   0  0  0  0  0  0  0  0  0  0  0  0
    9.6160   11.3007   -0.2876 C   0  0  0  0  0  0  0  0  0  0  0  0
    9.0137   12.5579   -0.3931 C   0  0  0  0  0  0  0  0  0  0  0  0
    8.3891   12.9229    0.4319 H   0  0  0  0  0  0  0  0  0  0  0  0
    9.2147   13.3260   -1.5227 C   0  0  0  0  0  0  0  0  0  0  0  0
    8.7523   14.2990   -1.6071 H   0  0  0  0  0  0  0  0  0  0  0  0
   10.0000   12.8369   -2.5566 C   0  0  0  0  0  0  0  0  0  0  0  0
   10.1468   13.4306   -3.4468 H   0  0  0  0  0  0  0  0  0  0  0  0
   10.5790   11.5837   -2.4601 C   0  0  0  0  0  0  0  0  0  0  0  0
   11.1729   11.1991   -3.2760 H   0  0  0  0  0  0  0  0  0  0  0  0
   10.3891   10.8081   -1.3280 C   0  0  0  0  0  0  0  0  0  0  0  0
   10.8170    9.8177   -1.2687 H   0  0  0  0  0  0  0  0  0  0  0  0
    9.6947    8.6769    1.0492 C   0  0  0  0  0  0  0  0  0  0  0  0
   11.0374    8.3421    0.8986 C   0  0  0  0  0  0  0  0  0  0  0  0
   11.7873    9.1222    0.8801 H   0  0  0  0  0  0  0  0  0  0  0  0
   11.3995    7.0130    0.7890 C   0  0  0  0  0  0  0  0  0  0  0  0
   12.4393    6.7478    0.6641 H   0  0  0  0  0  0  0  0  0  0  0  0
   10.4323    6.0201    0.8416 C   0  0  0  0  0  0  0  0  0  0  0  0
   10.7229    4.9838    0.7515 H   0  0  0  0  0  0  0  0  0  0  0  0
    9.0990    6.3507    1.0179 C   0  0  0  0  0  0  0  0  0  0  0  0
    8.3494    5.5753    1.0685 H   0  0  0  0  0  0  0  0  0  0  0  0
    8.7302    7.6790    1.1260 C   0  0  0  0  0  0  0  0  0  0  0  0
    7.6877    7.9557    1.2671 H   0  0  0  0  0  0  0  0  0  0  0  0
    4.1736   12.4338    0.3041 C   0  0  0  0  0  0  0  0  0  0  0  0
    2.8767   12.2896   -0.1646 C   0  0  0  0  0  0  0  0  0  0  0  0
    2.1726   11.6574    0.3560 H   0  0  0  0  0  0  0  0  0  0  0  0
    2.5008   12.9392   -1.3286 C   0  0  0  0  0  0  0  0  0  0  0  0
    1.4944   12.8223   -1.7028 H   0  0  0  0  0  0  0  0  0  0  0  0
    3.4085   13.7233   -2.0196 C   0  0  0  0  0  0  0  0  0  0  0  0
    3.1070   14.2192   -2.9302 H   0  0  0  0  0  0  0  0  0  0  0  0
    4.7101   13.8564   -1.5598 C   0  0  0  0  0  0  0  0  0  0  0  0
    5.4236   14.4490   -2.1130 H   0  0  0  0  0  0  0  0  0  0  0  0
    5.0933   13.2072   -0.4042 C   0  0  0  0  0  0  0  0  0  0  0  0
    6.1224   13.2649   -0.0432 H   0  0  0  0  0  0  0  0  0  0  0  0
    3.8129   10.2705    2.2959 C   0  0  0  0  0  0  0  0  0  0  0  0
    4.4130    9.0150    2.3533 C   0  0  0  0  0  0  0  0  0  0  0  0
    5.4747    8.9151    2.0916 H   0  0  0  0  0  0  0  0  0  0  0  0
    3.6780    7.9113    2.7444 C   0  0  0  0  0  0  0  0  0  0  0  0
    4.1405    6.9360    2.7824 H   0  0  0  0  0  0  0  0  0  0  0  0
    2.3441    8.0616    3.0872 C   0  0  0  0  0  0  0  0  0  0  0  0
    1.7651    7.2009    3.3874 H   0  0  0  0  0  0  0  0  0  0  0  0
    1.7509    9.3147    3.0592 C   0  0  0  0  0  0  0  0  0  0  0  0
    0.7151    9.4276    3.3447 H   0  0  0  0  0  0  0  0  0  0  0  0
    2.4813   10.4226    2.6710 C   0  0  0  0  0  0  0  0  0  0  0  0
    2.0316   11.4066    2.6758 H   0  0  0  0  0  0  0  0  0  0  0  0
    4.5996   12.8939    3.0805 C   0  0  0  0  0  0  0  0  0  0  0  0
    4.4911   12.4754    4.4044 C   0  0  0  0  0  0  0  0  0  0  0  0
    4.4399   11.4173    4.6293 H   0  0  0  0  0  0  0  0  0  0  0  0
    4.4541   13.4047    5.4258 C   0  0  0  0  0  0  0  0  0  0  0  0
    4.3708   13.0727    6.4506 H   0  0  0  0  0  0  0  0  0  0  0  0
    4.5360   14.7575    5.1375 C   0  0  0  0  0  0  0  0  0  0  0  0
    4.5191   15.4822    5.9381 H   0  0  0  0  0  0  0  0  0  0  0  0
    4.6448   15.1789    3.8230 C   0  0  0  0  0  0  0  0  0  0  0  0
    4.7129   16.2328    3.5966 H   0  0  0  0  0  0  0  0  0  0  0  0
    4.6807   14.2532    2.7963 C   0  0  0  0  0  0  0  0  0  0  0  0
    4.7753   14.5853    1.7715 H   0  0  0  0  0  0  0  0  0  0  0  0
  1  5  1  0  0  0  0
  1  6  1  0  0  0  0
  2  1  1  0  0  0  0
  3  8  1  0  0  0  0
  4  1  1  0  0  0  0
  4 15  1  0  0  0  0
  5 59  1  0  0  0  0
  5 70  1  0  0  0  0
  6 13  1  0  0  0  0
  7  6  2  0  0  0  0
  7  8  1  0  0  0  0
  8  9  2  0  0  0  0
  9 11  1  0  0  0  0
  9 10  1  0  0  0  0
 11 12  1  0  0  0  0
 13 14  1  0  0  0  0
 13 11  2  0  0  0  0
 15 24  1  0  0  0  0
 16 15  2  0  0  0  0
 16 18  1  0  0  0  0
 17 16  1  0  0  0  0
 18 20  2  0  0  0  0
 19 18  1  0  0  0  0
 20 22  1  0  0  0  0
 20 21  1  0  0  0  0
 22 23  1  0  0  0  0
 24 25  1  0  0  0  0
 24 22  2  0  0  0  0
 26  4  1  0  0  0  0
 27 26  1  0  0  0  0
 27 28  1  0  0  0  0
 29 27  2  0  0  0  0
 30 29  1  0  0  0  0
 31 33  2  0  0  0  0
 31 29  1  0  0  0  0
 32 31  1  0  0  0  0
 33 35  1  0  0  0  0
 34 33  1  0  0  0  0
 35 36  1  0  0  0  0
 35 26  2  0  0  0  0
 37 46  1  0  0  0  0
 37  4  1  0  0  0  0
 38 37  2  0  0  0  0
 39 38  1  0  0  0  0
 40 42  2  0  0  0  0
 40 38  1  0  0  0  0
 41 40  1  0  0  0  0
 42 44  1  0  0  0  0
 43 42  1  0  0  0  0
 44 45  1  0  0  0  0
 44 46  2  0  0  0  0
 46 47  1  0  0  0  0
 48  5  1  0  0  0  0
 49 48  1  0  0  0  0
 49 50  1  0  0  0  0
 51 49  2  0  0  0  0
 52 51  1  0  0  0  0
 53 55  2  0  0  0  0
 53 51  1  0  0  0  0
 54 53  1  0  0  0  0
 55 57  1  0  0  0  0
 56 55  1  0  0  0  0
 57 58  1  0  0  0  0
 57 48  2  0  0  0  0
 59 60  2  0  0  0  0
 59 68  1  0  0  0  0
 60 62  1  0  0  0  0
 61 60  1  0  0  0  0
 62 63  1  0  0  0  0
 62 64  2  0  0  0  0
 64 65  1  0  0  0  0
 66 64  1  0  0  0  0
 66 67  1  0  0  0  0
 68 69  1  0  0  0  0
 68 66  2  0  0  0  0
 70 71  1  0  0  0  0
 71 72  1  0  0  0  0
 71 73  2  0  0  0  0
 73 74  1  0  0  0  0
 75 73  1  0  0  0  0
 75 76  1  0  0  0  0
 77 75  2  0  0  0  0
 78 77  1  0  0  0  0
 79 70  2  0  0  0  0
 79 77  1  0  0  0  0
 80 79  1  0  0  0  0
M  END
$$$$
