CSD_code = BEQVIF | q = 0 | S = 0 | Stoichiometry = C42H42I2P2Zn | MND = 4
 OpenBabel04212202013D

 89 94  0  0  0  0  0  0  0  0999 V2000
   -0.9730    2.5573    9.8424 I   0  0  0  0  0  0  0  0  0  0  0  0
    0.1064    4.8315    9.4839 Zn  0  0  0  0  0  0  0  0  0  0  0  0
    1.8655    4.8383   11.3736 P   0  0  0  0  0  4  0  0  0  0  0  0
    2.8883    6.2739   11.8378 C   0  0  0  0  0  0  0  0  0  0  0  0
    2.6762    7.4922   11.2069 C   0  0  0  0  0  0  0  0  0  0  0  0
    1.9187    7.5858   10.4429 H   0  0  0  0  0  0  0  0  0  0  0  0
    3.4329    8.5972   11.5509 C   0  0  0  0  0  0  0  0  0  0  0  0
    3.2541    9.5380   11.0517 H   0  0  0  0  0  0  0  0  0  0  0  0
    4.4126    8.5086   12.5291 C   0  0  0  0  0  0  0  0  0  0  0  0
    4.6114    7.2858   13.1667 C   0  0  0  0  0  0  0  0  0  0  0  0
    5.3662    7.2060   13.9367 H   0  0  0  0  0  0  0  0  0  0  0  0
    3.8579    6.1804   12.8333 C   0  0  0  0  0  0  0  0  0  0  0  0
    4.0206    5.2393   13.3399 H   0  0  0  0  0  0  0  0  0  0  0  0
    5.2306    9.7016   12.9167 C   0  0  0  0  0  0  0  0  0  0  0  0
    6.2853    9.4404   12.9878 H   0  0  0  0  0  0  0  0  0  0  0  0
    4.9140   10.0674   13.8936 H   0  0  0  0  0  0  0  0  0  0  0  0
    5.1117   10.5071   12.1965 H   0  0  0  0  0  0  0  0  0  0  0  0
    1.0714    4.4458   12.9647 C   0  0  0  0  0  0  0  0  0  0  0  0
   -0.1745    5.0175   13.2087 C   0  0  0  0  0  0  0  0  0  0  0  0
   -0.6312    5.6575   12.4628 H   0  0  0  0  0  0  0  0  0  0  0  0
   -0.8347    4.7737   14.3954 C   0  0  0  0  0  0  0  0  0  0  0  0
   -1.8039    5.2176   14.5702 H   0  0  0  0  0  0  0  0  0  0  0  0
   -0.2693    3.9526   15.3651 C   0  0  0  0  0  0  0  0  0  0  0  0
    0.9767    3.3893   15.1167 C   0  0  0  0  0  0  0  0  0  0  0  0
    1.4291    2.7479   15.8600 H   0  0  0  0  0  0  0  0  0  0  0  0
    1.6460    3.6296   13.9321 C   0  0  0  0  0  0  0  0  0  0  0  0
    2.6080    3.1686   13.7553 H   0  0  0  0  0  0  0  0  0  0  0  0
   -1.0059    3.6637   16.6352 C   0  0  0  0  0  0  0  0  0  0  0  0
   -1.7650    2.9021   16.4553 H   0  0  0  0  0  0  0  0  0  0  0  0
   -1.5097    4.5561   17.0006 H   0  0  0  0  0  0  0  0  0  0  0  0
   -0.3309    3.2963   17.4043 H   0  0  0  0  0  0  0  0  0  0  0  0
    3.0784    3.5053   11.1551 C   0  0  0  0  0  0  0  0  0  0  0  0
    2.6558    2.1806   11.2437 C   0  0  0  0  0  0  0  0  0  0  0  0
    1.6449    1.9537   11.5532 H   0  0  0  0  0  0  0  0  0  0  0  0
    3.5250    1.1505   10.9403 C   0  0  0  0  0  0  0  0  0  0  0  0
    3.1811    0.1292   11.0188 H   0  0  0  0  0  0  0  0  0  0  0  0
    4.8239    1.4122   10.5235 C   0  0  0  0  0  0  0  0  0  0  0  0
    5.2406    2.7368   10.4416 C   0  0  0  0  0  0  0  0  0  0  0  0
    6.2513    2.9562   10.1259 H   0  0  0  0  0  0  0  0  0  0  0  0
    4.3832    3.7733   10.7515 C   0  0  0  0  0  0  0  0  0  0  0  0
    4.7237    4.7974   10.6882 H   0  0  0  0  0  0  0  0  0  0  0  0
    5.7663    0.3051   10.1669 C   0  0  0  0  0  0  0  0  0  0  0  0
    5.2770   -0.6627   10.2402 H   0  0  0  0  0  0  0  0  0  0  0  0
    6.6274    0.3096   10.8347 H   0  0  0  0  0  0  0  0  0  0  0  0
    6.1333    0.4378    9.1500 H   0  0  0  0  0  0  0  0  0  0  0  0
   -0.9700    7.1073    9.1258 I   0  0  0  0  0  0  0  0  0  0  0  0
    1.8638    4.8228    7.5926 P   0  0  0  0  0  4  0  0  0  0  0  0
    2.8870    3.3870    7.1299 C   0  0  0  0  0  0  0  0  0  0  0  0
    2.6719    2.1681    7.7585 C   0  0  0  0  0  0  0  0  0  0  0  0
    1.9120    2.0742    8.5200 H   0  0  0  0  0  0  0  0  0  0  0  0
    3.4286    1.0629    7.4152 C   0  0  0  0  0  0  0  0  0  0  0  0
    3.2475    0.1216    7.9127 H   0  0  0  0  0  0  0  0  0  0  0  0
    4.4113    1.1518    6.4401 C   0  0  0  0  0  0  0  0  0  0  0  0
    4.6133    2.3753    5.8049 C   0  0  0  0  0  0  0  0  0  0  0  0
    5.3705    2.4555    5.0373 H   0  0  0  0  0  0  0  0  0  0  0  0
    3.8599    3.4810    6.1375 C   0  0  0  0  0  0  0  0  0  0  0  0
    4.0251    4.4226    5.6328 H   0  0  0  0  0  0  0  0  0  0  0  0
    5.2290   -0.0415    6.0530 C   0  0  0  0  0  0  0  0  0  0  0  0
    6.2839    0.2188    5.9832 H   0  0  0  0  0  0  0  0  0  0  0  0
    4.9131   -0.4066    5.0756 H   0  0  0  0  0  0  0  0  0  0  0  0
    5.1086   -0.8474    6.7726 H   0  0  0  0  0  0  0  0  0  0  0  0
    1.0699    5.2140    6.0012 C   0  0  0  0  0  0  0  0  0  0  0  0
   -0.1773    4.6446    5.7584 C   0  0  0  0  0  0  0  0  0  0  0  0
   -0.6352    4.0069    6.5056 H   0  0  0  0  0  0  0  0  0  0  0  0
   -0.8373    4.8877    4.5715 C   0  0  0  0  0  0  0  0  0  0  0  0
   -1.8076    4.4457    4.3977 H   0  0  0  0  0  0  0  0  0  0  0  0
   -0.2703    5.7059    3.6002 C   0  0  0  0  0  0  0  0  0  0  0  0
    0.9770    6.2669    3.8472 C   0  0  0  0  0  0  0  0  0  0  0  0
    1.4306    6.9058    3.1026 H   0  0  0  0  0  0  0  0  0  0  0  0
    1.6460    6.0272    5.0320 C   0  0  0  0  0  0  0  0  0  0  0  0
    2.6091    6.4863    5.2077 H   0  0  0  0  0  0  0  0  0  0  0  0
   -1.0068    5.9943    2.3298 C   0  0  0  0  0  0  0  0  0  0  0  0
   -1.7645    6.7575    2.5089 H   0  0  0  0  0  0  0  0  0  0  0  0
   -1.5123    5.1023    1.9658 H   0  0  0  0  0  0  0  0  0  0  0  0
   -0.3314    6.3594    1.5600 H   0  0  0  0  0  0  0  0  0  0  0  0
    3.0764    6.1560    7.8107 C   0  0  0  0  0  0  0  0  0  0  0  0
    2.6549    7.4808    7.7182 C   0  0  0  0  0  0  0  0  0  0  0  0
    1.6449    7.7076    7.4059 H   0  0  0  0  0  0  0  0  0  0  0  0
    3.5241    8.5110    8.0212 C   0  0  0  0  0  0  0  0  0  0  0  0
    3.1811    9.5323    7.9397 H   0  0  0  0  0  0  0  0  0  0  0  0
    4.8219    8.2493    8.4416 C   0  0  0  0  0  0  0  0  0  0  0  0
    5.2374    6.9246    8.5276 C   0  0  0  0  0  0  0  0  0  0  0  0
    6.2473    6.7052    8.8463 H   0  0  0  0  0  0  0  0  0  0  0  0
    4.3800    5.8880    8.2182 C   0  0  0  0  0  0  0  0  0  0  0  0
    4.7195    4.8638    8.2848 H   0  0  0  0  0  0  0  0  0  0  0  0
    5.7644    9.3566    8.7974 C   0  0  0  0  0  0  0  0  0  0  0  0
    5.2749   10.3243    8.7248 H   0  0  0  0  0  0  0  0  0  0  0  0
    6.6247    9.3523    8.1285 H   0  0  0  0  0  0  0  0  0  0  0  0
    6.1327    9.2238    9.8138 H   0  0  0  0  0  0  0  0  0  0  0  0
  2  1  1  0  0  0  0
  2  3  1  0  0  0  0
  3  4  1  0  0  0  0
  3 18  1  0  0  0  0
  4 12  1  0  0  0  0
  5  7  1  0  0  0  0
  5  4  2  0  0  0  0
  6  5  1  0  0  0  0
  7  9  2  0  0  0  0
  8  7  1  0  0  0  0
  9 14  1  0  0  0  0
  9 10  1  0  0  0  0
 10 11  1  0  0  0  0
 12 10  2  0  0  0  0
 12 13  1  0  0  0  0
 14 15  1  0  0  0  0
 14 16  1  0  0  0  0
 17 14  1  0  0  0  0
 18 19  2  0  0  0  0
 18 26  1  0  0  0  0
 19 21  1  0  0  0  0
 20 19  1  0  0  0  0
 21 22  1  0  0  0  0
 21 23  2  0  0  0  0
 23 28  1  0  0  0  0
 24 23  1  0  0  0  0
 24 25  1  0  0  0  0
 26 24  2  0  0  0  0
 27 26  1  0  0  0  0
 28 30  1  0  0  0  0
 28 31  1  0  0  0  0
 29 28  1  0  0  0  0
 32 33  1  0  0  0  0
 32  3  1  0  0  0  0
 33 34  1  0  0  0  0
 35 36  1  0  0  0  0
 35 33  2  0  0  0  0
 37 35  1  0  0  0  0
 38 37  2  0  0  0  0
 38 40  1  0  0  0  0
 39 38  1  0  0  0  0
 40 32  2  0  0  0  0
 41 40  1  0  0  0  0
 42 43  1  0  0  0  0
 42 37  1  0  0  0  0
 42 44  1  0  0  0  0
 45 42  1  0  0  0  0
 46  2  1  0  0  0  0
 47 76  1  0  0  0  0
 47  2  1  0  0  0  0
 48 47  1  0  0  0  0
 48 49  1  0  0  0  0
 49 50  1  0  0  0  0
 51 49  2  0  0  0  0
 51 52  1  0  0  0  0
 53 51  1  0  0  0  0
 54 56  1  0  0  0  0
 54 53  2  0  0  0  0
 55 54  1  0  0  0  0
 56 48  2  0  0  0  0
 57 56  1  0  0  0  0
 58 53  1  0  0  0  0
 58 61  1  0  0  0  0
 59 58  1  0  0  0  0
 60 58  1  0  0  0  0
 62 47  1  0  0  0  0
 63 62  1  0  0  0  0
 63 64  1  0  0  0  0
 65 63  2  0  0  0  0
 66 65  1  0  0  0  0
 67 68  2  0  0  0  0
 67 65  1  0  0  0  0
 68 70  1  0  0  0  0
 69 68  1  0  0  0  0
 70 71  1  0  0  0  0
 70 62  2  0  0  0  0
 72 73  1  0  0  0  0
 72 67  1  0  0  0  0
 74 72  1  0  0  0  0
 75 72  1  0  0  0  0
 76 84  1  0  0  0  0
 77 76  2  0  0  0  0
 77 79  1  0  0  0  0
 78 77  1  0  0  0  0
 79 81  2  0  0  0  0
 80 79  1  0  0  0  0
 81 82  1  0  0  0  0
 81 86  1  0  0  0  0
 82 83  1  0  0  0  0
 84 85  1  0  0  0  0
 84 82  2  0  0  0  0
 86 89  1  0  0  0  0
 87 86  1  0  0  0  0
 88 86  1  0  0  0  0
M  END
$$$$
