CSD_code = BEQVUR | q = -1 | S = 0 | Stoichiometry = C4H8HgI3O2(1-) | MND = 4
 OpenBabel04212202013D

 18 17  0  0  0  0  0  0  0  0999 V2000
    5.9464   17.1831   14.2447 Hg  0  0  0  0  0  0  0  0  0  0  0  0
    6.0964   14.7931   13.0584 I   0  0  0  0  0  0  0  0  0  0  0  0
    3.9762   18.9310   13.7653 I   0  0  0  0  0  0  0  0  0  0  0  0
    7.9240   17.9169   15.9052 I   0  0  0  0  0  0  0  0  0  0  0  0
    4.5375   16.0441   16.4029 O   0  0  0  0  0  0  0  0  0  0  0  0
    4.8712   15.9967   19.2104 O   0  0  0  0  0  0  0  0  0  0  0  0
    5.0038   14.8840   17.0649 C   0  0  0  0  0  0  0  0  0  0  0  0
    5.6789   14.3733   16.3771 H   0  0  0  0  0  0  0  0  0  0  0  0
    4.1471   14.2305   17.2903 H   0  0  0  0  0  0  0  0  0  0  0  0
    5.7252   15.2565   18.3599 C   0  0  0  0  0  0  0  0  0  0  0  0
    6.0152   14.3600   18.9100 H   0  0  0  0  0  0  0  0  0  0  0  0
    6.6200   15.8498   18.1247 H   0  0  0  0  0  0  0  0  0  0  0  0
    4.4208   17.1589   18.5434 C   0  0  0  0  0  0  0  0  0  0  0  0
    5.2770   17.8056   18.3022 H   0  0  0  0  0  0  0  0  0  0  0  0
    3.7528   17.6781   19.2321 H   0  0  0  0  0  0  0  0  0  0  0  0
    3.6875   16.7853   17.2560 C   0  0  0  0  0  0  0  0  0  0  0  0
    2.8005   16.1793   17.4960 H   0  0  0  0  0  0  0  0  0  0  0  0
    3.3820   17.6771   16.7078 H   0  0  0  0  0  0  0  0  0  0  0  0
  1  4  1  0  0  0  0
  2  1  1  0  0  0  0
  3  1  1  0  0  0  0
  5  7  1  0  0  0  0
  5 16  1  0  0  0  0
  7  9  1  0  0  0  0
  7 10  1  0  0  0  0
  8  7  1  0  0  0  0
 10 11  1  0  0  0  0
 10  6  1  0  0  0  0
 12 10  1  0  0  0  0
 13  6  1  0  0  0  0
 13 15  1  0  0  0  0
 14 13  1  0  0  0  0
 16 17  1  0  0  0  0
 16 13  1  0  0  0  0
 18 16  1  0  0  0  0
M  END
$$$$
