CSD_code = BERHOX | q = 0 | S = 0 | Stoichiometry = C32H32Br2N2Ni | MND = 4
 OpenBabel04212202013D

 69 74  0  0  0  0  0  0  0  0999 V2000
    0.0797    3.0913    9.3800 Br  0  0  0  0  0  0  0  0  0  0  0  0
   -3.0213    2.8292    9.3331 N   0  0  0  0  0  0  0  0  0  0  0  0
   -1.7087    3.8268   10.4585 Ni  0  0  0  0  0  0  0  0  0  0  0  0
   -3.1462    3.8269   11.7916 N   0  0  0  0  0  0  0  0  0  0  0  0
   -0.6381    5.5785   11.3028 Br  0  0  0  0  0  0  0  0  0  0  0  0
   -5.3886    2.6730   11.9798 C   0  0  0  0  0  0  0  0  0  0  0  0
   -3.0974    4.3126   13.1081 C   0  0  0  0  0  0  0  0  0  0  0  0
   -2.8644    2.4301    8.0011 C   0  0  0  0  0  0  0  0  0  0  0  0
   -2.7374    1.0764    7.6725 C   0  0  0  0  0  0  0  0  0  0  0  0
   -4.1096    2.6459    9.9927 C   0  0  0  0  0  0  0  0  0  0  0  0
   -5.9916    1.4661    8.6012 C   0  0  0  0  0  0  0  0  0  0  0  0
   -5.4957    1.4331    7.6425 H   0  0  0  0  0  0  0  0  0  0  0  0
   -6.1084    2.0478   10.9308 C   0  0  0  0  0  0  0  0  0  0  0  0
   -4.1414    3.1219   11.3791 C   0  0  0  0  0  0  0  0  0  0  0  0
   -2.8143    4.8717    7.4417 C   0  0  0  0  0  0  0  0  0  0  0  0
   -2.1750    5.0497    8.3221 H   0  0  0  0  0  0  0  0  0  0  0  0
   -3.8339    5.1547    7.7110 H   0  0  0  0  0  0  0  0  0  0  0  0
   -2.4738    5.5206    6.6398 H   0  0  0  0  0  0  0  0  0  0  0  0
   -2.9709    5.2095   15.7106 C   0  0  0  0  0  0  0  0  0  0  0  0
   -2.9316    5.5544   16.7328 H   0  0  0  0  0  0  0  0  0  0  0  0
   -2.2092    3.6976   14.0018 C   0  0  0  0  0  0  0  0  0  0  0  0
   -4.7126    6.1719   12.4810 C   0  0  0  0  0  0  0  0  0  0  0  0
   -4.7019    5.6419   11.5223 H   0  0  0  0  0  0  0  0  0  0  0  0
   -2.5504    0.7432    6.3402 C   0  0  0  0  0  0  0  0  0  0  0  0
   -2.4453   -0.2973    6.0707 H   0  0  0  0  0  0  0  0  0  0  0  0
   -5.3955    2.0245    9.7058 C   0  0  0  0  0  0  0  0  0  0  0  0
   -5.9494    2.7245   13.2328 C   0  0  0  0  0  0  0  0  0  0  0  0
   -5.4323    3.1697   14.0695 H   0  0  0  0  0  0  0  0  0  0  0  0
   -2.4802    1.7204    5.3635 C   0  0  0  0  0  0  0  0  0  0  0  0
   -2.3349    1.4401    4.3314 H   0  0  0  0  0  0  0  0  0  0  0  0
   -2.5652    3.0570    5.7106 C   0  0  0  0  0  0  0  0  0  0  0  0
   -2.4780    3.8209    4.9526 H   0  0  0  0  0  0  0  0  0  0  0  0
   -2.7448    3.4331    7.0310 C   0  0  0  0  0  0  0  0  0  0  0  0
   -1.3459    2.5490   13.5303 C   0  0  0  0  0  0  0  0  0  0  0  0
   -1.1772    2.6632   12.4369 H   0  0  0  0  0  0  0  0  0  0  0  0
   -2.7414    0.0289    8.7446 C   0  0  0  0  0  0  0  0  0  0  0  0
   -2.3878   -0.9181    8.3460 H   0  0  0  0  0  0  0  0  0  0  0  0
   -3.7422   -0.1232    9.1527 H   0  0  0  0  0  0  0  0  0  0  0  0
   -2.0829    0.3260    9.5613 H   0  0  0  0  0  0  0  0  0  0  0  0
   -2.1746    4.1523   15.3094 C   0  0  0  0  0  0  0  0  0  0  0  0
   -1.5148    3.6841   16.0214 H   0  0  0  0  0  0  0  0  0  0  0  0
    0.0326    2.5355   14.1856 C   0  0  0  0  0  0  0  0  0  0  0  0
    0.4906    3.5193   14.1164 H   0  0  0  0  0  0  0  0  0  0  0  0
    0.6739    1.8222   13.6725 H   0  0  0  0  0  0  0  0  0  0  0  0
   -0.0276    2.2428   15.2312 H   0  0  0  0  0  0  0  0  0  0  0  0
   -7.3854    1.5031   11.0905 C   0  0  0  0  0  0  0  0  0  0  0  0
   -3.8769    5.4120   13.4848 C   0  0  0  0  0  0  0  0  0  0  0  0
   -7.2842    0.9284    8.7424 C   0  0  0  0  0  0  0  0  0  0  0  0
   -7.7490    0.4904    7.8715 H   0  0  0  0  0  0  0  0  0  0  0  0
   -7.9384    1.5854   12.3888 C   0  0  0  0  0  0  0  0  0  0  0  0
   -8.9225    1.1800   12.5719 H   0  0  0  0  0  0  0  0  0  0  0  0
   -3.7946    5.8435   14.8008 C   0  0  0  0  0  0  0  0  0  0  0  0
   -4.3800    6.6929   15.1166 H   0  0  0  0  0  0  0  0  0  0  0  0
   -7.2299    2.1687   13.4115 C   0  0  0  0  0  0  0  0  0  0  0  0
   -7.6681    2.2122   14.3978 H   0  0  0  0  0  0  0  0  0  0  0  0
   -2.0731    1.2203   13.7559 C   0  0  0  0  0  0  0  0  0  0  0  0
   -1.4671    0.3931   13.3924 H   0  0  0  0  0  0  0  0  0  0  0  0
   -3.0312    1.1998   13.2365 H   0  0  0  0  0  0  0  0  0  0  0  0
   -2.2600    1.0721   14.8180 H   0  0  0  0  0  0  0  0  0  0  0  0
   -7.9659    0.9314    9.9356 C   0  0  0  0  0  0  0  0  0  0  0  0
   -8.9524    0.4964    9.9987 H   0  0  0  0  0  0  0  0  0  0  0  0
   -6.1711    6.2984   12.9240 C   0  0  0  0  0  0  0  0  0  0  0  0
   -6.6145    5.3171   13.0868 H   0  0  0  0  0  0  0  0  0  0  0  0
   -6.7467    6.8106   12.1559 H   0  0  0  0  0  0  0  0  0  0  0  0
   -6.2513    6.8703   13.8444 H   0  0  0  0  0  0  0  0  0  0  0  0
   -4.0871    7.5517   12.2543 C   0  0  0  0  0  0  0  0  0  0  0  0
   -3.0506    7.4487   11.9408 H   0  0  0  0  0  0  0  0  0  0  0  0
   -4.1098    8.1390   13.1684 H   0  0  0  0  0  0  0  0  0  0  0  0
   -4.6345    8.0894   11.4831 H   0  0  0  0  0  0  0  0  0  0  0  0
  1  3  1  0  0  0  0
  2 10  1  0  0  0  0
  2  3  1  0  0  0  0
  3  5  1  0  0  0  0
  3  4  1  0  0  0  0
  4  7  1  0  0  0  0
  6 27  2  0  0  0  0
  7 47  2  0  0  0  0
  7 21  1  0  0  0  0
  8  2  1  0  0  0  0
  9  8  1  0  0  0  0
  9 36  1  0  0  0  0
 10 14  2  0  0  0  0
 11 48  2  0  0  0  0
 11 26  1  0  0  0  0
 12 11  1  0  0  0  0
 13 46  1  0  0  0  0
 13  6  1  0  0  0  0
 14  4  1  0  0  0  0
 14  6  1  0  0  0  0
 15 17  1  0  0  0  0
 15 16  1  0  0  0  0
 18 15  1  0  0  0  0
 19 20  1  0  0  0  0
 21 40  2  0  0  0  0
 22 62  1  0  0  0  0
 22 47  1  0  0  0  0
 23 22  1  0  0  0  0
 24  9  2  0  0  0  0
 25 24  1  0  0  0  0
 26 10  1  0  0  0  0
 26 13  2  0  0  0  0
 27 54  1  0  0  0  0
 27 28  1  0  0  0  0
 29 31  2  0  0  0  0
 29 24  1  0  0  0  0
 30 29  1  0  0  0  0
 31 33  1  0  0  0  0
 32 31  1  0  0  0  0
 33 15  1  0  0  0  0
 33  8  2  0  0  0  0
 34 56  1  0  0  0  0
 34 21  1  0  0  0  0
 34 42  1  0  0  0  0
 35 34  1  0  0  0  0
 36 38  1  0  0  0  0
 36 39  1  0  0  0  0
 37 36  1  0  0  0  0
 40 19  1  0  0  0  0
 40 41  1  0  0  0  0
 42 45  1  0  0  0  0
 43 42  1  0  0  0  0
 44 42  1  0  0  0  0
 46 50  1  0  0  0  0
 47 52  1  0  0  0  0
 48 60  1  0  0  0  0
 49 48  1  0  0  0  0
 50 51  1  0  0  0  0
 50 54  2  0  0  0  0
 52 53  1  0  0  0  0
 52 19  2  0  0  0  0
 54 55  1  0  0  0  0
 56 59  1  0  0  0  0
 57 56  1  0  0  0  0
 58 56  1  0  0  0  0
 60 61  1  0  0  0  0
 60 46  2  0  0  0  0
 62 63  1  0  0  0  0
 62 65  1  0  0  0  0
 64 62  1  0  0  0  0
 66 22  1  0  0  0  0
 66 68  1  0  0  0  0
 67 66  1  0  0  0  0
 69 66  1  0  0  0  0
M  END
$$$$
