CSD_code = BERKUH | q = 0 | S = 0 | Stoichiometry = C12H11CdCl2N3O | MND = 5
 OpenBabel04212202013D

 30 33  0  0  1  0  0  0  0  0999 V2000
   -0.3056    5.1075    2.2243 Cd  0  0  0  0  0  0  0  0  0  0  0  0
    0.5436    5.8531    0.1935 Cl  0  0  0  0  0  0  0  0  0  0  0  0
   -2.3264    3.8608    2.1918 Cl  0  0  0  0  0  0  0  0  0  0  0  0
    0.1295    2.6203    3.7616 C   0  0  2  0  0  3  0  0  0  0  0  0
   -2.4583    7.2536    6.3299 C   0  0  0  0  0  0  0  0  0  0  0  0
   -3.0011    6.5695    6.9661 H   0  0  0  0  0  0  0  0  0  0  0  0
   -0.1396    7.2030    3.4910 N   0  0  0  0  0  0  0  0  0  0  0  0
   -0.6097    4.6660    4.6357 N   0  0  1  0  0  0  0  0  0  0  0  0
    0.8838    3.1745    2.9833 O   0  0  0  0  0  0  0  0  0  0  0  0
   -1.4897    5.3003    5.3032 C   0  0  0  0  0  3  0  0  0  0  0  0
   -2.2128    4.7476    5.9168 H   0  0  0  0  0  0  0  0  0  0  0  0
   -0.9130    7.6505    4.5062 C   0  0  2  0  0  3  0  0  0  0  0  0
   -0.5939    3.3236    4.6857 N   0  0  0  0  0  0  0  0  0  0  0  0
   -1.3476    2.8468    5.1856 H   0  0  0  0  0  0  0  0  0  0  0  0
   -1.6090    6.7397    5.3628 C   0  0  0  0  0  0  0  0  0  0  0  0
   -2.6250    8.6252    6.5263 C   0  0  0  0  0  0  0  0  0  0  0  0
   -3.2970    8.9744    7.2951 H   0  0  0  0  0  0  0  0  0  0  0  0
    0.4871    9.4524    2.9590 C   0  0  0  0  0  0  0  0  0  0  0  0
    1.0724   10.1015    2.3279 H   0  0  0  0  0  0  0  0  0  0  0  0
    0.5321    8.0640    2.7614 C   0  0  0  0  0  0  0  0  0  0  0  0
    1.1289    7.6472    1.9580 H   0  0  0  0  0  0  0  0  0  0  0  0
   -0.3322    9.9452    3.9356 C   0  0  0  0  0  0  0  0  0  0  0  0
   -0.4347   11.0076    4.1052 H   0  0  0  0  0  0  0  0  0  0  0  0
   -0.0891    1.1366    3.8041 C   0  0  0  0  0  0  0  0  0  0  0  0
    0.7143    0.6368    3.2707 H   0  0  0  0  0  0  0  0  0  0  0  0
   -1.0280    0.9230    3.2934 H   0  0  0  0  0  0  0  0  0  0  0  0
   -0.1489    0.7680    4.8246 H   0  0  0  0  0  0  0  0  0  0  0  0
   -1.9266    9.5131    5.7558 C   0  0  0  0  0  0  0  0  0  0  0  0
   -2.0225   10.5780    5.9073 H   0  0  0  0  0  0  0  0  0  0  0  0
   -1.0650    9.0487    4.7417 C   0  0  0  0  0  0  0  0  0  0  0  0
  1  9  1  0  0  0  0
  1  7  1  0  0  0  0
  1  8  1  0  0  0  0
  2  1  1  0  0  0  0
  3  1  1  0  0  0  0
  4 24  1  1  0  0  0
  4 13  1  0  0  0  0
  5 16  1  0  0  0  0
  5  6  1  0  0  0  0
  7 12  1  0  0  0  0
  8 13  1  0  0  0  0
  8 10  1  6  0  0  0
  9  4  1  0  0  0  0
 10 15  1  0  0  0  0
 10 11  1  0  0  0  0
 12 30  1  6  0  0  0
 12 15  1  0  0  0  0
 13 14  1  0  0  0  0
 15  5  2  0  0  0  0
 16 17  1  0  0  0  0
 18 22  1  0  0  0  0
 19 18  1  0  0  0  0
 20 18  2  0  0  0  0
 20  7  1  0  0  0  0
 21 20  1  0  0  0  0
 22 23  1  0  0  0  0
 22 30  2  0  0  0  0
 24 27  1  0  0  0  0
 25 24  1  0  0  0  0
 26 24  1  0  0  0  0
 28 29  1  0  0  0  0
 28 16  2  0  0  0  0
 30 28  1  0  0  0  0
M  END
$$$$
