CSD_code = BERKAK | q = -1 | S = 0 | Stoichiometry = C18H15Br3O3PPd(1-) | MND = 4
 OpenBabel04212202013D

 41 43  0  0  0  0  0  0  0  0999 V2000
   -0.5647    3.6205    0.6374 Pd  0  0  0  0  0  0  0  0  0  0  0  0
   -0.0006    3.2822    2.9948 Br  0  0  0  0  0  0  0  0  0  0  0  0
   -1.4833    1.4323    0.4358 Br  0  0  0  0  0  0  0  0  0  0  0  0
   -1.0257    4.1069   -1.7302 Br  0  0  0  0  0  0  0  0  0  0  0  0
    0.2325    5.6908    0.7631 P   0  0  0  0  0  4  0  0  0  0  0  0
    0.8573    6.3279    2.1191 O   0  0  0  0  0  0  0  0  0  0  0  0
   -0.8316    6.8523    0.3700 O   0  0  0  0  0  0  0  0  0  0  0  0
    1.4126    6.0585   -0.2883 O   0  0  0  0  0  0  0  0  0  0  0  0
    1.3707    7.6028    2.1158 C   0  0  0  0  0  0  0  0  0  0  0  0
    0.5485    8.6836    2.4029 C   0  0  0  0  0  0  0  0  0  0  0  0
    1.0816    9.9593    2.4371 C   0  0  0  0  0  0  0  0  0  0  0  0
    2.4280   10.1617    2.1849 C   0  0  0  0  0  0  0  0  0  0  0  0
    3.2448    9.0804    1.9002 C   0  0  0  0  0  0  0  0  0  0  0  0
    2.7212    7.8010    1.8628 C   0  0  0  0  0  0  0  0  0  0  0  0
   -2.1532    6.4679    0.2340 C   0  0  0  0  0  0  0  0  0  0  0  0
   -2.7448    5.5936    1.1456 C   0  0  0  0  0  0  0  0  0  0  0  0
   -4.0467    5.1642    0.9310 C   0  0  0  0  0  0  0  0  0  0  0  0
   -4.7572    5.6164   -0.1680 C   0  0  0  0  0  0  0  0  0  0  0  0
   -4.1770    6.5190   -1.0428 C   0  0  0  0  0  0  0  0  0  0  0  0
   -2.8737    6.9420   -0.8507 C   0  0  0  0  0  0  0  0  0  0  0  0
    2.0139    5.0071   -0.9539 C   0  0  0  0  0  0  0  0  0  0  0  0
    2.3164    3.8146   -0.2982 C   0  0  0  0  0  0  0  0  0  0  0  0
    2.8538    2.7582   -1.0188 C   0  0  0  0  0  0  0  0  0  0  0  0
    3.1042    2.8940   -2.3735 C   0  0  0  0  0  0  0  0  0  0  0  0
    2.8387    4.0956   -3.0080 C   0  0  0  0  0  0  0  0  0  0  0  0
    2.2884    5.1521   -2.3049 C   0  0  0  0  0  0  0  0  0  0  0  0
   -0.4993    8.5119    2.5965 H   0  0  0  0  0  0  0  0  0  0  0  0
    0.4394   10.7997    2.6587 H   0  0  0  0  0  0  0  0  0  0  0  0
    2.8398   11.1604    2.2090 H   0  0  0  0  0  0  0  0  0  0  0  0
    4.2961    9.2325    1.7018 H   0  0  0  0  0  0  0  0  0  0  0  0
    3.3461    6.9490    1.6410 H   0  0  0  0  0  0  0  0  0  0  0  0
   -2.2156    5.3062    2.0546 H   0  0  0  0  0  0  0  0  0  0  0  0
   -4.4938    4.4657    1.6233 H   0  0  0  0  0  0  0  0  0  0  0  0
   -5.7616    5.2609   -0.3433 H   0  0  0  0  0  0  0  0  0  0  0  0
   -4.7284    6.8759   -1.8997 H   0  0  0  0  0  0  0  0  0  0  0  0
   -2.3881    7.6040   -1.5503 H   0  0  0  0  0  0  0  0  0  0  0  0
    2.1930    3.7327    0.7818 H   0  0  0  0  0  0  0  0  0  0  0  0
    3.0639    1.8268   -0.5133 H   0  0  0  0  0  0  0  0  0  0  0  0
    3.5025    2.0614   -2.9340 H   0  0  0  0  0  0  0  0  0  0  0  0
    3.0339    4.2066   -4.0642 H   0  0  0  0  0  0  0  0  0  0  0  0
    2.0302    6.0791   -2.7922 H   0  0  0  0  0  0  0  0  0  0  0  0
  1  5  1  0  0  0  0
  1  2  1  0  0  0  0
  3  1  1  0  0  0  0
  4  1  1  0  0  0  0
  5  6  1  0  0  0  0
  7  5  1  0  0  0  0
  8  5  1  0  0  0  0
  9  6  1  0  0  0  0
  9 10  1  0  0  0  0
 10 11  2  0  0  0  0
 10 27  1  0  0  0  0
 11 28  1  0  0  0  0
 12 29  1  0  0  0  0
 12 11  1  0  0  0  0
 13 12  2  0  0  0  0
 14 13  1  0  0  0  0
 14  9  2  0  0  0  0
 15  7  1  0  0  0  0
 15 16  1  0  0  0  0
 16 32  1  0  0  0  0
 17 16  2  0  0  0  0
 17 33  1  0  0  0  0
 18 17  1  0  0  0  0
 19 20  1  0  0  0  0
 19 18  2  0  0  0  0
 20 15  2  0  0  0  0
 21 22  1  0  0  0  0
 21  8  1  0  0  0  0
 22 37  1  0  0  0  0
 23 38  1  0  0  0  0
 23 22  2  0  0  0  0
 24 23  1  0  0  0  0
 25 24  2  0  0  0  0
 25 26  1  0  0  0  0
 26 21  2  0  0  0  0
 30 13  1  0  0  0  0
 31 14  1  0  0  0  0
 34 18  1  0  0  0  0
 35 19  1  0  0  0  0
 36 20  1  0  0  0  0
 39 24  1  0  0  0  0
 40 25  1  0  0  0  0
 41 26  1  0  0  0  0
M  END
$$$$
