CSD_code = BERLAO | q = 0 | S = 0 | Stoichiometry = C12H11CdI2N3O | MND = 5
 OpenBabel04212202013D

 30 33  0  0  1  0  0  0  0  0999 V2000
    7.8436   13.4501   10.0856 Cd  0  0  0  0  0  0  0  0  0  0  0  0
   10.3722   13.8949    9.3213 I   0  0  0  0  0  0  0  0  0  0  0  0
    5.8516   13.5902   11.8674 I   0  0  0  0  0  0  0  0  0  0  0  0
    6.6752   12.9298    7.8254 N   0  0  2  0  0  0  0  0  0  0  0  0
    7.7444   11.0944    9.5908 O   0  0  0  0  0  0  0  0  0  0  0  0
    6.7123   11.5896    7.6378 N   0  0  0  0  0  0  0  0  0  0  0  0
    6.3156   11.2163    6.7722 H   0  0  0  0  0  0  0  0  0  0  0  0
    7.0443   15.6102    8.9220 N   0  0  0  0  0  0  0  0  0  0  0  0
    5.9643   15.0554    6.8305 C   0  0  0  0  0  0  0  0  0  0  0  0
    6.4026   16.0075    7.8044 C   0  0  0  0  0  0  0  0  0  0  0  0
    6.1465   17.3889    7.5597 C   0  0  0  0  0  0  0  0  0  0  0  0
    6.1371   13.6241    6.9001 C   0  0  0  0  0  3  0  0  0  0  0  0
    5.7399   13.0931    6.0217 H   0  0  0  0  0  0  0  0  0  0  0  0
    5.4774   17.7992    6.3901 C   0  0  0  0  0  3  0  0  0  0  0  0
    5.2998   18.8533    6.2370 H   0  0  0  0  0  0  0  0  0  0  0  0
    5.3121   15.5197    5.6967 C   0  0  0  0  0  0  0  0  0  0  0  0
    4.9785   14.8078    4.9550 H   0  0  0  0  0  0  0  0  0  0  0  0
    5.0663   16.8735    5.4716 C   0  0  0  0  0  0  0  0  0  0  0  0
    4.5539   17.1784    4.5723 H   0  0  0  0  0  0  0  0  0  0  0  0
    7.2583   10.7241    8.5437 C   0  0  1  0  0  3  0  0  0  0  0  0
    6.5807   18.3302    8.5159 C   0  0  0  0  0  0  0  0  0  0  0  0
    6.3925   19.3801    8.3436 H   0  0  0  0  0  0  0  0  0  0  0  0
    7.4348   16.5158    9.7872 C   0  0  0  0  0  0  0  0  0  0  0  0
    7.9504   16.1565   10.6745 H   0  0  0  0  0  0  0  0  0  0  0  0
    7.2293   17.8941    9.6363 C   0  0  0  0  0  0  0  0  0  0  0  0
    7.5799   18.5761   10.3939 H   0  0  0  0  0  0  0  0  0  0  0  0
    7.1961    9.2830    8.1159 C   0  0  0  0  0  0  0  0  0  0  0  0
    7.6381    8.6645    8.8920 H   0  0  0  0  0  0  0  0  0  0  0  0
    7.7483    9.1406    7.1890 H   0  0  0  0  0  0  0  0  0  0  0  0
    6.1633    8.9777    7.9601 H   0  0  0  0  0  0  0  0  0  0  0  0
  1  3  1  0  0  0  0
  2  1  1  0  0  0  0
  4 12  1  6  0  0  0
  4  1  1  0  0  0  0
  5  1  1  0  0  0  0
  6  4  1  0  0  0  0
  6 20  1  0  0  0  0
  7  6  1  0  0  0  0
  8 23  1  0  0  0  0
  8  1  1  0  0  0  0
  9 12  1  0  0  0  0
  9 10  2  0  0  0  0
 10  8  1  0  0  0  0
 11 10  1  0  0  0  0
 11 21  2  0  0  0  0
 13 12  1  0  0  0  0
 14 11  1  0  0  0  0
 15 14  1  0  0  0  0
 16  9  1  0  0  0  0
 17 16  1  0  0  0  0
 18 16  2  0  0  0  0
 18 14  1  0  0  0  0
 19 18  1  0  0  0  0
 20 27  1  6  0  0  0
 20  5  1  0  0  0  0
 21 25  1  0  0  0  0
 22 21  1  0  0  0  0
 23 24  1  0  0  0  0
 25 23  2  0  0  0  0
 25 26  1  0  0  0  0
 27 28  1  0  0  0  0
 29 27  1  0  0  0  0
 30 27  1  0  0  0  0
M  END
$$$$
