CSD_code = BERTEY | q = 0 | S = 0 | Stoichiometry = C16H18I2N2OPtS | MND = 4
 OpenBabel04212202013D

 41 43  0  0  0  0  0  0  0  0999 V2000
    3.8619    3.1101    2.2044 Pt  0  0  0  0  0  0  0  0  0  0  0  0
    2.2384    1.4267    1.0180 I   0  0  0  0  0  0  0  0  0  0  0  0
    5.1246    4.8081    3.7626 I   0  0  0  0  0  0  0  0  0  0  0  0
    2.9144    4.7539    1.0164 S   0  0  0  0  0  0  0  0  0  0  0  0
    2.9281    4.5540   -0.4177 O   0  0  0  0  0  1  0  0  0  0  0  0
    4.6029    1.5790    3.2814 N   0  0  0  0  0  0  0  0  0  0  0  0
    6.0031    2.4069    1.0188 N   0  0  0  0  0  2  0  0  0  0  0  0
    3.9378    1.1780    4.3592 C   0  0  0  0  0  0  0  0  0  0  0  0
    4.3909    0.1024    5.1353 C   0  0  0  0  0  0  0  0  0  0  0  0
    3.8212   -0.1891    6.0030 H   0  0  0  0  0  0  0  0  0  0  0  0
    5.5336   -0.5609    4.7833 C   0  0  0  0  0  0  0  0  0  0  0  0
    5.8998   -1.3930    5.3651 H   0  0  0  0  0  0  0  0  0  0  0  0
    6.2395   -0.1523    3.6406 C   0  0  0  0  0  0  0  0  0  0  0  0
    5.7373    0.9423    2.8997 C   0  0  0  0  0  0  0  0  0  0  0  0
    7.4259   -0.8188    3.2296 C   0  0  0  0  0  0  0  0  0  0  0  0
    7.7698   -1.6497    3.8269 H   0  0  0  0  0  0  0  0  0  0  0  0
    8.0979   -0.4266    2.1229 C   0  0  0  0  0  0  0  0  0  0  0  0
    8.9967   -0.9339    1.8051 H   0  0  0  0  0  0  0  0  0  0  0  0
    7.6324    0.6687    1.3499 C   0  0  0  0  0  0  0  0  0  0  0  0
    6.4594    1.3627    1.7264 C   0  0  0  0  0  0  0  0  0  0  0  0
    6.6431    2.8169   -0.0546 C   0  0  0  0  0  0  0  0  0  0  0  0
    7.8110    2.1749   -0.5066 C   0  0  0  0  0  0  0  0  0  0  0  0
    8.3055    2.5338   -1.3958 H   0  0  0  0  0  0  0  0  0  0  0  0
    8.3018    1.1070    0.1937 C   0  0  0  0  0  0  0  0  0  0  0  0
    9.1980    0.5932   -0.1237 H   0  0  0  0  0  0  0  0  0  0  0  0
    2.6616    1.8516    4.7426 C   0  0  0  0  0  0  0  0  0  0  0  0
    2.6593    2.9046    4.4519 H   0  0  0  0  0  0  0  0  0  0  0  0
    2.5011    1.7795    5.8152 H   0  0  0  0  0  0  0  0  0  0  0  0
    1.8309    1.3568    4.2356 H   0  0  0  0  0  0  0  0  0  0  0  0
    6.1069    4.0097   -0.7670 C   0  0  0  0  0  0  0  0  0  0  0  0
    5.0187    3.9830   -0.7988 H   0  0  0  0  0  0  0  0  0  0  0  0
    6.4950    4.0693   -1.7799 H   0  0  0  0  0  0  0  0  0  0  0  0
    6.4044    4.9113   -0.2293 H   0  0  0  0  0  0  0  0  0  0  0  0
    3.4206    6.4921    1.2451 C   0  0  0  0  0  0  0  0  0  0  0  0
    4.4892    6.5731    1.0757 H   0  0  0  0  0  0  0  0  0  0  0  0
    3.1765    6.8261    2.2462 H   0  0  0  0  0  0  0  0  0  0  0  0
    2.8849    7.0614    0.4938 H   0  0  0  0  0  0  0  0  0  0  0  0
    1.1779    4.9708    1.5272 C   0  0  0  0  0  0  0  0  0  0  0  0
    0.6278    4.0667    1.2860 H   0  0  0  0  0  0  0  0  0  0  0  0
    0.7635    5.8095    0.9798 H   0  0  0  0  0  0  0  0  0  0  0  0
    1.1564    5.1554    2.5972 H   0  0  0  0  0  0  0  0  0  0  0  0
  1  6  1  0  0  0  0
  1  3  1  0  0  0  0
  2  1  1  0  0  0  0
  4 34  1  0  0  0  0
  4 38  1  0  0  0  0
  4  1  1  0  0  0  0
  5  4  1  0  0  0  0
  6  8  1  0  0  0  0
  7 20  1  0  0  0  0
  8 26  1  0  0  0  0
  8  9  2  0  0  0  0
  9 10  1  0  0  0  0
 11  9  1  0  0  0  0
 11 12  1  0  0  0  0
 13 11  2  0  0  0  0
 14  6  1  0  0  0  0
 14 13  1  0  0  0  0
 15 13  1  0  0  0  0
 15 16  1  0  0  0  0
 17 15  2  0  0  0  0
 18 17  1  0  0  0  0
 19 20  1  0  0  0  0
 19 17  1  0  0  0  0
 20 14  2  0  0  0  0
 21  7  1  0  0  0  0
 22 21  2  0  0  0  0
 22 24  1  0  0  0  0
 23 22  1  0  0  0  0
 24 19  2  0  0  0  0
 25 24  1  0  0  0  0
 26 28  1  0  0  0  0
 27 26  1  0  0  0  0
 29 26  1  0  0  0  0
 30 33  1  0  0  0  0
 30 21  1  0  0  0  0
 31 30  1  0  0  0  0
 32 30  1  0  0  0  0
 34 36  1  0  0  0  0
 35 34  1  0  0  0  0
 37 34  1  0  0  0  0
 38 41  1  0  0  0  0
 39 38  1  0  0  0  0
 40 38  1  0  0  0  0
M  END
$$$$
