CSD_code = BERTOI | q = 0 | S = 0 | Stoichiometry = C19H17I2N3Pt | MND = 4
 OpenBabel04212202013D

 42 45  0  0  0  0  0  0  0  0999 V2000
    4.6453    2.7353    2.2161 Pt  0  0  0  0  0  0  0  0  0  0  0  0
    5.7907    3.3996    4.5112 I   0  0  0  0  0  0  0  0  0  0  0  0
    3.4601    2.3978   -0.1345 I   0  0  0  0  0  0  0  0  0  0  0  0
    2.8298    3.0119    2.9944 N   0  0  0  0  0  0  0  0  0  0  0  0
    3.9309    0.4839    3.2678 N   0  0  0  0  0  2  0  0  0  0  0  0
    6.3932    2.5101    1.3507 N   0  0  0  0  0  0  0  0  0  0  0  0
    2.3257    4.2413    2.9834 C   0  0  0  0  0  0  0  0  0  0  0  0
    0.9879    4.4868    3.3180 C   0  0  0  0  0  0  0  0  0  0  0  0
    0.6226    5.5014    3.2996 H   0  0  0  0  0  0  0  0  0  0  0  0
    0.1610    3.4435    3.6364 C   0  0  0  0  0  0  0  0  0  0  0  0
   -0.8810    3.6051    3.8677 H   0  0  0  0  0  0  0  0  0  0  0  0
    0.6825    2.1405    3.6619 C   0  0  0  0  0  0  0  0  0  0  0  0
    2.0504    1.9650    3.3542 C   0  0  0  0  0  0  0  0  0  0  0  0
   -0.1309    1.0196    3.9831 C   0  0  0  0  0  0  0  0  0  0  0  0
   -1.1764    1.1972    4.1867 H   0  0  0  0  0  0  0  0  0  0  0  0
    0.3894   -0.2283    4.0349 C   0  0  0  0  0  0  0  0  0  0  0  0
   -0.2268   -1.0814    4.2780 H   0  0  0  0  0  0  0  0  0  0  0  0
    1.7724   -0.4414    3.7958 C   0  0  0  0  0  0  0  0  0  0  0  0
    2.6107    0.6435    3.4522 C   0  0  0  0  0  0  0  0  0  0  0  0
    4.4846   -0.6933    3.4479 C   0  0  0  0  0  0  0  0  0  0  0  0
    3.7213   -1.8355    3.7524 C   0  0  0  0  0  0  0  0  0  0  0  0
    4.2132   -2.7897    3.8630 H   0  0  0  0  0  0  0  0  0  0  0  0
    2.3682   -1.7098    3.9119 C   0  0  0  0  0  0  0  0  0  0  0  0
    1.7501   -2.5641    4.1489 H   0  0  0  0  0  0  0  0  0  0  0  0
    3.2100    5.3854    2.6066 C   0  0  0  0  0  0  0  0  0  0  0  0
    3.8970    5.1028    1.8019 H   0  0  0  0  0  0  0  0  0  0  0  0
    3.8053    5.6864    3.4709 H   0  0  0  0  0  0  0  0  0  0  0  0
    2.6179    6.2371    2.2817 H   0  0  0  0  0  0  0  0  0  0  0  0
    5.9718   -0.7885    3.3502 C   0  0  0  0  0  0  0  0  0  0  0  0
    6.4060    0.2068    3.3010 H   0  0  0  0  0  0  0  0  0  0  0  0
    6.2652   -1.3569    2.4681 H   0  0  0  0  0  0  0  0  0  0  0  0
    6.3662   -1.3015    4.2254 H   0  0  0  0  0  0  0  0  0  0  0  0
    7.2658    3.5173    1.2672 C   0  0  0  0  0  3  0  0  0  0  0  0
    6.9848    4.4533    1.7355 H   0  0  0  0  0  0  0  0  0  0  0  0
    8.4815    3.3959    0.6219 C   0  0  0  0  0  0  0  0  0  0  0  0
    9.1489    4.2416    0.5805 H   0  0  0  0  0  0  0  0  0  0  0  0
    8.8198    2.1840    0.0407 C   0  0  0  0  0  0  0  0  0  0  0  0
    9.7633    2.0568   -0.4666 H   0  0  0  0  0  0  0  0  0  0  0  0
    7.9084    1.1422    0.1215 C   0  0  0  0  0  0  0  0  0  0  0  0
    8.1167    0.1824   -0.3235 H   0  0  0  0  0  0  0  0  0  0  0  0
    6.7093    1.3476    0.7747 C   0  0  0  0  0  0  0  0  0  0  0  0
    5.9663    0.5614    0.8313 H   0  0  0  0  0  0  0  0  0  0  0  0
  1  4  1  0  0  0  0
  1  2  1  0  0  0  0
  3  1  1  0  0  0  0
  4 13  1  0  0  0  0
  5 20  1  0  0  0  0
  5 19  1  0  0  0  0
  6  1  1  0  0  0  0
  7  4  1  0  0  0  0
  7  8  2  0  0  0  0
  8 10  1  0  0  0  0
  9  8  1  0  0  0  0
 10 12  2  0  0  0  0
 10 11  1  0  0  0  0
 12 14  1  0  0  0  0
 13 19  2  0  0  0  0
 13 12  1  0  0  0  0
 14 16  2  0  0  0  0
 14 15  1  0  0  0  0
 16 17  1  0  0  0  0
 18 23  2  0  0  0  0
 18 16  1  0  0  0  0
 19 18  1  0  0  0  0
 20 21  2  0  0  0  0
 21 22  1  0  0  0  0
 21 23  1  0  0  0  0
 23 24  1  0  0  0  0
 25  7  1  0  0  0  0
 25 27  1  0  0  0  0
 26 25  1  0  0  0  0
 28 25  1  0  0  0  0
 29 20  1  0  0  0  0
 29 32  1  0  0  0  0
 30 29  1  0  0  0  0
 31 29  1  0  0  0  0
 33  6  1  0  0  0  0
 33 34  1  0  0  0  0
 35 33  1  0  0  0  0
 36 35  1  0  0  0  0
 37 39  1  0  0  0  0
 37 35  2  0  0  0  0
 38 37  1  0  0  0  0
 39 41  2  0  0  0  0
 40 39  1  0  0  0  0
 41 42  1  0  0  0  0
 41  6  1  0  0  0  0
M  END
$$$$
