CSD_code = BERTAU | q = 0 | S = 0 | Stoichiometry = C16H16I2N2Pt | MND = 6
 OpenBabel04212202013D

 37 36  0  0  0  0  0  0  0  0999 V2000
    8.7988    3.9558    8.5677 Pt  0  0  0  0  0  0  0  0  0  0  0  0
    6.6642    2.5234    7.9115 I   0  0  0  0  0 15  0  0  0  0  0  0
   11.0064    5.1548    9.4227 I   0  0  0  0  0 15  0  0  0  0  0  0
    9.9088    1.9484    8.8681 N   0  0  0  0  0  0  0  0  0  0  0  0
    8.4727    3.2420   10.7685 N   0  0  0  0  0  0  0  0  0  0  0  0
   10.5923    1.3432    7.9180 C   0  0  0  0  0  0  0  0  0  0  0  0
   11.2568    0.1269    8.1578 C   0  0  0  0  0  0  0  0  0  0  0  0
   11.8045   -0.3354    7.3514 H   0  0  0  0  0  0  0  0  0  0  0  0
   11.2010   -0.4472    9.3985 C   0  0  0  0  0  0  0  0  0  0  0  0
   11.7047   -1.3798    9.6068 H   0  0  0  0  0  0  0  0  0  0  0  0
   10.4736    0.1898   10.4191 C   0  0  0  0  0  0  0  0  0  0  0  0
    9.8346    1.4044   10.0939 C   0  0  0  0  0  0  0  0  0  0  0  0
   10.3627   -0.3363   11.7343 C   0  0  0  0  0  0  0  0  0  0  0  0
   10.8650   -1.2667   11.9541 H   0  0  0  0  0  0  0  0  0  0  0  0
    9.6464    0.3112   12.6849 C   0  0  0  0  0  0  0  0  0  0  0  0
    9.5611   -0.0876   13.6848 H   0  0  0  0  0  0  0  0  0  0  0  0
    8.9856    1.5347   12.3931 C   0  0  0  0  0  0  0  0  0  0  0  0
    9.0759    2.0889   11.0994 C   0  0  0  0  0  0  0  0  0  0  0  0
    7.7653    3.8970   11.6659 C   0  0  0  0  0  0  0  0  0  0  0  0
    7.6223    3.4135   12.9792 C   0  0  0  0  0  0  0  0  0  0  0  0
    7.0329    3.9809   13.6825 H   0  0  0  0  0  0  0  0  0  0  0  0
    8.2273    2.2415   13.3431 C   0  0  0  0  0  0  0  0  0  0  0  0
    8.1325    1.8504   14.3456 H   0  0  0  0  0  0  0  0  0  0  0  0
   10.6515    1.9692    6.5682 C   0  0  0  0  0  0  0  0  0  0  0  0
   10.1170    2.9205    6.5710 H   0  0  0  0  0  0  0  0  0  0  0  0
   10.1960    1.3101    5.8301 H   0  0  0  0  0  0  0  0  0  0  0  0
   11.6866    2.1435    6.2781 H   0  0  0  0  0  0  0  0  0  0  0  0
    7.1121    5.1739   11.2664 C   0  0  0  0  0  0  0  0  0  0  0  0
    7.3078    5.3807   10.2135 H   0  0  0  0  0  0  0  0  0  0  0  0
    7.4983    5.9965   11.8669 H   0  0  0  0  0  0  0  0  0  0  0  0
    6.0362    5.1123   11.4231 H   0  0  0  0  0  0  0  0  0  0  0  0
    8.7437    5.0731    6.7842 C   0  0  0  0  0  3  0  0  0  0  0  0
    9.7113    5.4807    6.4990 H   0  0  0  0  0  0  0  0  0  0  0  0
    8.2130    4.5741    5.9759 H   0  0  0  0  0  0  0  0  0  0  0  0
    7.9933    5.7362    7.7847 C   0  0  0  0  0  0  0  0  0  0  0  0
    6.9076    5.7295    7.7134 H   0  0  0  0  0  0  0  0  0  0  0  0
    8.4059    6.6355    8.2375 H   0  0  0  0  0  0  0  0  0  0  0  0
  4 12  1  0  0  0  0
  5 18  2  0  0  0  0
  5 19  1  0  0  0  0
  6  7  1  0  0  0  0
  6  4  2  0  0  0  0
  7  9  2  0  0  0  0
  8  7  1  0  0  0  0
  9 10  1  0  0  0  0
  9 11  1  0  0  0  0
 11 13  1  0  0  0  0
 12 11  2  0  0  0  0
 12 18  1  0  0  0  0
 13 14  1  0  0  0  0
 13 15  2  0  0  0  0
 15 16  1  0  0  0  0
 17 15  1  0  0  0  0
 17 22  2  0  0  0  0
 18 17  1  0  0  0  0
 19 20  2  0  0  0  0
 20 22  1  0  0  0  0
 20 21  1  0  0  0  0
 22 23  1  0  0  0  0
 24 25  1  0  0  0  0
 24  6  1  0  0  0  0
 26 24  1  0  0  0  0
 27 24  1  0  0  0  0
 28 31  1  0  0  0  0
 28 19  1  0  0  0  0
 28 30  1  0  0  0  0
 29 28  1  0  0  0  0
 32 35  1  0  0  0  0
 33 32  1  0  0  0  0
 34 32  1  0  0  0  0
 35 37  1  0  0  0  0
 35  1  1  0  0  0  0
 36 35  1  0  0  0  0
M  END
$$$$
