CSD_code = BERVAW | q = 0 | S = 0 | Stoichiometry = C12H30Cl2N4SiZr | MND = 6
 OpenBabel04212202013D

 50 52  0  0  1  0  0  0  0  0999 V2000
    2.5336    4.5118    1.2929 Zr  0  0  0  0  0  0  0  0  0  0  0  0
    3.0254    1.7189    1.0491 Si  0  0  0  0  0  0  0  0  0  0  0  0
    1.9461    5.7875    3.2534 Cl  0  0  0  0  0  0  0  0  0  0  0  0
    2.5947    6.2216   -0.4063 Cl  0  0  0  0  0  0  0  0  0  0  0  0
    3.2622    3.0810    0.0097 N   0  0  2  0  0  0  0  0  0  0  0  0
    2.3717    2.7247    2.2951 N   0  0  2  0  0  0  0  0  0  0  0  0
    0.2682    4.4990    0.9567 N   0  0  0  0  0  4  0  0  0  0  0  0
    4.6779    5.2124    1.6881 N   0  0  0  0  0  4  0  0  0  0  0  0
    4.3973    3.2583   -0.8449 C   0  0  0  0  0  0  0  0  0  0  0  0
    4.6125    2.3395   -1.4147 H   0  0  0  0  0  0  0  0  0  0  0  0
    4.1898    4.0566   -1.5765 H   0  0  0  0  0  0  0  0  0  0  0  0
    5.6750    3.6292   -0.0617 C   0  0  0  0  0  0  0  0  0  0  0  0
    5.8516    2.8632    0.6939 H   0  0  0  0  0  0  0  0  0  0  0  0
    6.5227    3.6233   -0.7525 H   0  0  0  0  0  0  0  0  0  0  0  0
    5.6198    5.0222    0.5657 C   0  0  0  0  0  0  0  0  0  0  0  0
    5.3348    5.7335   -0.2194 H   0  0  0  0  0  0  0  0  0  0  0  0
    6.6339    5.2862    0.9158 H   0  0  0  0  0  0  0  0  0  0  0  0
    5.0753    4.4183    2.8589 C   0  0  0  0  0  0  0  0  0  0  0  0
    6.1167    4.6375    3.1443 H   0  0  0  0  0  0  0  0  0  0  0  0
    4.9660    3.3535    2.6429 H   0  0  0  0  0  0  0  0  0  0  0  0
    4.4172    4.6622    3.7008 H   0  0  0  0  0  0  0  0  0  0  0  0
    4.7387    6.6392    2.0477 C   0  0  0  0  0  0  0  0  0  0  0  0
    4.3796    7.2477    1.2136 H   0  0  0  0  0  0  0  0  0  0  0  0
    5.7718    6.9339    2.2845 H   0  0  0  0  0  0  0  0  0  0  0  0
    4.1086    6.8403    2.9164 H   0  0  0  0  0  0  0  0  0  0  0  0
    1.2689    2.3609    3.1328 C   0  0  0  0  0  0  0  0  0  0  0  0
    1.2134    3.0493    3.9922 H   0  0  0  0  0  0  0  0  0  0  0  0
    1.3953    1.3426    3.5355 H   0  0  0  0  0  0  0  0  0  0  0  0
   -0.0805    2.3998    2.3837 C   0  0  0  0  0  0  0  0  0  0  0  0
   -0.8553    1.9901    3.0377 H   0  0  0  0  0  0  0  0  0  0  0  0
   -0.0061    1.7574    1.5058 H   0  0  0  0  0  0  0  0  0  0  0  0
   -0.5212    3.8126    2.0002 C   0  0  0  0  0  0  0  0  0  0  0  0
   -0.4749    4.4351    2.9022 H   0  0  0  0  0  0  0  0  0  0  0  0
   -1.5737    3.7701    1.6665 H   0  0  0  0  0  0  0  0  0  0  0  0
    0.1316    3.8284   -0.3437 C   0  0  0  0  0  0  0  0  0  0  0  0
    0.6044    2.8448   -0.3088 H   0  0  0  0  0  0  0  0  0  0  0  0
    0.6417    4.4217   -1.1114 H   0  0  0  0  0  0  0  0  0  0  0  0
   -0.9301    3.7244   -0.6196 H   0  0  0  0  0  0  0  0  0  0  0  0
   -0.2838    5.8595    0.8421 C   0  0  0  0  0  0  0  0  0  0  0  0
   -0.1297    6.4024    1.7782 H   0  0  0  0  0  0  0  0  0  0  0  0
   -1.3615    5.8219    0.6256 H   0  0  0  0  0  0  0  0  0  0  0  0
    0.2161    6.4073    0.0410 H   0  0  0  0  0  0  0  0  0  0  0  0
    1.9477    0.3370    0.2349 C   0  0  0  0  0  0  0  0  0  0  0  0
    1.4579   -0.2559    1.0017 H   0  0  0  0  0  0  0  0  0  0  0  0
    2.5720   -0.3375   -0.3422 H   0  0  0  0  0  0  0  0  0  0  0  0
    1.1802    0.7125   -0.4369 H   0  0  0  0  0  0  0  0  0  0  0  0
    4.5340    0.6711    1.6502 C   0  0  0  0  0  0  0  0  0  0  0  0
    4.1989   -0.2844    2.0407 H   0  0  0  0  0  0  0  0  0  0  0  0
    5.1176    1.1479    2.4335 H   0  0  0  0  0  0  0  0  0  0  0  0
    5.2001    0.4611    0.8185 H   0  0  0  0  0  0  0  0  0  0  0  0
  1  8  1  0  0  0  0
  1  6  1  0  0  0  0
  1  3  1  0  0  0  0
  2 47  1  0  0  0  0
  2  6  1  0  0  0  0
  4  1  1  0  0  0  0
  5  9  1  1  0  0  0
  5  2  1  0  0  0  0
  5  1  1  0  0  0  0
  6 26  1  6  0  0  0
  7  1  1  0  0  0  0
  7 32  1  0  0  0  0
  8 22  1  0  0  0  0
  8 18  1  0  0  0  0
  9 12  1  0  0  0  0
 10  9  1  0  0  0  0
 11  9  1  0  0  0  0
 12 15  1  0  0  0  0
 12 13  1  0  0  0  0
 14 12  1  0  0  0  0
 15 17  1  0  0  0  0
 15  8  1  0  0  0  0
 16 15  1  0  0  0  0
 18 19  1  0  0  0  0
 18 21  1  0  0  0  0
 20 18  1  0  0  0  0
 22 24  1  0  0  0  0
 22 25  1  0  0  0  0
 23 22  1  0  0  0  0
 26 28  1  0  0  0  0
 26 27  1  0  0  0  0
 29 30  1  0  0  0  0
 29 26  1  0  0  0  0
 31 29  1  0  0  0  0
 32 29  1  0  0  0  0
 32 33  1  0  0  0  0
 34 32  1  0  0  0  0
 35 36  1  0  0  0  0
 35  7  1  0  0  0  0
 37 35  1  0  0  0  0
 38 35  1  0  0  0  0
 39  7  1  0  0  0  0
 39 40  1  0  0  0  0
 41 39  1  0  0  0  0
 42 39  1  0  0  0  0
 43 44  1  0  0  0  0
 43  2  1  0  0  0  0
 45 43  1  0  0  0  0
 46 43  1  0  0  0  0
 47 48  1  0  0  0  0
 47 49  1  0  0  0  0
 50 47  1  0  0  0  0
M  END
$$$$
