CSD_code = BERZAC | q = 0 | S = 0 | Stoichiometry = C27H35Cl2N2Rh | MND = 8
 OpenBabel04212202013D

 67 67  0  0  1  0  0  0  0  0999 V2000
    1.0365    4.3155    6.0483 C   0  0  0  0  0  3  0  0  0  0  0  0
    1.9886    3.3734    5.5516 C   0  0  0  0  0  0  0  0  0  0  0  0
    1.6277    2.1789    4.8999 C   0  0  0  0  0  0  0  0  0  0  0  0
    0.5893    2.0076    4.6650 H   0  0  0  0  0  0  0  0  0  0  0  0
    2.5672    1.2638    4.5056 C   0  0  0  0  0  0  0  0  0  0  0  0
    2.2415    0.3848    3.9735 H   0  0  0  0  0  0  0  0  0  0  0  0
    3.9349    1.4542    4.7788 C   0  0  0  0  0  0  0  0  0  0  0  0
    4.3043    2.6567    5.4091 C   0  0  0  0  0  0  0  0  0  0  0  0
    5.3364    2.8449    5.6575 H   0  0  0  0  0  0  0  0  0  0  0  0
    3.3647    3.5902    5.7636 C   0  0  0  0  0  0  0  0  0  0  0  0
    3.6762    4.4834    6.2852 H   0  0  0  0  0  0  0  0  0  0  0  0
    4.4557   -0.8365    4.1215 C   0  0  0  0  0  0  0  0  0  0  0  0
    3.6338   -1.1472    4.7677 H   0  0  0  0  0  0  0  0  0  0  0  0
    5.2930   -1.5104    4.2935 H   0  0  0  0  0  0  0  0  0  0  0  0
    4.1407   -0.9357    3.0767 H   0  0  0  0  0  0  0  0  0  0  0  0
    6.2713    0.7828    4.5164 C   0  0  0  0  0  0  0  0  0  0  0  0
    6.4935    1.7767    4.1267 H   0  0  0  0  0  0  0  0  0  0  0  0
    6.8102    0.0569    3.9098 H   0  0  0  0  0  0  0  0  0  0  0  0
    6.6399    0.7176    5.5468 H   0  0  0  0  0  0  0  0  0  0  0  0
    1.3685    5.7080    5.9229 C   0  0  0  0  0  0  0  0  0  0  0  0
    2.0913    6.1539    4.7976 C   0  0  0  0  0  0  0  0  0  0  0  0
    2.3816    5.4358    4.0438 H   0  0  0  0  0  0  0  0  0  0  0  0
    2.3900    7.4792    4.6075 C   0  0  0  0  0  0  0  0  0  0  0  0
    2.9078    7.7666    3.7063 H   0  0  0  0  0  0  0  0  0  0  0  0
    2.0175    8.4544    5.5517 C   0  0  0  0  0  0  0  0  0  0  0  0
    1.3064    8.0114    6.6824 C   0  0  0  0  0  0  0  0  0  0  0  0
    1.0220    8.7113    7.4508 H   0  0  0  0  0  0  0  0  0  0  0  0
    0.9775    6.6906    6.8506 C   0  0  0  0  0  0  0  0  0  0  0  0
    0.4591    6.3808    7.7455 H   0  0  0  0  0  0  0  0  0  0  0  0
    1.7911   10.7830    6.2480 C   0  0  0  0  0  0  0  0  0  0  0  0
    0.7205   10.6331    6.3976 H   0  0  0  0  0  0  0  0  0  0  0  0
    1.9323   11.7621    5.7952 H   0  0  0  0  0  0  0  0  0  0  0  0
    2.2859   10.7780    7.2257 H   0  0  0  0  0  0  0  0  0  0  0  0
    3.2574   10.1790    4.3497 C   0  0  0  0  0  0  0  0  0  0  0  0
    4.1337    9.5275    4.3433 H   0  0  0  0  0  0  0  0  0  0  0  0
    3.5947   11.1930    4.5526 H   0  0  0  0  0  0  0  0  0  0  0  0
    2.7996   10.1605    3.3543 H   0  0  0  0  0  0  0  0  0  0  0  0
   -1.8491    4.5993    5.0052 C   0  0  0  0  0  0  0  0  0  0  0  0
   -2.1885    3.2293    5.2306 C   0  0  1  0  0  0  0  0  0  0  0  0
   -2.9162    3.1486    6.4856 C   0  0  0  0  0  0  0  0  0  0  0  0
   -2.9497    4.4289    7.0490 C   0  0  0  0  0  0  0  0  0  0  0  0
   -2.2313    5.3312    6.1678 C   0  0  0  0  0  0  0  0  0  0  0  0
   -1.3199    5.1840    3.7318 C   0  0  0  0  0  0  0  0  0  0  0  0
   -2.1570    5.4795    3.0958 H   0  0  0  0  0  0  0  0  0  0  0  0
   -0.7141    4.4632    3.1867 H   0  0  0  0  0  0  0  0  0  0  0  0
   -0.7102    6.0645    3.9249 H   0  0  0  0  0  0  0  0  0  0  0  0
   -2.1629    2.1175    4.2281 C   0  0  0  0  0  0  0  0  0  0  0  0
   -3.1673    1.9716    3.8239 H   0  0  0  0  0  0  0  0  0  0  0  0
   -1.8500    1.1857    4.6965 H   0  0  0  0  0  0  0  0  0  0  0  0
   -1.4926    2.3420    3.4010 H   0  0  0  0  0  0  0  0  0  0  0  0
   -3.5842    1.9006    6.9706 C   0  0  0  0  0  0  0  0  0  0  0  0
   -4.0584    2.0596    7.9357 H   0  0  0  0  0  0  0  0  0  0  0  0
   -2.8563    1.0964    7.0779 H   0  0  0  0  0  0  0  0  0  0  0  0
   -4.3424    1.5824    6.2525 H   0  0  0  0  0  0  0  0  0  0  0  0
   -3.6415    4.8736    8.2971 C   0  0  0  0  0  0  0  0  0  0  0  0
   -4.2304    4.0668    8.7261 H   0  0  0  0  0  0  0  0  0  0  0  0
   -4.3010    5.7133    8.0752 H   0  0  0  0  0  0  0  0  0  0  0  0
   -2.9131    5.1968    9.0421 H   0  0  0  0  0  0  0  0  0  0  0  0
   -2.2502    6.8206    6.3112 C   0  0  0  0  0  0  0  0  0  0  0  0
   -1.4717    7.2844    5.7101 H   0  0  0  0  0  0  0  0  0  0  0  0
   -2.1061    7.1088    7.3497 H   0  0  0  0  0  0  0  0  0  0  0  0
   -3.2178    7.2056    5.9795 H   0  0  0  0  0  0  0  0  0  0  0  0
    0.0105    1.6481    7.3031 Cl  0  0  0  0  0 15  0  0  0  0  0  0
   -0.2102    4.3934    8.9203 Cl  0  0  0  0  0 15  0  0  0  0  0  0
    4.8579    0.5152    4.4283 N   0  0  0  0  0  0  0  0  0  0  0  0
    2.3249    9.7700    5.3712 N   0  0  0  0  0  0  0  0  0  0  0  0
   -0.7114    3.7888    6.7544 Rh  0  0  0  0  0  0  0  0  0  0  0  0
  1 67  1  0  0  0  0
  2 10  1  0  0  0  0
  2  1  1  0  0  0  0
  3  2  2  0  0  0  0
  4  3  1  0  0  0  0
  5  7  2  0  0  0  0
  5  3  1  0  0  0  0
  6  5  1  0  0  0  0
  7  8  1  0  0  0  0
  8  9  1  0  0  0  0
  8 10  2  0  0  0  0
 10 11  1  0  0  0  0
 12 14  1  0  0  0  0
 12 65  1  0  0  0  0
 12 13  1  0  0  0  0
 15 12  1  0  0  0  0
 16 19  1  0  0  0  0
 17 16  1  0  0  0  0
 18 16  1  0  0  0  0
 20  1  1  0  0  0  0
 20 28  1  0  0  0  0
 21 20  2  0  0  0  0
 22 21  1  0  0  0  0
 23 21  1  0  0  0  0
 23 25  2  0  0  0  0
 24 23  1  0  0  0  0
 25 26  1  0  0  0  0
 26 28  2  0  0  0  0
 26 27  1  0  0  0  0
 28 29  1  0  0  0  0
 30 31  1  0  0  0  0
 30 33  1  0  0  0  0
 32 30  1  0  0  0  0
 34 36  1  0  0  0  0
 34 66  1  0  0  0  0
 35 34  1  0  0  0  0
 37 34  1  0  0  0  0
 38 39  1  0  0  0  0
 38 42  2  0  0  0  0
 39 40  1  0  0  0  0
 39 67  1  1  0  0  0
 40 51  1  0  0  0  0
 40 41  2  0  0  0  0
 41 55  1  0  0  0  0
 42 59  1  0  0  0  0
 42 41  1  0  0  0  0
 43 46  1  0  0  0  0
 43 38  1  0  0  0  0
 44 43  1  0  0  0  0
 45 43  1  0  0  0  0
 47 49  1  0  0  0  0
 47 39  1  0  0  0  0
 48 47  1  0  0  0  0
 50 47  1  0  0  0  0
 51 53  1  0  0  0  0
 51 52  1  0  0  0  0
 54 51  1  0  0  0  0
 55 56  1  0  0  0  0
 55 58  1  0  0  0  0
 57 55  1  0  0  0  0
 59 61  1  0  0  0  0
 60 59  1  0  0  0  0
 62 59  1  0  0  0  0
 65 16  1  0  0  0  0
 65  7  1  0  0  0  0
 66 25  1  0  0  0  0
 66 30  1  0  0  0  0
M  END
$$$$
