CSD_code = BERZII | q = 0 | S = 0 | Stoichiometry = C18H26ClHgNO4S | MND = 2
 OpenBabel04212202013D

 52 56  0  0  1  0  0  0  0  0999 V2000
   -0.6806   -1.1234   -0.4213 Hg  0  0  0  0  0  0  0  0  0  0  0  0
   -2.5784   -2.0530   -1.6533 Cl  0  0  0  0  0  0  0  0  0  0  0  0
    3.4221    4.2195    3.2090 S   0  0  0  0  0  0  0  0  0  0  0  0
    3.3165   -0.0500    1.3899 O   0  0  0  0  0  0  0  0  0  0  0  0
    1.4570    0.9414    3.6082 O   0  0  0  0  0  0  0  0  0  0  0  0
    4.6161    3.6432    2.6687 O   0  0  0  0  0  0  0  0  0  0  0  0
    2.6852    5.0899    2.3447 O   0  0  0  0  0  0  0  0  0  0  0  0
    2.4067    2.9736    3.7818 N   0  0  0  0  0  0  0  0  0  0  0  0
    1.0083   -0.1192    0.8470 C   0  0  1  0  0  0  0  0  0  0  0  0
    2.4135   -0.5537    0.4195 C   0  0  1  0  0  0  0  0  0  0  0  0
    2.8743    0.0933   -0.9017 C   0  0  0  0  0  0  0  0  0  0  0  0
    3.5491    1.3924   -0.4326 C   0  0  0  0  0  0  0  0  0  0  0  0
    3.4000    1.3239    1.1007 C   0  0  1  0  0  0  0  0  0  0  0  0
    2.1062    2.0386    1.5603 C   0  0  1  0  0  0  0  0  0  0  0  0
    0.8950    1.4051    0.8391 C   0  0  0  0  0  0  0  0  0  0  0  0
    1.9593    1.8938    3.0603 C   0  0  0  0  0  0  0  0  0  0  0  0
    2.4096    2.9298    5.2320 C   0  0  2  0  0  0  0  0  0  0  0  0
    1.0450    2.6576    5.8986 C   0  0  0  0  0  0  0  0  0  0  0  0
    0.8694    3.8697    6.8197 C   0  0  1  0  0  0  0  0  0  0  0  0
    1.9237    3.7558    7.9319 C   0  0  0  0  0  0  0  0  0  0  0  0
    3.2424    4.1093    7.2135 C   0  0  0  0  0  0  0  0  0  0  0  0
    2.7847    4.3330    5.7622 C   0  0  2  0  0  0  0  0  0  0  0  0
    1.4082    5.0235    5.9521 C   0  0  0  0  0  0  0  0  0  0  0  0
    3.7691    4.9758    4.8235 C   0  0  0  0  0  0  0  0  0  0  0  0
    0.6185    5.2637    4.6670 C   0  0  0  0  0  0  0  0  0  0  0  0
    1.4738    6.3694    6.6762 C   0  0  0  0  0  0  0  0  0  0  0  0
    0.8546   -0.4758    1.8705 H   0  0  0  0  0  0  0  0  0  0  0  0
    2.5132   -1.6434    0.4258 H   0  0  0  0  0  0  0  0  0  0  0  0
    3.5891   -0.5570   -1.4029 H   0  0  0  0  0  0  0  0  0  0  0  0
    2.0355    0.2655   -1.5784 H   0  0  0  0  0  0  0  0  0  0  0  0
    4.6049    1.4001   -0.6959 H   0  0  0  0  0  0  0  0  0  0  0  0
    3.0884    2.2881   -0.8410 H   0  0  0  0  0  0  0  0  0  0  0  0
    4.2613    1.7340    1.6301 H   0  0  0  0  0  0  0  0  0  0  0  0
    2.1782    3.0991    1.3127 H   0  0  0  0  0  0  0  0  0  0  0  0
    0.8678    1.7977   -0.1792 H   0  0  0  0  0  0  0  0  0  0  0  0
   -0.0230    1.7146    1.3455 H   0  0  0  0  0  0  0  0  0  0  0  0
    3.1482    2.1798    5.5408 H   0  0  0  0  0  0  0  0  0  0  0  0
    0.2502    2.5926    5.1605 H   0  0  0  0  0  0  0  0  0  0  0  0
    1.0564    1.7175    6.4460 H   0  0  0  0  0  0  0  0  0  0  0  0
   -0.1464    3.9881    7.1910 H   0  0  0  0  0  0  0  0  0  0  0  0
    1.7119    4.4436    8.7490 H   0  0  0  0  0  0  0  0  0  0  0  0
    1.9453    2.7494    8.3467 H   0  0  0  0  0  0  0  0  0  0  0  0
    3.7040    5.0081    7.6199 H   0  0  0  0  0  0  0  0  0  0  0  0
    3.9759    3.3064    7.2782 H   0  0  0  0  0  0  0  0  0  0  0  0
    4.8011    4.7247    5.0538 H   0  0  0  0  0  0  0  0  0  0  0  0
    3.6471    6.0495    4.7252 H   0  0  0  0  0  0  0  0  0  0  0  0
    1.1022    6.0260    4.0612 H   0  0  0  0  0  0  0  0  0  0  0  0
    0.5214    4.3795    4.0497 H   0  0  0  0  0  0  0  0  0  0  0  0
   -0.3805    5.6136    4.9212 H   0  0  0  0  0  0  0  0  0  0  0  0
    2.0139    6.3313    7.6145 H   0  0  0  0  0  0  0  0  0  0  0  0
    1.9489    7.1139    6.0405 H   0  0  0  0  0  0  0  0  0  0  0  0
    0.4626    6.7103    6.8869 H   0  0  0  0  0  0  0  0  0  0  0  0
  1  9  1  0  0  0  0
  2  1  1  0  0  0  0
  3  8  1  0  0  0  0
  3 24  1  0  0  0  0
  6  3  2  0  0  0  0
  7  3  2  0  0  0  0
  8 17  1  0  0  0  0
  9 27  1  1  0  0  0
 10 28  1  6  0  0  0
 10  9  1  0  0  0  0
 10  4  1  0  0  0  0
 11 12  1  0  0  0  0
 11 10  1  0  0  0  0
 12 13  1  0  0  0  0
 13  4  1  0  0  0  0
 13 14  1  0  0  0  0
 13 33  1  1  0  0  0
 14 34  1  6  0  0  0
 14 16  1  0  0  0  0
 15  9  1  0  0  0  0
 15 36  1  0  0  0  0
 15 14  1  0  0  0  0
 16  5  2  0  0  0  0
 16  8  1  0  0  0  0
 17 37  1  1  0  0  0
 17 22  1  0  0  0  0
 17 18  1  0  0  0  0
 18 39  1  0  0  0  0
 18 19  1  0  0  0  0
 19 40  1  1  0  0  0
 19 20  1  0  0  0  0
 20 42  1  0  0  0  0
 20 41  1  0  0  0  0
 21 44  1  0  0  0  0
 21 43  1  0  0  0  0
 21 20  1  0  0  0  0
 22 24  1  6  0  0  0
 22 23  1  0  0  0  0
 22 21  1  0  0  0  0
 23 26  1  0  0  0  0
 23 19  1  0  0  0  0
 24 45  1  0  0  0  0
 25 49  1  0  0  0  0
 25 23  1  0  0  0  0
 26 52  1  0  0  0  0
 26 50  1  0  0  0  0
 29 11  1  0  0  0  0
 30 11  1  0  0  0  0
 31 12  1  0  0  0  0
 32 12  1  0  0  0  0
 35 15  1  0  0  0  0
 38 18  1  0  0  0  0
 46 24  1  0  0  0  0
 47 25  1  0  0  0  0
 48 25  1  0  0  0  0
 51 26  1  0  0  0  0
M  END
$$$$
