CSD_code = BESJAM | q = 0 | S = 0 | Stoichiometry = C16H22Cl2N6O8Pt | MND = 6
 OpenBabel04212202013D

 55 57  0  0  0  0  0  0  0  0999 V2000
   12.6632    3.0668    2.7142 Pt  0  0  0  0  0  0  0  0  0  0  0  0
   13.2855    1.4692    1.2066 Cl  0  0  0  0  0  0  0  0  0  0  0  0
   10.7377    3.0151    2.0221 O   0  0  0  0  0  0  0  0  0  0  0  0
   11.0362    4.1241    0.0862 O   0  0  0  0  0  0  0  0  0  0  0  0
    9.2608    6.0733    1.4735 O   0  0  0  0  0  0  0  0  0  0  0  0
    8.9334    5.7536   -3.0496 O   0  0  0  0  0  0  0  0  0  0  0  0
   12.0615    4.6700    3.9830 N   0  0  0  0  0  4  0  0  0  0  0  0
   11.1660    4.5017    4.4359 H   0  0  0  0  0  0  0  0  0  0  0  0
   12.8277    4.6576    4.6953 H   0  0  0  0  0  0  0  0  0  0  0  0
    9.1652    2.9149    0.4918 N   0  0  0  0  0  0  0  0  0  0  0  0
    8.6825    2.3875    1.2013 H   0  0  0  0  0  0  0  0  0  0  0  0
    8.7958    5.7042   -0.7544 N   0  0  0  0  0  0  0  0  0  0  0  0
   12.0501    5.8883    3.1729 C   0  0  0  0  0  0  0  0  0  0  0  0
   12.0598    6.7803    3.8104 H   0  0  0  0  0  0  0  0  0  0  0  0
   11.1334    5.9017    2.5737 H   0  0  0  0  0  0  0  0  0  0  0  0
   10.3893    3.3869    0.8404 C   0  0  0  0  0  0  0  0  0  0  0  0
    8.4763    3.2723   -0.7215 C   0  0  0  0  0  0  0  0  0  0  0  0
    7.7213    2.5122   -0.9245 H   0  0  0  0  0  0  0  0  0  0  0  0
    9.2036    3.2830   -1.5388 H   0  0  0  0  0  0  0  0  0  0  0  0
    7.8075    4.6559   -0.6436 C   0  0  0  0  0  0  0  0  0  0  0  0
    7.1075    4.7730   -1.4740 H   0  0  0  0  0  0  0  0  0  0  0  0
    7.2896    4.7791    0.3101 H   0  0  0  0  0  0  0  0  0  0  0  0
    9.4984    6.2391    0.3014 C   0  0  0  0  0  0  0  0  0  0  0  0
   10.5474    7.1067   -0.3102 C   0  0  0  0  0  0  0  0  0  0  0  0
   11.2304    7.6848    0.2842 H   0  0  0  0  0  0  0  0  0  0  0  0
   10.4484    7.0290   -1.6325 C   0  0  0  0  0  0  0  0  0  0  0  0
   11.0357    7.5145   -2.3891 H   0  0  0  0  0  0  0  0  0  0  0  0
    9.3335    6.0974   -1.9693 C   0  0  0  0  0  0  0  0  0  0  0  0
   13.2652    4.6698    1.4454 N   0  0  0  0  0  4  0  0  0  0  0  0
   14.1607    4.5016    0.9926 H   0  0  0  0  0  0  0  0  0  0  0  0
   12.4991    4.6574    0.7330 H   0  0  0  0  0  0  0  0  0  0  0  0
   13.2765    5.8883    2.2553 C   0  0  0  0  0  0  0  0  0  0  0  0
   13.2667    6.7802    1.6177 H   0  0  0  0  0  0  0  0  0  0  0  0
   14.1931    5.9019    2.8545 H   0  0  0  0  0  0  0  0  0  0  0  0
   12.0413    1.4693    4.2220 Cl  0  0  0  0  0  0  0  0  0  0  0  0
   14.5888    3.0149    3.4063 O   0  0  0  0  0  0  0  0  0  0  0  0
   14.2904    4.1241    5.3421 O   0  0  0  0  0  0  0  0  0  0  0  0
   16.0657    6.0731    3.9547 O   0  0  0  0  0  0  0  0  0  0  0  0
   16.3934    5.7538    8.4778 O   0  0  0  0  0  0  0  0  0  0  0  0
   16.1613    2.9147    4.9366 N   0  0  0  0  0  0  0  0  0  0  0  0
   16.6439    2.3872    4.2272 H   0  0  0  0  0  0  0  0  0  0  0  0
   16.5308    5.7042    6.1827 N   0  0  0  0  0  0  0  0  0  0  0  0
   14.9372    3.3867    4.5880 C   0  0  0  0  0  0  0  0  0  0  0  0
   16.8504    3.2723    6.1499 C   0  0  0  0  0  0  0  0  0  0  0  0
   17.6054    2.5122    6.3528 H   0  0  0  0  0  0  0  0  0  0  0  0
   16.1232    3.2831    6.9672 H   0  0  0  0  0  0  0  0  0  0  0  0
   17.5191    4.6559    6.0718 C   0  0  0  0  0  0  0  0  0  0  0  0
   18.2192    4.7731    6.9020 H   0  0  0  0  0  0  0  0  0  0  0  0
   18.0369    4.7791    5.1180 H   0  0  0  0  0  0  0  0  0  0  0  0
   15.8281    6.2389    5.1268 C   0  0  0  0  0  0  0  0  0  0  0  0
   14.7790    7.1065    5.7384 C   0  0  0  0  0  0  0  0  0  0  0  0
   14.0959    7.6844    5.1440 H   0  0  0  0  0  0  0  0  0  0  0  0
   14.8781    7.0288    7.0608 C   0  0  0  0  0  0  0  0  0  0  0  0
   14.2906    7.5143    7.8173 H   0  0  0  0  0  0  0  0  0  0  0  0
   15.9930    6.0973    7.3975 C   0  0  0  0  0  0  0  0  0  0  0  0
  1 36  1  0  0  0  0
  1  7  1  0  0  0  0
  1 35  1  0  0  0  0
  2  1  1  0  0  0  0
  3  1  1  0  0  0  0
  4 16  2  0  0  0  0
  6 28  2  0  0  0  0
  7  8  1  0  0  0  0
  7  9  1  0  0  0  0
 10 16  1  0  0  0  0
 10 11  1  0  0  0  0
 12 20  1  0  0  0  0
 12 23  1  0  0  0  0
 13 14  1  0  0  0  0
 13  7  1  0  0  0  0
 15 13  1  0  0  0  0
 16  3  1  0  0  0  0
 17 20  1  0  0  0  0
 17 10  1  0  0  0  0
 18 17  1  0  0  0  0
 19 17  1  0  0  0  0
 20 22  1  0  0  0  0
 21 20  1  0  0  0  0
 23  5  2  0  0  0  0
 24 25  1  0  0  0  0
 24 23  1  0  0  0  0
 26 24  2  0  0  0  0
 27 26  1  0  0  0  0
 28 26  1  0  0  0  0
 28 12  1  0  0  0  0
 29 32  1  0  0  0  0
 29  1  1  0  0  0  0
 30 29  1  0  0  0  0
 31 29  1  0  0  0  0
 32 34  1  0  0  0  0
 32 13  1  0  0  0  0
 33 32  1  0  0  0  0
 36 43  1  0  0  0  0
 38 50  2  0  0  0  0
 40 44  1  0  0  0  0
 41 40  1  0  0  0  0
 42 55  1  0  0  0  0
 43 40  1  0  0  0  0
 43 37  2  0  0  0  0
 44 45  1  0  0  0  0
 44 46  1  0  0  0  0
 47 44  1  0  0  0  0
 47 42  1  0  0  0  0
 47 48  1  0  0  0  0
 49 47  1  0  0  0  0
 50 51  1  0  0  0  0
 50 42  1  0  0  0  0
 51 53  2  0  0  0  0
 52 51  1  0  0  0  0
 53 55  1  0  0  0  0
 53 54  1  0  0  0  0
 55 39  2  0  0  0  0
M  END
$$$$
