CSD_code = BESXOP | q = 0 | S = 0 | Stoichiometry = C38H30Br2N6O2Zn | MND = 4
 OpenBabel04212202013D

 79 84  0  0  0  0  0  0  0  0999 V2000
    4.5754   -0.0502    8.1931 Br  0  0  0  0  0  0  0  0  0  0  0  0
    0.5613   -1.5585    6.8534 Br  0  0  0  0  0  0  0  0  0  0  0  0
    2.3969   -0.1577    7.2901 Zn  0  0  0  0  0  0  0  0  0  0  0  0
   -1.3043    5.5378    9.5385 O   0  0  0  0  0  0  0  0  0  0  0  0
    2.4748    2.9001    0.8145 O   0  0  0  0  0  0  0  0  0  0  0  0
    2.6065    0.9769    5.4260 N   0  0  0  0  0  0  0  0  0  0  0  0
    1.4309    1.5438    8.3107 N   0  0  0  0  0  0  0  0  0  0  0  0
    3.4585    4.5626    2.0228 N   0  0  0  0  0  0  0  0  0  0  0  0
    3.6040    5.4018    0.9856 N   0  0  0  0  0  0  0  0  0  0  0  0
   -0.0588    5.1864   11.4161 N   0  0  0  0  0  0  0  0  0  0  0  0
   -0.5558    6.2315   12.0972 N   0  0  0  0  0  0  0  0  0  0  0  0
    3.6584    1.7675    5.2375 C   0  0  0  0  0  3  0  0  0  0  0  0
    3.8099    2.5636    4.1169 C   0  0  0  0  0  0  0  0  0  0  0  0
    1.6701    0.9301    4.4818 C   0  0  0  0  0  0  0  0  0  0  0  0
    1.7402    1.6818    3.3245 C   0  0  0  0  0  0  0  0  0  0  0  0
   -0.4739    4.9067   10.1451 C   0  0  0  0  0  0  0  0  0  0  0  0
   -0.2716    7.7195   15.3903 C   0  0  0  0  0  0  0  0  0  0  0  0
    2.8227    2.5366    3.1357 C   0  0  0  0  0  0  0  0  0  0  0  0
    4.1182    8.0540   -2.2351 C   0  0  0  0  0  0  0  0  0  0  0  0
    4.0754    6.5650    1.1864 C   0  0  0  0  0  0  0  0  0  0  0  0
    3.8836   10.4171   -4.0885 C   0  0  0  0  0  0  0  0  0  0  0  0
    4.2630    7.5002    0.1031 C   0  0  0  0  0  0  0  0  0  0  0  0
    0.2160    3.7139    9.5491 C   0  0  0  0  0  0  0  0  0  0  0  0
    4.0685   11.3219   -5.1170 C   0  0  0  0  0  0  0  0  0  0  0  0
    2.1392    2.3858    9.0565 C   0  0  0  0  0  3  0  0  0  0  0  0
    5.2126   12.1010   -5.1624 C   0  0  0  0  0  0  0  0  0  0  0  0
    2.8935    3.3279    1.8615 C   0  0  0  0  0  0  0  0  0  0  0  0
   -0.1933    6.4206   13.3008 C   0  0  0  0  0  0  0  0  0  0  0  0
    0.1277    1.7677    8.1636 C   0  0  0  0  0  0  0  0  0  0  0  0
   -0.6873    7.5379   14.0698 C   0  0  0  0  0  0  0  0  0  0  0  0
    5.9840   11.0745   -3.1362 C   0  0  0  0  0  0  0  0  0  0  0  0
   -2.1143   10.8450   16.3608 C   0  0  0  0  0  0  0  0  0  0  0  0
    4.6401    9.3255   -1.9866 C   0  0  0  0  0  0  0  0  0  0  0  0
   -1.6262    9.7052   15.5736 C   0  0  0  0  0  0  0  0  0  0  0  0
   -0.5166    2.8399    8.7514 C   0  0  0  0  0  0  0  0  0  0  0  0
   -0.7378    8.7853   16.1302 C   0  0  0  0  0  0  0  0  0  0  0  0
   -2.0397    9.5211   14.2522 C   0  0  0  0  0  0  0  0  0  0  0  0
    3.9339    7.1529   -1.2107 C   0  0  0  0  0  0  0  0  0  0  0  0
    4.8384   10.2829   -3.0825 C   0  0  0  0  0  0  0  0  0  0  0  0
    6.1703   11.9726   -4.1702 C   0  0  0  0  0  0  0  0  0  0  0  0
    1.5793    3.4759    9.6972 C   0  0  0  0  0  0  0  0  0  0  0  0
   -1.5829    8.4548   13.5109 C   0  0  0  0  0  0  0  0  0  0  0  0
    4.7815    8.7719    0.3555 C   0  0  0  0  0  0  0  0  0  0  0  0
    4.9689    9.6682   -0.6752 C   0  0  0  0  0  0  0  0  0  0  0  0
   -2.2237   12.1092   15.7848 C   0  0  0  0  0  0  0  0  0  0  0  0
   -2.6770   13.1831   16.5276 C   0  0  0  0  0  0  0  0  0  0  0  0
   -2.4750   10.6839   17.6970 C   0  0  0  0  0  0  0  0  0  0  0  0
   -3.0366   13.0108   17.8540 C   0  0  0  0  0  0  0  0  0  0  0  0
   -2.9364   11.7577   18.4351 C   0  0  0  0  0  0  0  0  0  0  0  0
    4.4132    1.7583    6.0117 H   0  0  0  0  0  0  0  0  0  0  0  0
    4.7015    3.1624    4.0119 H   0  0  0  0  0  0  0  0  0  0  0  0
    0.8404    0.2595    4.6577 H   0  0  0  0  0  0  0  0  0  0  0  0
    0.9748    1.6120    2.5683 H   0  0  0  0  0  0  0  0  0  0  0  0
    0.4231    7.0197   15.8338 H   0  0  0  0  0  0  0  0  0  0  0  0
    3.8771    7.7700   -3.2488 H   0  0  0  0  0  0  0  0  0  0  0  0
    4.3612    6.9024    2.1939 H   0  0  0  0  0  0  0  0  0  0  0  0
    2.9814    9.8244   -4.0487 H   0  0  0  0  0  0  0  0  0  0  0  0
    3.3166   11.4209   -5.8862 H   0  0  0  0  0  0  0  0  0  0  0  0
    3.1959    2.1757    9.1495 H   0  0  0  0  0  0  0  0  0  0  0  0
    5.3576   12.8053   -5.9681 H   0  0  0  0  0  0  0  0  0  0  0  0
    0.5134    5.7422   13.8010 H   0  0  0  0  0  0  0  0  0  0  0  0
   -0.4177    1.0584    7.5567 H   0  0  0  0  0  0  0  0  0  0  0  0
    6.7430   10.9658   -2.3750 H   0  0  0  0  0  0  0  0  0  0  0  0
   -1.5711    3.0048    8.5997 H   0  0  0  0  0  0  0  0  0  0  0  0
   -0.3956    8.9238   17.1453 H   0  0  0  0  0  0  0  0  0  0  0  0
   -2.7432   10.2152   13.8166 H   0  0  0  0  0  0  0  0  0  0  0  0
    3.5375    6.1676   -1.3967 H   0  0  0  0  0  0  0  0  0  0  0  0
    7.0669   12.5743   -4.2036 H   0  0  0  0  0  0  0  0  0  0  0  0
    2.2103    4.1344   10.2742 H   0  0  0  0  0  0  0  0  0  0  0  0
   -1.9037    8.3031   12.4926 H   0  0  0  0  0  0  0  0  0  0  0  0
    5.0349    9.0553    1.3677 H   0  0  0  0  0  0  0  0  0  0  0  0
    5.3551   10.6546   -0.4640 H   0  0  0  0  0  0  0  0  0  0  0  0
   -1.9286   12.2526   14.7556 H   0  0  0  0  0  0  0  0  0  0  0  0
   -2.7495   14.1593   16.0707 H   0  0  0  0  0  0  0  0  0  0  0  0
   -2.4155    9.7051   18.1506 H   0  0  0  0  0  0  0  0  0  0  0  0
   -3.3939   13.8497   18.4324 H   0  0  0  0  0  0  0  0  0  0  0  0
   -3.2201   11.6168   19.4679 H   0  0  0  0  0  0  0  0  0  0  0  0
    3.7231    4.8830    2.9589 H   0  0  0  0  0  0  0  0  0  0  0  0
    0.5968    4.5545   11.8856 H   0  0  0  0  0  0  0  0  0  0  0  0
  2  3  1  0  0  0  0
  3  1  1  0  0  0  0
  3  7  1  0  0  0  0
  4 16  2  0  0  0  0
  5 27  2  0  0  0  0
  6  3  1  0  0  0  0
  7 25  1  0  0  0  0
  8 78  1  0  0  0  0
  9 20  2  0  0  0  0
  9  8  1  0  0  0  0
 10 79  1  0  0  0  0
 10 11  1  0  0  0  0
 11 28  2  0  0  0  0
 12  6  1  0  0  0  0
 12 50  1  0  0  0  0
 13 12  1  0  0  0  0
 14 52  1  0  0  0  0
 14  6  1  0  0  0  0
 15 14  2  0  0  0  0
 16 10  1  0  0  0  0
 17 54  1  0  0  0  0
 17 36  1  0  0  0  0
 18 15  1  0  0  0  0
 18 13  2  0  0  0  0
 19 33  2  0  0  0  0
 19 38  1  0  0  0  0
 20 56  1  0  0  0  0
 21 57  1  0  0  0  0
 21 39  1  0  0  0  0
 22 43  1  0  0  0  0
 22 20  1  0  0  0  0
 23 41  2  0  0  0  0
 23 16  1  0  0  0  0
 24 21  2  0  0  0  0
 25 59  1  0  0  0  0
 25 41  1  0  0  0  0
 26 24  1  0  0  0  0
 26 40  2  0  0  0  0
 27  8  1  0  0  0  0
 27 18  1  0  0  0  0
 28 61  1  0  0  0  0
 28 30  1  0  0  0  0
 29  7  1  0  0  0  0
 29 35  2  0  0  0  0
 30 17  2  0  0  0  0
 31 39  2  0  0  0  0
 31 63  1  0  0  0  0
 32 47  1  0  0  0  0
 33 44  1  0  0  0  0
 34 36  2  0  0  0  0
 34 32  1  0  0  0  0
 35 23  1  0  0  0  0
 36 65  1  0  0  0  0
 37 34  1  0  0  0  0
 38 22  2  0  0  0  0
 39 33  1  0  0  0  0
 40 31  1  0  0  0  0
 41 69  1  0  0  0  0
 42 30  1  0  0  0  0
 42 37  2  0  0  0  0
 43 71  1  0  0  0  0
 44 72  1  0  0  0  0
 44 43  2  0  0  0  0
 45 32  2  0  0  0  0
 45 46  1  0  0  0  0
 46 48  2  0  0  0  0
 47 75  1  0  0  0  0
 47 49  2  0  0  0  0
 48 76  1  0  0  0  0
 48 49  1  0  0  0  0
 49 77  1  0  0  0  0
 51 13  1  0  0  0  0
 53 15  1  0  0  0  0
 55 19  1  0  0  0  0
 58 24  1  0  0  0  0
 60 26  1  0  0  0  0
 62 29  1  0  0  0  0
 64 35  1  0  0  0  0
 66 37  1  0  0  0  0
 67 38  1  0  0  0  0
 68 40  1  0  0  0  0
 70 42  1  0  0  0  0
 73 45  1  0  0  0  0
 74 46  1  0  0  0  0
M  END
$$$$
