CSD_code = BESYOQ | q = 0 | S = 0 | Stoichiometry = C8H7AuClN | MND = 2
 OpenBabel04212202013D

 18 18  0  0  0  0  0  0  0  0999 V2000
    4.7323    2.6682    1.1990 C   0  0  0  0  0  0  0  0  0  0  0  0
    4.7874    1.0889    3.2056 C   0  0  0  0  0  0  0  0  0  0  0  0
    5.7496    0.5660    3.2160 H   0  0  0  0  0  0  0  0  0  0  0  0
    3.9805    0.3558    3.1102 H   0  0  0  0  0  0  0  0  0  0  0  0
    4.6143    1.9251    4.4540 C   0  0  0  0  0  0  0  0  0  0  0  0
    3.3807    1.9998    5.0841 C   0  0  0  0  0  0  0  0  0  0  0  0
    2.5406    1.4436    4.6940 H   0  0  0  0  0  0  0  0  0  0  0  0
    3.2260    2.7827    6.2151 C   0  0  0  0  0  0  0  0  0  0  0  0
    2.2650    2.8331    6.7040 H   0  0  0  0  0  0  0  0  0  0  0  0
    4.2992    3.4999    6.7153 C   0  0  0  0  0  0  0  0  0  0  0  0
    4.1769    4.1109    7.5966 H   0  0  0  0  0  0  0  0  0  0  0  0
    5.5296    3.4341    6.0830 C   0  0  0  0  0  0  0  0  0  0  0  0
    6.3683    3.9935    6.4686 H   0  0  0  0  0  0  0  0  0  0  0  0
    5.6878    2.6502    4.9542 C   0  0  0  0  0  0  0  0  0  0  0  0
    6.6471    2.6010    4.4595 H   0  0  0  0  0  0  0  0  0  0  0  0
    4.7162    3.8616   -0.2399 Au  0  0  0  0  0  0  0  0  0  0  0  0
    4.7082    5.2846   -1.9252 Cl  0  0  0  0  0  0  0  0  0  0  0  0
    4.7603    1.9125    2.0767 N   0  0  0  0  0  2  0  0  0  0  0  0
  1 18  1  0  0  0  0
  2  3  1  0  0  0  0
  2  5  1  0  0  0  0
  4  2  1  0  0  0  0
  5 14  2  0  0  0  0
  5  6  1  0  0  0  0
  6  8  2  0  0  0  0
  7  6  1  0  0  0  0
  8  9  1  0  0  0  0
  8 10  1  0  0  0  0
 10 11  1  0  0  0  0
 12 13  1  0  0  0  0
 12 10  2  0  0  0  0
 14 12  1  0  0  0  0
 15 14  1  0  0  0  0
 16  1  3  0  0  0  0
 17 16  1  0  0  0  0
 18  2  1  0  0  0  0
M  END
$$$$
