CSD_code = BETRIC | q = 0 | S = 0 | Stoichiometry = C31H27Cl2FeN3 | MND = 5
 OpenBabel04212202013D

 64 70  0  0  1  0  0  0  0  0999 V2000
   -0.7880    2.2936    3.0186 Fe  0  0  0  0  0  0  0  0  0  0  0  0
   -1.8526    2.4974    1.1759 Cl  0  0  0  0  0  0  0  0  0  0  0  0
    0.8169    2.0470    1.9425 N   0  0  0  0  0  0  0  0  0  0  0  0
   -0.7880    0.5139    3.0186 N   0  0  0  0  0  0  0  0  0  0  0  0
    1.5022    2.9838    1.2813 C   0  0  2  0  0  3  0  0  0  0  0  0
    2.5364    2.6569    0.4103 C   0  0  0  0  0  0  0  0  0  0  0  0
    2.8861    1.3277    0.2274 C   0  0  0  0  0  0  0  0  0  0  0  0
    2.1629    0.3562    0.8901 C   0  0  0  0  0  0  0  0  0  0  0  0
    1.1189    0.7425    1.7272 C   0  0  0  0  0  0  0  0  0  0  0  0
    0.2003   -0.1633    2.3857 C   0  0  2  0  0  3  0  0  0  0  0  0
    0.2242   -1.5520    2.3772 C   0  0  0  0  0  0  0  0  0  0  0  0
   -0.7880   -2.2508    3.0185 C   0  0  0  0  0  0  0  0  0  0  0  0
    1.1568    4.4010    1.4908 C   0  0  0  0  0  0  0  0  0  0  0  0
    1.1469    4.9397    2.7715 C   0  0  0  0  0  0  0  0  0  0  0  0
    0.9471    6.3020    2.9617 C   0  0  0  0  0  0  0  0  0  0  0  0
    0.7324    7.1093    1.8565 C   0  0  0  0  0  0  0  0  0  0  0  0
    0.7112    6.5844    0.5679 C   0  0  0  0  0  0  0  0  0  0  0  0
    0.9355    5.2292    0.3924 C   0  0  0  0  0  0  0  0  0  0  0  0
    1.0303    6.8721    4.3434 C   0  0  0  0  0  0  0  0  0  0  0  0
    0.4613    7.4832   -0.6057 C   0  0  0  0  0  0  0  0  0  0  0  0
    3.0639    3.4476   -0.0993 H   0  0  0  0  0  0  0  0  0  0  0  0
    3.6988    1.0582   -0.4298 H   0  0  0  0  0  0  0  0  0  0  0  0
    2.3853   -0.6896    0.7557 H   0  0  0  0  0  0  0  0  0  0  0  0
    1.0198   -2.0785    1.8758 H   0  0  0  0  0  0  0  0  0  0  0  0
   -0.7880   -3.3293    3.0185 H   0  0  0  0  0  0  0  0  0  0  0  0
    1.3624    4.3110    3.6215 H   0  0  0  0  0  0  0  0  0  0  0  0
    0.5875    8.1723    1.9935 H   0  0  0  0  0  0  0  0  0  0  0  0
    0.9243    4.8033   -0.6004 H   0  0  0  0  0  0  0  0  0  0  0  0
    2.0759    7.0097    4.6215 H   0  0  0  0  0  0  0  0  0  0  0  0
    0.5807    6.1890    5.0597 H   0  0  0  0  0  0  0  0  0  0  0  0
    0.5323    7.8365    4.4002 H   0  0  0  0  0  0  0  0  0  0  0  0
   -0.5651    7.8487   -0.5890 H   0  0  0  0  0  0  0  0  0  0  0  0
    1.1233    8.3474   -0.5731 H   0  0  0  0  0  0  0  0  0  0  0  0
    0.6202    6.9545   -1.5419 H   0  0  0  0  0  0  0  0  0  0  0  0
    0.2766    2.4972    4.8613 Cl  0  0  0  0  0  0  0  0  0  0  0  0
   -2.3928    2.0469    4.0947 N   0  0  0  0  0  0  0  0  0  0  0  0
   -3.0782    2.9837    4.7559 C   0  0  2  0  0  3  0  0  0  0  0  0
   -4.1124    2.6568    5.6269 C   0  0  0  0  0  0  0  0  0  0  0  0
   -4.4621    1.3276    5.8098 C   0  0  0  0  0  0  0  0  0  0  0  0
   -3.7388    0.3561    5.1472 C   0  0  0  0  0  0  0  0  0  0  0  0
   -2.6949    0.7424    4.3101 C   0  0  0  0  0  0  0  0  0  0  0  0
   -1.7763   -0.1633    3.6515 C   0  0  0  0  0  0  0  0  0  0  0  0
   -1.8001   -1.5521    3.6599 C   0  0  0  0  0  0  0  0  0  0  0  0
   -2.5957   -2.0785    4.1613 H   0  0  0  0  0  0  0  0  0  0  0  0
   -3.9613   -0.6896    5.2815 H   0  0  0  0  0  0  0  0  0  0  0  0
   -5.2747    1.0581    6.4669 H   0  0  0  0  0  0  0  0  0  0  0  0
   -4.6399    3.4475    6.1364 H   0  0  0  0  0  0  0  0  0  0  0  0
   -2.7327    4.4010    4.5465 C   0  0  0  0  0  0  0  0  0  0  0  0
   -2.7229    4.9397    3.2657 C   0  0  0  0  0  0  0  0  0  0  0  0
   -2.5231    6.3020    3.0755 C   0  0  0  0  0  0  0  0  0  0  0  0
   -2.3083    7.1093    4.1807 C   0  0  0  0  0  0  0  0  0  0  0  0
   -2.2871    6.5844    5.4693 C   0  0  0  0  0  0  0  0  0  0  0  0
   -2.5114    5.2292    5.6448 C   0  0  0  0  0  0  0  0  0  0  0  0
   -2.5002    4.8032    6.6376 H   0  0  0  0  0  0  0  0  0  0  0  0
   -2.0373    7.4832    6.6428 C   0  0  0  0  0  0  0  0  0  0  0  0
   -1.0109    7.8488    6.6261 H   0  0  0  0  0  0  0  0  0  0  0  0
   -2.6994    8.3473    6.6103 H   0  0  0  0  0  0  0  0  0  0  0  0
   -2.1961    6.9545    7.5791 H   0  0  0  0  0  0  0  0  0  0  0  0
   -2.1634    8.1722    4.0437 H   0  0  0  0  0  0  0  0  0  0  0  0
   -2.6061    6.8720    1.6938 C   0  0  0  0  0  0  0  0  0  0  0  0
   -3.6517    7.0100    1.4157 H   0  0  0  0  0  0  0  0  0  0  0  0
   -2.1568    6.1887    0.9775 H   0  0  0  0  0  0  0  0  0  0  0  0
   -2.1078    7.8362    1.6369 H   0  0  0  0  0  0  0  0  0  0  0  0
   -2.9384    4.3110    2.4158 H   0  0  0  0  0  0  0  0  0  0  0  0
  1 36  1  0  0  0  0
  1 35  1  0  0  0  0
  2  1  1  0  0  0  0
  3  1  1  0  0  0  0
  4  1  1  0  0  0  0
  4 42  1  0  0  0  0
  5 13  1  1  0  0  0
  5  3  1  0  0  0  0
  6  5  1  0  0  0  0
  7  6  2  0  0  0  0
  7  8  1  0  0  0  0
  8  9  2  0  0  0  0
  9  3  1  0  0  0  0
 10  9  1  6  0  0  0
 10  4  1  0  0  0  0
 11 10  1  0  0  0  0
 11 12  2  0  0  0  0
 12 43  1  0  0  0  0
 13 14  1  0  0  0  0
 14 15  2  0  0  0  0
 14 26  1  0  0  0  0
 15 19  1  0  0  0  0
 16 27  1  0  0  0  0
 16 15  1  0  0  0  0
 17 16  2  0  0  0  0
 18 17  1  0  0  0  0
 18 13  2  0  0  0  0
 19 31  1  0  0  0  0
 19 29  1  0  0  0  0
 19 30  1  0  0  0  0
 20 32  1  0  0  0  0
 20 33  1  0  0  0  0
 20 17  1  0  0  0  0
 21  6  1  0  0  0  0
 22  7  1  0  0  0  0
 23  8  1  0  0  0  0
 24 11  1  0  0  0  0
 25 12  1  0  0  0  0
 28 18  1  0  0  0  0
 34 20  1  0  0  0  0
 36 41  1  0  0  0  0
 36 37  1  0  0  0  0
 37 48  1  6  0  0  0
 37 38  1  0  0  0  0
 38 39  2  0  0  0  0
 38 47  1  0  0  0  0
 39 46  1  0  0  0  0
 40 45  1  0  0  0  0
 40 39  1  0  0  0  0
 41 40  2  0  0  0  0
 42 43  2  0  0  0  0
 42 41  1  0  0  0  0
 43 44  1  0  0  0  0
 48 53  1  0  0  0  0
 49 48  2  0  0  0  0
 50 49  1  0  0  0  0
 50 51  2  0  0  0  0
 51 52  1  0  0  0  0
 52 53  2  0  0  0  0
 52 55  1  0  0  0  0
 53 54  1  0  0  0  0
 55 58  1  0  0  0  0
 56 55  1  0  0  0  0
 57 55  1  0  0  0  0
 59 51  1  0  0  0  0
 60 50  1  0  0  0  0
 61 60  1  0  0  0  0
 62 60  1  0  0  0  0
 63 60  1  0  0  0  0
 64 49  1  0  0  0  0
M  END
$$$$
