CSD_code = BEVBUB | q = 0 | S = 0 | Stoichiometry = C16H9Cl2N4O3Re | MND = 6
 OpenBabel04212202013D

 35 38  0  0  0  0  0  0  0  0999 V2000
    2.5613    4.0198    1.7864 Re  0  0  0  0  0  0  0  0  0  0  0  0
    2.4399    3.0789    3.7766 N   0  0  0  0  0  0  0  0  0  0  0  0
    4.0133    5.0078    2.8988 N   0  0  0  0  0  0  0  0  0  0  0  0
    4.8769    5.8973    2.5979 N   0  0  0  0  0  2  0  0  0  0  0  0
    5.7980    5.9317    3.5575 N   0  0  0  0  0  0  0  0  0  0  0  0
    3.4837    5.2778   -0.8785 O   0  0  0  0  0  1  0  0  0  0  0  0
    0.8109    1.8828    0.4068 O   0  0  0  0  0  1  0  0  0  0  0  0
    0.2910    6.0313    2.3828 O   0  0  0  0  0  1  0  0  0  0  0  0
    4.3590    2.4540    1.6193 Cl  0  0  0  0  0  0  0  0  0  0  0  0
   10.3133    9.6741    3.0664 Cl  0  0  0  0  0  0  0  0  0  0  0  0
    3.0729    4.8345    0.0904 C   0  0  0  0  0  2  0  0  0  0  0  0
    1.4080    2.7283    0.8934 C   0  0  0  0  0  2  0  0  0  0  0  0
    1.1308    5.2860    2.1375 C   0  0  0  0  0  2  0  0  0  0  0  0
    1.6049    2.1171    4.1500 C   0  0  0  0  0  3  0  0  0  0  0  0
    0.7793    1.9117    3.4814 H   0  0  0  0  0  0  0  0  0  0  0  0
    1.7609    1.3985    5.3231 C   0  0  0  0  0  0  0  0  0  0  0  0
    1.0590    0.6197    5.5734 H   0  0  0  0  0  0  0  0  0  0  0  0
    2.8321    1.6925    6.1543 C   0  0  0  0  0  0  0  0  0  0  0  0
    2.9868    1.1465    7.0724 H   0  0  0  0  0  0  0  0  0  0  0  0
    3.7015    2.7000    5.7808 C   0  0  0  0  0  0  0  0  0  0  0  0
    4.5495    2.9649    6.3923 H   0  0  0  0  0  0  0  0  0  0  0  0
    3.4774    3.3693    4.5819 C   0  0  0  0  0  0  0  0  0  0  0  0
    4.3365    4.4237    4.0865 C   0  0  0  0  0  0  0  0  0  0  0  0
    5.4994    5.0238    4.5186 C   0  0  0  0  0  0  0  0  0  0  0  0
    6.0993    4.8537    5.3855 H   0  0  0  0  0  0  0  0  0  0  0  0
    6.8823    6.8137    3.4683 C   0  0  0  0  0  0  0  0  0  0  0  0
    7.8285    6.9090    4.4833 C   0  0  0  0  0  0  0  0  0  0  0  0
    7.7548    6.3062    5.3742 H   0  0  0  0  0  0  0  0  0  0  0  0
    8.8849    7.7904    4.3562 C   0  0  0  0  0  0  0  0  0  0  0  0
    9.6229    7.8684    5.1384 H   0  0  0  0  0  0  0  0  0  0  0  0
    8.9950    8.5763    3.2178 C   0  0  0  0  0  0  0  0  0  0  0  0
    8.0523    8.4849    2.2020 C   0  0  0  0  0  0  0  0  0  0  0  0
    8.1467    9.0984    1.3206 H   0  0  0  0  0  0  0  0  0  0  0  0
    6.9976    7.6045    2.3269 C   0  0  0  0  0  0  0  0  0  0  0  0
    6.2551    7.5133    1.5505 H   0  0  0  0  0  0  0  0  0  0  0  0
  1 13  1  0  0  0  0
  1  3  1  0  0  0  0
  1  2  1  0  0  0  0
  2 14  1  0  0  0  0
  2 22  1  0  0  0  0
  3 23  1  0  0  0  0
  4  3  1  0  0  0  0
  4  5  1  0  0  0  0
  5 24  1  0  0  0  0
  6 11  1  0  0  0  0
  7 12  1  0  0  0  0
  9  1  1  0  0  0  0
 10 31  1  0  0  0  0
 11  1  1  0  0  0  0
 12  1  1  0  0  0  0
 13  8  1  0  0  0  0
 14 16  1  0  0  0  0
 15 14  1  0  0  0  0
 16 17  1  0  0  0  0
 16 18  2  0  0  0  0
 18 19  1  0  0  0  0
 20 18  1  0  0  0  0
 20 21  1  0  0  0  0
 22 20  2  0  0  0  0
 23 24  2  0  0  0  0
 23 22  1  0  0  0  0
 24 25  1  0  0  0  0
 26  5  1  0  0  0  0
 26 27  1  0  0  0  0
 27 28  1  0  0  0  0
 29 27  2  0  0  0  0
 29 30  1  0  0  0  0
 31 29  1  0  0  0  0
 32 34  1  0  0  0  0
 32 31  2  0  0  0  0
 33 32  1  0  0  0  0
 34 26  2  0  0  0  0
 35 34  1  0  0  0  0
M  END
$$$$
