CSD_code = BEVCUC | q = 0 | S = 0 | Stoichiometry = C14H12Cl2HgN2O2 | MND = 4
 OpenBabel04212202013D

 33 33  0  0  0  0  0  0  0  0999 V2000
    0.4313    7.0671    1.5877 Hg  0  0  0  0  0  0  0  0  0  0  0  0
    0.1018    4.8500    2.0130 Cl  0  0  0  0  0  0  0  0  0  0  0  0
    1.4100    8.8518    0.5416 Cl  0  0  0  0  0  0  0  0  0  0  0  0
    3.7967    7.5465    8.9956 O   0  0  0  0  0  0  0  0  0  0  0  0
    5.2423    8.0059    7.3442 O   0  0  0  0  0  0  0  0  0  0  0  0
   -1.9419    7.8933    1.8861 N   0  0  0  0  0  0  0  0  0  0  0  0
   -0.0449    7.9835    3.9075 N   0  0  0  0  0  0  0  0  0  0  0  0
   -2.2638    8.3542    3.1010 C   0  0  0  0  0  0  0  0  0  0  0  0
   -3.5505    8.8069    3.3973 C   0  0  0  0  0  0  0  0  0  0  0  0
   -3.7787    9.1739    4.3864 H   0  0  0  0  0  0  0  0  0  0  0  0
   -4.5203    8.7757    2.4098 C   0  0  0  0  0  0  0  0  0  0  0  0
   -5.5233    9.1190    2.6142 H   0  0  0  0  0  0  0  0  0  0  0  0
   -4.1748    8.2964    1.1570 C   0  0  0  0  0  0  0  0  0  0  0  0
   -4.8956    8.2531    0.3564 H   0  0  0  0  0  0  0  0  0  0  0  0
   -2.8699    7.8675    0.9464 C   0  0  0  0  0  0  0  0  0  0  0  0
   -2.5606    7.4869   -0.0182 H   0  0  0  0  0  0  0  0  0  0  0  0
   -1.2340    8.3776    4.1300 C   0  0  0  0  0  0  0  0  0  0  0  0
   -1.5409    8.7748    5.1018 H   0  0  0  0  0  0  0  0  0  0  0  0
    0.9254    7.9557    4.8974 C   0  0  0  0  0  0  0  0  0  0  0  0
    0.6380    7.6105    6.2221 C   0  0  0  0  0  0  0  0  0  0  0  0
   -0.3687    7.3356    6.5000 H   0  0  0  0  0  0  0  0  0  0  0  0
    1.6528    7.5598    7.1534 C   0  0  0  0  0  0  0  0  0  0  0  0
    1.4539    7.2842    8.1781 H   0  0  0  0  0  0  0  0  0  0  0  0
    2.9639    7.8575    6.7870 C   0  0  0  0  0  0  0  0  0  0  0  0
    3.2536    8.1963    5.4658 C   0  0  0  0  0  0  0  0  0  0  0  0
    4.2704    8.4184    5.1837 H   0  0  0  0  0  0  0  0  0  0  0  0
    2.2451    8.2349    4.5277 C   0  0  0  0  0  0  0  0  0  0  0  0
    2.4533    8.5038    3.4996 H   0  0  0  0  0  0  0  0  0  0  0  0
    4.0164    7.7828    7.8330 C   0  0  0  0  0  0  0  0  0  0  0  0
    6.3067    7.9387    8.2818 C   0  0  0  0  0  0  0  0  0  0  0  0
    7.2256    8.0013    7.7045 H   0  0  0  0  0  0  0  0  0  0  0  0
    6.2627    7.0001    8.8381 H   0  0  0  0  0  0  0  0  0  0  0  0
    6.2413    8.7686    8.9889 H   0  0  0  0  0  0  0  0  0  0  0  0
  1  2  1  0  0  0  0
  3  1  1  0  0  0  0
  5 29  1  0  0  0  0
  5 30  1  0  0  0  0
  6  8  1  0  0  0  0
  7 17  2  0  0  0  0
  7 19  1  0  0  0  0
  8  9  2  0  0  0  0
  8 17  1  0  0  0  0
  9 10  1  0  0  0  0
 11 12  1  0  0  0  0
 11  9  1  0  0  0  0
 13 11  2  0  0  0  0
 14 13  1  0  0  0  0
 15 13  1  0  0  0  0
 15  6  2  0  0  0  0
 16 15  1  0  0  0  0
 17 18  1  0  0  0  0
 19 20  1  0  0  0  0
 20 21  1  0  0  0  0
 20 22  2  0  0  0  0
 22 23  1  0  0  0  0
 24 22  1  0  0  0  0
 24 29  1  0  0  0  0
 25 24  2  0  0  0  0
 26 25  1  0  0  0  0
 27 19  2  0  0  0  0
 27 25  1  0  0  0  0
 28 27  1  0  0  0  0
 29  4  2  0  0  0  0
 30 32  1  0  0  0  0
 30 33  1  0  0  0  0
 31 30  1  0  0  0  0
M  END
$$$$
