CSD_code = BEVDUD | q = 0 | S = 0 | Stoichiometry = C14H12HgI2N2O2 | MND = 4
 OpenBabel04212202013D

 33 33  0  0  0  0  0  0  0  0999 V2000
    0.9298   -0.4786    2.1191 C   0  0  0  0  0  0  0  0  0  0  0  0
    0.7972   -1.7456    2.6876 C   0  0  0  0  0  0  0  0  0  0  0  0
    1.2622   -2.5977    2.2162 H   0  0  0  0  0  0  0  0  0  0  0  0
    0.0676   -1.8865    3.8554 C   0  0  0  0  0  0  0  0  0  0  0  0
   -0.0506   -2.8560    4.3152 H   0  0  0  0  0  0  0  0  0  0  0  0
   -0.5049   -0.7584    4.4195 C   0  0  0  0  0  0  0  0  0  0  0  0
   -1.0803   -0.8162    5.3292 H   0  0  0  0  0  0  0  0  0  0  0  0
   -0.3257    0.4635    3.7849 C   0  0  0  0  0  0  0  0  0  0  0  0
   -0.7588    1.3663    4.1958 H   0  0  0  0  0  0  0  0  0  0  0  0
    1.7022   -0.3102    0.8980 C   0  0  0  0  0  0  0  0  0  0  0  0
    2.1031   -1.2251    0.4540 H   0  0  0  0  0  0  0  0  0  0  0  0
    2.6208    0.9836   -0.8016 C   0  0  0  0  0  0  0  0  0  0  0  0
    2.3910    0.1458   -1.8962 C   0  0  0  0  0  0  0  0  0  0  0  0
    1.6490   -0.6360   -1.8253 H   0  0  0  0  0  0  0  0  0  0  0  0
    3.0649    0.3645   -3.0782 C   0  0  0  0  0  0  0  0  0  0  0  0
    2.8932   -0.2638   -3.9391 H   0  0  0  0  0  0  0  0  0  0  0  0
    3.9821    1.4078   -3.1858 C   0  0  0  0  0  0  0  0  0  0  0  0
    4.2078    2.2467   -2.0958 C   0  0  0  0  0  0  0  0  0  0  0  0
    4.9134    3.0575   -2.1829 H   0  0  0  0  0  0  0  0  0  0  0  0
    3.5250    2.0430   -0.9163 C   0  0  0  0  0  0  0  0  0  0  0  0
    3.7044    2.6800   -0.0616 H   0  0  0  0  0  0  0  0  0  0  0  0
    4.6877    1.5890   -4.4804 C   0  0  0  0  0  0  0  0  0  0  0  0
    6.1964    2.9026   -5.6901 C   0  0  0  0  0  0  0  0  0  0  0  0
    6.7854    3.8005   -5.5231 H   0  0  0  0  0  0  0  0  0  0  0  0
    5.4975    3.0489   -6.5163 H   0  0  0  0  0  0  0  0  0  0  0  0
    6.8438    2.0552   -5.9253 H   0  0  0  0  0  0  0  0  0  0  0  0
    0.5848    2.7893    1.3477 Hg  0  0  0  0  0  0  0  0  0  0  0  0
   -1.4700    2.4624   -0.2312 I   0  0  0  0  0  0  0  0  0  0  0  0
    2.3237    4.0167    2.8543 I   0  0  0  0  0  0  0  0  0  0  0  0
    0.3665    0.6053    2.6686 N   0  0  0  0  0  0  0  0  0  0  0  0
    1.9275    0.8360    0.3932 N   0  0  0  0  0  0  0  0  0  0  0  0
    4.5604    0.8524   -5.4272 O   0  0  0  0  0  0  0  0  0  0  0  0
    5.4886    2.6617   -4.4828 O   0  0  0  0  0  0  0  0  0  0  0  0
  1 30  2  0  0  0  0
  1  2  1  0  0  0  0
  2  4  2  0  0  0  0
  3  2  1  0  0  0  0
  4  5  1  0  0  0  0
  4  6  1  0  0  0  0
  6  7  1  0  0  0  0
  8  9  1  0  0  0  0
  8  6  2  0  0  0  0
 10  1  1  0  0  0  0
 11 10  1  0  0  0  0
 12 31  1  0  0  0  0
 13 14  1  0  0  0  0
 13 12  2  0  0  0  0
 15 13  1  0  0  0  0
 16 15  1  0  0  0  0
 17 15  2  0  0  0  0
 17 18  1  0  0  0  0
 18 20  2  0  0  0  0
 19 18  1  0  0  0  0
 20 12  1  0  0  0  0
 20 21  1  0  0  0  0
 22 17  1  0  0  0  0
 23 24  1  0  0  0  0
 23 33  1  0  0  0  0
 25 23  1  0  0  0  0
 26 23  1  0  0  0  0
 27 29  1  0  0  0  0
 28 27  1  0  0  0  0
 30  8  1  0  0  0  0
 31 10  2  0  0  0  0
 32 22  2  0  0  0  0
 33 22  1  0  0  0  0
M  END
$$$$
