CSD_code = BEVDIR | q = 0 | S = 0 | Stoichiometry = C14H14Cl2HgN2O | MND = 4
 OpenBabel04212202013D

 34 35  0  0  1  0  0  0  0  0999 V2000
    0.7820    1.2331    1.4687 Hg  0  0  0  0  0  0  0  0  0  0  0  0
   -1.0090    1.6426    0.1040 Cl  0  0  0  0  0  0  0  0  0  0  0  0
    1.7499   -0.1169    3.0319 Cl  0  0  0  0  0  0  0  0  0  0  0  0
   -1.1874    6.4480    5.8079 O   0  0  0  0  0  0  0  0  0  0  0  0
    2.5770    1.9429   -0.0553 N   0  0  0  0  0  0  0  0  0  0  0  0
    1.4255    3.6705    1.8050 N   0  0  0  0  0  0  0  0  0  0  0  0
    2.8016    3.2623   -0.1107 C   0  0  2  0  0  3  0  0  0  0  0  0
    3.6292    3.8188   -1.0905 C   0  0  0  0  0  0  0  0  0  0  0  0
    3.7898    4.8859   -1.1153 H   0  0  0  0  0  0  0  0  0  0  0  0
    4.2307    2.9903   -2.0196 C   0  0  0  0  0  0  0  0  0  0  0  0
    4.8704    3.3992   -2.7874 H   0  0  0  0  0  0  0  0  0  0  0  0
    3.9963    1.6261   -1.9435 C   0  0  0  0  0  0  0  0  0  0  0  0
    4.4467    0.9411   -2.6436 H   0  0  0  0  0  0  0  0  0  0  0  0
    3.1592    1.1537   -0.9423 C   0  0  0  0  0  0  0  0  0  0  0  0
    2.9504    0.0957   -0.8468 H   0  0  0  0  0  0  0  0  0  0  0  0
    2.1750    4.1261    0.8746 C   0  0  0  0  0  0  0  0  0  0  0  0
    2.4008    5.1879    0.7580 H   0  0  0  0  0  0  0  0  0  0  0  0
    0.8207    4.4533    2.7691 C   0  0  0  0  0  0  0  0  0  0  0  0
    0.9672    5.8403    2.9005 C   0  0  0  0  0  0  0  0  0  0  0  0
    1.5962    6.3946    2.2211 H   0  0  0  0  0  0  0  0  0  0  0  0
    0.3173    6.5357    3.8971 C   0  0  0  0  0  0  0  0  0  0  0  0
    0.4571    7.6034    3.9627 H   0  0  0  0  0  0  0  0  0  0  0  0
   -0.5081    5.8677    4.8052 C   0  0  0  0  0  0  0  0  0  0  0  0
   -0.6547    4.4783    4.6855 C   0  0  0  0  0  0  0  0  0  0  0  0
   -1.2904    3.9700    5.3925 H   0  0  0  0  0  0  0  0  0  0  0  0
   -0.0033    3.7930    3.6935 C   0  0  0  0  0  0  0  0  0  0  0  0
   -0.1189    2.7152    3.6113 H   0  0  0  0  0  0  0  0  0  0  0  0
   -1.1062    7.8509    5.9992 C   0  0  0  0  0  0  0  0  0  0  0  0
   -1.4543    8.3722    5.0976 H   0  0  0  0  0  0  0  0  0  0  0  0
   -0.0659    8.1416    6.1979 H   0  0  0  0  0  0  0  0  0  0  0  0
   -1.9884    8.2024    7.1861 C   0  0  0  0  0  0  0  0  0  0  0  0
   -3.0156    7.9129    6.9836 H   0  0  0  0  0  0  0  0  0  0  0  0
   -1.9488    9.2716    7.3723 H   0  0  0  0  0  0  0  0  0  0  0  0
   -1.6475    7.6726    8.0710 H   0  0  0  0  0  0  0  0  0  0  0  0
  1  3  1  0  0  0  0
  2  1  1  0  0  0  0
  4 28  1  0  0  0  0
  5  1  1  0  0  0  0
  6 18  1  0  0  0  0
  7  5  1  0  0  0  0
  7 16  1  1  0  0  0
  8  7  1  0  0  0  0
  9  8  1  0  0  0  0
 10 12  1  0  0  0  0
 10  8  2  0  0  0  0
 11 10  1  0  0  0  0
 12 14  2  0  0  0  0
 13 12  1  0  0  0  0
 14 15  1  0  0  0  0
 14  5  1  0  0  0  0
 16  6  2  0  0  0  0
 17 16  1  0  0  0  0
 18 19  2  0  0  0  0
 18 26  1  0  0  0  0
 19 21  1  0  0  0  0
 20 19  1  0  0  0  0
 21 22  1  0  0  0  0
 21 23  2  0  0  0  0
 23  4  1  0  0  0  0
 24 23  1  0  0  0  0
 24 25  1  0  0  0  0
 26 24  2  0  0  0  0
 27 26  1  0  0  0  0
 28 30  1  0  0  0  0
 28 31  1  0  0  0  0
 29 28  1  0  0  0  0
 31 33  1  0  0  0  0
 31 34  1  0  0  0  0
 32 31  1  0  0  0  0
M  END
$$$$
