CSD_code = BEVDOX | q = 0 | S = 0 | Stoichiometry = C14H14Cl2HgN2 | MND = 4
 OpenBabel04212202013D

 33 33  0  0  0  0  0  0  0  0999 V2000
    4.4642    6.5759    7.3073 Hg  0  0  0  0  0  0  0  0  0  0  0  0
    4.1351    6.0758    5.1113 Cl  0  0  0  0  0  0  0  0  0  0  0  0
    5.2619    8.0028    8.9157 Cl  0  0  0  0  0  0  0  0  0  0  0  0
    2.6544    5.6463    8.7751 N   0  0  0  0  0  0  0  0  0  0  0  0
    5.0853    4.3808    8.3520 N   0  0  0  0  0  0  0  0  0  0  0  0
    3.0467    4.6424    9.5700 C   0  0  0  0  0  0  0  0  0  0  0  0
    2.2762    4.2256   10.6575 C   0  0  0  0  0  0  0  0  0  0  0  0
    2.6212    3.4161   11.2825 H   0  0  0  0  0  0  0  0  0  0  0  0
    1.0793    4.8671   10.9219 C   0  0  0  0  0  0  0  0  0  0  0  0
    0.4689    4.5673   11.7605 H   0  0  0  0  0  0  0  0  0  0  0  0
    0.6812    5.8994   10.0874 C   0  0  0  0  0  0  0  0  0  0  0  0
   -0.2455    6.4255   10.2516 H   0  0  0  0  0  0  0  0  0  0  0  0
    1.5070    6.2516    9.0280 C   0  0  0  0  0  0  0  0  0  0  0  0
    1.2316    7.0515    8.3529 H   0  0  0  0  0  0  0  0  0  0  0  0
    4.3055    3.9755    9.2752 C   0  0  0  0  0  0  0  0  0  0  0  0
    4.5462    3.1171    9.9077 H   0  0  0  0  0  0  0  0  0  0  0  0
    6.2579    3.7246    8.0174 C   0  0  0  0  0  0  0  0  0  0  0  0
    6.4337    2.3437    8.1549 C   0  0  0  0  0  0  0  0  0  0  0  0
    5.6247    1.7292    8.5217 H   0  0  0  0  0  0  0  0  0  0  0  0
    7.6179    1.7551    7.7635 C   0  0  0  0  0  0  0  0  0  0  0  0
    7.7366    0.6854    7.8596 H   0  0  0  0  0  0  0  0  0  0  0  0
    8.6619    2.5134    7.2426 C   0  0  0  0  0  0  0  0  0  0  0  0
    8.4795    3.8863    7.0985 C   0  0  0  0  0  0  0  0  0  0  0  0
    9.2751    4.4883    6.6853 H   0  0  0  0  0  0  0  0  0  0  0  0
    7.2938    4.4836    7.4660 C   0  0  0  0  0  0  0  0  0  0  0  0
    7.1562    5.5555    7.3562 H   0  0  0  0  0  0  0  0  0  0  0  0
    9.9264    1.8553    6.7792 C   0  0  0  0  0  0  0  0  0  0  0  0
   10.1437    0.9865    7.4035 H   0  0  0  0  0  0  0  0  0  0  0  0
   10.7597    2.5552    6.8605 H   0  0  0  0  0  0  0  0  0  0  0  0
    9.7854    1.4066    5.3221 C   0  0  0  0  0  0  0  0  0  0  0  0
    8.9715    0.6924    5.2219 H   0  0  0  0  0  0  0  0  0  0  0  0
   10.7047    0.9373    4.9809 H   0  0  0  0  0  0  0  0  0  0  0  0
    9.5713    2.2598    4.6831 H   0  0  0  0  0  0  0  0  0  0  0  0
  1  3  1  0  0  0  0
  2  1  1  0  0  0  0
  4 13  2  0  0  0  0
  4  6  1  0  0  0  0
  5 15  2  0  0  0  0
  6  7  2  0  0  0  0
  7  9  1  0  0  0  0
  7  8  1  0  0  0  0
  9 10  1  0  0  0  0
 11 12  1  0  0  0  0
 11  9  2  0  0  0  0
 13 11  1  0  0  0  0
 14 13  1  0  0  0  0
 15  6  1  0  0  0  0
 15 16  1  0  0  0  0
 17 18  1  0  0  0  0
 17  5  1  0  0  0  0
 18 19  1  0  0  0  0
 20 21  1  0  0  0  0
 20 18  2  0  0  0  0
 22 20  1  0  0  0  0
 23 22  2  0  0  0  0
 23 25  1  0  0  0  0
 24 23  1  0  0  0  0
 25 17  2  0  0  0  0
 26 25  1  0  0  0  0
 27 29  1  0  0  0  0
 27 22  1  0  0  0  0
 27 28  1  0  0  0  0
 30 27  1  0  0  0  0
 31 30  1  0  0  0  0
 32 30  1  0  0  0  0
 33 30  1  0  0  0  0
M  END
$$$$
