CSD_code = BEVHAN | q = 0 | S = 0 | Stoichiometry = C25H18Cl2N6Zn | MND = 4
 OpenBabel04212202013D

 52 58  0  0  1  0  0  0  0  0999 V2000
    3.3908    4.8764    9.4135 Zn  0  0  0  0  0  0  0  0  0  0  0  0
    2.9115    2.8687   10.1236 Cl  0  0  0  0  0  0  0  0  0  0  0  0
    4.7868    6.4387   10.1701 Cl  0  0  0  0  0  0  0  0  0  0  0  0
    4.5518   11.4879   14.3460 C   0  0  0  0  0  0  0  0  0  0  0  0
    5.3142   11.4756   15.1155 H   0  0  0  0  0  0  0  0  0  0  0  0
    1.9501    6.2062    8.6981 N   0  0  0  0  0  0  0  0  0  0  0  0
    2.6076    5.4044   12.6798 C   0  0  0  0  0  0  0  0  0  0  0  0
    1.9905    4.6545   12.2092 H   0  0  0  0  0  0  0  0  0  0  0  0
    4.1031   10.3006   13.9840 N   0  0  0  0  0  0  0  0  0  0  0  0
    2.1731    8.0532    7.5089 N   0  0  0  0  0  0  0  0  0  0  0  0
    3.1216    7.7311   13.0647 N   0  0  0  0  0  0  0  0  0  0  0  0
    3.1620   10.2368   13.0383 C   0  0  0  0  0  0  0  0  0  0  0  0
    1.6706    8.7893   11.7657 N   0  0  0  0  0  0  0  0  0  0  0  0
    2.6645    8.9475   12.6360 C   0  0  0  0  0  0  0  0  0  0  0  0
    2.3612    6.7639   12.4249 C   0  0  0  0  0  0  0  0  0  0  0  0
    3.8782    4.8570    7.3413 N   0  0  0  0  0  0  0  0  0  0  0  0
    0.5163    6.9320   10.5990 C   0  0  0  0  0  0  0  0  0  0  0  0
    0.3440    5.8692   10.7641 H   0  0  0  0  0  0  0  0  0  0  0  0
   -0.4280    7.4773   10.6220 H   0  0  0  0  0  0  0  0  0  0  0  0
    4.6383    4.0289    6.6467 C   0  0  0  0  0  3  0  0  0  0  0  0
    5.0216    3.1762    7.1898 H   0  0  0  0  0  0  0  0  0  0  0  0
    2.5200    6.7432    7.6078 C   0  0  2  0  0  3  0  0  0  0  0  0
    0.8503    9.6351    8.7822 C   0  0  0  0  0  0  0  0  0  0  0  0
    0.2220    9.8176    9.6375 H   0  0  0  0  0  0  0  0  0  0  0  0
    1.4613    7.4753   11.6268 C   0  0  0  0  0  0  0  0  0  0  0  0
    1.3343    8.3350    8.5832 C   0  0  0  0  0  0  0  0  0  0  0  0
    2.5832    9.0542    6.6786 C   0  0  0  0  0  0  0  0  0  0  0  0
    3.3052    8.8066    5.9192 H   0  0  0  0  0  0  0  0  0  0  0  0
    3.3524    5.9407    6.7482 C   0  0  0  0  0  0  0  0  0  0  0  0
    1.2314   10.6216    7.9200 C   0  0  0  0  0  0  0  0  0  0  0  0
    0.8871   11.6349    8.0466 H   0  0  0  0  0  0  0  0  0  0  0  0
    4.4015    6.0824   14.1325 C   0  0  0  0  0  0  0  0  0  0  0  0
    5.2145    5.8124   14.7868 H   0  0  0  0  0  0  0  0  0  0  0  0
    2.6429   11.3899   12.4301 C   0  0  0  0  0  0  0  0  0  0  0  0
    1.8856   11.2789   11.6717 H   0  0  0  0  0  0  0  0  0  0  0  0
    1.2071    7.1398    9.2969 C   0  0  0  0  0  0  0  0  0  0  0  0
    3.5697    6.1874    5.3882 C   0  0  0  0  0  0  0  0  0  0  0  0
    3.0832    7.0118    4.8928 H   0  0  0  0  0  0  0  0  0  0  0  0
    4.3739    5.3244    4.6693 C   0  0  0  0  0  0  0  0  0  0  0  0
    4.5527    5.4990    3.6188 H   0  0  0  0  0  0  0  0  0  0  0  0
    4.9325    4.2261    5.3079 C   0  0  0  0  0  0  0  0  0  0  0  0
    5.5663    3.5335    4.7791 H   0  0  0  0  0  0  0  0  0  0  0  0
    4.1356    7.3941   13.9025 C   0  0  0  0  0  0  0  0  0  0  0  0
    4.6790    8.2182   14.3361 H   0  0  0  0  0  0  0  0  0  0  0  0
    4.1020   12.6808   13.8057 C   0  0  0  0  0  0  0  0  0  0  0  0
    4.5030   13.6245   14.1408 H   0  0  0  0  0  0  0  0  0  0  0  0
    2.1215   10.3176    6.8640 C   0  0  0  0  0  0  0  0  0  0  0  0
    2.4566   11.1016    6.2043 H   0  0  0  0  0  0  0  0  0  0  0  0
    3.6261    5.0681   13.5230 C   0  0  0  0  0  0  0  0  0  0  0  0
    3.8498    4.0324   13.7226 H   0  0  0  0  0  0  0  0  0  0  0  0
    3.1209   12.6210   12.8225 C   0  0  0  0  0  0  0  0  0  0  0  0
    2.7405   13.5277   12.3728 H   0  0  0  0  0  0  0  0  0  0  0  0
  1  2  1  0  0  0  0
  1  3  1  0  0  0  0
  4  5  1  0  0  0  0
  6 36  1  0  0  0  0
  6  1  1  0  0  0  0
  7 49  2  0  0  0  0
  8  7  1  0  0  0  0
  9  4  1  0  0  0  0
 10 22  1  0  0  0  0
 10 26  1  0  0  0  0
 11 43  1  0  0  0  0
 12  9  2  0  0  0  0
 13 14  2  0  0  0  0
 14 12  1  0  0  0  0
 14 11  1  0  0  0  0
 15  7  1  0  0  0  0
 15 11  1  0  0  0  0
 16  1  1  0  0  0  0
 17 19  1  0  0  0  0
 17 18  1  0  0  0  0
 17 25  1  0  0  0  0
 20 21  1  0  0  0  0
 20 16  1  0  0  0  0
 22 29  1  6  0  0  0
 22  6  1  0  0  0  0
 23 24  1  0  0  0  0
 25 13  1  0  0  0  0
 25 15  2  0  0  0  0
 26 23  1  0  0  0  0
 26 36  2  0  0  0  0
 27 47  2  0  0  0  0
 27 10  1  0  0  0  0
 28 27  1  0  0  0  0
 29 16  1  0  0  0  0
 30 31  1  0  0  0  0
 30 23  2  0  0  0  0
 32 33  1  0  0  0  0
 34 51  2  0  0  0  0
 34 12  1  0  0  0  0
 35 34  1  0  0  0  0
 36 17  1  0  0  0  0
 37 29  2  0  0  0  0
 38 37  1  0  0  0  0
 39 41  2  0  0  0  0
 39 37  1  0  0  0  0
 40 39  1  0  0  0  0
 41 20  1  0  0  0  0
 42 41  1  0  0  0  0
 43 32  2  0  0  0  0
 43 44  1  0  0  0  0
 45 46  1  0  0  0  0
 45  4  2  0  0  0  0
 47 30  1  0  0  0  0
 48 47  1  0  0  0  0
 49 50  1  0  0  0  0
 49 32  1  0  0  0  0
 51 45  1  0  0  0  0
 52 51  1  0  0  0  0
M  END
$$$$
