CSD_code = BEVKAR | q = 1 | S = 0 | Stoichiometry = C20H12ClN2Ru(1+) | MND = 9
 OpenBabel04212202013D

 36 39  0  0  0  0  0  0  0  0999 V2000
    8.4865    5.8270    2.6837 C   0  0  0  0  0  0  0  0  0  0  0  0
    8.0305    6.6352    3.2426 H   0  0  0  0  0  0  0  0  0  0  0  0
    7.7001    4.8592    2.0575 C   0  0  0  0  0  0  0  0  0  0  0  0
    6.6278    4.9148    2.1544 H   0  0  0  0  0  0  0  0  0  0  0  0
    8.2870    3.8532    1.3224 C   0  0  0  0  0  0  0  0  0  0  0  0
    7.6656    3.1078    0.8540 H   0  0  0  0  0  0  0  0  0  0  0  0
    9.6888    3.8070    1.2014 C   0  0  0  0  0  0  0  0  0  0  0  0
   10.3955    4.8105    1.8971 C   0  0  0  0  0  0  0  0  0  0  0  0
   10.4345    2.8274    0.4616 C   0  0  0  0  0  0  0  0  0  0  0  0
    9.6862    1.8068   -0.3368 C   0  0  0  0  0  0  0  0  0  0  0  0
    8.7258    2.1903   -0.6648 H   0  0  0  0  0  0  0  0  0  0  0  0
    9.5098    0.9102    0.2579 H   0  0  0  0  0  0  0  0  0  0  0  0
   10.2462    1.5220   -1.2220 H   0  0  0  0  0  0  0  0  0  0  0  0
    9.8041    5.7908    2.6163 N   0  0  0  0  0  0  0  0  0  0  0  0
   10.9662    8.2113    1.4127 Cl  0  0  0  0  0 15  0  0  0  0  0  0
   11.0761    7.1357    3.3960 Ru  0  0  0  0  0  0  0  0  0  0  0  0
   11.7250    9.1250    4.7192 C   0  0  0  0  0  3  0  0  0  0  0  0
   12.4420    8.0316    4.9732 C   0  0  0  0  0  3  0  0  0  0  0  0
   11.8396    6.8823    5.3747 C   0  0  0  0  0  3  0  0  0  0  0  0
   10.4803    6.8337    5.4241 C   0  0  0  0  0  0  0  0  0  0  0  0
   13.6937    6.0137    2.4900 C   0  0  0  0  0  0  0  0  0  0  0  0
   14.1306    6.8574    3.0105 H   0  0  0  0  0  0  0  0  0  0  0  0
   14.4981    5.1071    1.7985 C   0  0  0  0  0  0  0  0  0  0  0  0
   15.5654    5.2586    1.7878 H   0  0  0  0  0  0  0  0  0  0  0  0
   13.9341    4.0392    1.1361 C   0  0  0  0  0  0  0  0  0  0  0  0
   14.5676    3.3571    0.5933 H   0  0  0  0  0  0  0  0  0  0  0  0
   12.5367    3.8703    1.1530 C   0  0  0  0  0  0  0  0  0  0  0  0
   11.8102    4.8526    1.8580 C   0  0  0  0  0  0  0  0  0  0  0  0
   11.8124    2.8227    0.4894 C   0  0  0  0  0  0  0  0  0  0  0  0
   12.5858    1.7321   -0.1826 C   0  0  0  0  0  0  0  0  0  0  0  0
   13.5392    1.5675    0.3085 H   0  0  0  0  0  0  0  0  0  0  0  0
   12.0367    0.7962   -0.1583 H   0  0  0  0  0  0  0  0  0  0  0  0
   12.7789    1.9869   -1.2249 H   0  0  0  0  0  0  0  0  0  0  0  0
   12.3807    5.8828    2.5220 N   0  0  0  0  0  0  0  0  0  0  0  0
   10.3867    9.0778    4.7676 C   0  0  0  0  0  3  0  0  0  0  0  0
    9.7704    7.9364    5.0704 C   0  0  0  0  0  3  0  0  0  0  0  0
  1  2  1  0  0  0  0
  3  4  1  0  0  0  0
  3  1  2  0  0  0  0
  5  3  1  0  0  0  0
  6  5  1  0  0  0  0
  7  5  2  0  0  0  0
  7  8  1  0  0  0  0
  8 14  1  0  0  0  0
  9 29  2  0  0  0  0
  9  7  1  0  0  0  0
 10 12  1  0  0  0  0
 10  9  1  0  0  0  0
 11 10  1  0  0  0  0
 13 10  1  0  0  0  0
 14  1  1  0  0  0  0
 14 16  1  0  0  0  0
 16 20  1  0  0  0  0
 17 35  2  0  0  0  0
 17 18  1  0  0  0  0
 18 19  2  0  0  0  0
 19 20  1  0  0  0  0
 21 34  1  0  0  0  0
 21 22  1  0  0  0  0
 23 21  2  0  0  0  0
 24 23  1  0  0  0  0
 25 27  2  0  0  0  0
 25 23  1  0  0  0  0
 26 25  1  0  0  0  0
 27 28  1  0  0  0  0
 28  8  2  0  0  0  0
 28 34  1  0  0  0  0
 29 27  1  0  0  0  0
 30 32  1  0  0  0  0
 30 31  1  0  0  0  0
 30 29  1  0  0  0  0
 33 30  1  0  0  0  0
 34 16  1  0  0  0  0
 35 36  1  0  0  0  0
 36 20  2  3  0  0  0
M  END
$$$$
