CSD_code = BEWSUT | q = 0 | S = 0 | Stoichiometry = C34H31ClN2NiO2 | MND = 7
 OpenBabel04212202013D

 71 77  0  0  1  0  0  0  0  0999 V2000
    1.2491    4.5855    2.2170 Ni  0  0  1  0  0  0  0  0  0  0  0  0
   -0.3022    3.5528    3.1307 Cl  0  0  0  0  0  0  0  0  0  0  0  0
    0.2031    6.0737    0.9847 C   0  0  0  0  0  0  0  0  0  0  0  0
   -0.7301    6.5895    1.1442 H   0  0  0  0  0  0  0  0  0  0  0  0
    0.3353    4.7923    0.3336 C   0  0  1  0  0  0  0  0  0  0  0  0
   -0.4885    4.2367   -0.0899 H   0  0  0  0  0  0  0  0  0  0  0  0
    1.6954    4.5328    0.1253 C   0  0  0  0  0  3  0  0  0  0  0  0
    2.1156    3.7291   -0.4577 H   0  0  0  0  0  0  0  0  0  0  0  0
    2.4107    5.5504    0.8043 C   0  0  1  0  0  0  0  0  0  0  0  0
    3.4796    5.7039    0.7567 H   0  0  0  0  0  0  0  0  0  0  0  0
    1.4739    6.5499    1.2508 C   0  0  0  0  0  0  0  0  0  0  0  0
    1.7383    7.5148    1.6490 H   0  0  0  0  0  0  0  0  0  0  0  0
    2.4299    4.2831    3.6689 C   0  0  1  0  0  3  0  0  0  0  0  0
    2.9870    5.2349    4.4575 N   0  0  0  0  0  0  0  0  0  0  0  0
    2.4380    1.8121    3.6962 C   0  0  0  0  0  0  0  0  0  0  0  0
    1.4904    1.0548    4.3838 C   0  0  0  0  0  0  0  0  0  0  0  0
    0.8367    1.5746    5.6244 C   0  0  0  0  0  0  0  0  0  0  0  0
    1.5727    1.7652    6.4046 H   0  0  0  0  0  0  0  0  0  0  0  0
    0.1171    0.8536    6.0005 H   0  0  0  0  0  0  0  0  0  0  0  0
    0.3126    2.5024    5.3975 H   0  0  0  0  0  0  0  0  0  0  0  0
    1.1581   -0.1879    3.8690 C   0  0  0  0  0  0  0  0  0  0  0  0
    0.4170   -0.7827    4.3822 H   0  0  0  0  0  0  0  0  0  0  0  0
    1.7461   -0.6827    2.7144 C   0  0  0  0  0  0  0  0  0  0  0  0
    1.3452   -2.0166    2.1638 C   0  0  0  0  0  0  0  0  0  0  0  0
    0.5410   -1.8885    1.4390 H   0  0  0  0  0  0  0  0  0  0  0  0
    0.9854   -2.6704    2.9541 H   0  0  0  0  0  0  0  0  0  0  0  0
    2.1805   -2.4962    1.6588 H   0  0  0  0  0  0  0  0  0  0  0  0
    2.7021    0.0876    2.0682 C   0  0  0  0  0  0  0  0  0  0  0  0
    3.1778   -0.2923    1.1754 H   0  0  0  0  0  0  0  0  0  0  0  0
    3.0652    1.3359    2.5461 C   0  0  0  0  0  0  0  0  0  0  0  0
    4.1259    2.1493    1.8669 C   0  0  0  0  0  0  0  0  0  0  0  0
    4.4998    1.6323    0.9874 H   0  0  0  0  0  0  0  0  0  0  0  0
    4.9610    2.3288    2.5454 H   0  0  0  0  0  0  0  0  0  0  0  0
    3.7209    3.1152    1.5597 H   0  0  0  0  0  0  0  0  0  0  0  0
    3.5946    3.2920    5.2941 C   0  0  0  0  0  0  0  0  0  0  0  0
    4.2847    2.3041    6.1146 C   0  0  0  0  0  0  0  0  0  0  0  0
    4.5139    6.4999    6.7082 O   0  0  0  0  0  0  0  0  0  0  0  0
    5.0269    2.9235    7.2426 C   0  0  0  0  0  0  0  0  0  0  0  0
    5.6799    2.0741    8.1314 C   0  0  0  0  0  0  0  0  0  0  0  0
    5.6147    1.0105    7.9550 H   0  0  0  0  0  0  0  0  0  0  0  0
    6.3887    2.5786    9.2070 C   0  0  0  0  0  0  0  0  0  0  0  0
    6.8880    1.9052    9.8869 H   0  0  0  0  0  0  0  0  0  0  0  0
    6.4555    3.9487    9.4081 C   0  0  0  0  0  0  0  0  0  0  0  0
    7.0070    4.3482   10.2457 H   0  0  0  0  0  0  0  0  0  0  0  0
    5.8140    4.8055    8.5317 C   0  0  0  0  0  0  0  0  0  0  0  0
    5.8545    5.8762    8.6679 H   0  0  0  0  0  0  0  0  0  0  0  0
    5.0952    4.3127    7.4461 C   0  0  0  0  0  0  0  0  0  0  0  0
    4.4397    5.2955    6.5468 C   0  0  0  0  0  0  0  0  0  0  0  0
    4.2794    1.1069    5.8998 O   0  0  0  0  0  0  0  0  0  0  0  0
    3.7054    4.6550    5.4649 C   0  0  0  0  0  0  0  0  0  0  0  0
    2.8062    3.0936    4.1970 N   0  0  0  0  0  0  0  0  0  0  0  0
    2.8938    6.6382    4.2399 C   0  0  0  0  0  0  0  0  0  0  0  0
    1.7193    7.3076    4.5815 C   0  0  0  0  0  0  0  0  0  0  0  0
    0.5555    6.5597    5.1485 C   0  0  0  0  0  0  0  0  0  0  0  0
    0.1668    5.8550    4.4046 H   0  0  0  0  0  0  0  0  0  0  0  0
   -0.2426    7.2415    5.4265 H   0  0  0  0  0  0  0  0  0  0  0  0
    0.8502    5.9863    6.0266 H   0  0  0  0  0  0  0  0  0  0  0  0
    1.6604    8.6753    4.3608 C   0  0  0  0  0  0  0  0  0  0  0  0
    0.7565    9.2077    4.6188 H   0  0  0  0  0  0  0  0  0  0  0  0
    2.7296    9.3702    3.8144 C   0  0  0  0  0  0  0  0  0  0  0  0
    2.6545   10.8506    3.5994 C   0  0  0  0  0  0  0  0  0  0  0  0
    3.1523   11.3674    4.4201 H   0  0  0  0  0  0  0  0  0  0  0  0
    1.6218   11.1877    3.5626 H   0  0  0  0  0  0  0  0  0  0  0  0
    3.1531   11.1339    2.6749 H   0  0  0  0  0  0  0  0  0  0  0  0
    3.8830    8.6719    3.4832 C   0  0  0  0  0  0  0  0  0  0  0  0
    4.7201    9.2033    3.0539 H   0  0  0  0  0  0  0  0  0  0  0  0
    3.9872    7.3060    3.6905 C   0  0  0  0  0  0  0  0  0  0  0  0
    5.2447    6.5703    3.3390 C   0  0  0  0  0  0  0  0  0  0  0  0
    5.8418    7.1507    2.6403 H   0  0  0  0  0  0  0  0  0  0  0  0
    5.0262    5.6005    2.8937 H   0  0  0  0  0  0  0  0  0  0  0  0
    5.8410    6.4055    4.2371 H   0  0  0  0  0  0  0  0  0  0  0  0
  1  2  1  1  0  0  0
  1 13  1  0  0  0  0
  3  4  1  0  0  0  0
  3 11  2  0  0  0  0
  5  6  1  6  0  0  0
  5  3  1  0  0  0  0
  5  1  1  0  0  0  0
  7  5  1  0  0  0  0
  7  9  1  0  0  0  0
  8  7  1  0  0  0  0
  9 10  1  1  0  0  0
  9 11  1  0  0  0  0
  9  1  1  0  0  0  0
 11 12  1  0  0  0  0
 13 51  1  1  0  0  0
 13 14  1  0  0  0  0
 14 50  1  0  0  0  0
 15 51  1  0  0  0  0
 15 16  1  0  0  0  0
 16 17  1  0  0  0  0
 17 19  1  0  0  0  0
 17 18  1  0  0  0  0
 20 17  1  0  0  0  0
 21 22  1  0  0  0  0
 21 16  2  0  0  0  0
 23 21  1  0  0  0  0
 24 23  1  0  0  0  0
 24 26  1  0  0  0  0
 25 24  1  0  0  0  0
 27 24  1  0  0  0  0
 28 30  1  0  0  0  0
 28 23  2  0  0  0  0
 29 28  1  0  0  0  0
 30 15  2  0  0  0  0
 31 33  1  0  0  0  0
 31 30  1  0  0  0  0
 32 31  1  0  0  0  0
 34 31  1  0  0  0  0
 35 50  2  0  0  0  0
 35 36  1  0  0  0  0
 36 38  1  0  0  0  0
 38 47  2  0  0  0  0
 38 39  1  0  0  0  0
 39 41  2  0  0  0  0
 40 39  1  0  0  0  0
 41 43  1  0  0  0  0
 41 42  1  0  0  0  0
 43 44  1  0  0  0  0
 45 46  1  0  0  0  0
 45 43  2  0  0  0  0
 47 45  1  0  0  0  0
 48 37  2  0  0  0  0
 48 47  1  0  0  0  0
 49 36  2  0  0  0  0
 50 48  1  0  0  0  0
 51 35  1  0  0  0  0
 52 14  1  0  0  0  0
 52 53  1  0  0  0  0
 53 54  1  0  0  0  0
 54 56  1  0  0  0  0
 54 57  1  0  0  0  0
 55 54  1  0  0  0  0
 58 53  2  0  0  0  0
 58 59  1  0  0  0  0
 60 58  1  0  0  0  0
 61 60  1  0  0  0  0
 61 62  1  0  0  0  0
 63 61  1  0  0  0  0
 64 61  1  0  0  0  0
 65 67  1  0  0  0  0
 65 60  2  0  0  0  0
 66 65  1  0  0  0  0
 67 52  2  0  0  0  0
 68 67  1  0  0  0  0
 68 71  1  0  0  0  0
 69 68  1  0  0  0  0
 70 68  1  0  0  0  0
M  END
$$$$
