CSD_code = BEWYEH | q = 0 | S = 0 | Stoichiometry = C23H35Cl2N2PZn | MND = 4
 OpenBabel04212202013D

 64 66  0  0  1  0  0  0  0  0999 V2000
   -4.5355   -3.6451    7.9324 Zn  0  0  0  0  0  0  0  0  0  0  0  0
   -6.7024   -3.9140    7.5672 Cl  0  0  0  0  0  0  0  0  0  0  0  0
   -3.2011   -5.2144    8.7917 Cl  0  0  0  0  0  0  0  0  0  0  0  0
   -1.5847    0.9048    6.2756 P   0  0  0  0  0  0  0  0  0  0  0  0
   -3.7932   -1.6305    8.6722 N   0  0  0  0  0  4  0  0  0  0  0  0
   -3.4621   -3.1505    6.1040 N   0  0  0  0  0  4  0  0  0  0  0  0
   -3.6020   -2.6107   10.9788 C   0  0  0  0  0  0  0  0  0  0  0  0
   -2.8977   -1.9461    9.8016 C   0  0  0  0  0  0  0  0  0  0  0  0
   -4.8204   -0.6661    9.1077 C   0  0  0  0  0  0  0  0  0  0  0  0
   -5.9389   -0.4169    8.1048 C   0  0  0  0  0  0  0  0  0  0  0  0
   -3.0501   -1.1144    7.5027 C   0  0  2  0  0  0  0  0  0  0  0  0
   -2.4544   -2.2477    6.6646 C   0  0  0  0  0  0  0  0  0  0  0  0
   -4.3213   -2.5102    5.0933 C   0  0  0  0  0  0  0  0  0  0  0  0
   -3.6287   -2.0404    3.8154 C   0  0  0  0  0  0  0  0  0  0  0  0
   -2.7853   -4.3462    5.5699 C   0  0  0  0  0  0  0  0  0  0  0  0
   -3.7526   -5.4082    5.0699 C   0  0  0  0  0  0  0  0  0  0  0  0
   -1.9454   -0.0993    7.8176 C   0  0  0  0  0  0  0  0  0  0  0  0
   -3.1874    1.8118    6.2407 C   0  0  0  0  0  0  0  0  0  0  0  0
   -4.0332    1.6173    5.1550 C   0  0  0  0  0  0  0  0  0  0  0  0
   -5.2714    2.2351    5.1099 C   0  0  0  0  0  0  0  0  0  0  0  0
   -5.6711    3.0562    6.1501 C   0  0  0  0  0  0  0  0  0  0  0  0
   -4.8269    3.2652    7.2298 C   0  0  0  0  0  0  0  0  0  0  0  0
   -3.5913    2.6483    7.2768 C   0  0  0  0  0  0  0  0  0  0  0  0
   -0.5399    2.2290    6.9912 C   0  0  0  0  0  0  0  0  0  0  0  0
    0.3722    2.0028    8.0157 C   0  0  0  0  0  0  0  0  0  0  0  0
    1.1906    3.0270    8.4591 C   0  0  0  0  0  0  0  0  0  0  0  0
    1.1208    4.2801    7.8756 C   0  0  0  0  0  0  0  0  0  0  0  0
    0.2343    4.5054    6.8346 C   0  0  0  0  0  0  0  0  0  0  0  0
   -0.5835    3.4852    6.3894 C   0  0  0  0  0  0  0  0  0  0  0  0
   -2.8602   -3.1154   11.5920 H   0  0  0  0  0  0  0  0  0  0  0  0
   -4.1258   -1.8921   11.6044 H   0  0  0  0  0  0  0  0  0  0  0  0
   -4.3111   -3.3606   10.6306 H   0  0  0  0  0  0  0  0  0  0  0  0
   -2.1402   -2.6360    9.4290 H   0  0  0  0  0  0  0  0  0  0  0  0
   -2.4009   -1.0363   10.1617 H   0  0  0  0  0  0  0  0  0  0  0  0
   -5.2779   -1.0775   10.0063 H   0  0  0  0  0  0  0  0  0  0  0  0
   -4.3452    0.2901    9.3722 H   0  0  0  0  0  0  0  0  0  0  0  0
   -6.7380    0.1222    8.6076 H   0  0  0  0  0  0  0  0  0  0  0  0
   -5.6223    0.1897    7.2595 H   0  0  0  0  0  0  0  0  0  0  0  0
   -6.3435   -1.3595    7.7447 H   0  0  0  0  0  0  0  0  0  0  0  0
   -3.7928   -0.6026    6.8877 H   0  0  0  0  0  0  0  0  0  0  0  0
   -1.7983   -2.8506    7.2963 H   0  0  0  0  0  0  0  0  0  0  0  0
   -1.8377   -1.7980    5.8743 H   0  0  0  0  0  0  0  0  0  0  0  0
   -5.1051   -3.2246    4.8403 H   0  0  0  0  0  0  0  0  0  0  0  0
   -4.8191   -1.6605    5.5610 H   0  0  0  0  0  0  0  0  0  0  0  0
   -4.3672   -1.5526    3.1841 H   0  0  0  0  0  0  0  0  0  0  0  0
   -2.8372   -1.3242    4.0257 H   0  0  0  0  0  0  0  0  0  0  0  0
   -3.2080   -2.8709    3.2554 H   0  0  0  0  0  0  0  0  0  0  0  0
   -2.0856   -4.0609    4.7742 H   0  0  0  0  0  0  0  0  0  0  0  0
   -2.2082   -4.7770    6.3904 H   0  0  0  0  0  0  0  0  0  0  0  0
   -4.2286   -5.1279    4.1339 H   0  0  0  0  0  0  0  0  0  0  0  0
   -3.2081   -6.3353    4.9103 H   0  0  0  0  0  0  0  0  0  0  0  0
   -4.5229   -5.5926    5.8182 H   0  0  0  0  0  0  0  0  0  0  0  0
   -1.0314   -0.6140    8.1212 H   0  0  0  0  0  0  0  0  0  0  0  0
   -2.2478    0.5880    8.6111 H   0  0  0  0  0  0  0  0  0  0  0  0
   -3.7143    0.9808    4.3416 H   0  0  0  0  0  0  0  0  0  0  0  0
   -5.9235    2.0747    4.2641 H   0  0  0  0  0  0  0  0  0  0  0  0
   -6.6372    3.5370    6.1195 H   0  0  0  0  0  0  0  0  0  0  0  0
   -5.1345    3.9126    8.0381 H   0  0  0  0  0  0  0  0  0  0  0  0
   -2.9311    2.8283    8.1147 H   0  0  0  0  0  0  0  0  0  0  0  0
    0.4502    1.0275    8.4733 H   0  0  0  0  0  0  0  0  0  0  0  0
    1.8884    2.8429    9.2632 H   0  0  0  0  0  0  0  0  0  0  0  0
    1.7600    5.0769    8.2254 H   0  0  0  0  0  0  0  0  0  0  0  0
    0.1831    5.4780    6.3674 H   0  0  0  0  0  0  0  0  0  0  0  0
   -1.2731    3.6591    5.5740 H   0  0  0  0  0  0  0  0  0  0  0  0
  1  5  1  0  0  0  0
  1  3  1  0  0  0  0
  2  1  1  0  0  0  0
  4 24  1  0  0  0  0
  4 17  1  0  0  0  0
  5  9  1  0  0  0  0
  5  8  1  0  0  0  0
  6 12  1  0  0  0  0
  6  1  1  0  0  0  0
  7 30  1  0  0  0  0
  7 31  1  0  0  0  0
  8 34  1  0  0  0  0
  8  7  1  0  0  0  0
  9 36  1  0  0  0  0
  9 35  1  0  0  0  0
 10 37  1  0  0  0  0
 10  9  1  0  0  0  0
 11 40  1  6  0  0  0
 11 17  1  0  0  0  0
 11  5  1  0  0  0  0
 12 41  1  0  0  0  0
 12 11  1  0  0  0  0
 13 44  1  0  0  0  0
 13  6  1  0  0  0  0
 14 46  1  0  0  0  0
 14 13  1  0  0  0  0
 15  6  1  0  0  0  0
 15 49  1  0  0  0  0
 16 15  1  0  0  0  0
 16 52  1  0  0  0  0
 17 53  1  0  0  0  0
 17 54  1  0  0  0  0
 18  4  1  0  0  0  0
 18 23  1  0  0  0  0
 19 18  2  0  0  0  0
 20 19  1  0  0  0  0
 20 21  2  0  0  0  0
 21 22  1  0  0  0  0
 22 23  2  0  0  0  0
 22 58  1  0  0  0  0
 23 59  1  0  0  0  0
 24 25  1  0  0  0  0
 25 26  2  0  0  0  0
 25 60  1  0  0  0  0
 26 61  1  0  0  0  0
 27 62  1  0  0  0  0
 27 26  1  0  0  0  0
 28 27  2  0  0  0  0
 29 28  1  0  0  0  0
 29 24  2  0  0  0  0
 32  7  1  0  0  0  0
 33  8  1  0  0  0  0
 38 10  1  0  0  0  0
 39 10  1  0  0  0  0
 42 12  1  0  0  0  0
 43 13  1  0  0  0  0
 45 14  1  0  0  0  0
 47 14  1  0  0  0  0
 48 15  1  0  0  0  0
 50 16  1  0  0  0  0
 51 16  1  0  0  0  0
 55 19  1  0  0  0  0
 56 20  1  0  0  0  0
 57 21  1  0  0  0  0
 63 28  1  0  0  0  0
 64 29  1  0  0  0  0
M  END
$$$$
