CSD_code = BEXBIQ | q = 0 | S = 0 | Stoichiometry = C9H39AuB30ClP | MND = 2
 OpenBabel04212202013D

 81 98  0  0  1  0  0  0  0  0999 V2000
    4.4747   11.3916    6.6086 Au  0  0  0  0  0  0  0  0  0  0  0  0
    4.5842   12.1428    8.7775 P   0  0  1  0  0  4  0  0  0  0  0  0
    4.3245   10.5750    4.4814 Cl  0  0  0  0  0  0  0  0  0  0  0  0
    7.1913   11.1001    9.4387 C   0  0  2  0  0  0  0  0  0  0  0  0
    8.3536   10.9713   10.5276 C   0  0  1  0  0  0  0  0  0  0  0  0
    8.3456   11.7109   11.3199 H   0  0  0  0  0  0  0  0  0  0  0  0
    6.2361   12.2583    9.6352 C   0  0  0  0  0  0  0  0  0  0  0  0
    6.6956   13.1759    9.2554 H   0  0  0  0  0  0  0  0  0  0  0  0
    6.0389   12.4115   10.7062 H   0  0  0  0  0  0  0  0  0  0  0  0
    7.1033    9.8042   10.5741 B   0  0  2  0  0  0  0  0  0  0  0  0
    6.3147    9.9263   11.4411 H   0  0  0  0  0  0  0  0  0  0  0  0
    6.7311    9.5559    8.8766 B   0  0  2  0  0  0  0  0  0  0  0  0
    5.6076    9.4143    8.5483 H   0  0  0  0  0  0  0  0  0  0  0  0
    7.7632   10.6199    7.9081 B   0  0  1  0  0  0  0  0  0  0  0  0
    7.3024   11.1615    6.9728 H   0  0  0  0  0  0  0  0  0  0  0  0
    8.8143   11.5268    8.9782 B   0  0  2  0  0  0  0  0  0  0  0  0
    9.0270   12.6781    8.8801 H   0  0  0  0  0  0  0  0  0  0  0  0
    8.7818    9.3522   10.8484 B   0  0  1  0  0  0  0  0  0  0  0  0
    9.1075    9.0811   11.9445 H   0  0  0  0  0  0  0  0  0  0  0  0
    7.7507    8.3951    9.7547 B   0  0  0  0  0  0  0  0  0  0  0  0
    7.3788    7.3143   10.0273 H   0  0  0  0  0  0  0  0  0  0  0  0
    8.1629    8.8934    8.0797 B   0  0  1  0  0  0  0  0  0  0  0  0
    8.0697    8.1465    7.1802 H   0  0  0  0  0  0  0  0  0  0  0  0
    9.4602   10.1232    8.1533 B   0  0  0  0  0  0  0  0  0  0  0  0
   10.2738   10.2338    7.3156 H   0  0  0  0  0  0  0  0  0  0  0  0
    9.8216   10.4004    9.8762 B   0  0  2  0  0  0  0  0  0  0  0  0
   10.8180   10.8016   10.3512 H   0  0  0  0  0  0  0  0  0  0  0  0
    9.4469    8.7579    9.3128 B   0  0  1  0  0  0  0  0  0  0  0  0
   10.2655    7.9164    9.2869 H   0  0  0  0  0  0  0  0  0  0  0  0
    4.3440   14.9638    8.2837 C   0  0  2  0  0  0  0  0  0  0  0  0
    4.2133   16.4366    8.8875 C   0  0  1  0  0  0  0  0  0  0  0  0
    3.8647   16.5004    9.9118 H   0  0  0  0  0  0  0  0  0  0  0  0
    3.9422   13.8359    9.2104 C   0  0  0  0  0  0  0  0  0  0  0  0
    2.8525   13.7407    9.2203 H   0  0  0  0  0  0  0  0  0  0  0  0
    4.2575   14.0551   10.2407 H   0  0  0  0  0  0  0  0  0  0  0  0
    5.7933   15.8180    8.6646 B   0  0  2  0  0  0  0  0  0  0  0  0
    6.3554   15.4780    9.6427 H   0  0  0  0  0  0  0  0  0  0  0  0
    5.6479   14.8829    7.1851 B   0  0  2  0  0  0  0  0  0  0  0  0
    6.2153   13.8533    7.0962 H   0  0  0  0  0  0  0  0  0  0  0  0
    3.9716   14.9738    6.6218 B   0  0  1  0  0  0  0  0  0  0  0  0
    3.4670   14.0083    6.1815 H   0  0  0  0  0  0  0  0  0  0  0  0
    3.0502   15.9819    7.7202 B   0  0  2  0  0  0  0  0  0  0  0  0
    1.9808   15.7160    8.1266 H   0  0  0  0  0  0  0  0  0  0  0  0
    5.4148   17.4976    8.3044 B   0  0  1  0  0  0  0  0  0  0  0  0
    5.8155   18.3233    9.0383 H   0  0  0  0  0  0  0  0  0  0  0  0
    6.3595   16.5123    7.1578 B   0  0  0  0  0  0  0  0  0  0  0  0
    7.5045   16.6935    6.9688 H   0  0  0  0  0  0  0  0  0  0  0  0
    5.2276   15.9853    5.8684 B   0  0  1  0  0  0  0  0  0  0  0  0
    5.5972   15.7948    4.7716 H   0  0  0  0  0  0  0  0  0  0  0  0
    3.6114   16.6727    6.2110 B   0  0  0  0  0  0  0  0  0  0  0  0
    2.8574   16.9673    5.3620 H   0  0  0  0  0  0  0  0  0  0  0  0
    3.7461   17.5962    7.7289 B   0  0  2  0  0  0  0  0  0  0  0  0
    3.0767   18.4893    8.0943 H   0  0  0  0  0  0  0  0  0  0  0  0
    5.0877   17.6235    6.5640 B   0  0  1  0  0  0  0  0  0  0  0  0
    5.3561   18.5947    5.9609 H   0  0  0  0  0  0  0  0  0  0  0  0
    2.2324   10.8084    9.8020 C   0  0  2  0  0  0  0  0  0  0  0  0
    1.8016    9.2948   10.1020 C   0  0  1  0  0  0  0  0  0  0  0  0
    2.5922    8.6354   10.4396 H   0  0  0  0  0  0  0  0  0  0  0  0
    3.6757   11.1687   10.0822 C   0  0  0  0  0  0  0  0  0  0  0  0
    4.2616   10.2538   10.2203 H   0  0  0  0  0  0  0  0  0  0  0  0
    3.7417   11.7387   11.0191 H   0  0  0  0  0  0  0  0  0  0  0  0
    1.2807   10.4767   11.2149 B   0  0  2  0  0  0  0  0  0  0  0  0
    1.8554   10.5297   12.2400 H   0  0  0  0  0  0  0  0  0  0  0  0
    0.9544   11.8693   10.1943 B   0  0  2  0  0  0  0  0  0  0  0  0
    1.2408   12.9355   10.6084 H   0  0  0  0  0  0  0  0  0  0  0  0
    1.3097   11.4420    8.5146 B   0  0  2  0  0  0  0  0  0  0  0  0
    1.8330   12.2318    7.8136 H   0  0  0  0  0  0  0  0  0  0  0  0
    1.8804    9.7787    8.4680 B   0  0  2  0  0  0  0  0  0  0  0  0
    2.8077    9.4052    7.8538 H   0  0  0  0  0  0  0  0  0  0  0  0
    0.2219    9.1623   10.7274 B   0  0  1  0  0  0  0  0  0  0  0  0
    0.0102    8.3079   11.5048 H   0  0  0  0  0  0  0  0  0  0  0  0
   -0.3782   10.8384   10.7729 B   0  0  1  0  0  0  0  0  0  0  0  0
   -1.1504   11.2131   11.5751 H   0  0  0  0  0  0  0  0  0  0  0  0
   -0.3658   11.4470    9.0881 B   0  0  0  0  0  0  0  0  0  0  0  0
   -1.1368   12.2548    8.7229 H   0  0  0  0  0  0  0  0  0  0  0  0
    0.2189   10.1358    8.0116 B   0  0  0  0  0  0  0  0  0  0  0  0
   -0.1484   10.0225    6.9043 H   0  0  0  0  0  0  0  0  0  0  0  0
    0.5857    8.7358    9.0497 B   0  0  2  0  0  0  0  0  0  0  0  0
    0.6031    7.6027    8.7460 H   0  0  0  0  0  0  0  0  0  0  0  0
   -0.8221    9.7541    9.4184 B   0  0  1  0  0  0  0  0  0  0  0  0
   -1.9211    9.3618    9.2869 H   0  0  0  0  0  0  0  0  0  0  0  0
  2  1  1  6  0  0  0
  2 33  1  0  0  0  0
  2  7  1  0  0  0  0
  2 59  1  0  0  0  0
  3  1  1  0  0  0  0
  4  7  1  1  0  0  0
  4  5  1  0  0  0  0
  5 18  1  0  0  0  0
  5  6  1  1  0  0  0
  7  9  1  0  0  0  0
  8  7  1  0  0  0  0
 10 18  1  0  0  0  0
 10 11  1  1  0  0  0
 12 13  1  6  0  0  0
 12  4  1  0  0  0  0
 12 10  1  0  0  0  0
 14 15  1  6  0  0  0
 14 22  1  0  0  0  0
 14 16  1  0  0  0  0
 14  4  1  0  0  0  0
 16 17  1  6  0  0  0
 16 26  1  0  0  0  0
 18 19  1  1  0  0  0
 20 21  1  0  0  0  0
 20 10  1  0  0  0  0
 22 23  1  6  0  0  0
 22 12  1  0  0  0  0
 22 28  1  0  0  0  0
 24 16  1  0  0  0  0
 24 28  1  0  0  0  0
 25 24  1  0  0  0  0
 26 27  1  1  0  0  0
 26  5  1  0  0  0  0
 26 18  1  0  0  0  0
 28 29  1  6  0  0  0
 28 20  1  0  0  0  0
 30 31  1  0  0  0  0
 30 33  1  1  0  0  0
 31 32  1  1  0  0  0
 33 34  1  0  0  0  0
 33 35  1  0  0  0  0
 36 37  1  1  0  0  0
 38 39  1  6  0  0  0
 38 30  1  0  0  0  0
 38 36  1  0  0  0  0
 40 41  1  6  0  0  0
 40 42  1  0  0  0  0
 40 30  1  0  0  0  0
 42 52  1  0  0  0  0
 42 43  1  1  0  0  0
 44 36  1  0  0  0  0
 44 31  1  0  0  0  0
 44 45  1  1  0  0  0
 46 36  1  0  0  0  0
 47 46  1  0  0  0  0
 48 49  1  6  0  0  0
 48 54  1  0  0  0  0
 48 40  1  0  0  0  0
 48 38  1  0  0  0  0
 50 54  1  0  0  0  0
 50 42  1  0  0  0  0
 51 50  1  0  0  0  0
 52 53  1  1  0  0  0
 52 44  1  0  0  0  0
 52 31  1  0  0  0  0
 54 55  1  6  0  0  0
 54 46  1  0  0  0  0
 56 59  1  1  0  0  0
 56 57  1  0  0  0  0
 56 64  1  0  0  0  0
 57 58  1  1  0  0  0
 57 70  1  0  0  0  0
 59 60  1  0  0  0  0
 59 61  1  0  0  0  0
 62 63  1  1  0  0  0
 64 65  1  1  0  0  0
 64 62  1  0  0  0  0
 66 67  1  6  0  0  0
 66 56  1  0  0  0  0
 66 64  1  0  0  0  0
 68 69  1  6  0  0  0
 68 66  1  0  0  0  0
 68 78  1  0  0  0  0
 70 62  1  0  0  0  0
 70 71  1  1  0  0  0
 72 62  1  0  0  0  0
 72 73  1  1  0  0  0
 74 80  1  0  0  0  0
 74 72  1  0  0  0  0
 75 74  1  0  0  0  0
 76 68  1  0  0  0  0
 76 80  1  0  0  0  0
 77 76  1  0  0  0  0
 78 79  1  6  0  0  0
 78 57  1  0  0  0  0
 78 70  1  0  0  0  0
 80 81  1  6  0  0  0
 80 72  1  0  0  0  0
M  END
$$$$
