CSD_code = BEXJUL | q = 0 | S = 0 | Stoichiometry = C16H26ClN2Rh | MND = 6
 OpenBabel04212202013D

 46 45  0  0  1  0  0  0  0  0999 V2000
    5.8889    1.8328   23.3320 Rh  0  0  0  0  0  0  0  0  0  0  0  0
    6.3467    1.7942   21.0915 Cl  0  0  0  0  0 15  0  0  0  0  0  0
    5.8654    4.8348   20.9064 N   0  0  0  0  0  0  0  0  0  0  0  0
    3.9086    3.9735   21.3374 N   0  0  0  0  0  0  0  0  0  0  0  0
    5.1152    4.2654   21.8756 C   0  0  1  0  0  3  0  0  0  0  0  0
    5.1420    4.8436   19.7259 C   0  0  0  0  0  0  0  0  0  0  0  0
    3.9236    4.3092   19.9932 C   0  0  0  0  0  0  0  0  0  0  0  0
    7.2665    5.1099   21.0536 C   0  0  0  0  0  0  0  0  0  0  0  0
    7.4289    5.8297   21.8584 H   0  0  0  0  0  0  0  0  0  0  0  0
    7.6626    5.5136   20.1271 H   0  0  0  0  0  0  0  0  0  0  0  0
    7.7864    4.1785   21.2948 H   0  0  0  0  0  0  0  0  0  0  0  0
    5.7059    5.3632   18.4536 C   0  0  0  0  0  0  0  0  0  0  0  0
    4.9418    5.3597   17.6823 H   0  0  0  0  0  0  0  0  0  0  0  0
    6.5299    4.7326   18.1206 H   0  0  0  0  0  0  0  0  0  0  0  0
    6.0722    6.3829   18.5738 H   0  0  0  0  0  0  0  0  0  0  0  0
    2.7497    4.0819   19.1109 C   0  0  0  0  0  0  0  0  0  0  0  0
    2.8964    4.5862   18.1607 H   0  0  0  0  0  0  0  0  0  0  0  0
    1.8396    4.4660   19.5708 H   0  0  0  0  0  0  0  0  0  0  0  0
    2.6179    3.0177   18.9136 H   0  0  0  0  0  0  0  0  0  0  0  0
    2.9728    3.1160   22.0021 C   0  0  0  0  0  0  0  0  0  0  0  0
    3.5374    2.2600   22.4246 H   0  0  0  0  0  0  0  0  0  0  0  0
    2.2319    2.7525   21.2962 H   0  0  0  0  0  0  0  0  0  0  0  0
    2.4722    3.6396   22.8197 H   0  0  0  0  0  0  0  0  0  0  0  0
    5.4996    3.9696   23.2137 C   0  0  0  0  0  3  0  0  0  0  0  0
    4.6938    4.1924   23.9153 H   0  0  0  0  0  0  0  0  0  0  0  0
    6.4117    4.4946   23.5035 H   0  0  0  0  0  0  0  0  0  0  0  0
    5.7547   -0.3224   23.4013 C   0  0  0  0  0  3  0  0  0  0  0  0
    5.4316   -0.6515   22.4135 H   0  0  0  0  0  0  0  0  0  0  0  0
    7.0772    0.0673   23.5455 C   0  0  0  0  0  3  0  0  0  0  0  0
    7.7259   -0.0033   22.6723 H   0  0  0  0  0  0  0  0  0  0  0  0
    7.8278    0.1106   24.8559 C   0  0  0  0  0  0  0  0  0  0  0  0
    8.7716    0.6352   24.6852 H   0  0  0  0  0  0  0  0  0  0  0  0
    8.0765   -0.9112   25.1650 H   0  0  0  0  0  0  0  0  0  0  0  0
    7.0516    0.8309   25.9741 C   0  0  0  0  0  0  0  0  0  0  0  0
    6.4671    0.1148   26.5544 H   0  0  0  0  0  0  0  0  0  0  0  0
    7.7675    1.2907   26.6591 H   0  0  0  0  0  0  0  0  0  0  0  0
    6.1260    1.9006   25.4318 C   0  0  0  0  0  3  0  0  0  0  0  0
    6.3822    2.9122   25.7435 H   0  0  0  0  0  0  0  0  0  0  0  0
    4.7870    1.6536   25.1144 C   0  0  2  0  0  0  0  0  0  0  0  0
    4.0823    2.4749   25.2480 H   0  0  0  0  0  0  0  0  0  0  0  0
    4.1161    0.3017   25.2273 C   0  0  0  0  0  0  0  0  0  0  0  0
    3.1310    0.3736   24.7571 H   0  0  0  0  0  0  0  0  0  0  0  0
    3.9497    0.0657   26.2850 H   0  0  0  0  0  0  0  0  0  0  0  0
    4.9119   -0.8293   24.5510 C   0  0  0  0  0  0  0  0  0  0  0  0
    5.5608   -1.3236   25.2756 H   0  0  0  0  0  0  0  0  0  0  0  0
    4.2128   -1.5815   24.1785 H   0  0  0  0  0  0  0  0  0  0  0  0
  1 39  1  0  0  0  0
  3  8  1  0  0  0  0
  3  5  1  0  0  0  0
  4  5  1  0  0  0  0
  4 20  1  0  0  0  0
  5 24  1  6  0  0  0
  6  7  2  0  0  0  0
  6  3  1  0  0  0  0
  7  4  1  0  0  0  0
  8 11  1  0  0  0  0
  8  9  1  0  0  0  0
 10  8  1  0  0  0  0
 12 15  1  0  0  0  0
 12  6  1  0  0  0  0
 13 12  1  0  0  0  0
 14 12  1  0  0  0  0
 16 18  1  0  0  0  0
 16  7  1  0  0  0  0
 17 16  1  0  0  0  0
 19 16  1  0  0  0  0
 20 21  1  0  0  0  0
 20 23  1  0  0  0  0
 22 20  1  0  0  0  0
 24 26  1  0  0  0  0
 24 25  1  0  0  0  0
 27 29  1  0  0  0  0
 27 44  1  0  0  0  0
 28 27  1  0  0  0  0
 29 31  1  0  0  0  0
 30 29  1  0  0  0  0
 31 33  1  0  0  0  0
 31 34  1  0  0  0  0
 32 31  1  0  0  0  0
 34 35  1  0  0  0  0
 34 36  1  0  0  0  0
 37 38  1  0  0  0  0
 37 34  1  0  0  0  0
 39 41  1  0  0  0  0
 39 40  1  1  0  0  0
 39 37  1  0  0  0  0
 41 43  1  0  0  0  0
 42 41  1  0  0  0  0
 44 41  1  0  0  0  0
 44 45  1  0  0  0  0
 46 44  1  0  0  0  0
M  END
$$$$
