CSD_code = BEXQIH | q = 0 | S = 0 | Stoichiometry = C17H25ClN4PdS | MND = 4
 OpenBabel04212202013D

 49 52  0  0  0  0  0  0  0  0999 V2000
    4.1332    4.2683   15.2421 Pd  0  0  2  0  0  0  0  0  0  0  0  0
    2.1979    6.9253   12.2972 S   0  0  0  0  0  0  0  0  0  0  0  0
    4.7797    2.2663   14.3201 Cl  0  0  0  0  0  0  0  0  0  0  0  0
    3.3822    4.9981   13.5024 N   0  0  0  0  0  0  0  0  0  0  0  0
    2.8763    6.7992   14.9171 N   0  0  0  0  0  0  0  0  0  0  0  0
    4.8343    3.5374   16.8364 C   0  0  0  0  0  2  0  0  0  0  0  0
    2.8703    6.2061   13.7204 C   0  0  0  0  0  0  0  0  0  0  0  0
    3.4933    6.5621   17.0898 N   0  0  0  0  0  0  0  0  0  0  0  0
    3.9396    6.0229   17.8193 H   0  0  0  0  0  0  0  0  0  0  0  0
    4.0483    8.7658   18.0060 C   0  0  0  0  0  0  0  0  0  0  0  0
    4.7972    8.9067   17.2248 H   0  0  0  0  0  0  0  0  0  0  0  0
    4.5373    8.2974   18.8648 H   0  0  0  0  0  0  0  0  0  0  0  0
    2.6483    5.5052   11.4033 C   0  0  0  0  0  0  0  0  0  0  0  0
    2.4336    5.4360   10.3576 H   0  0  0  0  0  0  0  0  0  0  0  0
    3.4530    6.0618   15.8551 C   0  0  0  0  0  0  0  0  0  0  0  0
    5.3330    2.8226   17.6101 N   0  0  0  0  0  2  0  0  0  0  0  0
    3.2578    4.6059   12.2056 C   0  0  0  0  0  0  0  0  0  0  0  0
    3.6372    3.6413   11.9088 H   0  0  0  0  0  0  0  0  0  0  0  0
    3.4620   10.1113   18.4241 C   0  0  0  0  0  0  0  0  0  0  0  0
    4.2561   10.7576   18.8024 H   0  0  0  0  0  0  0  0  0  0  0  0
    3.0202   10.5974   17.5521 H   0  0  0  0  0  0  0  0  0  0  0  0
    1.8734    7.6482   18.5667 C   0  0  0  0  0  0  0  0  0  0  0  0
    1.0855    6.9978   18.1828 H   0  0  0  0  0  0  0  0  0  0  0  0
    2.3229    7.1599   19.4360 H   0  0  0  0  0  0  0  0  0  0  0  0
    2.9412    7.8452   17.4893 C   0  0  0  0  0  0  0  0  0  0  0  0
    2.4906    8.2740   16.5907 H   0  0  0  0  0  0  0  0  0  0  0  0
    1.2895    8.9948   18.9843 C   0  0  0  0  0  0  0  0  0  0  0  0
    0.7980    9.4553   18.1252 H   0  0  0  0  0  0  0  0  0  0  0  0
    0.5375    8.8456   19.7614 H   0  0  0  0  0  0  0  0  0  0  0  0
    2.3909    9.9194   19.4936 C   0  0  0  0  0  0  0  0  0  0  0  0
    2.8443    9.4863   20.3884 H   0  0  0  0  0  0  0  0  0  0  0  0
    1.9653   10.8857   19.7697 H   0  0  0  0  0  0  0  0  0  0  0  0
    5.8311    1.7664   18.3820 C   0  0  0  0  0  0  0  0  0  0  0  0
    6.9254    1.7892   18.2971 H   0  0  0  0  0  0  0  0  0  0  0  0
    5.4278    1.9387   19.8495 C   0  0  0  0  0  0  0  0  0  0  0  0
    4.3379    1.9689   19.9170 H   0  0  0  0  0  0  0  0  0  0  0  0
    5.8195    2.8832   20.2338 H   0  0  0  0  0  0  0  0  0  0  0  0
    5.9644    0.7695   20.6702 C   0  0  0  0  0  0  0  0  0  0  0  0
    7.0563    0.7745   20.6372 H   0  0  0  0  0  0  0  0  0  0  0  0
    5.6611    0.8866   21.7119 H   0  0  0  0  0  0  0  0  0  0  0  0
    5.2990    0.4414   17.8242 C   0  0  0  0  0  0  0  0  0  0  0  0
    4.2076    0.4550   17.8652 H   0  0  0  0  0  0  0  0  0  0  0  0
    5.5908    0.3451   16.7773 H   0  0  0  0  0  0  0  0  0  0  0  0
    5.4455   -0.5559   20.1196 C   0  0  0  0  0  0  0  0  0  0  0  0
    5.8501   -1.3821   20.7063 H   0  0  0  0  0  0  0  0  0  0  0  0
    4.3573   -0.5837   20.2087 H   0  0  0  0  0  0  0  0  0  0  0  0
    5.8379   -0.7187   18.6535 C   0  0  0  0  0  0  0  0  0  0  0  0
    6.9264   -0.7542   18.5687 H   0  0  0  0  0  0  0  0  0  0  0  0
    5.4418   -1.6568   18.2630 H   0  0  0  0  0  0  0  0  0  0  0  0
  1  3  1  1  0  0  0
  1 15  2  0  0  0  0
  1  6  1  0  0  0  0
  2  7  1  0  0  0  0
  4  7  1  0  0  0  0
  4  1  1  0  0  0  0
  5 15  1  0  0  0  0
  6 16  1  0  0  0  0
  7  5  2  0  0  0  0
  8 25  1  0  0  0  0
  8  9  1  0  0  0  0
 10 19  1  0  0  0  0
 10 12  1  0  0  0  0
 11 10  1  0  0  0  0
 13 17  2  0  0  0  0
 13  2  1  0  0  0  0
 14 13  1  0  0  0  0
 15  8  1  0  0  0  0
 16 33  1  0  0  0  0
 17  4  1  0  0  0  0
 18 17  1  0  0  0  0
 19 20  1  0  0  0  0
 19 30  1  0  0  0  0
 21 19  1  0  0  0  0
 22 27  1  0  0  0  0
 22 24  1  0  0  0  0
 23 22  1  0  0  0  0
 25 10  1  0  0  0  0
 25 22  1  0  0  0  0
 26 25  1  0  0  0  0
 27 30  1  0  0  0  0
 27 29  1  0  0  0  0
 28 27  1  0  0  0  0
 30 32  1  0  0  0  0
 30 31  1  0  0  0  0
 33 35  1  0  0  0  0
 34 33  1  0  0  0  0
 35 36  1  0  0  0  0
 35 37  1  0  0  0  0
 35 38  1  0  0  0  0
 38 40  1  0  0  0  0
 39 38  1  0  0  0  0
 41 42  1  0  0  0  0
 41 33  1  0  0  0  0
 41 47  1  0  0  0  0
 43 41  1  0  0  0  0
 44 46  1  0  0  0  0
 44 38  1  0  0  0  0
 44 45  1  0  0  0  0
 47 44  1  0  0  0  0
 48 47  1  0  0  0  0
 49 47  1  0  0  0  0
M  END
$$$$
