CSD_code = BEXSUT | q = 0 | S = 0 | Stoichiometry = C16H21ClN2Pd | MND = 4
 OpenBabel04212202013D

 41 43  0  0  1  0  0  0  0  0999 V2000
    4.2321    0.6737   32.8359 Pd  0  0  2  0  0  0  0  0  0  0  0  0
    3.8310    2.7170   33.9170 Cl  0  0  0  0  0  0  0  0  0  0  0  0
    2.6938    0.9670   31.6611 N   0  0  0  0  0  0  0  0  0  0  0  0
    1.4351   -0.2333   33.3181 C   0  0  0  0  0  0  0  0  0  0  0  0
    2.0370   -1.1440   33.2005 H   0  0  0  0  0  0  0  0  0  0  0  0
    0.4158   -0.5026   33.5821 H   0  0  0  0  0  0  0  0  0  0  0  0
    1.8728    0.3677   34.1303 H   0  0  0  0  0  0  0  0  0  0  0  0
    6.1509   -3.0540   32.6230 C   0  0  0  0  0  0  0  0  0  0  0  0
    6.8301   -3.5764   33.2813 H   0  0  0  0  0  0  0  0  0  0  0  0
    4.7642   -1.1236   32.1205 C   0  0  0  0  0  0  0  0  0  0  0  0
    1.4828    0.5647   32.0522 C   0  0  1  0  0  3  0  0  0  0  0  0
    5.8376    0.3410   34.0504 N   0  0  0  0  0  4  0  0  0  0  0  0
    6.6573    0.7161   33.5613 H   0  0  0  0  0  0  0  0  0  0  0  0
    5.7394    0.8567   34.9288 H   0  0  0  0  0  0  0  0  0  0  0  0
    0.3527    0.8969   31.3222 C   0  0  0  0  0  0  0  0  0  0  0  0
   -0.6178    0.5618   31.6546 H   0  0  0  0  0  0  0  0  0  0  0  0
    1.7456    2.0926   29.8079 C   0  0  0  0  0  0  0  0  0  0  0  0
    1.8830    2.7114   28.9345 H   0  0  0  0  0  0  0  0  0  0  0  0
    0.4711    1.6714   30.1735 C   0  0  0  0  0  0  0  0  0  0  0  0
    4.8963   -2.9921   30.5847 C   0  0  0  0  0  0  0  0  0  0  0  0
    4.5961   -3.4538   29.6541 H   0  0  0  0  0  0  0  0  0  0  0  0
    2.8408    1.7297   30.5747 C   0  0  0  0  0  0  0  0  0  0  0  0
    4.4005   -1.7430   30.9290 C   0  0  0  0  0  0  0  0  0  0  0  0
    3.7091   -1.2528   30.2513 H   0  0  0  0  0  0  0  0  0  0  0  0
    4.2365    2.1797   30.2741 C   0  0  0  0  0  0  0  0  0  0  0  0
    4.5770    2.8249   31.0967 H   0  0  0  0  0  0  0  0  0  0  0  0
    4.2856    2.7363   29.3420 H   0  0  0  0  0  0  0  0  0  0  0  0
    4.9051    1.3083   30.2211 H   0  0  0  0  0  0  0  0  0  0  0  0
    6.0134   -1.1093   34.2701 C   0  0  1  0  0  0  0  0  0  0  0  0
    5.2800   -1.4107   35.0347 H   0  0  0  0  0  0  0  0  0  0  0  0
   -0.7234    2.0327   29.3513 C   0  0  0  0  0  0  0  0  0  0  0  0
   -0.6292    3.0422   28.9584 H   0  0  0  0  0  0  0  0  0  0  0  0
   -1.6355    1.9614   29.9379 H   0  0  0  0  0  0  0  0  0  0  0  0
   -0.8077    1.3501   28.5052 H   0  0  0  0  0  0  0  0  0  0  0  0
    5.6583   -1.8044   32.9654 C   0  0  0  0  0  0  0  0  0  0  0  0
    5.7707   -3.6479   31.4310 C   0  0  0  0  0  0  0  0  0  0  0  0
    6.1575   -4.6217   31.1674 H   0  0  0  0  0  0  0  0  0  0  0  0
    7.4218   -1.4058   34.7861 C   0  0  0  0  0  0  0  0  0  0  0  0
    7.5084   -2.4400   35.1058 H   0  0  0  0  0  0  0  0  0  0  0  0
    7.6501   -0.7711   35.6417 H   0  0  0  0  0  0  0  0  0  0  0  0
    8.1584   -1.2225   34.0053 H   0  0  0  0  0  0  0  0  0  0  0  0
  1  2  1  1  0  0  0
  1 12  1  0  0  0  0
  3 11  1  0  0  0  0
  3  1  1  0  0  0  0
  4  6  1  0  0  0  0
  4  7  1  0  0  0  0
  5  4  1  0  0  0  0
  8 35  1  0  0  0  0
  8  9  1  0  0  0  0
 10  1  1  0  0  0  0
 10 35  2  0  0  0  0
 11  4  1  1  0  0  0
 12 29  1  0  0  0  0
 12 14  1  0  0  0  0
 13 12  1  0  0  0  0
 15 16  1  0  0  0  0
 15 11  1  0  0  0  0
 17 19  1  0  0  0  0
 17 22  2  0  0  0  0
 18 17  1  0  0  0  0
 19 15  2  0  0  0  0
 20 23  2  0  0  0  0
 20 36  1  0  0  0  0
 21 20  1  0  0  0  0
 22  3  1  0  0  0  0
 23 10  1  0  0  0  0
 24 23  1  0  0  0  0
 25 22  1  0  0  0  0
 25 26  1  0  0  0  0
 27 25  1  0  0  0  0
 28 25  1  0  0  0  0
 29 38  1  0  0  0  0
 29 30  1  1  0  0  0
 31 33  1  0  0  0  0
 31 19  1  0  0  0  0
 32 31  1  0  0  0  0
 34 31  1  0  0  0  0
 35 29  1  0  0  0  0
 36  8  2  0  0  0  0
 37 36  1  0  0  0  0
 38 39  1  0  0  0  0
 38 40  1  0  0  0  0
 41 38  1  0  0  0  0
M  END
$$$$
