CSD_code = BEXTOO | q = 0 | S = 0 | Stoichiometry = C15H19ClN2Pd | MND = 4
 OpenBabel04212202013D

 38 40  0  0  1  0  0  0  0  0999 V2000
   17.6843    7.6899   -3.2473 Pd  0  0  1  0  0  0  0  0  0  0  0  0
   19.9824    7.3363   -2.9387 Cl  0  0  0  0  0  0  0  0  0  0  0  0
   18.0391    8.3772   -5.1555 N   0  0  0  0  0  4  0  0  0  0  0  0
   18.0370    9.4001   -5.1543 H   0  0  0  0  0  0  0  0  0  0  0  0
   18.9538    8.0592   -5.4865 H   0  0  0  0  0  0  0  0  0  0  0  0
   17.0517    4.8887   -2.2900 C   0  0  0  0  0  0  0  0  0  0  0  0
   17.9954    4.9728   -2.8480 H   0  0  0  0  0  0  0  0  0  0  0  0
   16.2241    5.1752   -2.9506 H   0  0  0  0  0  0  0  0  0  0  0  0
   16.9185    3.8594   -1.9680 H   0  0  0  0  0  0  0  0  0  0  0  0
   17.1049    5.8249   -1.1247 C   0  0  1  0  0  3  0  0  0  0  0  0
   16.9685    5.4016    0.1897 C   0  0  0  0  0  0  0  0  0  0  0  0
   16.8002    4.3583    0.4046 H   0  0  0  0  0  0  0  0  0  0  0  0
   17.0607    6.3314    1.2122 C   0  0  0  0  0  0  0  0  0  0  0  0
   16.9586    6.0258    2.2422 H   0  0  0  0  0  0  0  0  0  0  0  0
   17.2992    7.6579    0.8921 C   0  0  0  0  0  0  0  0  0  0  0  0
   17.3944    8.4040    1.6652 H   0  0  0  0  0  0  0  0  0  0  0  0
   17.7193    9.4245   -0.8741 C   0  0  0  0  0  0  0  0  0  0  0  0
   18.6912    9.4347   -1.3902 H   0  0  0  0  0  0  0  0  0  0  0  0
   17.7610   10.1018   -0.0249 H   0  0  0  0  0  0  0  0  0  0  0  0
   16.9485    9.7667   -1.5807 H   0  0  0  0  0  0  0  0  0  0  0  0
   17.4254    8.0219   -0.4410 C   0  0  0  0  0  0  0  0  0  0  0  0
   15.7793    7.9830   -3.7993 C   0  0  0  0  0  0  0  0  0  0  0  0
   15.6635    8.0510   -5.1970 C   0  0  0  0  0  0  0  0  0  0  0  0
   16.9416    7.8451   -5.9812 C   0  0  2  0  0  0  0  0  0  0  0  0
   16.8951    8.3474   -6.9613 H   0  0  0  0  0  0  0  0  0  0  0  0
   13.3008    8.4169   -5.0426 C   0  0  0  0  0  0  0  0  0  0  0  0
   12.3450    8.5841   -5.5178 H   0  0  0  0  0  0  0  0  0  0  0  0
   14.4416    8.2663   -5.8130 C   0  0  0  0  0  0  0  0  0  0  0  0
   14.3798    8.3165   -6.8922 H   0  0  0  0  0  0  0  0  0  0  0  0
   14.6188    8.1416   -3.0503 C   0  0  0  0  0  0  0  0  0  0  0  0
   14.6579    8.0931   -1.9669 H   0  0  0  0  0  0  0  0  0  0  0  0
   17.1995    6.3493   -6.1827 C   0  0  0  0  0  0  0  0  0  0  0  0
   18.0703    6.1873   -6.8165 H   0  0  0  0  0  0  0  0  0  0  0  0
   16.3370    5.8733   -6.6420 H   0  0  0  0  0  0  0  0  0  0  0  0
   17.3825    5.8924   -5.1990 H   0  0  0  0  0  0  0  0  0  0  0  0
   13.3921    8.3537   -3.6638 C   0  0  0  0  0  0  0  0  0  0  0  0
   12.5029    8.4706   -3.0597 H   0  0  0  0  0  0  0  0  0  0  0  0
   17.3107    7.1117   -1.4136 N   0  0  0  0  0  0  0  0  0  0  0  0
  1  2  1  6  0  0  0
  1 38  1  0  0  0  0
  3  4  1  0  0  0  0
  3  1  1  0  0  0  0
  5  3  1  0  0  0  0
  6  9  1  0  0  0  0
  7  6  1  0  0  0  0
  8  6  1  0  0  0  0
 10  6  1  1  0  0  0
 10 11  1  0  0  0  0
 11 12  1  0  0  0  0
 11 13  2  0  0  0  0
 13 14  1  0  0  0  0
 15 13  1  0  0  0  0
 15 16  1  0  0  0  0
 17 21  1  0  0  0  0
 17 19  1  0  0  0  0
 18 17  1  0  0  0  0
 20 17  1  0  0  0  0
 21 15  2  0  0  0  0
 22  1  1  0  0  0  0
 22 30  1  0  0  0  0
 23 22  2  0  0  0  0
 24 25  1  6  0  0  0
 24 23  1  0  0  0  0
 24  3  1  0  0  0  0
 26 36  1  0  0  0  0
 27 26  1  0  0  0  0
 28 23  1  0  0  0  0
 28 26  2  0  0  0  0
 29 28  1  0  0  0  0
 30 31  1  0  0  0  0
 32 24  1  0  0  0  0
 32 35  1  0  0  0  0
 33 32  1  0  0  0  0
 34 32  1  0  0  0  0
 36 37  1  0  0  0  0
 36 30  2  0  0  0  0
 38 10  1  0  0  0  0
 38 21  1  0  0  0  0
M  END
$$$$
