CSD_code = BEXTAA | q = 0 | S = 0 | Stoichiometry = C16H21ClN2Pd | MND = 4
 OpenBabel04212202013D

 41 43  0  0  1  0  0  0  0  0999 V2000
    7.3386   -1.4990    4.6533 Pd  0  0  2  0  0  0  0  0  0  0  0  0
    7.3850   -1.0328    6.9521 Cl  0  0  0  0  0  0  0  0  0  0  0  0
    8.8034   -2.7897    4.8571 N   0  0  0  0  0  0  0  0  0  0  0  0
    8.5627   -4.0661    5.1662 C   0  0  1  0  0  3  0  0  0  0  0  0
    5.8521   -0.0989    4.3928 N   0  0  0  0  0  4  0  0  0  0  0  0
    5.3853    0.0961    5.2825 H   0  0  0  0  0  0  0  0  0  0  0  0
    6.2617    0.7728    4.0482 H   0  0  0  0  0  0  0  0  0  0  0  0
    9.5978   -4.9362    5.4641 C   0  0  0  0  0  0  0  0  0  0  0  0
    9.3805   -5.9639    5.7114 H   0  0  0  0  0  0  0  0  0  0  0  0
   11.1274   -3.1432    5.1523 C   0  0  0  0  0  0  0  0  0  0  0  0
   12.1279   -2.7388    5.1517 H   0  0  0  0  0  0  0  0  0  0  0  0
   10.9129   -4.4817    5.4571 C   0  0  0  0  0  0  0  0  0  0  0  0
   10.0529   -2.3167    4.8614 C   0  0  0  0  0  0  0  0  0  0  0  0
    7.0306   -1.7787    2.6923 C   0  0  0  0  0  0  0  0  0  0  0  0
   10.2119   -0.8570    4.5677 C   0  0  0  0  0  0  0  0  0  0  0  0
    9.7303   -0.6143    3.6088 H   0  0  0  0  0  0  0  0  0  0  0  0
   11.2598   -0.5700    4.5328 H   0  0  0  0  0  0  0  0  0  0  0  0
    9.7091   -0.2853    5.3620 H   0  0  0  0  0  0  0  0  0  0  0  0
   12.0452   -5.4078    5.7624 C   0  0  0  0  0  0  0  0  0  0  0  0
   11.8155   -6.0167    6.6343 H   0  0  0  0  0  0  0  0  0  0  0  0
   12.9626   -4.8554    5.9465 H   0  0  0  0  0  0  0  0  0  0  0  0
   12.2103   -6.0805    4.9207 H   0  0  0  0  0  0  0  0  0  0  0  0
    5.7830   -1.2668    2.3003 C   0  0  0  0  0  0  0  0  0  0  0  0
    7.8287   -2.3482    1.7064 C   0  0  0  0  0  0  0  0  0  0  0  0
    8.7991   -2.7609    1.9622 H   0  0  0  0  0  0  0  0  0  0  0  0
    7.1242   -4.4766    5.1902 C   0  0  0  0  0  0  0  0  0  0  0  0
    6.5968   -3.8529    5.9259 H   0  0  0  0  0  0  0  0  0  0  0  0
    7.0126   -5.5222    5.4644 H   0  0  0  0  0  0  0  0  0  0  0  0
    6.6804   -4.3079    4.2014 H   0  0  0  0  0  0  0  0  0  0  0  0
    5.3570   -1.3246    0.9836 C   0  0  0  0  0  0  0  0  0  0  0  0
    4.3917   -0.9206    0.7076 H   0  0  0  0  0  0  0  0  0  0  0  0
    6.1712   -1.9003    0.0227 C   0  0  0  0  0  0  0  0  0  0  0  0
    5.8440   -1.9481   -1.0059 H   0  0  0  0  0  0  0  0  0  0  0  0
    4.9290   -0.6797    3.4035 C   0  0  1  0  0  0  0  0  0  0  0  0
    4.2314    0.0776    3.0098 H   0  0  0  0  0  0  0  0  0  0  0  0
    7.4040   -2.4110    0.3865 C   0  0  0  0  0  0  0  0  0  0  0  0
    8.0418   -2.8615   -0.3617 H   0  0  0  0  0  0  0  0  0  0  0  0
    4.1401   -1.7893    4.1043 C   0  0  0  0  0  0  0  0  0  0  0  0
    3.5650   -2.3618    3.3810 H   0  0  0  0  0  0  0  0  0  0  0  0
    3.4594   -1.3731    4.8457 H   0  0  0  0  0  0  0  0  0  0  0  0
    4.8536   -2.4576    4.6083 H   0  0  0  0  0  0  0  0  0  0  0  0
  1  3  1  0  0  0  0
  1  2  1  1  0  0  0
  3 13  1  0  0  0  0
  3  4  1  0  0  0  0
  4 26  1  1  0  0  0
  4  8  1  0  0  0  0
  5  1  1  0  0  0  0
  5  6  1  0  0  0  0
  7  5  1  0  0  0  0
  8  9  1  0  0  0  0
 10 12  1  0  0  0  0
 11 10  1  0  0  0  0
 12  8  2  0  0  0  0
 12 19  1  0  0  0  0
 13 10  2  0  0  0  0
 14  1  1  0  0  0  0
 15 13  1  0  0  0  0
 15 18  1  0  0  0  0
 16 15  1  0  0  0  0
 17 15  1  0  0  0  0
 19 21  1  0  0  0  0
 19 20  1  0  0  0  0
 22 19  1  0  0  0  0
 23 14  1  0  0  0  0
 23 34  1  0  0  0  0
 24 25  1  0  0  0  0
 24 14  2  0  0  0  0
 26 28  1  0  0  0  0
 26 27  1  0  0  0  0
 29 26  1  0  0  0  0
 30 23  2  0  0  0  0
 31 30  1  0  0  0  0
 32 36  2  0  0  0  0
 32 30  1  0  0  0  0
 33 32  1  0  0  0  0
 34 35  1  6  0  0  0
 34 38  1  0  0  0  0
 34  5  1  0  0  0  0
 36 24  1  0  0  0  0
 37 36  1  0  0  0  0
 38 41  1  0  0  0  0
 38 40  1  0  0  0  0
 39 38  1  0  0  0  0
M  END
$$$$
