CSD_code = BEXTUU | q = 0 | S = 0 | Stoichiometry = C16H21ClN2Pd | MND = 4
 OpenBabel04212202013D

 41 43  0  0  1  0  0  0  0  0999 V2000
   -0.6882    3.3003   12.6145 Pd  0  0  2  0  0  0  0  0  0  0  0  0
    0.2699    5.3806   13.1156 Cl  0  0  0  0  0  0  0  0  0  0  0  0
    0.5248    3.0539   11.0922 N   0  0  0  0  0  0  0  0  0  0  0  0
   -2.0396    3.5408   14.1501 N   0  0  0  0  0  4  0  0  0  0  0  0
   -1.7015    4.2370   14.8197 H   0  0  0  0  0  0  0  0  0  0  0  0
   -2.9320    3.8673   13.7713 H   0  0  0  0  0  0  0  0  0  0  0  0
   -0.9018    1.9361   15.5644 C   0  0  0  0  0  0  0  0  0  0  0  0
   -0.0364    2.1272   14.9129 H   0  0  0  0  0  0  0  0  0  0  0  0
   -0.8759    0.9017   15.8975 H   0  0  0  0  0  0  0  0  0  0  0  0
   -0.8413    2.5880   16.4348 H   0  0  0  0  0  0  0  0  0  0  0  0
   -2.1789    2.2100   14.7653 C   0  0  2  0  0  0  0  0  0  0  0  0
   -3.0521    2.1660   15.4368 H   0  0  0  0  0  0  0  0  0  0  0  0
   -2.3061    1.2141   13.6325 C   0  0  0  0  0  0  0  0  0  0  0  0
   -3.0392    0.0448   13.7510 C   0  0  0  0  0  0  0  0  0  0  0  0
   -3.5650   -0.1748   14.6710 H   0  0  0  0  0  0  0  0  0  0  0  0
   -3.0951   -0.8419   12.6888 C   0  0  0  0  0  0  0  0  0  0  0  0
   -3.6638   -1.7564   12.7765 H   0  0  0  0  0  0  0  0  0  0  0  0
   -2.4201   -0.5506   11.5171 C   0  0  0  0  0  0  0  0  0  0  0  0
   -2.4616   -1.2415   10.6862 H   0  0  0  0  0  0  0  0  0  0  0  0
    1.0398    3.5638    8.8373 C   0  0  0  0  0  0  0  0  0  0  0  0
    0.7423    4.0123    7.9019 H   0  0  0  0  0  0  0  0  0  0  0  0
   -1.6903    0.6241   11.4007 C   0  0  0  0  0  0  0  0  0  0  0  0
   -1.1682    0.8231   10.4705 H   0  0  0  0  0  0  0  0  0  0  0  0
   -1.6131    1.5300   12.4528 C   0  0  0  0  0  0  0  0  0  0  0  0
    2.0286    1.9562   12.6109 C   0  0  0  0  0  0  0  0  0  0  0  0
    1.9293    2.7780   13.3345 H   0  0  0  0  0  0  0  0  0  0  0  0
    3.0361    1.5525   12.6652 H   0  0  0  0  0  0  0  0  0  0  0  0
    1.3062    1.1714   12.8664 H   0  0  0  0  0  0  0  0  0  0  0  0
    1.7226    2.4866   11.2458 C   0  0  2  0  0  3  0  0  0  0  0  0
    2.6216    2.4185   10.1934 C   0  0  0  0  0  0  0  0  0  0  0  0
    3.5838    1.9527   10.3408 H   0  0  0  0  0  0  0  0  0  0  0  0
    2.2858    2.9573    8.9567 C   0  0  0  0  0  0  0  0  0  0  0  0
    0.1800    3.6028    9.9229 C   0  0  0  0  0  0  0  0  0  0  0  0
   -1.1589    4.2714    9.8722 C   0  0  0  0  0  0  0  0  0  0  0  0
   -1.9435    3.5566   10.1617 H   0  0  0  0  0  0  0  0  0  0  0  0
   -1.3710    4.6626    8.8804 H   0  0  0  0  0  0  0  0  0  0  0  0
   -1.1626    5.1012   10.5950 H   0  0  0  0  0  0  0  0  0  0  0  0
    3.2196    2.8754    7.7930 C   0  0  0  0  0  0  0  0  0  0  0  0
    4.2503    2.7896    8.1272 H   0  0  0  0  0  0  0  0  0  0  0  0
    3.1214    3.7514    7.1566 H   0  0  0  0  0  0  0  0  0  0  0  0
    2.9827    1.9957    7.1935 H   0  0  0  0  0  0  0  0  0  0  0  0
  1  2  1  1  0  0  0
  1  4  1  0  0  0  0
  3 29  1  0  0  0  0
  3  1  1  0  0  0  0
  4 11  1  0  0  0  0
  4  5  1  0  0  0  0
  6  4  1  0  0  0  0
  7  9  1  0  0  0  0
  7 10  1  0  0  0  0
  8  7  1  0  0  0  0
 11 12  1  1  0  0  0
 11  7  1  0  0  0  0
 13 14  1  0  0  0  0
 13 11  1  0  0  0  0
 14 15  1  0  0  0  0
 16 17  1  0  0  0  0
 16 14  2  0  0  0  0
 18 16  1  0  0  0  0
 19 18  1  0  0  0  0
 20 32  1  0  0  0  0
 20 33  2  0  0  0  0
 21 20  1  0  0  0  0
 22 18  2  0  0  0  0
 22 24  1  0  0  0  0
 23 22  1  0  0  0  0
 24  1  1  0  0  0  0
 24 13  2  0  0  0  0
 25 27  1  0  0  0  0
 25 28  1  0  0  0  0
 25 26  1  0  0  0  0
 29 25  1  1  0  0  0
 30 31  1  0  0  0  0
 30 29  1  0  0  0  0
 32 30  2  0  0  0  0
 33  3  1  0  0  0  0
 34 33  1  0  0  0  0
 34 35  1  0  0  0  0
 34 37  1  0  0  0  0
 36 34  1  0  0  0  0
 38 39  1  0  0  0  0
 38 32  1  0  0  0  0
 40 38  1  0  0  0  0
 41 38  1  0  0  0  0
M  END
$$$$
