CSD_code = BEXWIM | q = 0 | S = 0 | Stoichiometry = C22H35Cl3Ti | MND = 8
 OpenBabel04212202013D

 61 62  0  0  1  0  0  0  0  0999 V2000
    5.3970    6.2980    4.3251 Ti  0  0  0  0  0  0  0  0  0  0  0  0
    7.4260    6.0009    3.6445 Cl  0  0  0  0  0  0  0  0  0  0  0  0
    5.6080    5.5691    6.3465 Cl  0  0  0  0  0  0  0  0  0  0  0  0
    5.5161    8.4159    4.7400 Cl  0  0  0  0  0  0  0  0  0  0  0  0
    3.4352    6.7141    3.3172 C   0  0  2  0  0  0  0  0  0  0  0  0
    3.2294    5.6395    4.2331 C   0  0  2  0  0  3  0  0  0  0  0  0
    4.0340    4.5417    3.8124 C   0  0  0  0  0  0  0  0  0  0  0  0
    4.7249    4.9286    2.6287 C   0  0  0  0  0  0  0  0  0  0  0  0
    4.3650    6.2751    2.3297 C   0  0  2  0  0  3  0  0  0  0  0  0
    4.9071    7.0734    1.1749 C   0  0  0  0  0  0  0  0  0  0  0  0
    5.4318    6.3835    0.5131 H   0  0  0  0  0  0  0  0  0  0  0  0
    5.6390    7.7982    1.5555 H   0  0  0  0  0  0  0  0  0  0  0  0
    3.8190    7.8310    0.3748 C   0  0  2  0  0  0  0  0  0  0  0  0
    3.6110    8.7677    0.8926 H   0  0  0  0  0  0  0  0  0  0  0  0
    2.5576    7.0153    0.3375 C   0  0  0  0  0  0  0  0  0  0  0  0
    2.4877    6.3290   -0.4956 H   0  0  0  0  0  0  0  0  0  0  0  0
    1.5542    6.9976    1.2056 C   0  0  0  0  0  0  0  0  0  0  0  0
    0.7431    6.3141    0.9829 H   0  0  0  0  0  0  0  0  0  0  0  0
    1.3388    7.7422    2.5011 C   0  0  1  0  0  0  0  0  0  0  0  0
    0.7456    7.0624    3.1268 H   0  0  0  0  0  0  0  0  0  0  0  0
    2.6480    7.9902    3.2817 C   0  0  0  0  0  0  0  0  0  0  0  0
    3.2425    8.7853    2.8371 H   0  0  0  0  0  0  0  0  0  0  0  0
    2.4025    8.2954    4.3015 H   0  0  0  0  0  0  0  0  0  0  0  0
    2.2714    5.6200    5.3873 C   0  0  0  0  0  0  0  0  0  0  0  0
    1.3991    5.0104    5.1420 H   0  0  0  0  0  0  0  0  0  0  0  0
    1.9335    6.6264    5.6284 H   0  0  0  0  0  0  0  0  0  0  0  0
    2.7442    5.1966    6.2750 H   0  0  0  0  0  0  0  0  0  0  0  0
    4.0709    3.1838    4.4480 C   0  0  0  0  0  0  0  0  0  0  0  0
    3.4190    2.4956    3.9051 H   0  0  0  0  0  0  0  0  0  0  0  0
    3.7325    3.2352    5.4811 H   0  0  0  0  0  0  0  0  0  0  0  0
    5.0836    2.7785    4.4401 H   0  0  0  0  0  0  0  0  0  0  0  0
    5.5604    4.0337    1.7607 C   0  0  0  0  0  0  0  0  0  0  0  0
    6.5332    4.4805    1.5506 H   0  0  0  0  0  0  0  0  0  0  0  0
    5.0471    3.8579    0.8131 H   0  0  0  0  0  0  0  0  0  0  0  0
    5.7237    3.0732    2.2445 H   0  0  0  0  0  0  0  0  0  0  0  0
    4.3092    8.2394   -1.0419 C   0  0  0  0  0  0  0  0  0  0  0  0
    5.5784    9.0894   -0.9126 C   0  0  0  0  0  0  0  0  0  0  0  0
    5.8299    9.5302   -1.8749 H   0  0  0  0  0  0  0  0  0  0  0  0
    6.4247    8.4906   -0.5874 H   0  0  0  0  0  0  0  0  0  0  0  0
    5.4321    9.8979   -0.1995 H   0  0  0  0  0  0  0  0  0  0  0  0
    3.2196    9.0958   -1.6982 C   0  0  0  0  0  0  0  0  0  0  0  0
    3.5060    9.3582   -2.7142 H   0  0  0  0  0  0  0  0  0  0  0  0
    3.0690   10.0180   -1.1414 H   0  0  0  0  0  0  0  0  0  0  0  0
    2.2756    8.5566   -1.7380 H   0  0  0  0  0  0  0  0  0  0  0  0
    4.6089    7.0515   -1.9610 C   0  0  0  0  0  0  0  0  0  0  0  0
    5.0077    7.4195   -2.9039 H   0  0  0  0  0  0  0  0  0  0  0  0
    3.7114    6.4807   -2.1833 H   0  0  0  0  0  0  0  0  0  0  0  0
    5.3476    6.3810   -1.5302 H   0  0  0  0  0  0  0  0  0  0  0  0
    0.4620    9.0146    2.3222 C   0  0  0  0  0  0  0  0  0  0  0  0
    0.1484    9.6308    3.6893 C   0  0  0  0  0  0  0  0  0  0  0  0
   -0.5792   10.4314    3.5744 H   0  0  0  0  0  0  0  0  0  0  0  0
    1.0381   10.0548    4.1466 H   0  0  0  0  0  0  0  0  0  0  0  0
   -0.2718    8.8870    4.3633 H   0  0  0  0  0  0  0  0  0  0  0  0
   -0.8607    8.6072    1.6612 C   0  0  0  0  0  0  0  0  0  0  0  0
   -1.5289    9.4635    1.6024 H   0  0  0  0  0  0  0  0  0  0  0  0
   -1.3573    7.8282    2.2358 H   0  0  0  0  0  0  0  0  0  0  0  0
   -0.6914    8.2404    0.6523 H   0  0  0  0  0  0  0  0  0  0  0  0
    1.1394   10.0636    1.4423 C   0  0  0  0  0  0  0  0  0  0  0  0
    0.4694   10.9081    1.2951 H   0  0  0  0  0  0  0  0  0  0  0  0
    1.3771    9.6429    0.4700 H   0  0  0  0  0  0  0  0  0  0  0  0
    2.0496   10.4390    1.9029 H   0  0  0  0  0  0  0  0  0  0  0  0
  1  4  1  0  0  0  0
  1  3  1  0  0  0  0
  2  1  1  0  0  0  0
  5  6  1  0  0  0  0
  5  1  1  1  0  0  0
  6 24  1  6  0  0  0
  7  6  1  0  0  0  0
  7 28  1  0  0  0  0
  8  7  2  0  0  0  0
  9  8  1  1  0  0  0
  9  5  1  0  0  0  0
 10 12  1  0  0  0  0
 10  9  1  0  0  0  0
 11 10  1  0  0  0  0
 13 14  1  1  0  0  0
 13 10  1  0  0  0  0
 15 13  1  0  0  0  0
 15 17  2  0  0  0  0
 16 15  1  0  0  0  0
 17 19  1  0  0  0  0
 18 17  1  0  0  0  0
 19 20  1  1  0  0  0
 19 21  1  0  0  0  0
 21  5  1  0  0  0  0
 21 23  1  0  0  0  0
 22 21  1  0  0  0  0
 24 26  1  0  0  0  0
 24 27  1  0  0  0  0
 25 24  1  0  0  0  0
 28 30  1  0  0  0  0
 29 28  1  0  0  0  0
 31 28  1  0  0  0  0
 32 35  1  0  0  0  0
 32  8  1  0  0  0  0
 33 32  1  0  0  0  0
 34 32  1  0  0  0  0
 36 37  1  0  0  0  0
 36 13  1  0  0  0  0
 37 39  1  0  0  0  0
 37 40  1  0  0  0  0
 38 37  1  0  0  0  0
 41 43  1  0  0  0  0
 41 36  1  0  0  0  0
 42 41  1  0  0  0  0
 44 41  1  0  0  0  0
 45 48  1  0  0  0  0
 45 36  1  0  0  0  0
 46 45  1  0  0  0  0
 47 45  1  0  0  0  0
 49 19  1  0  0  0  0
 49 50  1  0  0  0  0
 50 52  1  0  0  0  0
 50 53  1  0  0  0  0
 51 50  1  0  0  0  0
 54 56  1  0  0  0  0
 54 49  1  0  0  0  0
 55 54  1  0  0  0  0
 57 54  1  0  0  0  0
 58 61  1  0  0  0  0
 58 49  1  0  0  0  0
 59 58  1  0  0  0  0
 60 58  1  0  0  0  0
M  END
$$$$
