CSD_code = BEYGUH | q = 0 | S = 0 | Stoichiometry = C44H42Cl2O2P2Ru | MND = 6
 OpenBabel04212202013D

 93 98  0  0  0  0  0  0  0  0999 V2000
   -0.0000    0.0006    0.0001 Ru  0  0  0  0  0  0  0  0  0  0  0  0
   -1.7481   -0.2057    1.6282 Cl  0  0  0  0  0  0  0  0  0  0  0  0
    1.3992   -0.7100    1.0275 C   0  0  0  0  0  2  0  0  0  0  0  0
    2.3679   -1.1613    1.4237 O   0  0  0  0  0  1  0  0  0  0  0  0
    0.3396    2.0965    0.9873 P   0  0  0  0  0  4  0  0  0  0  0  0
    0.5348    2.1754    2.8262 C   0  0  0  0  0  0  0  0  0  0  0  0
    1.3752    1.1009    3.4505 C   0  0  0  0  0  0  0  0  0  0  0  0
    2.7139    1.3153    3.7538 C   0  0  0  0  0  0  0  0  0  0  0  0
    3.4738    0.3154    4.3327 C   0  0  0  0  0  0  0  0  0  0  0  0
    2.9023   -0.9075    4.6393 C   0  0  0  0  0  0  0  0  0  0  0  0
    1.5592   -1.1163    4.3803 C   0  0  0  0  0  0  0  0  0  0  0  0
    0.8000   -0.1205    3.7905 C   0  0  0  0  0  0  0  0  0  0  0  0
   -1.1394    3.1972    0.7531 C   0  0  0  0  0  0  0  0  0  0  0  0
   -1.0453    4.5375    1.4111 C   0  0  0  0  0  0  0  0  0  0  0  0
   -1.4473    4.7204    2.7303 C   0  0  0  0  0  0  0  0  0  0  0  0
   -1.3364    5.9579    3.3381 C   0  0  0  0  0  0  0  0  0  0  0  0
   -0.8286    7.0374    2.6353 C   0  0  0  0  0  0  0  0  0  0  0  0
   -0.4578    6.8767    1.3116 C   0  0  0  0  0  0  0  0  0  0  0  0
   -0.5705    5.6386    0.7037 C   0  0  0  0  0  0  0  0  0  0  0  0
    1.6832    3.1560    0.2830 C   0  0  0  0  0  0  0  0  0  0  0  0
    3.0297    2.9995    0.9183 C   0  0  0  0  0  0  0  0  0  0  0  0
    3.7991    1.8641    0.6970 C   0  0  0  0  0  0  0  0  0  0  0  0
    5.0509    1.7422    1.2712 C   0  0  0  0  0  0  0  0  0  0  0  0
    5.5558    2.7586    2.0647 C   0  0  0  0  0  0  0  0  0  0  0  0
    4.8008    3.8987    2.2824 C   0  0  0  0  0  0  0  0  0  0  0  0
    3.5425    4.0162    1.7163 C   0  0  0  0  0  0  0  0  0  0  0  0
    0.9292    3.1709    3.0553 H   0  0  0  0  0  0  0  0  0  0  0  0
   -0.4866    2.0877    3.2089 H   0  0  0  0  0  0  0  0  0  0  0  0
    3.1636    2.2729    3.5455 H   0  0  0  0  0  0  0  0  0  0  0  0
    4.5164    0.4977    4.5480 H   0  0  0  0  0  0  0  0  0  0  0  0
    3.4975   -1.6882    5.0897 H   0  0  0  0  0  0  0  0  0  0  0  0
    1.0962   -2.0585    4.6359 H   0  0  0  0  0  0  0  0  0  0  0  0
   -0.2496   -0.2908    3.6012 H   0  0  0  0  0  0  0  0  0  0  0  0
   -1.2571    3.3163   -0.3300 H   0  0  0  0  0  0  0  0  0  0  0  0
   -1.9928    2.6279    1.1391 H   0  0  0  0  0  0  0  0  0  0  0  0
   -1.8693    3.8927    3.2806 H   0  0  0  0  0  0  0  0  0  0  0  0
   -1.6524    6.0804    4.3635 H   0  0  0  0  0  0  0  0  0  0  0  0
   -0.7384    8.0023    3.1110 H   0  0  0  0  0  0  0  0  0  0  0  0
   -0.0843    7.7185    0.7471 H   0  0  0  0  0  0  0  0  0  0  0  0
   -0.3102    5.5332   -0.3408 H   0  0  0  0  0  0  0  0  0  0  0  0
    1.7356    2.8909   -0.7801 H   0  0  0  0  0  0  0  0  0  0  0  0
    1.3503    4.1930    0.3840 H   0  0  0  0  0  0  0  0  0  0  0  0
    3.4212    1.0853    0.0523 H   0  0  0  0  0  0  0  0  0  0  0  0
    5.6359    0.8523    1.0933 H   0  0  0  0  0  0  0  0  0  0  0  0
    6.5359    2.6662    2.5088 H   0  0  0  0  0  0  0  0  0  0  0  0
    5.1897    4.6985    2.8960 H   0  0  0  0  0  0  0  0  0  0  0  0
    2.9558    4.9089    1.8912 H   0  0  0  0  0  0  0  0  0  0  0  0
    1.7480    0.2048   -1.6278 Cl  0  0  0  0  0  0  0  0  0  0  0  0
   -1.3990    0.7107   -1.0278 C   0  0  0  0  0  2  0  0  0  0  0  0
   -0.3394   -2.0958   -0.9869 P   0  0  0  0  0  4  0  0  0  0  0  0
   -2.3680    1.1611   -1.4242 O   0  0  0  0  0  1  0  0  0  0  0  0
   -0.5347   -2.1753   -2.8259 C   0  0  0  0  0  0  0  0  0  0  0  0
    1.1393   -3.1971   -0.7532 C   0  0  0  0  0  0  0  0  0  0  0  0
   -1.6829   -3.1558   -0.2833 C   0  0  0  0  0  0  0  0  0  0  0  0
   -1.3753   -1.1010   -3.4503 C   0  0  0  0  0  0  0  0  0  0  0  0
   -0.9289   -3.1710   -3.0552 H   0  0  0  0  0  0  0  0  0  0  0  0
    0.4867   -2.0876   -3.2088 H   0  0  0  0  0  0  0  0  0  0  0  0
    1.0454   -4.5375   -1.4110 C   0  0  0  0  0  0  0  0  0  0  0  0
    1.2570   -3.3161    0.3299 H   0  0  0  0  0  0  0  0  0  0  0  0
    1.9927   -2.6279   -1.1391 H   0  0  0  0  0  0  0  0  0  0  0  0
   -3.0295   -2.9994   -0.9185 C   0  0  0  0  0  0  0  0  0  0  0  0
   -1.7353   -2.8905    0.7798 H   0  0  0  0  0  0  0  0  0  0  0  0
   -1.3501   -4.1929   -0.3842 H   0  0  0  0  0  0  0  0  0  0  0  0
   -2.7138   -1.3157   -3.7538 C   0  0  0  0  0  0  0  0  0  0  0  0
   -0.8003    0.1205   -3.7904 C   0  0  0  0  0  0  0  0  0  0  0  0
    1.4474   -4.7205   -2.7302 C   0  0  0  0  0  0  0  0  0  0  0  0
    0.5705   -5.6386   -0.7036 C   0  0  0  0  0  0  0  0  0  0  0  0
   -3.7990   -1.8640   -0.6972 C   0  0  0  0  0  0  0  0  0  0  0  0
   -3.5424   -4.0160   -1.7164 C   0  0  0  0  0  0  0  0  0  0  0  0
   -3.4739   -0.3159   -4.3329 C   0  0  0  0  0  0  0  0  0  0  0  0
   -3.1634   -2.2733   -3.5457 H   0  0  0  0  0  0  0  0  0  0  0  0
   -1.5595    1.1161   -4.3803 C   0  0  0  0  0  0  0  0  0  0  0  0
    0.2492    0.2910   -3.6008 H   0  0  0  0  0  0  0  0  0  0  0  0
    1.3363   -5.9580   -3.3380 C   0  0  0  0  0  0  0  0  0  0  0  0
    1.8695   -3.8928   -3.2805 H   0  0  0  0  0  0  0  0  0  0  0  0
    0.4576   -6.8767   -1.3114 C   0  0  0  0  0  0  0  0  0  0  0  0
    0.3102   -5.5331    0.3409 H   0  0  0  0  0  0  0  0  0  0  0  0
   -5.0508   -1.7420   -1.2713 C   0  0  0  0  0  0  0  0  0  0  0  0
   -3.4210   -1.0851   -0.0525 H   0  0  0  0  0  0  0  0  0  0  0  0
   -4.8007   -3.8986   -2.2824 C   0  0  0  0  0  0  0  0  0  0  0  0
   -2.9558   -4.9088   -1.8912 H   0  0  0  0  0  0  0  0  0  0  0  0
   -2.9025    0.9071   -4.6395 C   0  0  0  0  0  0  0  0  0  0  0  0
   -4.5165   -0.4984   -4.5483 H   0  0  0  0  0  0  0  0  0  0  0  0
   -1.0968    2.0585   -4.6356 H   0  0  0  0  0  0  0  0  0  0  0  0
    0.8285   -7.0374   -2.6352 C   0  0  0  0  0  0  0  0  0  0  0  0
    1.6526   -6.0806   -4.3633 H   0  0  0  0  0  0  0  0  0  0  0  0
    0.0842   -7.7184   -0.7469 H   0  0  0  0  0  0  0  0  0  0  0  0
   -5.5557   -2.7585   -2.0647 C   0  0  0  0  0  0  0  0  0  0  0  0
   -5.6358   -0.8521   -1.0934 H   0  0  0  0  0  0  0  0  0  0  0  0
   -5.1897   -4.6985   -2.8959 H   0  0  0  0  0  0  0  0  0  0  0  0
   -3.4979    1.6876   -5.0900 H   0  0  0  0  0  0  0  0  0  0  0  0
    0.7383   -8.0023   -3.1108 H   0  0  0  0  0  0  0  0  0  0  0  0
   -6.5359   -2.6661   -2.5088 H   0  0  0  0  0  0  0  0  0  0  0  0
  1  5  1  0  0  0  0
  1  3  1  0  0  0  0
  1  2  1  0  0  0  0
  3  4  1  0  0  0  0
  5  6  1  0  0  0  0
  6 27  1  0  0  0  0
  6 28  1  0  0  0  0
  6  7  1  0  0  0  0
  7  8  2  0  0  0  0
  7 12  1  0  0  0  0
  8  9  1  0  0  0  0
  9 30  1  0  0  0  0
  9 10  2  0  0  0  0
 10 31  1  0  0  0  0
 11 32  1  0  0  0  0
 11 10  1  0  0  0  0
 12 11  2  0  0  0  0
 13  5  1  0  0  0  0
 13 35  1  0  0  0  0
 13 14  1  0  0  0  0
 14 15  1  0  0  0  0
 15 36  1  0  0  0  0
 15 16  2  0  0  0  0
 16 37  1  0  0  0  0
 17 38  1  0  0  0  0
 17 16  1  0  0  0  0
 18 17  2  0  0  0  0
 19 18  1  0  0  0  0
 19 14  2  0  0  0  0
 20 42  1  0  0  0  0
 20 21  1  0  0  0  0
 20  5  1  0  0  0  0
 21 26  1  0  0  0  0
 22 21  2  0  0  0  0
 22 23  1  0  0  0  0
 23 24  2  0  0  0  0
 24 25  1  0  0  0  0
 24 45  1  0  0  0  0
 25 46  1  0  0  0  0
 26 47  1  0  0  0  0
 26 25  2  0  0  0  0
 29  8  1  0  0  0  0
 33 12  1  0  0  0  0
 34 13  1  0  0  0  0
 39 18  1  0  0  0  0
 40 19  1  0  0  0  0
 41 20  1  0  0  0  0
 43 22  1  0  0  0  0
 44 23  1  0  0  0  0
 48  1  1  0  0  0  0
 49  1  1  0  0  0  0
 50 53  1  0  0  0  0
 50 54  1  0  0  0  0
 50  1  1  0  0  0  0
 51 49  1  0  0  0  0
 52 50  1  0  0  0  0
 53 59  1  0  0  0  0
 54 62  1  0  0  0  0
 55 52  1  0  0  0  0
 56 52  1  0  0  0  0
 57 52  1  0  0  0  0
 58 53  1  0  0  0  0
 58 67  1  0  0  0  0
 60 53  1  0  0  0  0
 61 68  1  0  0  0  0
 61 54  1  0  0  0  0
 63 54  1  0  0  0  0
 64 71  1  0  0  0  0
 64 55  1  0  0  0  0
 65 73  1  0  0  0  0
 65 55  2  0  0  0  0
 66 58  2  0  0  0  0
 67 77  1  0  0  0  0
 68 79  1  0  0  0  0
 69 61  2  0  0  0  0
 70 64  2  0  0  0  0
 72 65  1  0  0  0  0
 74 66  1  0  0  0  0
 74 85  2  0  0  0  0
 75 66  1  0  0  0  0
 76 87  1  0  0  0  0
 76 67  2  0  0  0  0
 78 89  1  0  0  0  0
 78 68  2  0  0  0  0
 80 88  2  0  0  0  0
 80 69  1  0  0  0  0
 81 69  1  0  0  0  0
 82 72  2  0  0  0  0
 82 70  1  0  0  0  0
 83 70  1  0  0  0  0
 84 72  1  0  0  0  0
 85 76  1  0  0  0  0
 86 74  1  0  0  0  0
 88 78  1  0  0  0  0
 90 80  1  0  0  0  0
 91 82  1  0  0  0  0
 92 85  1  0  0  0  0
 93 88  1  0  0  0  0
M  END
$$$$
