CSD_code = BEYTOP | q = 0 | S = 0 | Stoichiometry = C34H42Cl2N2O2Zn | MND = 4
 OpenBabel04212202013D

 83 90  0  0  1  0  0  0  0  0999 V2000
    4.6748    3.1230    9.4641 Zn  0  0  0  0  0  0  0  0  0  0  0  0
    5.9155    2.6399    7.7046 Cl  0  0  0  0  0  0  0  0  0  0  0  0
    4.9844    4.2851   11.3147 Cl  0  0  0  0  0  0  0  0  0  0  0  0
    3.9835    1.2765    9.7780 O   0  0  0  0  0  0  0  0  0  0  0  0
    2.8894    3.8906    9.0043 O   0  0  0  0  0  0  0  0  0  0  0  0
    3.9058   -0.3201    7.7127 N   0  0  0  0  0  4  0  0  0  0  0  0
    4.3632    0.4259    8.2638 H   0  0  0  0  0  0  0  0  0  0  0  0
    1.4721    4.8431   10.9805 N   0  0  0  0  0  4  0  0  0  0  0  0
    2.3800    4.6869   10.5107 H   0  0  0  0  0  0  0  0  0  0  0  0
    2.1466   -0.1419    9.3182 C   0  0  0  0  0  0  0  0  0  0  0  0
    2.8153    0.8667   10.0974 C   0  0  0  0  0  0  0  0  0  0  0  0
    2.1318    1.3697   11.2337 C   0  0  0  0  0  0  0  0  0  0  0  0
    2.6417    2.1194   11.8207 H   0  0  0  0  0  0  0  0  0  0  0  0
    0.8834    0.9283   11.5665 C   0  0  0  0  0  0  0  0  0  0  0  0
    0.3852    1.3302   12.4378 H   0  0  0  0  0  0  0  0  0  0  0  0
    0.2322   -0.0490   10.7980 C   0  0  0  0  0  0  0  0  0  0  0  0
   -0.7544   -0.3834   11.0787 H   0  0  0  0  0  0  0  0  0  0  0  0
    0.8588   -0.5720    9.7034 C   0  0  0  0  0  0  0  0  0  0  0  0
    0.3720   -1.3289    9.1042 H   0  0  0  0  0  0  0  0  0  0  0  0
    2.7455   -0.6852    8.1636 C   0  0  0  0  0  0  0  0  0  0  0  0
    2.1961   -1.4512    7.6260 H   0  0  0  0  0  0  0  0  0  0  0  0
    4.6233   -0.7653    6.5345 C   0  0  2  0  0  0  0  0  0  0  0  0
    4.4962    0.3171    5.4524 C   0  0  0  0  0  0  0  0  0  0  0  0
    4.8712    1.2608    5.8514 H   0  0  0  0  0  0  0  0  0  0  0  0
    3.4454    0.4379    5.1762 H   0  0  0  0  0  0  0  0  0  0  0  0
    5.3210   -0.0934    4.2338 C   0  0  1  0  0  0  0  0  0  0  0  0
    5.2208    0.6769    3.4626 H   0  0  0  0  0  0  0  0  0  0  0  0
    6.7878   -0.2217    4.6393 C   0  0  0  0  0  0  0  0  0  0  0  0
    7.1427    0.7319    5.0320 H   0  0  0  0  0  0  0  0  0  0  0  0
    7.3942   -0.4826    3.7697 H   0  0  0  0  0  0  0  0  0  0  0  0
    6.9215   -1.2992    5.7134 C   0  0  2  0  0  0  0  0  0  0  0  0
    7.9714   -1.3953    6.0066 H   0  0  0  0  0  0  0  0  0  0  0  0
    6.4148   -2.6373    5.1774 C   0  0  0  0  0  0  0  0  0  0  0  0
    7.0058   -2.9404    4.3110 H   0  0  0  0  0  0  0  0  0  0  0  0
    6.5209   -3.4107    5.9416 H   0  0  0  0  0  0  0  0  0  0  0  0
    4.9478   -2.4980    4.7756 C   0  0  1  0  0  0  0  0  0  0  0  0
    4.5805   -3.4568    4.3923 H   0  0  0  0  0  0  0  0  0  0  0  0
    4.1066   -2.0964    5.9906 C   0  0  0  0  0  0  0  0  0  0  0  0
    3.0629   -2.0043    5.6802 H   0  0  0  0  0  0  0  0  0  0  0  0
    4.1729   -2.8666    6.7634 H   0  0  0  0  0  0  0  0  0  0  0  0
    6.0974   -0.8948    6.9336 C   0  0  0  0  0  0  0  0  0  0  0  0
    6.2000   -1.6423    7.7239 H   0  0  0  0  0  0  0  0  0  0  0  0
    6.4450    0.0673    7.3131 H   0  0  0  0  0  0  0  0  0  0  0  0
    4.8149   -1.4294    3.6914 C   0  0  0  0  0  0  0  0  0  0  0  0
    5.3974   -1.7193    2.8149 H   0  0  0  0  0  0  0  0  0  0  0  0
    3.7707   -1.3379    3.3822 H   0  0  0  0  0  0  0  0  0  0  0  0
    0.5661    3.5021    9.2239 C   0  0  0  0  0  0  0  0  0  0  0  0
    1.8298    3.3329    8.5562 C   0  0  0  0  0  0  0  0  0  0  0  0
    1.8427    2.5400    7.3804 C   0  0  0  0  0  0  0  0  0  0  0  0
    2.7915    2.4254    6.8772 H   0  0  0  0  0  0  0  0  0  0  0  0
    0.7074    1.9450    6.9104 C   0  0  0  0  0  0  0  0  0  0  0  0
    0.7465    1.3447    6.0121 H   0  0  0  0  0  0  0  0  0  0  0  0
   -0.5204    2.1042    7.5717 C   0  0  0  0  0  0  0  0  0  0  0  0
   -1.4053    1.6242    7.1836 H   0  0  0  0  0  0  0  0  0  0  0  0
   -0.5825    2.8723    8.6989 C   0  0  0  0  0  0  0  0  0  0  0  0
   -1.5217    3.0083    9.2168 H   0  0  0  0  0  0  0  0  0  0  0  0
    0.4635    4.2655   10.4044 C   0  0  0  0  0  0  0  0  0  0  0  0
   -0.5200    4.3691   10.8511 H   0  0  0  0  0  0  0  0  0  0  0  0
    1.5165    5.6315   12.1960 C   0  0  2  0  0  0  0  0  0  0  0  0
    2.1115    4.7646   13.3155 C   0  0  0  0  0  0  0  0  0  0  0  0
    3.0933    4.4072   13.0010 H   0  0  0  0  0  0  0  0  0  0  0  0
    1.4609    3.9057   13.4997 H   0  0  0  0  0  0  0  0  0  0  0  0
    2.2489    5.6074   14.5823 C   0  0  1  0  0  0  0  0  0  0  0  0
    2.6653    4.9834   15.3795 H   0  0  0  0  0  0  0  0  0  0  0  0
    3.1889    6.7793   14.3078 C   0  0  0  0  0  0  0  0  0  0  0  0
    4.1639    6.4006   13.9990 H   0  0  0  0  0  0  0  0  0  0  0  0
    3.3218    7.3719   15.2150 H   0  0  0  0  0  0  0  0  0  0  0  0
    2.6017    7.6470   13.1966 C   0  0  2  0  0  0  0  0  0  0  0  0
    3.2720    8.4886   12.9966 H   0  0  0  0  0  0  0  0  0  0  0  0
    1.2294    8.1733   13.6144 C   0  0  0  0  0  0  0  0  0  0  0  0
    0.8140    8.8031   12.8244 H   0  0  0  0  0  0  0  0  0  0  0  0
    1.3218    8.7841   14.5145 H   0  0  0  0  0  0  0  0  0  0  0  0
    0.2974    6.9943   13.8866 C   0  0  1  0  0  0  0  0  0  0  0  0
   -0.6886    7.3683   14.1851 H   0  0  0  0  0  0  0  0  0  0  0  0
    0.1420    6.1455   12.6216 C   0  0  0  0  0  0  0  0  0  0  0  0
   -0.5288    5.3107   12.8392 H   0  0  0  0  0  0  0  0  0  0  0  0
   -0.2973    6.7448   11.8199 H   0  0  0  0  0  0  0  0  0  0  0  0
    2.4605    6.8090   11.9280 C   0  0  0  0  0  0  0  0  0  0  0  0
    2.0645    7.4198   11.1132 H   0  0  0  0  0  0  0  0  0  0  0  0
    3.4351    6.4179   11.6318 H   0  0  0  0  0  0  0  0  0  0  0  0
    0.8781    6.1327   15.0071 C   0  0  0  0  0  0  0  0  0  0  0  0
    0.9738    6.7275   15.9175 H   0  0  0  0  0  0  0  0  0  0  0  0
    0.2066    5.2981   15.2233 H   0  0  0  0  0  0  0  0  0  0  0  0
  1  4  1  0  0  0  0
  1  3  1  0  0  0  0
  2  1  1  0  0  0  0
  4 11  1  0  0  0  0
  5  1  1  0  0  0  0
  6 20  2  0  0  0  0
  6  7  1  0  0  0  0
  9  8  1  0  0  0  0
 10 18  2  0  0  0  0
 10 11  1  0  0  0  0
 11 12  2  0  0  0  0
 12 14  1  0  0  0  0
 12 13  1  0  0  0  0
 14 15  1  0  0  0  0
 16 17  1  0  0  0  0
 16 14  2  0  0  0  0
 18 16  1  0  0  0  0
 19 18  1  0  0  0  0
 20 10  1  0  0  0  0
 21 20  1  0  0  0  0
 22 41  1  0  0  0  0
 22  6  1  1  0  0  0
 23 24  1  0  0  0  0
 23 22  1  0  0  0  0
 25 23  1  0  0  0  0
 26 27  1  6  0  0  0
 26 28  1  0  0  0  0
 26 23  1  0  0  0  0
 28 29  1  0  0  0  0
 28 31  1  0  0  0  0
 30 28  1  0  0  0  0
 31 32  1  1  0  0  0
 31 41  1  0  0  0  0
 33 31  1  0  0  0  0
 33 35  1  0  0  0  0
 34 33  1  0  0  0  0
 36 37  1  6  0  0  0
 36 33  1  0  0  0  0
 36 38  1  0  0  0  0
 38 22  1  0  0  0  0
 38 40  1  0  0  0  0
 39 38  1  0  0  0  0
 41 43  1  0  0  0  0
 41 42  1  0  0  0  0
 44 26  1  0  0  0  0
 44 36  1  0  0  0  0
 45 44  1  0  0  0  0
 46 44  1  0  0  0  0
 47 57  1  0  0  0  0
 48  5  1  0  0  0  0
 48 47  2  0  0  0  0
 49 48  1  0  0  0  0
 50 49  1  0  0  0  0
 51 49  2  0  0  0  0
 51 53  1  0  0  0  0
 52 51  1  0  0  0  0
 53 55  2  0  0  0  0
 54 53  1  0  0  0  0
 55 56  1  0  0  0  0
 55 47  1  0  0  0  0
 57 58  1  0  0  0  0
 57  8  2  0  0  0  0
 59  8  1  6  0  0  0
 59 75  1  0  0  0  0
 59 60  1  0  0  0  0
 60 62  1  0  0  0  0
 60 63  1  0  0  0  0
 61 60  1  0  0  0  0
 63 81  1  0  0  0  0
 63 64  1  1  0  0  0
 65 63  1  0  0  0  0
 65 67  1  0  0  0  0
 66 65  1  0  0  0  0
 68 69  1  6  0  0  0
 68 70  1  0  0  0  0
 68 65  1  0  0  0  0
 70 73  1  0  0  0  0
 70 72  1  0  0  0  0
 71 70  1  0  0  0  0
 73 74  1  1  0  0  0
 73 81  1  0  0  0  0
 75 76  1  0  0  0  0
 75 73  1  0  0  0  0
 77 75  1  0  0  0  0
 78 59  1  0  0  0  0
 78 68  1  0  0  0  0
 79 78  1  0  0  0  0
 80 78  1  0  0  0  0
 81 83  1  0  0  0  0
 81 82  1  0  0  0  0
M  END
$$$$
