CSD_code = BEZGEV | q = 0 | S = 0 | Stoichiometry = C15H14Cl2N2O2Pd | MND = 4
 OpenBabel04212202013D

 36 39  0  0  0  0  0  0  0  0999 V2000
    2.8357    4.3453    7.1053 Pd  0  0  0  0  0  0  0  0  0  0  0  0
    4.2650    2.8494    6.3069 Cl  0  0  0  0  0  0  0  0  0  0  0  0
    4.5503    5.6280    7.6525 Cl  0  0  0  0  0  0  0  0  0  0  0  0
    2.9031   -4.1560    6.4990 O   0  0  0  0  0  0  0  0  0  0  0  0
    4.4479   -2.5256    5.9869 O   0  0  0  0  0  0  0  0  0  0  0  0
    1.4435    5.7329    7.6133 N   0  0  0  0  0  0  0  0  0  0  0  0
    1.2059    3.2958    6.7205 N   0  0  0  0  0  0  0  0  0  0  0  0
    1.6269    6.9710    8.0628 C   0  0  0  0  0  0  0  0  0  0  0  0
    2.6529    7.2501    8.2759 H   0  0  0  0  0  0  0  0  0  0  0  0
    0.5766    7.8531    8.2480 C   0  0  0  0  0  0  0  0  0  0  0  0
    0.7695    8.8482    8.6138 H   0  0  0  0  0  0  0  0  0  0  0  0
   -0.7193    7.4373    7.9559 C   0  0  0  0  0  0  0  0  0  0  0  0
   -1.5548    8.1066    8.0913 H   0  0  0  0  0  0  0  0  0  0  0  0
   -0.9165    6.1536    7.4891 C   0  0  0  0  0  0  0  0  0  0  0  0
   -1.9025    5.7889    7.2473 H   0  0  0  0  0  0  0  0  0  0  0  0
    0.1881    5.3133    7.3230 C   0  0  0  0  0  0  0  0  0  0  0  0
    0.1053    3.9498    6.8773 C   0  0  0  0  0  0  0  0  0  0  0  0
   -0.8673    3.4860    6.7187 H   0  0  0  0  0  0  0  0  0  0  0  0
    1.1905    1.8884    6.4550 C   0  0  0  0  0  0  0  0  0  0  0  0
    0.1971    1.5491    6.1342 H   0  0  0  0  0  0  0  0  0  0  0  0
    1.9348    1.6748    5.6813 H   0  0  0  0  0  0  0  0  0  0  0  0
    1.6170    1.1494    7.7434 C   0  0  0  0  0  0  0  0  0  0  0  0
    0.8248    1.2412    8.4896 H   0  0  0  0  0  0  0  0  0  0  0  0
    2.5241    1.6440    8.1213 H   0  0  0  0  0  0  0  0  0  0  0  0
    1.9076   -0.2942    7.4515 C   0  0  0  0  0  0  0  0  0  0  0  0
    0.9808   -1.2793    7.7511 C   0  0  0  0  0  0  0  0  0  0  0  0
    0.0481   -1.0069    8.2220 H   0  0  0  0  0  0  0  0  0  0  0  0
    1.2194   -2.6241    7.4723 C   0  0  0  0  0  0  0  0  0  0  0  0
    0.5004   -3.3892    7.7120 H   0  0  0  0  0  0  0  0  0  0  0  0
    2.4166   -2.9331    6.8774 C   0  0  0  0  0  0  0  0  0  0  0  0
    4.1783   -3.9086    5.9442 C   0  0  0  0  0  0  0  0  0  0  0  0
    4.1986   -4.2574    4.8990 H   0  0  0  0  0  0  0  0  0  0  0  0
    4.9428   -4.4532    6.5218 H   0  0  0  0  0  0  0  0  0  0  0  0
    3.3540   -1.9435    6.5669 C   0  0  0  0  0  0  0  0  0  0  0  0
    3.1249   -0.6195    6.8414 C   0  0  0  0  0  0  0  0  0  0  0  0
    3.8489    0.1437    6.6053 H   0  0  0  0  0  0  0  0  0  0  0  0
  1  6  1  0  0  0  0
  1  3  1  0  0  0  0
  2  1  1  0  0  0  0
  4 30  1  0  0  0  0
  5 34  1  0  0  0  0
  6  8  1  0  0  0  0
  7 17  1  0  0  0  0
  7  1  1  0  0  0  0
  8 10  2  0  0  0  0
  8  9  1  0  0  0  0
 10 11  1  0  0  0  0
 12 13  1  0  0  0  0
 12 10  1  0  0  0  0
 14 12  2  0  0  0  0
 15 14  1  0  0  0  0
 16 14  1  0  0  0  0
 16  6  1  0  0  0  0
 17 16  2  0  0  0  0
 18 17  1  0  0  0  0
 19  7  1  0  0  0  0
 19 22  1  0  0  0  0
 20 19  1  0  0  0  0
 21 19  1  0  0  0  0
 22 24  1  0  0  0  0
 22 23  1  0  0  0  0
 25 22  1  0  0  0  0
 25 26  1  0  0  0  0
 26 27  1  0  0  0  0
 28 29  1  0  0  0  0
 28 26  2  0  0  0  0
 30 28  1  0  0  0  0
 31  5  1  0  0  0  0
 31  4  1  0  0  0  0
 31 33  1  0  0  0  0
 32 31  1  0  0  0  0
 34 35  1  0  0  0  0
 34 30  2  0  0  0  0
 35 25  2  0  0  0  0
 36 35  1  0  0  0  0
M  END
$$$$
