CSD_code = BEZLOJ | q = 0 | S = 0 | Stoichiometry = C20H21ClN2Pd | MND = 4
 OpenBabel04212202013D

 45 48  0  0  1  0  0  0  0  0999 V2000
    2.6650    4.2694    8.1010 Pd  0  0  1  0  0  0  0  0  0  0  0  0
    4.2798    5.6907    9.0598 Cl  0  0  0  0  0  0  0  0  0  0  0  0
    2.1500    5.8343    6.8843 N   0  0  0  0  0  4  0  0  0  0  0  0
    2.5877    6.6815    7.2563 H   0  0  0  0  0  0  0  0  0  0  0  0
    1.1444    5.9591    6.7549 H   0  0  0  0  0  0  0  0  0  0  0  0
    3.2429    2.7754    9.2231 N   0  0  0  0  0  0  0  0  0  0  0  0
    1.2699    3.2128    7.0984 C   0  0  0  0  0  0  0  0  0  0  0  0
    0.2886    2.3912    7.6408 C   0  0  0  0  0  0  0  0  0  0  0  0
    0.2634    2.2069    8.7097 H   0  0  0  0  0  0  0  0  0  0  0  0
   -0.6650    1.7749    6.8424 C   0  0  0  0  0  0  0  0  0  0  0  0
   -1.4135    1.1377    7.2925 H   0  0  0  0  0  0  0  0  0  0  0  0
   -0.6602    1.9780    5.4743 C   0  0  0  0  0  0  0  0  0  0  0  0
   -1.4094    1.5114    4.8509 H   0  0  0  0  0  0  0  0  0  0  0  0
    0.3122    2.7794    4.9052 C   0  0  0  0  0  0  0  0  0  0  0  0
    0.3131    2.9504    3.8373 H   0  0  0  0  0  0  0  0  0  0  0  0
    1.2763    3.3921    5.7010 C   0  0  0  0  0  0  0  0  0  0  0  0
    2.3498    4.1962    5.0784 C   0  0  0  0  0  0  0  0  0  0  0  0
    2.9807    3.7824    3.9109 C   0  0  0  0  0  0  0  0  0  0  0  0
    2.6481    2.8750    3.4288 H   0  0  0  0  0  0  0  0  0  0  0  0
    4.0457    4.4923    3.3820 C   0  0  0  0  0  0  0  0  0  0  0  0
    4.5261    4.1465    2.4792 H   0  0  0  0  0  0  0  0  0  0  0  0
    4.5047    5.6304    4.0203 C   0  0  0  0  0  0  0  0  0  0  0  0
    5.3448    6.1784    3.6217 H   0  0  0  0  0  0  0  0  0  0  0  0
    3.8788    6.0768    5.1730 C   0  0  0  0  0  0  0  0  0  0  0  0
    4.2314    6.9678    5.6741 H   0  0  0  0  0  0  0  0  0  0  0  0
    2.8079    5.3716    5.7053 C   0  0  0  0  0  0  0  0  0  0  0  0
    4.1634    1.9273    8.7557 C   0  0  2  0  0  3  0  0  0  0  0  0
    4.7023    0.9464    9.5704 C   0  0  0  0  0  0  0  0  0  0  0  0
    5.4416    0.2666    9.1759 H   0  0  0  0  0  0  0  0  0  0  0  0
    4.2992    0.8456   10.8994 C   0  0  0  0  0  0  0  0  0  0  0  0
    3.3679    1.7665   11.3607 C   0  0  0  0  0  0  0  0  0  0  0  0
    3.0448    1.7462   12.3901 H   0  0  0  0  0  0  0  0  0  0  0  0
    2.8596    2.7294   10.5005 C   0  0  0  0  0  0  0  0  0  0  0  0
    4.5757    2.1161    7.3279 C   0  0  0  0  0  0  0  0  0  0  0  0
    4.8522    3.1707    7.1654 H   0  0  0  0  0  0  0  0  0  0  0  0
    3.7362    1.8757    6.6667 H   0  0  0  0  0  0  0  0  0  0  0  0
    5.4218    1.4826    7.0749 H   0  0  0  0  0  0  0  0  0  0  0  0
    4.8760   -0.2041   11.7930 C   0  0  0  0  0  0  0  0  0  0  0  0
    4.3834   -0.2073   12.7614 H   0  0  0  0  0  0  0  0  0  0  0  0
    5.9390   -0.0200   11.9441 H   0  0  0  0  0  0  0  0  0  0  0  0
    4.7715   -1.1878   11.3386 H   0  0  0  0  0  0  0  0  0  0  0  0
    1.9135    3.7966   10.9536 C   0  0  0  0  0  0  0  0  0  0  0  0
    1.1020    3.9273   10.2209 H   0  0  0  0  0  0  0  0  0  0  0  0
    2.4690    4.7415   11.0069 H   0  0  0  0  0  0  0  0  0  0  0  0
    1.4977    3.5743   11.9330 H   0  0  0  0  0  0  0  0  0  0  0  0
  1  2  1  1  0  0  0
  1  6  1  0  0  0  0
  3  4  1  0  0  0  0
  3  1  1  0  0  0  0
  5  3  1  0  0  0  0
  6 33  1  0  0  0  0
  7  8  1  0  0  0  0
  7  1  1  0  0  0  0
  8  9  1  0  0  0  0
 10 11  1  0  0  0  0
 10  8  2  0  0  0  0
 12 10  1  0  0  0  0
 13 12  1  0  0  0  0
 14 12  2  0  0  0  0
 14 16  1  0  0  0  0
 15 14  1  0  0  0  0
 16  7  2  0  0  0  0
 17 16  1  0  0  0  0
 17 26  1  0  0  0  0
 18 17  2  0  0  0  0
 19 18  1  0  0  0  0
 20 18  1  0  0  0  0
 20 22  2  0  0  0  0
 21 20  1  0  0  0  0
 22 24  1  0  0  0  0
 23 22  1  0  0  0  0
 24 25  1  0  0  0  0
 24 26  2  0  0  0  0
 26  3  1  0  0  0  0
 27 34  1  1  0  0  0
 27  6  1  0  0  0  0
 27 28  1  0  0  0  0
 28 30  2  0  0  0  0
 29 28  1  0  0  0  0
 30 31  1  0  0  0  0
 30 38  1  0  0  0  0
 31 32  1  0  0  0  0
 33 42  1  0  0  0  0
 33 31  2  0  0  0  0
 35 34  1  0  0  0  0
 36 34  1  0  0  0  0
 37 34  1  0  0  0  0
 38 40  1  0  0  0  0
 38 39  1  0  0  0  0
 41 38  1  0  0  0  0
 42 44  1  0  0  0  0
 42 45  1  0  0  0  0
 43 42  1  0  0  0  0
M  END
$$$$
