CSD_code = BEZMID | q = 0 | S = 0 | Stoichiometry = C26H42Cl2Si2Zr | MND = 12
 OpenBabel04212202013D

 73 75  0  0  1  0  0  0  0  0999 V2000
    4.8736   14.3512   15.8832 Zr  0  0  0  0  0  0  0  0  0  0  0  0
    5.6684   15.7683   17.5589 Cl  0  0  0  0  0  0  0  0  0  0  0  0
    5.7240   15.5462   14.0649 Cl  0  0  0  0  0  0  0  0  0  0  0  0
    3.5865   11.9946   17.6154 Si  0  0  0  0  0  0  0  0  0  0  0  0
    3.5926   12.0563   14.1775 Si  0  0  0  0  0  0  0  0  0  0  0  0
    2.7655   13.3870   16.6362 C   0  0  0  0  0  0  0  0  0  0  0  0
    2.7759   13.4254   15.2037 C   0  0  0  0  0  0  0  0  0  0  0  0
    2.7022   14.7942   14.8172 C   0  0  0  0  0  0  0  0  0  0  0  0
    2.6229   15.1482   13.7959 H   0  0  0  0  0  0  0  0  0  0  0  0
    2.6238   15.5965   15.9843 C   0  0  0  0  0  0  0  0  0  0  0  0
    2.6806   14.7237   17.0943 C   0  0  0  0  0  3  0  0  0  0  0  0
    2.5759   15.0337   18.1273 H   0  0  0  0  0  0  0  0  0  0  0  0
    5.2014   12.1367   16.6295 C   0  0  1  0  0  0  0  0  0  0  0  0
    5.2080   12.1080   15.1765 C   0  0  2  0  0  3  0  0  0  0  0  0
    6.4650   12.6198   14.7502 C   0  0  1  0  0  3  0  0  0  0  0  0
    7.2029   12.9873   15.8937 C   0  0  0  0  0  0  0  0  0  0  0  0
    8.2216   13.3458   15.8915 H   0  0  0  0  0  0  0  0  0  0  0  0
    6.4441   12.6909   17.0480 C   0  0  0  0  0  0  0  0  0  0  0  0
    3.6645   12.5799   19.4334 C   0  0  0  0  0  0  0  0  0  0  0  0
    2.6620   12.6056   19.8493 H   0  0  0  0  0  0  0  0  0  0  0  0
    4.0850   13.5779   19.5242 H   0  0  0  0  0  0  0  0  0  0  0  0
    4.2501   11.9062   20.0485 H   0  0  0  0  0  0  0  0  0  0  0  0
    2.7616   10.2718   17.5820 C   0  0  0  0  0  0  0  0  0  0  0  0
    2.3912   10.0188   18.5689 H   0  0  0  0  0  0  0  0  0  0  0  0
    3.4611    9.4981   17.2865 H   0  0  0  0  0  0  0  0  0  0  0  0
    1.9220   10.2425   16.8990 H   0  0  0  0  0  0  0  0  0  0  0  0
    2.7392   10.3487   14.1082 C   0  0  0  0  0  0  0  0  0  0  0  0
    1.6812   10.4308   14.3274 H   0  0  0  0  0  0  0  0  0  0  0  0
    3.1731    9.6444   14.8061 H   0  0  0  0  0  0  0  0  0  0  0  0
    2.8332    9.9285   13.1134 H   0  0  0  0  0  0  0  0  0  0  0  0
    3.6964   12.7429   12.3962 C   0  0  0  0  0  0  0  0  0  0  0  0
    4.1724   13.7201   12.3654 H   0  0  0  0  0  0  0  0  0  0  0  0
    2.6974   12.8464   11.9831 H   0  0  0  0  0  0  0  0  0  0  0  0
    4.2445   12.0754   11.7409 H   0  0  0  0  0  0  0  0  0  0  0  0
    2.4661   17.0939   16.0885 C   0  0  1  0  0  0  0  0  0  0  0  0
    2.6413   17.3615   17.1403 H   0  0  0  0  0  0  0  0  0  0  0  0
    3.5579   17.7836   15.2619 C   0  0  0  0  0  0  0  0  0  0  0  0
    4.5388   17.4803   15.6417 H   0  0  0  0  0  0  0  0  0  0  0  0
    3.4905   18.8647   15.3485 H   0  0  0  0  0  0  0  0  0  0  0  0
    3.4981   17.5134   14.2091 H   0  0  0  0  0  0  0  0  0  0  0  0
    1.0173   17.5623   15.7645 C   0  0  0  0  0  0  0  0  0  0  0  0
    0.0546   16.8250   16.7025 C   0  0  0  0  0  0  0  0  0  0  0  0
   -0.9698   17.1373   16.5123 H   0  0  0  0  0  0  0  0  0  0  0  0
    0.2898   17.0426   17.7421 H   0  0  0  0  0  0  0  0  0  0  0  0
    0.1182   15.7502   16.5526 H   0  0  0  0  0  0  0  0  0  0  0  0
    0.8884   19.0672   16.0221 C   0  0  0  0  0  0  0  0  0  0  0  0
   -0.1579   19.3622   15.9764 H   0  0  0  0  0  0  0  0  0  0  0  0
    1.4287   19.6436   15.2762 H   0  0  0  0  0  0  0  0  0  0  0  0
    1.2712   19.3266   17.0068 H   0  0  0  0  0  0  0  0  0  0  0  0
    0.6149   17.2685   14.3191 C   0  0  0  0  0  0  0  0  0  0  0  0
    0.5751   16.1978   14.1406 H   0  0  0  0  0  0  0  0  0  0  0  0
    1.3097   17.7214   13.6170 H   0  0  0  0  0  0  0  0  0  0  0  0
   -0.3740   17.6790   14.1249 H   0  0  0  0  0  0  0  0  0  0  0  0
    6.9925   12.5767   13.3371 C   0  0  0  0  0  0  0  0  0  0  0  0
    6.2744   13.0562   12.6646 H   0  0  0  0  0  0  0  0  0  0  0  0
    7.1457   11.1106   12.9122 C   0  0  0  0  0  0  0  0  0  0  0  0
    7.8640   10.6088   13.5570 H   0  0  0  0  0  0  0  0  0  0  0  0
    7.4997   11.0483   11.8856 H   0  0  0  0  0  0  0  0  0  0  0  0
    6.1938   10.5900   12.9875 H   0  0  0  0  0  0  0  0  0  0  0  0
    8.3249   13.3112   13.1894 C   0  0  0  0  0  0  0  0  0  0  0  0
    8.2262   14.3438   13.5180 H   0  0  0  0  0  0  0  0  0  0  0  0
    8.6309   13.3138   12.1455 H   0  0  0  0  0  0  0  0  0  0  0  0
    9.1050   12.8230   13.7696 H   0  0  0  0  0  0  0  0  0  0  0  0
    6.9551   12.7390   18.4679 C   0  0  0  0  0  0  0  0  0  0  0  0
    6.1982   13.1997   19.1120 H   0  0  0  0  0  0  0  0  0  0  0  0
    7.1977   11.3046   18.9552 C   0  0  0  0  0  0  0  0  0  0  0  0
    7.9552   10.8260   18.3382 H   0  0  0  0  0  0  0  0  0  0  0  0
    6.2832   10.7195   18.8915 H   0  0  0  0  0  0  0  0  0  0  0  0
    7.5423   11.3069   19.9869 H   0  0  0  0  0  0  0  0  0  0  0  0
    8.2367   13.5628   18.5980 C   0  0  0  0  0  0  0  0  0  0  0  0
    8.5208   13.6400   19.6454 H   0  0  0  0  0  0  0  0  0  0  0  0
    8.0833   14.5687   18.2113 H   0  0  0  0  0  0  0  0  0  0  0  0
    9.0574   13.0939   18.0596 H   0  0  0  0  0  0  0  0  0  0  0  0
  1  2  1  0  0  0  0
  3  1  1  0  0  0  0
  4 19  1  0  0  0  0
  5  7  1  0  0  0  0
  6 11  1  0  0  0  0
  6  4  1  0  0  0  0
  7  6  2  0  0  0  0
  8  7  1  0  0  0  0
  8 10  2  0  0  0  0
  9  8  1  0  0  0  0
 10 35  1  0  0  0  0
 10 11  1  0  0  0  0
 11 12  1  0  0  0  0
 13  1  1  6  0  0  0
 13 18  1  0  0  0  0
 13  4  1  0  0  0  0
 14  5  1  6  0  0  0
 14 13  1  0  0  0  0
 15 54  1  1  0  0  0
 15 14  1  0  0  0  0
 15 16  1  0  0  0  0
 16 18  2  0  0  0  0
 17 16  1  0  0  0  0
 18 64  1  0  0  0  0
 19 21  1  0  0  0  0
 19 20  1  0  0  0  0
 19 22  1  0  0  0  0
 23  4  1  0  0  0  0
 23 24  1  0  0  0  0
 25 23  1  0  0  0  0
 26 23  1  0  0  0  0
 27  5  1  0  0  0  0
 27 28  1  0  0  0  0
 27 29  1  0  0  0  0
 30 27  1  0  0  0  0
 31  5  1  0  0  0  0
 32 31  1  0  0  0  0
 33 31  1  0  0  0  0
 34 31  1  0  0  0  0
 35 36  1  1  0  0  0
 37 39  1  0  0  0  0
 37 38  1  0  0  0  0
 37 35  1  0  0  0  0
 40 37  1  0  0  0  0
 41 46  1  0  0  0  0
 41 35  1  0  0  0  0
 41 42  1  0  0  0  0
 42 44  1  0  0  0  0
 43 42  1  0  0  0  0
 45 42  1  0  0  0  0
 46 49  1  0  0  0  0
 47 46  1  0  0  0  0
 48 46  1  0  0  0  0
 50 41  1  0  0  0  0
 51 50  1  0  0  0  0
 52 50  1  0  0  0  0
 53 50  1  0  0  0  0
 55 54  1  0  0  0  0
 56 59  1  0  0  0  0
 56 54  1  0  0  0  0
 56 57  1  0  0  0  0
 58 56  1  0  0  0  0
 60 54  1  0  0  0  0
 60 61  1  0  0  0  0
 60 63  1  0  0  0  0
 62 60  1  0  0  0  0
 64 70  1  0  0  0  0
 64 66  1  0  0  0  0
 64 65  1  0  0  0  0
 66 69  1  0  0  0  0
 67 66  1  0  0  0  0
 68 66  1  0  0  0  0
 70 71  1  0  0  0  0
 72 70  1  0  0  0  0
 73 70  1  0  0  0  0
M  END
$$$$
