CSD_code = BEZVOT | q = 0 | S = 0 | Stoichiometry = C29H29Br2HgO2PS | MND = 4
 OpenBabel04212202013D

 65 67  0  0  1  0  0  0  0  0999 V2000
   15.1736    9.9660    5.8687 C   0  0  2  0  0  0  0  0  0  0  0  0
   14.5090    9.3531    6.4717 H   0  0  0  0  0  0  0  0  0  0  0  0
   15.6734   11.2440    6.2894 C   0  0  0  0  0  0  0  0  0  0  0  0
   14.8750   12.2279    7.0218 C   0  0  0  0  0  0  0  0  0  0  0  0
   15.4834   13.4091    7.4463 C   0  0  0  0  0  0  0  0  0  0  0  0
   16.5356   13.5468    7.2453 H   0  0  0  0  0  0  0  0  0  0  0  0
   14.7498   14.3767    8.0999 C   0  0  0  0  0  0  0  0  0  0  0  0
   15.2319   15.2893    8.4200 H   0  0  0  0  0  0  0  0  0  0  0  0
   13.3922   14.1967    8.3408 C   0  0  0  0  0  0  0  0  0  0  0  0
   12.5835   15.2612    9.0121 C   0  0  0  0  0  0  0  0  0  0  0  0
   12.0931   15.8768    8.2573 H   0  0  0  0  0  0  0  0  0  0  0  0
   13.2137   15.9071    9.6185 H   0  0  0  0  0  0  0  0  0  0  0  0
   11.8106   14.8244    9.6409 H   0  0  0  0  0  0  0  0  0  0  0  0
   12.7890   13.0159    7.9174 C   0  0  0  0  0  0  0  0  0  0  0  0
   11.7326   12.8708    8.0935 H   0  0  0  0  0  0  0  0  0  0  0  0
   13.5140   12.0389    7.2683 C   0  0  0  0  0  0  0  0  0  0  0  0
   13.0184   11.1374    6.9354 H   0  0  0  0  0  0  0  0  0  0  0  0
   18.1186    9.2389    6.2969 C   0  0  0  0  0  0  0  0  0  0  0  0
   17.9756    8.7361    7.5838 C   0  0  0  0  0  0  0  0  0  0  0  0
   17.0156    8.3489    7.9023 H   0  0  0  0  0  0  0  0  0  0  0  0
   19.0611    8.7362    8.4401 C   0  0  0  0  0  0  0  0  0  0  0  0
   18.9563    8.3512    9.4439 H   0  0  0  0  0  0  0  0  0  0  0  0
   20.2817    9.2310    8.0085 C   0  0  0  0  0  0  0  0  0  0  0  0
   21.1287    9.2302    8.6786 H   0  0  0  0  0  0  0  0  0  0  0  0
   20.4189    9.7313    6.7232 C   0  0  0  0  0  0  0  0  0  0  0  0
   21.3711   10.1200    6.3936 H   0  0  0  0  0  0  0  0  0  0  0  0
   19.3365    9.7414    5.8626 C   0  0  0  0  0  0  0  0  0  0  0  0
   19.4212   10.1448    4.8632 H   0  0  0  0  0  0  0  0  0  0  0  0
   16.2948    7.4545    5.0869 C   0  0  0  0  0  0  0  0  0  0  0  0
   17.3467    6.5420    5.1595 C   0  0  0  0  0  0  0  0  0  0  0  0
   18.3570    6.9016    5.3086 H   0  0  0  0  0  0  0  0  0  0  0  0
   17.1061    5.1862    5.0436 C   0  0  0  0  0  0  0  0  0  0  0  0
   17.9288    4.4884    5.1008 H   0  0  0  0  0  0  0  0  0  0  0  0
   15.8135    4.7258    4.8496 C   0  0  0  0  0  0  0  0  0  0  0  0
   15.6263    3.6667    4.7531 H   0  0  0  0  0  0  0  0  0  0  0  0
   14.7638    5.6252    4.7788 C   0  0  0  0  0  0  0  0  0  0  0  0
   13.7554    5.2731    4.6236 H   0  0  0  0  0  0  0  0  0  0  0  0
   14.9999    6.9835    4.8987 C   0  0  0  0  0  0  0  0  0  0  0  0
   14.1629    7.6661    4.8401 H   0  0  0  0  0  0  0  0  0  0  0  0
   17.1057    9.7314    3.5292 C   0  0  0  0  0  0  0  0  0  0  0  0
   17.5090    8.7430    2.6325 C   0  0  0  0  0  0  0  0  0  0  0  0
   17.6148    7.7202    2.9639 H   0  0  0  0  0  0  0  0  0  0  0  0
   17.7483    9.0601    1.3078 C   0  0  0  0  0  0  0  0  0  0  0  0
   18.0450    8.2825    0.6205 H   0  0  0  0  0  0  0  0  0  0  0  0
   17.5803   10.3591    0.8593 C   0  0  0  0  0  0  0  0  0  0  0  0
   17.7435   10.5985   -0.1805 H   0  0  0  0  0  0  0  0  0  0  0  0
   17.1978   11.3510    1.7475 C   0  0  0  0  0  0  0  0  0  0  0  0
   17.0754   12.3689    1.4076 H   0  0  0  0  0  0  0  0  0  0  0  0
   16.9646   11.0458    3.0774 C   0  0  0  0  0  0  0  0  0  0  0  0
   16.7235   11.8386    3.7718 H   0  0  0  0  0  0  0  0  0  0  0  0
   16.8438   11.4790    5.9029 O   0  0  0  0  0  0  0  0  0  0  0  0
   16.6616    9.2346    5.2230 P   0  0  0  0  0  4  0  0  0  0  0  0
   13.9181   10.4453    3.8406 Hg  0  0  0  0  0  0  0  0  0  0  0  0
   12.9951   12.7395    3.7594 Br  0  0  0  0  0  0  0  0  0  0  0  0
   13.8917    8.8704    1.9369 Br  0  0  0  0  0  0  0  0  0  0  0  0
    9.9026   11.1077    5.4221 C   0  0  0  0  0  0  0  0  0  0  0  0
    9.9746   11.0538    6.5037 H   0  0  0  0  0  0  0  0  0  0  0  0
   10.5284   11.9123    5.0479 H   0  0  0  0  0  0  0  0  0  0  0  0
    8.8696   11.2477    5.1264 H   0  0  0  0  0  0  0  0  0  0  0  0
   10.2496    9.9469    2.9806 C   0  0  0  0  0  0  0  0  0  0  0  0
   10.7059   10.9107    2.7731 H   0  0  0  0  0  0  0  0  0  0  0  0
   10.7208    9.1746    2.3785 H   0  0  0  0  0  0  0  0  0  0  0  0
    9.1846    9.9754    2.7800 H   0  0  0  0  0  0  0  0  0  0  0  0
   11.9596    9.5076    4.9651 O   0  0  0  0  0  0  0  0  0  0  0  0
   10.4884    9.5095    4.7396 S   0  0  0  0  0  0  0  0  0  0  0  0
  1  3  1  0  0  0  0
  1  2  1  1  0  0  0
  3  4  1  0  0  0  0
  4 16  2  0  0  0  0
  4  5  1  0  0  0  0
  5  7  2  0  0  0  0
  6  5  1  0  0  0  0
  7  9  1  0  0  0  0
  7  8  1  0  0  0  0
  9 10  1  0  0  0  0
 10 12  1  0  0  0  0
 10 13  1  0  0  0  0
 11 10  1  0  0  0  0
 14 15  1  0  0  0  0
 14  9  2  0  0  0  0
 16 14  1  0  0  0  0
 17 16  1  0  0  0  0
 18 19  1  0  0  0  0
 19 20  1  0  0  0  0
 19 21  2  0  0  0  0
 21 22  1  0  0  0  0
 23 21  1  0  0  0  0
 23 24  1  0  0  0  0
 25 23  2  0  0  0  0
 26 25  1  0  0  0  0
 27 18  2  0  0  0  0
 27 25  1  0  0  0  0
 28 27  1  0  0  0  0
 29 30  1  0  0  0  0
 29 52  1  0  0  0  0
 30 31  1  0  0  0  0
 32 33  1  0  0  0  0
 32 30  2  0  0  0  0
 34 32  1  0  0  0  0
 35 34  1  0  0  0  0
 36 34  2  0  0  0  0
 36 38  1  0  0  0  0
 37 36  1  0  0  0  0
 38 29  2  0  0  0  0
 39 38  1  0  0  0  0
 40 52  1  0  0  0  0
 41 42  1  0  0  0  0
 41 40  2  0  0  0  0
 43 41  1  0  0  0  0
 44 43  1  0  0  0  0
 45 43  2  0  0  0  0
 45 47  1  0  0  0  0
 46 45  1  0  0  0  0
 47 49  2  0  0  0  0
 48 47  1  0  0  0  0
 49 40  1  0  0  0  0
 49 50  1  0  0  0  0
 51  3  2  0  0  0  0
 52  1  1  0  0  0  0
 52 18  1  0  0  0  0
 53  1  1  0  0  0  0
 54 53  1  0  0  0  0
 55 53  1  0  0  0  0
 56 57  1  0  0  0  0
 58 56  1  0  0  0  0
 59 56  1  0  0  0  0
 60 65  1  0  0  0  0
 61 60  1  0  0  0  0
 62 60  1  0  0  0  0
 63 60  1  0  0  0  0
 65 64  2  0  0  0  0
 65 56  1  0  0  0  0
M  END
$$$$
