CSD_code = BHEXNI | q = 0 | S = 0 | Stoichiometry = C20H26Br2N2NiO2 | MND = 6
 OpenBabel04212202013D

 53 56  0  0  1  0  0  0  0  0999 V2000
    8.0948    3.6751    4.1655 Ni  0  0  0  0  0  0  0  0  0  0  0  0
    8.0830    5.5624    5.5713 Br  0  0  0  0  0  0  0  0  0  0  0  0
    8.0990    1.6846    2.7692 Br  0  0  0  0  0  0  0  0  0  0  0  0
    9.7643    2.5888    5.4917 O   0  0  0  0  0  0  0  0  0  0  0  0
    6.7381    2.7744    5.3981 O   0  0  0  0  0  0  0  0  0  0  0  0
    9.4271    4.4705    3.0081 N   0  0  2  0  0  4  0  0  0  0  0  0
    9.4693    3.7956    2.2355 H   0  0  0  0  0  0  0  0  0  0  0  0
    6.2898    4.5216    2.8938 N   0  0  1  0  0  4  0  0  0  0  0  0
    6.1334    3.8778    2.1150 H   0  0  0  0  0  0  0  0  0  0  0  0
    9.2520    1.7553    6.5189 C   0  0  0  0  0  0  0  0  0  0  0  0
   10.0776    1.4267    7.1629 H   0  0  0  0  0  0  0  0  0  0  0  0
    8.7633    0.8730    6.0826 H   0  0  0  0  0  0  0  0  0  0  0  0
   10.7996    2.1406    4.7215 C   0  0  0  0  0  0  0  0  0  0  0  0
   11.3383    0.8637    4.8089 C   0  0  0  0  0  0  0  0  0  0  0  0
   10.9443    0.1458    5.5097 H   0  0  0  0  0  0  0  0  0  0  0  0
   12.3753    0.4870    3.9733 C   0  0  0  0  0  0  0  0  0  0  0  0
   12.7783   -0.5113    4.0501 H   0  0  0  0  0  0  0  0  0  0  0  0
   12.8831    1.3731    3.0435 C   0  0  0  0  0  0  0  0  0  0  0  0
   13.6865    1.0774    2.3872 H   0  0  0  0  0  0  0  0  0  0  0  0
   12.3455    2.6450    2.9536 C   0  0  0  0  0  0  0  0  0  0  0  0
   12.7382    3.3411    2.2258 H   0  0  0  0  0  0  0  0  0  0  0  0
   11.3132    3.0511    3.7833 C   0  0  0  0  0  0  0  0  0  0  0  0
   10.7574    4.4468    3.6603 C   0  0  0  0  0  0  0  0  0  0  0  0
   11.4563    5.0429    3.0578 H   0  0  0  0  0  0  0  0  0  0  0  0
   10.6762    4.9156    4.6463 H   0  0  0  0  0  0  0  0  0  0  0  0
    9.1519    5.7837    2.4060 C   0  0  0  0  0  0  0  0  0  0  0  0
    9.0907    6.5332    3.1986 H   0  0  0  0  0  0  0  0  0  0  0  0
   10.0007    6.0466    1.7565 H   0  0  0  0  0  0  0  0  0  0  0  0
    8.2676    2.5905    7.3383 C   0  0  0  0  0  0  0  0  0  0  0  0
    8.2318    2.2140    8.3610 H   0  0  0  0  0  0  0  0  0  0  0  0
    8.6505    3.6116    7.3674 H   0  0  0  0  0  0  0  0  0  0  0  0
    6.8298    2.5907    6.8102 C   0  0  0  0  0  0  0  0  0  0  0  0
    6.2797    3.4063    7.3026 H   0  0  0  0  0  0  0  0  0  0  0  0
    6.3485    1.6439    7.0764 H   0  0  0  0  0  0  0  0  0  0  0  0
    5.5991    2.2340    4.8158 C   0  0  0  0  0  0  0  0  0  0  0  0
    5.3125    0.8813    4.9625 C   0  0  0  0  0  0  0  0  0  0  0  0
    5.9920    0.2430    5.5080 H   0  0  0  0  0  0  0  0  0  0  0  0
    4.1889    0.3329    4.3762 C   0  0  0  0  0  0  0  0  0  0  0  0
    3.9886   -0.7214    4.4904 H   0  0  0  0  0  0  0  0  0  0  0  0
    3.3386    1.1319    3.6334 C   0  0  0  0  0  0  0  0  0  0  0  0
    2.4581    0.7109    3.1732 H   0  0  0  0  0  0  0  0  0  0  0  0
    3.6385    2.4697    3.4604 C   0  0  0  0  0  0  0  0  0  0  0  0
    2.9888    3.0906    2.8601 H   0  0  0  0  0  0  0  0  0  0  0  0
    4.7604    3.0447    4.0429 C   0  0  0  0  0  0  0  0  0  0  0  0
    5.1000    4.4824    3.7510 C   0  0  0  0  0  0  0  0  0  0  0  0
    5.3261    5.0300    4.6728 H   0  0  0  0  0  0  0  0  0  0  0  0
    4.2402    4.9707    3.2652 H   0  0  0  0  0  0  0  0  0  0  0  0
    6.5726    5.8431    2.3479 C   0  0  0  0  0  0  0  0  0  0  0  0
    5.7550    6.1865    1.6921 H   0  0  0  0  0  0  0  0  0  0  0  0
    6.6544    6.5478    3.1801 H   0  0  0  0  0  0  0  0  0  0  0  0
    7.8805    5.8292    1.5524 C   0  0  0  0  0  0  0  0  0  0  0  0
    7.9246    6.7428    0.9571 H   0  0  0  0  0  0  0  0  0  0  0  0
    7.8738    4.9805    0.8620 H   0  0  0  0  0  0  0  0  0  0  0  0
  1  2  1  0  0  0  0
  3  1  1  0  0  0  0
  4 10  1  0  0  0  0
  5 32  1  0  0  0  0
  6  7  1  6  0  0  0
  6 23  1  0  0  0  0
  6  1  1  0  0  0  0
  8  9  1  6  0  0  0
  8 45  1  0  0  0  0
  8  1  1  0  0  0  0
 10 11  1  0  0  0  0
 10 29  1  0  0  0  0
 12 10  1  0  0  0  0
 13 14  1  0  0  0  0
 13  4  1  0  0  0  0
 14 15  1  0  0  0  0
 16 17  1  0  0  0  0
 16 14  2  0  0  0  0
 18 16  1  0  0  0  0
 19 18  1  0  0  0  0
 20 18  2  0  0  0  0
 20 22  1  0  0  0  0
 21 20  1  0  0  0  0
 22 13  2  0  0  0  0
 23 22  1  0  0  0  0
 23 25  1  0  0  0  0
 24 23  1  0  0  0  0
 26  6  1  0  0  0  0
 26 27  1  0  0  0  0
 28 26  1  0  0  0  0
 29 31  1  0  0  0  0
 29 30  1  0  0  0  0
 32 34  1  0  0  0  0
 32 33  1  0  0  0  0
 32 29  1  0  0  0  0
 35 36  1  0  0  0  0
 35  5  1  0  0  0  0
 36 37  1  0  0  0  0
 38 39  1  0  0  0  0
 38 36  2  0  0  0  0
 40 38  1  0  0  0  0
 41 40  1  0  0  0  0
 42 40  2  0  0  0  0
 42 44  1  0  0  0  0
 43 42  1  0  0  0  0
 44 35  2  0  0  0  0
 45 44  1  0  0  0  0
 45 46  1  0  0  0  0
 47 45  1  0  0  0  0
 48  8  1  0  0  0  0
 48 50  1  0  0  0  0
 49 48  1  0  0  0  0
 51 48  1  0  0  0  0
 51 26  1  0  0  0  0
 52 51  1  0  0  0  0
 53 51  1  0  0  0  0
M  END
$$$$
