CSD_code = BIBGAX | q = 0 | S = 0 | Stoichiometry = C39H37ClN2OPdS | MND = 4
 OpenBabel04212202013D

 82 88  0  0  0  0  0  0  0  0999 V2000
   19.3024   16.9525   10.6037 C   0  0  0  0  0  0  0  0  0  0  0  0
   20.5554   18.4187   11.7208 C   0  0  0  0  0  0  0  0  0  0  0  0
   21.4392   18.8077   12.1842 H   0  0  0  0  0  0  0  0  0  0  0  0
   19.2886   18.8976   11.6986 C   0  0  0  0  0  0  0  0  0  0  0  0
   18.8790   19.8019   12.1002 H   0  0  0  0  0  0  0  0  0  0  0  0
   21.7054   16.4552   10.7471 C   0  0  0  0  0  0  0  0  0  0  0  0
   22.7114   17.0319    9.9650 C   0  0  0  0  0  0  0  0  0  0  0  0
   23.8729   16.3064    9.7430 C   0  0  0  0  0  0  0  0  0  0  0  0
   24.6589   16.7422    9.1438 H   0  0  0  0  0  0  0  0  0  0  0  0
   24.0269   15.0346   10.2637 C   0  0  0  0  0  0  0  0  0  0  0  0
   24.9424   14.4881   10.0915 H   0  0  0  0  0  0  0  0  0  0  0  0
   22.9970   14.4536   10.9763 C   0  0  0  0  0  0  0  0  0  0  0  0
   23.0982   13.4447   11.3479 H   0  0  0  0  0  0  0  0  0  0  0  0
   21.8165   15.1454   11.2209 C   0  0  0  0  0  0  0  0  0  0  0  0
   22.5140   18.3549    9.2898 C   0  0  0  0  0  0  0  0  0  0  0  0
   22.2179   19.1421    9.9792 H   0  0  0  0  0  0  0  0  0  0  0  0
   21.7285   18.2400    8.5414 H   0  0  0  0  0  0  0  0  0  0  0  0
   23.4263   18.6614    8.7845 H   0  0  0  0  0  0  0  0  0  0  0  0
   20.6961   14.4635   11.9403 C   0  0  0  0  0  0  0  0  0  0  0  0
   21.0727   13.6395   12.5418 H   0  0  0  0  0  0  0  0  0  0  0  0
   19.9831   14.0384   11.2042 H   0  0  0  0  0  0  0  0  0  0  0  0
   20.1416   15.1455   12.5852 H   0  0  0  0  0  0  0  0  0  0  0  0
   17.1553   18.0345   10.6751 C   0  0  0  0  0  0  0  0  0  0  0  0
   16.1874   17.8921   11.6702 C   0  0  0  0  0  0  0  0  0  0  0  0
   14.8556   17.8293   11.2798 C   0  0  0  0  0  0  0  0  0  0  0  0
   14.0948   17.7015   12.0348 H   0  0  0  0  0  0  0  0  0  0  0  0
   14.4995   17.8948    9.9468 C   0  0  0  0  0  0  0  0  0  0  0  0
   13.4609   17.8159    9.6614 H   0  0  0  0  0  0  0  0  0  0  0  0
   15.4685   18.0774    8.9760 C   0  0  0  0  0  0  0  0  0  0  0  0
   15.1826   18.1646    7.9373 H   0  0  0  0  0  0  0  0  0  0  0  0
   16.8110   18.1634    9.3222 C   0  0  0  0  0  0  0  0  0  0  0  0
   16.5646   17.7438   13.1092 C   0  0  0  0  0  0  0  0  0  0  0  0
   17.2987   18.4837   13.4196 H   0  0  0  0  0  0  0  0  0  0  0  0
   16.9932   16.7496   13.2438 H   0  0  0  0  0  0  0  0  0  0  0  0
   15.6866   17.8299   13.7429 H   0  0  0  0  0  0  0  0  0  0  0  0
   17.8442   18.5182    8.2864 C   0  0  0  0  0  0  0  0  0  0  0  0
   18.6427   17.7780    8.2147 H   0  0  0  0  0  0  0  0  0  0  0  0
   18.3058   19.4734    8.5434 H   0  0  0  0  0  0  0  0  0  0  0  0
   17.3801   18.6166    7.3078 H   0  0  0  0  0  0  0  0  0  0  0  0
   20.3903   13.7180    8.0324 C   0  0  0  0  0  0  0  0  0  0  0  0
   21.7701   13.6714    8.0501 C   0  0  0  0  0  0  0  0  0  0  0  0
   22.3193   14.5763    7.8360 H   0  0  0  0  0  0  0  0  0  0  0  0
   22.4078   12.4790    8.3460 C   0  0  0  0  0  0  0  0  0  0  0  0
   23.4859   12.4310    8.3556 H   0  0  0  0  0  0  0  0  0  0  0  0
   21.6508   11.3587    8.6484 C   0  0  0  0  0  0  0  0  0  0  0  0
   22.1424   10.4328    8.9094 H   0  0  0  0  0  0  0  0  0  0  0  0
   20.2671   11.4099    8.6135 C   0  0  0  0  0  0  0  0  0  0  0  0
   19.6884   10.5323    8.8574 H   0  0  0  0  0  0  0  0  0  0  0  0
   19.6055   12.5908    8.2881 C   0  0  0  0  0  0  0  0  0  0  0  0
   18.1315   12.6724    8.1781 C   0  0  0  0  0  0  0  0  0  0  0  0
   17.4342   11.7768    7.3576 C   0  0  0  0  0  0  0  0  0  0  0  0
   16.0538   11.8894    7.2643 C   0  0  0  0  0  0  0  0  0  0  0  0
   15.5143   11.2023    6.6268 H   0  0  0  0  0  0  0  0  0  0  0  0
   15.3676   12.8641    7.9624 C   0  0  0  0  0  0  0  0  0  0  0  0
   14.2914   12.9296    7.8841 H   0  0  0  0  0  0  0  0  0  0  0  0
   16.0646   13.7724    8.7422 C   0  0  0  0  0  0  0  0  0  0  0  0
   15.5226   14.5521    9.2731 H   0  0  0  0  0  0  0  0  0  0  0  0
   17.4498   13.6939    8.8576 C   0  0  0  0  0  0  0  0  0  0  0  0
   18.1277   10.7373    6.5230 C   0  0  0  0  0  0  0  0  0  0  0  0
   19.1450   11.0336    6.2771 H   0  0  0  0  0  0  0  0  0  0  0  0
   17.5765   10.5813    5.5971 H   0  0  0  0  0  0  0  0  0  0  0  0
   18.1672    9.7832    7.0492 H   0  0  0  0  0  0  0  0  0  0  0  0
   18.5959   14.9640    6.3652 C   0  0  0  0  0  0  0  0  0  0  0  0
   19.1239   14.2744    5.2926 C   0  0  0  0  0  0  0  0  0  0  0  0
   20.1518   13.9430    5.3187 H   0  0  0  0  0  0  0  0  0  0  0  0
   18.3168   14.0031    4.2009 C   0  0  0  0  0  0  0  0  0  0  0  0
   18.7215   13.4516    3.3646 H   0  0  0  0  0  0  0  0  0  0  0  0
   16.9917   14.4189    4.1745 C   0  0  0  0  0  0  0  0  0  0  0  0
   16.4880   15.1364    5.2564 C   0  0  0  0  0  0  0  0  0  0  0  0
   15.4600   15.4674    5.2420 H   0  0  0  0  0  0  0  0  0  0  0  0
   17.2852   15.4113    6.3494 C   0  0  0  0  0  0  0  0  0  0  0  0
   16.8953   15.9501    7.2084 H   0  0  0  0  0  0  0  0  0  0  0  0
   16.1023   14.0964    3.0139 C   0  0  0  0  0  0  0  0  0  0  0  0
   15.6548   15.0039    2.6118 H   0  0  0  0  0  0  0  0  0  0  0  0
   15.2927   13.4427    3.3369 H   0  0  0  0  0  0  0  0  0  0  0  0
   16.6552   13.5983    2.2218 H   0  0  0  0  0  0  0  0  0  0  0  0
   20.5461   17.2259   11.0387 N   0  0  0  0  0  0  0  0  0  0  0  0
   18.5392   17.9865   11.0045 N   0  0  0  0  0  0  0  0  0  0  0  0
   20.5585   16.3055    7.5466 O   0  0  0  0  0  1  0  0  0  0  0  0
   19.5546   15.2871    7.8580 S   0  0  2  0  0  0  0  0  0  0  0  0
   17.2797   14.8378   11.6252 Cl  0  0  0  0  0  0  0  0  0  0  0  0
   18.4086   15.2515    9.7228 Pd  0  0  1  0  0  0  0  0  0  0  0  0
  1 78  1  0  0  0  0
  1 77  1  0  0  0  0
  2  3  1  0  0  0  0
  4  2  2  0  0  0  0
  4  5  1  0  0  0  0
  6 77  1  0  0  0  0
  6 14  1  0  0  0  0
  7  6  2  0  0  0  0
  8  7  1  0  0  0  0
  8 10  2  0  0  0  0
  9  8  1  0  0  0  0
 10 12  1  0  0  0  0
 11 10  1  0  0  0  0
 12 14  2  0  0  0  0
 12 13  1  0  0  0  0
 14 19  1  0  0  0  0
 15  7  1  0  0  0  0
 15 16  1  0  0  0  0
 17 15  1  0  0  0  0
 18 15  1  0  0  0  0
 19 20  1  0  0  0  0
 19 22  1  0  0  0  0
 21 19  1  0  0  0  0
 23 78  1  0  0  0  0
 23 24  1  0  0  0  0
 24 32  1  0  0  0  0
 25 24  2  0  0  0  0
 25 26  1  0  0  0  0
 27 25  1  0  0  0  0
 28 27  1  0  0  0  0
 29 31  1  0  0  0  0
 29 27  2  0  0  0  0
 30 29  1  0  0  0  0
 31 23  2  0  0  0  0
 32 34  1  0  0  0  0
 32 33  1  0  0  0  0
 32 35  1  0  0  0  0
 36 38  1  0  0  0  0
 36 31  1  0  0  0  0
 37 36  1  0  0  0  0
 39 36  1  0  0  0  0
 40 41  2  0  0  0  0
 40 49  1  0  0  0  0
 41 43  1  0  0  0  0
 42 41  1  0  0  0  0
 43 44  1  0  0  0  0
 43 45  2  0  0  0  0
 45 46  1  0  0  0  0
 47 45  1  0  0  0  0
 47 48  1  0  0  0  0
 49 47  2  0  0  0  0
 50 49  1  0  0  0  0
 50 58  1  0  0  0  0
 51 50  2  0  0  0  0
 52 51  1  0  0  0  0
 52 54  2  0  0  0  0
 53 52  1  0  0  0  0
 54 56  1  0  0  0  0
 55 54  1  0  0  0  0
 56 58  2  0  0  0  0
 56 57  1  0  0  0  0
 58 82  1  0  0  0  0
 59 62  1  0  0  0  0
 59 51  1  0  0  0  0
 60 59  1  0  0  0  0
 61 59  1  0  0  0  0
 63 80  1  0  0  0  0
 64 65  1  0  0  0  0
 64 63  2  0  0  0  0
 66 64  1  0  0  0  0
 67 66  1  0  0  0  0
 68 66  2  0  0  0  0
 68 69  1  0  0  0  0
 69 71  2  0  0  0  0
 70 69  1  0  0  0  0
 71 63  1  0  0  0  0
 71 72  1  0  0  0  0
 73 75  1  0  0  0  0
 73 68  1  0  0  0  0
 74 73  1  0  0  0  0
 76 73  1  0  0  0  0
 77  2  1  0  0  0  0
 78  4  1  0  0  0  0
 80 79  1  6  0  0  0
 80 40  1  0  0  0  0
 80 82  1  0  0  0  0
 82  1  2  0  0  0  0
 82 81  1  1  0  0  0
M  END
$$$$
