CSD_code = BIBXIW | q = 0 | S = 0 | Stoichiometry = C36H54ClNP4Ti | MND = 6
 OpenBabel04212202013D

 97102  0  0  0  0  0  0  0  0999 V2000
    5.2660   12.3724    6.9411 C   0  0  0  0  0  0  0  0  0  0  0  0
    3.9812   12.8509    6.6036 C   0  0  0  0  0  0  0  0  0  0  0  0
    3.5785   14.1147    7.0093 C   0  0  0  0  0  0  0  0  0  0  0  0
    2.5857   14.4679    6.7674 H   0  0  0  0  0  0  0  0  0  0  0  0
    4.4259   14.9418    7.7355 C   0  0  0  0  0  0  0  0  0  0  0  0
    5.7064   14.4845    8.0260 C   0  0  0  0  0  0  0  0  0  0  0  0
    6.3906   15.1258    8.5635 H   0  0  0  0  0  0  0  0  0  0  0  0
    6.1232   13.2258    7.6433 C   0  0  0  0  0  0  0  0  0  0  0  0
    7.1257   12.8913    7.8741 H   0  0  0  0  0  0  0  0  0  0  0  0
    3.9722   16.3069    8.1582 C   0  0  0  0  0  0  0  0  0  0  0  0
    4.6209   16.7088    8.9323 H   0  0  0  0  0  0  0  0  0  0  0  0
    3.9933   16.9892    7.3080 H   0  0  0  0  0  0  0  0  0  0  0  0
    2.9517   16.2758    8.5358 H   0  0  0  0  0  0  0  0  0  0  0  0
    6.2772   10.2752    7.4524 C   0  0  0  0  0  0  0  0  0  0  0  0
    6.2183   10.4621    8.8466 C   0  0  0  0  0  0  0  0  0  0  0  0
    5.6712   11.3064    9.2444 H   0  0  0  0  0  0  0  0  0  0  0  0
    6.8267    9.5813    9.7111 C   0  0  0  0  0  0  0  0  0  0  0  0
    6.7572    9.7552   10.7759 H   0  0  0  0  0  0  0  0  0  0  0  0
    7.5171    8.4628    9.2485 C   0  0  0  0  0  0  0  0  0  0  0  0
    7.5757    8.2572    7.8798 C   0  0  0  0  0  0  0  0  0  0  0  0
    8.0922    7.3854    7.5022 H   0  0  0  0  0  0  0  0  0  0  0  0
    6.9804    9.1391    6.9858 C   0  0  0  0  0  0  0  0  0  0  0  0
    8.1650    7.5146   10.2123 C   0  0  0  0  0  0  0  0  0  0  0  0
    8.6710    6.7094    9.6851 H   0  0  0  0  0  0  0  0  0  0  0  0
    8.8947    8.0376   10.8298 H   0  0  0  0  0  0  0  0  0  0  0  0
    7.4199    7.0785   10.8773 H   0  0  0  0  0  0  0  0  0  0  0  0
    1.9945   10.7251    6.7349 C   0  0  0  0  0  0  0  0  0  0  0  0
    1.2732   10.1834    6.1085 H   0  0  0  0  0  0  0  0  0  0  0  0
    2.8797    9.6960    7.4369 C   0  0  0  0  0  0  0  0  0  0  0  0
    3.4407    9.1042    6.7055 H   0  0  0  0  0  0  0  0  0  0  0  0
    3.5805   10.1869    8.1132 H   0  0  0  0  0  0  0  0  0  0  0  0
    2.2682    9.0120    8.0254 H   0  0  0  0  0  0  0  0  0  0  0  0
    1.2554   11.5882    7.7525 C   0  0  0  0  0  0  0  0  0  0  0  0
    0.5381   12.2502    7.2733 H   0  0  0  0  0  0  0  0  0  0  0  0
    0.7100   10.9515    8.4479 H   0  0  0  0  0  0  0  0  0  0  0  0
    1.9604   12.1920    8.3228 H   0  0  0  0  0  0  0  0  0  0  0  0
    1.7881   12.7805    4.6713 C   0  0  0  0  0  0  0  0  0  0  0  0
    1.1737   13.2886    5.4248 H   0  0  0  0  0  0  0  0  0  0  0  0
    0.9075   11.8727    3.8115 C   0  0  0  0  0  0  0  0  0  0  0  0
    0.2151   11.2947    4.4206 H   0  0  0  0  0  0  0  0  0  0  0  0
    0.3243   12.4661    3.1093 H   0  0  0  0  0  0  0  0  0  0  0  0
    1.5269   11.1777    3.2414 H   0  0  0  0  0  0  0  0  0  0  0  0
    2.4991   13.8217    3.8135 C   0  0  0  0  0  0  0  0  0  0  0  0
    3.1602   14.4449    4.4135 H   0  0  0  0  0  0  0  0  0  0  0  0
    3.1125   13.3337    3.0559 H   0  0  0  0  0  0  0  0  0  0  0  0
    1.7716   14.4601    3.3142 H   0  0  0  0  0  0  0  0  0  0  0  0
    7.0201    7.1268    4.8915 C   0  0  0  0  0  0  0  0  0  0  0  0
    7.9136    6.6884    5.3526 H   0  0  0  0  0  0  0  0  0  0  0  0
    5.7687    6.5225    5.5239 C   0  0  0  0  0  0  0  0  0  0  0  0
    5.7381    6.7108    6.5972 H   0  0  0  0  0  0  0  0  0  0  0  0
    4.8745    6.9487    5.0677 H   0  0  0  0  0  0  0  0  0  0  0  0
    5.7503    5.4453    5.3634 H   0  0  0  0  0  0  0  0  0  0  0  0
    7.0419    6.8846    3.3852 C   0  0  0  0  0  0  0  0  0  0  0  0
    7.9663    7.2560    2.9451 H   0  0  0  0  0  0  0  0  0  0  0  0
    6.9591    5.8206    3.1680 H   0  0  0  0  0  0  0  0  0  0  0  0
    6.1990    7.3992    2.9182 H   0  0  0  0  0  0  0  0  0  0  0  0
    8.7577    9.5358    4.7683 C   0  0  0  0  0  0  0  0  0  0  0  0
    8.8373    9.4848    3.6741 H   0  0  0  0  0  0  0  0  0  0  0  0
    8.8606   10.9991    5.1958 C   0  0  0  0  0  0  0  0  0  0  0  0
    8.0216   11.5796    4.7911 H   0  0  0  0  0  0  0  0  0  0  0  0
    8.8472   11.0791    6.2839 H   0  0  0  0  0  0  0  0  0  0  0  0
    9.7872   11.4368    4.8279 H   0  0  0  0  0  0  0  0  0  0  0  0
    9.8757    8.7102    5.3954 C   0  0  0  0  0  0  0  0  0  0  0  0
    9.8684    7.6825    5.0395 H   0  0  0  0  0  0  0  0  0  0  0  0
   10.8358    9.1479    5.1257 H   0  0  0  0  0  0  0  0  0  0  0  0
    9.7963    8.7134    6.4809 H   0  0  0  0  0  0  0  0  0  0  0  0
    7.8074   10.7895    1.6517 C   0  0  0  0  0  0  0  0  0  0  0  0
    8.4972   11.9914    1.7481 C   0  0  0  0  0  0  0  0  0  0  0  0
    7.9977   12.8459    2.1874 H   0  0  0  0  0  0  0  0  0  0  0  0
    9.7977   12.0920    1.2889 C   0  0  0  0  0  0  0  0  0  0  0  0
   10.3228   13.0338    1.3635 H   0  0  0  0  0  0  0  0  0  0  0  0
   10.4279   10.9910    0.7323 C   0  0  0  0  0  0  0  0  0  0  0  0
   11.4444   11.0701    0.3744 H   0  0  0  0  0  0  0  0  0  0  0  0
    9.7512    9.7858    0.6381 C   0  0  0  0  0  0  0  0  0  0  0  0
   10.2398    8.9228    0.2072 H   0  0  0  0  0  0  0  0  0  0  0  0
    8.4516    9.6844    1.1001 C   0  0  0  0  0  0  0  0  0  0  0  0
    7.9259    8.7410    1.0351 H   0  0  0  0  0  0  0  0  0  0  0  0
    5.1391   10.8603    0.6481 C   0  0  0  0  0  0  0  0  0  0  0  0
    5.5047   12.2076    0.0372 C   0  0  0  0  0  0  0  0  0  0  0  0
    5.3674   12.9993    0.7746 H   0  0  0  0  0  0  0  0  0  0  0  0
    6.5434   12.2163   -0.2889 H   0  0  0  0  0  0  0  0  0  0  0  0
    4.8697   12.4164   -0.8238 H   0  0  0  0  0  0  0  0  0  0  0  0
    5.4474    9.7226   -0.3214 C   0  0  0  0  0  0  0  0  0  0  0  0
    5.2688    8.7581    0.1534 H   0  0  0  0  0  0  0  0  0  0  0  0
    4.8026    9.7974   -1.1970 H   0  0  0  0  0  0  0  0  0  0  0  0
    6.4819    9.7641   -0.6563 H   0  0  0  0  0  0  0  0  0  0  0  0
    3.6603   10.8300    1.0232 C   0  0  0  0  0  0  0  0  0  0  0  0
    3.4686   11.5584    1.8161 H   0  0  0  0  0  0  0  0  0  0  0  0
    3.0359   11.0756    0.1643 H   0  0  0  0  0  0  0  0  0  0  0  0
    3.3793    9.8411    1.3870 H   0  0  0  0  0  0  0  0  0  0  0  0
    3.7200    8.9343    3.9608 Cl  0  0  0  0  0  0  0  0  0  0  0  0
    5.1036   10.5138    4.7880 Ti  0  0  0  0  0  0  0  0  0  0  0  0
    5.7321   12.3108    3.4551 P   0  0  0  0  0  2  0  0  0  0  0  0
    6.0885   10.5729    2.2856 P   0  0  1  0  0  4  0  0  0  0  0  0
    3.0464   11.7127    5.5369 P   0  0  0  0  0  4  0  0  0  0  0  0
    7.0218    8.9657    5.1783 P   0  0  0  0  0  4  0  0  0  0  0  0
    5.6296   11.0898    6.5604 N   0  0  0  0  0  0  0  0  0  0  0  0
  1  8  1  0  0  0  0
  2  1  2  0  0  0  0
  2  3  1  0  0  0  0
  3  5  2  0  0  0  0
  4  3  1  0  0  0  0
  5  6  1  0  0  0  0
  5 10  1  0  0  0  0
  6  7  1  0  0  0  0
  8  9  1  0  0  0  0
  8  6  2  0  0  0  0
 10 13  1  0  0  0  0
 10 11  1  0  0  0  0
 12 10  1  0  0  0  0
 14 15  1  0  0  0  0
 15 16  1  0  0  0  0
 15 17  2  0  0  0  0
 17 18  1  0  0  0  0
 19 17  1  0  0  0  0
 19 23  1  0  0  0  0
 20 19  2  0  0  0  0
 21 20  1  0  0  0  0
 22 14  2  0  0  0  0
 22 20  1  0  0  0  0
 23 25  1  0  0  0  0
 23 26  1  0  0  0  0
 24 23  1  0  0  0  0
 27 29  1  0  0  0  0
 27 33  1  0  0  0  0
 28 27  1  0  0  0  0
 29 32  1  0  0  0  0
 29 31  1  0  0  0  0
 30 29  1  0  0  0  0
 33 36  1  0  0  0  0
 33 35  1  0  0  0  0
 34 33  1  0  0  0  0
 37 38  1  0  0  0  0
 37 95  1  0  0  0  0
 39 40  1  0  0  0  0
 39 37  1  0  0  0  0
 41 39  1  0  0  0  0
 42 39  1  0  0  0  0
 43 44  1  0  0  0  0
 43 37  1  0  0  0  0
 45 43  1  0  0  0  0
 46 43  1  0  0  0  0
 47 96  1  0  0  0  0
 47 48  1  0  0  0  0
 47 49  1  0  0  0  0
 49 50  1  0  0  0  0
 51 49  1  0  0  0  0
 52 49  1  0  0  0  0
 53 47  1  0  0  0  0
 54 53  1  0  0  0  0
 55 53  1  0  0  0  0
 56 53  1  0  0  0  0
 57 96  1  0  0  0  0
 57 59  1  0  0  0  0
 57 63  1  0  0  0  0
 58 57  1  0  0  0  0
 59 61  1  0  0  0  0
 60 59  1  0  0  0  0
 62 59  1  0  0  0  0
 63 66  1  0  0  0  0
 64 63  1  0  0  0  0
 65 63  1  0  0  0  0
 67 68  1  0  0  0  0
 67 94  1  0  0  0  0
 68 69  1  0  0  0  0
 70 71  1  0  0  0  0
 70 68  2  0  0  0  0
 72 70  1  0  0  0  0
 73 72  1  0  0  0  0
 74 72  2  0  0  0  0
 74 76  1  0  0  0  0
 75 74  1  0  0  0  0
 76 67  2  0  0  0  0
 77 76  1  0  0  0  0
 78 87  1  0  0  0  0
 79 78  1  0  0  0  0
 79 80  1  0  0  0  0
 81 79  1  0  0  0  0
 82 79  1  0  0  0  0
 83 84  1  0  0  0  0
 83 78  1  0  0  0  0
 85 83  1  0  0  0  0
 86 83  1  0  0  0  0
 87 90  1  0  0  0  0
 87 88  1  0  0  0  0
 89 87  1  0  0  0  0
 91 92  1  0  0  0  0
 92 96  1  0  0  0  0
 92 95  1  0  0  0  0
 92 97  1  0  0  0  0
 93 92  1  0  0  0  0
 94 78  1  6  0  0  0
 94 93  1  0  0  0  0
 94 92  1  0  0  0  0
 95  2  1  0  0  0  0
 95 27  1  0  0  0  0
 96 22  1  0  0  0  0
 97  1  1  0  0  0  0
 97 14  1  0  0  0  0
M  END
$$$$
