CSD_code = BICDUN | q = 0 | S = 0 | Stoichiometry = C14H23ClFeO2P2 | MND = 6
 OpenBabel04212202013D

 43 43  0  0  0  0  0  0  0  0999 V2000
    7.3299    0.4928    8.8069 Fe  0  0  0  0  0  0  0  0  0  0  0  0
    8.4666    1.7625   10.1703 Cl  0  0  0  0  0  0  0  0  0  0  0  0
    6.6443   -0.6117   10.5571 P   0  0  0  0  0  4  0  0  0  0  0  0
    7.5175    2.1496    7.4014 P   0  0  0  0  0  4  0  0  0  0  0  0
    6.4067   -1.4376    6.8912 O   0  0  0  0  0  1  0  0  0  0  0  0
    9.7666   -0.9593    8.2086 O   0  0  0  0  0  1  0  0  0  0  0  0
    6.6803   -0.6298    7.6629 C   0  0  0  0  0  2  0  0  0  0  0  0
    8.8257   -0.3608    8.4719 C   0  0  0  0  0  2  0  0  0  0  0  0
    5.5520    1.4442    9.1461 C   0  0  0  0  0  0  0  0  0  0  0  0
    4.4038    1.0473    8.4539 C   0  0  0  0  0  0  0  0  0  0  0  0
    4.4624    0.2337    7.7421 H   0  0  0  0  0  0  0  0  0  0  0  0
    3.1757    1.6584    8.6437 C   0  0  0  0  0  0  0  0  0  0  0  0
    2.3157    1.3163    8.0833 H   0  0  0  0  0  0  0  0  0  0  0  0
    3.0472    2.7004    9.5444 C   0  0  0  0  0  0  0  0  0  0  0  0
    2.0905    3.1797    9.6958 H   0  0  0  0  0  0  0  0  0  0  0  0
    4.1634    3.1176   10.2460 C   0  0  0  0  0  0  0  0  0  0  0  0
    4.0861    3.9309   10.9550 H   0  0  0  0  0  0  0  0  0  0  0  0
    5.3865    2.4990   10.0456 C   0  0  0  0  0  0  0  0  0  0  0  0
    6.2388    2.8547   10.6071 H   0  0  0  0  0  0  0  0  0  0  0  0
    6.2760    0.2500   12.1235 C   0  0  0  0  0  0  0  0  0  0  0  0
    7.1243    0.8808   12.3863 H   0  0  0  0  0  0  0  0  0  0  0  0
    6.1064   -0.4943   12.9026 H   0  0  0  0  0  0  0  0  0  0  0  0
    5.3905    0.8714   12.0006 H   0  0  0  0  0  0  0  0  0  0  0  0
    5.1538   -1.6566   10.3719 C   0  0  0  0  0  0  0  0  0  0  0  0
    5.2995   -2.3556    9.5492 H   0  0  0  0  0  0  0  0  0  0  0  0
    4.2994   -1.0193   10.1480 H   0  0  0  0  0  0  0  0  0  0  0  0
    4.9706   -2.2093   11.2936 H   0  0  0  0  0  0  0  0  0  0  0  0
    7.8674   -1.8417   11.1529 C   0  0  0  0  0  0  0  0  0  0  0  0
    8.0969   -2.5407   10.3481 H   0  0  0  0  0  0  0  0  0  0  0  0
    7.4858   -2.3860   12.0172 H   0  0  0  0  0  0  0  0  0  0  0  0
    8.7795   -1.3099   11.4269 H   0  0  0  0  0  0  0  0  0  0  0  0
    6.4715    2.1017    5.9006 C   0  0  0  0  0  0  0  0  0  0  0  0
    6.6455    1.1692    5.3651 H   0  0  0  0  0  0  0  0  0  0  0  0
    6.7078    2.9459    5.2525 H   0  0  0  0  0  0  0  0  0  0  0  0
    5.4251    2.1494    6.1990 H   0  0  0  0  0  0  0  0  0  0  0  0
    9.1929    2.2768    6.6692 C   0  0  0  0  0  0  0  0  0  0  0  0
    9.4385    1.3424    6.1642 H   0  0  0  0  0  0  0  0  0  0  0  0
    9.9052    2.4376    7.4793 H   0  0  0  0  0  0  0  0  0  0  0  0
    9.2472    3.1045    5.9615 H   0  0  0  0  0  0  0  0  0  0  0  0
    7.2758    3.8789    7.9342 C   0  0  0  0  0  0  0  0  0  0  0  0
    6.2297    4.0453    8.1852 H   0  0  0  0  0  0  0  0  0  0  0  0
    7.5747    4.5395    7.1192 H   0  0  0  0  0  0  0  0  0  0  0  0
    7.8921    4.0676    8.8121 H   0  0  0  0  0  0  0  0  0  0  0  0
  1  9  1  0  0  0  0
  1  2  1  0  0  0  0
  1  3  1  0  0  0  0
  3 28  1  0  0  0  0
  3 20  1  0  0  0  0
  4 40  1  0  0  0  0
  4  1  1  0  0  0  0
  5  7  1  0  0  0  0
  6  8  1  0  0  0  0
  7  1  1  0  0  0  0
  8  1  1  0  0  0  0
  9 18  1  0  0  0  0
 10 12  1  0  0  0  0
 10  9  2  0  0  0  0
 11 10  1  0  0  0  0
 12 14  2  0  0  0  0
 13 12  1  0  0  0  0
 14 15  1  0  0  0  0
 14 16  1  0  0  0  0
 16 17  1  0  0  0  0
 18 16  2  0  0  0  0
 18 19  1  0  0  0  0
 20 21  1  0  0  0  0
 20 22  1  0  0  0  0
 23 20  1  0  0  0  0
 24  3  1  0  0  0  0
 24 27  1  0  0  0  0
 25 24  1  0  0  0  0
 26 24  1  0  0  0  0
 28 31  1  0  0  0  0
 28 30  1  0  0  0  0
 29 28  1  0  0  0  0
 32 35  1  0  0  0  0
 32  4  1  0  0  0  0
 33 32  1  0  0  0  0
 34 32  1  0  0  0  0
 36  4  1  0  0  0  0
 36 38  1  0  0  0  0
 37 36  1  0  0  0  0
 39 36  1  0  0  0  0
 40 41  1  0  0  0  0
 40 43  1  0  0  0  0
 42 40  1  0  0  0  0
M  END
$$$$
