CSD_code = BICDOH | q = 0 | S = 0 | Stoichiometry = C14H23FeIO2P2 | MND = 6
 OpenBabel04212202013D

 43 43  0  0  0  0  0  0  0  0999 V2000
    6.6755    0.4760    9.8137 Fe  0  0  0  0  0  0  0  0  0  0  0  0
    7.3877   -0.6612    8.0868 P   0  0  0  0  0  4  0  0  0  0  0  0
    6.5520    2.0892   11.2860 P   0  0  0  0  0  4  0  0  0  0  0  0
    7.6442   -1.4473   11.7089 O   0  0  0  0  0  1  0  0  0  0  0  0
    4.4008   -1.1368   10.6119 O   0  0  0  0  0  1  0  0  0  0  0  0
    5.1370    1.8059    8.2771 I   0  0  0  0  0  0  0  0  0  0  0  0
    7.3509   -0.6401   10.9437 C   0  0  0  0  0  2  0  0  0  0  0  0
    5.2640   -0.4694   10.2614 C   0  0  0  0  0  2  0  0  0  0  0  0
    8.4412    1.4521    9.4309 C   0  0  0  0  0  0  0  0  0  0  0  0
    9.5942    1.0347   10.1047 C   0  0  0  0  0  0  0  0  0  0  0  0
    9.5394    0.2104   10.8059 H   0  0  0  0  0  0  0  0  0  0  0  0
   10.8270    1.6351    9.9136 C   0  0  0  0  0  0  0  0  0  0  0  0
   11.6870    1.2729   10.4610 H   0  0  0  0  0  0  0  0  0  0  0  0
   10.9590    2.6901    9.0291 C   0  0  0  0  0  0  0  0  0  0  0  0
   11.9189    3.1617    8.8762 H   0  0  0  0  0  0  0  0  0  0  0  0
    9.8406    3.1286    8.3454 C   0  0  0  0  0  0  0  0  0  0  0  0
    9.9163    3.9516    7.6480 H   0  0  0  0  0  0  0  0  0  0  0  0
    8.6128    2.5193    8.5467 C   0  0  0  0  0  0  0  0  0  0  0  0
    7.7728    2.9053    7.9864 H   0  0  0  0  0  0  0  0  0  0  0  0
    7.9012    0.1297    6.5237 C   0  0  0  0  0  0  0  0  0  0  0  0
    8.7708    0.7623    6.6992 H   0  0  0  0  0  0  0  0  0  0  0  0
    7.0884    0.7349    6.1231 H   0  0  0  0  0  0  0  0  0  0  0  0
    8.1542   -0.6586    5.8124 H   0  0  0  0  0  0  0  0  0  0  0  0
    8.8186   -1.7593    8.3807 C   0  0  0  0  0  0  0  0  0  0  0  0
    9.6876   -1.1535    8.6368 H   0  0  0  0  0  0  0  0  0  0  0  0
    9.0279   -2.3389    7.4806 H   0  0  0  0  0  0  0  0  0  0  0  0
    8.5992   -2.4365    9.2063 H   0  0  0  0  0  0  0  0  0  0  0  0
    6.1560   -1.8619    7.4577 C   0  0  0  0  0  0  0  0  0  0  0  0
    5.2731   -1.3215    7.1123 H   0  0  0  0  0  0  0  0  0  0  0  0
    5.8645   -2.5334    8.2669 H   0  0  0  0  0  0  0  0  0  0  0  0
    6.5735   -2.4412    6.6331 H   0  0  0  0  0  0  0  0  0  0  0  0
    7.6446    1.9284   12.7421 C   0  0  0  0  0  0  0  0  0  0  0  0
    7.4612    0.9731   13.2343 H   0  0  0  0  0  0  0  0  0  0  0  0
    7.4482    2.7420   13.4417 H   0  0  0  0  0  0  0  0  0  0  0  0
    8.6837    1.9689   12.4161 H   0  0  0  0  0  0  0  0  0  0  0  0
    4.9153    2.2113   12.0986 C   0  0  0  0  0  0  0  0  0  0  0  0
    4.6663    1.2498   12.5505 H   0  0  0  0  0  0  0  0  0  0  0  0
    4.1596    2.4559   11.3505 H   0  0  0  0  0  0  0  0  0  0  0  0
    4.9293    2.9848   12.8676 H   0  0  0  0  0  0  0  0  0  0  0  0
    6.8364    3.8406   10.8567 C   0  0  0  0  0  0  0  0  0  0  0  0
    6.1633    4.1461   10.0561 H   0  0  0  0  0  0  0  0  0  0  0  0
    7.8679    3.9777   10.5339 H   0  0  0  0  0  0  0  0  0  0  0  0
    6.6431    4.4436   11.7458 H   0  0  0  0  0  0  0  0  0  0  0  0
  1  8  1  0  0  0  0
  1  7  1  0  0  0  0
  1  3  1  0  0  0  0
  2 24  1  0  0  0  0
  2  1  1  0  0  0  0
  3 36  1  0  0  0  0
  3 32  1  0  0  0  0
  6  1  1  0  0  0  0
  7  4  1  0  0  0  0
  8  5  1  0  0  0  0
  9  1  1  0  0  0  0
  9 10  1  0  0  0  0
 10 11  1  0  0  0  0
 12 10  2  0  0  0  0
 12 13  1  0  0  0  0
 14 12  1  0  0  0  0
 15 14  1  0  0  0  0
 16 18  1  0  0  0  0
 16 14  2  0  0  0  0
 17 16  1  0  0  0  0
 18  9  2  0  0  0  0
 19 18  1  0  0  0  0
 20 21  1  0  0  0  0
 20  2  1  0  0  0  0
 22 20  1  0  0  0  0
 23 20  1  0  0  0  0
 24 25  1  0  0  0  0
 24 27  1  0  0  0  0
 26 24  1  0  0  0  0
 28  2  1  0  0  0  0
 28 30  1  0  0  0  0
 29 28  1  0  0  0  0
 31 28  1  0  0  0  0
 32 33  1  0  0  0  0
 32 34  1  0  0  0  0
 35 32  1  0  0  0  0
 36 37  1  0  0  0  0
 36 39  1  0  0  0  0
 38 36  1  0  0  0  0
 40  3  1  0  0  0  0
 40 43  1  0  0  0  0
 41 40  1  0  0  0  0
 42 40  1  0  0  0  0
M  END
$$$$
