CSD_code = BICVUG | q = 0 | S = 0 | Stoichiometry = C32H23BrO2P2Pd | MND = 4
 OpenBabel04212202013D

 61 67  0  0  0  0  0  0  0  0999 V2000
    5.3673    2.6758    2.0858 Pd  0  0  0  0  0  0  0  0  0  0  0  0
    4.6167    4.9238    2.4552 Br  0  0  0  0  0  0  0  0  0  0  0  0
    6.0999    3.0605    0.0074 P   0  0  0  0  0  4  0  0  0  0  0  0
    4.7866    1.9594    4.1175 P   0  0  0  0  0  4  0  0  0  0  0  0
    7.4946    1.2489   -1.4807 O   0  0  0  0  0  0  0  0  0  0  0  0
    4.8204   -0.6548    4.8877 O   0  0  0  0  0  0  0  0  0  0  0  0
    7.5820    4.0940    0.1988 C   0  0  0  0  0  0  0  0  0  0  0  0
    8.1714    4.0772    1.4651 C   0  0  0  0  0  0  0  0  0  0  0  0
    7.7360    3.4625    2.2698 H   0  0  0  0  0  0  0  0  0  0  0  0
    9.2944    4.8420    1.7130 C   0  0  0  0  0  0  0  0  0  0  0  0
    9.7482    4.8336    2.6930 H   0  0  0  0  0  0  0  0  0  0  0  0
    9.8306    5.6277    0.7042 C   0  0  0  0  0  0  0  0  0  0  0  0
   10.7053    6.2298    0.8998 H   0  0  0  0  0  0  0  0  0  0  0  0
    9.2414    5.6512   -0.5488 C   0  0  0  0  0  0  0  0  0  0  0  0
    9.6557    6.2728   -1.3288 H   0  0  0  0  0  0  0  0  0  0  0  0
    8.1165    4.8879   -0.8080 C   0  0  0  0  0  0  0  0  0  0  0  0
    7.6483    4.9189   -1.7810 H   0  0  0  0  0  0  0  0  0  0  0  0
    5.2403    3.6361   -1.4760 C   0  0  0  0  0  0  0  0  0  0  0  0
    4.0251    4.2924   -1.2964 C   0  0  0  0  0  0  0  0  0  0  0  0
    3.6347    4.4408   -0.2965 H   0  0  0  0  0  0  0  0  0  0  0  0
    3.3302    4.7609   -2.3964 C   0  0  0  0  0  0  0  0  0  0  0  0
    2.3920    5.2770   -2.2585 H   0  0  0  0  0  0  0  0  0  0  0  0
    3.8395    4.5673   -3.6701 C   0  0  0  0  0  0  0  0  0  0  0  0
    3.2968    4.9339   -4.5290 H   0  0  0  0  0  0  0  0  0  0  0  0
    5.0408    3.8986   -3.8483 C   0  0  0  0  0  0  0  0  0  0  0  0
    5.4297    3.7415   -4.8439 H   0  0  0  0  0  0  0  0  0  0  0  0
    5.7478    3.4291   -2.7565 C   0  0  0  0  0  0  0  0  0  0  0  0
    6.6738    2.8899   -2.8938 H   0  0  0  0  0  0  0  0  0  0  0  0
    6.8834    1.4182   -0.4512 C   0  0  0  0  0  0  0  0  0  0  0  0
    6.6569    0.4246    0.6021 C   0  0  0  0  0  0  0  0  0  0  0  0
    7.0968   -0.8869    0.3988 C   0  0  0  0  0  0  0  0  0  0  0  0
    7.6128   -1.1155   -0.5231 H   0  0  0  0  0  0  0  0  0  0  0  0
    6.8663   -1.8614    1.3518 C   0  0  0  0  0  0  0  0  0  0  0  0
    7.1995   -2.8747    1.1869 H   0  0  0  0  0  0  0  0  0  0  0  0
    6.2053   -1.5250    2.5183 C   0  0  0  0  0  0  0  0  0  0  0  0
    6.0081   -2.2624    3.2837 H   0  0  0  0  0  0  0  0  0  0  0  0
    5.7811   -0.2115    2.7407 C   0  0  0  0  0  0  0  0  0  0  0  0
    5.9900    0.7976    1.7829 C   0  0  0  0  0  0  0  0  0  0  0  0
    5.1258    0.1175    4.0089 C   0  0  0  0  0  0  0  0  0  0  0  0
    5.4277    2.4690    5.7288 C   0  0  0  0  0  0  0  0  0  0  0  0
    6.0946    3.6900    5.7937 C   0  0  0  0  0  0  0  0  0  0  0  0
    6.1979    4.2962    4.9005 H   0  0  0  0  0  0  0  0  0  0  0  0
    6.6103    4.1254    7.0005 C   0  0  0  0  0  0  0  0  0  0  0  0
    7.1211    5.0750    7.0551 H   0  0  0  0  0  0  0  0  0  0  0  0
    6.4706    3.3421    8.1347 C   0  0  0  0  0  0  0  0  0  0  0  0
    6.8740    3.6822    9.0771 H   0  0  0  0  0  0  0  0  0  0  0  0
    5.8216    2.1189    8.0647 C   0  0  0  0  0  0  0  0  0  0  0  0
    5.7245    1.5072    8.9497 H   0  0  0  0  0  0  0  0  0  0  0  0
    5.2980    1.6737    6.8646 C   0  0  0  0  0  0  0  0  0  0  0  0
    4.8127    0.7105    6.8007 H   0  0  0  0  0  0  0  0  0  0  0  0
    2.9750    1.9766    4.2031 C   0  0  0  0  0  0  0  0  0  0  0  0
    2.3235    1.9876    2.9678 C   0  0  0  0  0  0  0  0  0  0  0  0
    2.9111    1.9948    2.0356 H   0  0  0  0  0  0  0  0  0  0  0  0
    0.9437    2.0061    2.9174 C   0  0  0  0  0  0  0  0  0  0  0  0
    0.4370    2.0190    1.9638 H   0  0  0  0  0  0  0  0  0  0  0  0
    0.2115    2.0188    4.0951 C   0  0  0  0  0  0  0  0  0  0  0  0
   -0.8674    2.0387    4.0561 H   0  0  0  0  0  0  0  0  0  0  0  0
    0.8582    2.0186    5.3198 C   0  0  0  0  0  0  0  0  0  0  0  0
    0.2834    2.0402    6.2339 H   0  0  0  0  0  0  0  0  0  0  0  0
    2.2406    1.9985    5.3816 C   0  0  0  0  0  0  0  0  0  0  0  0
    2.7457    2.0141    6.3363 H   0  0  0  0  0  0  0  0  0  0  0  0
  1  2  1  0  0  0  0
  1  4  1  0  0  0  0
  3  7  1  0  0  0  0
  3  1  1  0  0  0  0
  4 51  1  0  0  0  0
  4 40  1  0  0  0  0
  5 29  2  0  0  0  0
  7  8  1  0  0  0  0
  8 10  2  0  0  0  0
  8  9  1  0  0  0  0
 10 11  1  0  0  0  0
 12 13  1  0  0  0  0
 12 10  1  0  0  0  0
 14 12  2  0  0  0  0
 15 14  1  0  0  0  0
 16 14  1  0  0  0  0
 16  7  2  0  0  0  0
 17 16  1  0  0  0  0
 18 19  1  0  0  0  0
 18  3  1  0  0  0  0
 19 20  1  0  0  0  0
 21 22  1  0  0  0  0
 21 19  2  0  0  0  0
 23 21  1  0  0  0  0
 24 23  1  0  0  0  0
 25 23  2  0  0  0  0
 25 27  1  0  0  0  0
 26 25  1  0  0  0  0
 27 18  2  0  0  0  0
 28 27  1  0  0  0  0
 29  3  1  0  0  0  0
 29 30  1  0  0  0  0
 30 38  1  0  0  0  0
 31 30  2  0  0  0  0
 31 33  1  0  0  0  0
 32 31  1  0  0  0  0
 33 35  2  0  0  0  0
 34 33  1  0  0  0  0
 35 37  1  0  0  0  0
 35 36  1  0  0  0  0
 37 39  1  0  0  0  0
 38  1  1  0  0  0  0
 38 37  2  0  0  0  0
 39  4  1  0  0  0  0
 39  6  2  0  0  0  0
 40 41  2  0  0  0  0
 40 49  1  0  0  0  0
 41 43  1  0  0  0  0
 42 41  1  0  0  0  0
 43 44  1  0  0  0  0
 43 45  2  0  0  0  0
 45 46  1  0  0  0  0
 47 45  1  0  0  0  0
 47 48  1  0  0  0  0
 49 47  2  0  0  0  0
 50 49  1  0  0  0  0
 51 60  1  0  0  0  0
 52 51  2  0  0  0  0
 53 52  1  0  0  0  0
 54 52  1  0  0  0  0
 54 56  2  0  0  0  0
 55 54  1  0  0  0  0
 56 58  1  0  0  0  0
 57 56  1  0  0  0  0
 58 60  2  0  0  0  0
 58 59  1  0  0  0  0
 60 61  1  0  0  0  0
M  END
$$$$
