CSD_code = BICWER | q = 0 | S = 0 | Stoichiometry = C32H23ClO2P2Pd | MND = 4
 OpenBabel04212202013D

 61 67  0  0  0  0  0  0  0  0999 V2000
   11.0732    2.2917    3.6171 Pd  0  0  0  0  0  0  0  0  0  0  0  0
    8.7920    2.4067    3.5895 Cl  0  0  0  0  0  0  0  0  0  0  0  0
   11.3059    4.4279    2.9796 P   0  0  0  0  0  4  0  0  0  0  0  0
   11.2849    0.1725    4.3180 P   0  0  0  0  0  4  0  0  0  0  0  0
   13.6072    5.4863    1.9860 O   0  0  0  0  0  0  0  0  0  0  0  0
   13.6483   -0.9959    5.0322 O   0  0  0  0  0  0  0  0  0  0  0  0
   11.3536    5.3222    4.5629 C   0  0  0  0  0  0  0  0  0  0  0  0
   11.1018    4.6160    5.7388 C   0  0  0  0  0  0  0  0  0  0  0  0
   10.8396    3.5467    5.6979 H   0  0  0  0  0  0  0  0  0  0  0  0
   11.1537    5.2729    6.9557 C   0  0  0  0  0  0  0  0  0  0  0  0
   10.9518    4.7316    7.8681 H   0  0  0  0  0  0  0  0  0  0  0  0
   11.4589    6.6238    7.0024 C   0  0  0  0  0  0  0  0  0  0  0  0
   11.4963    7.1340    7.9535 H   0  0  0  0  0  0  0  0  0  0  0  0
   11.7142    7.3243    5.8331 C   0  0  0  0  0  0  0  0  0  0  0  0
   11.9532    8.3766    5.8754 H   0  0  0  0  0  0  0  0  0  0  0  0
   11.6645    6.6787    4.6117 C   0  0  0  0  0  0  0  0  0  0  0  0
   11.8669    7.2146    3.6945 H   0  0  0  0  0  0  0  0  0  0  0  0
   10.4194    5.5332    1.8612 C   0  0  0  0  0  0  0  0  0  0  0  0
   10.8332    5.6889    0.5415 C   0  0  0  0  0  0  0  0  0  0  0  0
   11.7257    5.1891    0.1919 H   0  0  0  0  0  0  0  0  0  0  0  0
   10.1049    6.4989   -0.3109 C   0  0  0  0  0  0  0  0  0  0  0  0
   10.4301    6.6328   -1.3321 H   0  0  0  0  0  0  0  0  0  0  0  0
    8.9583    7.1319    0.1410 C   0  0  0  0  0  0  0  0  0  0  0  0
    8.3910    7.7605   -0.5295 H   0  0  0  0  0  0  0  0  0  0  0  0
    8.5309    6.9537    1.4479 C   0  0  0  0  0  0  0  0  0  0  0  0
    7.6287    7.4372    1.7925 H   0  0  0  0  0  0  0  0  0  0  0  0
    9.2550    6.1532    2.3101 C   0  0  0  0  0  0  0  0  0  0  0  0
    8.9245    5.9948    3.3280 H   0  0  0  0  0  0  0  0  0  0  0  0
   13.1196    4.5438    2.5652 C   0  0  0  0  0  0  0  0  0  0  0  0
   13.8245    3.3627    3.0775 C   0  0  0  0  0  0  0  0  0  0  0  0
   15.2212    3.3446    3.0397 C   0  0  0  0  0  0  0  0  0  0  0  0
   15.7332    4.2066    2.6355 H   0  0  0  0  0  0  0  0  0  0  0  0
   15.9227    2.2487    3.5066 C   0  0  0  0  0  0  0  0  0  0  0  0
   17.0016    2.2399    3.4800 H   0  0  0  0  0  0  0  0  0  0  0  0
   15.2264    1.1636    4.0038 C   0  0  0  0  0  0  0  0  0  0  0  0
   15.7424    0.2899    4.3761 H   0  0  0  0  0  0  0  0  0  0  0  0
   13.8285    1.1693    4.0358 C   0  0  0  0  0  0  0  0  0  0  0  0
   13.0857    2.2739    3.5796 C   0  0  0  0  0  0  0  0  0  0  0  0
   13.1318   -0.0102    4.5589 C   0  0  0  0  0  0  0  0  0  0  0  0
   11.1305   -0.8388    2.8123 C   0  0  0  0  0  0  0  0  0  0  0  0
   10.9618   -0.1694    1.6002 C   0  0  0  0  0  0  0  0  0  0  0  0
   10.8896    0.9301    1.5814 H   0  0  0  0  0  0  0  0  0  0  0  0
   10.8606   -0.8932    0.4262 C   0  0  0  0  0  0  0  0  0  0  0  0
   10.7235   -0.3795   -0.5138 H   0  0  0  0  0  0  0  0  0  0  0  0
   10.9289   -2.2773    0.4573 C   0  0  0  0  0  0  0  0  0  0  0  0
   10.8481   -2.8405   -0.4605 H   0  0  0  0  0  0  0  0  0  0  0  0
   11.0946   -2.9415    1.6624 C   0  0  0  0  0  0  0  0  0  0  0  0
   11.1436   -4.0202    1.6826 H   0  0  0  0  0  0  0  0  0  0  0  0
   11.1962   -2.2277    2.8425 C   0  0  0  0  0  0  0  0  0  0  0  0
   11.3224   -2.7409    3.7848 H   0  0  0  0  0  0  0  0  0  0  0  0
   10.4195   -0.7587    5.6094 C   0  0  0  0  0  0  0  0  0  0  0  0
   10.9901   -1.8083    6.3238 C   0  0  0  0  0  0  0  0  0  0  0  0
   12.0141   -2.0990    6.1440 H   0  0  0  0  0  0  0  0  0  0  0  0
   10.2371   -2.4620    7.2835 C   0  0  0  0  0  0  0  0  0  0  0  0
   10.6749   -3.2775    7.8407 H   0  0  0  0  0  0  0  0  0  0  0  0
    8.9300   -2.0759    7.5333 C   0  0  0  0  0  0  0  0  0  0  0  0
    8.3511   -2.5924    8.2851 H   0  0  0  0  0  0  0  0  0  0  0  0
    8.3669   -1.0243    6.8277 C   0  0  0  0  0  0  0  0  0  0  0  0
    7.3507   -0.7188    7.0277 H   0  0  0  0  0  0  0  0  0  0  0  0
    9.1083   -0.3608    5.8678 C   0  0  0  0  0  0  0  0  0  0  0  0
    8.6844    0.4685    5.3140 H   0  0  0  0  0  0  0  0  0  0  0  0
  1  4  1  0  0  0  0
  2  1  1  0  0  0  0
  3  1  1  0  0  0  0
  3  7  1  0  0  0  0
  4 39  1  0  0  0  0
  4 51  1  0  0  0  0
  5 29  2  0  0  0  0
  7 16  2  0  0  0  0
  7  8  1  0  0  0  0
  8 10  2  0  0  0  0
  9  8  1  0  0  0  0
 10 12  1  0  0  0  0
 10 11  1  0  0  0  0
 12 13  1  0  0  0  0
 14 15  1  0  0  0  0
 14 12  2  0  0  0  0
 16 14  1  0  0  0  0
 17 16  1  0  0  0  0
 18 27  1  0  0  0  0
 18  3  1  0  0  0  0
 19 18  2  0  0  0  0
 20 19  1  0  0  0  0
 21 23  2  0  0  0  0
 21 19  1  0  0  0  0
 22 21  1  0  0  0  0
 23 25  1  0  0  0  0
 24 23  1  0  0  0  0
 25 26  1  0  0  0  0
 25 27  2  0  0  0  0
 27 28  1  0  0  0  0
 29  3  1  0  0  0  0
 29 30  1  0  0  0  0
 30 38  1  0  0  0  0
 31 30  2  0  0  0  0
 31 33  1  0  0  0  0
 32 31  1  0  0  0  0
 33 35  2  0  0  0  0
 34 33  1  0  0  0  0
 35 37  1  0  0  0  0
 35 36  1  0  0  0  0
 37 39  1  0  0  0  0
 38  1  1  0  0  0  0
 38 37  2  0  0  0  0
 39  6  2  0  0  0  0
 40 49  1  0  0  0  0
 40  4  1  0  0  0  0
 41 40  2  0  0  0  0
 42 41  1  0  0  0  0
 43 45  2  0  0  0  0
 43 41  1  0  0  0  0
 44 43  1  0  0  0  0
 45 47  1  0  0  0  0
 46 45  1  0  0  0  0
 47 48  1  0  0  0  0
 47 49  2  0  0  0  0
 49 50  1  0  0  0  0
 51 60  2  0  0  0  0
 51 52  1  0  0  0  0
 52 54  2  0  0  0  0
 53 52  1  0  0  0  0
 54 56  1  0  0  0  0
 54 55  1  0  0  0  0
 56 57  1  0  0  0  0
 58 59  1  0  0  0  0
 58 56  2  0  0  0  0
 60 58  1  0  0  0  0
 61 60  1  0  0  0  0
M  END
$$$$
