CSD_code = BICXUI | q = 0 | S = 0 | Stoichiometry = C32H40Cl2NO3Y | MND = 7
 OpenBabel04212202013D

 79 82  0  0  0  0  0  0  0  0999 V2000
   -0.1140   -0.6278    8.6047 C   0  0  0  0  0  0  0  0  0  0  0  0
   -1.4034   -0.3057    8.1194 C   0  0  0  0  0  0  0  0  0  0  0  0
   -2.3798   -1.2802    7.8936 C   0  0  0  0  0  0  0  0  0  0  0  0
   -3.3535   -0.9915    7.5211 H   0  0  0  0  0  0  0  0  0  0  0  0
   -2.0965   -2.6067    8.1478 C   0  0  0  0  0  0  0  0  0  0  0  0
   -2.8427   -3.3681    7.9746 H   0  0  0  0  0  0  0  0  0  0  0  0
   -0.8466   -2.9560    8.6305 C   0  0  0  0  0  0  0  0  0  0  0  0
   -0.6197   -3.9936    8.8370 H   0  0  0  0  0  0  0  0  0  0  0  0
    0.1232   -1.9816    8.8544 C   0  0  0  0  0  0  0  0  0  0  0  0
    1.4608   -2.4285    9.4023 C   0  0  0  0  0  0  0  0  0  0  0  0
    1.3254   -2.8031   10.4297 H   0  0  0  0  0  0  0  0  0  0  0  0
    1.8535   -3.2548    8.7912 H   0  0  0  0  0  0  0  0  0  0  0  0
   -1.7209    1.0866    7.8768 C   0  0  0  0  0  3  0  0  0  0  0  0
   -2.7363    1.3165    7.5323 H   0  0  0  0  0  0  0  0  0  0  0  0
    3.6777   -1.7923    9.7561 C   0  0  0  0  0  0  0  0  0  0  0  0
    4.5437   -2.2193    8.7466 C   0  0  0  0  0  0  0  0  0  0  0  0
    5.8168   -2.6447    9.1051 C   0  0  0  0  0  0  0  0  0  0  0  0
    6.4980   -2.9748    8.3343 H   0  0  0  0  0  0  0  0  0  0  0  0
    6.2155   -2.6495   10.4295 C   0  0  0  0  0  0  0  0  0  0  0  0
    7.2075   -2.9854   10.6936 H   0  0  0  0  0  0  0  0  0  0  0  0
    5.3471   -2.2176   11.4152 C   0  0  0  0  0  0  0  0  0  0  0  0
    5.6618   -2.2183   12.4491 H   0  0  0  0  0  0  0  0  0  0  0  0
    4.0660   -1.7832   11.0971 C   0  0  0  0  0  0  0  0  0  0  0  0
    4.1125   -2.2226    7.3110 C   0  0  0  0  0  0  0  0  0  0  0  0
    3.6458   -3.1753    7.0558 H   0  0  0  0  0  0  0  0  0  0  0  0
    4.9700   -2.0872    6.6555 H   0  0  0  0  0  0  0  0  0  0  0  0
    3.3893   -1.4319    7.1137 H   0  0  0  0  0  0  0  0  0  0  0  0
    3.1269   -1.3201   12.1683 C   0  0  0  0  0  0  0  0  0  0  0  0
    2.5166   -2.1518   12.5234 H   0  0  0  0  0  0  0  0  0  0  0  0
    2.4556   -0.5463   11.7971 H   0  0  0  0  0  0  0  0  0  0  0  0
    3.6794   -0.9293   13.0200 H   0  0  0  0  0  0  0  0  0  0  0  0
   -1.2444    3.3620    7.8683 C   0  0  0  0  0  0  0  0  0  0  0  0
   -1.8377    4.0662    8.9222 C   0  0  0  0  0  0  0  0  0  0  0  0
   -2.1481    5.4050    8.7325 C   0  0  0  0  0  0  0  0  0  0  0  0
   -2.6012    5.9602    9.5412 H   0  0  0  0  0  0  0  0  0  0  0  0
   -1.8896    6.0304    7.5251 C   0  0  0  0  0  0  0  0  0  0  0  0
   -2.1399    7.0725    7.3915 H   0  0  0  0  0  0  0  0  0  0  0  0
   -1.3146    5.3175    6.4880 C   0  0  0  0  0  0  0  0  0  0  0  0
   -1.1231    5.8034    5.5417 H   0  0  0  0  0  0  0  0  0  0  0  0
   -0.9839    3.9783    6.6408 C   0  0  0  0  0  0  0  0  0  0  0  0
   -2.1352    3.3758   10.2194 C   0  0  0  0  0  0  0  0  0  0  0  0
   -2.4101    4.0987   10.9837 H   0  0  0  0  0  0  0  0  0  0  0  0
   -1.2745    2.8029   10.5686 H   0  0  0  0  0  0  0  0  0  0  0  0
   -2.9621    2.6747   10.0985 H   0  0  0  0  0  0  0  0  0  0  0  0
   -0.3779    3.1918    5.5199 C   0  0  0  0  0  0  0  0  0  0  0  0
   -1.0943    2.4662    5.1325 H   0  0  0  0  0  0  0  0  0  0  0  0
    0.4940    2.6319    5.8617 H   0  0  0  0  0  0  0  0  0  0  0  0
   -0.0807    3.8469    4.7044 H   0  0  0  0  0  0  0  0  0  0  0  0
    4.3279    2.0367   10.6930 C   0  0  0  0  0  0  0  0  0  0  0  0
    4.4355    3.1126   10.4869 H   0  0  0  0  0  0  0  0  0  0  0  0
    3.5972    1.8912   11.4892 H   0  0  0  0  0  0  0  0  0  0  0  0
    5.6981    1.4180   10.9754 C   0  0  0  0  0  0  0  0  0  0  0  0
    5.5904    0.5314   11.5971 H   0  0  0  0  0  0  0  0  0  0  0  0
    6.3575    2.1209   11.4799 H   0  0  0  0  0  0  0  0  0  0  0  0
    6.2009    1.0317    9.5757 C   0  0  0  0  0  0  0  0  0  0  0  0
    6.4984   -0.0145    9.5459 H   0  0  0  0  0  0  0  0  0  0  0  0
    7.0479    1.6401    9.2635 H   0  0  0  0  0  0  0  0  0  0  0  0
    4.9871    1.2831    8.6672 C   0  0  0  0  0  0  0  0  0  0  0  0
    5.1037    2.2267    8.1163 H   0  0  0  0  0  0  0  0  0  0  0  0
    4.8060    0.4831    7.9509 H   0  0  0  0  0  0  0  0  0  0  0  0
    1.5917    4.5540    9.7252 C   0  0  0  0  0  0  0  0  0  0  0  0
    2.3973    4.5698   10.4724 H   0  0  0  0  0  0  0  0  0  0  0  0
    0.6646    4.2677   10.2206 H   0  0  0  0  0  0  0  0  0  0  0  0
    1.5012    5.9023    8.9916 C   0  0  0  0  0  0  0  0  0  0  0  0
    0.4668    6.2266    8.8982 H   0  0  0  0  0  0  0  0  0  0  0  0
    2.0566    6.6697    9.5283 H   0  0  0  0  0  0  0  0  0  0  0  0
    2.1118    5.6130    7.6118 C   0  0  0  0  0  0  0  0  0  0  0  0
    1.3317    5.5747    6.8535 H   0  0  0  0  0  0  0  0  0  0  0  0
    2.8543    6.3508    7.3162 H   0  0  0  0  0  0  0  0  0  0  0  0
    2.7312    4.2284    7.7967 C   0  0  0  0  0  0  0  0  0  0  0  0
    3.7453    4.3205    8.2155 H   0  0  0  0  0  0  0  0  0  0  0  0
    2.7664    3.6267    6.8877 H   0  0  0  0  0  0  0  0  0  0  0  0
    1.0357    1.6261   11.2933 Cl  0  0  0  0  0  0  0  0  0  0  0  0
    2.4612    1.0544    6.5694 Cl  0  0  0  0  0  0  0  0  0  0  0  0
   -0.8704    2.0197    8.0661 N   0  0  0  0  0  0  0  0  0  0  0  0
    2.3967   -1.3517    9.4091 O   0  0  0  0  0  0  0  0  0  0  0  0
    3.8519    1.3754    9.5254 O   0  0  0  0  0  0  0  0  0  0  0  0
    1.8868    3.5698    8.7351 O   0  0  0  0  0  0  0  0  0  0  0  0
    1.3833    1.0594    8.8545 Y   0  0  0  0  0  0  0  0  0  0  0  0
  1  9  1  0  0  0  0
  1 79  1  0  0  0  0
  2  1  2  0  0  0  0
  3  2  1  0  0  0  0
  3  5  2  0  0  0  0
  4  3  1  0  0  0  0
  5  7  1  0  0  0  0
  6  5  1  0  0  0  0
  7  8  1  0  0  0  0
  7  9  2  0  0  0  0
  9 10  1  0  0  0  0
 10 76  1  0  0  0  0
 10 11  1  0  0  0  0
 12 10  1  0  0  0  0
 13 75  1  0  0  0  0
 13  2  1  0  0  0  0
 14 13  1  0  0  0  0
 15 23  1  0  0  0  0
 16 17  1  0  0  0  0
 16 15  2  0  0  0  0
 17 19  2  0  0  0  0
 18 17  1  0  0  0  0
 19 20  1  0  0  0  0
 19 21  1  0  0  0  0
 21 22  1  0  0  0  0
 23 21  2  0  0  0  0
 23 28  1  0  0  0  0
 24 16  1  0  0  0  0
 25 24  1  0  0  0  0
 26 24  1  0  0  0  0
 27 24  1  0  0  0  0
 28 29  1  0  0  0  0
 28 31  1  0  0  0  0
 30 28  1  0  0  0  0
 32 75  1  0  0  0  0
 32 33  1  0  0  0  0
 33 41  1  0  0  0  0
 34 33  2  0  0  0  0
 34 35  1  0  0  0  0
 36 34  1  0  0  0  0
 37 36  1  0  0  0  0
 38 40  1  0  0  0  0
 38 36  2  0  0  0  0
 39 38  1  0  0  0  0
 40 32  2  0  0  0  0
 41 43  1  0  0  0  0
 41 42  1  0  0  0  0
 44 41  1  0  0  0  0
 45 47  1  0  0  0  0
 45 40  1  0  0  0  0
 46 45  1  0  0  0  0
 48 45  1  0  0  0  0
 49 52  1  0  0  0  0
 49 51  1  0  0  0  0
 50 49  1  0  0  0  0
 52 54  1  0  0  0  0
 52 53  1  0  0  0  0
 55 52  1  0  0  0  0
 56 55  1  0  0  0  0
 57 55  1  0  0  0  0
 58 77  1  0  0  0  0
 58 55  1  0  0  0  0
 59 58  1  0  0  0  0
 60 58  1  0  0  0  0
 61 63  1  0  0  0  0
 61 62  1  0  0  0  0
 64 66  1  0  0  0  0
 64 61  1  0  0  0  0
 65 64  1  0  0  0  0
 67 70  1  0  0  0  0
 67 64  1  0  0  0  0
 68 67  1  0  0  0  0
 69 67  1  0  0  0  0
 70 71  1  0  0  0  0
 70 78  1  0  0  0  0
 72 70  1  0  0  0  0
 74 79  1  0  0  0  0
 75 79  1  0  0  0  0
 76 15  1  0  0  0  0
 77 49  1  0  0  0  0
 78 61  1  0  0  0  0
 79 73  1  0  0  0  0
M  END
$$$$
