CSD_code = BIDHEB | q = 0 | S = 0 | Stoichiometry = C15H26ClN3OPd | MND = 4
 OpenBabel04212202013D

 47 48  0  0  1  0  0  0  0  0999 V2000
    3.3461    2.9934    0.0282 Pd  0  0  1  0  0  0  0  0  0  0  0  0
    1.1267    3.4336   -0.5659 Cl  0  0  0  0  0  0  0  0  0  0  0  0
    5.3330    2.6567    0.5186 C   0  0  1  0  0  0  0  0  0  0  0  0
    5.8794    4.0457    0.8377 C   0  0  0  0  0  0  0  0  0  0  0  0
    4.8654    4.7823    1.7323 C   0  0  0  0  0  0  0  0  0  0  0  0
    7.2162    3.9414    1.5821 C   0  0  0  0  0  0  0  0  0  0  0  0
    4.8144    1.7912    1.5334 C   0  0  0  0  0  0  0  0  0  0  0  0
    6.0863    4.7806   -0.4960 C   0  0  0  0  0  0  0  0  0  0  0  0
    3.0658    5.8843    0.5225 C   0  0  0  0  0  0  0  0  0  0  0  0
    2.5450    4.4165    2.3228 C   0  0  0  0  0  0  0  0  0  0  0  0
    3.4979    1.3115   -2.3836 C   0  0  0  0  0  3  0  0  0  0  0  0
    3.0780    0.3028   -3.2190 C   0  0  0  0  0  0  0  0  0  0  0  0
    2.2310   -0.7116   -2.7307 C   0  0  0  0  0  0  0  0  0  0  0  0
    1.8803   -0.6115   -1.3688 C   0  0  0  0  0  0  0  0  0  0  0  0
    2.3482    0.4350   -0.6122 C   0  0  0  0  0  0  0  0  0  0  0  0
    0.8646   -2.7003   -2.9917 C   0  0  0  0  0  0  0  0  0  0  0  0
    2.1240   -1.7552   -4.9194 C   0  0  0  0  0  0  0  0  0  0  0  0
    3.4810    4.6636    1.2205 N   0  0  0  0  0  4  0  0  0  0  0  0
    3.1504    1.3857   -1.0994 N   0  0  0  0  0  0  0  0  0  0  0  0
    1.7872   -1.7212   -3.5162 N   0  0  0  0  0  0  0  0  0  0  0  0
    4.4600    2.0651    2.6854 O   0  0  0  0  0  0  0  0  0  0  0  0
    5.9168    2.1377   -0.2466 H   0  0  0  0  0  0  0  0  0  0  0  0
    4.9059    4.3099    2.7157 H   0  0  0  0  0  0  0  0  0  0  0  0
    5.1402    5.8390    1.8404 H   0  0  0  0  0  0  0  0  0  0  0  0
    7.9457    3.4094    0.9757 H   0  0  0  0  0  0  0  0  0  0  0  0
    7.0812    3.3957    2.5125 H   0  0  0  0  0  0  0  0  0  0  0  0
    7.6100    4.9305    1.8092 H   0  0  0  0  0  0  0  0  0  0  0  0
    4.7608    0.7170    1.2109 H   0  0  0  0  0  0  0  0  0  0  0  0
    6.3045    5.8353   -0.3356 H   0  0  0  0  0  0  0  0  0  0  0  0
    5.1899    4.6793   -1.1256 H   0  0  0  0  0  0  0  0  0  0  0  0
    6.9225    4.3394   -1.0354 H   0  0  0  0  0  0  0  0  0  0  0  0
    3.7485    6.1168   -0.2941 H   0  0  0  0  0  0  0  0  0  0  0  0
    3.0461    6.7333    1.2189 H   0  0  0  0  0  0  0  0  0  0  0  0
    2.0649    5.7407    0.1106 H   0  0  0  0  0  0  0  0  0  0  0  0
    2.8140    3.4811    2.8236 H   0  0  0  0  0  0  0  0  0  0  0  0
    1.5305    4.3342    1.9245 H   0  0  0  0  0  0  0  0  0  0  0  0
    2.5785    5.2346    3.0532 H   0  0  0  0  0  0  0  0  0  0  0  0
    4.1404    2.1045   -2.7569 H   0  0  0  0  0  0  0  0  0  0  0  0
    3.3982    0.3182   -4.2463 H   0  0  0  0  0  0  0  0  0  0  0  0
    1.2328   -1.3341   -0.9038 H   0  0  0  0  0  0  0  0  0  0  0  0
    2.0651    0.5333    0.4357 H   0  0  0  0  0  0  0  0  0  0  0  0
    0.6138   -3.4163   -3.7697 H   0  0  0  0  0  0  0  0  0  0  0  0
   -0.0607   -2.2290   -2.6478 H   0  0  0  0  0  0  0  0  0  0  0  0
    1.3115   -3.2475   -2.1576 H   0  0  0  0  0  0  0  0  0  0  0  0
    1.6831   -2.6365   -5.3775 H   0  0  0  0  0  0  0  0  0  0  0  0
    3.2072   -1.8073   -5.0573 H   0  0  0  0  0  0  0  0  0  0  0  0
    1.7449   -0.8713   -5.4412 H   0  0  0  0  0  0  0  0  0  0  0  0
  1  2  1  6  0  0  0
  1  3  1  0  0  0  0
  1 18  1  0  0  0  0
  3 22  1  6  0  0  0
  3  4  1  0  0  0  0
  3  7  1  0  0  0  0
  4  6  1  0  0  0  0
  4  5  1  0  0  0  0
  5 24  1  0  0  0  0
  5 23  1  0  0  0  0
  6 27  1  0  0  0  0
  6 26  1  0  0  0  0
  7 21  2  0  0  0  0
  8 29  1  0  0  0  0
  8  4  1  0  0  0  0
  9 33  1  0  0  0  0
  9 18  1  0  0  0  0
 10 35  1  0  0  0  0
 10 37  1  0  0  0  0
 11 19  1  0  0  0  0
 12 13  2  0  0  0  0
 12 11  1  0  0  0  0
 13 14  1  0  0  0  0
 14 40  1  0  0  0  0
 14 15  2  0  0  0  0
 15 41  1  0  0  0  0
 16 43  1  0  0  0  0
 16 44  1  0  0  0  0
 17 20  1  0  0  0  0
 18  5  1  0  0  0  0
 18 10  1  0  0  0  0
 19 15  1  0  0  0  0
 19  1  1  0  0  0  0
 20 16  1  0  0  0  0
 20 13  1  0  0  0  0
 25  6  1  0  0  0  0
 28  7  1  0  0  0  0
 30  8  1  0  0  0  0
 31  8  1  0  0  0  0
 32  9  1  0  0  0  0
 34  9  1  0  0  0  0
 36 10  1  0  0  0  0
 38 11  1  0  0  0  0
 39 12  1  0  0  0  0
 42 16  1  0  0  0  0
 45 17  1  0  0  0  0
 46 17  1  0  0  0  0
 47 17  1  0  0  0  0
M  END
$$$$
