CSD_code = BIFKOR | q = 0 | S = 0 | Stoichiometry = C22H17Cl2IrN6 | MND = 6
 OpenBabel04212202013D

 48 53  0  0  0  0  0  0  0  0999 V2000
    3.1219    1.8843    1.8632 Ir  0  0  0  0  0  0  0  0  0  0  0  0
    2.3513    0.5227    0.1059 Cl  0  0  0  0  0  0  0  0  0  0  0  0
    4.1172    3.2416    3.5283 Cl  0  0  0  0  0  0  0  0  0  0  0  0
    4.3269    0.3480    2.5727 N   0  0  0  0  0  0  0  0  0  0  0  0
    2.5955    0.2512    4.1297 N   0  0  0  0  0  2  0  0  0  0  0  0
    1.9622    0.9730    3.2817 N   0  0  0  0  0  0  0  0  0  0  0  0
   -0.2886    4.0435    1.1123 N   0  0  0  0  0  0  0  0  0  0  0  0
    1.9427    3.3958    1.2775 N   0  0  0  0  0  0  0  0  0  0  0  0
    2.2575    4.0578    0.2537 N   0  0  0  0  0  2  0  0  0  0  0  0
    5.4844   -0.1312    2.1422 C   0  0  0  0  0  3  0  0  0  0  0  0
    5.7838    0.1623    1.1469 H   0  0  0  0  0  0  0  0  0  0  0  0
    6.2752   -0.9769    2.8998 C   0  0  0  0  0  0  0  0  0  0  0  0
    7.2101   -1.3360    2.5013 H   0  0  0  0  0  0  0  0  0  0  0  0
    5.8479   -1.3443    4.1716 C   0  0  0  0  0  0  0  0  0  0  0  0
    6.4578   -1.9811    4.7938 H   0  0  0  0  0  0  0  0  0  0  0  0
    4.6211   -0.8988    4.6114 C   0  0  0  0  0  0  0  0  0  0  0  0
    4.2134   -1.1702    5.5708 H   0  0  0  0  0  0  0  0  0  0  0  0
    3.8666   -0.0669    3.7774 C   0  0  0  0  0  0  0  0  0  0  0  0
    0.6143    1.1375    3.5642 C   0  0  0  0  0  0  0  0  0  0  0  0
    0.1557    1.2266    4.8813 C   0  0  0  0  0  0  0  0  0  0  0  0
    0.8753    1.1865    5.6844 H   0  0  0  0  0  0  0  0  0  0  0  0
   -1.1907    1.4002    5.1256 C   0  0  0  0  0  0  0  0  0  0  0  0
   -1.5442    1.4888    6.1420 H   0  0  0  0  0  0  0  0  0  0  0  0
   -2.0894    1.4566    4.0704 C   0  0  0  0  0  0  0  0  0  0  0  0
   -3.1427    1.5894    4.2671 H   0  0  0  0  0  0  0  0  0  0  0  0
   -1.6387    1.3377    2.7639 C   0  0  0  0  0  0  0  0  0  0  0  0
   -2.3402    1.3644    1.9441 H   0  0  0  0  0  0  0  0  0  0  0  0
   -0.2921    1.1906    2.5017 C   0  0  0  0  0  0  0  0  0  0  0  0
    0.0686    1.0756    1.4906 H   0  0  0  0  0  0  0  0  0  0  0  0
   -1.4084    4.4685    1.6621 C   0  0  0  0  0  0  0  0  0  0  0  0
   -2.2301    4.6212    0.9755 H   0  0  0  0  0  0  0  0  0  0  0  0
   -1.5458    4.7121    3.0207 C   0  0  0  0  0  0  0  0  0  0  0  0
   -2.4837    5.0566    3.4262 H   0  0  0  0  0  0  0  0  0  0  0  0
   -0.4415    4.5142    3.8365 C   0  0  0  0  0  0  0  0  0  0  0  0
   -0.4953    4.7157    4.8960 H   0  0  0  0  0  0  0  0  0  0  0  0
    0.7366    4.0571    3.2759 C   0  0  0  0  0  0  0  0  0  0  0  0
    1.6305    3.9164    3.8629 H   0  0  0  0  0  0  0  0  0  0  0  0
    0.7547    3.8251    1.8995 C   0  0  0  0  0  0  0  0  0  0  0  0
    3.4814    3.7711   -0.2615 C   0  0  0  0  0  0  0  0  0  0  0  0
    3.9548    4.4829   -1.3697 C   0  0  0  0  0  0  0  0  0  0  0  0
    3.2939    5.1756   -1.8661 H   0  0  0  0  0  0  0  0  0  0  0  0
    5.2507    4.2789   -1.7845 C   0  0  0  0  0  0  0  0  0  0  0  0
    5.6430    4.8114   -2.6378 H   0  0  0  0  0  0  0  0  0  0  0  0
    6.0638    3.3956   -1.0835 C   0  0  0  0  0  0  0  0  0  0  0  0
    7.0919    3.2614   -1.3890 H   0  0  0  0  0  0  0  0  0  0  0  0
    5.5813    2.6792    0.0041 C   0  0  0  0  0  0  0  0  0  0  0  0
    6.2643    2.0222    0.5227 H   0  0  0  0  0  0  0  0  0  0  0  0
    4.2724    2.8199    0.4351 C   0  0  0  0  0  0  0  0  0  0  0  0
  1  4  1  0  0  0  0
  1  6  1  0  0  0  0
  1  3  1  0  0  0  0
  2  1  1  0  0  0  0
  4 18  1  0  0  0  0
  6 19  1  0  0  0  0
  6  5  1  0  0  0  0
  7 30  2  0  0  0  0
  7 38  1  0  0  0  0
  8  1  1  0  0  0  0
  8 38  1  0  0  0  0
  9  8  1  0  0  0  0
 10  4  1  0  0  0  0
 10 12  1  0  0  0  0
 11 10  1  0  0  0  0
 12 14  2  0  0  0  0
 13 12  1  0  0  0  0
 14 16  1  0  0  0  0
 14 15  1  0  0  0  0
 16 17  1  0  0  0  0
 18  5  1  0  0  0  0
 18 16  2  0  0  0  0
 19 20  1  0  0  0  0
 20 22  2  0  0  0  0
 20 21  1  0  0  0  0
 22 23  1  0  0  0  0
 24 25  1  0  0  0  0
 24 22  1  0  0  0  0
 26 24  2  0  0  0  0
 27 26  1  0  0  0  0
 28 26  1  0  0  0  0
 28 19  2  0  0  0  0
 29 28  1  0  0  0  0
 30 32  1  0  0  0  0
 31 30  1  0  0  0  0
 32 33  1  0  0  0  0
 32 34  2  0  0  0  0
 34 35  1  0  0  0  0
 36 34  1  0  0  0  0
 36 37  1  0  0  0  0
 38 36  2  0  0  0  0
 39  9  1  0  0  0  0
 39 48  1  0  0  0  0
 40 39  2  0  0  0  0
 41 40  1  0  0  0  0
 42 40  1  0  0  0  0
 42 44  2  0  0  0  0
 43 42  1  0  0  0  0
 44 46  1  0  0  0  0
 45 44  1  0  0  0  0
 46 48  2  0  0  0  0
 46 47  1  0  0  0  0
 48  1  1  0  0  0  0
M  END
$$$$
