CSD_code = BIFKUX | q = 1 | S = 0 | Stoichiometry = C11H9Cl4IrN3(1+) | MND = 6
 OpenBabel04212202013D

 28 30  0  0  0  0  0  0  0  0999 V2000
   13.5250   11.9216   -1.5265 Ir  0  0  0  0  0  0  0  0  0  0  0  0
   13.0717   11.1483    0.5706 Cl  0  0  0  0  0  0  0  0  0  0  0  0
   15.0530   10.9165   -2.8065 Cl  0  0  0  0  0  0  0  0  0  0  0  0
   15.2355   13.1222   -0.6248 Cl  0  0  0  0  0  0  0  0  0  0  0  0
   13.4436   13.3869   -3.4373 Cl  0  0  0  0  0  0  0  0  0  0  0  0
   12.0122   10.7318   -2.3929 N   0  0  0  0  0  0  0  0  0  0  0  0
   10.7630   12.5798   -1.7895 N   0  0  0  0  0  2  0  0  0  0  0  0
   11.7893   13.0497   -1.2720 N   0  0  0  0  0  0  0  0  0  0  0  0
   12.1004    9.5288   -2.9330 C   0  0  0  0  0  3  0  0  0  0  0  0
   13.0767    9.0653   -2.9317 H   0  0  0  0  0  0  0  0  0  0  0  0
   11.0007    8.8857   -3.4893 C   0  0  0  0  0  0  0  0  0  0  0  0
   11.1211    7.9053   -3.9213 H   0  0  0  0  0  0  0  0  0  0  0  0
    9.7655    9.5206   -3.4820 C   0  0  0  0  0  0  0  0  0  0  0  0
    8.8991    9.0424   -3.9118 H   0  0  0  0  0  0  0  0  0  0  0  0
    9.6632   10.7786   -2.9143 C   0  0  0  0  0  0  0  0  0  0  0  0
    8.7332   11.3217   -2.8757 H   0  0  0  0  0  0  0  0  0  0  0  0
   10.8120   11.3579   -2.3726 C   0  0  0  0  0  0  0  0  0  0  0  0
   11.7699   14.3077   -0.7270 C   0  0  0  0  0  0  0  0  0  0  0  0
   10.8507   15.2551   -1.2266 C   0  0  0  0  0  0  0  0  0  0  0  0
   10.2124   14.9692   -2.0483 H   0  0  0  0  0  0  0  0  0  0  0  0
   10.8200   16.5220   -0.6942 C   0  0  0  0  0  0  0  0  0  0  0  0
   10.1324   17.2515   -1.0939 H   0  0  0  0  0  0  0  0  0  0  0  0
   11.6790   16.8708    0.3442 C   0  0  0  0  0  0  0  0  0  0  0  0
   11.6539   17.8697    0.7515 H   0  0  0  0  0  0  0  0  0  0  0  0
   12.5704   15.9344    0.8565 C   0  0  0  0  0  0  0  0  0  0  0  0
   13.2228   16.2009    1.6731 H   0  0  0  0  0  0  0  0  0  0  0  0
   12.6259   14.6634    0.3268 C   0  0  0  0  0  0  0  0  0  0  0  0
   13.2990   13.9268    0.7399 H   0  0  0  0  0  0  0  0  0  0  0  0
  1  8  1  0  0  0  0
  1  4  1  0  0  0  0
  1  2  1  0  0  0  0
  3  1  1  0  0  0  0
  5  1  1  0  0  0  0
  6 17  1  0  0  0  0
  6  1  1  0  0  0  0
  7  8  1  0  0  0  0
  8 18  1  0  0  0  0
  9 10  1  0  0  0  0
  9  6  1  0  0  0  0
 11 13  2  0  0  0  0
 11  9  1  0  0  0  0
 12 11  1  0  0  0  0
 13 15  1  0  0  0  0
 14 13  1  0  0  0  0
 15 16  1  0  0  0  0
 15 17  2  0  0  0  0
 17  7  1  0  0  0  0
 18 27  1  0  0  0  0
 19 18  2  0  0  0  0
 19 21  1  0  0  0  0
 20 19  1  0  0  0  0
 21 23  2  0  0  0  0
 22 21  1  0  0  0  0
 23 24  1  0  0  0  0
 23 25  1  0  0  0  0
 25 26  1  0  0  0  0
 27 28  1  0  0  0  0
 27 25  2  0  0  0  0
M  END
$$$$
