CSD_code = BIFTOA | q = 0 | S = 0 | Stoichiometry = C14H34Cl3NS2Si2Zr | MND = 6
 OpenBabel04212202013D

 57 58  0  0  1  0  0  0  0  0999 V2000
    2.7133    2.1465   13.2007 Zr  0  0  0  0  0  0  0  0  0  0  0  0
    2.4458   -0.0624   13.9204 Cl  0  0  0  0  0  0  0  0  0  0  0  0
    2.0243    2.9566   15.2918 Cl  0  0  0  0  0  0  0  0  0  0  0  0
    0.5249    2.1128   12.3783 Cl  0  0  0  0  0  0  0  0  0  0  0  0
    3.1281    4.7389   12.4198 S   0  0  1  0  0  3  0  0  0  0  0  0
    5.3143    2.2402   14.0426 S   0  0  2  0  0  3  0  0  0  0  0  0
    3.1795    2.7607   10.1024 Si  0  0  0  0  0  0  0  0  0  0  0  0
    4.9092    0.6356   11.4832 Si  0  0  0  0  0  0  0  0  0  0  0  0
    3.8158    1.9574   11.4775 N   0  0  2  0  0  0  0  0  0  0  0  0
    2.3401    4.3511   10.8317 C   0  0  0  0  0  0  0  0  0  0  0  0
    5.5766    0.6004   13.3082 C   0  0  0  0  0  0  0  0  0  0  0  0
    1.8723    1.7484    9.1445 C   0  0  0  0  0  0  0  0  0  0  0  0
    4.5013    3.4066    8.8867 C   0  0  0  0  0  0  0  0  0  0  0  0
    4.0918   -1.0385   11.0538 C   0  0  0  0  0  0  0  0  0  0  0  0
    6.4545    0.8698   10.3889 C   0  0  0  0  0  0  0  0  0  0  0  0
    2.0038    6.0440   13.1790 C   0  0  0  0  0  0  0  0  0  0  0  0
    2.6420    6.3365   14.5320 C   0  0  0  0  0  0  0  0  0  0  0  0
    0.5959    5.4956   13.3430 C   0  0  0  0  0  0  0  0  0  0  0  0
    2.0248    7.2786   12.2877 C   0  0  0  0  0  0  0  0  0  0  0  0
    5.6159    1.9828   15.8821 C   0  0  0  0  0  0  0  0  0  0  0  0
    7.0720    1.5844   16.0806 C   0  0  0  0  0  0  0  0  0  0  0  0
    4.6665    0.9322   16.4335 C   0  0  0  0  0  0  0  0  0  0  0  0
    5.3331    3.3519   16.4900 C   0  0  0  0  0  0  0  0  0  0  0  0
    1.2819    4.1731   11.0062 H   0  0  0  0  0  0  0  0  0  0  0  0
    2.4634    5.2111   10.1763 H   0  0  0  0  0  0  0  0  0  0  0  0
    6.6421    0.3821   13.3487 H   0  0  0  0  0  0  0  0  0  0  0  0
    5.0309   -0.1328   13.8969 H   0  0  0  0  0  0  0  0  0  0  0  0
    1.1383    1.3121    9.8168 H   0  0  0  0  0  0  0  0  0  0  0  0
    1.3402    2.3567    8.4205 H   0  0  0  0  0  0  0  0  0  0  0  0
    2.3503    0.9381    8.6043 H   0  0  0  0  0  0  0  0  0  0  0  0
    4.9549    2.5860    8.3453 H   0  0  0  0  0  0  0  0  0  0  0  0
    4.0630    4.0772    8.1555 H   0  0  0  0  0  0  0  0  0  0  0  0
    5.2924    3.9419    9.4002 H   0  0  0  0  0  0  0  0  0  0  0  0
    3.1151   -1.1349   11.5208 H   0  0  0  0  0  0  0  0  0  0  0  0
    3.9554   -1.1217    9.9808 H   0  0  0  0  0  0  0  0  0  0  0  0
    4.6965   -1.8806   11.3736 H   0  0  0  0  0  0  0  0  0  0  0  0
    7.1956    0.1048   10.5934 H   0  0  0  0  0  0  0  0  0  0  0  0
    6.1913    0.7959    9.3412 H   0  0  0  0  0  0  0  0  0  0  0  0
    6.9184    1.8369   10.5466 H   0  0  0  0  0  0  0  0  0  0  0  0
    2.6195    5.4467   15.1586 H   0  0  0  0  0  0  0  0  0  0  0  0
    3.6759    6.6502   14.4039 H   0  0  0  0  0  0  0  0  0  0  0  0
    2.0968    7.1305   15.0371 H   0  0  0  0  0  0  0  0  0  0  0  0
   -0.0023    6.2038   13.9141 H   0  0  0  0  0  0  0  0  0  0  0  0
    0.1075    5.3452   12.3821 H   0  0  0  0  0  0  0  0  0  0  0  0
    0.6068    4.5472   13.8825 H   0  0  0  0  0  0  0  0  0  0  0  0
    3.0460    7.6169   12.1307 H   0  0  0  0  0  0  0  0  0  0  0  0
    1.5721    7.0721   11.3213 H   0  0  0  0  0  0  0  0  0  0  0  0
    1.4619    8.0809   12.7605 H   0  0  0  0  0  0  0  0  0  0  0  0
    7.2755    0.6123   15.6385 H   0  0  0  0  0  0  0  0  0  0  0  0
    7.7328    2.3197   15.6282 H   0  0  0  0  0  0  0  0  0  0  0  0
    7.2936    1.5260   17.1443 H   0  0  0  0  0  0  0  0  0  0  0  0
    3.6319    1.1724   16.1843 H   0  0  0  0  0  0  0  0  0  0  0  0
    4.8968   -0.0601   16.0505 H   0  0  0  0  0  0  0  0  0  0  0  0
    4.7556    0.9001   17.5181 H   0  0  0  0  0  0  0  0  0  0  0  0
    5.5346    3.3341   17.5586 H   0  0  0  0  0  0  0  0  0  0  0  0
    5.9630    4.1097   16.0287 H   0  0  0  0  0  0  0  0  0  0  0  0
    4.2894    3.6220   16.3375 H   0  0  0  0  0  0  0  0  0  0  0  0
  1  2  1  0  0  0  0
  1  6  1  0  0  0  0
  1  3  1  0  0  0  0
  4  1  1  0  0  0  0
  5 16  1  1  0  0  0
  5  1  1  0  0  0  0
  6 20  1  1  0  0  0
  7 10  1  0  0  0  0
  8 11  1  0  0  0  0
  9  7  1  6  0  0  0
  9  8  1  0  0  0  0
  9  1  1  0  0  0  0
 10 24  1  0  0  0  0
 10  5  1  0  0  0  0
 11 26  1  0  0  0  0
 11 27  1  0  0  0  0
 11  6  1  0  0  0  0
 12 28  1  0  0  0  0
 12  7  1  0  0  0  0
 13 33  1  0  0  0  0
 13  7  1  0  0  0  0
 14 36  1  0  0  0  0
 14  8  1  0  0  0  0
 14 34  1  0  0  0  0
 15 39  1  0  0  0  0
 15 37  1  0  0  0  0
 15  8  1  0  0  0  0
 16 18  1  0  0  0  0
 16 17  1  0  0  0  0
 17 42  1  0  0  0  0
 17 40  1  0  0  0  0
 18 45  1  0  0  0  0
 18 43  1  0  0  0  0
 19 48  1  0  0  0  0
 19 16  1  0  0  0  0
 20 21  1  0  0  0  0
 20 22  1  0  0  0  0
 20 23  1  0  0  0  0
 21 51  1  0  0  0  0
 22 54  1  0  0  0  0
 23 55  1  0  0  0  0
 25 10  1  0  0  0  0
 29 12  1  0  0  0  0
 30 12  1  0  0  0  0
 31 13  1  0  0  0  0
 32 13  1  0  0  0  0
 35 14  1  0  0  0  0
 38 15  1  0  0  0  0
 41 17  1  0  0  0  0
 44 18  1  0  0  0  0
 46 19  1  0  0  0  0
 47 19  1  0  0  0  0
 49 21  1  0  0  0  0
 50 21  1  0  0  0  0
 52 22  1  0  0  0  0
 53 22  1  0  0  0  0
 56 23  1  0  0  0  0
 57 23  1  0  0  0  0
M  END
$$$$
