CSD_code = BIGRAL | q = 0 | S = 0 | Stoichiometry = C14H13AuClNO | MND = 4
 OpenBabel04212202013D

 31 33  0  0  0  0  0  0  0  0999 V2000
    2.6261    7.0785    7.7799 Au  0  0  2  0  0  0  0  0  0  0  0  0
    3.5517    4.9604    7.5308 Cl  0  0  0  0  0  0  0  0  0  0  0  0
    3.0466    7.1314    9.8297 N   0  0  0  0  0  0  0  0  0  0  0  0
    1.8383    8.8690    8.2057 C   0  0  0  0  0  0  0  0  0  0  0  0
    1.1214    9.7106    7.3781 C   0  0  0  0  0  0  0  0  0  0  0  0
    0.8817    9.4135    6.3696 H   0  0  0  0  0  0  0  0  0  0  0  0
    0.6552   10.9349    7.8380 C   0  0  0  0  0  0  0  0  0  0  0  0
    0.0940   11.5732    7.1726 H   0  0  0  0  0  0  0  0  0  0  0  0
    0.9060   11.3324    9.1397 C   0  0  0  0  0  0  0  0  0  0  0  0
    0.5530   12.2888    9.4955 H   0  0  0  0  0  0  0  0  0  0  0  0
    1.5939   10.4921    9.9916 C   0  0  0  0  0  0  0  0  0  0  0  0
    1.7642   10.7973   11.0127 H   0  0  0  0  0  0  0  0  0  0  0  0
    2.0570    9.2544    9.5408 C   0  0  0  0  0  0  0  0  0  0  0  0
    2.7315    8.3025   10.4097 C   0  0  0  0  0  0  0  0  0  0  0  0
    3.0369    8.5105   11.7557 C   0  0  0  0  0  0  0  0  0  0  0  0
    2.7941    9.4486   12.2267 H   0  0  0  0  0  0  0  0  0  0  0  0
    3.6540    7.5092   12.4801 C   0  0  0  0  0  0  0  0  0  0  0  0
    3.8945    7.6617   13.5217 H   0  0  0  0  0  0  0  0  0  0  0  0
    3.9594    6.3078   11.8548 C   0  0  0  0  0  0  0  0  0  0  0  0
    4.4372    5.5014   12.3861 H   0  0  0  0  0  0  0  0  0  0  0  0
    3.6377    6.1658   10.5190 C   0  0  0  0  0  0  0  0  0  0  0  0
    3.8546    5.2617    9.9665 H   0  0  0  0  0  0  0  0  0  0  0  0
    2.2720    7.1738    5.7789 C   0  0  0  0  0  0  0  0  0  0  0  0
    2.4944    8.1700    5.4029 H   0  0  0  0  0  0  0  0  0  0  0  0
    2.9372    6.4519    5.3116 H   0  0  0  0  0  0  0  0  0  0  0  0
   -0.0098    7.6493    5.3232 O   0  0  0  0  0  0  0  0  0  0  0  0
    0.8498    6.8140    5.5093 C   0  0  0  0  0  0  0  0  0  0  0  0
    0.5608    5.3369    5.4509 C   0  0  0  0  0  0  0  0  0  0  0  0
   -0.4877    5.1473    5.6665 H   0  0  0  0  0  0  0  0  0  0  0  0
    1.1978    4.7822    6.1332 H   0  0  0  0  0  0  0  0  0  0  0  0
    0.7682    4.9926    4.4378 H   0  0  0  0  0  0  0  0  0  0  0  0
  1  2  1  1  0  0  0
  1  4  2  0  0  0  0
  1  3  1  0  0  0  0
  3 14  1  0  0  0  0
  3 21  1  0  0  0  0
  4 13  1  0  0  0  0
  5  7  2  0  0  0  0
  5  4  1  0  0  0  0
  6  5  1  0  0  0  0
  7  9  1  0  0  0  0
  8  7  1  0  0  0  0
  9 10  1  0  0  0  0
  9 11  2  0  0  0  0
 11 12  1  0  0  0  0
 13 11  1  0  0  0  0
 13 14  2  0  0  0  0
 14 15  1  0  0  0  0
 15 16  1  0  0  0  0
 15 17  2  0  0  0  0
 17 18  1  0  0  0  0
 19 20  1  0  0  0  0
 19 17  1  0  0  0  0
 21 19  2  0  0  0  0
 22 21  1  0  0  0  0
 23  1  1  0  0  0  0
 24 23  1  0  0  0  0
 25 23  1  0  0  0  0
 26 27  2  0  0  0  0
 27 23  1  0  0  0  0
 28 27  1  0  0  0  0
 28 29  1  0  0  0  0
 28 30  1  0  0  0  0
 31 28  1  0  0  0  0
M  END
$$$$
