CSD_code = BIHHAB | q = 0 | S = 0 | Stoichiometry = C35H38Cl2N3O2PRu | MND = 6
 OpenBabel04212202013D

 82 89  0  0  1  0  0  0  0  0999 V2000
    0.7302    0.6161    2.0831 Ru  0  0  0  0  0  0  0  0  0  0  0  0
   -0.4617   -1.3577    2.5690 Cl  0  0  0  0  0  0  0  0  0  0  0  0
   -1.3067    1.7879    1.8038 Cl  0  0  0  0  0  0  0  0  0  0  0  0
    1.5167    2.2855    1.7510 N   0  0  0  0  0  0  0  0  0  0  0  0
    1.5969    3.1845    2.7530 C   0  0  0  0  0  0  0  0  0  0  0  0
    2.0725    4.4721    2.5332 C   0  0  0  0  0  0  0  0  0  0  0  0
    2.1223    5.1678    3.3546 H   0  0  0  0  0  0  0  0  0  0  0  0
    2.4464    4.8309    1.2440 C   0  0  0  0  0  0  0  0  0  0  0  0
    2.8231    5.8222    1.0483 H   0  0  0  0  0  0  0  0  0  0  0  0
    2.2907    3.9284    0.2006 C   0  0  0  0  0  0  0  0  0  0  0  0
    2.5153    4.1927   -0.8196 H   0  0  0  0  0  0  0  0  0  0  0  0
    1.8053    2.6571    0.4885 C   0  0  0  0  0  0  0  0  0  0  0  0
    1.4707    1.5954   -0.4213 C   0  0  1  0  0  3  0  0  0  0  0  0
    1.6585    1.6591   -1.7477 O   0  0  0  0  0  0  0  0  0  0  0  0
    1.1833    0.4221   -2.2866 C   0  0  0  0  0  0  0  0  0  0  0  0
    2.0164   -0.0717   -2.7946 H   0  0  0  0  0  0  0  0  0  0  0  0
    0.4004    0.6445   -3.0141 H   0  0  0  0  0  0  0  0  0  0  0  0
    0.6690   -0.3849   -1.0708 C   0  0  1  0  0  0  0  0  0  0  0  0
    1.2549   -1.3040   -0.9390 H   0  0  0  0  0  0  0  0  0  0  0  0
    0.9608    0.4988    0.0417 N   0  0  2  0  0  0  0  0  0  0  0  0
   -0.8188   -0.7888   -1.0976 C   0  0  0  0  0  0  0  0  0  0  0  0
   -1.0449   -1.1525   -0.0879 H   0  0  0  0  0  0  0  0  0  0  0  0
   -1.0249   -1.9269   -2.0924 C   0  0  0  0  0  0  0  0  0  0  0  0
   -0.3950   -2.7776   -1.8427 H   0  0  0  0  0  0  0  0  0  0  0  0
   -0.7867   -1.6049   -3.1050 H   0  0  0  0  0  0  0  0  0  0  0  0
   -2.0618   -2.2508   -2.0712 H   0  0  0  0  0  0  0  0  0  0  0  0
   -1.7534    0.3800   -1.3923 C   0  0  0  0  0  0  0  0  0  0  0  0
   -2.7834    0.0502   -1.2848 H   0  0  0  0  0  0  0  0  0  0  0  0
   -1.6266    0.7629   -2.4037 H   0  0  0  0  0  0  0  0  0  0  0  0
   -1.5903    1.1863   -0.6812 H   0  0  0  0  0  0  0  0  0  0  0  0
    1.0218    2.6323    3.9517 C   0  0  0  0  0  0  0  0  0  0  0  0
    0.7667    3.3441    5.0588 O   0  0  0  0  0  0  0  0  0  0  0  0
   -0.0505    2.5149    5.8915 C   0  0  0  0  0  0  0  0  0  0  0  0
   -1.0408    2.9731    5.9605 H   0  0  0  0  0  0  0  0  0  0  0  0
    0.4009    2.4794    6.8841 H   0  0  0  0  0  0  0  0  0  0  0  0
   -0.0889    1.1387    5.1851 C   0  0  1  0  0  0  0  0  0  0  0  0
   -1.1146    0.8584    4.9111 H   0  0  0  0  0  0  0  0  0  0  0  0
    0.6300    1.3989    3.9526 N   0  0  0  0  0  0  0  0  0  0  0  0
    0.5289   -0.0331    5.9668 C   0  0  0  0  0  0  0  0  0  0  0  0
    0.5716   -0.8678    5.2596 H   0  0  0  0  0  0  0  0  0  0  0  0
    1.9475    0.2713    6.4403 C   0  0  0  0  0  0  0  0  0  0  0  0
    2.4132   -0.6357    6.8170 H   0  0  0  0  0  0  0  0  0  0  0  0
    1.9559    1.0117    7.2377 H   0  0  0  0  0  0  0  0  0  0  0  0
    2.5521    0.6398    5.6135 H   0  0  0  0  0  0  0  0  0  0  0  0
   -0.3696   -0.4283    7.1336 C   0  0  0  0  0  0  0  0  0  0  0  0
    0.0616   -1.2765    7.6590 H   0  0  0  0  0  0  0  0  0  0  0  0
   -1.3551   -0.7126    6.7747 H   0  0  0  0  0  0  0  0  0  0  0  0
   -0.4810    0.3930    7.8392 H   0  0  0  0  0  0  0  0  0  0  0  0
    2.7028   -0.5917    2.2931 P   0  0  0  0  0  4  0  0  0  0  0  0
    3.2619   -1.4685    3.7905 C   0  0  0  0  0  0  0  0  0  0  0  0
    4.5296   -1.3410    4.3445 C   0  0  0  0  0  0  0  0  0  0  0  0
    5.2395   -0.6355    3.9363 H   0  0  0  0  0  0  0  0  0  0  0  0
    4.8859   -2.1282    5.4260 C   0  0  0  0  0  0  0  0  0  0  0  0
    5.8698   -2.0250    5.8603 H   0  0  0  0  0  0  0  0  0  0  0  0
    3.9915   -3.0489    5.9462 C   0  0  0  0  0  0  0  0  0  0  0  0
    4.2780   -3.6589    6.7905 H   0  0  0  0  0  0  0  0  0  0  0  0
    2.7355   -3.1935    5.3776 C   0  0  0  0  0  0  0  0  0  0  0  0
    2.0412   -3.9193    5.7741 H   0  0  0  0  0  0  0  0  0  0  0  0
    2.3696   -2.4113    4.2982 C   0  0  0  0  0  0  0  0  0  0  0  0
    1.3948   -2.5159    3.8359 H   0  0  0  0  0  0  0  0  0  0  0  0
    3.0618   -1.9782    1.1611 C   0  0  0  0  0  0  0  0  0  0  0  0
    4.3700   -2.2799    0.7916 C   0  0  0  0  0  0  0  0  0  0  0  0
    5.1863   -1.6570    1.1309 H   0  0  0  0  0  0  0  0  0  0  0  0
    4.6244   -3.3801   -0.0060 C   0  0  0  0  0  0  0  0  0  0  0  0
    5.6394   -3.6062   -0.2993 H   0  0  0  0  0  0  0  0  0  0  0  0
    3.5837   -4.1975   -0.4193 C   0  0  0  0  0  0  0  0  0  0  0  0
    3.7887   -5.0562   -1.0417 H   0  0  0  0  0  0  0  0  0  0  0  0
    2.2870   -3.9220   -0.0188 C   0  0  0  0  0  0  0  0  0  0  0  0
    1.4781   -4.5716   -0.3190 H   0  0  0  0  0  0  0  0  0  0  0  0
    2.0213   -2.8171    0.7731 C   0  0  0  0  0  0  0  0  0  0  0  0
    1.0147   -2.6048    1.1136 H   0  0  0  0  0  0  0  0  0  0  0  0
    3.9728    0.6527    1.9189 C   0  0  0  0  0  0  0  0  0  0  0  0
    4.3257    1.5708    2.9075 C   0  0  0  0  0  0  0  0  0  0  0  0
    3.9625    1.4288    3.9178 H   0  0  0  0  0  0  0  0  0  0  0  0
    5.1218    2.6580    2.6030 C   0  0  0  0  0  0  0  0  0  0  0  0
    5.3950    3.3591    3.3781 H   0  0  0  0  0  0  0  0  0  0  0  0
    5.5569    2.8568    1.3020 C   0  0  0  0  0  0  0  0  0  0  0  0
    6.1740    3.7098    1.0634 H   0  0  0  0  0  0  0  0  0  0  0  0
    5.1879    1.9667    0.3076 C   0  0  0  0  0  0  0  0  0  0  0  0
    5.5117    2.1281   -0.7102 H   0  0  0  0  0  0  0  0  0  0  0  0
    4.3923    0.8759    0.6096 C   0  0  0  0  0  0  0  0  0  0  0  0
    4.0962    0.1892   -0.1723 H   0  0  0  0  0  0  0  0  0  0  0  0
  1 49  1  0  0  0  0
  1  2  1  0  0  0  0
  1 38  1  0  0  0  0
  3  1  1  0  0  0  0
  4  1  1  0  0  0  0
  4  5  1  0  0  0  0
  5 31  2  0  0  0  0
  6  5  1  0  0  0  0
  6  7  1  0  0  0  0
  8  6  2  0  0  0  0
  9  8  1  0  0  0  0
 10 12  2  0  0  0  0
 10  8  1  0  0  0  0
 11 10  1  0  0  0  0
 12  4  1  0  0  0  0
 13 14  1  1  0  0  0
 13 20  1  0  0  0  0
 13 12  1  0  0  0  0
 15 14  1  0  0  0  0
 15 18  1  0  0  0  0
 16 15  1  0  0  0  0
 17 15  1  0  0  0  0
 18 19  1  1  0  0  0
 18 20  1  0  0  0  0
 20  1  1  0  0  0  0
 21 18  1  0  0  0  0
 21 22  1  0  0  0  0
 23 26  1  0  0  0  0
 23 24  1  0  0  0  0
 23 21  1  0  0  0  0
 25 23  1  0  0  0  0
 27 28  1  0  0  0  0
 27 21  1  0  0  0  0
 27 30  1  0  0  0  0
 29 27  1  0  0  0  0
 31 38  1  0  0  0  0
 31 32  1  0  0  0  0
 32 33  1  0  0  0  0
 33 34  1  0  0  0  0
 33 35  1  0  0  0  0
 36 33  1  0  0  0  0
 36 39  1  0  0  0  0
 37 36  1  0  0  0  0
 38 36  1  0  0  0  0
 39 41  1  0  0  0  0
 39 45  1  0  0  0  0
 40 39  1  0  0  0  0
 41 42  1  0  0  0  0
 41 43  1  0  0  0  0
 44 41  1  0  0  0  0
 45 46  1  0  0  0  0
 45 48  1  0  0  0  0
 47 45  1  0  0  0  0
 49 50  1  0  0  0  0
 50 59  2  0  0  0  0
 50 51  1  0  0  0  0
 51 53  2  0  0  0  0
 52 51  1  0  0  0  0
 53 54  1  0  0  0  0
 53 55  1  0  0  0  0
 55 56  1  0  0  0  0
 57 58  1  0  0  0  0
 57 55  2  0  0  0  0
 59 57  1  0  0  0  0
 60 59  1  0  0  0  0
 61 49  1  0  0  0  0
 62 63  1  0  0  0  0
 62 61  1  0  0  0  0
 64 62  2  0  0  0  0
 65 64  1  0  0  0  0
 66 68  2  0  0  0  0
 66 64  1  0  0  0  0
 67 66  1  0  0  0  0
 68 70  1  0  0  0  0
 69 68  1  0  0  0  0
 70 71  1  0  0  0  0
 70 61  2  0  0  0  0
 72 49  1  0  0  0  0
 72 73  1  0  0  0  0
 73 74  1  0  0  0  0
 75 73  2  0  0  0  0
 75 76  1  0  0  0  0
 77 75  1  0  0  0  0
 78 77  1  0  0  0  0
 79 81  1  0  0  0  0
 79 77  2  0  0  0  0
 80 79  1  0  0  0  0
 81 72  2  0  0  0  0
 82 81  1  0  0  0  0
M  END
$$$$
