CSD_code = BIHKAE | q = 0 | S = 0 | Stoichiometry = C8H20Br2NiO4S2 | MND = 6
 OpenBabel04212202013D

 37 36  0  0  0  0  0  0  0  0999 V2000
    1.4926    0.0004    4.7808 Ni  0  0  0  0  0  0  0  0  0  0  0  0
    1.3307    2.2553    4.3431 Br  0  0  0  0  0  0  0  0  0  0  0  0
    0.9853   -0.2214    2.6053 S   0  0  0  0  0  3  0  0  0  0  0  0
    3.7895    0.1593    3.9712 O   0  0  0  0  0  0  0  0  0  0  0  0
    0.1163   -3.2286    0.0805 O   0  0  0  0  0  0  0  0  0  0  0  0
    3.7734   -0.3888    2.6755 C   0  0  0  0  0  0  0  0  0  0  0  0
    2.6043    0.1376    1.8429 C   0  0  0  0  0  0  0  0  0  0  0  0
    0.7504   -1.9297    2.0303 C   0  0  0  0  0  0  0  0  0  0  0  0
    0.1605   -1.9353    0.6220 C   0  0  0  0  0  0  0  0  0  0  0  0
    3.9339    1.1162    3.9083 H   0  0  0  0  0  0  0  0  0  0  0  0
    4.7130   -0.1683    2.1511 H   0  0  0  0  0  0  0  0  0  0  0  0
    3.6946   -1.4715    2.8136 H   0  0  0  0  0  0  0  0  0  0  0  0
    2.6529    1.2253    1.7625 H   0  0  0  0  0  0  0  0  0  0  0  0
    2.6025   -0.3032    0.8487 H   0  0  0  0  0  0  0  0  0  0  0  0
    0.0665   -2.4047    2.7339 H   0  0  0  0  0  0  0  0  0  0  0  0
    1.7006   -2.4612    2.0602 H   0  0  0  0  0  0  0  0  0  0  0  0
   -0.8382   -1.4756    0.6406 H   0  0  0  0  0  0  0  0  0  0  0  0
    0.7866   -1.3584   -0.0641 H   0  0  0  0  0  0  0  0  0  0  0  0
   -0.4193   -3.7936    0.6491 H   0  0  0  0  0  0  0  0  0  0  0  0
    1.6548   -2.2543    5.2192 Br  0  0  0  0  0  0  0  0  0  0  0  0
    1.9998    0.2215    6.9563 S   0  0  0  0  0  3  0  0  0  0  0  0
   -0.8044   -0.1593    5.5904 O   0  0  0  0  0  0  0  0  0  0  0  0
    0.3807   -0.1377    7.7187 C   0  0  0  0  0  0  0  0  0  0  0  0
    2.2344    1.9297    7.5317 C   0  0  0  0  0  0  0  0  0  0  0  0
   -0.7884    0.3886    6.8861 C   0  0  0  0  0  0  0  0  0  0  0  0
   -0.9485   -1.1161    5.6531 H   0  0  0  0  0  0  0  0  0  0  0  0
    0.3323   -1.2254    7.7991 H   0  0  0  0  0  0  0  0  0  0  0  0
    0.3826    0.3030    8.7129 H   0  0  0  0  0  0  0  0  0  0  0  0
    2.8247    1.9350    8.9398 C   0  0  0  0  0  0  0  0  0  0  0  0
    2.9181    2.4051    6.8281 H   0  0  0  0  0  0  0  0  0  0  0  0
    1.2840    2.4610    7.5022 H   0  0  0  0  0  0  0  0  0  0  0  0
   -1.7280    0.1679    7.4104 H   0  0  0  0  0  0  0  0  0  0  0  0
   -0.7098    1.4714    6.7482 H   0  0  0  0  0  0  0  0  0  0  0  0
    2.8691    3.2283    9.4816 O   0  0  0  0  0  0  0  0  0  0  0  0
    3.8233    1.4753    8.9209 H   0  0  0  0  0  0  0  0  0  0  0  0
    2.1987    1.3581    9.6261 H   0  0  0  0  0  0  0  0  0  0  0  0
    3.4029    3.7939    8.9119 H   0  0  0  0  0  0  0  0  0  0  0  0
  1 20  1  0  0  0  0
  1 21  1  0  0  0  0
  2  1  1  0  0  0  0
  3  1  1  0  0  0  0
  5  9  1  0  0  0  0
  5 19  1  0  0  0  0
  6 12  1  0  0  0  0
  6  4  1  0  0  0  0
  7  3  1  0  0  0  0
  7  6  1  0  0  0  0
  8 16  1  0  0  0  0
  8  3  1  0  0  0  0
  8 15  1  0  0  0  0
  9 17  1  0  0  0  0
  9  8  1  0  0  0  0
 10  4  1  0  0  0  0
 11  6  1  0  0  0  0
 13  7  1  0  0  0  0
 14  7  1  0  0  0  0
 18  9  1  0  0  0  0
 21 24  1  0  0  0  0
 21 23  1  0  0  0  0
 22 26  1  0  0  0  0
 22 25  1  0  0  0  0
 23 27  1  0  0  0  0
 23 28  1  0  0  0  0
 24 29  1  0  0  0  0
 25 32  1  0  0  0  0
 25 23  1  0  0  0  0
 29 34  1  0  0  0  0
 29 36  1  0  0  0  0
 30 24  1  0  0  0  0
 31 24  1  0  0  0  0
 33 25  1  0  0  0  0
 35 29  1  0  0  0  0
 37 34  1  0  0  0  0
M  END
$$$$
