CSD_code = BIJKOX | q = 0 | S = 0 | Stoichiometry = C18H11Cl2N3O4Ru | MND = 6
 OpenBabel04212202013D

 39 42  0  0  1  0  0  0  0  0999 V2000
    2.2369    8.2527   16.3500 Ru  0  0  0  0  0  0  0  0  0  0  0  0
    4.3373    9.1320   17.0978 Cl  0  0  0  0  0  0  0  0  0  0  0  0
    0.3724    7.1978   15.2895 Cl  0  0  0  0  0  0  0  0  0  0  0  0
    2.1279    6.5308   20.1497 O   0  0  0  0  0  0  0  0  0  0  0  0
    3.1363    6.4737   16.8827 N   0  0  0  0  0  0  0  0  0  0  0  0
    0.8111    9.0159   18.8768 O   0  0  0  0  0  1  0  0  0  0  0  0
    3.2049    7.8109   14.6337 N   0  0  0  0  0  0  0  0  0  0  0  0
   -0.4263    6.2603   19.2885 N   0  0  0  0  0  0  0  0  0  0  0  0
   -2.6170    6.4430   19.8137 O   0  0  0  0  0  0  0  0  0  0  0  0
    1.9469    6.1620   19.0065 C   0  0  0  0  0  0  0  0  0  0  0  0
    3.1033    5.8982   18.0867 C   0  0  2  0  0  3  0  0  0  0  0  0
    0.5993    5.8572   18.4920 C   0  0  0  0  0  0  0  0  0  0  0  0
    4.1602    6.1768   16.0587 C   0  0  0  0  0  0  0  0  0  0  0  0
    4.0946    6.8111   14.7366 C   0  0  1  0  0  3  0  0  0  0  0  0
    5.1938    5.3277   16.4452 C   0  0  0  0  0  0  0  0  0  0  0  0
    6.0160    5.1341   15.7766 H   0  0  0  0  0  0  0  0  0  0  0  0
    4.1158    5.0621   18.5474 C   0  0  0  0  0  0  0  0  0  0  0  0
    4.0513    4.6651   19.5477 H   0  0  0  0  0  0  0  0  0  0  0  0
    5.1845    4.7795   17.7159 C   0  0  0  0  0  0  0  0  0  0  0  0
    5.9942    4.1500   18.0497 H   0  0  0  0  0  0  0  0  0  0  0  0
    1.3667    8.6437   17.9555 C   0  0  0  0  0  2  0  0  0  0  0  0
    4.8516    6.3945   13.6431 C   0  0  0  0  0  0  0  0  0  0  0  0
    5.5489    5.5788   13.7403 H   0  0  0  0  0  0  0  0  0  0  0  0
    0.3398    5.1318   17.3575 C   0  0  0  0  0  0  0  0  0  0  0  0
    1.1343    4.7589   16.7335 H   0  0  0  0  0  0  0  0  0  0  0  0
   -1.0078    4.8597   17.0279 C   0  0  0  0  0  0  0  0  0  0  0  0
   -1.2162    4.3099   16.1228 H   0  0  0  0  0  0  0  0  0  0  0  0
    1.3585   10.9873   15.5053 O   0  0  0  0  0  1  0  0  0  0  0  0
   -1.7749    6.0398   19.0406 C   0  0  0  0  0  0  0  0  0  0  0  0
   -2.0182    5.2963   17.8172 C   0  0  0  0  0  0  0  0  0  0  0  0
   -3.0521    5.1094   17.5736 H   0  0  0  0  0  0  0  0  0  0  0  0
    1.6732    9.9382   15.8112 C   0  0  0  0  0  2  0  0  0  0  0  0
    4.6871    7.0294   12.4257 C   0  0  0  0  0  0  0  0  0  0  0  0
    5.2656    6.7251   11.5673 H   0  0  0  0  0  0  0  0  0  0  0  0
    3.0396    8.4097   13.4598 C   0  0  0  0  0  0  0  0  0  0  0  0
    2.2989    9.1982   13.4135 H   0  0  0  0  0  0  0  0  0  0  0  0
    3.7583    8.0545   12.3312 C   0  0  0  0  0  0  0  0  0  0  0  0
    3.5890    8.5719   11.4011 H   0  0  0  0  0  0  0  0  0  0  0  0
   -0.1852    6.7804   20.1289 H   0  0  0  0  0  0  0  0  0  0  0  0
  1  5  1  0  0  0  0
  1  2  1  0  0  0  0
  1 21  1  0  0  0  0
  3  1  1  0  0  0  0
  5 11  1  0  0  0  0
  7 14  1  0  0  0  0
  7  1  1  0  0  0  0
  8 39  1  0  0  0  0
 10  4  2  0  0  0  0
 11 17  1  0  0  0  0
 11 10  1  1  0  0  0
 12 10  1  0  0  0  0
 12  8  1  0  0  0  0
 13 15  2  0  0  0  0
 13  5  1  0  0  0  0
 14 22  1  6  0  0  0
 14 13  1  0  0  0  0
 15 19  1  0  0  0  0
 16 15  1  0  0  0  0
 17 18  1  0  0  0  0
 19 20  1  0  0  0  0
 19 17  2  0  0  0  0
 21  6  1  0  0  0  0
 22 23  1  0  0  0  0
 24 12  2  0  0  0  0
 25 24  1  0  0  0  0
 26 24  1  0  0  0  0
 26 30  2  0  0  0  0
 27 26  1  0  0  0  0
 28 32  1  0  0  0  0
 29  8  1  0  0  0  0
 29  9  2  0  0  0  0
 30 29  1  0  0  0  0
 31 30  1  0  0  0  0
 32  1  1  0  0  0  0
 33 22  2  0  0  0  0
 34 33  1  0  0  0  0
 35  7  1  0  0  0  0
 36 35  1  0  0  0  0
 37 33  1  0  0  0  0
 37 35  2  0  0  0  0
 38 37  1  0  0  0  0
M  END
$$$$
