CSD_code = BIJLUC | q = 0 | S = 0 | Stoichiometry = C22H45Cl2N4PTi | MND = 8
 OpenBabel04212202013D

 75 75  0  0  1  0  0  0  0  0999 V2000
   11.9801    0.7004    1.0666 Ti  0  0  0  0  0  0  0  0  0  0  0  0
   13.6445   -0.5269    1.8309 Cl  0  0  0  0  0  0  0  0  0  0  0  0
   10.3352   -0.5311    1.8441 Cl  0  0  0  0  0  0  0  0  0  0  0  0
   12.1780    2.9161    3.4537 P   0  0  0  0  0  4  0  0  0  0  0  0
   11.9409    2.0772    2.1672 N   0  0  0  0  0  2  0  0  0  0  0  0
   11.0792    4.1865    3.7278 N   0  0  0  0  0  0  0  0  0  0  0  0
   12.1120    2.0513    4.8964 N   0  0  0  0  0  0  0  0  0  0  0  0
   13.6368    3.7645    3.3469 N   0  0  0  0  0  0  0  0  0  0  0  0
   12.5008   -0.1027   -1.0629 C   0  0  0  0  0  0  0  0  0  0  0  0
   11.1150    0.1667   -1.0271 C   0  0  0  0  0  0  0  0  0  0  0  0
   10.9456    1.5576   -0.7668 C   0  0  2  0  0  0  0  0  0  0  0  0
   12.2376    2.1567   -0.6958 C   0  0  0  0  0  0  0  0  0  0  0  0
   13.1994    1.1203   -0.8490 C   0  0  0  0  0  0  0  0  0  0  0  0
   14.6920    1.2655   -0.9342 C   0  0  0  0  0  0  0  0  0  0  0  0
   15.0409    0.9674   -1.9257 H   0  0  0  0  0  0  0  0  0  0  0  0
   15.1868    0.6292   -0.1970 H   0  0  0  0  0  0  0  0  0  0  0  0
   14.9975    2.2950   -0.7572 H   0  0  0  0  0  0  0  0  0  0  0  0
   12.4958    3.6349   -0.6101 C   0  0  0  0  0  0  0  0  0  0  0  0
   13.5275    3.8620   -0.8714 H   0  0  0  0  0  0  0  0  0  0  0  0
   12.3063    4.0052    0.4009 H   0  0  0  0  0  0  0  0  0  0  0  0
   11.8439    4.1687   -1.3031 H   0  0  0  0  0  0  0  0  0  0  0  0
    9.6317    2.2849   -0.7508 C   0  0  0  0  0  0  0  0  0  0  0  0
    9.2504    2.4054   -1.7685 H   0  0  0  0  0  0  0  0  0  0  0  0
    9.7460    3.2719   -0.3054 H   0  0  0  0  0  0  0  0  0  0  0  0
    8.8884    1.7296   -0.1755 H   0  0  0  0  0  0  0  0  0  0  0  0
   10.0091   -0.7928   -1.3524 C   0  0  0  0  0  0  0  0  0  0  0  0
    9.7884   -0.7567   -2.4228 H   0  0  0  0  0  0  0  0  0  0  0  0
    9.0997   -0.5413   -0.8076 H   0  0  0  0  0  0  0  0  0  0  0  0
   10.2845   -1.8155   -1.0971 H   0  0  0  0  0  0  0  0  0  0  0  0
   13.1484   -1.4165   -1.3868 C   0  0  0  0  0  0  0  0  0  0  0  0
   13.3604   -1.4804   -2.4576 H   0  0  0  0  0  0  0  0  0  0  0  0
   12.4990   -2.2505   -1.1206 H   0  0  0  0  0  0  0  0  0  0  0  0
   14.0888   -1.5289   -0.8469 H   0  0  0  0  0  0  0  0  0  0  0  0
    8.9613    4.8574    4.7831 C   0  0  0  0  0  0  0  0  0  0  0  0
    9.5627    5.2830    5.5830 H   0  0  0  0  0  0  0  0  0  0  0  0
    8.0492    4.4524    5.2135 H   0  0  0  0  0  0  0  0  0  0  0  0
    8.6877    5.6494    4.0906 H   0  0  0  0  0  0  0  0  0  0  0  0
    8.9390    3.2029    2.8765 C   0  0  0  0  0  0  0  0  0  0  0  0
    9.5478    2.4645    2.3470 H   0  0  0  0  0  0  0  0  0  0  0  0
    8.6596    4.0000    2.1909 H   0  0  0  0  0  0  0  0  0  0  0  0
    8.0286    2.7232    3.2278 H   0  0  0  0  0  0  0  0  0  0  0  0
    9.7296    3.7443    4.0703 C   0  0  0  0  0  0  0  0  0  0  0  0
    9.8650    2.9157    4.7721 H   0  0  0  0  0  0  0  0  0  0  0  0
   11.1617    5.3069    2.8111 C   0  0  0  0  0  0  0  0  0  0  0  0
   10.8620    6.2242    3.3229 H   0  0  0  0  0  0  0  0  0  0  0  0
   10.5340    5.1762    1.9251 H   0  0  0  0  0  0  0  0  0  0  0  0
   12.1955    5.4099    2.4866 H   0  0  0  0  0  0  0  0  0  0  0  0
   10.5909    0.1142    5.2004 C   0  0  0  0  0  0  0  0  0  0  0  0
    9.8765    0.5497    4.5046 H   0  0  0  0  0  0  0  0  0  0  0  0
   10.3081    0.3717    6.2196 H   0  0  0  0  0  0  0  0  0  0  0  0
   10.5479   -0.9665    5.0941 H   0  0  0  0  0  0  0  0  0  0  0  0
   13.0330   -0.0646    5.7800 C   0  0  0  0  0  0  0  0  0  0  0  0
   14.0250    0.3434    5.6005 H   0  0  0  0  0  0  0  0  0  0  0  0
   13.0618   -1.1309    5.5730 H   0  0  0  0  0  0  0  0  0  0  0  0
   12.7766    0.0780    6.8278 H   0  0  0  0  0  0  0  0  0  0  0  0
   12.0032    0.5990    4.8660 C   0  0  0  0  0  0  0  0  0  0  0  0
   12.2159    0.3127    3.8258 H   0  0  0  0  0  0  0  0  0  0  0  0
   12.0688    2.6969    6.1916 C   0  0  0  0  0  0  0  0  0  0  0  0
   11.2719    2.2753    6.8086 H   0  0  0  0  0  0  0  0  0  0  0  0
   11.8683    3.7565    6.0558 H   0  0  0  0  0  0  0  0  0  0  0  0
   13.0159    2.5820    6.7275 H   0  0  0  0  0  0  0  0  0  0  0  0
   15.5316    4.1941    1.8317 C   0  0  0  0  0  0  0  0  0  0  0  0
   14.8992    4.9404    1.3565 H   0  0  0  0  0  0  0  0  0  0  0  0
   16.1400    3.7152    1.0690 H   0  0  0  0  0  0  0  0  0  0  0  0
   16.2014    4.6917    2.5296 H   0  0  0  0  0  0  0  0  0  0  0  0
   15.5487    2.1690    3.3326 C   0  0  0  0  0  0  0  0  0  0  0  0
   14.9144    1.4058    3.7796 H   0  0  0  0  0  0  0  0  0  0  0  0
   16.1096    2.6814    4.1119 H   0  0  0  0  0  0  0  0  0  0  0  0
   16.2523    1.6770    2.6661 H   0  0  0  0  0  0  0  0  0  0  0  0
   14.6777    3.1415    2.5390 C   0  0  0  0  0  0  0  0  0  0  0  0
   14.1306    2.5561    1.7810 H   0  0  0  0  0  0  0  0  0  0  0  0
   14.0599    4.6227    4.4339 C   0  0  0  0  0  0  0  0  0  0  0  0
   14.6928    5.4224    4.0448 H   0  0  0  0  0  0  0  0  0  0  0  0
   14.6112    4.0879    5.2127 H   0  0  0  0  0  0  0  0  0  0  0  0
   13.1763    5.0748    4.8774 H   0  0  0  0  0  0  0  0  0  0  0  0
  1  2  1  0  0  0  0
  1  3  1  0  0  0  0
  1  5  1  0  0  0  0
  4  6  1  0  0  0  0
  4  7  1  0  0  0  0
  5  4  1  0  0  0  0
  6 42  1  0  0  0  0
  7 58  1  0  0  0  0
  8  4  1  0  0  0  0
  8 72  1  0  0  0  0
  9 10  2  0  0  0  0
  9 13  1  0  0  0  0
 10 11  1  0  0  0  0
 11 22  1  6  0  0  0
 11 12  1  0  0  0  0
 11  1  1  0  0  0  0
 12 18  1  0  0  0  0
 13 12  2  0  0  0  0
 14 13  1  0  0  0  0
 14 17  1  0  0  0  0
 14 16  1  0  0  0  0
 15 14  1  0  0  0  0
 18 20  1  0  0  0  0
 19 18  1  0  0  0  0
 21 18  1  0  0  0  0
 22 24  1  0  0  0  0
 22 25  1  0  0  0  0
 23 22  1  0  0  0  0
 26 29  1  0  0  0  0
 26 10  1  0  0  0  0
 26 28  1  0  0  0  0
 27 26  1  0  0  0  0
 30 32  1  0  0  0  0
 30  9  1  0  0  0  0
 30 33  1  0  0  0  0
 31 30  1  0  0  0  0
 34 36  1  0  0  0  0
 34 35  1  0  0  0  0
 37 34  1  0  0  0  0
 38 41  1  0  0  0  0
 38 42  1  0  0  0  0
 39 38  1  0  0  0  0
 40 38  1  0  0  0  0
 42 43  1  0  0  0  0
 42 34  1  0  0  0  0
 44 45  1  0  0  0  0
 44  6  1  0  0  0  0
 46 44  1  0  0  0  0
 47 44  1  0  0  0  0
 48 50  1  0  0  0  0
 49 48  1  0  0  0  0
 51 48  1  0  0  0  0
 52 55  1  0  0  0  0
 53 52  1  0  0  0  0
 54 52  1  0  0  0  0
 56  7  1  0  0  0  0
 56 48  1  0  0  0  0
 56 52  1  0  0  0  0
 57 56  1  0  0  0  0
 58 61  1  0  0  0  0
 58 59  1  0  0  0  0
 60 58  1  0  0  0  0
 62 65  1  0  0  0  0
 62 70  1  0  0  0  0
 63 62  1  0  0  0  0
 64 62  1  0  0  0  0
 66 67  1  0  0  0  0
 66 68  1  0  0  0  0
 69 66  1  0  0  0  0
 70 66  1  0  0  0  0
 70  8  1  0  0  0  0
 71 70  1  0  0  0  0
 72 75  1  0  0  0  0
 72 74  1  0  0  0  0
 73 72  1  0  0  0  0
M  END
$$$$
