CSD_code = BIJPER | q = 0 | S = 0 | Stoichiometry = C16H20Cl2N8O2Zn | MND = 4
 OpenBabel04212202013D

 49 50  0  0  0  0  0  0  0  0999 V2000
   -0.0001    3.6591    5.9932 Zn  0  0  0  0  0  0  0  0  0  0  0  0
    1.1783    4.4465    7.6947 Cl  0  0  0  0  0  0  0  0  0  0  0  0
    1.3714    2.3726    4.9946 N   0  0  0  0  0  0  0  0  0  0  0  0
    2.3276   -0.0165    1.0763 N   0  0  0  0  0  0  0  0  0  0  0  0
    2.1172   -0.4920   -0.1511 N   0  0  0  0  0  0  0  0  0  0  0  0
    1.4350   -0.0851   -0.7863 H   0  0  0  0  0  0  0  0  0  0  0  0
    3.7289   -2.0820    0.2271 N   0  0  0  0  0  0  0  0  0  0  0  0
    4.2439   -2.9056   -0.0226 H   0  0  0  0  0  0  0  0  0  0  0  0
    3.7606   -1.7131    1.1612 H   0  0  0  0  0  0  0  0  0  0  0  0
    2.6299   -1.9842   -1.7659 O   0  0  0  0  0  0  0  0  0  0  0  0
    1.0973    2.0147    3.7472 C   0  0  0  0  0  3  0  0  0  0  0  0
    0.1102    2.2824    3.3996 H   0  0  0  0  0  0  0  0  0  0  0  0
    2.0069    1.3447    2.9303 C   0  0  0  0  0  0  0  0  0  0  0  0
    3.2523    1.0312    3.4828 C   0  0  0  0  0  0  0  0  0  0  0  0
    3.9837    0.5197    2.8769 H   0  0  0  0  0  0  0  0  0  0  0  0
    3.5281    1.4012    4.7849 C   0  0  0  0  0  0  0  0  0  0  0  0
    4.4834    1.1814    5.2347 H   0  0  0  0  0  0  0  0  0  0  0  0
    2.5612    2.0804    5.5091 C   0  0  0  0  0  0  0  0  0  0  0  0
    2.7347    2.4150    6.5218 H   0  0  0  0  0  0  0  0  0  0  0  0
    1.6724    0.9758    1.5539 C   0  0  0  0  0  0  0  0  0  0  0  0
    0.6147    1.7484    0.8175 C   0  0  0  0  0  0  0  0  0  0  0  0
    0.9142    1.9047   -0.2190 H   0  0  0  0  0  0  0  0  0  0  0  0
    0.4546    2.7203    1.2725 H   0  0  0  0  0  0  0  0  0  0  0  0
   -0.3299    1.2031    0.8201 H   0  0  0  0  0  0  0  0  0  0  0  0
    2.8317   -1.5787   -0.6459 C   0  0  0  0  0  0  0  0  0  0  0  0
   -1.1785    4.4463    4.2917 Cl  0  0  0  0  0  0  0  0  0  0  0  0
   -1.3714    2.3725    6.9919 N   0  0  0  0  0  0  0  0  0  0  0  0
   -2.3274   -0.0167   10.9101 N   0  0  0  0  0  0  0  0  0  0  0  0
   -2.1171   -0.4921   12.1376 N   0  0  0  0  0  0  0  0  0  0  0  0
   -1.4355   -0.0845   12.7731 H   0  0  0  0  0  0  0  0  0  0  0  0
   -3.7287   -2.0821   11.7595 N   0  0  0  0  0  0  0  0  0  0  0  0
   -4.2447   -2.9052   12.0097 H   0  0  0  0  0  0  0  0  0  0  0  0
   -3.7602   -1.7134   10.8253 H   0  0  0  0  0  0  0  0  0  0  0  0
   -2.6301   -1.9837   13.7529 O   0  0  0  0  0  0  0  0  0  0  0  0
   -1.0973    2.0148    8.2393 C   0  0  0  0  0  3  0  0  0  0  0  0
   -0.1100    2.2818    8.5866 H   0  0  0  0  0  0  0  0  0  0  0  0
   -2.0069    1.3447    9.0562 C   0  0  0  0  0  0  0  0  0  0  0  0
   -3.2523    1.0311    8.5037 C   0  0  0  0  0  0  0  0  0  0  0  0
   -3.9837    0.5197    9.1097 H   0  0  0  0  0  0  0  0  0  0  0  0
   -3.5282    1.4011    7.2016 C   0  0  0  0  0  0  0  0  0  0  0  0
   -4.4836    1.1819    6.7521 H   0  0  0  0  0  0  0  0  0  0  0  0
   -2.5613    2.0803    6.4774 C   0  0  0  0  0  0  0  0  0  0  0  0
   -2.7350    2.4155    5.4650 H   0  0  0  0  0  0  0  0  0  0  0  0
   -1.6724    0.9757   10.4326 C   0  0  0  0  0  0  0  0  0  0  0  0
   -0.6146    1.7482   11.1690 C   0  0  0  0  0  0  0  0  0  0  0  0
   -0.9143    1.9049   12.2055 H   0  0  0  0  0  0  0  0  0  0  0  0
   -0.4543    2.7201   10.7138 H   0  0  0  0  0  0  0  0  0  0  0  0
    0.3301    1.2028   11.1666 H   0  0  0  0  0  0  0  0  0  0  0  0
   -2.8307   -1.5794   12.6321 C   0  0  0  0  0  0  0  0  0  0  0  0
  1 27  1  0  0  0  0
  1  2  1  0  0  0  0
  3 18  1  0  0  0  0
  3  1  1  0  0  0  0
  4 20  2  0  0  0  0
  5  4  1  0  0  0  0
  6  5  1  0  0  0  0
  7  9  1  0  0  0  0
  8  7  1  0  0  0  0
 10 25  2  0  0  0  0
 11  3  1  0  0  0  0
 12 11  1  0  0  0  0
 13 14  2  0  0  0  0
 13 11  1  0  0  0  0
 14 16  1  0  0  0  0
 15 14  1  0  0  0  0
 16 17  1  0  0  0  0
 16 18  2  0  0  0  0
 18 19  1  0  0  0  0
 20 13  1  0  0  0  0
 21 24  1  0  0  0  0
 21 23  1  0  0  0  0
 21 20  1  0  0  0  0
 22 21  1  0  0  0  0
 25  5  1  0  0  0  0
 25  7  1  0  0  0  0
 26  1  1  0  0  0  0
 27 35  1  0  0  0  0
 28 29  1  0  0  0  0
 29 49  1  0  0  0  0
 29 30  1  0  0  0  0
 31 32  1  0  0  0  0
 31 49  1  0  0  0  0
 33 31  1  0  0  0  0
 35 36  1  0  0  0  0
 35 37  1  0  0  0  0
 37 44  1  0  0  0  0
 38 37  2  0  0  0  0
 38 39  1  0  0  0  0
 40 38  1  0  0  0  0
 41 40  1  0  0  0  0
 42 27  1  0  0  0  0
 42 40  2  0  0  0  0
 43 42  1  0  0  0  0
 44 28  2  0  0  0  0
 44 45  1  0  0  0  0
 45 46  1  0  0  0  0
 47 45  1  0  0  0  0
 48 45  1  0  0  0  0
 49 34  2  0  0  0  0
M  END
$$$$
