CSD_code = BIJWIA | q = 0 | S = 0 | Stoichiometry = C36H30Br2O2P2Zn | MND = 4
 OpenBabel04212202013D

 73 78  0  0  0  0  0  0  0  0999 V2000
   -0.1285   -0.1490    0.1690 Zn  0  0  0  0  0  0  0  0  0  0  0  0
    1.8056   -0.2961    1.4571 Br  0  0  0  0  0  0  0  0  0  0  0  0
   -2.0731   -1.1962   -0.5072 Br  0  0  0  0  0  0  0  0  0  0  0  0
    1.8337    1.2870   -2.0419 P   0  0  0  0  0  4  0  0  0  0  0  0
   -1.6239    2.8971    0.9461 P   0  0  0  0  0  4  0  0  0  0  0  0
    0.6662    0.4836   -1.5824 O   0  0  0  0  0  0  0  0  0  0  0  0
   -0.8127    1.6719    0.7163 O   0  0  0  0  0  0  0  0  0  0  0  0
    3.3827    0.3566   -1.9229 C   0  0  0  0  0  0  0  0  0  0  0  0
    1.5921    1.7300   -3.7833 C   0  0  0  0  0  0  0  0  0  0  0  0
    2.0357    2.8478   -1.1262 C   0  0  0  0  0  0  0  0  0  0  0  0
   -0.6410    4.1337    1.8387 C   0  0  0  0  0  0  0  0  0  0  0  0
   -3.0957    2.5409    1.9491 C   0  0  0  0  0  0  0  0  0  0  0  0
   -2.2495    3.5917   -0.6072 C   0  0  0  0  0  0  0  0  0  0  0  0
    4.6211    0.9841   -1.8753 C   0  0  0  0  0  0  0  0  0  0  0  0
    5.7708    0.2201   -1.8006 C   0  0  0  0  0  0  0  0  0  0  0  0
    5.6874   -1.1631   -1.7764 C   0  0  0  0  0  0  0  0  0  0  0  0
    4.4532   -1.7889   -1.8345 C   0  0  0  0  0  0  0  0  0  0  0  0
    3.3007   -1.0296   -1.9131 C   0  0  0  0  0  0  0  0  0  0  0  0
    0.4570    1.2685   -4.4349 C   0  0  0  0  0  0  0  0  0  0  0  0
    0.2490    1.5867   -5.7657 C   0  0  0  0  0  0  0  0  0  0  0  0
    1.1770    2.3603   -6.4430 C   0  0  0  0  0  0  0  0  0  0  0  0
    2.3148    2.8156   -5.7930 C   0  0  0  0  0  0  0  0  0  0  0  0
    2.5256    2.5016   -4.4636 C   0  0  0  0  0  0  0  0  0  0  0  0
    1.4094    3.9974   -1.5918 C   0  0  0  0  0  0  0  0  0  0  0  0
    1.5270    5.1809   -0.8862 C   0  0  0  0  0  0  0  0  0  0  0  0
    2.2801    5.2215    0.2757 C   0  0  0  0  0  0  0  0  0  0  0  0
    2.8957    4.0730    0.7453 C   0  0  0  0  0  0  0  0  0  0  0  0
    2.7735    2.8828    0.0502 C   0  0  0  0  0  0  0  0  0  0  0  0
   -0.8322    5.5017    1.7034 C   0  0  0  0  0  0  0  0  0  0  0  0
   -0.0843    6.3761    2.4715 C   0  0  0  0  0  0  0  0  0  0  0  0
    0.8498    5.8887    3.3723 C   0  0  0  0  0  0  0  0  0  0  0  0
    1.0492    4.5236    3.4984 C   0  0  0  0  0  0  0  0  0  0  0  0
    0.3052    3.6455    2.7317 C   0  0  0  0  0  0  0  0  0  0  0  0
   -3.3716    3.1959    3.1411 C   0  0  0  0  0  0  0  0  0  0  0  0
   -4.5008    2.8506    3.8634 C   0  0  0  0  0  0  0  0  0  0  0  0
   -5.3479    1.8575    3.3979 C   0  0  0  0  0  0  0  0  0  0  0  0
   -5.0732    1.2070    2.2050 C   0  0  0  0  0  0  0  0  0  0  0  0
   -3.9495    1.5502    1.4765 C   0  0  0  0  0  0  0  0  0  0  0  0
   -1.7440    3.1177   -1.8087 C   0  0  0  0  0  0  0  0  0  0  0  0
   -2.2135    3.6258   -3.0068 C   0  0  0  0  0  0  0  0  0  0  0  0
   -3.1936    4.6043   -3.0024 C   0  0  0  0  0  0  0  0  0  0  0  0
   -3.7169    5.0631   -1.8027 C   0  0  0  0  0  0  0  0  0  0  0  0
   -3.2513    4.5557   -0.6041 C   0  0  0  0  0  0  0  0  0  0  0  0
    4.6811    2.0634   -1.8783 H   0  0  0  0  0  0  0  0  0  0  0  0
    6.7348    0.7047   -1.7530 H   0  0  0  0  0  0  0  0  0  0  0  0
    6.5881   -1.7545   -1.7082 H   0  0  0  0  0  0  0  0  0  0  0  0
    4.3888   -2.8662   -1.8129 H   0  0  0  0  0  0  0  0  0  0  0  0
    2.3299   -1.5045   -1.9541 H   0  0  0  0  0  0  0  0  0  0  0  0
   -0.2536    0.6612   -3.8923 H   0  0  0  0  0  0  0  0  0  0  0  0
   -0.6337    1.2276   -6.2739 H   0  0  0  0  0  0  0  0  0  0  0  0
    1.0173    2.6077   -7.4820 H   0  0  0  0  0  0  0  0  0  0  0  0
    3.0369    3.4167   -6.3256 H   0  0  0  0  0  0  0  0  0  0  0  0
    3.4074    2.8545   -3.9481 H   0  0  0  0  0  0  0  0  0  0  0  0
    0.8413    3.9662   -2.5119 H   0  0  0  0  0  0  0  0  0  0  0  0
    1.0369    6.0729   -1.2488 H   0  0  0  0  0  0  0  0  0  0  0  0
    2.3837    6.1496    0.8177 H   0  0  0  0  0  0  0  0  0  0  0  0
    3.4767    4.1017    1.6544 H   0  0  0  0  0  0  0  0  0  0  0  0
    3.2470    1.9849    0.4211 H   0  0  0  0  0  0  0  0  0  0  0  0
   -1.5584    5.8792    0.9983 H   0  0  0  0  0  0  0  0  0  0  0  0
   -0.2319    7.4414    2.3684 H   0  0  0  0  0  0  0  0  0  0  0  0
    1.4263    6.5764    3.9737 H   0  0  0  0  0  0  0  0  0  0  0  0
    1.7797    4.1415    4.1953 H   0  0  0  0  0  0  0  0  0  0  0  0
    0.4566    2.5791    2.8162 H   0  0  0  0  0  0  0  0  0  0  0  0
   -2.7028    3.9650    3.5028 H   0  0  0  0  0  0  0  0  0  0  0  0
   -4.7174    3.3556    4.7934 H   0  0  0  0  0  0  0  0  0  0  0  0
   -6.2238    1.5882    3.9693 H   0  0  0  0  0  0  0  0  0  0  0  0
   -5.7281    0.4296    1.8426 H   0  0  0  0  0  0  0  0  0  0  0  0
   -3.7260    1.0448    0.5471 H   0  0  0  0  0  0  0  0  0  0  0  0
   -0.9920    2.3432   -1.7952 H   0  0  0  0  0  0  0  0  0  0  0  0
   -1.8175    3.2548   -3.9414 H   0  0  0  0  0  0  0  0  0  0  0  0
   -3.5628    5.0020   -3.9361 H   0  0  0  0  0  0  0  0  0  0  0  0
   -4.4960    5.8114   -1.8044 H   0  0  0  0  0  0  0  0  0  0  0  0
   -3.6731    4.8877    0.3349 H   0  0  0  0  0  0  0  0  0  0  0  0
  1  7  1  0  0  0  0
  1  2  1  0  0  0  0
  3  1  1  0  0  0  0
  4  8  1  0  0  0  0
  4  6  1  0  0  0  0
  4 10  1  0  0  0  0
  5 11  1  0  0  0  0
  5 12  1  0  0  0  0
  6  1  1  0  0  0  0
  7  5  1  0  0  0  0
  8 18  2  0  0  0  0
  8 14  1  0  0  0  0
  9  4  1  0  0  0  0
 10 28  1  0  0  0  0
 11 33  1  0  0  0  0
 12 34  1  0  0  0  0
 13 43  1  0  0  0  0
 13  5  1  0  0  0  0
 14 15  2  0  0  0  0
 15 16  1  0  0  0  0
 15 45  1  0  0  0  0
 16 46  1  0  0  0  0
 17 47  1  0  0  0  0
 17 16  2  0  0  0  0
 18 17  1  0  0  0  0
 19 49  1  0  0  0  0
 19  9  1  0  0  0  0
 20 19  2  0  0  0  0
 21 22  2  0  0  0  0
 21 20  1  0  0  0  0
 22 23  1  0  0  0  0
 23 53  1  0  0  0  0
 23  9  2  0  0  0  0
 24 10  2  0  0  0  0
 24 25  1  0  0  0  0
 25 26  2  0  0  0  0
 26 27  1  0  0  0  0
 26 56  1  0  0  0  0
 27 57  1  0  0  0  0
 28 58  1  0  0  0  0
 28 27  2  0  0  0  0
 29 11  2  0  0  0  0
 29 30  1  0  0  0  0
 30 31  2  0  0  0  0
 31 32  1  0  0  0  0
 31 61  1  0  0  0  0
 32 62  1  0  0  0  0
 33 63  1  0  0  0  0
 33 32  2  0  0  0  0
 34 64  1  0  0  0  0
 34 35  2  0  0  0  0
 35 65  1  0  0  0  0
 36 35  1  0  0  0  0
 36 66  1  0  0  0  0
 37 36  2  0  0  0  0
 38 12  2  0  0  0  0
 38 37  1  0  0  0  0
 39 69  1  0  0  0  0
 39 13  2  0  0  0  0
 40 41  2  0  0  0  0
 40 39  1  0  0  0  0
 41 42  1  0  0  0  0
 42 43  2  0  0  0  0
 43 73  1  0  0  0  0
 44 14  1  0  0  0  0
 48 18  1  0  0  0  0
 50 20  1  0  0  0  0
 51 21  1  0  0  0  0
 52 22  1  0  0  0  0
 54 24  1  0  0  0  0
 55 25  1  0  0  0  0
 59 29  1  0  0  0  0
 60 30  1  0  0  0  0
 67 37  1  0  0  0  0
 68 38  1  0  0  0  0
 70 40  1  0  0  0  0
 71 41  1  0  0  0  0
 72 42  1  0  0  0  0
M  END
$$$$
