CSD_code = BIKDUW | q = 0 | S = 0 | Stoichiometry = C25H35ClIrN3 | MND = 4
 OpenBabel04212202013D

 65 67  0  0  0  0  0  0  0  0999 V2000
    6.8948   10.6821    3.6899 C   0  0  0  0  0  3  0  0  0  0  0  0
    7.5889   11.3103    4.2482 H   0  0  0  0  0  0  0  0  0  0  0  0
    5.7273   11.3753    3.0601 C   0  0  0  0  0  0  0  0  0  0  0  0
    6.0912   12.0553    2.2817 H   0  0  0  0  0  0  0  0  0  0  0  0
    5.2497   12.0083    3.8265 H   0  0  0  0  0  0  0  0  0  0  0  0
    8.1593    8.8112    4.2401 C   0  0  0  0  0  0  0  0  0  0  0  0
    8.1808    8.7262    5.6350 C   0  0  0  0  0  0  0  0  0  0  0  0
    9.2691    8.1153    6.2408 C   0  0  0  0  0  0  0  0  0  0  0  0
    9.2871    8.0386    7.3188 H   0  0  0  0  0  0  0  0  0  0  0  0
   10.3232    7.5962    5.5050 C   0  0  0  0  0  0  0  0  0  0  0  0
   10.2609    7.6605    4.1181 C   0  0  0  0  0  0  0  0  0  0  0  0
   11.0592    7.2313    3.5290 H   0  0  0  0  0  0  0  0  0  0  0  0
    9.1881    8.2490    3.4749 C   0  0  0  0  0  0  0  0  0  0  0  0
    7.0199    9.2151    6.4477 C   0  0  0  0  0  0  0  0  0  0  0  0
    7.0938    8.8478    7.4679 H   0  0  0  0  0  0  0  0  0  0  0  0
    6.0866    8.8563    6.0123 H   0  0  0  0  0  0  0  0  0  0  0  0
    6.9836   10.3044    6.4804 H   0  0  0  0  0  0  0  0  0  0  0  0
   11.5056    6.9708    6.1806 C   0  0  0  0  0  0  0  0  0  0  0  0
   12.3507    7.6604    6.1714 H   0  0  0  0  0  0  0  0  0  0  0  0
   11.8099    6.0636    5.6623 H   0  0  0  0  0  0  0  0  0  0  0  0
   11.2776    6.7253    7.2147 H   0  0  0  0  0  0  0  0  0  0  0  0
    9.0885    8.2721    1.9763 C   0  0  0  0  0  0  0  0  0  0  0  0
    9.2071    9.2846    1.5862 H   0  0  0  0  0  0  0  0  0  0  0  0
    8.0971    7.8850    1.6612 H   0  0  0  0  0  0  0  0  0  0  0  0
    9.8480    7.6366    1.5274 H   0  0  0  0  0  0  0  0  0  0  0  0
    4.0241   10.8094    1.3681 C   0  0  0  0  0  0  0  0  0  0  0  0
    4.6403   10.9700    0.1222 C   0  0  0  0  0  0  0  0  0  0  0  0
    3.8656   11.3166   -0.9756 C   0  0  0  0  0  0  0  0  0  0  0  0
    4.3470   11.4444   -1.9355 H   0  0  0  0  0  0  0  0  0  0  0  0
    2.4944   11.4817   -0.8761 C   0  0  0  0  0  0  0  0  0  0  0  0
    1.8922   11.2604    0.3560 C   0  0  0  0  0  0  0  0  0  0  0  0
    0.8185   11.3554    0.4408 H   0  0  0  0  0  0  0  0  0  0  0  0
    2.6315   10.9254    1.4768 C   0  0  0  0  0  0  0  0  0  0  0  0
    6.0991   10.6787   -0.0557 C   0  0  0  0  0  0  0  0  0  0  0  0
    6.3113   10.4380   -1.0947 H   0  0  0  0  0  0  0  0  0  0  0  0
    6.3686    9.8138    0.5683 H   0  0  0  0  0  0  0  0  0  0  0  0
    6.7317   11.5186    0.2311 H   0  0  0  0  0  0  0  0  0  0  0  0
    1.6640   11.8426   -2.0711 C   0  0  0  0  0  0  0  0  0  0  0  0
    1.0950   10.9760   -2.4084 H   0  0  0  0  0  0  0  0  0  0  0  0
    2.2903   12.1814   -2.8926 H   0  0  0  0  0  0  0  0  0  0  0  0
    0.9548   12.6303   -1.8228 H   0  0  0  0  0  0  0  0  0  0  0  0
    1.9492   10.6665    2.7886 C   0  0  0  0  0  0  0  0  0  0  0  0
    0.8758   10.8061    2.6902 H   0  0  0  0  0  0  0  0  0  0  0  0
    2.3100   11.3457    3.5615 H   0  0  0  0  0  0  0  0  0  0  0  0
    2.1312    9.6441    3.1222 H   0  0  0  0  0  0  0  0  0  0  0  0
    5.1458    7.2345    1.1260 C   0  0  0  0  0  2  0  0  0  0  0  0
    3.3402    6.4006   -0.4935 C   0  0  0  0  0  0  0  0  0  0  0  0
    3.8474    5.5190   -1.6391 C   0  0  0  0  0  0  0  0  0  0  0  0
    4.5789    6.0592   -2.2358 H   0  0  0  0  0  0  0  0  0  0  0  0
    3.0187    5.2280   -2.2792 H   0  0  0  0  0  0  0  0  0  0  0  0
    4.3176    4.6216   -1.2441 H   0  0  0  0  0  0  0  0  0  0  0  0
    2.3243    5.6409    0.3665 C   0  0  0  0  0  0  0  0  0  0  0  0
    2.7663    4.7257    0.7527 H   0  0  0  0  0  0  0  0  0  0  0  0
    1.4482    5.3889   -0.2254 H   0  0  0  0  0  0  0  0  0  0  0  0
    2.0211    6.2556    1.2102 H   0  0  0  0  0  0  0  0  0  0  0  0
    2.7235    7.6957   -1.0366 C   0  0  0  0  0  0  0  0  0  0  0  0
    2.4041    8.3323   -0.2152 H   0  0  0  0  0  0  0  0  0  0  0  0
    1.8662    7.4649   -1.6636 H   0  0  0  0  0  0  0  0  0  0  0  0
    3.4533    8.2473   -1.6243 H   0  0  0  0  0  0  0  0  0  0  0  0
    4.5427    7.6699    4.1100 Cl  0  0  0  0  0  0  0  0  0  0  0  0
    6.1166    8.2395    2.3833 Ir  0  0  1  0  0  0  0  0  0  0  0  0
    7.0798    9.4220    3.5705 N   0  0  0  0  0  0  0  0  0  0  0  0
    4.7909   10.4286    2.4850 N   0  0  0  0  0  4  0  0  0  0  0  0
    4.2107   10.0196    3.2123 H   0  0  0  0  0  0  0  0  0  0  0  0
    4.4336    6.7439    0.3254 N   0  0  0  0  0  2  0  0  0  0  0  0
  1  2  1  0  0  0  0
  3  1  1  0  0  0  0
  3  5  1  0  0  0  0
  4  3  1  0  0  0  0
  6  7  1  0  0  0  0
  7  8  2  0  0  0  0
  7 14  1  0  0  0  0
  8  9  1  0  0  0  0
 10 18  1  0  0  0  0
 10  8  1  0  0  0  0
 11 10  2  0  0  0  0
 12 11  1  0  0  0  0
 13 11  1  0  0  0  0
 13  6  2  0  0  0  0
 14 17  1  0  0  0  0
 14 15  1  0  0  0  0
 16 14  1  0  0  0  0
 18 21  1  0  0  0  0
 19 18  1  0  0  0  0
 20 18  1  0  0  0  0
 22 13  1  0  0  0  0
 23 22  1  0  0  0  0
 24 22  1  0  0  0  0
 25 22  1  0  0  0  0
 26 33  1  0  0  0  0
 26 63  1  0  0  0  0
 27 26  2  0  0  0  0
 28 30  2  0  0  0  0
 28 27  1  0  0  0  0
 29 28  1  0  0  0  0
 30 31  1  0  0  0  0
 31 32  1  0  0  0  0
 31 33  2  0  0  0  0
 33 42  1  0  0  0  0
 34 27  1  0  0  0  0
 34 37  1  0  0  0  0
 34 36  1  0  0  0  0
 35 34  1  0  0  0  0
 38 41  1  0  0  0  0
 38 30  1  0  0  0  0
 39 38  1  0  0  0  0
 40 38  1  0  0  0  0
 42 45  1  0  0  0  0
 42 44  1  0  0  0  0
 43 42  1  0  0  0  0
 46 61  1  0  0  0  0
 47 65  1  0  0  0  0
 47 52  1  0  0  0  0
 48 51  1  0  0  0  0
 48 47  1  0  0  0  0
 49 48  1  0  0  0  0
 50 48  1  0  0  0  0
 52 53  1  0  0  0  0
 52 55  1  0  0  0  0
 54 52  1  0  0  0  0
 56 47  1  0  0  0  0
 56 57  1  0  0  0  0
 58 56  1  0  0  0  0
 59 56  1  0  0  0  0
 61 63  1  0  0  0  0
 61 62  1  0  0  0  0
 61 60  1  1  0  0  0
 62  1  1  0  0  0  0
 62  6  1  0  0  0  0
 63  3  1  0  0  0  0
 63 64  1  0  0  0  0
 65 46  1  0  0  0  0
M  END
$$$$
