CSD_code = BIKFAE | q = 0 | S = 0 | Stoichiometry = C25H35ClIrN3 | MND = 4
 OpenBabel04212202013D

 65 67  0  0  0  0  0  0  0  0999 V2000
    5.7861    8.7509   19.4442 C   0  0  0  0  0  3  0  0  0  0  0  0
    6.1837    8.1148   18.6536 H   0  0  0  0  0  0  0  0  0  0  0  0
    4.8584    8.0973   20.4218 C   0  0  0  0  0  0  0  0  0  0  0  0
    5.4122    7.3462   20.9955 H   0  0  0  0  0  0  0  0  0  0  0  0
    4.0910    7.5485   19.8512 H   0  0  0  0  0  0  0  0  0  0  0  0
    6.9300   10.5660   18.5475 C   0  0  0  0  0  0  0  0  0  0  0  0
    6.4683   10.7348   17.2395 C   0  0  0  0  0  0  0  0  0  0  0  0
    7.3214   11.3105   16.3088 C   0  0  0  0  0  0  0  0  0  0  0  0
    6.9668   11.4507   15.2975 H   0  0  0  0  0  0  0  0  0  0  0  0
    8.6046   11.7149   16.6414 C   0  0  0  0  0  0  0  0  0  0  0  0
    9.0268   11.5714   17.9582 C   0  0  0  0  0  0  0  0  0  0  0  0
   10.0130   11.9126   18.2402 H   0  0  0  0  0  0  0  0  0  0  0  0
    8.2037   11.0143   18.9184 C   0  0  0  0  0  0  0  0  0  0  0  0
    5.0603   10.3724   16.8739 C   0  0  0  0  0  0  0  0  0  0  0  0
    4.3718   10.7637   17.6238 H   0  0  0  0  0  0  0  0  0  0  0  0
    4.9251    9.2919   16.8182 H   0  0  0  0  0  0  0  0  0  0  0  0
    4.8018   10.7964   15.9071 H   0  0  0  0  0  0  0  0  0  0  0  0
    9.5164   12.3290   15.6230 C   0  0  0  0  0  0  0  0  0  0  0  0
    9.7098   13.3724   15.8712 H   0  0  0  0  0  0  0  0  0  0  0  0
    9.0757   12.2873   14.6303 H   0  0  0  0  0  0  0  0  0  0  0  0
   10.4733   11.8089   15.6037 H   0  0  0  0  0  0  0  0  0  0  0  0
    8.6339   10.9065   20.3534 C   0  0  0  0  0  0  0  0  0  0  0  0
    8.7962    9.8666   20.6425 H   0  0  0  0  0  0  0  0  0  0  0  0
    7.8518   11.3400   21.0117 H   0  0  0  0  0  0  0  0  0  0  0  0
    9.5531   11.4614   20.5254 H   0  0  0  0  0  0  0  0  0  0  0  0
    3.9269    8.7006   22.6370 C   0  0  0  0  0  0  0  0  0  0  0  0
    2.5890    8.7427   23.0524 C   0  0  0  0  0  0  0  0  0  0  0  0
    2.2776    8.4372   24.3670 C   0  0  0  0  0  0  0  0  0  0  0  0
    1.2442    8.4676   24.6833 H   0  0  0  0  0  0  0  0  0  0  0  0
    3.2577    8.0932   25.2876 C   0  0  0  0  0  0  0  0  0  0  0  0
    4.5803    8.1021   24.8715 C   0  0  0  0  0  0  0  0  0  0  0  0
    5.3604    7.8774   25.5863 H   0  0  0  0  0  0  0  0  0  0  0  0
    4.9340    8.4133   23.5671 C   0  0  0  0  0  0  0  0  0  0  0  0
    1.5086    9.1456   22.0915 C   0  0  0  0  0  0  0  0  0  0  0  0
    0.5382    9.1149   22.5799 H   0  0  0  0  0  0  0  0  0  0  0  0
    1.4768    8.4776   21.2305 H   0  0  0  0  0  0  0  0  0  0  0  0
    1.6761   10.1611   21.7303 H   0  0  0  0  0  0  0  0  0  0  0  0
    2.9041    7.7806   26.7107 C   0  0  0  0  0  0  0  0  0  0  0  0
    3.5727    7.0259   27.1192 H   0  0  0  0  0  0  0  0  0  0  0  0
    1.8802    7.4225   26.7859 H   0  0  0  0  0  0  0  0  0  0  0  0
    2.9948    8.6775   27.3251 H   0  0  0  0  0  0  0  0  0  0  0  0
    6.3810    8.5428   23.2006 C   0  0  0  0  0  0  0  0  0  0  0  0
    6.5028    9.4065   22.5310 H   0  0  0  0  0  0  0  0  0  0  0  0
    6.7667    7.6580   22.6944 H   0  0  0  0  0  0  0  0  0  0  0  0
    6.9813    8.7076   24.0924 H   0  0  0  0  0  0  0  0  0  0  0  0
    5.3404   12.0566   22.6321 C   0  0  0  0  0  2  0  0  0  0  0  0
    4.3109   12.6412   24.9099 C   0  0  0  0  0  0  0  0  0  0  0  0
    4.9641   11.7485   25.9712 C   0  0  0  0  0  0  0  0  0  0  0  0
    6.0155   12.0023   26.0857 H   0  0  0  0  0  0  0  0  0  0  0  0
    4.8858   10.7047   25.6749 H   0  0  0  0  0  0  0  0  0  0  0  0
    4.4644   11.8841   26.9269 H   0  0  0  0  0  0  0  0  0  0  0  0
    4.4377   14.1204   25.2885 C   0  0  0  0  0  0  0  0  0  0  0  0
    3.9944   14.7424   24.5150 H   0  0  0  0  0  0  0  0  0  0  0  0
    5.4846   14.3956   25.3952 H   0  0  0  0  0  0  0  0  0  0  0  0
    3.9270   14.3101   26.2289 H   0  0  0  0  0  0  0  0  0  0  0  0
    2.8410   12.2518   24.7176 C   0  0  0  0  0  0  0  0  0  0  0  0
    2.7669   11.1970   24.4636 H   0  0  0  0  0  0  0  0  0  0  0  0
    2.4039   12.8316   23.9086 H   0  0  0  0  0  0  0  0  0  0  0  0
    2.2833   12.4390   25.6316 H   0  0  0  0  0  0  0  0  0  0  0  0
    3.7134   11.9444   20.0045 Cl  0  0  0  0  0  0  0  0  0  0  0  0
    5.7293   11.1415   21.0355 Ir  0  0  1  0  0  0  0  0  0  0  0  0
    6.1079    9.9864   19.5345 N   0  0  0  0  0  0  0  0  0  0  0  0
    4.2644    9.0656   21.3227 N   0  0  0  0  0  4  0  0  0  0  0  0
    3.5022    9.5569   20.8650 H   0  0  0  0  0  0  0  0  0  0  0  0
    4.9810   12.4329   23.6890 N   0  0  0  0  0  2  0  0  0  0  0  0
  1 62  1  0  0  0  0
  1  3  1  0  0  0  0
  2  1  1  0  0  0  0
  3  4  1  0  0  0  0
  3 63  1  0  0  0  0
  5  3  1  0  0  0  0
  6 13  1  0  0  0  0
  6 62  1  0  0  0  0
  7  6  2  0  0  0  0
  8 10  2  0  0  0  0
  8  7  1  0  0  0  0
  9  8  1  0  0  0  0
 10 11  1  0  0  0  0
 11 12  1  0  0  0  0
 11 13  2  0  0  0  0
 13 22  1  0  0  0  0
 14  7  1  0  0  0  0
 14 15  1  0  0  0  0
 16 14  1  0  0  0  0
 17 14  1  0  0  0  0
 18 19  1  0  0  0  0
 18 10  1  0  0  0  0
 20 18  1  0  0  0  0
 21 18  1  0  0  0  0
 22 25  1  0  0  0  0
 22 23  1  0  0  0  0
 22 24  1  0  0  0  0
 26 27  2  0  0  0  0
 26 33  1  0  0  0  0
 27 28  1  0  0  0  0
 28 29  1  0  0  0  0
 28 30  2  0  0  0  0
 30 38  1  0  0  0  0
 31 30  1  0  0  0  0
 31 32  1  0  0  0  0
 33 31  2  0  0  0  0
 34 35  1  0  0  0  0
 34 27  1  0  0  0  0
 36 34  1  0  0  0  0
 37 34  1  0  0  0  0
 38 40  1  0  0  0  0
 38 39  1  0  0  0  0
 38 41  1  0  0  0  0
 42 33  1  0  0  0  0
 42 45  1  0  0  0  0
 43 42  1  0  0  0  0
 44 42  1  0  0  0  0
 46 65  1  0  0  0  0
 47 52  1  0  0  0  0
 47 48  1  0  0  0  0
 48 49  1  0  0  0  0
 48 51  1  0  0  0  0
 50 48  1  0  0  0  0
 52 54  1  0  0  0  0
 52 55  1  0  0  0  0
 53 52  1  0  0  0  0
 56 47  1  0  0  0  0
 56 59  1  0  0  0  0
 57 56  1  0  0  0  0
 58 56  1  0  0  0  0
 61 60  1  6  0  0  0
 61 63  1  0  0  0  0
 61 46  1  0  0  0  0
 62 61  1  0  0  0  0
 63 26  1  0  0  0  0
 64 63  1  0  0  0  0
 65 47  1  0  0  0  0
M  END
$$$$
