CSD_code = BIKMAM | q = 1 | S = 0 | Stoichiometry = C44H46ClN4P2Ru(1+) | MND = 6
 OpenBabel04212202013D

 98106  0  0  1  0  0  0  0  0999 V2000
    3.7890    9.8816    0.7115 C   0  0  0  0  0  0  0  0  0  0  0  0
    4.1941   10.9687    1.4773 C   0  0  0  0  0  0  0  0  0  0  0  0
    4.4843   10.8217    2.5085 H   0  0  0  0  0  0  0  0  0  0  0  0
    4.2385   12.2390    0.9297 C   0  0  0  0  0  0  0  0  0  0  0  0
    4.5560   13.0732    1.5374 H   0  0  0  0  0  0  0  0  0  0  0  0
    3.8826   12.4359   -0.3935 C   0  0  0  0  0  0  0  0  0  0  0  0
    3.9163   13.4255   -0.8224 H   0  0  0  0  0  0  0  0  0  0  0  0
    3.4893   11.3560   -1.1684 C   0  0  0  0  0  0  0  0  0  0  0  0
    3.2200   11.5030   -2.2034 H   0  0  0  0  0  0  0  0  0  0  0  0
    3.4453   10.0867   -0.6226 C   0  0  0  0  0  0  0  0  0  0  0  0
    3.1373    9.2505   -1.2343 H   0  0  0  0  0  0  0  0  0  0  0  0
    2.3008    7.4874    0.5977 C   0  0  0  0  0  0  0  0  0  0  0  0
    1.1533    8.2590    0.4344 C   0  0  0  0  0  0  0  0  0  0  0  0
    1.1658    9.3097    0.6940 H   0  0  0  0  0  0  0  0  0  0  0  0
    0.0009    7.6968   -0.0845 C   0  0  0  0  0  0  0  0  0  0  0  0
   -0.8778    8.3097   -0.2257 H   0  0  0  0  0  0  0  0  0  0  0  0
   -0.0237    6.3547   -0.4288 C   0  0  0  0  0  0  0  0  0  0  0  0
   -0.9209    5.9183   -0.8424 H   0  0  0  0  0  0  0  0  0  0  0  0
    1.1065    5.5751   -0.2447 C   0  0  0  0  0  0  0  0  0  0  0  0
    1.0884    4.5272   -0.5037 H   0  0  0  0  0  0  0  0  0  0  0  0
    2.2618    6.1344    0.2708 C   0  0  0  0  0  0  0  0  0  0  0  0
    3.1337    5.5172    0.4328 H   0  0  0  0  0  0  0  0  0  0  0  0
    5.1079    7.4707    0.2620 C   0  0  0  0  0  0  0  0  0  0  0  0
    5.3140    6.4588    0.6177 H   0  0  0  0  0  0  0  0  0  0  0  0
    4.6697    7.3927   -0.7384 H   0  0  0  0  0  0  0  0  0  0  0  0
    6.4008    8.2847    0.1851 C   0  0  0  0  0  0  0  0  0  0  0  0
    7.1613    7.6696   -0.3023 H   0  0  0  0  0  0  0  0  0  0  0  0
    6.2375    9.1649   -0.4422 H   0  0  0  0  0  0  0  0  0  0  0  0
    6.9220    8.7665    1.5370 C   0  0  0  0  0  0  0  0  0  0  0  0
    6.2040    9.4910    1.9370 H   0  0  0  0  0  0  0  0  0  0  0  0
    7.8579    9.3041    1.3742 H   0  0  0  0  0  0  0  0  0  0  0  0
    7.1359    7.6507    2.5680 C   0  0  0  0  0  0  0  0  0  0  0  0
    8.1639    7.6383    2.9395 H   0  0  0  0  0  0  0  0  0  0  0  0
    6.9240    6.6703    2.1394 H   0  0  0  0  0  0  0  0  0  0  0  0
    6.6335    9.5071    4.6281 C   0  0  0  0  0  0  0  0  0  0  0  0
    5.7823   10.5793    4.8563 C   0  0  0  0  0  0  0  0  0  0  0  0
    4.7239   10.4684    4.6735 H   0  0  0  0  0  0  0  0  0  0  0  0
    6.2749   11.7853    5.3254 C   0  0  0  0  0  0  0  0  0  0  0  0
    5.6000   12.6114    5.4961 H   0  0  0  0  0  0  0  0  0  0  0  0
    7.6277   11.9279    5.5769 C   0  0  0  0  0  0  0  0  0  0  0  0
    8.0152   12.8669    5.9412 H   0  0  0  0  0  0  0  0  0  0  0  0
    8.4835   10.8566    5.3697 C   0  0  0  0  0  0  0  0  0  0  0  0
    9.5378   10.9603    5.5779 H   0  0  0  0  0  0  0  0  0  0  0  0
    7.9916    9.6537    4.9022 C   0  0  0  0  0  0  0  0  0  0  0  0
    8.6626    8.8177    4.7646 H   0  0  0  0  0  0  0  0  0  0  0  0
    6.7161    6.8180    5.2904 C   0  0  0  0  0  0  0  0  0  0  0  0
    7.2420    5.5662    4.9886 C   0  0  0  0  0  0  0  0  0  0  0  0
    7.2595    5.2184    3.9670 H   0  0  0  0  0  0  0  0  0  0  0  0
    7.7254    4.7567    6.0018 C   0  0  0  0  0  0  0  0  0  0  0  0
    8.1385    3.7887    5.7607 H   0  0  0  0  0  0  0  0  0  0  0  0
    7.6826    5.1833    7.3183 C   0  0  0  0  0  0  0  0  0  0  0  0
    8.0665    4.5509    8.1046 H   0  0  0  0  0  0  0  0  0  0  0  0
    7.1484    6.4245    7.6259 C   0  0  0  0  0  0  0  0  0  0  0  0
    7.1121    6.7614    8.6514 H   0  0  0  0  0  0  0  0  0  0  0  0
    6.6651    7.2373    6.6187 C   0  0  0  0  0  0  0  0  0  0  0  0
    6.2499    8.2087    6.8583 H   0  0  0  0  0  0  0  0  0  0  0  0
    1.5915    5.2352    3.2954 C   0  0  0  0  0  0  0  0  0  0  0  0
    2.3863    4.5161    3.3325 H   0  0  0  0  0  0  0  0  0  0  0  0
    0.2555    5.0251    3.1308 C   0  0  0  0  0  0  0  0  0  0  0  0
   -0.3040    4.1204    3.0186 H   0  0  0  0  0  0  0  0  0  0  0  0
    0.6449    7.1571    3.2852 C   0  0  0  0  0  3  0  0  0  0  0  0
    0.4631    8.2144    3.3227 H   0  0  0  0  0  0  0  0  0  0  0  0
   -1.7303    6.5211    2.9298 C   0  0  0  0  0  0  0  0  0  0  0  0
   -2.3306    5.8019    3.4869 H   0  0  0  0  0  0  0  0  0  0  0  0
   -1.9806    6.4429    1.8692 H   0  0  0  0  0  0  0  0  0  0  0  0
   -1.9641    7.5271    3.2744 H   0  0  0  0  0  0  0  0  0  0  0  0
    4.0312    5.4994    5.9077 C   0  0  0  0  0  3  0  0  0  0  0  0
    4.3284    4.8084    5.1284 H   0  0  0  0  0  0  0  0  0  0  0  0
    4.0639    5.0998    7.2364 C   0  0  0  0  0  0  0  0  0  0  0  0
    3.7071    6.0448    8.1973 C   0  0  0  0  0  0  0  0  0  0  0  0
    3.7363    5.7905    9.2456 H   0  0  0  0  0  0  0  0  0  0  0  0
    3.3130    7.3049    7.7967 C   0  0  0  0  0  0  0  0  0  0  0  0
    3.0301    8.0426    8.5296 H   0  0  0  0  0  0  0  0  0  0  0  0
    3.2911    7.6194    6.4383 C   0  0  0  0  0  0  0  0  0  0  0  0
    2.8071    8.8715    5.8779 C   0  0  2  0  0  3  0  0  0  0  0  0
    2.2430    9.9052    6.6249 C   0  0  0  0  0  0  0  0  0  0  0  0
    2.2233    9.8419    7.7001 H   0  0  0  0  0  0  0  0  0  0  0  0
    1.7112   11.0065    5.9877 C   0  0  0  0  0  0  0  0  0  0  0  0
    1.2892   11.8206    6.5553 H   0  0  0  0  0  0  0  0  0  0  0  0
    1.7039   11.0427    4.5898 C   0  0  0  0  0  0  0  0  0  0  0  0
    2.2912    9.9831    3.9224 C   0  0  0  0  0  0  0  0  0  0  0  0
    2.3126    9.9692    2.8396 H   0  0  0  0  0  0  0  0  0  0  0  0
    4.4624    3.7133    7.6112 C   0  0  0  0  0  0  0  0  0  0  0  0
    4.9544    3.2138    6.7816 H   0  0  0  0  0  0  0  0  0  0  0  0
    3.5815    3.1348    7.8903 H   0  0  0  0  0  0  0  0  0  0  0  0
    5.1332    3.7285    8.4670 H   0  0  0  0  0  0  0  0  0  0  0  0
    1.0945   12.1830    3.8441 C   0  0  0  0  0  0  0  0  0  0  0  0
    1.2697   12.0917    2.7752 H   0  0  0  0  0  0  0  0  0  0  0  0
    1.5153   13.1255    4.1892 H   0  0  0  0  0  0  0  0  0  0  0  0
    0.0206   12.2206    4.0236 H   0  0  0  0  0  0  0  0  0  0  0  0
    3.6742    6.7150    5.5140 N   0  0  0  0  0  0  0  0  0  0  0  0
    2.8752    8.9430    4.5253 N   0  0  0  0  0  0  0  0  0  0  0  0
    1.8224    6.5736    3.3859 N   0  0  0  0  0  0  0  0  0  0  0  0
   -0.3342    6.2527    3.1296 N   0  0  0  0  0  0  0  0  0  0  0  0
    3.8018    8.1723    1.3785 P   0  0  0  0  0  4  0  0  0  0  0  0
    6.0111    7.9020    4.0066 P   0  0  0  0  0  4  0  0  0  0  0  0
    4.7167    5.4081    2.7946 Cl  0  0  0  0  0  0  0  0  0  0  0  0
    3.7565    7.4228    3.6309 Ru  0  0  0  0  0  0  0  0  0  0  0  0
  1 95  1  0  0  0  0
  1  2  1  0  0  0  0
  2  3  1  0  0  0  0
  4  2  2  0  0  0  0
  4  5  1  0  0  0  0
  6  4  1  0  0  0  0
  7  6  1  0  0  0  0
  8 10  1  0  0  0  0
  8  6  2  0  0  0  0
  9  8  1  0  0  0  0
 10  1  2  0  0  0  0
 11 10  1  0  0  0  0
 12 95  1  0  0  0  0
 13 12  1  0  0  0  0
 13 14  1  0  0  0  0
 15 13  2  0  0  0  0
 16 15  1  0  0  0  0
 17 19  2  0  0  0  0
 17 15  1  0  0  0  0
 18 17  1  0  0  0  0
 19 21  1  0  0  0  0
 20 19  1  0  0  0  0
 21 22  1  0  0  0  0
 21 12  2  0  0  0  0
 23 24  1  0  0  0  0
 23 95  1  0  0  0  0
 25 23  1  0  0  0  0
 26 23  1  0  0  0  0
 26 29  1  0  0  0  0
 27 26  1  0  0  0  0
 28 26  1  0  0  0  0
 29 30  1  0  0  0  0
 29 32  1  0  0  0  0
 31 29  1  0  0  0  0
 32 33  1  0  0  0  0
 32 96  1  0  0  0  0
 34 32  1  0  0  0  0
 35 36  2  0  0  0  0
 35 44  1  0  0  0  0
 36 38  1  0  0  0  0
 37 36  1  0  0  0  0
 38 39  1  0  0  0  0
 38 40  2  0  0  0  0
 40 41  1  0  0  0  0
 42 40  1  0  0  0  0
 42 43  1  0  0  0  0
 44 42  2  0  0  0  0
 45 44  1  0  0  0  0
 46 55  1  0  0  0  0
 47 46  2  0  0  0  0
 47 49  1  0  0  0  0
 48 47  1  0  0  0  0
 49 51  2  0  0  0  0
 50 49  1  0  0  0  0
 51 53  1  0  0  0  0
 51 52  1  0  0  0  0
 53 54  1  0  0  0  0
 55 56  1  0  0  0  0
 55 53  2  0  0  0  0
 57 58  1  0  0  0  0
 57 93  1  0  0  0  0
 59 57  2  0  0  0  0
 60 59  1  0  0  0  0
 61 62  1  0  0  0  0
 61 93  1  0  0  0  0
 63 94  1  0  0  0  0
 63 66  1  0  0  0  0
 63 64  1  0  0  0  0
 65 63  1  0  0  0  0
 67 69  1  0  0  0  0
 68 67  1  0  0  0  0
 69 83  1  0  0  0  0
 69 70  2  0  0  0  0
 70 71  1  0  0  0  0
 72 70  1  0  0  0  0
 72 73  1  0  0  0  0
 74 72  2  0  0  0  0
 75 74  1  6  0  0  0
 75 76  1  0  0  0  0
 76 77  1  0  0  0  0
 78 79  1  0  0  0  0
 78 76  2  0  0  0  0
 80 78  1  0  0  0  0
 81 92  1  0  0  0  0
 81 80  2  0  0  0  0
 82 81  1  0  0  0  0
 83 85  1  0  0  0  0
 83 86  1  0  0  0  0
 84 83  1  0  0  0  0
 87 90  1  0  0  0  0
 87 89  1  0  0  0  0
 87 80  1  0  0  0  0
 88 87  1  0  0  0  0
 91 67  1  0  0  0  0
 91 74  1  0  0  0  0
 92 75  1  0  0  0  0
 93 98  1  0  0  0  0
 94 59  1  0  0  0  0
 94 61  1  0  0  0  0
 95 98  1  0  0  0  0
 96 35  1  0  0  0  0
 96 46  1  0  0  0  0
 97 98  1  0  0  0  0
 98 96  1  0  0  0  0
 98 92  1  0  0  0  0
 98 91  1  0  0  0  0
M  END
$$$$
