CSD_code = BIKRIX | q = 0 | S = 0 | Stoichiometry = C19H29ClO2Pd | MND = 6
 OpenBabel04212202013D

 52 53  0  0  1  0  0  0  0  0999 V2000
   10.8183    2.8078    7.0336 Pd  0  0  0  0  0  0  0  0  0  0  0  0
    9.5695    1.8151    8.6124 Cl  0  0  0  0  0 15  0  0  0  0  0  0
    6.1163    1.7273    3.9108 O   0  0  0  0  0  0  0  0  0  0  0  0
    4.6757    2.9622    5.1105 O   0  0  0  0  0  0  0  0  0  0  0  0
    9.1543    3.7173    6.1582 C   0  0  2  0  0  0  0  0  0  0  0  0
    9.4921    3.8893    5.1237 H   0  0  0  0  0  0  0  0  0  0  0  0
    8.7938    5.0573    6.8359 C   0  0  1  0  0  0  0  0  0  0  0  0
    9.0682    5.9014    6.1907 H   0  0  0  0  0  0  0  0  0  0  0  0
    7.2634    4.9513    6.9689 C   0  0  2  0  0  0  0  0  0  0  0  0
    6.8379    5.6843    7.6518 H   0  0  0  0  0  0  0  0  0  0  0  0
    7.0647    3.4841    7.3379 C   0  0  0  0  0  0  0  0  0  0  0  0
    6.0170    3.1907    7.3329 H   0  0  0  0  0  0  0  0  0  0  0  0
    7.5195    3.1938    8.2787 H   0  0  0  0  0  0  0  0  0  0  0  0
    7.8240    2.9583    6.1212 C   0  0  1  0  0  0  0  0  0  0  0  0
    7.9182    1.8758    6.0195 H   0  0  0  0  0  0  0  0  0  0  0  0
    7.0044    3.6133    4.9738 C   0  0  2  0  0  0  0  0  0  0  0  0
    7.5860    3.6659    4.0512 H   0  0  0  0  0  0  0  0  0  0  0  0
    6.6478    4.9901    5.5632 C   0  0  0  0  0  0  0  0  0  0  0  0
    7.0366    5.8103    4.9600 H   0  0  0  0  0  0  0  0  0  0  0  0
    5.5635    5.0881    5.6269 H   0  0  0  0  0  0  0  0  0  0  0  0
    5.7866    2.7630    4.6927 C   0  0  0  0  0  0  0  0  0  0  0  0
    5.0939    0.7684    3.6368 C   0  0  0  0  0  0  0  0  0  0  0  0
    5.3957    0.2881    2.7036 H   0  0  0  0  0  0  0  0  0  0  0  0
    4.1440    1.2948    3.4960 H   0  0  0  0  0  0  0  0  0  0  0  0
   12.0637    2.9200    5.2493 C   0  0  0  0  0  3  0  0  0  0  0  0
   11.3662    2.9137    4.4120 H   0  0  0  0  0  0  0  0  0  0  0  0
   12.1869    4.0822    5.9722 C   0  0  2  0  0  0  0  0  0  0  0  0
   11.6089    4.9463    5.6436 H   0  0  0  0  0  0  0  0  0  0  0  0
   13.3343    4.4589    6.8798 C   0  0  0  0  0  0  0  0  0  0  0  0
   12.9751    5.2321    7.5683 H   0  0  0  0  0  0  0  0  0  0  0  0
   14.1223    4.9205    6.2729 H   0  0  0  0  0  0  0  0  0  0  0  0
   13.9427    3.3115    7.7118 C   0  0  0  0  0  0  0  0  0  0  0  0
   14.6840    2.7652    7.1283 H   0  0  0  0  0  0  0  0  0  0  0  0
   14.4698    3.7570    8.5589 H   0  0  0  0  0  0  0  0  0  0  0  0
   12.9134    2.3467    8.2437 C   0  0  0  0  0  0  0  0  0  0  0  0
   12.6010    2.5106    9.2756 H   0  0  0  0  0  0  0  0  0  0  0  0
   12.5026    1.2171    7.6307 C   0  0  0  0  0  0  0  0  0  0  0  0
   11.9227    0.5021    8.2149 H   0  0  0  0  0  0  0  0  0  0  0  0
   12.8739    0.7202    6.2550 C   0  0  0  0  0  0  0  0  0  0  0  0
   12.0541    0.0765    5.9101 H   0  0  0  0  0  0  0  0  0  0  0  0
   13.7689    0.0925    6.3275 H   0  0  0  0  0  0  0  0  0  0  0  0
   13.1005    1.8191    5.1976 C   0  0  0  0  0  0  0  0  0  0  0  0
   14.0964    2.2519    5.2962 H   0  0  0  0  0  0  0  0  0  0  0  0
   13.0556    1.3467    4.2131 H   0  0  0  0  0  0  0  0  0  0  0  0
    9.4718    5.2695    8.1969 C   0  0  0  0  0  0  0  0  0  0  0  0
    9.2104    6.2494    8.5944 H   0  0  0  0  0  0  0  0  0  0  0  0
   10.5662    5.2186    8.0992 H   0  0  0  0  0  0  0  0  0  0  0  0
    9.1497    4.5110    8.9092 H   0  0  0  0  0  0  0  0  0  0  0  0
    4.9723   -0.2460    4.7648 C   0  0  0  0  0  0  0  0  0  0  0  0
    5.9288   -0.7336    4.9372 H   0  0  0  0  0  0  0  0  0  0  0  0
    4.2314   -0.9963    4.5040 H   0  0  0  0  0  0  0  0  0  0  0  0
    4.6625    0.2530    5.6797 H   0  0  0  0  0  0  0  0  0  0  0  0
  3 21  1  0  0  0  0
  5  6  1  6  0  0  0
  5  7  1  0  0  0  0
  5  1  1  0  0  0  0
  7  8  1  6  0  0  0
  7  9  1  0  0  0  0
  7 45  1  0  0  0  0
  9 11  1  0  0  0  0
  9 10  1  1  0  0  0
 11 13  1  0  0  0  0
 12 11  1  0  0  0  0
 14 15  1  6  0  0  0
 14  5  1  0  0  0  0
 14 11  1  0  0  0  0
 16 17  1  6  0  0  0
 16 18  1  0  0  0  0
 16 14  1  0  0  0  0
 18 20  1  0  0  0  0
 18  9  1  0  0  0  0
 19 18  1  0  0  0  0
 21 16  1  0  0  0  0
 21  4  2  0  0  0  0
 22  3  1  0  0  0  0
 22 49  1  0  0  0  0
 23 22  1  0  0  0  0
 24 22  1  0  0  0  0
 25 27  1  0  0  0  0
 26 25  1  0  0  0  0
 27 28  1  6  0  0  0
 27 29  1  0  0  0  0
 27  1  1  0  0  0  0
 29 30  1  0  0  0  0
 29 32  1  0  0  0  0
 31 29  1  0  0  0  0
 32 35  1  0  0  0  0
 32 34  1  0  0  0  0
 33 32  1  0  0  0  0
 35 36  1  0  0  0  0
 37 38  1  0  0  0  0
 37 35  2  0  0  0  0
 39 41  1  0  0  0  0
 39 37  1  0  0  0  0
 40 39  1  0  0  0  0
 42 25  1  0  0  0  0
 42 43  1  0  0  0  0
 42 39  1  0  0  0  0
 44 42  1  0  0  0  0
 45 46  1  0  0  0  0
 45 48  1  0  0  0  0
 47 45  1  0  0  0  0
 49 50  1  0  0  0  0
 49 52  1  0  0  0  0
 51 49  1  0  0  0  0
M  END
$$$$
