CSD_code = BIKSIZ | q = 0 | S = 0 | Stoichiometry = C49H40ClN3OsP2S2 | MND = 6
 OpenBabel04212202013D

 98105  0  0  1  0  0  0  0  0999 V2000
   20.5875   16.1408   38.8489 Os  0  0  0  0  0  0  0  0  0  0  0  0
   21.7324   16.9761   40.7406 P   0  0  0  0  0  4  0  0  0  0  0  0
   22.0309   18.6402   35.3491 P   0  0  0  0  0  4  0  0  0  0  0  0
   18.7280   17.4316   39.3777 Cl  0  0  0  0  0  0  0  0  0  0  0  0
   20.5959   12.6590   41.9684 S   0  0  0  0  0  0  0  0  0  0  0  0
   20.0355   14.5990   40.0856 N   0  0  0  0  0  0  0  0  0  0  0  0
   20.3998   19.4196   35.5430 C   0  0  0  0  0  0  0  0  0  0  0  0
   23.2382   15.9944   41.0204 C   0  0  0  0  0  0  0  0  0  0  0  0
   22.1141   15.0056   38.2643 N   0  0  0  0  0  0  0  0  0  0  0  0
   22.3005   14.1858   38.8436 H   0  0  0  0  0  0  0  0  0  0  0  0
   24.7003   16.8223   34.8977 C   0  0  0  0  0  0  0  0  0  0  0  0
   24.9644   17.4821   35.7144 H   0  0  0  0  0  0  0  0  0  0  0  0
   22.3343   18.6992   40.6429 C   0  0  0  0  0  0  0  0  0  0  0  0
   22.7844   14.9942   37.1318 C   0  0  0  0  0  0  0  0  0  0  0  0
   21.3358   17.5406   37.6693 C   0  0  0  0  0  3  0  0  0  0  0  0
   21.0542   18.5949   37.7912 H   0  0  0  0  0  0  0  0  0  0  0  0
   20.9492   17.0208   42.3818 C   0  0  0  0  0  0  0  0  0  0  0  0
   24.4554   14.2402   42.1203 C   0  0  0  0  0  0  0  0  0  0  0  0
   24.5299   13.5161   42.9176 H   0  0  0  0  0  0  0  0  0  0  0  0
   23.2622   19.9015   35.7638 C   0  0  0  0  0  0  0  0  0  0  0  0
   23.3454   15.0649   42.0480 C   0  0  0  0  0  0  0  0  0  0  0  0
   22.5582   14.9774   42.7825 H   0  0  0  0  0  0  0  0  0  0  0  0
   22.7497   16.0712   36.2295 C   0  0  0  0  0  0  0  0  0  0  0  0
   20.2807   13.7700   40.8811 C   0  0  0  0  0  0  0  0  0  0  0  0
   22.0642   17.2748   36.5305 C   0  0  1  0  0  3  0  0  0  0  0  0
   24.2408   16.0670   40.0520 C   0  0  0  0  0  0  0  0  0  0  0  0
   24.1329   16.7682   39.2320 H   0  0  0  0  0  0  0  0  0  0  0  0
   23.5718   16.0133   35.0071 C   0  0  0  0  0  0  0  0  0  0  0  0
   25.3488   15.2464   40.1320 C   0  0  0  0  0  0  0  0  0  0  0  0
   26.1241   15.3103   39.3817 H   0  0  0  0  0  0  0  0  0  0  0  0
   23.2557   15.1442   33.9660 C   0  0  0  0  0  0  0  0  0  0  0  0
   22.3708   14.5308   34.0415 H   0  0  0  0  0  0  0  0  0  0  0  0
   22.1217   18.1844   33.5974 C   0  0  0  0  0  0  0  0  0  0  0  0
   23.9143   19.8151   36.9899 C   0  0  0  0  0  0  0  0  0  0  0  0
   23.6946   18.9920   37.6567 H   0  0  0  0  0  0  0  0  0  0  0  0
   23.6643   13.8108   36.8302 C   0  0  0  0  0  0  0  0  0  0  0  0
   23.9056   13.2761   37.7476 H   0  0  0  0  0  0  0  0  0  0  0  0
   24.5864   14.1142   36.3399 H   0  0  0  0  0  0  0  0  0  0  0  0
   23.1381   13.1254   36.1667 H   0  0  0  0  0  0  0  0  0  0  0  0
   23.6341   19.0988   40.9297 C   0  0  0  0  0  0  0  0  0  0  0  0
   24.3742   18.3717   41.2345 H   0  0  0  0  0  0  0  0  0  0  0  0
   25.4571   14.3311   41.1688 C   0  0  0  0  0  0  0  0  0  0  0  0
   26.3189   13.6828   41.2271 H   0  0  0  0  0  0  0  0  0  0  0  0
   21.3861   19.6511   40.2712 C   0  0  0  0  0  0  0  0  0  0  0  0
   20.3704   19.3307   40.0729 H   0  0  0  0  0  0  0  0  0  0  0  0
   23.5217   20.9726   34.9112 C   0  0  0  0  0  0  0  0  0  0  0  0
   23.0042   21.0515   33.9650 H   0  0  0  0  0  0  0  0  0  0  0  0
   25.5044   16.7534   33.7737 C   0  0  0  0  0  0  0  0  0  0  0  0
   26.3877   17.3725   33.7059 H   0  0  0  0  0  0  0  0  0  0  0  0
   24.8323   20.7833   37.3533 C   0  0  0  0  0  0  0  0  0  0  0  0
   25.3350   20.7115   38.3054 H   0  0  0  0  0  0  0  0  0  0  0  0
   21.7060   17.4647   43.4658 C   0  0  0  0  0  0  0  0  0  0  0  0
   22.7296   17.7813   43.3136 H   0  0  0  0  0  0  0  0  0  0  0  0
   21.7445   20.9815   40.1613 C   0  0  0  0  0  0  0  0  0  0  0  0
   21.0080   21.7143   39.8657 H   0  0  0  0  0  0  0  0  0  0  0  0
   19.6317   16.6267   42.5711 C   0  0  0  0  0  0  0  0  0  0  0  0
   19.0386   16.3043   41.7289 H   0  0  0  0  0  0  0  0  0  0  0  0
   19.2840   18.6055   35.7367 C   0  0  0  0  0  0  0  0  0  0  0  0
   19.3940   17.5337   35.8143 H   0  0  0  0  0  0  0  0  0  0  0  0
   21.0689   17.4157   33.1063 C   0  0  0  0  0  0  0  0  0  0  0  0
   20.2722   17.1004   33.7638 H   0  0  0  0  0  0  0  0  0  0  0  0
   19.0817   16.6559   43.8416 C   0  0  0  0  0  0  0  0  0  0  0  0
   18.0592   16.3418   43.9875 H   0  0  0  0  0  0  0  0  0  0  0  0
   21.1496   17.4916   44.7292 C   0  0  0  0  0  0  0  0  0  0  0  0
   21.7389   17.8299   45.5693 H   0  0  0  0  0  0  0  0  0  0  0  0
   25.1802   15.8902   32.7415 C   0  0  0  0  0  0  0  0  0  0  0  0
   25.8077   15.8365   31.8643 H   0  0  0  0  0  0  0  0  0  0  0  0
   20.2494   20.8013   35.4989 C   0  0  0  0  0  0  0  0  0  0  0  0
   21.1097   21.4426   35.3707 H   0  0  0  0  0  0  0  0  0  0  0  0
   23.9830   20.4348   40.8274 C   0  0  0  0  0  0  0  0  0  0  0  0
   24.9924   20.7426   41.0628 H   0  0  0  0  0  0  0  0  0  0  0  0
   23.1634   18.5603   32.7572 C   0  0  0  0  0  0  0  0  0  0  0  0
   23.9968   19.1310   33.1392 H   0  0  0  0  0  0  0  0  0  0  0  0
   22.0906   17.4160   30.9382 C   0  0  0  0  0  0  0  0  0  0  0  0
   22.0817   17.1179   29.9007 H   0  0  0  0  0  0  0  0  0  0  0  0
   19.8380   17.0820   44.9192 C   0  0  0  0  0  0  0  0  0  0  0  0
   19.4081   17.0988   45.9100 H   0  0  0  0  0  0  0  0  0  0  0  0
   24.0507   15.0927   32.8375 C   0  0  0  0  0  0  0  0  0  0  0  0
   23.7921   14.4244   32.0298 H   0  0  0  0  0  0  0  0  0  0  0  0
   23.0452   21.3750   40.4347 C   0  0  0  0  0  0  0  0  0  0  0  0
   23.3262   22.4147   40.3498 H   0  0  0  0  0  0  0  0  0  0  0  0
   23.1377   18.1788   31.4280 C   0  0  0  0  0  0  0  0  0  0  0  0
   23.9451   18.4735   30.7743 H   0  0  0  0  0  0  0  0  0  0  0  0
   21.0606   17.0286   31.7803 C   0  0  0  0  0  0  0  0  0  0  0  0
   20.2501   16.4204   31.4098 H   0  0  0  0  0  0  0  0  0  0  0  0
   19.4243   14.5736   34.6652 S   0  0  0  0  0  0  0  0  0  0  0  0
   19.5686   15.3775   37.3020 N   0  0  0  0  0  0  0  0  0  0  0  0
   19.5214   15.0060   36.1878 C   0  0  0  0  0  0  0  0  0  0  0  0
   17.8862   20.5513   35.8438 C   0  0  0  0  0  0  0  0  0  0  0  0
   16.9102   20.9938   35.9727 H   0  0  0  0  0  0  0  0  0  0  0  0
   25.0994   21.8409   36.4992 C   0  0  0  0  0  0  0  0  0  0  0  0
   25.8179   22.5952   36.7822 H   0  0  0  0  0  0  0  0  0  0  0  0
   18.0346   19.1742   35.8894 C   0  0  0  0  0  0  0  0  0  0  0  0
   17.1812   18.5376   36.0614 H   0  0  0  0  0  0  0  0  0  0  0  0
   18.9923   21.3610   35.6485 C   0  0  0  0  0  0  0  0  0  0  0  0
   18.8813   22.4350   35.6228 H   0  0  0  0  0  0  0  0  0  0  0  0
   24.4426   21.9360   35.2823 C   0  0  0  0  0  0  0  0  0  0  0  0
   24.6464   22.7647   34.6206 H   0  0  0  0  0  0  0  0  0  0  0  0
  1  4  1  0  0  0  0
  1  6  1  0  0  0  0
  1  2  1  0  0  0  0
  2  8  1  0  0  0  0
  2 17  1  0  0  0  0
  3  7  1  0  0  0  0
  3 20  1  0  0  0  0
  6 24  2  0  0  0  0
  7 58  1  0  0  0  0
  8 21  1  0  0  0  0
  9 10  1  0  0  0  0
  9  1  1  0  0  0  0
 11 28  1  0  0  0  0
 11 12  1  0  0  0  0
 13  2  1  0  0  0  0
 13 40  1  0  0  0  0
 14  9  1  0  0  0  0
 15 16  1  0  0  0  0
 15  1  1  0  0  0  0
 17 56  2  0  0  0  0
 17 52  1  0  0  0  0
 18 19  1  0  0  0  0
 20 34  1  0  0  0  0
 21 18  2  0  0  0  0
 21 22  1  0  0  0  0
 23 25  1  0  0  0  0
 23 14  2  0  0  0  0
 24  5  2  0  0  0  0
 25  3  1  6  0  0  0
 25 15  1  0  0  0  0
 26 29  1  0  0  0  0
 26  8  2  0  0  0  0
 27 26  1  0  0  0  0
 28 23  1  0  0  0  0
 29 42  2  0  0  0  0
 30 29  1  0  0  0  0
 31 32  1  0  0  0  0
 31 28  2  0  0  0  0
 33  3  1  0  0  0  0
 34 50  2  0  0  0  0
 34 35  1  0  0  0  0
 36 14  1  0  0  0  0
 36 37  1  0  0  0  0
 38 36  1  0  0  0  0
 39 36  1  0  0  0  0
 40 41  1  0  0  0  0
 42 43  1  0  0  0  0
 42 18  1  0  0  0  0
 44 13  2  0  0  0  0
 45 44  1  0  0  0  0
 46 97  1  0  0  0  0
 46 20  2  0  0  0  0
 47 46  1  0  0  0  0
 48 11  2  0  0  0  0
 49 48  1  0  0  0  0
 50 51  1  0  0  0  0
 52 64  2  0  0  0  0
 53 52  1  0  0  0  0
 54 44  1  0  0  0  0
 54 80  2  0  0  0  0
 55 54  1  0  0  0  0
 56 62  1  0  0  0  0
 57 56  1  0  0  0  0
 58 59  1  0  0  0  0
 58 93  2  0  0  0  0
 60 33  1  0  0  0  0
 60 61  1  0  0  0  0
 62 63  1  0  0  0  0
 62 76  2  0  0  0  0
 64 76  1  0  0  0  0
 64 65  1  0  0  0  0
 66 78  2  0  0  0  0
 66 48  1  0  0  0  0
 67 66  1  0  0  0  0
 68  7  2  0  0  0  0
 68 95  1  0  0  0  0
 69 68  1  0  0  0  0
 70 40  2  0  0  0  0
 70 71  1  0  0  0  0
 72 73  1  0  0  0  0
 72 33  2  0  0  0  0
 74 82  2  0  0  0  0
 74 84  1  0  0  0  0
 75 74  1  0  0  0  0
 76 77  1  0  0  0  0
 78 31  1  0  0  0  0
 79 78  1  0  0  0  0
 80 70  1  0  0  0  0
 81 80  1  0  0  0  0
 82 72  1  0  0  0  0
 83 82  1  0  0  0  0
 84 60  2  0  0  0  0
 85 84  1  0  0  0  0
 86 88  2  0  0  0  0
 87  1  1  0  0  0  0
 88 87  2  0  0  0  0
 89 93  1  0  0  0  0
 89 90  1  0  0  0  0
 91 92  1  0  0  0  0
 91 50  1  0  0  0  0
 93 94  1  0  0  0  0
 95 89  2  0  0  0  0
 96 95  1  0  0  0  0
 97 91  2  0  0  0  0
 98 97  1  0  0  0  0
M  END
$$$$
