CSD_code = BILNAM | q = 0 | S = 0 | Stoichiometry = C25H25Cl2N2OPPd | MND = 4
 OpenBabel04212202013D

 57 61  0  0  0  0  0  0  0  0999 V2000
    7.5392   -3.5432   20.5963 Pd  0  0  0  0  0  0  0  0  0  0  0  0
    9.2065   -3.6797   19.1059 P   0  0  0  0  0  4  0  0  0  0  0  0
    5.8923   -2.8372   22.0156 Cl  0  0  0  0  0  0  0  0  0  0  0  0
    6.0728   -3.7826   18.8583 Cl  0  0  0  0  0  0  0  0  0  0  0  0
    9.9776   -2.6366   22.0677 N   0  0  0  0  0  0  0  0  0  0  0  0
    8.8101   -4.0297   23.2181 N   0  0  0  0  0  0  0  0  0  0  0  0
    5.9760   -7.4780   19.5202 O   0  0  0  0  0  0  0  0  0  0  0  0
    8.8411   -3.3569   22.0594 C   0  0  0  0  0  0  0  0  0  0  0  0
   10.6540   -2.8521   23.2417 C   0  0  0  0  0  0  0  0  0  0  0  0
   11.5818   -2.3681   23.4682 H   0  0  0  0  0  0  0  0  0  0  0  0
    9.9142   -3.7275   23.9642 C   0  0  0  0  0  0  0  0  0  0  0  0
   10.0857   -4.1446   24.9354 H   0  0  0  0  0  0  0  0  0  0  0  0
   10.4987   -1.9860   20.8913 C   0  0  0  0  0  0  0  0  0  0  0  0
   11.4034   -1.4385   21.1698 H   0  0  0  0  0  0  0  0  0  0  0  0
    9.7570   -1.2712   20.5091 H   0  0  0  0  0  0  0  0  0  0  0  0
   10.8085   -3.0428   19.8192 C   0  0  0  0  0  0  0  0  0  0  0  0
   11.3580   -3.8683   20.2801 H   0  0  0  0  0  0  0  0  0  0  0  0
   11.4160   -2.6049   19.0229 H   0  0  0  0  0  0  0  0  0  0  0  0
    8.8868   -2.3442   17.9086 C   0  0  0  0  0  0  0  0  0  0  0  0
    9.4327   -2.3479   16.6303 C   0  0  0  0  0  0  0  0  0  0  0  0
   10.0409   -3.1825   16.3083 H   0  0  0  0  0  0  0  0  0  0  0  0
    9.1765   -1.2951   15.7697 C   0  0  0  0  0  0  0  0  0  0  0  0
    9.5904   -1.3051   14.7720 H   0  0  0  0  0  0  0  0  0  0  0  0
    8.3844   -0.2361   16.1815 C   0  0  0  0  0  0  0  0  0  0  0  0
    8.1811    0.5798   15.5039 H   0  0  0  0  0  0  0  0  0  0  0  0
    7.8393   -0.2280   17.4559 C   0  0  0  0  0  0  0  0  0  0  0  0
    7.2109    0.5919   17.7707 H   0  0  0  0  0  0  0  0  0  0  0  0
    8.0856   -1.2793   18.3193 C   0  0  0  0  0  0  0  0  0  0  0  0
    7.6170   -1.2950   19.3116 H   0  0  0  0  0  0  0  0  0  0  0  0
    9.6554   -5.1097   18.0918 C   0  0  0  0  0  0  0  0  0  0  0  0
   10.9507   -5.5875   17.9263 C   0  0  0  0  0  0  0  0  0  0  0  0
   11.7879   -5.0866   18.3899 H   0  0  0  0  0  0  0  0  0  0  0  0
   11.1729   -6.7129   17.1517 C   0  0  0  0  0  0  0  0  0  0  0  0
   12.1805   -7.0808   17.0213 H   0  0  0  0  0  0  0  0  0  0  0  0
   10.1129   -7.3654   16.5446 C   0  0  0  0  0  0  0  0  0  0  0  0
   10.2962   -8.2437   15.9431 H   0  0  0  0  0  0  0  0  0  0  0  0
    8.8204   -6.8929   16.7108 C   0  0  0  0  0  0  0  0  0  0  0  0
    7.9913   -7.4019   16.2434 H   0  0  0  0  0  0  0  0  0  0  0  0
    8.5890   -5.7725   17.4851 C   0  0  0  0  0  0  0  0  0  0  0  0
    7.5839   -5.3984   17.6348 H   0  0  0  0  0  0  0  0  0  0  0  0
    7.8548   -5.0926   23.4527 C   0  0  0  0  0  0  0  0  0  0  0  0
    6.8496   -4.6591   23.5072 H   0  0  0  0  0  0  0  0  0  0  0  0
    8.1037   -5.5844   24.3960 H   0  0  0  0  0  0  0  0  0  0  0  0
    7.9547   -6.0543   22.2820 C   0  0  0  0  0  0  0  0  0  0  0  0
    6.8640   -6.2545   21.4325 C   0  0  0  0  0  0  0  0  0  0  0  0
    5.9143   -5.7845   21.6688 H   0  0  0  0  0  0  0  0  0  0  0  0
    6.9801   -7.1336   20.3491 C   0  0  0  0  0  0  0  0  0  0  0  0
    8.2108   -7.7543   20.1037 C   0  0  0  0  0  0  0  0  0  0  0  0
    8.2879   -8.4177   19.2572 H   0  0  0  0  0  0  0  0  0  0  0  0
    9.2874   -7.5287   20.9321 C   0  0  0  0  0  0  0  0  0  0  0  0
   10.2294   -8.0166   20.7293 H   0  0  0  0  0  0  0  0  0  0  0  0
    9.1650   -6.6892   22.0286 C   0  0  0  0  0  0  0  0  0  0  0  0
   10.0080   -6.5299   22.6869 H   0  0  0  0  0  0  0  0  0  0  0  0
    4.7146   -6.8551   19.6813 C   0  0  0  0  0  0  0  0  0  0  0  0
    4.0911   -7.2493   18.8811 H   0  0  0  0  0  0  0  0  0  0  0  0
    4.7968   -5.7699   19.5748 H   0  0  0  0  0  0  0  0  0  0  0  0
    4.2686   -7.1075   20.6482 H   0  0  0  0  0  0  0  0  0  0  0  0
  1  3  1  0  0  0  0
  1  8  2  0  0  0  0
  2 16  1  0  0  0  0
  2  1  1  0  0  0  0
  4  1  1  0  0  0  0
  5  9  1  0  0  0  0
  6 41  1  0  0  0  0
  6 11  1  0  0  0  0
  7 54  1  0  0  0  0
  7 47  1  0  0  0  0
  8  5  1  0  0  0  0
  8  6  1  0  0  0  0
  9 10  1  0  0  0  0
  9 11  2  0  0  0  0
 11 12  1  0  0  0  0
 13 14  1  0  0  0  0
 13  5  1  0  0  0  0
 15 13  1  0  0  0  0
 16 17  1  0  0  0  0
 16 13  1  0  0  0  0
 18 16  1  0  0  0  0
 19 28  1  0  0  0  0
 19  2  1  0  0  0  0
 20 19  2  0  0  0  0
 21 20  1  0  0  0  0
 22 24  2  0  0  0  0
 22 20  1  0  0  0  0
 23 22  1  0  0  0  0
 24 26  1  0  0  0  0
 25 24  1  0  0  0  0
 26 27  1  0  0  0  0
 26 28  2  0  0  0  0
 28 29  1  0  0  0  0
 30  2  1  0  0  0  0
 31 30  1  0  0  0  0
 31 32  1  0  0  0  0
 33 31  2  0  0  0  0
 34 33  1  0  0  0  0
 35 37  2  0  0  0  0
 35 33  1  0  0  0  0
 36 35  1  0  0  0  0
 37 39  1  0  0  0  0
 38 37  1  0  0  0  0
 39 40  1  0  0  0  0
 39 30  2  0  0  0  0
 41 42  1  0  0  0  0
 41 43  1  0  0  0  0
 44 41  1  0  0  0  0
 45 46  1  0  0  0  0
 45 44  2  0  0  0  0
 47 45  1  0  0  0  0
 48 47  2  0  0  0  0
 48 50  1  0  0  0  0
 49 48  1  0  0  0  0
 50 52  2  0  0  0  0
 51 50  1  0  0  0  0
 52 44  1  0  0  0  0
 52 53  1  0  0  0  0
 54 57  1  0  0  0  0
 55 54  1  0  0  0  0
 56 54  1  0  0  0  0
M  END
$$$$
