CSD_code = BIMDOQ | q = 0 | S = 0 | Stoichiometry = C4H10Cl2MoO4 | MND = 6
 OpenBabel04212202013D

 21 19  0  0  0  0  0  0  0  0999 V2000
    0.0409    2.7318    2.9394 Mo  0  0  0  0  0  0  0  0  0  0  0  0
    1.9042    1.6961    2.1507 Cl  0  0  0  0  0  0  0  0  0  0  0  0
   -1.9225    3.7336    2.3834 Cl  0  0  0  0  0  0  0  0  0  0  0  0
    0.7417    3.9810    3.7333 O   0  0  0  0  0  1  0  0  0  0  0  0
   -0.5306    1.5239    3.8863 O   0  0  0  0  0  1  0  0  0  0  0  0
    0.5188    3.8877    0.7940 O   0  0  0  0  0  0  0  0  0  0  0  0
   -0.7433    1.4764    0.9455 O   0  0  0  0  0  0  0  0  0  0  0  0
    1.6796    4.7057    0.8078 C   0  0  0  0  0  0  0  0  0  0  0  0
    0.4344    3.0742   -0.3644 C   0  0  0  0  0  0  0  0  0  0  0  0
   -0.8326    2.2332   -0.2504 C   0  0  0  0  0  0  0  0  0  0  0  0
   -1.8865    0.6640    1.1684 C   0  0  0  0  0  0  0  0  0  0  0  0
    1.6528    5.2640    1.7443 H   0  0  0  0  0  0  0  0  0  0  0  0
    1.6568    5.3961   -0.0425 H   0  0  0  0  0  0  0  0  0  0  0  0
    2.5882    4.0941    0.7696 H   0  0  0  0  0  0  0  0  0  0  0  0
    1.3168    2.4179   -0.4240 H   0  0  0  0  0  0  0  0  0  0  0  0
    0.3813    3.7116   -1.2585 H   0  0  0  0  0  0  0  0  0  0  0  0
   -1.7164    2.8891   -0.2112 H   0  0  0  0  0  0  0  0  0  0  0  0
   -0.9094    1.5535   -1.1110 H   0  0  0  0  0  0  0  0  0  0  0  0
   -1.7208    0.1510    2.1165 H   0  0  0  0  0  0  0  0  0  0  0  0
   -1.9861   -0.0663    0.3579 H   0  0  0  0  0  0  0  0  0  0  0  0
   -2.7930    1.2763    1.2345 H   0  0  0  0  0  0  0  0  0  0  0  0
  1  4  1  0  0  0  0
  1  5  1  0  0  0  0
  2  1  1  0  0  0  0
  3  1  1  0  0  0  0
  6  8  1  0  0  0  0
  7 11  1  0  0  0  0
  8 12  1  0  0  0  0
  9 10  1  0  0  0  0
  9  6  1  0  0  0  0
 10 17  1  0  0  0  0
 10  7  1  0  0  0  0
 11 21  1  0  0  0  0
 11 19  1  0  0  0  0
 13  8  1  0  0  0  0
 14  8  1  0  0  0  0
 15  9  1  0  0  0  0
 16  9  1  0  0  0  0
 18 10  1  0  0  0  0
 20 11  1  0  0  0  0
M  END
$$$$
