CSD_code = BIMTOH | q = 0 | S = 0 | Stoichiometry = C34H27ClO5P2Ru | MND = 6
 OpenBabel04212202013D

 70 75  0  0  0  0  0  0  0  0999 V2000
    3.3858    2.1640    1.4907 Ru  0  0  0  0  0  0  0  0  0  0  0  0
    1.5797    3.6710    1.0824 Cl  0  0  0  0  0  0  0  0  0  0  0  0
    4.2708    3.5252   -0.3460 P   0  0  0  0  0  4  0  0  0  0  0  0
    4.3408    3.8770    2.8201 P   0  0  0  0  0  4  0  0  0  0  0  0
    4.7263    7.1964    3.1996 O   0  0  0  0  0  0  0  0  0  0  0  0
    4.4630    6.7148   -1.4728 O   0  0  0  0  0  0  0  0  0  0  0  0
    3.0051    1.8859    4.2581 O   0  0  0  0  0  0  0  0  0  0  0  0
    5.4278    0.0822    2.1743 O   0  0  0  0  0  1  0  0  0  0  0  0
    1.8758    0.4039   -0.4123 O   0  0  0  0  0  1  0  0  0  0  0  0
    4.4344    5.3206    1.7236 C   0  0  0  0  0  0  0  0  0  0  0  0
    4.3105    5.1840    0.3791 C   0  0  0  0  0  0  0  0  0  0  0  0
    4.3661    6.5026   -0.2920 C   0  0  0  0  0  0  0  0  0  0  0  0
    4.3498    7.5402    0.8160 C   0  0  0  0  0  0  0  0  0  0  0  0
    5.1267    8.2949    0.6842 H   0  0  0  0  0  0  0  0  0  0  0  0
    3.3894    8.0616    0.8292 H   0  0  0  0  0  0  0  0  0  0  0  0
    4.5240    6.7482    2.1022 C   0  0  0  0  0  0  0  0  0  0  0  0
    6.0291    3.4826   -0.8430 C   0  0  0  0  0  0  0  0  0  0  0  0
    6.5022    4.2803   -1.8811 C   0  0  0  0  0  0  0  0  0  0  0  0
    5.8200    4.9111   -2.4326 H   0  0  0  0  0  0  0  0  0  0  0  0
    7.8483    4.2607   -2.1953 C   0  0  0  0  0  0  0  0  0  0  0  0
    8.2170    4.8771   -3.0018 H   0  0  0  0  0  0  0  0  0  0  0  0
    8.7238    3.4598   -1.4773 C   0  0  0  0  0  0  0  0  0  0  0  0
    9.7746    3.4532   -1.7266 H   0  0  0  0  0  0  0  0  0  0  0  0
    8.2530    2.6683   -0.4431 C   0  0  0  0  0  0  0  0  0  0  0  0
    8.9307    2.0422    0.1181 H   0  0  0  0  0  0  0  0  0  0  0  0
    6.9064    2.6784   -0.1266 C   0  0  0  0  0  0  0  0  0  0  0  0
    6.5266    2.0574    0.6758 H   0  0  0  0  0  0  0  0  0  0  0  0
    3.3836    3.7203   -1.9077 C   0  0  0  0  0  0  0  0  0  0  0  0
    2.3000    4.5840   -2.0264 C   0  0  0  0  0  0  0  0  0  0  0  0
    2.0001    5.1962   -1.1883 H   0  0  0  0  0  0  0  0  0  0  0  0
    1.6004    4.6405   -3.2177 C   0  0  0  0  0  0  0  0  0  0  0  0
    0.7639    5.3165   -3.3142 H   0  0  0  0  0  0  0  0  0  0  0  0
    1.9642    3.8302   -4.2806 C   0  0  0  0  0  0  0  0  0  0  0  0
    1.4130    3.8779   -5.2081 H   0  0  0  0  0  0  0  0  0  0  0  0
    3.0273    2.9495   -4.1540 C   0  0  0  0  0  0  0  0  0  0  0  0
    3.3021    2.3086   -4.9789 H   0  0  0  0  0  0  0  0  0  0  0  0
    3.7337    2.8871   -2.9686 C   0  0  0  0  0  0  0  0  0  0  0  0
    4.5621    2.1984   -2.8553 H   0  0  0  0  0  0  0  0  0  0  0  0
    3.6179    4.6250    4.3075 C   0  0  0  0  0  0  0  0  0  0  0  0
    2.2645    4.9487    4.2659 C   0  0  0  0  0  0  0  0  0  0  0  0
    1.6844    4.7325    3.3777 H   0  0  0  0  0  0  0  0  0  0  0  0
    1.6654    5.5383    5.3627 C   0  0  0  0  0  0  0  0  0  0  0  0
    0.6150    5.7887    5.3298 H   0  0  0  0  0  0  0  0  0  0  0  0
    2.4099    5.8051    6.4999 C   0  0  0  0  0  0  0  0  0  0  0  0
    1.9404    6.2657    7.3568 H   0  0  0  0  0  0  0  0  0  0  0  0
    3.7557    5.4815    6.5392 C   0  0  0  0  0  0  0  0  0  0  0  0
    4.3365    5.6918    7.4254 H   0  0  0  0  0  0  0  0  0  0  0  0
    4.3651    4.8898    5.4481 C   0  0  0  0  0  0  0  0  0  0  0  0
    5.4159    4.6424    5.4828 H   0  0  0  0  0  0  0  0  0  0  0  0
    6.0818    3.5917    3.2455 C   0  0  0  0  0  0  0  0  0  0  0  0
    7.1375    4.2918    2.6752 C   0  0  0  0  0  0  0  0  0  0  0  0
    6.9479    5.0992    1.9810 H   0  0  0  0  0  0  0  0  0  0  0  0
    8.4394    3.9482    2.9971 C   0  0  0  0  0  0  0  0  0  0  0  0
    9.2594    4.4923    2.5517 H   0  0  0  0  0  0  0  0  0  0  0  0
    8.6903    2.9123    3.8806 C   0  0  0  0  0  0  0  0  0  0  0  0
    9.7084    2.6480    4.1254 H   0  0  0  0  0  0  0  0  0  0  0  0
    7.6372    2.2125    4.4508 C   0  0  0  0  0  0  0  0  0  0  0  0
    7.8333    1.4039    5.1390 H   0  0  0  0  0  0  0  0  0  0  0  0
    6.3352    2.5457    4.1314 C   0  0  0  0  0  0  0  0  0  0  0  0
    5.4990    2.0083    4.5621 H   0  0  0  0  0  0  0  0  0  0  0  0
    2.4700    1.5664    3.2233 C   0  0  0  0  0  0  0  0  0  0  0  0
    1.1295    0.8694    3.1906 C   0  0  0  0  0  0  0  0  0  0  0  0
    1.2474   -0.0808    2.6593 H   0  0  0  0  0  0  0  0  0  0  0  0
    0.4547    1.4950    2.5958 H   0  0  0  0  0  0  0  0  0  0  0  0
    0.5565    0.6438    4.5862 C   0  0  0  0  0  0  0  0  0  0  0  0
    1.2241    0.0134    5.1684 H   0  0  0  0  0  0  0  0  0  0  0  0
   -0.4170    0.1641    4.5227 H   0  0  0  0  0  0  0  0  0  0  0  0
    0.4504    1.5942    5.1034 H   0  0  0  0  0  0  0  0  0  0  0  0
    4.6861    0.9114    1.8913 C   0  0  0  0  0  2  0  0  0  0  0  0
    2.4660    1.0105    0.3546 C   0  0  0  0  0  2  0  0  0  0  0  0
  1 69  1  0  0  0  0
  1  4  1  0  0  0  0
  1 61  1  0  0  0  0
  2  1  1  0  0  0  0
  3 11  1  0  0  0  0
  3  1  1  0  0  0  0
  4 50  1  0  0  0  0
  4 39  1  0  0  0  0
  6 12  2  0  0  0  0
  9 70  1  0  0  0  0
 10 16  1  0  0  0  0
 10  4  1  0  0  0  0
 11 10  2  0  0  0  0
 12 11  1  0  0  0  0
 12 13  1  0  0  0  0
 13 15  1  0  0  0  0
 13 16  1  0  0  0  0
 14 13  1  0  0  0  0
 16  5  2  0  0  0  0
 17  3  1  0  0  0  0
 17 26  1  0  0  0  0
 18 17  2  0  0  0  0
 19 18  1  0  0  0  0
 20 18  1  0  0  0  0
 20 22  2  0  0  0  0
 21 20  1  0  0  0  0
 22 24  1  0  0  0  0
 23 22  1  0  0  0  0
 24 26  2  0  0  0  0
 24 25  1  0  0  0  0
 26 27  1  0  0  0  0
 28  3  1  0  0  0  0
 29 28  1  0  0  0  0
 29 30  1  0  0  0  0
 31 29  2  0  0  0  0
 32 31  1  0  0  0  0
 33 35  2  0  0  0  0
 33 31  1  0  0  0  0
 34 33  1  0  0  0  0
 35 37  1  0  0  0  0
 36 35  1  0  0  0  0
 37 38  1  0  0  0  0
 37 28  2  0  0  0  0
 39 48  1  0  0  0  0
 40 39  2  0  0  0  0
 40 42  1  0  0  0  0
 41 40  1  0  0  0  0
 42 44  2  0  0  0  0
 43 42  1  0  0  0  0
 44 46  1  0  0  0  0
 44 45  1  0  0  0  0
 46 47  1  0  0  0  0
 48 49  1  0  0  0  0
 48 46  2  0  0  0  0
 50 59  1  0  0  0  0
 51 53  1  0  0  0  0
 51 50  2  0  0  0  0
 52 51  1  0  0  0  0
 53 55  2  0  0  0  0
 54 53  1  0  0  0  0
 55 56  1  0  0  0  0
 55 57  1  0  0  0  0
 57 58  1  0  0  0  0
 59 57  2  0  0  0  0
 59 60  1  0  0  0  0
 61  7  2  0  0  0  0
 62 61  1  0  0  0  0
 62 65  1  0  0  0  0
 63 62  1  0  0  0  0
 64 62  1  0  0  0  0
 65 68  1  0  0  0  0
 65 66  1  0  0  0  0
 67 65  1  0  0  0  0
 69  8  1  0  0  0  0
 70  1  1  0  0  0  0
M  END
$$$$
