CSD_code = BIMYOL | q = 0 | S = 0 | Stoichiometry = C12H21Cl3N3O2Rh | MND = 6
 OpenBabel04212202013D

 42 44  0  0  1  0  0  0  0  0999 V2000
    0.1338    1.0599   10.8416 Rh  0  0  0  0  0  0  0  0  0  0  0  0
    0.2973   -0.6815    9.4169 Cl  0  0  0  0  0  0  0  0  0  0  0  0
    1.6756    2.3727    9.7138 Cl  0  0  0  0  0  0  0  0  0  0  0  0
   -1.3709   -0.1515   12.2163 Cl  0  0  0  0  0  0  0  0  0  0  0  0
   -2.5599    1.9304   10.5806 O   0  0  0  0  0  0  0  0  0  0  0  0
    1.0675    2.0599   13.3677 O   0  0  0  0  0  0  0  0  0  0  0  0
   -1.4224    1.7260    9.7940 N   0  0  0  0  0  0  0  0  0  0  0  0
    0.2398    2.5074   12.3023 N   0  0  1  0  0  0  0  0  0  0  0  0
    1.5846    0.3543   11.9862 N   0  0  0  0  0  0  0  0  0  0  0  0
   -1.5821    2.0102    8.5606 C   0  0  0  0  0  3  0  0  0  0  0  0
   -2.8826    2.4839    7.9856 C   0  0  0  0  0  0  0  0  0  0  0  0
   -2.5356    2.9097    6.5596 C   0  0  0  0  0  0  0  0  0  0  0  0
   -1.3565    2.0081    6.1945 C   0  0  0  0  0  0  0  0  0  0  0  0
   -0.5514    1.9188    7.4920 C   0  0  0  0  0  0  0  0  0  0  0  0
   -0.1288    3.7193   12.4106 C   0  0  0  0  0  3  0  0  0  0  0  0
   -0.9400    4.4245   11.3815 C   0  0  0  0  0  0  0  0  0  0  0  0
   -0.8411    5.8993   11.7800 C   0  0  0  0  0  0  0  0  0  0  0  0
   -0.6865    5.8581   13.3004 C   0  0  0  0  0  0  0  0  0  0  0  0
    0.2116    4.6427   13.5357 C   0  0  0  0  0  0  0  0  0  0  0  0
    1.7474    0.9411   13.1031 C   0  0  1  0  0  3  0  0  0  0  0  0
    2.6706    0.5345   14.2019 C   0  0  0  0  0  0  0  0  0  0  0  0
    2.1196   -0.4907   11.7992 H   0  0  0  0  0  0  0  0  0  0  0  0
   -3.3227    3.2768    8.5905 H   0  0  0  0  0  0  0  0  0  0  0  0
   -3.5816    1.6435    7.9944 H   0  0  0  0  0  0  0  0  0  0  0  0
   -2.2208    3.9546    6.5515 H   0  0  0  0  0  0  0  0  0  0  0  0
   -3.3762    2.7994    5.8771 H   0  0  0  0  0  0  0  0  0  0  0  0
   -0.7667    2.4030    5.3700 H   0  0  0  0  0  0  0  0  0  0  0  0
   -1.7176    1.0172    5.9171 H   0  0  0  0  0  0  0  0  0  0  0  0
    0.0405    1.0083    7.5812 H   0  0  0  0  0  0  0  0  0  0  0  0
    0.1369    2.7616    7.5883 H   0  0  0  0  0  0  0  0  0  0  0  0
   -1.9719    4.0673   11.4271 H   0  0  0  0  0  0  0  0  0  0  0  0
   -0.5556    4.2178   10.3817 H   0  0  0  0  0  0  0  0  0  0  0  0
   -1.7109    6.4715   11.4648 H   0  0  0  0  0  0  0  0  0  0  0  0
    0.0466    6.3433   11.3281 H   0  0  0  0  0  0  0  0  0  0  0  0
   -1.6578    5.6951   13.7693 H   0  0  0  0  0  0  0  0  0  0  0  0
   -0.2597    6.7744   13.7030 H   0  0  0  0  0  0  0  0  0  0  0  0
    1.2687    4.9111   13.4521 H   0  0  0  0  0  0  0  0  0  0  0  0
    0.0670    4.1685   14.5066 H   0  0  0  0  0  0  0  0  0  0  0  0
    3.0081   -0.4873   14.0563 H   0  0  0  0  0  0  0  0  0  0  0  0
    3.5333    1.1994   14.2145 H   0  0  0  0  0  0  0  0  0  0  0  0
    2.1604    0.6225   15.1583 H   0  0  0  0  0  0  0  0  0  0  0  0
   -2.4949    1.2397   11.2967 H   0  0  0  0  0  0  0  0  0  0  0  0
  1  9  1  0  0  0  0
  1  4  1  0  0  0  0
  1  8  1  0  0  0  0
  2  1  1  0  0  0  0
  3  1  1  0  0  0  0
  5 42  1  0  0  0  0
  7  5  1  0  0  0  0
  7  1  1  0  0  0  0
  8 15  1  6  0  0  0
  8  6  1  0  0  0  0
  9 20  1  0  0  0  0
 10  7  1  0  0  0  0
 11 24  1  0  0  0  0
 11 10  1  0  0  0  0
 11 23  1  0  0  0  0
 12 11  1  0  0  0  0
 13 12  1  0  0  0  0
 13 14  1  0  0  0  0
 14 29  1  0  0  0  0
 14 30  1  0  0  0  0
 14 10  1  0  0  0  0
 15 19  1  0  0  0  0
 16 31  1  0  0  0  0
 16 17  1  0  0  0  0
 16 15  1  0  0  0  0
 17 18  1  0  0  0  0
 18 19  1  0  0  0  0
 18 36  1  0  0  0  0
 18 35  1  0  0  0  0
 19 38  1  0  0  0  0
 20  6  1  0  0  0  0
 20 21  1  6  0  0  0
 21 40  1  0  0  0  0
 21 41  1  0  0  0  0
 22  9  1  0  0  0  0
 25 12  1  0  0  0  0
 26 12  1  0  0  0  0
 27 13  1  0  0  0  0
 28 13  1  0  0  0  0
 32 16  1  0  0  0  0
 33 17  1  0  0  0  0
 34 17  1  0  0  0  0
 37 19  1  0  0  0  0
 39 21  1  0  0  0  0
M  END
$$$$
