CSD_code = BINBUW | q = 0 | S = 0 | Stoichiometry = C16H18Cl2NO2PPd | MND = 4
 OpenBabel04212202013D

 41 43  0  0  0  0  0  0  0  0999 V2000
    1.7806    3.8608   13.9856 Pd  0  0  0  0  0  0  0  0  0  0  0  0
    3.7055    5.0248   13.8715 Cl  0  0  0  0  0  0  0  0  0  0  0  0
    2.8381    2.1852   15.0049 Cl  0  0  0  0  0  0  0  0  0  0  0  0
   -0.2451    2.9522   14.3255 P   0  0  2  0  0  4  0  0  0  0  0  0
   -1.0165    1.5803   13.4275 C   0  0  0  0  0  0  0  0  0  0  0  0
   -2.0409    1.7132   12.4979 C   0  0  0  0  0  0  0  0  0  0  0  0
   -2.5190    0.5939   11.8381 C   0  0  0  0  0  0  0  0  0  0  0  0
   -1.9711   -0.6527   12.0889 C   0  0  0  0  0  0  0  0  0  0  0  0
   -0.9252   -0.7837   12.9904 C   0  0  0  0  0  0  0  0  0  0  0  0
   -0.4426    0.3284   13.6517 C   0  0  0  0  0  0  0  0  0  0  0  0
    0.7238    5.2404   12.8560 N   0  0  0  0  0  0  0  0  0  0  0  0
    1.3542    5.9164   11.8963 C   0  0  0  0  0  3  0  0  0  0  0  0
    0.6752    6.6028   10.9042 C   0  0  0  0  0  0  0  0  0  0  0  0
   -0.7102    6.5819   10.9050 C   0  0  0  0  0  0  0  0  0  0  0  0
   -1.3615    5.8856   11.9109 C   0  0  0  0  0  0  0  0  0  0  0  0
   -0.6191    5.2261   12.8803 C   0  0  0  0  0  0  0  0  0  0  0  0
   -1.2662    4.4719   14.0003 C   0  0  0  0  0  0  0  0  0  0  0  0
    0.6598    3.7459   20.6200 C   0  0  0  0  0  0  0  0  0  0  0  0
    0.7435    3.9750   19.2195 O   0  0  0  0  0  0  0  0  0  0  0  0
    0.0173    3.1691   18.4425 C   0  0  0  0  0  0  0  0  0  0  0  0
   -0.7142    2.3102   18.8593 O   0  0  0  0  0  0  0  0  0  0  0  0
    0.2337    3.4886   16.9798 C   0  0  0  0  0  0  0  0  0  0  0  0
   -0.6200    2.5892   16.0881 C   0  0  0  0  0  0  0  0  0  0  0  0
   -2.4655    2.6824   12.2795 H   0  0  0  0  0  0  0  0  0  0  0  0
   -3.3208    0.6976   11.1218 H   0  0  0  0  0  0  0  0  0  0  0  0
   -2.3501   -1.5208   11.5710 H   0  0  0  0  0  0  0  0  0  0  0  0
   -0.4831   -1.7520   13.1692 H   0  0  0  0  0  0  0  0  0  0  0  0
    0.3957    0.2489   14.3324 H   0  0  0  0  0  0  0  0  0  0  0  0
    2.4388    5.9129   11.9496 H   0  0  0  0  0  0  0  0  0  0  0  0
    1.2259    7.1366   10.1470 H   0  0  0  0  0  0  0  0  0  0  0  0
   -1.2746    7.0968   10.1429 H   0  0  0  0  0  0  0  0  0  0  0  0
   -2.4398    5.8554   11.9495 H   0  0  0  0  0  0  0  0  0  0  0  0
   -2.3215    4.2675   13.8122 H   0  0  0  0  0  0  0  0  0  0  0  0
   -1.1890    5.0739   14.9143 H   0  0  0  0  0  0  0  0  0  0  0  0
    0.9880    2.7322   20.8567 H   0  0  0  0  0  0  0  0  0  0  0  0
   -0.3685    3.8727   20.9648 H   0  0  0  0  0  0  0  0  0  0  0  0
    1.3138    4.4776   21.0863 H   0  0  0  0  0  0  0  0  0  0  0  0
    1.3008    3.3312   16.7498 H   0  0  0  0  0  0  0  0  0  0  0  0
    0.0205    4.5519   16.8266 H   0  0  0  0  0  0  0  0  0  0  0  0
   -1.6880    2.7255   16.2860 H   0  0  0  0  0  0  0  0  0  0  0  0
   -0.3677    1.5451   16.2899 H   0  0  0  0  0  0  0  0  0  0  0  0
  1  4  1  0  0  0  0
  1  3  1  0  0  0  0
  2  1  1  0  0  0  0
  4 23  1  1  0  0  0
  5 10  1  0  0  0  0
  5  4  1  0  0  0  0
  6  5  2  0  0  0  0
  7  8  2  0  0  0  0
  7  6  1  0  0  0  0
  8  9  1  0  0  0  0
  9 27  1  0  0  0  0
  9 10  2  0  0  0  0
 10 28  1  0  0  0  0
 11 16  1  0  0  0  0
 11  1  1  0  0  0  0
 12 29  1  0  0  0  0
 12 11  1  0  0  0  0
 13 14  2  0  0  0  0
 13 12  1  0  0  0  0
 14 15  1  0  0  0  0
 15 32  1  0  0  0  0
 15 16  2  0  0  0  0
 16 17  1  0  0  0  0
 17  4  1  0  0  0  0
 17 34  1  0  0  0  0
 18 35  1  0  0  0  0
 18 36  1  0  0  0  0
 18 37  1  0  0  0  0
 19 18  1  0  0  0  0
 20 21  2  0  0  0  0
 20 19  1  0  0  0  0
 22 20  1  0  0  0  0
 23 40  1  0  0  0  0
 23 41  1  0  0  0  0
 23 22  1  0  0  0  0
 24  6  1  0  0  0  0
 25  7  1  0  0  0  0
 26  8  1  0  0  0  0
 30 13  1  0  0  0  0
 31 14  1  0  0  0  0
 33 17  1  0  0  0  0
 38 22  1  0  0  0  0
 39 22  1  0  0  0  0
M  END
$$$$
