CSD_code = BINCOT | q = 0 | S = 0 | Stoichiometry = C28H25ClNOPPd | MND = 4
 OpenBabel04212202013D

 58 63  0  0  0  0  0  0  0  0999 V2000
    2.0872    9.5913   11.1019 Pd  0  0  2  0  0  0  0  0  0  0  0  0
    1.3544   10.9253    9.3684 Cl  0  0  0  0  0  0  0  0  0  0  0  0
    2.8380    8.2848    9.6043 N   0  0  0  0  0  4  0  0  0  0  0  0
    3.8196    8.4753    9.3865 H   0  0  0  0  0  0  0  0  0  0  0  0
    2.2719    8.6192    8.8155 H   0  0  0  0  0  0  0  0  0  0  0  0
    1.2206   10.8513   12.7031 P   0  0  0  0  0  4  0  0  0  0  0  0
    2.6949    8.3019   12.4695 C   0  0  0  0  0  0  0  0  0  0  0  0
    2.5455    8.5856   13.8040 O   0  0  0  0  0  0  0  0  0  0  0  0
    3.1853    7.0366   12.3005 C   0  0  0  0  0  0  0  0  0  0  0  0
    3.3642    6.4849   13.6120 C   0  0  0  0  0  0  0  0  0  0  0  0
    3.8209    5.2724   14.1229 C   0  0  0  0  0  0  0  0  0  0  0  0
    4.1521    4.4842   13.4628 H   0  0  0  0  0  0  0  0  0  0  0  0
    3.8391    5.1049   15.4912 C   0  0  0  0  0  0  0  0  0  0  0  0
    4.1889    4.1717   15.9089 H   0  0  0  0  0  0  0  0  0  0  0  0
    3.4151    6.1147   16.3554 C   0  0  0  0  0  0  0  0  0  0  0  0
    3.4443    5.9433   17.4211 H   0  0  0  0  0  0  0  0  0  0  0  0
    2.9606    7.3279   15.8743 C   0  0  0  0  0  0  0  0  0  0  0  0
    2.6310    8.1170   16.5320 H   0  0  0  0  0  0  0  0  0  0  0  0
    2.9435    7.4955   14.5011 C   0  0  0  0  0  0  0  0  0  0  0  0
    3.5049    6.3559   11.0021 C   0  0  0  0  0  0  0  0  0  0  0  0
    3.3537    5.2802   11.1162 H   0  0  0  0  0  0  0  0  0  0  0  0
    4.5617    6.5125   10.7519 H   0  0  0  0  0  0  0  0  0  0  0  0
    2.6387    6.8520    9.8411 C   0  0  0  0  0  0  0  0  0  0  0  0
    2.8859    6.2718    8.9383 H   0  0  0  0  0  0  0  0  0  0  0  0
    1.5799    6.6901   10.0800 H   0  0  0  0  0  0  0  0  0  0  0  0
    2.4461   11.6208   13.7975 C   0  0  0  0  0  0  0  0  0  0  0  0
    3.7879   11.3769   13.5235 C   0  0  0  0  0  0  0  0  0  0  0  0
    4.0423   10.7249   12.6842 H   0  0  0  0  0  0  0  0  0  0  0  0
    4.7709   11.9614   14.3009 C   0  0  0  0  0  0  0  0  0  0  0  0
    5.8132   11.7697   14.0928 H   0  0  0  0  0  0  0  0  0  0  0  0
    4.4158   12.7978   15.3473 C   0  0  0  0  0  0  0  0  0  0  0  0
    5.1818   13.2508   15.9593 H   0  0  0  0  0  0  0  0  0  0  0  0
    3.0805   13.0695   15.6011 C   0  0  0  0  0  0  0  0  0  0  0  0
    2.8097   13.7397   16.4041 H   0  0  0  0  0  0  0  0  0  0  0  0
    2.0937   12.4917   14.8228 C   0  0  0  0  0  0  0  0  0  0  0  0
    1.0524   12.7280   14.9956 H   0  0  0  0  0  0  0  0  0  0  0  0
    0.0622    9.8194   13.6499 C   0  0  0  0  0  0  0  0  0  0  0  0
   -0.1641    9.8828   15.0165 C   0  0  0  0  0  0  0  0  0  0  0  0
    0.3657   10.6028   15.6219 H   0  0  0  0  0  0  0  0  0  0  0  0
   -1.0499    8.9953   15.6050 C   0  0  0  0  0  0  0  0  0  0  0  0
   -1.2206    9.0362   16.6710 H   0  0  0  0  0  0  0  0  0  0  0  0
   -1.7105    8.0522   14.8362 C   0  0  0  0  0  0  0  0  0  0  0  0
   -2.3968    7.3614   15.3030 H   0  0  0  0  0  0  0  0  0  0  0  0
   -1.4819    7.9826   13.4698 C   0  0  0  0  0  0  0  0  0  0  0  0
   -1.9902    7.2385   12.8742 H   0  0  0  0  0  0  0  0  0  0  0  0
   -0.5925    8.8590   12.8793 C   0  0  0  0  0  0  0  0  0  0  0  0
   -0.3776    8.8094   11.8050 H   0  0  0  0  0  0  0  0  0  0  0  0
    0.2249   12.2968   12.2295 C   0  0  0  0  0  0  0  0  0  0  0  0
    0.8999   13.3314   11.5861 C   0  0  0  0  0  0  0  0  0  0  0  0
    1.9655   13.2374   11.4131 H   0  0  0  0  0  0  0  0  0  0  0  0
    0.2089   14.4466   11.1564 C   0  0  0  0  0  0  0  0  0  0  0  0
    0.7314   15.2442   10.6493 H   0  0  0  0  0  0  0  0  0  0  0  0
   -1.1593   14.5343   11.3652 C   0  0  0  0  0  0  0  0  0  0  0  0
   -1.7020   15.4033   11.0233 H   0  0  0  0  0  0  0  0  0  0  0  0
   -1.8333   13.5051   12.0001 C   0  0  0  0  0  0  0  0  0  0  0  0
   -2.9007   13.5717   12.1544 H   0  0  0  0  0  0  0  0  0  0  0  0
   -1.1466   12.3823   12.4301 C   0  0  0  0  0  0  0  0  0  0  0  0
   -1.6744   11.5729   12.9162 H   0  0  0  0  0  0  0  0  0  0  0  0
  1  2  1  1  0  0  0
  1  7  1  0  0  0  0
  1  6  1  0  0  0  0
  3 23  1  0  0  0  0
  3  1  1  0  0  0  0
  4  3  1  0  0  0  0
  5  3  1  0  0  0  0
  6 37  1  0  0  0  0
  6 26  1  0  0  0  0
  7  8  1  0  0  0  0
  8 19  1  0  0  0  0
  9  7  2  0  0  0  0
  9 10  1  0  0  0  0
 10 11  2  0  0  0  0
 10 19  1  0  0  0  0
 11 13  1  0  0  0  0
 12 11  1  0  0  0  0
 13 14  1  0  0  0  0
 13 15  2  0  0  0  0
 15 16  1  0  0  0  0
 17 15  1  0  0  0  0
 17 18  1  0  0  0  0
 19 17  2  0  0  0  0
 20 21  1  0  0  0  0
 20  9  1  0  0  0  0
 22 20  1  0  0  0  0
 23 25  1  0  0  0  0
 23 20  1  0  0  0  0
 24 23  1  0  0  0  0
 26 35  1  0  0  0  0
 27 26  2  0  0  0  0
 27 29  1  0  0  0  0
 28 27  1  0  0  0  0
 29 31  2  0  0  0  0
 30 29  1  0  0  0  0
 31 33  1  0  0  0  0
 31 32  1  0  0  0  0
 33 34  1  0  0  0  0
 35 36  1  0  0  0  0
 35 33  2  0  0  0  0
 37 38  1  0  0  0  0
 38 40  2  0  0  0  0
 38 39  1  0  0  0  0
 40 41  1  0  0  0  0
 42 43  1  0  0  0  0
 42 40  1  0  0  0  0
 44 42  2  0  0  0  0
 45 44  1  0  0  0  0
 46 44  1  0  0  0  0
 46 37  2  0  0  0  0
 47 46  1  0  0  0  0
 48 57  1  0  0  0  0
 48  6  1  0  0  0  0
 49 48  2  0  0  0  0
 50 49  1  0  0  0  0
 51 53  2  0  0  0  0
 51 49  1  0  0  0  0
 52 51  1  0  0  0  0
 53 55  1  0  0  0  0
 54 53  1  0  0  0  0
 55 56  1  0  0  0  0
 55 57  2  0  0  0  0
 57 58  1  0  0  0  0
M  END
$$$$
