CSD_code = BINPUK | q = 0 | S = 0 | Stoichiometry = C32H30Cl2N3PPt | MND = 4
 OpenBabel04212202013D

 69 73  0  0  0  0  0  0  0  0999 V2000
    8.1970    4.3080    9.4958 Pt  0  0  0  0  0  0  0  0  0  0  0  0
    8.5520    6.5644    9.9822 Cl  0  0  0  0  0  0  0  0  0  0  0  0
    7.7222    2.0550    9.0734 Cl  0  0  0  0  0  0  0  0  0  0  0  0
   10.4001    3.7789    9.7483 P   0  0  0  0  0  4  0  0  0  0  0  0
    6.2263    4.6731    9.2880 N   0  0  0  0  0  0  0  0  0  0  0  0
    5.4536    4.8256   10.2752 N   0  0  0  0  0  2  0  0  0  0  0  0
    6.0131    4.8049   11.4434 N   0  0  0  0  0  0  0  0  0  0  0  0
    7.0512    4.7018   11.4672 H   0  0  0  0  0  0  0  0  0  0  0  0
    5.6734    4.6477    8.0152 C   0  0  0  0  0  0  0  0  0  0  0  0
    4.3056    4.4942    7.7901 C   0  0  0  0  0  0  0  0  0  0  0  0
    3.6399    4.3947    8.6332 H   0  0  0  0  0  0  0  0  0  0  0  0
    3.8257    4.4511    6.4970 C   0  0  0  0  0  0  0  0  0  0  0  0
    2.7659    4.3235    6.3298 H   0  0  0  0  0  0  0  0  0  0  0  0
    4.6816    4.5609    5.4067 C   0  0  0  0  0  0  0  0  0  0  0  0
    6.0450    4.7220    5.6418 C   0  0  0  0  0  0  0  0  0  0  0  0
    6.7201    4.8123    4.8032 H   0  0  0  0  0  0  0  0  0  0  0  0
    6.5391    4.7654    6.9267 C   0  0  0  0  0  0  0  0  0  0  0  0
    7.6016    4.9076    7.1135 H   0  0  0  0  0  0  0  0  0  0  0  0
    4.1636    4.5060    4.0033 C   0  0  0  0  0  0  0  0  0  0  0  0
    4.4222    5.4190    3.4683 H   0  0  0  0  0  0  0  0  0  0  0  0
    3.0834    4.3881    3.9892 H   0  0  0  0  0  0  0  0  0  0  0  0
    4.6121    3.6701    3.4677 H   0  0  0  0  0  0  0  0  0  0  0  0
    5.3302    5.0047   12.6269 C   0  0  0  0  0  0  0  0  0  0  0  0
    3.9523    5.2168   12.6427 C   0  0  0  0  0  0  0  0  0  0  0  0
    3.4121    5.2321   11.7099 H   0  0  0  0  0  0  0  0  0  0  0  0
    3.3051    5.4101   13.8448 C   0  0  0  0  0  0  0  0  0  0  0  0
    2.2379    5.5770   13.8527 H   0  0  0  0  0  0  0  0  0  0  0  0
    4.0020    5.3975   15.0500 C   0  0  0  0  0  0  0  0  0  0  0  0
    5.3749    5.1833   15.0200 C   0  0  0  0  0  0  0  0  0  0  0  0
    5.9331    5.1720   15.9448 H   0  0  0  0  0  0  0  0  0  0  0  0
    6.0395    4.9877   13.8255 C   0  0  0  0  0  0  0  0  0  0  0  0
    7.1080    4.8279   13.8126 H   0  0  0  0  0  0  0  0  0  0  0  0
    3.2765    5.5966   16.3448 C   0  0  0  0  0  0  0  0  0  0  0  0
    3.9722    5.8003   17.1546 H   0  0  0  0  0  0  0  0  0  0  0  0
    2.7091    4.7006   16.5978 H   0  0  0  0  0  0  0  0  0  0  0  0
    2.5734    6.4237   16.2677 H   0  0  0  0  0  0  0  0  0  0  0  0
   10.9771    2.5577    8.5357 C   0  0  0  0  0  0  0  0  0  0  0  0
   10.5229    2.7285    7.2306 C   0  0  0  0  0  0  0  0  0  0  0  0
    9.8534    3.5531    7.0119 H   0  0  0  0  0  0  0  0  0  0  0  0
   10.9068    1.8480    6.2386 C   0  0  0  0  0  0  0  0  0  0  0  0
   10.5492    1.9803    5.2280 H   0  0  0  0  0  0  0  0  0  0  0  0
   11.7427    0.7862    6.5479 C   0  0  0  0  0  0  0  0  0  0  0  0
   12.0391    0.0911    5.7762 H   0  0  0  0  0  0  0  0  0  0  0  0
   12.1885    0.6082    7.8468 C   0  0  0  0  0  0  0  0  0  0  0  0
   12.8312   -0.2262    8.0870 H   0  0  0  0  0  0  0  0  0  0  0  0
   11.8087    1.4904    8.8440 C   0  0  0  0  0  0  0  0  0  0  0  0
   12.1471    1.3413    9.8594 H   0  0  0  0  0  0  0  0  0  0  0  0
   10.7400    3.0433   11.3734 C   0  0  0  0  0  0  0  0  0  0  0  0
   12.0227    3.0022   11.9135 C   0  0  0  0  0  0  0  0  0  0  0  0
   12.8522    3.4268   11.3640 H   0  0  0  0  0  0  0  0  0  0  0  0
   12.2292    2.4268   13.1539 C   0  0  0  0  0  0  0  0  0  0  0  0
   13.2255    2.3919   13.5702 H   0  0  0  0  0  0  0  0  0  0  0  0
   11.1627    1.8963   13.8633 C   0  0  0  0  0  0  0  0  0  0  0  0
   11.3303    1.4499   14.8324 H   0  0  0  0  0  0  0  0  0  0  0  0
    9.8847    1.9378   13.3306 C   0  0  0  0  0  0  0  0  0  0  0  0
    9.0537    1.5240   13.8828 H   0  0  0  0  0  0  0  0  0  0  0  0
    9.6734    2.5089   12.0885 C   0  0  0  0  0  0  0  0  0  0  0  0
    8.6814    2.5307   11.6509 H   0  0  0  0  0  0  0  0  0  0  0  0
   11.6451    5.0994    9.6486 C   0  0  0  0  0  0  0  0  0  0  0  0
   11.6948    6.0209   10.6921 C   0  0  0  0  0  0  0  0  0  0  0  0
   11.0294    5.9031   11.5363 H   0  0  0  0  0  0  0  0  0  0  0  0
   12.5799    7.0797   10.6401 C   0  0  0  0  0  0  0  0  0  0  0  0
   12.6129    7.7936   11.4498 H   0  0  0  0  0  0  0  0  0  0  0  0
   13.4174    7.2304    9.5458 C   0  0  0  0  0  0  0  0  0  0  0  0
   14.1071    8.0606    9.5039 H   0  0  0  0  0  0  0  0  0  0  0  0
   13.3662    6.3203    8.5038 C   0  0  0  0  0  0  0  0  0  0  0  0
   14.0160    6.4390    7.6488 H   0  0  0  0  0  0  0  0  0  0  0  0
   12.4797    5.2582    8.5491 C   0  0  0  0  0  0  0  0  0  0  0  0
   12.4376    4.5517    7.7316 H   0  0  0  0  0  0  0  0  0  0  0  0
  1  4  1  0  0  0  0
  1  2  1  0  0  0  0
  3  1  1  0  0  0  0
  4 48  1  0  0  0  0
  5  1  1  0  0  0  0
  5  6  1  0  0  0  0
  6  7  1  0  0  0  0
  7  8  1  0  0  0  0
  7 23  1  0  0  0  0
  9  5  1  0  0  0  0
 10  9  1  0  0  0  0
 10 11  1  0  0  0  0
 12 10  2  0  0  0  0
 13 12  1  0  0  0  0
 14 15  2  0  0  0  0
 14 12  1  0  0  0  0
 15 17  1  0  0  0  0
 16 15  1  0  0  0  0
 17 18  1  0  0  0  0
 17  9  2  0  0  0  0
 19 14  1  0  0  0  0
 20 19  1  0  0  0  0
 21 19  1  0  0  0  0
 22 19  1  0  0  0  0
 23 24  2  0  0  0  0
 23 31  1  0  0  0  0
 24 26  1  0  0  0  0
 25 24  1  0  0  0  0
 26 27  1  0  0  0  0
 26 28  2  0  0  0  0
 28 33  1  0  0  0  0
 29 28  1  0  0  0  0
 29 30  1  0  0  0  0
 31 29  2  0  0  0  0
 32 31  1  0  0  0  0
 33 35  1  0  0  0  0
 33 34  1  0  0  0  0
 36 33  1  0  0  0  0
 37 46  1  0  0  0  0
 37  4  1  0  0  0  0
 38 37  2  0  0  0  0
 39 38  1  0  0  0  0
 40 42  2  0  0  0  0
 40 38  1  0  0  0  0
 41 40  1  0  0  0  0
 42 44  1  0  0  0  0
 43 42  1  0  0  0  0
 44 45  1  0  0  0  0
 44 46  2  0  0  0  0
 46 47  1  0  0  0  0
 48 49  2  0  0  0  0
 48 57  1  0  0  0  0
 49 51  1  0  0  0  0
 50 49  1  0  0  0  0
 51 52  1  0  0  0  0
 51 53  2  0  0  0  0
 53 54  1  0  0  0  0
 55 53  1  0  0  0  0
 55 56  1  0  0  0  0
 57 55  2  0  0  0  0
 58 57  1  0  0  0  0
 59  4  1  0  0  0  0
 59 60  1  0  0  0  0
 60 61  1  0  0  0  0
 62 60  2  0  0  0  0
 62 63  1  0  0  0  0
 64 62  1  0  0  0  0
 65 64  1  0  0  0  0
 66 68  1  0  0  0  0
 66 64  2  0  0  0  0
 67 66  1  0  0  0  0
 68 59  2  0  0  0  0
 69 68  1  0  0  0  0
M  END
$$$$
