CSD_code = BINPEU | q = 0 | S = 0 | Stoichiometry = C14H11ClN3O2Rh | MND = 4
 OpenBabel04212202013D

 32 33  0  0  0  0  0  0  0  0999 V2000
   -1.9277    8.7676   14.7192 Rh  0  0  0  0  0  0  0  0  0  0  0  0
   -0.6746    8.6741   12.8776 Cl  0  0  0  0  0  0  0  0  0  0  0  0
   -1.4788    6.7748   14.9674 N   0  0  0  0  0  0  0  0  0  0  0  0
   -2.0416    5.8616   14.2913 N   0  0  0  0  0  2  0  0  0  0  0  0
   -2.9667    6.2532   13.4801 N   0  0  0  0  0  0  0  0  0  0  0  0
   -3.1245    7.2965   13.4145 H   0  0  0  0  0  0  0  0  0  0  0  0
   -2.9957    8.7677   16.2258 C   0  0  0  0  0  2  0  0  0  0  0  0
   -3.6698    8.7642   17.1541 O   0  0  0  0  0  1  0  0  0  0  0  0
   -2.1707   10.5528   14.2775 C   0  0  0  0  0  2  0  0  0  0  0  0
   -2.2344   11.6212   13.8878 O   0  0  0  0  0  1  0  0  0  0  0  0
   -0.4531    6.3835   15.8271 C   0  0  0  0  0  0  0  0  0  0  0  0
    0.3215    7.3895   16.4085 C   0  0  0  0  0  0  0  0  0  0  0  0
    0.1071    8.4339   16.1572 H   0  0  0  0  0  0  0  0  0  0  0  0
    1.3540    7.0619   17.2637 C   0  0  0  0  0  0  0  0  0  0  0  0
    1.9540    7.8424   17.7067 H   0  0  0  0  0  0  0  0  0  0  0  0
    1.6210    5.7319   17.5514 C   0  0  0  0  0  0  0  0  0  0  0  0
    2.4269    5.4766   18.2225 H   0  0  0  0  0  0  0  0  0  0  0  0
    0.8547    4.7301   16.9753 C   0  0  0  0  0  0  0  0  0  0  0  0
    1.0654    3.6950   17.1993 H   0  0  0  0  0  0  0  0  0  0  0  0
   -0.1780    5.0454   16.1150 C   0  0  0  0  0  0  0  0  0  0  0  0
   -0.7802    4.2725   15.6638 H   0  0  0  0  0  0  0  0  0  0  0  0
   -3.6721    5.4049   12.6460 C   0  0  0  0  0  0  0  0  0  0  0  0
   -3.4677    4.0263   12.6815 C   0  0  0  0  0  0  0  0  0  0  0  0
   -2.7407    3.6193   13.3656 H   0  0  0  0  0  0  0  0  0  0  0  0
   -4.1940    3.2084   11.8387 C   0  0  0  0  0  0  0  0  0  0  0  0
   -4.0353    2.1410   11.8650 H   0  0  0  0  0  0  0  0  0  0  0  0
   -5.1216    3.7497   10.9622 C   0  0  0  0  0  0  0  0  0  0  0  0
   -5.6856    3.1048   10.3061 H   0  0  0  0  0  0  0  0  0  0  0  0
   -5.3223    5.1206   10.9275 C   0  0  0  0  0  0  0  0  0  0  0  0
   -6.0413    5.5449   10.2436 H   0  0  0  0  0  0  0  0  0  0  0  0
   -4.6035    5.9510   11.7653 C   0  0  0  0  0  0  0  0  0  0  0  0
   -4.7517    7.0209   11.7395 H   0  0  0  0  0  0  0  0  0  0  0  0
  1  3  1  0  0  0  0
  1  7  1  0  0  0  0
  2  1  1  0  0  0  0
  3 11  1  0  0  0  0
  4  3  1  0  0  0  0
  5  4  1  0  0  0  0
  6  5  1  0  0  0  0
  7  8  1  0  0  0  0
  9  1  1  0  0  0  0
 10  9  1  0  0  0  0
 11 20  2  0  0  0  0
 11 12  1  0  0  0  0
 12 14  2  0  0  0  0
 13 12  1  0  0  0  0
 14 16  1  0  0  0  0
 14 15  1  0  0  0  0
 16 17  1  0  0  0  0
 18 19  1  0  0  0  0
 18 16  2  0  0  0  0
 20 18  1  0  0  0  0
 21 20  1  0  0  0  0
 22 23  1  0  0  0  0
 22  5  1  0  0  0  0
 23 24  1  0  0  0  0
 25 26  1  0  0  0  0
 25 23  2  0  0  0  0
 27 25  1  0  0  0  0
 28 27  1  0  0  0  0
 29 27  2  0  0  0  0
 29 31  1  0  0  0  0
 30 29  1  0  0  0  0
 31 22  2  0  0  0  0
 32 31  1  0  0  0  0
M  END
$$$$
