CSD_code = BINYOM | q = 0 | S = 0 | Stoichiometry = C40H38Cl2P2Pt | MND = 4
 OpenBabel04212202013D

 83 88  0  0  0  0  0  0  0  0999 V2000
   -1.5848    1.4917    3.4826 Pt  0  0  0  0  0  0  0  0  0  0  0  0
    0.1080   -0.0907    3.3870 Cl  0  0  0  0  0  0  0  0  0  0  0  0
    0.2568    2.8054    3.1794 P   0  0  0  0  0  4  0  0  0  0  0  0
   -0.0189    4.5902    2.6920 C   0  0  0  0  0  0  0  0  0  0  0  0
    1.2076    5.2395    2.1461 C   0  0  0  0  0  0  0  0  0  0  0  0
    2.0723    5.9585    2.9628 C   0  0  0  0  0  0  0  0  0  0  0  0
    3.2316    6.5130    2.4490 C   0  0  0  0  0  0  0  0  0  0  0  0
    3.5404    6.3593    1.1090 C   0  0  0  0  0  0  0  0  0  0  0  0
    2.6755    5.6619    0.2820 C   0  0  0  0  0  0  0  0  0  0  0  0
    1.5191    5.1076    0.7963 C   0  0  0  0  0  0  0  0  0  0  0  0
    1.2827    2.9379    4.7053 C   0  0  0  0  0  0  0  0  0  0  0  0
    0.3539    3.0641    5.8740 C   0  0  0  0  0  0  0  0  0  0  0  0
   -0.1832    1.9172    6.4533 C   0  0  0  0  0  0  0  0  0  0  0  0
   -1.0381    2.0167    7.5379 C   0  0  0  0  0  0  0  0  0  0  0  0
   -1.4005    3.2598    8.0311 C   0  0  0  0  0  0  0  0  0  0  0  0
   -0.8856    4.4046    7.4487 C   0  0  0  0  0  0  0  0  0  0  0  0
   -0.0073    4.3059    6.3820 C   0  0  0  0  0  0  0  0  0  0  0  0
    1.4220    2.2727    1.8946 C   0  0  0  0  0  0  0  0  0  0  0  0
    2.7852    2.5335    1.9574 C   0  0  0  0  0  0  0  0  0  0  0  0
    3.6081    2.1412    0.9166 C   0  0  0  0  0  0  0  0  0  0  0  0
    3.0794    1.4964   -0.1884 C   0  0  0  0  0  0  0  0  0  0  0  0
    1.7208    1.2312   -0.2510 C   0  0  0  0  0  0  0  0  0  0  0  0
    0.8971    1.6161    0.7885 C   0  0  0  0  0  0  0  0  0  0  0  0
   -0.8079    4.5674    1.9348 H   0  0  0  0  0  0  0  0  0  0  0  0
   -0.3878    5.1091    3.5782 H   0  0  0  0  0  0  0  0  0  0  0  0
    1.8584    2.0113    4.7713 H   0  0  0  0  0  0  0  0  0  0  0  0
    1.9559    3.7942    4.6254 H   0  0  0  0  0  0  0  0  0  0  0  0
    1.8320    6.1010    4.0075 H   0  0  0  0  0  0  0  0  0  0  0  0
    3.8944    7.0671    3.0976 H   0  0  0  0  0  0  0  0  0  0  0  0
    4.4471    6.7880    0.7092 H   0  0  0  0  0  0  0  0  0  0  0  0
    2.9048    5.5469   -0.7669 H   0  0  0  0  0  0  0  0  0  0  0  0
    0.8450    4.5623    0.1512 H   0  0  0  0  0  0  0  0  0  0  0  0
    0.1044    0.9455    6.0765 H   0  0  0  0  0  0  0  0  0  0  0  0
   -1.4176    1.1199    8.0050 H   0  0  0  0  0  0  0  0  0  0  0  0
   -2.0758    3.3352    8.8706 H   0  0  0  0  0  0  0  0  0  0  0  0
   -1.1604    5.3781    7.8291 H   0  0  0  0  0  0  0  0  0  0  0  0
    0.4128    5.2058    5.9533 H   0  0  0  0  0  0  0  0  0  0  0  0
    3.2116    3.0398    2.8105 H   0  0  0  0  0  0  0  0  0  0  0  0
    4.6683    2.3413    0.9702 H   0  0  0  0  0  0  0  0  0  0  0  0
    3.7279    1.1925   -0.9970 H   0  0  0  0  0  0  0  0  0  0  0  0
    1.3080    0.7175   -1.1067 H   0  0  0  0  0  0  0  0  0  0  0  0
   -0.1620    1.3962    0.7715 H   0  0  0  0  0  0  0  0  0  0  0  0
   -3.2780   -0.0906    3.5786 Cl  0  0  0  0  0  0  0  0  0  0  0  0
   -3.4269    2.8054    3.7862 P   0  0  0  0  0  4  0  0  0  0  0  0
   -3.1511    4.5901    4.2736 C   0  0  0  0  0  0  0  0  0  0  0  0
   -4.4527    2.9379    2.2603 C   0  0  0  0  0  0  0  0  0  0  0  0
   -4.5920    2.2727    5.0710 C   0  0  0  0  0  0  0  0  0  0  0  0
   -4.3776    5.2395    4.8194 C   0  0  0  0  0  0  0  0  0  0  0  0
   -2.3621    4.5674    5.0308 H   0  0  0  0  0  0  0  0  0  0  0  0
   -2.7821    5.1091    3.3874 H   0  0  0  0  0  0  0  0  0  0  0  0
   -3.5239    3.0641    1.0916 C   0  0  0  0  0  0  0  0  0  0  0  0
   -5.0284    2.0112    2.1942 H   0  0  0  0  0  0  0  0  0  0  0  0
   -5.1259    3.7941    2.3403 H   0  0  0  0  0  0  0  0  0  0  0  0
   -5.9552    2.5335    5.0082 C   0  0  0  0  0  0  0  0  0  0  0  0
   -4.0671    1.6162    6.1772 C   0  0  0  0  0  0  0  0  0  0  0  0
   -5.2423    5.9585    4.0027 C   0  0  0  0  0  0  0  0  0  0  0  0
   -4.6891    5.1076    6.1693 C   0  0  0  0  0  0  0  0  0  0  0  0
   -2.9868    1.9173    0.5123 C   0  0  0  0  0  0  0  0  0  0  0  0
   -3.1627    4.3059    0.5836 C   0  0  0  0  0  0  0  0  0  0  0  0
   -6.7781    2.1412    6.0490 C   0  0  0  0  0  0  0  0  0  0  0  0
   -6.3816    3.0397    4.1551 H   0  0  0  0  0  0  0  0  0  0  0  0
   -4.8908    1.2313    7.2166 C   0  0  0  0  0  0  0  0  0  0  0  0
   -3.0080    1.3962    6.1942 H   0  0  0  0  0  0  0  0  0  0  0  0
   -6.4016    6.5130    4.5166 C   0  0  0  0  0  0  0  0  0  0  0  0
   -5.0020    6.1009    2.9581 H   0  0  0  0  0  0  0  0  0  0  0  0
   -5.8455    5.6619    6.6836 C   0  0  0  0  0  0  0  0  0  0  0  0
   -4.0150    4.5624    6.8144 H   0  0  0  0  0  0  0  0  0  0  0  0
   -2.1319    2.0168   -0.5723 C   0  0  0  0  0  0  0  0  0  0  0  0
   -3.2743    0.9455    0.8891 H   0  0  0  0  0  0  0  0  0  0  0  0
   -2.2844    4.4046   -0.4830 C   0  0  0  0  0  0  0  0  0  0  0  0
   -3.5828    5.2058    1.0123 H   0  0  0  0  0  0  0  0  0  0  0  0
   -6.2494    1.4964    7.1541 C   0  0  0  0  0  0  0  0  0  0  0  0
   -7.8383    2.3412    5.9954 H   0  0  0  0  0  0  0  0  0  0  0  0
   -4.4780    0.7176    8.0724 H   0  0  0  0  0  0  0  0  0  0  0  0
   -6.7104    6.3594    5.8566 C   0  0  0  0  0  0  0  0  0  0  0  0
   -7.0644    7.0670    3.8679 H   0  0  0  0  0  0  0  0  0  0  0  0
   -6.0747    5.5470    7.7325 H   0  0  0  0  0  0  0  0  0  0  0  0
   -1.7695    3.2599   -1.0655 C   0  0  0  0  0  0  0  0  0  0  0  0
   -1.7524    1.1199   -1.0394 H   0  0  0  0  0  0  0  0  0  0  0  0
   -2.0096    5.3782   -0.8635 H   0  0  0  0  0  0  0  0  0  0  0  0
   -6.8979    1.1925    7.9626 H   0  0  0  0  0  0  0  0  0  0  0  0
   -7.6170    6.7880    6.2563 H   0  0  0  0  0  0  0  0  0  0  0  0
   -1.0943    3.3353   -1.9050 H   0  0  0  0  0  0  0  0  0  0  0  0
  1 43  1  0  0  0  0
  1 44  1  0  0  0  0
  2  1  1  0  0  0  0
  3  1  1  0  0  0  0
  3 11  1  0  0  0  0
  4  3  1  0  0  0  0
  4 25  1  0  0  0  0
  5  4  1  0  0  0  0
  5  6  1  0  0  0  0
  6 28  1  0  0  0  0
  7  6  2  0  0  0  0
  7 29  1  0  0  0  0
  8  7  1  0  0  0  0
  9 10  1  0  0  0  0
  9  8  2  0  0  0  0
 10  5  2  0  0  0  0
 11 26  1  0  0  0  0
 11 12  1  0  0  0  0
 12 17  2  0  0  0  0
 12 13  1  0  0  0  0
 13 14  2  0  0  0  0
 14 34  1  0  0  0  0
 14 15  1  0  0  0  0
 15 35  1  0  0  0  0
 16 36  1  0  0  0  0
 16 15  2  0  0  0  0
 17 16  1  0  0  0  0
 18 19  1  0  0  0  0
 18  3  1  0  0  0  0
 19 38  1  0  0  0  0
 20 39  1  0  0  0  0
 20 19  2  0  0  0  0
 21 20  1  0  0  0  0
 22 21  2  0  0  0  0
 22 23  1  0  0  0  0
 23 18  2  0  0  0  0
 24  4  1  0  0  0  0
 27 11  1  0  0  0  0
 30  8  1  0  0  0  0
 31  9  1  0  0  0  0
 32 10  1  0  0  0  0
 33 13  1  0  0  0  0
 37 17  1  0  0  0  0
 40 21  1  0  0  0  0
 41 22  1  0  0  0  0
 42 23  1  0  0  0  0
 44 45  1  0  0  0  0
 44 47  1  0  0  0  0
 45 48  1  0  0  0  0
 45 49  1  0  0  0  0
 46 53  1  0  0  0  0
 46 44  1  0  0  0  0
 47 55  1  0  0  0  0
 48 57  1  0  0  0  0
 50 45  1  0  0  0  0
 51 46  1  0  0  0  0
 52 46  1  0  0  0  0
 54 47  2  0  0  0  0
 54 60  1  0  0  0  0
 55 63  1  0  0  0  0
 55 62  2  0  0  0  0
 56 64  1  0  0  0  0
 56 48  2  0  0  0  0
 57 66  2  0  0  0  0
 57 67  1  0  0  0  0
 58 69  1  0  0  0  0
 58 51  2  0  0  0  0
 59 71  1  0  0  0  0
 59 51  1  0  0  0  0
 60 72  2  0  0  0  0
 61 54  1  0  0  0  0
 62 74  1  0  0  0  0
 64 75  2  0  0  0  0
 65 56  1  0  0  0  0
 66 77  1  0  0  0  0
 68 58  1  0  0  0  0
 70 59  2  0  0  0  0
 72 62  1  0  0  0  0
 72 81  1  0  0  0  0
 73 60  1  0  0  0  0
 75 82  1  0  0  0  0
 75 66  1  0  0  0  0
 76 64  1  0  0  0  0
 78 68  2  0  0  0  0
 78 70  1  0  0  0  0
 79 68  1  0  0  0  0
 80 70  1  0  0  0  0
 83 78  1  0  0  0  0
M  END
$$$$
