CSD_code = BIPBUZ | q = 0 | S = 0 | Stoichiometry = C20H18CdCl2N6O2 | MND = 6
 OpenBabel04212202013D

 49 54  0  0  0  0  0  0  0  0999 V2000
   -0.2750    6.8149    1.8699 Cd  0  0  0  0  0  0  0  0  0  0  0  0
    0.2649    5.5751   -0.0900 Cl  0  0  0  0  0  0  0  0  0  0  0  0
   -2.4172    7.2844    1.2384 N   0  0  0  0  0  0  0  0  0  0  0  0
   -0.2523    8.8458    0.3912 N   0  0  0  0  0  0  0  0  0  0  0  0
   -4.5555    7.6333    0.9480 N   0  0  0  0  0  0  0  0  0  0  0  0
   -5.5536    7.5054    1.0032 H   0  0  0  0  0  0  0  0  0  0  0  0
    2.2679    7.7397   -0.4163 O   0  0  0  0  0  0  0  0  0  0  0  0
   -3.6095    6.8244    1.4777 C   0  0  0  0  0  3  0  0  0  0  0  0
   -3.8210    5.9315    2.0344 H   0  0  0  0  0  0  0  0  0  0  0  0
   -1.4363    9.2307    0.1219 C   0  0  0  0  0  3  0  0  0  0  0  0
   -1.6563   10.1601   -0.4142 H   0  0  0  0  0  0  0  0  0  0  0  0
   -2.5691    8.4421    0.5241 C   0  0  0  0  0  0  0  0  0  0  0  0
    0.8593    9.6395    0.1682 C   0  0  0  0  0  0  0  0  0  0  0  0
    2.0937    9.0361   -0.1598 C   0  0  0  0  0  0  0  0  0  0  0  0
   -3.9156    8.6677    0.3387 C   0  0  0  0  0  0  0  0  0  0  0  0
   -4.4374    9.4572   -0.1614 H   0  0  0  0  0  0  0  0  0  0  0  0
    3.2264    9.8515   -0.2481 C   0  0  0  0  0  0  0  0  0  0  0  0
    4.1606    9.3753   -0.5038 H   0  0  0  0  0  0  0  0  0  0  0  0
    0.8128   11.0219    0.3755 C   0  0  0  0  0  0  0  0  0  0  0  0
   -0.1314   11.4698    0.6515 H   0  0  0  0  0  0  0  0  0  0  0  0
    1.9467   11.8017    0.2940 C   0  0  0  0  0  0  0  0  0  0  0  0
    1.8878   12.8635    0.4789 H   0  0  0  0  0  0  0  0  0  0  0  0
    3.1608   11.2093   -0.0214 C   0  0  0  0  0  0  0  0  0  0  0  0
    4.0560   11.8093   -0.0883 H   0  0  0  0  0  0  0  0  0  0  0  0
    1.4506    7.1708   -0.3609 H   0  0  0  0  0  0  0  0  0  0  0  0
   -0.8149    5.5752    3.8297 Cl  0  0  0  0  0  0  0  0  0  0  0  0
    1.8671    7.2844    2.5014 N   0  0  0  0  0  0  0  0  0  0  0  0
   -0.2978    8.8459    3.3486 N   0  0  0  0  0  0  0  0  0  0  0  0
    4.0054    7.6333    2.7919 N   0  0  0  0  0  0  0  0  0  0  0  0
    5.0035    7.5053    2.7368 H   0  0  0  0  0  0  0  0  0  0  0  0
   -2.8180    7.7397    4.1560 O   0  0  0  0  0  0  0  0  0  0  0  0
    3.0594    6.8244    2.2621 C   0  0  0  0  0  3  0  0  0  0  0  0
    3.2709    5.9315    1.7054 H   0  0  0  0  0  0  0  0  0  0  0  0
    0.8862    9.2307    3.6179 C   0  0  0  0  0  3  0  0  0  0  0  0
    1.1061   10.1601    4.1540 H   0  0  0  0  0  0  0  0  0  0  0  0
    2.0190    8.4421    3.2157 C   0  0  0  0  0  0  0  0  0  0  0  0
   -1.4094    9.6395    3.5716 C   0  0  0  0  0  0  0  0  0  0  0  0
   -2.6438    9.0361    3.8996 C   0  0  0  0  0  0  0  0  0  0  0  0
    3.3655    8.6676    3.4012 C   0  0  0  0  0  0  0  0  0  0  0  0
    3.8873    9.4571    3.9014 H   0  0  0  0  0  0  0  0  0  0  0  0
   -3.7765    9.8515    3.9879 C   0  0  0  0  0  0  0  0  0  0  0  0
   -4.7107    9.3753    4.2435 H   0  0  0  0  0  0  0  0  0  0  0  0
   -1.3629   11.0219    3.3643 C   0  0  0  0  0  0  0  0  0  0  0  0
   -0.4187   11.4698    3.0883 H   0  0  0  0  0  0  0  0  0  0  0  0
   -2.4968   11.8017    3.4458 C   0  0  0  0  0  0  0  0  0  0  0  0
   -2.4379   12.8635    3.2610 H   0  0  0  0  0  0  0  0  0  0  0  0
   -3.7109   11.2093    3.7612 C   0  0  0  0  0  0  0  0  0  0  0  0
   -4.6061   11.8093    3.8281 H   0  0  0  0  0  0  0  0  0  0  0  0
   -2.0007    7.1708    4.1006 H   0  0  0  0  0  0  0  0  0  0  0  0
  1 27  1  0  0  0  0
  1 28  1  0  0  0  0
  1 26  1  0  0  0  0
  2  1  1  0  0  0  0
  3  8  1  0  0  0  0
  3  1  1  0  0  0  0
  4  1  1  0  0  0  0
  5  6  1  0  0  0  0
  5  8  1  0  0  0  0
  7 25  1  0  0  0  0
  7 14  1  0  0  0  0
  8  9  1  0  0  0  0
 10  4  1  0  0  0  0
 10 12  1  0  0  0  0
 11 10  1  0  0  0  0
 12  3  1  0  0  0  0
 13 19  1  0  0  0  0
 13  4  1  0  0  0  0
 14 13  2  0  0  0  0
 15 12  2  0  0  0  0
 15  5  1  0  0  0  0
 16 15  1  0  0  0  0
 17 14  1  0  0  0  0
 17 23  2  0  0  0  0
 18 17  1  0  0  0  0
 19 20  1  0  0  0  0
 21 19  2  0  0  0  0
 21 22  1  0  0  0  0
 23 21  1  0  0  0  0
 24 23  1  0  0  0  0
 27 36  1  0  0  0  0
 28 37  1  0  0  0  0
 28 34  1  0  0  0  0
 29 39  1  0  0  0  0
 30 29  1  0  0  0  0
 32 27  1  0  0  0  0
 32 29  1  0  0  0  0
 33 32  1  0  0  0  0
 34 35  1  0  0  0  0
 36 39  2  0  0  0  0
 36 34  1  0  0  0  0
 37 38  1  0  0  0  0
 38 41  2  0  0  0  0
 38 31  1  0  0  0  0
 39 40  1  0  0  0  0
 41 42  1  0  0  0  0
 43 45  1  0  0  0  0
 43 37  2  0  0  0  0
 44 43  1  0  0  0  0
 45 47  2  0  0  0  0
 46 45  1  0  0  0  0
 47 48  1  0  0  0  0
 47 41  1  0  0  0  0
 49 31  1  0  0  0  0
M  END
$$$$
