CSD_code = BIQFOY | q = 1 | S = 0 | Stoichiometry = C36H29ClN2OPRuS(1+) | MND = 6
 OpenBabel04212202013D

 72 79  0  0  1  0  0  0  0  0999 V2000
    1.6928   13.4505    2.4920 Ru  0  0  0  0  0  0  0  0  0  0  0  0
    0.6824   11.3403    2.9955 Cl  0  0  0  0  0  0  0  0  0  0  0  0
    3.0083   12.3740    0.7977 S   0  0  2  0  0  3  0  0  0  0  0  0
    3.5054   13.0322    3.9909 P   0  0  0  0  0  4  0  0  0  0  0  0
   -0.7954   13.5241    0.8170 O   0  0  0  0  0  1  0  0  0  0  0  0
    0.9568   14.8097    3.9183 N   0  0  0  0  0  0  0  0  0  0  0  0
    2.5488   15.1028    1.8767 N   0  0  0  0  0  0  0  0  0  0  0  0
    0.1717   13.5704    1.4133 C   0  0  0  0  0  2  0  0  0  0  0  0
    0.0431   14.6553    4.9068 C   0  0  2  0  0  3  0  0  0  0  0  0
   -0.8412   13.5579    4.8979 C   0  0  0  0  0  0  0  0  0  0  0  0
   -0.8050   12.8642    4.0704 H   0  0  0  0  0  0  0  0  0  0  0  0
   -1.7396   13.3798    5.9155 C   0  0  0  0  0  0  0  0  0  0  0  0
   -2.4132   12.5375    5.8914 H   0  0  0  0  0  0  0  0  0  0  0  0
   -1.8013   14.2848    6.9854 C   0  0  0  0  0  0  0  0  0  0  0  0
   -2.5082   14.1200    7.7835 H   0  0  0  0  0  0  0  0  0  0  0  0
   -0.9890   15.3869    6.9993 C   0  0  0  0  0  0  0  0  0  0  0  0
   -1.0526   16.1116    7.7967 H   0  0  0  0  0  0  0  0  0  0  0  0
   -0.0695   15.6133    5.9598 C   0  0  0  0  0  0  0  0  0  0  0  0
    0.7315   16.7745    5.8998 C   0  0  0  0  0  0  0  0  0  0  0  0
    0.6657   17.5048    6.6916 H   0  0  0  0  0  0  0  0  0  0  0  0
    1.5463   16.9681    4.8248 C   0  0  0  0  0  0  0  0  0  0  0  0
    2.1387   17.8620    4.7137 H   0  0  0  0  0  0  0  0  0  0  0  0
    1.6490   15.9583    3.8401 C   0  0  0  0  0  0  0  0  0  0  0  0
    2.4743   16.1175    2.6844 C   0  0  0  0  0  3  0  0  0  0  0  0
    2.9760   17.0609    2.5055 H   0  0  0  0  0  0  0  0  0  0  0  0
    3.2073   15.1327    0.6499 C   0  0  0  0  0  0  0  0  0  0  0  0
    3.6024   16.3123    0.0113 C   0  0  0  0  0  0  0  0  0  0  0  0
    3.4072   17.2675    0.4718 H   0  0  0  0  0  0  0  0  0  0  0  0
    4.2130   16.2722   -1.2271 C   0  0  0  0  0  0  0  0  0  0  0  0
    4.5042   17.1945   -1.7045 H   0  0  0  0  0  0  0  0  0  0  0  0
    4.4452   15.0606   -1.8595 C   0  0  0  0  0  0  0  0  0  0  0  0
    4.9233   15.0329   -2.8255 H   0  0  0  0  0  0  0  0  0  0  0  0
    4.0620   13.8806   -1.2450 C   0  0  0  0  0  0  0  0  0  0  0  0
    4.2458   12.9314   -1.7231 H   0  0  0  0  0  0  0  0  0  0  0  0
    3.4373   13.9159   -0.0107 C   0  0  0  0  0  0  0  0  0  0  0  0
    1.9124   11.6015   -0.4306 C   0  0  0  0  0  0  0  0  0  0  0  0
    2.5144   11.0503   -1.1474 H   0  0  0  0  0  0  0  0  0  0  0  0
    1.3122   12.3581   -0.9263 H   0  0  0  0  0  0  0  0  0  0  0  0
    1.2784   10.9139    0.1259 H   0  0  0  0  0  0  0  0  0  0  0  0
    3.1410   12.9745    5.7704 C   0  0  0  0  0  0  0  0  0  0  0  0
    4.0592   13.3680    6.7406 C   0  0  0  0  0  0  0  0  0  0  0  0
    5.0273   13.7549    6.4566 H   0  0  0  0  0  0  0  0  0  0  0  0
    3.7308   13.2560    8.0791 C   0  0  0  0  0  0  0  0  0  0  0  0
    4.4424   13.5644    8.8302 H   0  0  0  0  0  0  0  0  0  0  0  0
    2.4999   12.7431    8.4582 C   0  0  0  0  0  0  0  0  0  0  0  0
    2.2512   12.6619    9.5053 H   0  0  0  0  0  0  0  0  0  0  0  0
    1.6012   12.3156    7.4952 C   0  0  0  0  0  0  0  0  0  0  0  0
    0.6525   11.8907    7.7864 H   0  0  0  0  0  0  0  0  0  0  0  0
    1.9219   12.4225    6.1543 C   0  0  0  0  0  0  0  0  0  0  0  0
    1.2397   12.0580    5.3988 H   0  0  0  0  0  0  0  0  0  0  0  0
    4.7194   14.3692    3.7644 C   0  0  0  0  0  0  0  0  0  0  0  0
    5.5755   14.2838    2.6667 C   0  0  0  0  0  0  0  0  0  0  0  0
    5.5861   13.3794    2.0698 H   0  0  0  0  0  0  0  0  0  0  0  0
    6.4158   15.3348    2.3525 C   0  0  0  0  0  0  0  0  0  0  0  0
    7.0821   15.2559    1.5069 H   0  0  0  0  0  0  0  0  0  0  0  0
    6.4025   16.4875    3.1234 C   0  0  0  0  0  0  0  0  0  0  0  0
    7.0621   17.3064    2.8811 H   0  0  0  0  0  0  0  0  0  0  0  0
    5.5442   16.5854    4.2060 C   0  0  0  0  0  0  0  0  0  0  0  0
    5.5335   17.4815    4.8085 H   0  0  0  0  0  0  0  0  0  0  0  0
    4.6945   15.5378    4.5205 C   0  0  0  0  0  0  0  0  0  0  0  0
    4.0204   15.6234    5.3622 H   0  0  0  0  0  0  0  0  0  0  0  0
    4.5315   11.5373    3.8205 C   0  0  0  0  0  0  0  0  0  0  0  0
    5.8384   11.5340    4.3044 C   0  0  0  0  0  0  0  0  0  0  0  0
    6.2656   12.4335    4.7251 H   0  0  0  0  0  0  0  0  0  0  0  0
    6.5942   10.3797    4.2346 C   0  0  0  0  0  0  0  0  0  0  0  0
    7.6076   10.3812    4.6065 H   0  0  0  0  0  0  0  0  0  0  0  0
    6.0534    9.2229    3.6943 C   0  0  0  0  0  0  0  0  0  0  0  0
    6.6477    8.3234    3.6449 H   0  0  0  0  0  0  0  0  0  0  0  0
    4.7509    9.2208    3.2250 C   0  0  0  0  0  0  0  0  0  0  0  0
    4.3243    8.3193    2.8125 H   0  0  0  0  0  0  0  0  0  0  0  0
    3.9873   10.3733    3.2885 C   0  0  0  0  0  0  0  0  0  0  0  0
    2.9643   10.3639    2.9377 H   0  0  0  0  0  0  0  0  0  0  0  0
  1  2  1  0  0  0  0
  1  6  1  0  0  0  0
  1  4  1  0  0  0  0
  3 36  1  6  0  0  0
  3  1  1  0  0  0  0
  4 40  1  0  0  0  0
  5  8  1  0  0  0  0
  6  9  1  0  0  0  0
  7  1  1  0  0  0  0
  7 24  1  0  0  0  0
  8  1  1  0  0  0  0
  9 10  1  6  0  0  0
  9 18  1  0  0  0  0
 10 12  2  0  0  0  0
 11 10  1  0  0  0  0
 12 14  1  0  0  0  0
 13 12  1  0  0  0  0
 14 16  2  0  0  0  0
 14 15  1  0  0  0  0
 16 17  1  0  0  0  0
 18 16  1  0  0  0  0
 19 18  2  0  0  0  0
 19 20  1  0  0  0  0
 21 19  1  0  0  0  0
 22 21  1  0  0  0  0
 23  6  1  0  0  0  0
 23 21  2  0  0  0  0
 24 23  1  0  0  0  0
 25 24  1  0  0  0  0
 26  7  1  0  0  0  0
 27 28  1  0  0  0  0
 27 26  1  0  0  0  0
 29 27  2  0  0  0  0
 30 29  1  0  0  0  0
 31 33  2  0  0  0  0
 31 29  1  0  0  0  0
 32 31  1  0  0  0  0
 33 35  1  0  0  0  0
 34 33  1  0  0  0  0
 35 26  2  0  0  0  0
 35  3  1  0  0  0  0
 36 39  1  0  0  0  0
 37 36  1  0  0  0  0
 38 36  1  0  0  0  0
 40 49  2  0  0  0  0
 40 41  1  0  0  0  0
 41 43  2  0  0  0  0
 42 41  1  0  0  0  0
 43 45  1  0  0  0  0
 43 44  1  0  0  0  0
 45 46  1  0  0  0  0
 47 48  1  0  0  0  0
 47 45  2  0  0  0  0
 49 47  1  0  0  0  0
 50 49  1  0  0  0  0
 51  4  1  0  0  0  0
 51 60  1  0  0  0  0
 52 51  2  0  0  0  0
 53 52  1  0  0  0  0
 54 52  1  0  0  0  0
 54 56  2  0  0  0  0
 55 54  1  0  0  0  0
 56 58  1  0  0  0  0
 57 56  1  0  0  0  0
 58 60  2  0  0  0  0
 58 59  1  0  0  0  0
 60 61  1  0  0  0  0
 62  4  1  0  0  0  0
 62 63  1  0  0  0  0
 63 64  1  0  0  0  0
 65 63  2  0  0  0  0
 65 66  1  0  0  0  0
 67 65  1  0  0  0  0
 68 67  1  0  0  0  0
 69 71  1  0  0  0  0
 69 67  2  0  0  0  0
 70 69  1  0  0  0  0
 71 62  2  0  0  0  0
 72 71  1  0  0  0  0
M  END
$$$$
