CSD_code = BIQYEI | q = 0 | S = 0 | Stoichiometry = C29H41ClNOPPd | MND = 4
 OpenBabel04212202013D

 75 79  0  0  1  0  0  0  0  0999 V2000
    4.5680    9.3122    5.0053 C   0  0  0  0  0  0  0  0  0  0  0  0
    5.3196    8.5454    5.2246 H   0  0  0  0  0  0  0  0  0  0  0  0
    3.5787    8.9132    5.2721 H   0  0  0  0  0  0  0  0  0  0  0  0
    4.5843    9.6736    3.5348 C   0  0  1  0  0  0  0  0  0  0  0  0
    5.9627   10.0651    2.9516 C   0  0  0  0  0  0  0  0  0  0  0  0
    6.7194    9.3477    3.2732 H   0  0  0  0  0  0  0  0  0  0  0  0
    6.2571   11.0659    3.2990 H   0  0  0  0  0  0  0  0  0  0  0  0
    5.7281   10.0114    1.4283 C   0  0  0  0  0  0  0  0  0  0  0  0
    6.0140   10.9299    0.9215 H   0  0  0  0  0  0  0  0  0  0  0  0
    6.2993    9.1974    0.9789 H   0  0  0  0  0  0  0  0  0  0  0  0
    7.2261   11.5960    7.6002 H   0  0  0  0  0  0  0  0  0  0  0  0
    4.2268    9.7020    1.3093 C   0  0  1  0  0  0  0  0  0  0  0  0
    3.9330    9.3518    0.3199 H   0  0  0  0  0  0  0  0  0  0  0  0
    4.0674    8.7015    2.4575 C   0  0  0  0  0  0  0  0  0  0  0  0
    4.7044    7.8256    2.3478 H   0  0  0  0  0  0  0  0  0  0  0  0
    3.0445    8.3770    2.6365 H   0  0  0  0  0  0  0  0  0  0  0  0
    3.3857   10.9125    1.7946 C   0  0  0  0  0  0  0  0  0  0  0  0
    3.7748   12.2538    1.1649 C   0  0  0  0  0  0  0  0  0  0  0  0
    3.0530   13.0146    1.4511 H   0  0  0  0  0  0  0  0  0  0  0  0
    3.7818   12.1666    0.0801 H   0  0  0  0  0  0  0  0  0  0  0  0
    4.7530   12.5875    1.5003 H   0  0  0  0  0  0  0  0  0  0  0  0
    1.8876   10.6878    1.5535 C   0  0  0  0  0  0  0  0  0  0  0  0
    1.5527    9.7334    1.9506 H   0  0  0  0  0  0  0  0  0  0  0  0
    1.6819   10.7092    0.4853 H   0  0  0  0  0  0  0  0  0  0  0  0
    1.3157   11.4781    2.0339 H   0  0  0  0  0  0  0  0  0  0  0  0
    3.7246   10.8742    3.2619 C   0  0  2  0  0  3  0  0  0  0  0  0
    2.2625   13.4151    5.1505 C   0  0  0  0  0  0  0  0  0  0  0  0
    1.6048   14.2211    4.8336 H   0  0  0  0  0  0  0  0  0  0  0  0
    3.1413   13.8271    5.6582 H   0  0  0  0  0  0  0  0  0  0  0  0
    1.7225   12.7324    5.8184 H   0  0  0  0  0  0  0  0  0  0  0  0
    7.1980    9.1866    7.1431 C   0  0  0  0  0  0  0  0  0  0  0  0
    8.2476    9.3144    6.2204 C   0  0  0  0  0  0  0  0  0  0  0  0
    9.0295    8.2096    5.9243 C   0  0  0  0  0  0  0  0  0  0  0  0
    9.8421    8.3117    5.2182 H   0  0  0  0  0  0  0  0  0  0  0  0
    8.7847    6.9720    6.5037 C   0  0  0  0  0  0  0  0  0  0  0  0
    7.6988    6.8474    7.3572 C   0  0  0  0  0  0  0  0  0  0  0  0
    7.4654    5.8797    7.7791 H   0  0  0  0  0  0  0  0  0  0  0  0
    6.8892    7.9296    7.6703 C   0  0  0  0  0  0  0  0  0  0  0  0
    8.5047   10.6185    5.5296 C   0  0  0  0  0  0  0  0  0  0  0  0
    7.5533   11.0998    5.2567 H   0  0  0  0  0  0  0  0  0  0  0  0
    9.0930   10.4637    4.6273 H   0  0  0  0  0  0  0  0  0  0  0  0
    9.0547   11.3026    6.1779 H   0  0  0  0  0  0  0  0  0  0  0  0
    9.6674    5.8008    6.1986 C   0  0  0  0  0  0  0  0  0  0  0  0
   10.5796    5.8595    6.7931 H   0  0  0  0  0  0  0  0  0  0  0  0
    9.9537    5.7952    5.1490 H   0  0  0  0  0  0  0  0  0  0  0  0
    9.1682    4.8643    6.4343 H   0  0  0  0  0  0  0  0  0  0  0  0
    5.6840    7.7282    8.5353 C   0  0  0  0  0  0  0  0  0  0  0  0
    5.8796    8.0394    9.5610 H   0  0  0  0  0  0  0  0  0  0  0  0
    5.3965    6.6791    8.5461 H   0  0  0  0  0  0  0  0  0  0  0  0
    4.8517    8.3179    8.1513 H   0  0  0  0  0  0  0  0  0  0  0  0
    5.5761   10.7218    9.1415 C   0  0  0  0  0  0  0  0  0  0  0  0
    6.4945   10.6676   10.2006 C   0  0  0  0  0  0  0  0  0  0  0  0
    6.0293   10.7213   11.5062 C   0  0  0  0  0  0  0  0  0  0  0  0
    6.7402   10.6724   12.3194 H   0  0  0  0  0  0  0  0  0  0  0  0
    4.6791   10.8434   11.7940 C   0  0  0  0  0  0  0  0  0  0  0  0
    3.7865   10.9249   10.7357 C   0  0  0  0  0  0  0  0  0  0  0  0
    2.7326   11.0391   10.9480 H   0  0  0  0  0  0  0  0  0  0  0  0
    4.2076   10.8700    9.4158 C   0  0  0  0  0  0  0  0  0  0  0  0
    3.1818   11.0017    8.3295 C   0  0  0  0  0  0  0  0  0  0  0  0
    3.1967   10.1308    7.6579 H   0  0  0  0  0  0  0  0  0  0  0  0
    3.3848   11.9153    7.7457 H   0  0  0  0  0  0  0  0  0  0  0  0
    2.1863   11.0870    8.7612 H   0  0  0  0  0  0  0  0  0  0  0  0
    7.9702   10.5774    9.9624 C   0  0  0  0  0  0  0  0  0  0  0  0
    8.4945   10.3720   10.8929 H   0  0  0  0  0  0  0  0  0  0  0  0
    8.3404   11.5248    9.5679 H   0  0  0  0  0  0  0  0  0  0  0  0
    8.2118    9.7953    9.2444 H   0  0  0  0  0  0  0  0  0  0  0  0
    4.1921   10.9203   13.2078 C   0  0  0  0  0  0  0  0  0  0  0  0
    4.0191   11.9612   13.4823 H   0  0  0  0  0  0  0  0  0  0  0  0
    4.9235   10.5048   13.8965 H   0  0  0  0  0  0  0  0  0  0  0  0
    3.2522   10.3845   13.3222 H   0  0  0  0  0  0  0  0  0  0  0  0
    5.3668   13.3794    6.5260 Cl  0  0  0  0  0  0  0  0  0  0  0  0
    3.4664   11.6656    4.2191 N   0  0  0  0  0  0  0  0  0  0  0  0
    2.6351   12.7487    3.9581 O   0  0  0  0  0  0  0  0  0  0  0  0
    6.1975   10.6839    7.4294 P   0  0  0  0  0  4  0  0  0  0  0  0
    4.8181   11.1864    5.7876 Pd  0  0  1  0  0  0  0  0  0  0  0  0
  1  2  1  0  0  0  0
  1  3  1  0  0  0  0
  1 75  1  0  0  0  0
  4 14  1  6  0  0  0
  4  1  1  0  0  0  0
  5  6  1  0  0  0  0
  5  7  1  0  0  0  0
  5  4  1  0  0  0  0
  8  5  1  0  0  0  0
  9  8  1  0  0  0  0
 10  8  1  0  0  0  0
 12 13  1  6  0  0  0
 12  8  1  0  0  0  0
 12 17  1  0  0  0  0
 12 14  1  0  0  0  0
 14 16  1  0  0  0  0
 15 14  1  0  0  0  0
 18 19  1  0  0  0  0
 18 21  1  0  0  0  0
 18 17  1  0  0  0  0
 20 18  1  0  0  0  0
 22 17  1  0  0  0  0
 22 23  1  0  0  0  0
 22 25  1  0  0  0  0
 24 22  1  0  0  0  0
 26 17  1  6  0  0  0
 26  4  1  0  0  0  0
 26 72  1  0  0  0  0
 27 29  1  0  0  0  0
 27 30  1  0  0  0  0
 28 27  1  0  0  0  0
 31 74  1  0  0  0  0
 31 38  1  0  0  0  0
 32 31  2  0  0  0  0
 33 32  1  0  0  0  0
 33 35  2  0  0  0  0
 34 33  1  0  0  0  0
 35 36  1  0  0  0  0
 36 38  2  0  0  0  0
 36 37  1  0  0  0  0
 38 47  1  0  0  0  0
 39 42  1  0  0  0  0
 39 32  1  0  0  0  0
 40 39  1  0  0  0  0
 41 39  1  0  0  0  0
 43 46  1  0  0  0  0
 43 35  1  0  0  0  0
 43 44  1  0  0  0  0
 45 43  1  0  0  0  0
 47 49  1  0  0  0  0
 47 48  1  0  0  0  0
 50 47  1  0  0  0  0
 51 58  2  0  0  0  0
 51 52  1  0  0  0  0
 52 53  2  0  0  0  0
 53 55  1  0  0  0  0
 53 54  1  0  0  0  0
 55 67  1  0  0  0  0
 56 57  1  0  0  0  0
 56 55  2  0  0  0  0
 58 56  1  0  0  0  0
 59 62  1  0  0  0  0
 59 58  1  0  0  0  0
 60 59  1  0  0  0  0
 61 59  1  0  0  0  0
 63 52  1  0  0  0  0
 63 64  1  0  0  0  0
 65 63  1  0  0  0  0
 66 63  1  0  0  0  0
 67 70  1  0  0  0  0
 67 68  1  0  0  0  0
 67 69  1  0  0  0  0
 72 75  1  0  0  0  0
 73 72  1  0  0  0  0
 73 27  1  0  0  0  0
 74 11  1  0  0  0  0
 74 51  1  0  0  0  0
 75 71  1  6  0  0  0
 75 74  1  0  0  0  0
M  END
$$$$
