CSD_code = BIRMAT | q = 0 | S = 0 | Stoichiometry = C28H35B10Cl2NP2Pd | MND = 4
 OpenBabel04212202013D

 79 86  0  0  1  0  0  0  0  0999 V2000
    2.5915    4.6461    3.7956 Pd  0  0  0  0  0  0  0  0  0  0  0  0
    4.3279    5.2173    5.1194 Cl  0  0  0  0  0  0  0  0  0  0  0  0
    1.5975    3.4525    5.4817 Cl  0  0  0  0  0  0  0  0  0  0  0  0
    1.6325    4.0540    1.1725 P   0  0  0  0  0  4  0  0  0  0  0  0
    3.8751    5.5032    2.1700 P   0  0  0  0  0  4  0  0  0  0  0  0
    0.8975    4.4357    2.5127 N   0  0  0  0  0  0  0  0  0  0  0  0
   -0.0726    5.5152    2.7497 B   0  0  0  0  0  2  0  0  0  0  0  0
   -1.6229    5.7147    1.9587 B   0  0  2  0  0  0  0  0  0  0  0  0
   -1.9013    4.9645    1.0928 H   0  0  0  0  0  0  0  0  0  0  0  0
   -2.8435    6.1548    3.1538 B   0  0  2  0  0  0  0  0  0  0  0  0
   -3.9198    5.6923    3.0596 H   0  0  0  0  0  0  0  0  0  0  0  0
   -2.0812    6.2511    4.7354 B   0  0  0  0  0  0  0  0  0  0  0  0
   -2.5439    5.8125    5.7197 H   0  0  0  0  0  0  0  0  0  0  0  0
    0.3698    7.0666    3.5042 B   0  0  2  0  0  0  0  0  0  0  0  0
    1.5244    7.2319    3.7595 H   0  0  0  0  0  0  0  0  0  0  0  0
   -0.3918    7.0117    1.8956 B   0  0  0  0  0  2  0  0  0  0  0  0
    0.1920    7.2597    0.8964 H   0  0  0  0  0  0  0  0  0  0  0  0
   -2.1164    7.4096    2.1171 B   0  0  0  0  0  0  0  0  0  0  0  0
   -2.7344    7.9435    1.2700 H   0  0  0  0  0  0  0  0  0  0  0  0
   -2.4071    7.7374    3.8503 B   0  0  0  0  0  2  0  0  0  0  0  0
   -3.2188    8.5035    4.2179 H   0  0  0  0  0  0  0  0  0  0  0  0
   -0.8545    7.5135    4.6927 B   0  0  0  0  0  0  0  0  0  0  0  0
   -0.5134    7.9995    5.7048 H   0  0  0  0  0  0  0  0  0  0  0  0
   -0.8746    8.2583    3.0808 B   0  0  1  0  0  0  0  0  0  0  0  0
   -0.6128    9.3931    2.9145 H   0  0  0  0  0  0  0  0  0  0  0  0
   -1.5599    5.1054    3.5559 C   0  0  2  0  0  0  0  0  0  0  0  0
   -0.4555    5.8832    4.3972 C   0  0  2  0  0  0  0  0  0  0  0  0
   -1.7469    3.6369    3.8571 C   0  0  0  0  0  0  0  0  0  0  0  0
   -1.9035    3.0775    2.9350 H   0  0  0  0  0  0  0  0  0  0  0  0
   -2.6062    3.4679    4.5046 H   0  0  0  0  0  0  0  0  0  0  0  0
   -0.8623    3.2315    4.3517 H   0  0  0  0  0  0  0  0  0  0  0  0
    2.8644    5.3284    0.6151 C   0  0  0  0  0  0  0  0  0  0  0  0
    2.3198    6.2544    0.4162 H   0  0  0  0  0  0  0  0  0  0  0  0
    3.4501    5.0453   -0.2589 H   0  0  0  0  0  0  0  0  0  0  0  0
    0.4923    3.7409   -0.2059 C   0  0  0  0  0  0  0  0  0  0  0  0
    0.2770    4.6254   -1.2523 C   0  0  0  0  0  0  0  0  0  0  0  0
    0.8584    5.5320   -1.3273 H   0  0  0  0  0  0  0  0  0  0  0  0
   -0.6902    4.3434   -2.2015 C   0  0  0  0  0  0  0  0  0  0  0  0
   -0.8610    5.0328   -3.0146 H   0  0  0  0  0  0  0  0  0  0  0  0
   -1.4428    3.1848   -2.1066 C   0  0  0  0  0  0  0  0  0  0  0  0
   -2.1989    2.9716   -2.8470 H   0  0  0  0  0  0  0  0  0  0  0  0
   -1.2313    2.3002   -1.0601 C   0  0  0  0  0  0  0  0  0  0  0  0
   -1.8205    1.3984   -0.9851 H   0  0  0  0  0  0  0  0  0  0  0  0
   -0.2681    2.5802   -0.1102 C   0  0  0  0  0  0  0  0  0  0  0  0
   -0.0923    1.9074    0.7195 H   0  0  0  0  0  0  0  0  0  0  0  0
    2.5771    2.5216    1.3724 C   0  0  0  0  0  0  0  0  0  0  0  0
    2.5086    1.7843    2.5501 C   0  0  0  0  0  0  0  0  0  0  0  0
    1.8582    2.1077    3.3595 H   0  0  0  0  0  0  0  0  0  0  0  0
    3.2525    0.6216    2.6716 C   0  0  0  0  0  0  0  0  0  0  0  0
    3.2050    0.0518    3.5872 H   0  0  0  0  0  0  0  0  0  0  0  0
    4.0531    0.1948    1.6244 C   0  0  0  0  0  0  0  0  0  0  0  0
    4.6379   -0.7073    1.7251 H   0  0  0  0  0  0  0  0  0  0  0  0
    4.0963    0.9134    0.4397 C   0  0  0  0  0  0  0  0  0  0  0  0
    4.7088    0.5706   -0.3808 H   0  0  0  0  0  0  0  0  0  0  0  0
    3.3546    2.0725    0.3099 C   0  0  0  0  0  0  0  0  0  0  0  0
    3.3723    2.6322   -0.6163 H   0  0  0  0  0  0  0  0  0  0  0  0
    4.6132    7.1556    2.0731 C   0  0  0  0  0  0  0  0  0  0  0  0
    3.8185    8.2586    1.7681 C   0  0  0  0  0  0  0  0  0  0  0  0
    2.7694    8.1298    1.5389 H   0  0  0  0  0  0  0  0  0  0  0  0
    4.3651    9.5284    1.7822 C   0  0  0  0  0  0  0  0  0  0  0  0
    3.7462   10.3799    1.5421 H   0  0  0  0  0  0  0  0  0  0  0  0
    5.6977    9.7088    2.1171 C   0  0  0  0  0  0  0  0  0  0  0  0
    6.1205   10.7022    2.1312 H   0  0  0  0  0  0  0  0  0  0  0  0
    6.4818    8.6171    2.4532 C   0  0  0  0  0  0  0  0  0  0  0  0
    7.5144    8.7586    2.7354 H   0  0  0  0  0  0  0  0  0  0  0  0
    5.9430    7.3438    2.4400 C   0  0  0  0  0  0  0  0  0  0  0  0
    6.5439    6.4918    2.7239 H   0  0  0  0  0  0  0  0  0  0  0  0
    5.2503    4.3698    1.7980 C   0  0  0  0  0  0  0  0  0  0  0  0
    5.4706    3.2711    2.6219 C   0  0  0  0  0  0  0  0  0  0  0  0
    4.8557    3.1307    3.5101 H   0  0  0  0  0  0  0  0  0  0  0  0
    6.4796    2.3734    2.3200 C   0  0  0  0  0  0  0  0  0  0  0  0
    6.6528    1.5245    2.9638 H   0  0  0  0  0  0  0  0  0  0  0  0
    7.2676    2.5659    1.1977 C   0  0  0  0  0  0  0  0  0  0  0  0
    8.0545    1.8647    0.9626 H   0  0  0  0  0  0  0  0  0  0  0  0
    7.0553    3.6637    0.3782 C   0  0  0  0  0  0  0  0  0  0  0  0
    7.6770    3.8184   -0.4915 H   0  0  0  0  0  0  0  0  0  0  0  0
    6.0513    4.5656    0.6760 C   0  0  0  0  0  0  0  0  0  0  0  0
    5.8932    5.4325    0.0474 H   0  0  0  0  0  0  0  0  0  0  0  0
    0.0697    5.2941    5.1417 H   0  0  0  0  0  0  0  0  0  0  0  0
  1  2  1  0  0  0  0
  1  3  1  0  0  0  0
  4 46  1  0  0  0  0
  4  6  1  0  0  0  0
  5  1  1  0  0  0  0
  6  7  1  0  0  0  0
  6  1  1  0  0  0  0
  8  9  1  6  0  0  0
  8  7  1  0  0  0  0
  8 10  1  0  0  0  0
  8 26  1  0  0  0  0
 10 11  1  6  0  0  0
 10 26  1  0  0  0  0
 10 12  1  0  0  0  0
 12 13  1  0  0  0  0
 14 15  1  1  0  0  0
 14 27  1  0  0  0  0
 14 22  1  0  0  0  0
 16 18  1  0  0  0  0
 17 16  1  0  0  0  0
 18 24  1  0  0  0  0
 18 20  1  0  0  0  0
 19 18  1  0  0  0  0
 20 21  1  0  0  0  0
 22 23  1  0  0  0  0
 24 25  1  6  0  0  0
 24 14  1  0  0  0  0
 24 22  1  0  0  0  0
 26 28  1  1  0  0  0
 26 27  1  0  0  0  0
 27 12  1  0  0  0  0
 27 79  1  1  0  0  0
 28 31  1  0  0  0  0
 28 30  1  0  0  0  0
 29 28  1  0  0  0  0
 32  4  1  0  0  0  0
 32  5  1  0  0  0  0
 33 32  1  0  0  0  0
 34 32  1  0  0  0  0
 35 44  1  0  0  0  0
 35  4  1  0  0  0  0
 36 35  2  0  0  0  0
 37 36  1  0  0  0  0
 38 40  2  0  0  0  0
 38 36  1  0  0  0  0
 39 38  1  0  0  0  0
 40 42  1  0  0  0  0
 41 40  1  0  0  0  0
 42 43  1  0  0  0  0
 42 44  2  0  0  0  0
 44 45  1  0  0  0  0
 46 47  1  0  0  0  0
 47 49  2  0  0  0  0
 47 48  1  0  0  0  0
 49 50  1  0  0  0  0
 51 52  1  0  0  0  0
 51 49  1  0  0  0  0
 53 51  2  0  0  0  0
 54 53  1  0  0  0  0
 55 53  1  0  0  0  0
 55 46  2  0  0  0  0
 56 55  1  0  0  0  0
 57  5  1  0  0  0  0
 57 66  1  0  0  0  0
 58 60  1  0  0  0  0
 58 57  2  0  0  0  0
 59 58  1  0  0  0  0
 60 62  2  0  0  0  0
 61 60  1  0  0  0  0
 62 63  1  0  0  0  0
 62 64  1  0  0  0  0
 64 65  1  0  0  0  0
 66 64  2  0  0  0  0
 66 67  1  0  0  0  0
 68  5  1  0  0  0  0
 68 69  1  0  0  0  0
 69 70  1  0  0  0  0
 71 69  2  0  0  0  0
 71 72  1  0  0  0  0
 73 71  1  0  0  0  0
 74 73  1  0  0  0  0
 75 77  1  0  0  0  0
 75 73  2  0  0  0  0
 76 75  1  0  0  0  0
 77 68  2  0  0  0  0
 78 77  1  0  0  0  0
M  END
$$$$
