CSD_code = BIRNUN | q = 0 | S = 0 | Stoichiometry = C32H29Cl2NNiP2 | MND = 4
 OpenBabel04212202013D

 67 72  0  0  0  0  0  0  0  0999 V2000
    1.9170   10.6489   10.9285 Ni  0  0  0  0  0  0  0  0  0  0  0  0
    1.0578    8.8088   11.6530 P   0  0  0  0  0  4  0  0  0  0  0  0
    1.8906    9.4081    9.1685 P   0  0  0  0  0  4  0  0  0  0  0  0
    1.7024   11.5775   12.7754 Cl  0  0  0  0  0  0  0  0  0  0  0  0
    2.6703   12.2959    9.9040 Cl  0  0  0  0  0  0  0  0  0  0  0  0
    1.1833    8.1287   10.0749 N   0  0  0  0  0  0  0  0  0  0  0  0
   -0.7075    8.8216   12.0966 C   0  0  0  0  0  0  0  0  0  0  0  0
   -1.4036    9.9907   11.8117 C   0  0  0  0  0  0  0  0  0  0  0  0
   -0.8628   10.8366   11.3964 H   0  0  0  0  0  0  0  0  0  0  0  0
   -2.7550   10.0800   12.0866 C   0  0  0  0  0  0  0  0  0  0  0  0
   -3.2925   10.9910   11.8702 H   0  0  0  0  0  0  0  0  0  0  0  0
   -3.4121    9.0004   12.6529 C   0  0  0  0  0  0  0  0  0  0  0  0
   -4.4666    9.0691   12.8769 H   0  0  0  0  0  0  0  0  0  0  0  0
   -2.7187    7.8369   12.9465 C   0  0  0  0  0  0  0  0  0  0  0  0
   -3.2327    6.9991   13.3941 H   0  0  0  0  0  0  0  0  0  0  0  0
   -1.3671    7.7429   12.6732 C   0  0  0  0  0  0  0  0  0  0  0  0
   -0.8267    6.8367   12.9068 H   0  0  0  0  0  0  0  0  0  0  0  0
    1.7838    7.6041   12.7912 C   0  0  0  0  0  0  0  0  0  0  0  0
    1.4622    7.7085   14.1432 C   0  0  0  0  0  0  0  0  0  0  0  0
    0.7489    8.4563   14.4615 H   0  0  0  0  0  0  0  0  0  0  0  0
    2.0640    6.8698   15.0617 C   0  0  0  0  0  0  0  0  0  0  0  0
    1.8118    6.9494   16.1086 H   0  0  0  0  0  0  0  0  0  0  0  0
    2.9967    5.9337   14.6419 C   0  0  0  0  0  0  0  0  0  0  0  0
    3.4639    5.2771   15.3607 H   0  0  0  0  0  0  0  0  0  0  0  0
    3.3468    5.8538   13.3038 C   0  0  0  0  0  0  0  0  0  0  0  0
    4.0917    5.1411   12.9809 H   0  0  0  0  0  0  0  0  0  0  0  0
    2.7535    6.6964   12.3814 C   0  0  0  0  0  0  0  0  0  0  0  0
    3.0523    6.6634   11.3434 H   0  0  0  0  0  0  0  0  0  0  0  0
    3.2735    8.7142    8.2261 C   0  0  0  0  0  0  0  0  0  0  0  0
    3.7937    7.4382    8.3949 C   0  0  0  0  0  0  0  0  0  0  0  0
    3.3424    6.7551    9.0995 H   0  0  0  0  0  0  0  0  0  0  0  0
    4.8918    7.0399    7.6520 C   0  0  0  0  0  0  0  0  0  0  0  0
    5.2901    6.0433    7.7762 H   0  0  0  0  0  0  0  0  0  0  0  0
    5.4827    7.9164    6.7574 C   0  0  0  0  0  0  0  0  0  0  0  0
    6.3416    7.6012    6.1838 H   0  0  0  0  0  0  0  0  0  0  0  0
    4.9814    9.2009    6.6063 C   0  0  0  0  0  0  0  0  0  0  0  0
    5.4530    9.8888    5.9208 H   0  0  0  0  0  0  0  0  0  0  0  0
    3.8825    9.6021    7.3399 C   0  0  0  0  0  0  0  0  0  0  0  0
    3.4878   10.6061    7.2509 H   0  0  0  0  0  0  0  0  0  0  0  0
    0.7132    9.8204    7.8413 C   0  0  0  0  0  0  0  0  0  0  0  0
    0.6026    9.0752    6.6727 C   0  0  0  0  0  0  0  0  0  0  0  0
    1.2757    8.2487    6.4889 H   0  0  0  0  0  0  0  0  0  0  0  0
   -0.3642    9.4061    5.7405 C   0  0  0  0  0  0  0  0  0  0  0  0
   -0.4548    8.8266    4.8335 H   0  0  0  0  0  0  0  0  0  0  0  0
   -1.2111   10.4803    5.9645 C   0  0  0  0  0  0  0  0  0  0  0  0
   -1.9607   10.7343    5.2298 H   0  0  0  0  0  0  0  0  0  0  0  0
   -1.0907   11.2356    7.1202 C   0  0  0  0  0  0  0  0  0  0  0  0
   -1.7406   12.0815    7.2865 H   0  0  0  0  0  0  0  0  0  0  0  0
   -0.1303   10.9053    8.0582 C   0  0  0  0  0  0  0  0  0  0  0  0
   -0.0051   11.4943    8.9619 H   0  0  0  0  0  0  0  0  0  0  0  0
    0.6180    6.8843    9.5693 C   0  0  0  0  0  0  0  0  0  0  0  0
    1.0875    6.0346   10.0805 H   0  0  0  0  0  0  0  0  0  0  0  0
    0.8730    6.8273    8.5040 H   0  0  0  0  0  0  0  0  0  0  0  0
   -0.8754    6.7710    9.7267 C   0  0  0  0  0  0  0  0  0  0  0  0
   -1.4344    5.6210   10.2657 C   0  0  0  0  0  0  0  0  0  0  0  0
   -0.7929    4.8082   10.5774 H   0  0  0  0  0  0  0  0  0  0  0  0
   -2.8048    5.5034   10.4097 C   0  0  0  0  0  0  0  0  0  0  0  0
   -3.2199    4.5996   10.8322 H   0  0  0  0  0  0  0  0  0  0  0  0
   -3.6515    6.5331   10.0246 C   0  0  0  0  0  0  0  0  0  0  0  0
   -3.0880    7.6809    9.4796 C   0  0  0  0  0  0  0  0  0  0  0  0
   -3.7284    8.4938    9.1697 H   0  0  0  0  0  0  0  0  0  0  0  0
   -1.7212    7.7975    9.3279 C   0  0  0  0  0  0  0  0  0  0  0  0
   -1.3063    8.6995    8.9039 H   0  0  0  0  0  0  0  0  0  0  0  0
   -5.1334    6.4289   10.2115 C   0  0  0  0  0  0  0  0  0  0  0  0
   -5.4340    6.9913   11.0956 H   0  0  0  0  0  0  0  0  0  0  0  0
   -5.4390    5.3942   10.3447 H   0  0  0  0  0  0  0  0  0  0  0  0
   -5.6606    6.8464    9.3564 H   0  0  0  0  0  0  0  0  0  0  0  0
  1  2  1  0  0  0  0
  1  4  1  0  0  0  0
  2  7  1  0  0  0  0
  2 18  1  0  0  0  0
  3  6  1  0  0  0  0
  3  1  1  0  0  0  0
  5  1  1  0  0  0  0
  6  2  1  0  0  0  0
  7 16  1  0  0  0  0
  8 10  1  0  0  0  0
  8  7  2  0  0  0  0
  9  8  1  0  0  0  0
 10 12  2  0  0  0  0
 11 10  1  0  0  0  0
 12 13  1  0  0  0  0
 12 14  1  0  0  0  0
 14 15  1  0  0  0  0
 16 17  1  0  0  0  0
 16 14  2  0  0  0  0
 18 19  1  0  0  0  0
 19 20  1  0  0  0  0
 19 21  2  0  0  0  0
 21 22  1  0  0  0  0
 23 21  1  0  0  0  0
 23 24  1  0  0  0  0
 25 23  2  0  0  0  0
 26 25  1  0  0  0  0
 27 18  2  0  0  0  0
 27 25  1  0  0  0  0
 28 27  1  0  0  0  0
 29 30  1  0  0  0  0
 29  3  1  0  0  0  0
 30 31  1  0  0  0  0
 32 33  1  0  0  0  0
 32 30  2  0  0  0  0
 34 32  1  0  0  0  0
 35 34  1  0  0  0  0
 36 34  2  0  0  0  0
 36 38  1  0  0  0  0
 37 36  1  0  0  0  0
 38 29  2  0  0  0  0
 39 38  1  0  0  0  0
 40 49  1  0  0  0  0
 40  3  1  0  0  0  0
 41 40  2  0  0  0  0
 42 41  1  0  0  0  0
 43 45  2  0  0  0  0
 43 41  1  0  0  0  0
 44 43  1  0  0  0  0
 45 47  1  0  0  0  0
 46 45  1  0  0  0  0
 47 48  1  0  0  0  0
 47 49  2  0  0  0  0
 49 50  1  0  0  0  0
 51 54  1  0  0  0  0
 51  6  1  0  0  0  0
 51 52  1  0  0  0  0
 53 51  1  0  0  0  0
 54 55  1  0  0  0  0
 55 57  2  0  0  0  0
 55 56  1  0  0  0  0
 57 58  1  0  0  0  0
 59 64  1  0  0  0  0
 59 57  1  0  0  0  0
 60 59  2  0  0  0  0
 61 60  1  0  0  0  0
 62 60  1  0  0  0  0
 62 54  2  0  0  0  0
 63 62  1  0  0  0  0
 64 66  1  0  0  0  0
 64 65  1  0  0  0  0
 67 64  1  0  0  0  0
M  END
$$$$
