CSD_code = BIRYAF | q = 0 | S = 0 | Stoichiometry = C19H32B10ClIrN2O | MND = 8
 OpenBabel04212202013D

 66 72  0  0  1  0  0  0  0  0999 V2000
    3.7707    9.1894    3.6119 Ir  0  0  0  0  0  0  0  0  0  0  0  0
    3.9583    8.9237    5.9221 Cl  0  0  0  0  0 15  0  0  0  0  0  0
    6.3294   10.3779    2.8670 N   0  0  0  0  0  2  0  0  0  0  0  0
    5.6625    9.3246    3.1430 N   0  0  0  0  0  0  0  0  0  0  0  0
    8.2623    4.5705    1.9793 O   0  0  0  0  0  0  0  0  0  0  0  0
    5.3812   11.8113    4.8543 B   0  0  2  0  0  0  0  0  0  0  0  0
    5.7591   11.0517    5.6564 H   0  0  0  0  0  0  0  0  0  0  0  0
    6.4852   12.8634    3.9599 B   0  0  1  0  0  0  0  0  0  0  0  0
    7.6381   12.7739    4.1490 H   0  0  0  0  0  0  0  0  0  0  0  0
    5.8549   13.0189    2.3225 B   0  0  2  0  0  0  0  0  0  0  0  0
    6.5927   13.0444    1.4112 H   0  0  0  0  0  0  0  0  0  0  0  0
    4.3601   12.0618    2.1879 B   0  0  0  0  0  0  0  0  0  0  0  0
    4.1813   11.4693    1.1909 H   0  0  0  0  0  0  0  0  0  0  0  0
    3.1588   12.7012    3.3144 B   0  0  2  0  0  0  0  0  0  0  0  0
    1.9918   12.6691    3.2174 H   0  0  0  0  0  0  0  0  0  0  0  0
    3.8725   12.5393    4.8519 C   0  0  1  0  0  0  0  0  0  0  0  0
    3.2287   12.3814    5.7053 H   0  0  0  0  0  0  0  0  0  0  0  0
    5.2727   13.5310    5.0785 B   0  0  1  0  0  0  0  0  0  0  0  0
    5.4837   13.9824    6.1407 H   0  0  0  0  0  0  0  0  0  0  0  0
    5.5592   14.3088    3.5076 B   0  0  1  0  0  0  0  0  0  0  0  0
    6.0586   15.3686    3.4249 H   0  0  0  0  0  0  0  0  0  0  0  0
    4.2479   13.7995    2.4063 B   0  0  0  0  0  0  0  0  0  0  0  0
    3.8459   14.4954    1.5492 H   0  0  0  0  0  0  0  0  0  0  0  0
    3.9007   14.0896    4.1249 B   0  0  0  0  0  0  0  0  0  0  0  0
    3.2021   14.9287    4.5577 H   0  0  0  0  0  0  0  0  0  0  0  0
    5.6780   11.5612    3.1892 C   0  0  1  0  0  0  0  0  0  0  0  0
    4.0699   11.2655    3.7403 B   0  0  0  0  0  0  0  0  0  0  0  0
    6.3122    8.1155    2.8603 C   0  0  0  0  0  0  0  0  0  0  0  0
    6.1595    7.0341    3.7223 C   0  0  0  0  0  0  0  0  0  0  0  0
    5.5558    7.1441    4.6101 H   0  0  0  0  0  0  0  0  0  0  0  0
    6.8042    5.8389    3.4689 C   0  0  0  0  0  0  0  0  0  0  0  0
    6.6806    5.0234    4.1635 H   0  0  0  0  0  0  0  0  0  0  0  0
    7.6012    5.7012    2.3350 C   0  0  0  0  0  0  0  0  0  0  0  0
    7.7572    6.7923    1.4731 C   0  0  0  0  0  0  0  0  0  0  0  0
    8.3809    6.6693    0.6021 H   0  0  0  0  0  0  0  0  0  0  0  0
    7.1339    7.9886    1.7378 C   0  0  0  0  0  0  0  0  0  0  0  0
    7.2582    8.8383    1.0846 H   0  0  0  0  0  0  0  0  0  0  0  0
    8.1582    3.4362    2.8065 C   0  0  0  0  0  0  0  0  0  0  0  0
    8.5478    3.6338    3.8099 H   0  0  0  0  0  0  0  0  0  0  0  0
    8.7650    2.6681    2.3300 H   0  0  0  0  0  0  0  0  0  0  0  0
    7.1238    3.0854    2.8790 H   0  0  0  0  0  0  0  0  0  0  0  0
    1.8886    9.1397    2.3640 C   0  0  2  0  0  3  0  0  0  0  0  0
    2.8830    8.3898    1.6503 C   0  0  1  0  0  3  0  0  0  0  0  0
    3.0701    7.1308    2.3275 C   0  0  0  0  0  0  0  0  0  0  0  0
    2.3414    7.1706    3.5107 C   0  0  0  0  0  0  0  0  0  0  0  0
    1.6539    8.4467    3.5833 C   0  0  1  0  0  0  0  0  0  0  0  0
    1.0784   10.2586    1.7900 C   0  0  0  0  0  0  0  0  0  0  0  0
    1.6978   10.9788    1.2620 H   0  0  0  0  0  0  0  0  0  0  0  0
    0.5287   10.7818    2.5663 H   0  0  0  0  0  0  0  0  0  0  0  0
    0.3566    9.8453    1.0827 H   0  0  0  0  0  0  0  0  0  0  0  0
    3.3220    8.6446    0.2434 C   0  0  0  0  0  0  0  0  0  0  0  0
    4.3573    8.3405    0.0926 H   0  0  0  0  0  0  0  0  0  0  0  0
    2.7021    8.0684   -0.4468 H   0  0  0  0  0  0  0  0  0  0  0  0
    3.2266    9.6961   -0.0147 H   0  0  0  0  0  0  0  0  0  0  0  0
    3.8259    5.9764    1.7560 C   0  0  0  0  0  0  0  0  0  0  0  0
    4.1172    5.2704    2.5301 H   0  0  0  0  0  0  0  0  0  0  0  0
    4.7251    6.3059    1.2384 H   0  0  0  0  0  0  0  0  0  0  0  0
    3.1991    5.4487    1.0333 H   0  0  0  0  0  0  0  0  0  0  0  0
    2.2124    6.1076    4.5482 C   0  0  0  0  0  0  0  0  0  0  0  0
    2.4859    6.5005    5.5280 H   0  0  0  0  0  0  0  0  0  0  0  0
    1.1803    5.7588    4.6052 H   0  0  0  0  0  0  0  0  0  0  0  0
    2.8525    5.2577    4.3245 H   0  0  0  0  0  0  0  0  0  0  0  0
    0.5810    8.7443    4.5867 C   0  0  0  0  0  0  0  0  0  0  0  0
   -0.3116    8.1533    4.3710 H   0  0  0  0  0  0  0  0  0  0  0  0
    0.3096    9.7970    4.5685 H   0  0  0  0  0  0  0  0  0  0  0  0
    0.9177    8.4952    5.5911 H   0  0  0  0  0  0  0  0  0  0  0  0
  1 27  1  0  0  0  0
  3  4  1  0  0  0  0
  4  1  1  0  0  0  0
  5 33  1  0  0  0  0
  5 38  1  0  0  0  0
  6 18  1  0  0  0  0
  6  7  1  1  0  0  0
  8  9  1  1  0  0  0
 10 11  1  6  0  0  0
 10 26  1  0  0  0  0
 10 20  1  0  0  0  0
 10  8  1  0  0  0  0
 12 22  1  0  0  0  0
 12 14  1  0  0  0  0
 13 12  1  0  0  0  0
 14 15  1  6  0  0  0
 14 27  1  0  0  0  0
 14 16  1  0  0  0  0
 16  6  1  0  0  0  0
 16 17  1  1  0  0  0
 18 19  1  1  0  0  0
 20 21  1  6  0  0  0
 20  8  1  0  0  0  0
 20 18  1  0  0  0  0
 22 24  1  0  0  0  0
 23 22  1  0  0  0  0
 24 25  1  0  0  0  0
 24 18  1  0  0  0  0
 26  3  1  6  0  0  0
 26  8  1  0  0  0  0
 26  6  1  0  0  0  0
 27 16  1  0  0  0  0
 28  4  1  0  0  0  0
 28 29  1  0  0  0  0
 29 30  1  0  0  0  0
 31 29  2  0  0  0  0
 31 32  1  0  0  0  0
 33 31  1  0  0  0  0
 34 36  1  0  0  0  0
 34 33  2  0  0  0  0
 35 34  1  0  0  0  0
 36 28  2  0  0  0  0
 37 36  1  0  0  0  0
 38 41  1  0  0  0  0
 38 39  1  0  0  0  0
 40 38  1  0  0  0  0
 42 47  1  6  0  0  0
 42 46  1  0  0  0  0
 43 51  1  6  0  0  0
 43 44  1  0  0  0  0
 43 42  1  0  0  0  0
 44 45  2  0  0  0  0
 45 46  1  0  0  0  0
 45 59  1  0  0  0  0
 46  1  1  0  0  0  0
 46 63  1  1  0  0  0
 47 49  1  0  0  0  0
 48 47  1  0  0  0  0
 50 47  1  0  0  0  0
 52 51  1  0  0  0  0
 53 51  1  0  0  0  0
 54 51  1  0  0  0  0
 55 44  1  0  0  0  0
 55 56  1  0  0  0  0
 57 55  1  0  0  0  0
 58 55  1  0  0  0  0
 59 61  1  0  0  0  0
 59 60  1  0  0  0  0
 62 59  1  0  0  0  0
 63 66  1  0  0  0  0
 64 63  1  0  0  0  0
 65 63  1  0  0  0  0
M  END
$$$$
