CSD_code = BISJES | q = 0 | S = 0 | Stoichiometry = C20H38Cl2N10NiO2 | MND = 4
 OpenBabel04212202013D

 73 74  0  0  1  0  0  0  0  0999 V2000
    1.3283    0.5294   -3.5597 Ni  0  0  0  0  0  0  0  0  0  0  0  0
    3.2829    0.9839   -4.3550 Cl  0  0  0  0  0  0  0  0  0  0  0  0
    1.1854   -1.5371   -2.0968 O   0  0  0  0  0  0  0  0  0  0  0  0
    1.9569   -0.9794    0.0021 N   0  0  0  0  0  0  0  0  0  0  0  0
    2.8534    1.2076    0.2431 N   0  0  0  0  0  0  0  0  0  0  0  0
    2.0075    0.4938   -1.8258 N   0  0  0  0  0  0  0  0  0  0  0  0
    2.8796    2.5934   -1.6066 N   0  0  0  0  0  0  0  0  0  0  0  0
    2.7432   -0.2559    2.0088 N   0  0  0  0  0  0  0  0  0  0  0  0
    2.5117    0.0175    0.7236 C   0  0  2  0  0  3  0  0  0  0  0  0
    2.5957    1.4244   -1.0439 C   0  0  0  0  0  0  0  0  0  0  0  0
    1.7285   -0.6712   -1.2512 C   0  0  0  0  0  0  0  0  0  0  0  0
    0.7970   -2.7898   -1.5690 C   0  0  0  0  0  0  0  0  0  0  0  0
    3.6364    3.6437   -0.9634 C   0  0  0  0  0  0  0  0  0  0  0  0
    3.2941    0.6762    2.9669 C   0  0  0  0  0  0  0  0  0  0  0  0
    3.1863    4.9814   -1.5390 C   0  0  0  0  0  0  0  0  0  0  0  0
    5.1336    3.4169   -1.1710 C   0  0  0  0  0  0  0  0  0  0  0  0
    2.2312    1.0608    3.9951 C   0  0  0  0  0  0  0  0  0  0  0  0
    4.5191    0.0595    3.6379 C   0  0  0  0  0  0  0  0  0  0  0  0
    2.8379    2.5962   -2.6269 H   0  0  0  0  0  0  0  0  0  0  0  0
    2.4443   -1.1631    2.3317 H   0  0  0  0  0  0  0  0  0  0  0  0
    3.4017    3.5897    0.1044 H   0  0  0  0  0  0  0  0  0  0  0  0
    3.5865    1.5568    2.3889 H   0  0  0  0  0  0  0  0  0  0  0  0
    0.3367   -3.3340   -2.3909 H   0  0  0  0  0  0  0  0  0  0  0  0
    1.6684   -3.3286   -1.1892 H   0  0  0  0  0  0  0  0  0  0  0  0
    0.0813   -2.6529   -0.7557 H   0  0  0  0  0  0  0  0  0  0  0  0
    2.1154    5.1089   -1.4043 H   0  0  0  0  0  0  0  0  0  0  0  0
    3.7014    5.7985   -1.0417 H   0  0  0  0  0  0  0  0  0  0  0  0
    3.4115    5.0232   -2.6023 H   0  0  0  0  0  0  0  0  0  0  0  0
    5.4282    2.4698   -0.7266 H   0  0  0  0  0  0  0  0  0  0  0  0
    5.3611    3.3854   -2.2339 H   0  0  0  0  0  0  0  0  0  0  0  0
    5.7065    4.2160   -0.7082 H   0  0  0  0  0  0  0  0  0  0  0  0
    2.6291    1.7963    4.6886 H   0  0  0  0  0  0  0  0  0  0  0  0
    1.3641    1.4856    3.4963 H   0  0  0  0  0  0  0  0  0  0  0  0
    1.9152    0.1862    4.5603 H   0  0  0  0  0  0  0  0  0  0  0  0
    4.9686    0.7722    4.3235 H   0  0  0  0  0  0  0  0  0  0  0  0
    4.2377   -0.8298    4.1984 H   0  0  0  0  0  0  0  0  0  0  0  0
    5.2583   -0.2186    2.8913 H   0  0  0  0  0  0  0  0  0  0  0  0
   -0.6263    0.9878   -2.7670 Cl  0  0  0  0  0  0  0  0  0  0  0  0
    0.6503    0.4938   -5.2942 N   0  0  0  0  0  0  0  0  0  0  0  0
    0.0640    1.4247   -6.0771 C   0  0  0  0  0  0  0  0  0  0  0  0
    0.9283   -0.6719   -5.8681 C   0  0  0  0  0  0  0  0  0  0  0  0
   -0.1930    1.2076   -7.3641 N   0  0  0  0  0  0  0  0  0  0  0  0
   -0.2191    2.5943   -5.5152 N   0  0  0  0  0  0  0  0  0  0  0  0
    1.4694   -1.5382   -5.0216 O   0  0  0  0  0  0  0  0  0  0  0  0
    0.7006   -0.9804   -7.1214 N   0  0  0  0  0  0  0  0  0  0  0  0
    0.1477    0.0169   -7.8439 C   0  0  1  0  0  3  0  0  0  0  0  0
   -0.9742    3.6450   -6.1597 C   0  0  0  0  0  0  0  0  0  0  0  0
   -0.1783    2.5976   -4.4948 H   0  0  0  0  0  0  0  0  0  0  0  0
    1.8570   -2.7915   -5.5485 C   0  0  0  0  0  0  0  0  0  0  0  0
   -0.0831   -0.2569   -9.1292 N   0  0  0  0  0  0  0  0  0  0  0  0
   -0.5247    4.9824   -5.5828 C   0  0  0  0  0  0  0  0  0  0  0  0
   -2.4719    3.4186   -5.9555 C   0  0  0  0  0  0  0  0  0  0  0  0
   -0.7372    3.5913   -7.2270 H   0  0  0  0  0  0  0  0  0  0  0  0
    2.3156   -3.3360   -4.7260 H   0  0  0  0  0  0  0  0  0  0  0  0
    0.9855   -3.3294   -5.9293 H   0  0  0  0  0  0  0  0  0  0  0  0
    2.5739   -2.6556   -6.3610 H   0  0  0  0  0  0  0  0  0  0  0  0
   -0.6304    0.6762  -10.0884 C   0  0  0  0  0  0  0  0  0  0  0  0
    0.2158   -1.1642   -9.4516 H   0  0  0  0  0  0  0  0  0  0  0  0
    0.5465    5.1094   -5.7151 H   0  0  0  0  0  0  0  0  0  0  0  0
   -1.0382    5.7998   -6.0812 H   0  0  0  0  0  0  0  0  0  0  0  0
   -0.7523    5.0241   -4.5201 H   0  0  0  0  0  0  0  0  0  0  0  0
   -2.7659    2.4717   -6.4006 H   0  0  0  0  0  0  0  0  0  0  0  0
   -2.7018    3.3872   -4.8931 H   0  0  0  0  0  0  0  0  0  0  0  0
   -3.0434    4.2180   -6.4194 H   0  0  0  0  0  0  0  0  0  0  0  0
    0.4365    1.0630  -11.1116 C   0  0  0  0  0  0  0  0  0  0  0  0
   -1.8521    0.0595  -10.7655 C   0  0  0  0  0  0  0  0  0  0  0  0
   -0.9259    1.5558   -9.5106 H   0  0  0  0  0  0  0  0  0  0  0  0
    0.0410    1.7991  -11.8058 H   0  0  0  0  0  0  0  0  0  0  0  0
    1.3011    1.4878  -10.6085 H   0  0  0  0  0  0  0  0  0  0  0  0
    0.7556    0.1894  -11.6766 H   0  0  0  0  0  0  0  0  0  0  0  0
   -2.2991    0.7727  -11.4521 H   0  0  0  0  0  0  0  0  0  0  0  0
   -1.5677   -0.8289  -11.3259 H   0  0  0  0  0  0  0  0  0  0  0  0
   -2.5943   -0.2201  -10.0225 H   0  0  0  0  0  0  0  0  0  0  0  0
  1 38  1  0  0  0  0
  1  6  1  0  0  0  0
  2  1  1  0  0  0  0
  3 12  1  0  0  0  0
  3 11  1  0  0  0  0
  4  9  1  0  0  0  0
  5  9  1  0  0  0  0
  6 11  1  0  0  0  0
  6 10  1  0  0  0  0
  7 10  1  0  0  0  0
  7 13  1  0  0  0  0
  8 20  1  0  0  0  0
  8 14  1  0  0  0  0
  9  8  1  6  0  0  0
 10  5  2  0  0  0  0
 11  4  2  0  0  0  0
 12 24  1  0  0  0  0
 12 25  1  0  0  0  0
 13 21  1  0  0  0  0
 14 18  1  0  0  0  0
 14 17  1  0  0  0  0
 15 26  1  0  0  0  0
 15 27  1  0  0  0  0
 15 13  1  0  0  0  0
 16 13  1  0  0  0  0
 16 29  1  0  0  0  0
 16 31  1  0  0  0  0
 17 34  1  0  0  0  0
 17 32  1  0  0  0  0
 18 36  1  0  0  0  0
 18 35  1  0  0  0  0
 19  7  1  0  0  0  0
 22 14  1  0  0  0  0
 23 12  1  0  0  0  0
 28 15  1  0  0  0  0
 30 16  1  0  0  0  0
 33 17  1  0  0  0  0
 37 18  1  0  0  0  0
 39  1  1  0  0  0  0
 40 43  1  0  0  0  0
 40 39  1  0  0  0  0
 41 39  1  0  0  0  0
 41 44  1  0  0  0  0
 42 40  2  0  0  0  0
 43 48  1  0  0  0  0
 45 41  2  0  0  0  0
 46 50  1  1  0  0  0
 46 42  1  0  0  0  0
 46 45  1  0  0  0  0
 47 52  1  0  0  0  0
 47 51  1  0  0  0  0
 47 43  1  0  0  0  0
 49 44  1  0  0  0  0
 49 54  1  0  0  0  0
 51 61  1  0  0  0  0
 52 63  1  0  0  0  0
 53 47  1  0  0  0  0
 55 49  1  0  0  0  0
 56 49  1  0  0  0  0
 57 67  1  0  0  0  0
 57 50  1  0  0  0  0
 58 50  1  0  0  0  0
 59 51  1  0  0  0  0
 60 51  1  0  0  0  0
 62 52  1  0  0  0  0
 64 52  1  0  0  0  0
 65 69  1  0  0  0  0
 65 57  1  0  0  0  0
 66 57  1  0  0  0  0
 66 73  1  0  0  0  0
 68 65  1  0  0  0  0
 70 65  1  0  0  0  0
 71 66  1  0  0  0  0
 72 66  1  0  0  0  0
M  END
$$$$
