CSD_code = BISLAT | q = 0 | S = 0 | Stoichiometry = C23H22Cl2IrNS | MND = 8
 OpenBabel04212202013D

 50 53  0  0  1  0  0  0  0  0999 V2000
   -0.0012    4.0546    9.8352 Ir  0  0  0  0  0  0  0  0  0  0  0  0
   -0.6308    1.9904    8.9378 Cl  0  0  0  0  0 15  0  0  0  0  0  0
    5.4816    2.3920    9.4402 Cl  0  0  0  0  0  0  0  0  0  0  0  0
   -0.0769    2.1132   13.9329 S   0  0  0  0  0  0  0  0  0  0  0  0
   -0.5689    3.2858   11.6853 N   0  0  0  0  0  0  0  0  0  0  0  0
   -1.7830    3.1791   12.3057 C   0  0  0  0  0  0  0  0  0  0  0  0
   -3.0200    3.5540   11.7879 C   0  0  0  0  0  0  0  0  0  0  0  0
   -3.0740    3.9404   10.7844 H   0  0  0  0  0  0  0  0  0  0  0  0
   -4.1469    3.3762   12.5608 C   0  0  0  0  0  0  0  0  0  0  0  0
   -5.1118    3.6599   12.1689 H   0  0  0  0  0  0  0  0  0  0  0  0
   -4.0645    2.8245   13.8380 C   0  0  0  0  0  0  0  0  0  0  0  0
   -4.9617    2.7012   14.4245 H   0  0  0  0  0  0  0  0  0  0  0  0
   -2.8519    2.4126   14.3560 C   0  0  0  0  0  0  0  0  0  0  0  0
   -2.7825    1.9598   15.3321 H   0  0  0  0  0  0  0  0  0  0  0  0
   -1.7184    2.5838   13.5796 C   0  0  0  0  0  0  0  0  0  0  0  0
    0.4034    2.7399   12.3890 C   0  0  0  0  0  0  0  0  0  0  0  0
    1.6967    2.6709   11.7883 C   0  0  0  0  0  0  0  0  0  0  0  0
    1.7142    3.1894   10.4705 C   0  0  0  0  0  0  0  0  0  0  0  0
    2.8990    3.0689    9.7566 C   0  0  0  0  0  0  0  0  0  0  0  0
    2.9586    3.3984    8.7318 H   0  0  0  0  0  0  0  0  0  0  0  0
    4.0176    2.5054   10.3486 C   0  0  0  0  0  0  0  0  0  0  0  0
    3.9993    2.0270   11.6554 C   0  0  0  0  0  0  0  0  0  0  0  0
    4.8879    1.5916   12.0836 H   0  0  0  0  0  0  0  0  0  0  0  0
    2.8271    2.0994   12.3732 C   0  0  0  0  0  0  0  0  0  0  0  0
    2.7713    1.7100   13.3794 H   0  0  0  0  0  0  0  0  0  0  0  0
   -0.0228    6.2825    9.9963 C   0  0  0  0  0  0  0  0  0  0  0  0
    0.9372    5.9010    9.0113 C   0  0  0  0  0  0  0  0  0  0  0  0
    0.2307    5.1931    7.9898 C   0  0  2  0  0  0  0  0  0  0  0  0
   -1.1955    5.3362    8.2568 C   0  0  0  0  0  0  0  0  0  0  0  0
   -1.3465    6.0051    9.4703 C   0  0  0  0  0  0  0  0  0  0  0  0
    0.2492    7.1628   11.1745 C   0  0  0  0  0  0  0  0  0  0  0  0
    1.2556    7.0031   11.5540 H   0  0  0  0  0  0  0  0  0  0  0  0
   -0.4586    6.9736   11.9790 H   0  0  0  0  0  0  0  0  0  0  0  0
    0.1561    8.2111   10.8844 H   0  0  0  0  0  0  0  0  0  0  0  0
    2.3760    6.3125    9.0097 C   0  0  0  0  0  0  0  0  0  0  0  0
    2.4396    7.3873    8.8316 H   0  0  0  0  0  0  0  0  0  0  0  0
    2.9306    5.8060    8.2256 H   0  0  0  0  0  0  0  0  0  0  0  0
    2.8563    6.0974    9.9623 H   0  0  0  0  0  0  0  0  0  0  0  0
    0.7708    4.7396    6.6692 C   0  0  0  0  0  0  0  0  0  0  0  0
    0.3130    3.7974    6.3755 H   0  0  0  0  0  0  0  0  0  0  0  0
    1.8477    4.5985    6.7098 H   0  0  0  0  0  0  0  0  0  0  0  0
    0.5497    5.4826    5.9004 H   0  0  0  0  0  0  0  0  0  0  0  0
   -2.2546    4.8802    7.3088 C   0  0  0  0  0  0  0  0  0  0  0  0
   -3.2499    5.0872    7.6942 H   0  0  0  0  0  0  0  0  0  0  0  0
   -2.1680    3.8076    7.1350 H   0  0  0  0  0  0  0  0  0  0  0  0
   -2.1402    5.3873    6.3500 H   0  0  0  0  0  0  0  0  0  0  0  0
   -2.6058    6.5315   10.0807 C   0  0  0  0  0  0  0  0  0  0  0  0
   -2.6726    7.6064    9.9004 H   0  0  0  0  0  0  0  0  0  0  0  0
   -2.6240    6.3747   11.1583 H   0  0  0  0  0  0  0  0  0  0  0  0
   -3.4863    6.0628    9.6474 H   0  0  0  0  0  0  0  0  0  0  0  0
  1 18  2  0  0  0  0
  1  5  1  0  0  0  0
  3 21  1  0  0  0  0
  5  6  1  0  0  0  0
  5 16  1  0  0  0  0
  6 15  1  0  0  0  0
  7  6  2  0  0  0  0
  7  9  1  0  0  0  0
  8  7  1  0  0  0  0
  9 11  2  0  0  0  0
 10  9  1  0  0  0  0
 11 13  1  0  0  0  0
 11 12  1  0  0  0  0
 13 14  1  0  0  0  0
 15  4  1  0  0  0  0
 15 13  2  0  0  0  0
 16  4  1  0  0  0  0
 17 24  1  0  0  0  0
 17 16  2  0  0  0  0
 18 17  1  0  0  0  0
 19 21  2  0  0  0  0
 19 18  1  0  0  0  0
 20 19  1  0  0  0  0
 21 22  1  0  0  0  0
 22 23  1  0  0  0  0
 22 24  2  0  0  0  0
 24 25  1  0  0  0  0
 26 31  1  0  0  0  0
 27 26  2  0  0  0  0
 28 39  1  6  0  0  0
 28 29  1  0  0  0  0
 28 27  1  0  0  0  0
 28  1  1  0  0  0  0
 29 30  2  0  0  0  0
 30 26  1  0  0  0  0
 30 47  1  0  0  0  0
 31 32  1  0  0  0  0
 31 33  1  0  0  0  0
 34 31  1  0  0  0  0
 35 27  1  0  0  0  0
 35 38  1  0  0  0  0
 36 35  1  0  0  0  0
 37 35  1  0  0  0  0
 39 41  1  0  0  0  0
 40 39  1  0  0  0  0
 42 39  1  0  0  0  0
 43 44  1  0  0  0  0
 43 29  1  0  0  0  0
 45 43  1  0  0  0  0
 46 43  1  0  0  0  0
 47 49  1  0  0  0  0
 48 47  1  0  0  0  0
 50 47  1  0  0  0  0
M  END
$$$$
