CSD_code = BISNUM | q = 0 | S = 0 | Stoichiometry = C12H10Cl2N6Zn | MND = 4
 OpenBabel04212202013D

 31 34  0  0  0  0  0  0  0  0999 V2000
    1.1576    1.3828    3.0476 Zn  0  0  0  0  0  0  0  0  0  0  0  0
   -0.6842    2.6298    3.1632 Cl  0  0  0  0  0  0  0  0  0  0  0  0
    1.4271   -0.6602    3.7387 Cl  0  0  0  0  0  0  0  0  0  0  0  0
    2.4991    4.6197    5.0566 N   0  0  0  0  0  0  0  0  0  0  0  0
    2.5591    3.8029    4.0130 N   0  0  0  0  0  2  0  0  0  0  0  0
    2.2307    2.6235    4.3725 N   0  0  0  0  0  0  0  0  0  0  0  0
    1.9303    2.6197    5.7034 C   0  0  0  0  0  0  0  0  0  0  0  0
    2.1014    3.9439    6.1687 C   0  0  0  0  0  0  0  0  0  0  0  0
    1.8658    4.2906    7.4946 C   0  0  0  0  0  0  0  0  0  0  0  0
    1.4566    3.2733    8.3259 C   0  0  0  0  0  0  0  0  0  0  0  0
    1.2877    1.9558    7.8697 C   0  0  0  0  0  0  0  0  0  0  0  0
    1.5193    1.5999    6.5628 C   0  0  0  0  0  0  0  0  0  0  0  0
    2.7018    5.6010    4.9487 H   0  0  0  0  0  0  0  0  0  0  0  0
    1.9925    5.3024    7.8458 H   0  0  0  0  0  0  0  0  0  0  0  0
    1.2553    3.4915    9.3639 H   0  0  0  0  0  0  0  0  0  0  0  0
    0.9623    1.2054    8.5735 H   0  0  0  0  0  0  0  0  0  0  0  0
    1.3918    0.5931    6.1981 H   0  0  0  0  0  0  0  0  0  0  0  0
    3.3818    1.5809   -0.4297 N   0  0  0  0  0  0  0  0  0  0  0  0
    2.9728    1.0872    0.7279 N   0  0  0  0  0  2  0  0  0  0  0  0
    2.0508    1.8261    1.2065 N   0  0  0  0  0  0  0  0  0  0  0  0
    1.8087    2.8670    0.3590 C   0  0  0  0  0  0  0  0  0  0  0  0
    2.6907    2.7135   -0.7367 C   0  0  0  0  0  0  0  0  0  0  0  0
    2.7061    3.6130   -1.7971 C   0  0  0  0  0  0  0  0  0  0  0  0
    1.8150    4.6590   -1.7202 C   0  0  0  0  0  0  0  0  0  0  0  0
    0.9356    4.8142   -0.6361 C   0  0  0  0  0  0  0  0  0  0  0  0
    0.9106    3.9331    0.4185 C   0  0  0  0  0  0  0  0  0  0  0  0
    4.1063    1.1136   -0.9527 H   0  0  0  0  0  0  0  0  0  0  0  0
    3.3781    3.4921   -2.6318 H   0  0  0  0  0  0  0  0  0  0  0  0
    1.7860    5.3841   -2.5194 H   0  0  0  0  0  0  0  0  0  0  0  0
    0.2576    5.6537   -0.6406 H   0  0  0  0  0  0  0  0  0  0  0  0
    0.2334    4.0273    1.2523 H   0  0  0  0  0  0  0  0  0  0  0  0
  1  2  1  0  0  0  0
  1  3  1  0  0  0  0
  1  6  1  0  0  0  0
  4  8  1  0  0  0  0
  5  6  1  0  0  0  0
  5  4  1  0  0  0  0
  6  7  1  0  0  0  0
  7  8  2  0  0  0  0
  7 12  1  0  0  0  0
  8  9  1  0  0  0  0
  9 14  1  0  0  0  0
  9 10  2  0  0  0  0
 10 15  1  0  0  0  0
 11 10  1  0  0  0  0
 11 16  1  0  0  0  0
 12 11  2  0  0  0  0
 13  4  1  0  0  0  0
 17 12  1  0  0  0  0
 18 19  1  0  0  0  0
 19 20  1  0  0  0  0
 20  1  1  0  0  0  0
 21 26  1  0  0  0  0
 21 20  1  0  0  0  0
 22 18  1  0  0  0  0
 22 21  2  0  0  0  0
 23 24  2  0  0  0  0
 23 22  1  0  0  0  0
 24 25  1  0  0  0  0
 25 26  2  0  0  0  0
 26 31  1  0  0  0  0
 27 18  1  0  0  0  0
 28 23  1  0  0  0  0
 29 24  1  0  0  0  0
 30 25  1  0  0  0  0
M  END
$$$$
