CSD_code = BISNUO | q = 0 | S = 0 | Stoichiometry = C30H40Cl2NiP2 | MND = 4
 OpenBabel04212202013D

 75 78  0  0  0  0  0  0  0  0999 V2000
   -1.8640   14.4800   10.6183 Ni  0  0  0  0  0  0  0  0  0  0  0  0
   -1.2016   12.6938    9.6913 Cl  0  0  0  0  0  0  0  0  0  0  0  0
   -2.4914   16.4060   11.1935 Cl  0  0  0  0  0  0  0  0  0  0  0  0
   -3.8908   13.6658   11.0150 P   0  0  0  0  0  4  0  0  0  0  0  0
    0.2049   15.0822   10.2581 P   0  0  0  0  0  4  0  0  0  0  0  0
   -4.6492   13.8583   12.6684 C   0  0  0  0  0  0  0  0  0  0  0  0
   -6.0216   13.6365   12.7843 C   0  0  0  0  0  0  0  0  0  0  0  0
   -6.6571   13.6582   14.0100 C   0  0  0  0  0  0  0  0  0  0  0  0
   -5.9217   13.9057   15.1573 C   0  0  0  0  0  0  0  0  0  0  0  0
   -4.5734   14.1783   15.0535 C   0  0  0  0  0  0  0  0  0  0  0  0
   -3.9167   14.1727   13.8208 C   0  0  0  0  0  0  0  0  0  0  0  0
   -2.5077   14.6056   13.8160 C   0  0  0  0  0  0  0  0  0  0  0  0
   -2.1979   15.7800   14.5011 C   0  0  0  0  0  0  0  0  0  0  0  0
   -0.8967   16.2373   14.5711 C   0  0  0  0  0  0  0  0  0  0  0  0
    0.1178   15.5459   13.9345 C   0  0  0  0  0  0  0  0  0  0  0  0
   -0.1713   14.3944   13.2096 C   0  0  0  0  0  0  0  0  0  0  0  0
    0.9252   13.6585   12.5371 C   0  0  0  0  0  0  0  0  0  0  0  0
    1.6473   12.7238   13.2663 C   0  0  0  0  0  0  0  0  0  0  0  0
    2.6700   12.0045   12.6752 C   0  0  0  0  0  0  0  0  0  0  0  0
    2.9673   12.2131   11.3403 C   0  0  0  0  0  0  0  0  0  0  0  0
    2.2541   13.1427   10.6047 C   0  0  0  0  0  0  0  0  0  0  0  0
    1.2384   13.8901   11.1909 C   0  0  0  0  0  0  0  0  0  0  0  0
   -1.4821   13.9130   13.1692 C   0  0  0  0  0  0  0  0  0  0  0  0
   -5.1101   14.4233    9.8172 C   0  0  0  0  0  0  0  0  0  0  0  0
   -5.6579   15.7704   10.2772 C   0  0  0  0  0  0  0  0  0  0  0  0
   -4.3583   14.5731    8.4955 C   0  0  0  0  0  0  0  0  0  0  0  0
   -4.1255   11.8184   10.7297 C   0  0  0  0  0  0  0  0  0  0  0  0
   -3.2776   11.0314   11.7288 C   0  0  0  0  0  0  0  0  0  0  0  0
   -5.5474   11.2664   10.7623 C   0  0  0  0  0  0  0  0  0  0  0  0
    0.7984   16.7324   10.9228 C   0  0  0  0  0  0  0  0  0  0  0  0
    2.2960   16.8128   11.2042 C   0  0  0  0  0  0  0  0  0  0  0  0
    0.3209   17.9070   10.0745 C   0  0  0  0  0  0  0  0  0  0  0  0
    0.7277   14.9216    8.4726 C   0  0  0  0  0  0  0  0  0  0  0  0
   -0.4005   15.4719    7.5999 C   0  0  0  0  0  0  0  0  0  0  0  0
    2.0697   15.5278    8.0749 C   0  0  0  0  0  0  0  0  0  0  0  0
   -6.6075   13.4576   11.8970 H   0  0  0  0  0  0  0  0  0  0  0  0
   -7.7207   13.4794   14.0700 H   0  0  0  0  0  0  0  0  0  0  0  0
   -6.4019   13.9043   16.1246 H   0  0  0  0  0  0  0  0  0  0  0  0
   -4.0007   14.3916   15.9448 H   0  0  0  0  0  0  0  0  0  0  0  0
   -2.9911   16.3458   14.9663 H   0  0  0  0  0  0  0  0  0  0  0  0
   -0.6726   17.1425   15.1161 H   0  0  0  0  0  0  0  0  0  0  0  0
    1.1399   15.8920   13.9961 H   0  0  0  0  0  0  0  0  0  0  0  0
    1.3918   12.5589   14.3037 H   0  0  0  0  0  0  0  0  0  0  0  0
    3.2234   11.2773   13.2507 H   0  0  0  0  0  0  0  0  0  0  0  0
    3.7535   11.6457   10.8644 H   0  0  0  0  0  0  0  0  0  0  0  0
    2.4901   13.2680    9.5608 H   0  0  0  0  0  0  0  0  0  0  0  0
   -1.6740   12.9347   12.7406 H   0  0  0  0  0  0  0  0  0  0  0  0
   -5.9434   13.7271    9.6738 H   0  0  0  0  0  0  0  0  0  0  0  0
   -4.8481   16.4798   10.4231 H   0  0  0  0  0  0  0  0  0  0  0  0
   -6.2055   15.6834   11.2125 H   0  0  0  0  0  0  0  0  0  0  0  0
   -6.3324   16.1656    9.5188 H   0  0  0  0  0  0  0  0  0  0  0  0
   -5.0036   14.9907    7.7243 H   0  0  0  0  0  0  0  0  0  0  0  0
   -3.9788   13.6119    8.1484 H   0  0  0  0  0  0  0  0  0  0  0  0
   -3.5135   15.2544    8.6401 H   0  0  0  0  0  0  0  0  0  0  0  0
   -3.7120   11.6568    9.7265 H   0  0  0  0  0  0  0  0  0  0  0  0
   -3.5588   11.2765   12.7535 H   0  0  0  0  0  0  0  0  0  0  0  0
   -2.2194   11.2312   11.5807 H   0  0  0  0  0  0  0  0  0  0  0  0
   -3.4311    9.9635   11.5810 H   0  0  0  0  0  0  0  0  0  0  0  0
   -5.5180   10.2263   10.4393 H   0  0  0  0  0  0  0  0  0  0  0  0
   -6.2245   11.7918   10.0936 H   0  0  0  0  0  0  0  0  0  0  0  0
   -5.9515   11.2890   11.7719 H   0  0  0  0  0  0  0  0  0  0  0  0
    0.2667   16.7996   11.8804 H   0  0  0  0  0  0  0  0  0  0  0  0
    2.8713   16.9217   10.2895 H   0  0  0  0  0  0  0  0  0  0  0  0
    2.6512   15.9296   11.7328 H   0  0  0  0  0  0  0  0  0  0  0  0
    2.4948   17.6849   11.8264 H   0  0  0  0  0  0  0  0  0  0  0  0
    0.4872   18.8357   10.6184 H   0  0  0  0  0  0  0  0  0  0  0  0
   -0.7458   17.8197    9.8801 H   0  0  0  0  0  0  0  0  0  0  0  0
    0.8558   17.9726    9.1308 H   0  0  0  0  0  0  0  0  0  0  0  0
    0.7670   13.8373    8.3120 H   0  0  0  0  0  0  0  0  0  0  0  0
   -0.4992   16.5494    7.7097 H   0  0  0  0  0  0  0  0  0  0  0  0
   -1.3469   15.0070    7.8852 H   0  0  0  0  0  0  0  0  0  0  0  0
   -0.2138   15.2461    6.5512 H   0  0  0  0  0  0  0  0  0  0  0  0
    2.3284   15.1830    7.0735 H   0  0  0  0  0  0  0  0  0  0  0  0
    2.8699   15.2346    8.7498 H   0  0  0  0  0  0  0  0  0  0  0  0
    2.0211   16.6130    8.0444 H   0  0  0  0  0  0  0  0  0  0  0  0
  1  4  1  0  0  0  0
  1  3  1  0  0  0  0
  2  1  1  0  0  0  0
  4  6  1  0  0  0  0
  5  1  1  0  0  0  0
  5 30  1  0  0  0  0
  5 22  1  0  0  0  0
  6  7  2  0  0  0  0
  6 11  1  0  0  0  0
  7  8  1  0  0  0  0
  8 37  1  0  0  0  0
  8  9  2  0  0  0  0
  9 38  1  0  0  0  0
 10  9  1  0  0  0  0
 10 39  1  0  0  0  0
 11 10  2  0  0  0  0
 12 11  1  0  0  0  0
 12 13  1  0  0  0  0
 13 14  2  0  0  0  0
 13 40  1  0  0  0  0
 14 41  1  0  0  0  0
 15 42  1  0  0  0  0
 15 14  1  0  0  0  0
 16 15  2  0  0  0  0
 17 16  1  0  0  0  0
 17 18  1  0  0  0  0
 18 43  1  0  0  0  0
 19 44  1  0  0  0  0
 19 18  2  0  0  0  0
 20 19  1  0  0  0  0
 21 22  1  0  0  0  0
 21 20  2  0  0  0  0
 22 17  2  0  0  0  0
 23 16  1  0  0  0  0
 23 12  2  0  0  0  0
 24 25  1  0  0  0  0
 24  4  1  0  0  0  0
 25 49  1  0  0  0  0
 25 50  1  0  0  0  0
 26 54  1  0  0  0  0
 26 24  1  0  0  0  0
 27 29  1  0  0  0  0
 27  4  1  0  0  0  0
 27 28  1  0  0  0  0
 28 56  1  0  0  0  0
 29 61  1  0  0  0  0
 30 31  1  0  0  0  0
 30 62  1  0  0  0  0
 31 64  1  0  0  0  0
 31 65  1  0  0  0  0
 32 66  1  0  0  0  0
 32 30  1  0  0  0  0
 33  5  1  0  0  0  0
 34 70  1  0  0  0  0
 34 71  1  0  0  0  0
 34 33  1  0  0  0  0
 35 33  1  0  0  0  0
 35 74  1  0  0  0  0
 36  7  1  0  0  0  0
 45 20  1  0  0  0  0
 46 21  1  0  0  0  0
 47 23  1  0  0  0  0
 48 24  1  0  0  0  0
 51 25  1  0  0  0  0
 52 26  1  0  0  0  0
 53 26  1  0  0  0  0
 55 27  1  0  0  0  0
 57 28  1  0  0  0  0
 58 28  1  0  0  0  0
 59 29  1  0  0  0  0
 60 29  1  0  0  0  0
 63 31  1  0  0  0  0
 67 32  1  0  0  0  0
 68 32  1  0  0  0  0
 69 33  1  0  0  0  0
 72 34  1  0  0  0  0
 73 35  1  0  0  0  0
 75 35  1  0  0  0  0
M  END
$$$$
