CSD_code = BISVAD | q = 0 | S = 0 | Stoichiometry = C17H32BrMnO3P2 | MND = 6
 OpenBabel04212202013D

 56 56  0  0  0  0  0  0  0  0999 V2000
    6.1886    7.6933   -1.0476 Br  0  0  0  0  0  0  0  0  0  0  0  0
    4.9390    6.2967    0.5447 Mn  0  0  0  0  0  0  0  0  0  0  0  0
    6.8779    5.1053    0.5914 P   0  0  0  0  0  4  0  0  0  0  0  0
    4.4365    4.9701   -1.2486 P   0  0  0  0  0  4  0  0  0  0  0  0
    5.8062    7.9776    2.7816 O   0  0  0  0  0  1  0  0  0  0  0  0
    3.4832    4.5887    2.4038 O   0  0  0  0  0  1  0  0  0  0  0  0
    2.4466    7.8175    0.3108 O   0  0  0  0  0  1  0  0  0  0  0  0
    7.1093    4.2825   -1.0451 C   0  0  0  0  0  0  0  0  0  0  0  0
    7.4571    5.0517   -1.7449 H   0  0  0  0  0  0  0  0  0  0  0  0
    7.8729    3.5021   -0.9685 H   0  0  0  0  0  0  0  0  0  0  0  0
    5.7707    3.7069   -1.4974 C   0  0  0  0  0  0  0  0  0  0  0  0
    5.5091    2.8371   -0.8833 H   0  0  0  0  0  0  0  0  0  0  0  0
    5.8044    3.4001   -2.5474 H   0  0  0  0  0  0  0  0  0  0  0  0
    4.2740    5.6554   -2.9419 C   0  0  0  0  0  0  0  0  0  0  0  0
    5.2378    6.1008   -3.2113 H   0  0  0  0  0  0  0  0  0  0  0  0
    4.0739    4.8192   -3.6208 H   0  0  0  0  0  0  0  0  0  0  0  0
    3.1786    6.7142   -3.0345 C   0  0  0  0  0  0  0  0  0  0  0  0
    3.4285    7.5480   -2.3741 H   0  0  0  0  0  0  0  0  0  0  0  0
    2.2235    6.2954   -2.7039 H   0  0  0  0  0  0  0  0  0  0  0  0
    3.0451    7.2366   -4.4585 C   0  0  0  0  0  0  0  0  0  0  0  0
    3.9801    7.6885   -4.7805 H   0  0  0  0  0  0  0  0  0  0  0  0
    2.2635    7.9899   -4.5127 H   0  0  0  0  0  0  0  0  0  0  0  0
    2.7938    6.4296   -5.1448 H   0  0  0  0  0  0  0  0  0  0  0  0
    2.9333    3.9255   -1.0467 C   0  0  0  0  0  0  0  0  0  0  0  0
    3.1018    3.3342   -0.1373 H   0  0  0  0  0  0  0  0  0  0  0  0
    2.1033    4.6091   -0.8294 H   0  0  0  0  0  0  0  0  0  0  0  0
    2.5678    2.9994   -2.2042 C   0  0  0  0  0  0  0  0  0  0  0  0
    3.4365    2.4042   -2.4966 H   0  0  0  0  0  0  0  0  0  0  0  0
    2.2543    3.5885   -3.0675 H   0  0  0  0  0  0  0  0  0  0  0  0
    1.4303    2.0658   -1.8053 C   0  0  0  0  0  0  0  0  0  0  0  0
    1.1599    1.4198   -2.6371 H   0  0  0  0  0  0  0  0  0  0  0  0
    0.5519    2.6381   -1.5151 H   0  0  0  0  0  0  0  0  0  0  0  0
    1.7226    1.4392   -0.9651 H   0  0  0  0  0  0  0  0  0  0  0  0
    6.9356    3.6712    1.7442 C   0  0  0  0  0  0  0  0  0  0  0  0
    6.0248    3.0843    1.5739 H   0  0  0  0  0  0  0  0  0  0  0  0
    7.7968    3.0391    1.5055 H   0  0  0  0  0  0  0  0  0  0  0  0
    6.9755    4.1333    3.1997 C   0  0  0  0  0  0  0  0  0  0  0  0
    7.9446    4.5887    3.4157 H   0  0  0  0  0  0  0  0  0  0  0  0
    6.2085    4.9004    3.3559 H   0  0  0  0  0  0  0  0  0  0  0  0
    6.7341    2.9759    4.1599 C   0  0  0  0  0  0  0  0  0  0  0  0
    5.7460    2.5493    4.0017 H   0  0  0  0  0  0  0  0  0  0  0  0
    6.7967    3.3182    5.1898 H   0  0  0  0  0  0  0  0  0  0  0  0
    7.4762    2.1936    4.0112 H   0  0  0  0  0  0  0  0  0  0  0  0
    8.4759    5.9626    0.8721 C   0  0  0  0  0  0  0  0  0  0  0  0
    8.5606    6.7228    0.0870 H   0  0  0  0  0  0  0  0  0  0  0  0
    8.3762    6.4942    1.8275 H   0  0  0  0  0  0  0  0  0  0  0  0
    9.7294    5.0897    0.8801 C   0  0  0  0  0  0  0  0  0  0  0  0
    9.6892    4.3683    1.6987 H   0  0  0  0  0  0  0  0  0  0  0  0
    9.8055    4.5358   -0.0576 H   0  0  0  0  0  0  0  0  0  0  0  0
   10.9707    5.9593    1.0452 C   0  0  0  0  0  0  0  0  0  0  0  0
   11.8674    5.3441    1.0506 H   0  0  0  0  0  0  0  0  0  0  0  0
   10.9279    6.5129    1.9805 H   0  0  0  0  0  0  0  0  0  0  0  0
   11.0465    6.6735    0.2288 H   0  0  0  0  0  0  0  0  0  0  0  0
    5.4750    7.3336    1.8895 C   0  0  0  0  0  2  0  0  0  0  0  0
    4.0799    5.2424    1.6644 C   0  0  0  0  0  2  0  0  0  0  0  0
    3.4421    7.2446    0.3592 C   0  0  0  0  0  2  0  0  0  0  0  0
  1  2  1  0  0  0  0
  2  3  1  0  0  0  0
  2 55  1  0  0  0  0
  2 54  1  0  0  0  0
  3 44  1  0  0  0  0
  3 34  1  0  0  0  0
  4 24  1  0  0  0  0
  4  2  1  0  0  0  0
  7 56  1  0  0  0  0
  8 10  1  0  0  0  0
  8  3  1  0  0  0  0
  9  8  1  0  0  0  0
 11  4  1  0  0  0  0
 11  8  1  0  0  0  0
 11 12  1  0  0  0  0
 13 11  1  0  0  0  0
 14  4  1  0  0  0  0
 15 14  1  0  0  0  0
 16 14  1  0  0  0  0
 17 14  1  0  0  0  0
 17 19  1  0  0  0  0
 17 18  1  0  0  0  0
 20 17  1  0  0  0  0
 21 20  1  0  0  0  0
 22 20  1  0  0  0  0
 23 20  1  0  0  0  0
 24 26  1  0  0  0  0
 24 25  1  0  0  0  0
 27 30  1  0  0  0  0
 27 24  1  0  0  0  0
 28 27  1  0  0  0  0
 29 27  1  0  0  0  0
 30 32  1  0  0  0  0
 30 33  1  0  0  0  0
 31 30  1  0  0  0  0
 34 37  1  0  0  0  0
 35 34  1  0  0  0  0
 36 34  1  0  0  0  0
 37 39  1  0  0  0  0
 37 38  1  0  0  0  0
 37 40  1  0  0  0  0
 40 42  1  0  0  0  0
 41 40  1  0  0  0  0
 43 40  1  0  0  0  0
 44 47  1  0  0  0  0
 44 46  1  0  0  0  0
 45 44  1  0  0  0  0
 47 50  1  0  0  0  0
 47 48  1  0  0  0  0
 49 47  1  0  0  0  0
 50 51  1  0  0  0  0
 50 52  1  0  0  0  0
 53 50  1  0  0  0  0
 54  5  1  0  0  0  0
 55  6  1  0  0  0  0
 56  2  1  0  0  0  0
M  END
$$$$
