CSD_code = BISXIK | q = 0 | S = 0 | Stoichiometry = C21H27ClCoN4O5P | MND = 6
 OpenBabel04212202013D

 60 63  0  0  0  0  0  0  0  0999 V2000
    1.1212    3.1353    2.3454 Co  0  0  0  0  0  0  0  0  0  0  0  0
    1.2723    1.1868    3.3119 Cl  0  0  0  0  0  0  0  0  0  0  0  0
    0.9677    5.1161    1.3754 P   0  0  0  0  0  4  0  0  0  0  0  0
   -1.5718    3.3328    3.3992 O   0  0  0  0  0  0  0  0  0  0  0  0
    1.9226    2.0536   -0.1087 O   0  0  0  0  0  1  0  0  0  0  0  0
    3.8116    2.8236    1.3595 O   0  0  0  0  0  0  0  0  0  0  0  0
    0.3040    4.4153    4.7150 O   0  0  0  0  0  1  0  0  0  0  0  0
    1.4068    5.0253   -0.1673 O   0  0  0  0  0  0  0  0  0  0  0  0
   -0.7543    2.9486    2.3891 N   0  0  0  0  0  0  0  0  0  0  0  0
    0.9377    2.2973    0.6683 N   0  0  0  0  0  0  0  0  0  0  0  0
    2.9944    3.2306    2.3554 N   0  0  0  0  0  0  0  0  0  0  0  0
    1.3014    3.9996    4.0192 N   0  0  0  0  0  0  0  0  0  0  0  0
   -2.7114    2.0754    1.1946 C   0  0  0  0  0  0  0  0  0  0  0  0
   -1.2564    2.3615    1.3540 C   0  0  0  0  0  0  0  0  0  0  0  0
   -0.2911    2.0003    0.3566 C   0  0  0  0  0  0  0  0  0  0  0  0
   -0.6585    1.3209   -0.9236 C   0  0  0  0  0  0  0  0  0  0  0  0
    4.9708    3.7844    3.7032 C   0  0  0  0  0  0  0  0  0  0  0  0
    3.5039    3.7018    3.4459 C   0  0  0  0  0  0  0  0  0  0  0  0
    2.5348    4.1661    4.3971 C   0  0  0  0  0  0  0  0  0  0  0  0
    2.9089    4.8191    5.6881 C   0  0  0  0  0  0  0  0  0  0  0  0
    1.6260    6.1723   -0.9855 C   0  0  0  0  0  0  0  0  0  0  0  0
   -0.7254    5.7865    1.3518 C   0  0  0  0  0  0  0  0  0  0  0  0
   -1.3543    6.1409    2.5435 C   0  0  0  0  0  0  0  0  0  0  0  0
   -2.6802    6.5336    2.5348 C   0  0  0  0  0  0  0  0  0  0  0  0
   -3.3942    6.5558    1.3481 C   0  0  0  0  0  0  0  0  0  0  0  0
   -2.7854    6.1619    0.1679 C   0  0  0  0  0  0  0  0  0  0  0  0
   -1.4599    5.7676    0.1694 C   0  0  0  0  0  0  0  0  0  0  0  0
    2.0365    6.4560    2.0167 C   0  0  0  0  0  0  0  0  0  0  0  0
    3.3993    6.3042    1.7639 C   0  0  0  0  0  0  0  0  0  0  0  0
    4.3073    7.2231    2.2551 C   0  0  0  0  0  0  0  0  0  0  0  0
    3.8637    8.2978    3.0094 C   0  0  0  0  0  0  0  0  0  0  0  0
    2.5101    8.4583    3.2516 C   0  0  0  0  0  0  0  0  0  0  0  0
    1.5954    7.5430    2.7582 C   0  0  0  0  0  0  0  0  0  0  0  0
   -0.9402    3.7657    4.0924 H   0  0  0  0  0  0  0  0  0  0  0  0
    3.1665    2.4316    0.6376 H   0  0  0  0  0  0  0  0  0  0  0  0
   -3.2472    2.4085    2.0791 H   0  0  0  0  0  0  0  0  0  0  0  0
   -2.8670    1.0071    1.0580 H   0  0  0  0  0  0  0  0  0  0  0  0
   -3.1004    2.5939    0.3196 H   0  0  0  0  0  0  0  0  0  0  0  0
    0.2375    1.2258   -1.5329 H   0  0  0  0  0  0  0  0  0  0  0  0
   -1.4083    1.8950   -1.4655 H   0  0  0  0  0  0  0  0  0  0  0  0
   -1.0587    0.3273   -0.7275 H   0  0  0  0  0  0  0  0  0  0  0  0
    5.5164    3.4764    2.8155 H   0  0  0  0  0  0  0  0  0  0  0  0
    5.2339    3.1228    4.5270 H   0  0  0  0  0  0  0  0  0  0  0  0
    5.2502    4.8002    3.9763 H   0  0  0  0  0  0  0  0  0  0  0  0
    2.0004    5.0053    6.2567 H   0  0  0  0  0  0  0  0  0  0  0  0
    3.4153    5.7671    5.5048 H   0  0  0  0  0  0  0  0  0  0  0  0
    3.5696    4.1762    6.2656 H   0  0  0  0  0  0  0  0  0  0  0  0
    0.9076    6.9671   -0.7757 H   0  0  0  0  0  0  0  0  0  0  0  0
    1.5173    5.8381   -2.0171 H   0  0  0  0  0  0  0  0  0  0  0  0
    2.6361    6.5578   -0.8361 H   0  0  0  0  0  0  0  0  0  0  0  0
   -0.8217    6.0723    3.4804 H   0  0  0  0  0  0  0  0  0  0  0  0
   -3.1614    6.8054    3.4619 H   0  0  0  0  0  0  0  0  0  0  0  0
   -4.4306    6.8586    1.3455 H   0  0  0  0  0  0  0  0  0  0  0  0
   -3.3473    6.1507   -0.7547 H   0  0  0  0  0  0  0  0  0  0  0  0
   -0.9988    5.4250   -0.7460 H   0  0  0  0  0  0  0  0  0  0  0  0
    3.7447    5.4650    1.1754 H   0  0  0  0  0  0  0  0  0  0  0  0
    5.3610    7.0987    2.0531 H   0  0  0  0  0  0  0  0  0  0  0  0
    4.5720    9.0112    3.4036 H   0  0  0  0  0  0  0  0  0  0  0  0
    2.1612    9.3001    3.8309 H   0  0  0  0  0  0  0  0  0  0  0  0
    0.5433    7.6862    2.9465 H   0  0  0  0  0  0  0  0  0  0  0  0
  1 11  1  0  0  0  0
  1  9  1  0  0  0  0
  1  2  1  0  0  0  0
  1 12  1  0  0  0  0
  3 28  1  0  0  0  0
  3  1  1  0  0  0  0
  4 34  1  0  0  0  0
  5 10  1  0  0  0  0
  6 11  1  0  0  0  0
  8  3  1  0  0  0  0
  9  4  1  0  0  0  0
 10  1  1  0  0  0  0
 11 18  1  0  0  0  0
 12 19  1  0  0  0  0
 12  7  1  0  0  0  0
 13 14  1  0  0  0  0
 13 36  1  0  0  0  0
 14  9  1  0  0  0  0
 15 10  1  0  0  0  0
 15 14  2  0  0  0  0
 16 41  1  0  0  0  0
 16 15  1  0  0  0  0
 17 44  1  0  0  0  0
 17 43  1  0  0  0  0
 18 17  1  0  0  0  0
 18 19  2  0  0  0  0
 19 20  1  0  0  0  0
 20 45  1  0  0  0  0
 20 47  1  0  0  0  0
 21 50  1  0  0  0  0
 21 48  1  0  0  0  0
 21  8  1  0  0  0  0
 22  3  1  0  0  0  0
 22 23  1  0  0  0  0
 23 51  1  0  0  0  0
 24 23  2  0  0  0  0
 24 52  1  0  0  0  0
 25 24  1  0  0  0  0
 26 27  1  0  0  0  0
 26 25  2  0  0  0  0
 27 22  2  0  0  0  0
 28 33  1  0  0  0  0
 29 28  2  0  0  0  0
 29 30  1  0  0  0  0
 30 31  2  0  0  0  0
 31 32  1  0  0  0  0
 31 58  1  0  0  0  0
 32 59  1  0  0  0  0
 33 60  1  0  0  0  0
 33 32  2  0  0  0  0
 35  6  1  0  0  0  0
 37 13  1  0  0  0  0
 38 13  1  0  0  0  0
 39 16  1  0  0  0  0
 40 16  1  0  0  0  0
 42 17  1  0  0  0  0
 46 20  1  0  0  0  0
 49 21  1  0  0  0  0
 53 25  1  0  0  0  0
 54 26  1  0  0  0  0
 55 27  1  0  0  0  0
 56 29  1  0  0  0  0
 57 30  1  0  0  0  0
M  END
$$$$
