CSD_code = BIWPOP | q = 0 | S = 0 | Stoichiometry = C15H23Cl2FeN3 | MND = 5
 OpenBabel04212202013D

 44 48  0  0  1  0  0  0  0  0999 V2000
    0.6556    3.1063    7.9176 Fe  0  0  0  0  0  0  0  0  0  0  0  0
   -0.1463    3.0923    5.9254 Cl  0  0  0  0  0  0  0  0  0  0  0  0
    1.7686    2.4888    9.6479 Cl  0  0  0  0  0  0  0  0  0  0  0  0
    2.1851    4.5723    7.2478 N   0  0  0  0  0  4  0  0  0  0  0  0
   -0.0960    4.6362    8.5529 N   0  0  0  0  0  0  0  0  0  0  0  0
   -1.1763    2.2578    8.8432 N   0  0  0  0  0  4  0  0  0  0  0  0
    3.2417    4.8408    8.2315 C   0  0  0  0  0  0  0  0  0  0  0  0
    2.8360    4.8127    9.2415 H   0  0  0  0  0  0  0  0  0  0  0  0
    3.6661    5.8386    8.0498 H   0  0  0  0  0  0  0  0  0  0  0  0
    4.2984    3.7528    7.9941 C   0  0  0  0  0  0  0  0  0  0  0  0
    4.2959    3.0294    8.8058 H   0  0  0  0  0  0  0  0  0  0  0  0
    5.2938    4.1895    7.9219 H   0  0  0  0  0  0  0  0  0  0  0  0
    3.8729    3.1005    6.6698 C   0  0  0  0  0  0  0  0  0  0  0  0
    4.7125    2.8611    6.0213 H   0  0  0  0  0  0  0  0  0  0  0  0
    3.3079    2.1839    6.8693 H   0  0  0  0  0  0  0  0  0  0  0  0
    2.9320    4.1349    6.0680 C   0  0  0  0  0  0  0  0  0  0  0  0
    3.4969    4.9745    5.6373 H   0  0  0  0  0  0  0  0  0  0  0  0
    2.2574    3.7291    5.3152 H   0  0  0  0  0  0  0  0  0  0  0  0
    1.3372    5.7402    7.0055 C   0  0  0  0  0  0  0  0  0  0  0  0
    0.8106    5.5700    6.0604 H   0  0  0  0  0  0  0  0  0  0  0  0
    1.9280    6.6634    6.9222 H   0  0  0  0  0  0  0  0  0  0  0  0
    0.3032    5.8389    8.0913 C   0  0  1  0  0  3  0  0  0  0  0  0
   -1.0617    4.5862    9.4930 C   0  0  0  0  0  0  0  0  0  0  0  0
   -1.6575    5.7278    9.9885 C   0  0  0  0  0  0  0  0  0  0  0  0
   -2.4308    5.6481   10.7364 H   0  0  0  0  0  0  0  0  0  0  0  0
   -1.2429    6.9697    9.5215 C   0  0  0  0  0  0  0  0  0  0  0  0
   -1.6884    7.8761    9.8978 H   0  0  0  0  0  0  0  0  0  0  0  0
   -0.2413    7.0173    8.5588 C   0  0  0  0  0  0  0  0  0  0  0  0
    0.1073    7.9610    8.1694 H   0  0  0  0  0  0  0  0  0  0  0  0
   -1.3604    3.1887    9.9574 C   0  0  0  0  0  0  0  0  0  0  0  0
   -0.6226    2.9290   10.7241 H   0  0  0  0  0  0  0  0  0  0  0  0
   -2.3671    3.1116   10.3919 H   0  0  0  0  0  0  0  0  0  0  0  0
   -2.3432    2.2121    7.9527 C   0  0  0  0  0  0  0  0  0  0  0  0
   -2.3488    3.0757    7.2898 H   0  0  0  0  0  0  0  0  0  0  0  0
   -3.2633    2.2234    8.5543 H   0  0  0  0  0  0  0  0  0  0  0  0
   -2.2142    0.8872    7.1879 C   0  0  0  0  0  0  0  0  0  0  0  0
   -1.9455    1.0661    6.1496 H   0  0  0  0  0  0  0  0  0  0  0  0
   -3.1518    0.3332    7.2130 H   0  0  0  0  0  0  0  0  0  0  0  0
   -1.0968    0.1356    7.9274 C   0  0  0  0  0  0  0  0  0  0  0  0
   -1.2947   -0.9284    8.0343 H   0  0  0  0  0  0  0  0  0  0  0  0
   -0.1459    0.2671    7.4004 H   0  0  0  0  0  0  0  0  0  0  0  0
   -1.0223    0.8643    9.2620 C   0  0  0  0  0  0  0  0  0  0  0  0
   -1.8528    0.5657    9.9181 H   0  0  0  0  0  0  0  0  0  0  0  0
   -0.0783    0.7233    9.7868 H   0  0  0  0  0  0  0  0  0  0  0  0
  1  5  1  0  0  0  0
  1  6  1  0  0  0  0
  1  3  1  0  0  0  0
  2  1  1  0  0  0  0
  4  1  1  0  0  0  0
  4  7  1  0  0  0  0
  5 23  1  0  0  0  0
  6 42  1  0  0  0  0
  6 30  1  0  0  0  0
  7  8  1  0  0  0  0
  9  7  1  0  0  0  0
 10  7  1  0  0  0  0
 10 11  1  0  0  0  0
 12 10  1  0  0  0  0
 13 15  1  0  0  0  0
 13 10  1  0  0  0  0
 14 13  1  0  0  0  0
 16 13  1  0  0  0  0
 16  4  1  0  0  0  0
 17 16  1  0  0  0  0
 18 16  1  0  0  0  0
 19  4  1  0  0  0  0
 19 22  1  0  0  0  0
 20 19  1  0  0  0  0
 21 19  1  0  0  0  0
 22  5  1  0  0  0  0
 22 28  1  6  0  0  0
 23 30  1  0  0  0  0
 23 24  2  0  0  0  0
 24 25  1  0  0  0  0
 26 27  1  0  0  0  0
 26 24  1  0  0  0  0
 28 26  2  0  0  0  0
 29 28  1  0  0  0  0
 30 32  1  0  0  0  0
 30 31  1  0  0  0  0
 33 35  1  0  0  0  0
 33  6  1  0  0  0  0
 34 33  1  0  0  0  0
 36 38  1  0  0  0  0
 36 39  1  0  0  0  0
 36 33  1  0  0  0  0
 37 36  1  0  0  0  0
 39 40  1  0  0  0  0
 39 42  1  0  0  0  0
 41 39  1  0  0  0  0
 42 44  1  0  0  0  0
 42 43  1  0  0  0  0
M  END
$$$$
