CSD_code = BIWPUV | q = 0 | S = 0 | Stoichiometry = C15H27Cl2FeN3 | MND = 5
 OpenBabel04212202013D

 48 50  0  0  1  0  0  0  0  0999 V2000
    2.9590    5.6470    3.6668 Fe  0  0  0  0  0  0  0  0  0  0  0  0
    2.2036    5.2902    5.6521 Cl  0  0  0  0  0  0  0  0  0  0  0  0
    2.9589    7.4616    3.6674 N   0  0  0  0  0  0  0  0  0  0  0  0
    5.0591    6.0293    4.3920 N   0  0  0  0  0  4  0  0  0  0  0  0
    5.3330    7.2579    3.6310 C   0  0  0  0  0  0  0  0  0  0  0  0
    5.4894    6.9736    2.5859 H   0  0  0  0  0  0  0  0  0  0  0  0
    6.2270    7.7823    3.9872 H   0  0  0  0  0  0  0  0  0  0  0  0
    4.1206    8.1450    3.6771 C   0  0  1  0  0  3  0  0  0  0  0  0
    5.9432    4.9302    3.9917 C   0  0  0  0  0  0  0  0  0  0  0  0
    6.9782    5.1155    4.3044 H   0  0  0  0  0  0  0  0  0  0  0  0
    5.9195    4.8793    2.9013 H   0  0  0  0  0  0  0  0  0  0  0  0
    5.1082    6.3039    5.8364 C   0  0  0  0  0  0  0  0  0  0  0  0
    4.6535    5.4621    6.3572 H   0  0  0  0  0  0  0  0  0  0  0  0
    4.4674    7.1705    6.0149 H   0  0  0  0  0  0  0  0  0  0  0  0
    5.4454    3.5981    4.5393 C   0  0  0  0  0  0  0  0  0  0  0  0
    5.9911    2.7816    4.0740 H   0  0  0  0  0  0  0  0  0  0  0  0
    4.3824    3.4845    4.2998 H   0  0  0  0  0  0  0  0  0  0  0  0
    5.5661    3.5282    5.6169 H   0  0  0  0  0  0  0  0  0  0  0  0
    4.1537    9.5248    3.6856 C   0  0  0  0  0  0  0  0  0  0  0  0
    5.1020   10.0391    3.6985 H   0  0  0  0  0  0  0  0  0  0  0  0
    6.4910    6.5665    6.4343 C   0  0  0  0  0  0  0  0  0  0  0  0
    7.0226    7.3570    5.9097 H   0  0  0  0  0  0  0  0  0  0  0  0
    7.1064    5.6707    6.4320 H   0  0  0  0  0  0  0  0  0  0  0  0
    6.3621    6.8792    7.4670 H   0  0  0  0  0  0  0  0  0  0  0  0
    2.9587   10.2346    3.6676 C   0  0  0  0  0  0  0  0  0  0  0  0
    2.9587   11.3125    3.6678 H   0  0  0  0  0  0  0  0  0  0  0  0
    0.8582    6.0291    2.9434 N   0  0  0  0  0  4  0  0  0  0  0  0
    0.5846    7.2578    3.7042 C   0  0  0  0  0  0  0  0  0  0  0  0
    0.4287    6.9735    4.7494 H   0  0  0  0  0  0  0  0  0  0  0  0
   -0.3096    7.7821    3.3484 H   0  0  0  0  0  0  0  0  0  0  0  0
    1.7971    8.1450    3.6577 C   0  0  0  0  0  0  0  0  0  0  0  0
   -0.0259    4.9301    3.3438 C   0  0  0  0  0  0  0  0  0  0  0  0
   -1.0609    5.1154    3.0310 H   0  0  0  0  0  0  0  0  0  0  0  0
   -0.0022    4.8794    4.4342 H   0  0  0  0  0  0  0  0  0  0  0  0
    0.8089    6.3036    1.4990 C   0  0  0  0  0  0  0  0  0  0  0  0
    1.2633    5.4617    0.9780 H   0  0  0  0  0  0  0  0  0  0  0  0
    1.4499    7.1700    1.3202 H   0  0  0  0  0  0  0  0  0  0  0  0
    0.4717    3.5979    2.7964 C   0  0  0  0  0  0  0  0  0  0  0  0
   -0.0745    2.7815    3.2614 H   0  0  0  0  0  0  0  0  0  0  0  0
    1.5346    3.4838    3.0363 H   0  0  0  0  0  0  0  0  0  0  0  0
    0.3515    3.5279    1.7187 H   0  0  0  0  0  0  0  0  0  0  0  0
    1.7638    9.5247    3.6494 C   0  0  0  0  0  0  0  0  0  0  0  0
    0.8155   10.0389    3.6366 H   0  0  0  0  0  0  0  0  0  0  0  0
   -0.5739    6.5664    0.9012 C   0  0  0  0  0  0  0  0  0  0  0  0
   -1.1051    7.3570    1.4260 H   0  0  0  0  0  0  0  0  0  0  0  0
   -1.1895    5.6708    0.9036 H   0  0  0  0  0  0  0  0  0  0  0  0
   -0.4452    6.8792   -0.1315 H   0  0  0  0  0  0  0  0  0  0  0  0
    3.7142    5.2889    1.6821 Cl  0  0  0  0  0  0  0  0  0  0  0  0
  1  3  1  0  0  0  0
  1  4  1  0  0  0  0
  1  2  1  0  0  0  0
  3  8  1  0  0  0  0
  4 12  1  0  0  0  0
  5  8  1  0  0  0  0
  5  7  1  0  0  0  0
  5  4  1  0  0  0  0
  6  5  1  0  0  0  0
  8 19  1  6  0  0  0
  9 10  1  0  0  0  0
  9  4  1  0  0  0  0
  9 15  1  0  0  0  0
 11  9  1  0  0  0  0
 12 14  1  0  0  0  0
 12 13  1  0  0  0  0
 12 21  1  0  0  0  0
 15 18  1  0  0  0  0
 16 15  1  0  0  0  0
 17 15  1  0  0  0  0
 19 20  1  0  0  0  0
 21 24  1  0  0  0  0
 22 21  1  0  0  0  0
 23 21  1  0  0  0  0
 25 26  1  0  0  0  0
 25 19  2  0  0  0  0
 27 32  1  0  0  0  0
 27  1  1  0  0  0  0
 27 28  1  0  0  0  0
 28 29  1  0  0  0  0
 30 28  1  0  0  0  0
 31  3  1  0  0  0  0
 31 28  1  0  0  0  0
 32 34  1  0  0  0  0
 33 32  1  0  0  0  0
 35 27  1  0  0  0  0
 36 35  1  0  0  0  0
 37 35  1  0  0  0  0
 38 40  1  0  0  0  0
 38 39  1  0  0  0  0
 38 32  1  0  0  0  0
 41 38  1  0  0  0  0
 42 31  2  0  0  0  0
 42 25  1  0  0  0  0
 43 42  1  0  0  0  0
 44 46  1  0  0  0  0
 44 45  1  0  0  0  0
 44 35  1  0  0  0  0
 47 44  1  0  0  0  0
 48  1  1  0  0  0  0
M  END
$$$$
