CSD_code = BIXFOG | q = 0 | S = 0 | Stoichiometry = C36H27Cl2FeN5 | MND = 4
 OpenBabel04212202013D

 71 76  0  0  0  0  0  0  0  0999 V2000
   -1.2874   10.7721    3.0746 Fe  0  0  0  0  0  0  0  0  0  0  0  0
    0.6114   10.8082    6.2748 C   0  0  0  0  0  0  0  0  0  0  0  0
    1.0000   10.7660    7.3015 H   0  0  0  0  0  0  0  0  0  0  0  0
   -0.4284   11.8100    6.2796 N   0  0  0  0  0  0  0  0  0  0  0  0
   -3.1430   10.1718    3.5773 Cl  0  0  0  0  0  0  0  0  0  0  0  0
   -2.0651   12.9607    5.5330 C   0  0  0  0  0  0  0  0  0  0  0  0
   -1.1257   12.0887    5.1802 N   0  0  0  0  0  0  0  0  0  0  0  0
    0.4462   11.3974    2.2577 Cl  0  0  0  0  0  0  0  0  0  0  0  0
   -1.9678   13.2337    6.9104 C   0  0  0  0  0  0  0  0  0  0  0  0
   -2.5614   13.9136    7.4858 H   0  0  0  0  0  0  0  0  0  0  0  0
    0.0624    9.5132    5.9748 N   0  0  0  0  0  0  0  0  0  0  0  0
   -0.8998   12.4853    7.3590 C   0  0  0  0  0  0  0  0  0  0  0  0
   -0.3096    9.1730    4.7376 N   0  0  0  0  0  0  0  0  0  0  0  0
   -0.8735    7.9708    4.8221 C   0  0  0  0  0  0  0  0  0  0  0  0
   -0.8888    7.5467    6.1663 C   0  0  0  0  0  0  0  0  0  0  0  0
   -1.2572    6.6224    6.5602 H   0  0  0  0  0  0  0  0  0  0  0  0
    1.7343   11.2226    5.3397 C   0  0  0  0  0  0  0  0  0  0  0  0
    2.4417   10.3206    4.5588 C   0  0  0  0  0  0  0  0  0  0  0  0
    2.2019    9.2699    4.5635 H   0  0  0  0  0  0  0  0  0  0  0  0
    3.4514   10.8142    3.7479 C   0  0  0  0  0  0  0  0  0  0  0  0
    4.0119   10.1457    3.1119 H   0  0  0  0  0  0  0  0  0  0  0  0
    3.7185   12.1726    3.7566 C   0  0  0  0  0  0  0  0  0  0  0  0
    4.4842   12.5954    3.1263 H   0  0  0  0  0  0  0  0  0  0  0  0
    2.9700   12.9804    4.5983 C   0  0  0  0  0  0  0  0  0  0  0  0
    3.1409   14.0471    4.6577 H   0  0  0  0  0  0  0  0  0  0  0  0
   -3.0156   13.4945    4.5675 C   0  0  0  0  0  0  0  0  0  0  0  0
   -4.2807   13.9116    4.9742 C   0  0  0  0  0  0  0  0  0  0  0  0
   -4.5603   13.8355    6.0143 H   0  0  0  0  0  0  0  0  0  0  0  0
   -5.1865   14.3964    4.0495 C   0  0  0  0  0  0  0  0  0  0  0  0
   -6.1680   14.7108    4.3734 H   0  0  0  0  0  0  0  0  0  0  0  0
   -4.8425   14.4728    2.7102 C   0  0  0  0  0  0  0  0  0  0  0  0
   -5.5541   14.8475    1.9894 H   0  0  0  0  0  0  0  0  0  0  0  0
   -3.5833   14.0672    2.2978 C   0  0  0  0  0  0  0  0  0  0  0  0
   -3.3094   14.1322    1.2552 H   0  0  0  0  0  0  0  0  0  0  0  0
   -2.6728   13.5832    3.2181 C   0  0  0  0  0  0  0  0  0  0  0  0
   -1.6728   13.3021    2.9037 H   0  0  0  0  0  0  0  0  0  0  0  0
   -0.2971   12.4120    8.6856 C   0  0  0  0  0  0  0  0  0  0  0  0
    1.0717   12.6209    8.8510 C   0  0  0  0  0  0  0  0  0  0  0  0
    1.6805   12.8591    7.9898 H   0  0  0  0  0  0  0  0  0  0  0  0
    1.6329   12.5625   10.1132 C   0  0  0  0  0  0  0  0  0  0  0  0
    2.6932   12.7283   10.2353 H   0  0  0  0  0  0  0  0  0  0  0  0
    0.8397   12.3033   11.2184 C   0  0  0  0  0  0  0  0  0  0  0  0
    1.2816   12.2603   12.2026 H   0  0  0  0  0  0  0  0  0  0  0  0
   -1.0905   12.1642    9.8018 C   0  0  0  0  0  0  0  0  0  0  0  0
   -2.1509   12.0074    9.6728 H   0  0  0  0  0  0  0  0  0  0  0  0
   -0.5223   12.1098   11.0606 C   0  0  0  0  0  0  0  0  0  0  0  0
   -1.1440   11.9159   11.9218 H   0  0  0  0  0  0  0  0  0  0  0  0
   -0.0432    8.6736    8.3173 C   0  0  0  0  0  0  0  0  0  0  0  0
   -1.1121    8.5440    9.1997 C   0  0  0  0  0  0  0  0  0  0  0  0
   -2.1014    8.3664    8.8053 H   0  0  0  0  0  0  0  0  0  0  0  0
   -0.9085    8.6535   10.5623 C   0  0  0  0  0  0  0  0  0  0  0  0
   -1.7442    8.5544   11.2387 H   0  0  0  0  0  0  0  0  0  0  0  0
    0.3619    8.8909   11.0592 C   0  0  0  0  0  0  0  0  0  0  0  0
    0.5197    8.9778   12.1234 H   0  0  0  0  0  0  0  0  0  0  0  0
    1.4320    9.0080   10.1889 C   0  0  0  0  0  0  0  0  0  0  0  0
    2.4260    9.1812   10.5731 H   0  0  0  0  0  0  0  0  0  0  0  0
    1.2348    8.8982    8.8247 C   0  0  0  0  0  0  0  0  0  0  0  0
    2.0796    8.9574    8.1521 H   0  0  0  0  0  0  0  0  0  0  0  0
   -1.3674    7.2774    3.6412 C   0  0  0  0  0  0  0  0  0  0  0  0
   -0.9729    7.6933    2.3681 C   0  0  0  0  0  0  0  0  0  0  0  0
   -0.2692    8.5134    2.2704 H   0  0  0  0  0  0  0  0  0  0  0  0
   -1.4534    7.0510    1.2436 C   0  0  0  0  0  0  0  0  0  0  0  0
   -1.1432    7.3820    0.2635 H   0  0  0  0  0  0  0  0  0  0  0  0
   -2.3288    5.9839    1.3702 C   0  0  0  0  0  0  0  0  0  0  0  0
   -2.7063    5.4849    0.4900 H   0  0  0  0  0  0  0  0  0  0  0  0
   -2.7209    5.5622    2.6293 C   0  0  0  0  0  0  0  0  0  0  0  0
   -3.4062    4.7334    2.7318 H   0  0  0  0  0  0  0  0  0  0  0  0
   -2.2450    6.2020    3.7585 C   0  0  0  0  0  0  0  0  0  0  0  0
   -2.5705    5.8778    4.7350 H   0  0  0  0  0  0  0  0  0  0  0  0
   -0.2863    8.5583    6.8810 C   0  0  0  0  0  0  0  0  0  0  0  0
    2.0101   12.5190    5.3776 N   0  0  0  0  0  0  0  0  0  0  0  0
  1  5  1  0  0  0  0
  2  4  1  0  0  0  0
  2  3  1  0  0  0  0
  4 12  1  0  0  0  0
  6  9  1  0  0  0  0
  7  6  2  0  0  0  0
  7  4  1  0  0  0  0
  8  1  1  0  0  0  0
  9 12  2  0  0  0  0
  9 10  1  0  0  0  0
 11  2  1  0  0  0  0
 11 70  1  0  0  0  0
 12 37  1  0  0  0  0
 13 14  2  0  0  0  0
 13 11  1  0  0  0  0
 14 15  1  0  0  0  0
 15 16  1  0  0  0  0
 15 70  2  0  0  0  0
 17 71  1  0  0  0  0
 17  2  1  0  0  0  0
 18 19  1  0  0  0  0
 18 17  2  0  0  0  0
 20 22  2  0  0  0  0
 20 18  1  0  0  0  0
 21 20  1  0  0  0  0
 22 24  1  0  0  0  0
 23 22  1  0  0  0  0
 24 25  1  0  0  0  0
 24 71  2  0  0  0  0
 26 27  1  0  0  0  0
 26  6  1  0  0  0  0
 27 28  1  0  0  0  0
 29 30  1  0  0  0  0
 29 27  2  0  0  0  0
 31 29  1  0  0  0  0
 32 31  1  0  0  0  0
 33 31  2  0  0  0  0
 33 35  1  0  0  0  0
 34 33  1  0  0  0  0
 35 26  2  0  0  0  0
 36 35  1  0  0  0  0
 37 38  2  0  0  0  0
 37 44  1  0  0  0  0
 38 40  1  0  0  0  0
 39 38  1  0  0  0  0
 40 41  1  0  0  0  0
 40 42  2  0  0  0  0
 42 43  1  0  0  0  0
 44 46  2  0  0  0  0
 45 44  1  0  0  0  0
 46 42  1  0  0  0  0
 46 47  1  0  0  0  0
 48 57  2  0  0  0  0
 48 49  1  0  0  0  0
 49 51  2  0  0  0  0
 50 49  1  0  0  0  0
 51 53  1  0  0  0  0
 51 52  1  0  0  0  0
 53 54  1  0  0  0  0
 55 56  1  0  0  0  0
 55 53  2  0  0  0  0
 57 55  1  0  0  0  0
 58 57  1  0  0  0  0
 59 68  1  0  0  0  0
 59 14  1  0  0  0  0
 60 59  2  0  0  0  0
 61 60  1  0  0  0  0
 62 64  2  0  0  0  0
 62 60  1  0  0  0  0
 63 62  1  0  0  0  0
 64 66  1  0  0  0  0
 65 64  1  0  0  0  0
 66 67  1  0  0  0  0
 66 68  2  0  0  0  0
 68 69  1  0  0  0  0
 70 48  1  0  0  0  0
M  END
$$$$
