CSD_code = BIXJIC | q = 0 | S = 0 | Stoichiometry = C28H26Cl2OP2Pd | MND = 4
 OpenBabel04212202013D

 60 64  0  0  0  0  0  0  0  0999 V2000
    7.5623    4.9835    4.2905 Pd  0  0  0  0  0  0  0  0  0  0  0  0
    9.2704    6.4518    4.1178 Cl  0  0  0  0  0  0  0  0  0  0  0  0
    8.0800    3.9782    2.3411 Cl  0  0  0  0  0  0  0  0  0  0  0  0
    3.2616    2.8723    7.0631 O   0  0  0  0  0  0  0  0  0  0  0  0
    7.0820    5.4364    6.4714 P   0  0  0  0  0  4  0  0  0  0  0  0
    5.6360    3.8724    4.6879 P   0  0  0  0  0  4  0  0  0  0  0  0
    6.7869    6.8624    7.5501 C   0  0  0  0  0  0  0  0  0  0  0  0
    5.7680    6.9492    8.4913 C   0  0  0  0  0  0  0  0  0  0  0  0
    5.0644    6.1379    8.6175 H   0  0  0  0  0  0  0  0  0  0  0  0
    5.6586    8.0866    9.2722 C   0  0  0  0  0  0  0  0  0  0  0  0
    4.8700    8.1574   10.0072 H   0  0  0  0  0  0  0  0  0  0  0  0
    6.5549    9.1313    9.1140 C   0  0  0  0  0  0  0  0  0  0  0  0
    6.4612   10.0150    9.7275 H   0  0  0  0  0  0  0  0  0  0  0  0
    7.5648    9.0490    8.1672 C   0  0  0  0  0  0  0  0  0  0  0  0
    8.2565    9.8681    8.0403 H   0  0  0  0  0  0  0  0  0  0  0  0
    7.6804    7.9185    7.3811 C   0  0  0  0  0  0  0  0  0  0  0  0
    8.4506    7.8353    6.6235 H   0  0  0  0  0  0  0  0  0  0  0  0
    8.3283    4.4759    7.3962 C   0  0  0  0  0  0  0  0  0  0  0  0
    8.4092    4.5094    8.7856 C   0  0  0  0  0  0  0  0  0  0  0  0
    7.7395    5.1449    9.3491 H   0  0  0  0  0  0  0  0  0  0  0  0
    9.3595    3.7468    9.4401 C   0  0  0  0  0  0  0  0  0  0  0  0
    9.4234    3.7787   10.5179 H   0  0  0  0  0  0  0  0  0  0  0  0
   10.2327    2.9504    8.7164 C   0  0  0  0  0  0  0  0  0  0  0  0
   10.9759    2.3607    9.2319 H   0  0  0  0  0  0  0  0  0  0  0  0
   10.1650    2.9232    7.3324 C   0  0  0  0  0  0  0  0  0  0  0  0
   10.8579    2.3166    6.7688 H   0  0  0  0  0  0  0  0  0  0  0  0
    9.2195    3.6855    6.6694 C   0  0  0  0  0  0  0  0  0  0  0  0
    9.1923    3.6921    5.5683 H   0  0  0  0  0  0  0  0  0  0  0  0
    5.5638    4.3288    6.5193 C   0  0  0  0  0  0  0  0  0  0  0  0
    4.6618    4.9297    6.6904 H   0  0  0  0  0  0  0  0  0  0  0  0
    5.5955    3.1547    7.4882 C   0  0  0  0  0  0  0  0  0  0  0  0
    6.4231    2.4767    7.2666 H   0  0  0  0  0  0  0  0  0  0  0  0
    5.7396    3.5167    8.5125 H   0  0  0  0  0  0  0  0  0  0  0  0
    4.2867    2.3851    7.4679 C   0  0  0  0  0  0  0  0  0  0  0  0
    4.3768    0.9829    7.9995 C   0  0  0  0  0  0  0  0  0  0  0  0
    3.3860    0.6053    8.2376 H   0  0  0  0  0  0  0  0  0  0  0  0
    5.0200    0.9379    8.8743 H   0  0  0  0  0  0  0  0  0  0  0  0
    4.8105    0.3523    7.2237 H   0  0  0  0  0  0  0  0  0  0  0  0
    4.3000    4.8801    3.9911 C   0  0  0  0  0  0  0  0  0  0  0  0
    2.9801    4.8300    4.4341 C   0  0  0  0  0  0  0  0  0  0  0  0
    2.6994    4.1567    5.2318 H   0  0  0  0  0  0  0  0  0  0  0  0
    2.0381    5.6653    3.8607 C   0  0  0  0  0  0  0  0  0  0  0  0
    1.0127    5.6258    4.1981 H   0  0  0  0  0  0  0  0  0  0  0  0
    2.4055    6.5543    2.8622 C   0  0  0  0  0  0  0  0  0  0  0  0
    1.6627    7.2014    2.4196 H   0  0  0  0  0  0  0  0  0  0  0  0
    3.7232    6.6239    2.4387 C   0  0  0  0  0  0  0  0  0  0  0  0
    4.0095    7.3277    1.6717 H   0  0  0  0  0  0  0  0  0  0  0  0
    4.6736    5.7906    3.0014 C   0  0  0  0  0  0  0  0  0  0  0  0
    5.7190    5.8392    2.6701 H   0  0  0  0  0  0  0  0  0  0  0  0
    5.2238    2.1108    4.5607 C   0  0  0  0  0  0  0  0  0  0  0  0
    3.9841    1.6003    4.1982 C   0  0  0  0  0  0  0  0  0  0  0  0
    3.1678    2.2671    3.9676 H   0  0  0  0  0  0  0  0  0  0  0  0
    3.8073    0.2295    4.1286 C   0  0  0  0  0  0  0  0  0  0  0  0
    2.8441   -0.1713    3.8503 H   0  0  0  0  0  0  0  0  0  0  0  0
    4.8589   -0.6292    4.4060 C   0  0  0  0  0  0  0  0  0  0  0  0
    4.7114   -1.6974    4.3485 H   0  0  0  0  0  0  0  0  0  0  0  0
    6.1074   -0.1204    4.7329 C   0  0  0  0  0  0  0  0  0  0  0  0
    6.9343   -0.7896    4.9199 H   0  0  0  0  0  0  0  0  0  0  0  0
    6.2922    1.2470    4.8000 C   0  0  0  0  0  0  0  0  0  0  0  0
    7.2722    1.6663    5.0101 H   0  0  0  0  0  0  0  0  0  0  0  0
  1  6  1  0  0  0  0
  1  5  1  0  0  0  0
  2  1  1  0  0  0  0
  3  1  1  0  0  0  0
  4 34  2  0  0  0  0
  5 29  1  0  0  0  0
  5 18  1  0  0  0  0
  5  7  1  0  0  0  0
  6 29  1  0  0  0  0
  7  8  1  0  0  0  0
  8  9  1  0  0  0  0
  8 10  2  0  0  0  0
 10 11  1  0  0  0  0
 12 10  1  0  0  0  0
 12 13  1  0  0  0  0
 14 12  2  0  0  0  0
 15 14  1  0  0  0  0
 16  7  2  0  0  0  0
 16 14  1  0  0  0  0
 17 16  1  0  0  0  0
 18 19  1  0  0  0  0
 19 20  1  0  0  0  0
 19 21  2  0  0  0  0
 21 22  1  0  0  0  0
 23 24  1  0  0  0  0
 23 21  1  0  0  0  0
 25 23  2  0  0  0  0
 26 25  1  0  0  0  0
 27 25  1  0  0  0  0
 27 18  2  0  0  0  0
 28 27  1  0  0  0  0
 29 30  1  0  0  0  0
 29 31  1  0  0  0  0
 31 33  1  0  0  0  0
 32 31  1  0  0  0  0
 34 31  1  0  0  0  0
 34 35  1  0  0  0  0
 35 36  1  0  0  0  0
 35 37  1  0  0  0  0
 38 35  1  0  0  0  0
 39 40  1  0  0  0  0
 39  6  1  0  0  0  0
 40 41  1  0  0  0  0
 42 43  1  0  0  0  0
 42 40  2  0  0  0  0
 44 42  1  0  0  0  0
 45 44  1  0  0  0  0
 46 44  2  0  0  0  0
 46 48  1  0  0  0  0
 47 46  1  0  0  0  0
 48 39  2  0  0  0  0
 49 48  1  0  0  0  0
 50  6  1  0  0  0  0
 50 59  1  0  0  0  0
 51 50  2  0  0  0  0
 52 51  1  0  0  0  0
 53 51  1  0  0  0  0
 53 55  2  0  0  0  0
 54 53  1  0  0  0  0
 55 57  1  0  0  0  0
 56 55  1  0  0  0  0
 57 59  2  0  0  0  0
 57 58  1  0  0  0  0
 59 60  1  0  0  0  0
M  END
$$$$
