CSD_code = BIXQII | q = 0 | S = 0 | Stoichiometry = C39H36ClO4P2ReSi | MND = 6
 OpenBabel04212202013D

 84 91  0  0  0  0  0  0  0  0999 V2000
    3.1321   -1.6203   -3.0580 Re  0  0  0  0  0  0  0  0  0  0  0  0
    5.1760   -0.8872   -3.7423 Cl  0  0  0  0  0  0  0  0  0  0  0  0
    1.4424   -3.3289   -2.7735 P   0  0  0  0  0  4  0  0  0  0  0  0
    2.3830   -0.5837   -5.0999 P   0  0  0  0  0  4  0  0  0  0  0  0
    2.3003   -1.8688    1.0134 Si  0  0  0  0  0  0  0  0  0  0  0  0
    2.6545   -0.4291   -2.0138 O   0  0  0  0  0  1  0  0  0  0  0  0
    2.9021   -2.7476   -5.1784 O   0  0  0  0  0  0  0  0  0  0  0  0
    4.2235   -3.3406   -2.6609 O   0  0  0  0  0  0  0  0  0  0  0  0
    1.4737   -2.3913   -0.3403 O   0  0  0  0  0  0  0  0  0  0  0  0
    1.1514   -4.1271   -4.3664 C   0  0  0  0  0  0  0  0  0  0  0  0
    0.2567   -5.1664   -4.5822 C   0  0  0  0  0  0  0  0  0  0  0  0
    0.1748   -5.7592   -5.8265 C   0  0  0  0  0  0  0  0  0  0  0  0
    1.0080   -5.3271   -6.8508 C   0  0  0  0  0  0  0  0  0  0  0  0
    1.9227   -4.3187   -6.6444 C   0  0  0  0  0  0  0  0  0  0  0  0
    2.0282   -3.7025   -5.3883 C   0  0  0  0  0  0  0  0  0  0  0  0
    2.3763   -4.5928   -1.8953 C   0  0  0  0  0  0  0  0  0  0  0  0
    1.8618   -5.6754   -1.2030 C   0  0  0  0  0  0  0  0  0  0  0  0
    2.7314   -6.5900   -0.6375 C   0  0  0  0  0  0  0  0  0  0  0  0
    4.1024   -6.4210   -0.7879 C   0  0  0  0  0  0  0  0  0  0  0  0
    4.6245   -5.3450   -1.4740 C   0  0  0  0  0  0  0  0  0  0  0  0
    3.7657   -4.3903   -2.0401 C   0  0  0  0  0  0  0  0  0  0  0  0
   -0.0948   -3.1101   -1.8691 C   0  0  0  0  0  0  0  0  0  0  0  0
   -1.3972   -3.3313   -2.2842 C   0  0  0  0  0  0  0  0  0  0  0  0
   -2.4385   -3.0652   -1.4111 C   0  0  0  0  0  0  0  0  0  0  0  0
   -2.1748   -2.5636   -0.1461 C   0  0  0  0  0  0  0  0  0  0  0  0
   -0.8764   -2.3162    0.2682 C   0  0  0  0  0  0  0  0  0  0  0  0
    0.1744   -2.5867   -0.5946 C   0  0  0  0  0  0  0  0  0  0  0  0
    1.9009   -3.0676    2.4462 C   0  0  0  0  0  0  0  0  0  0  0  0
    1.8128   -0.0653    1.3980 C   0  0  0  0  0  0  0  0  0  0  0  0
    4.1161   -2.0205    0.5058 C   0  0  0  0  0  0  0  0  0  0  0  0
    3.3683   -0.4260   -6.6204 C   0  0  0  0  0  0  0  0  0  0  0  0
    4.5109   -1.1647   -6.8944 C   0  0  0  0  0  0  0  0  0  0  0  0
    5.1781   -0.9819   -8.0931 C   0  0  0  0  0  0  0  0  0  0  0  0
    4.7085   -0.0716   -9.0246 C   0  0  0  0  0  0  0  0  0  0  0  0
    3.5661    0.6648   -8.7545 C   0  0  0  0  0  0  0  0  0  0  0  0
    2.8999    0.4951   -7.5554 C   0  0  0  0  0  0  0  0  0  0  0  0
    0.7133   -1.0979   -5.5682 C   0  0  0  0  0  0  0  0  0  0  0  0
   -0.2681   -1.0243   -4.5834 C   0  0  0  0  0  0  0  0  0  0  0  0
   -1.5617   -1.4197   -4.8681 C   0  0  0  0  0  0  0  0  0  0  0  0
   -1.8697   -1.9244   -6.1226 C   0  0  0  0  0  0  0  0  0  0  0  0
   -0.8891   -2.0168   -7.0957 C   0  0  0  0  0  0  0  0  0  0  0  0
    0.4023   -1.5977   -6.8253 C   0  0  0  0  0  0  0  0  0  0  0  0
    2.1262    1.2062   -4.7169 C   0  0  0  0  0  0  0  0  0  0  0  0
    0.9676    1.8962   -5.0578 C   0  0  0  0  0  0  0  0  0  0  0  0
    0.8491    3.2453   -4.7711 C   0  0  0  0  0  0  0  0  0  0  0  0
    1.8837    3.9188   -4.1454 C   0  0  0  0  0  0  0  0  0  0  0  0
    3.0423    3.2382   -3.8072 C   0  0  0  0  0  0  0  0  0  0  0  0
    3.1635    1.8904   -4.0901 C   0  0  0  0  0  0  0  0  0  0  0  0
   -0.3582   -5.5217   -3.7674 H   0  0  0  0  0  0  0  0  0  0  0  0
   -0.5223   -6.5654   -5.9977 H   0  0  0  0  0  0  0  0  0  0  0  0
    0.9483   -5.7973   -7.8219 H   0  0  0  0  0  0  0  0  0  0  0  0
    2.5889   -3.9962   -7.4309 H   0  0  0  0  0  0  0  0  0  0  0  0
    0.7905   -5.7894   -1.1016 H   0  0  0  0  0  0  0  0  0  0  0  0
    2.3468   -7.4338   -0.0849 H   0  0  0  0  0  0  0  0  0  0  0  0
    4.7773   -7.1441   -0.3524 H   0  0  0  0  0  0  0  0  0  0  0  0
    5.6903   -5.2135   -1.5845 H   0  0  0  0  0  0  0  0  0  0  0  0
   -1.5926   -3.7039   -3.2781 H   0  0  0  0  0  0  0  0  0  0  0  0
   -3.4576   -3.2464   -1.7178 H   0  0  0  0  0  0  0  0  0  0  0  0
   -2.9927   -2.3556    0.5277 H   0  0  0  0  0  0  0  0  0  0  0  0
   -0.6766   -1.9116    1.2471 H   0  0  0  0  0  0  0  0  0  0  0  0
    2.0313   -4.1005    2.1328 H   0  0  0  0  0  0  0  0  0  0  0  0
    0.8836   -2.9641    2.8119 H   0  0  0  0  0  0  0  0  0  0  0  0
    2.5645   -2.8943    3.2864 H   0  0  0  0  0  0  0  0  0  0  0  0
    0.7850    0.0382    1.7360 H   0  0  0  0  0  0  0  0  0  0  0  0
    1.9280    0.5405    0.5023 H   0  0  0  0  0  0  0  0  0  0  0  0
    2.4517    0.3569    2.1672 H   0  0  0  0  0  0  0  0  0  0  0  0
    4.3993   -3.0533    0.3233 H   0  0  0  0  0  0  0  0  0  0  0  0
    4.7713   -1.6285    1.2770 H   0  0  0  0  0  0  0  0  0  0  0  0
    4.3085   -1.4568   -0.4055 H   0  0  0  0  0  0  0  0  0  0  0  0
    4.8757   -1.8745   -6.1705 H   0  0  0  0  0  0  0  0  0  0  0  0
    6.0704   -1.5541   -8.2991 H   0  0  0  0  0  0  0  0  0  0  0  0
    5.2315    0.0671   -9.9595 H   0  0  0  0  0  0  0  0  0  0  0  0
    3.1950    1.3763   -9.4778 H   0  0  0  0  0  0  0  0  0  0  0  0
    2.0132    1.0760   -7.3426 H   0  0  0  0  0  0  0  0  0  0  0  0
   -0.0010   -0.6394   -3.6057 H   0  0  0  0  0  0  0  0  0  0  0  0
   -2.3282   -1.3369   -4.1120 H   0  0  0  0  0  0  0  0  0  0  0  0
   -2.8774   -2.2454   -6.3419 H   0  0  0  0  0  0  0  0  0  0  0  0
   -1.1298   -2.4151   -8.0700 H   0  0  0  0  0  0  0  0  0  0  0  0
    1.1676   -1.6539   -7.5854 H   0  0  0  0  0  0  0  0  0  0  0  0
    0.1510    1.3832   -5.5471 H   0  0  0  0  0  0  0  0  0  0  0  0
   -0.0569    3.7703   -5.0382 H   0  0  0  0  0  0  0  0  0  0  0  0
    1.7859    4.9709   -3.9210 H   0  0  0  0  0  0  0  0  0  0  0  0
    3.8525    3.7589   -3.3191 H   0  0  0  0  0  0  0  0  0  0  0  0
    4.0648    1.3553   -3.8235 H   0  0  0  0  0  0  0  0  0  0  0  0
  1  3  1  0  0  0  0
  1  8  1  0  0  0  0
  1  6  1  0  0  0  0
  2  1  1  0  0  0  0
  3 16  1  0  0  0  0
  3 22  1  0  0  0  0
  4 43  1  0  0  0  0
  4  1  1  0  0  0  0
  5 29  1  0  0  0  0
  5 28  1  0  0  0  0
  7  1  1  0  0  0  0
  8 21  1  0  0  0  0
  9  5  1  0  0  0  0
 10  3  1  0  0  0  0
 11 10  1  0  0  0  0
 11 49  1  0  0  0  0
 12 11  2  0  0  0  0
 13 14  2  0  0  0  0
 13 12  1  0  0  0  0
 14 15  1  0  0  0  0
 15  7  1  0  0  0  0
 15 10  2  0  0  0  0
 16 17  1  0  0  0  0
 17 53  1  0  0  0  0
 17 18  2  0  0  0  0
 18 54  1  0  0  0  0
 19 18  1  0  0  0  0
 19 55  1  0  0  0  0
 20 19  2  0  0  0  0
 21 16  2  0  0  0  0
 21 20  1  0  0  0  0
 22 27  1  0  0  0  0
 23 22  2  0  0  0  0
 23 24  1  0  0  0  0
 24 25  2  0  0  0  0
 25 26  1  0  0  0  0
 25 59  1  0  0  0  0
 26 60  1  0  0  0  0
 27  9  1  0  0  0  0
 27 26  2  0  0  0  0
 28 62  1  0  0  0  0
 28 63  1  0  0  0  0
 29 64  1  0  0  0  0
 29 66  1  0  0  0  0
 30  5  1  0  0  0  0
 30 68  1  0  0  0  0
 31  4  1  0  0  0  0
 32 31  1  0  0  0  0
 32 70  1  0  0  0  0
 33 32  2  0  0  0  0
 34 35  2  0  0  0  0
 34 33  1  0  0  0  0
 35 36  1  0  0  0  0
 36 74  1  0  0  0  0
 36 31  2  0  0  0  0
 37  4  1  0  0  0  0
 37 38  1  0  0  0  0
 38 75  1  0  0  0  0
 39 38  2  0  0  0  0
 39 76  1  0  0  0  0
 40 39  1  0  0  0  0
 41 42  1  0  0  0  0
 41 40  2  0  0  0  0
 42 37  2  0  0  0  0
 43 48  1  0  0  0  0
 44 45  1  0  0  0  0
 44 43  2  0  0  0  0
 45 46  2  0  0  0  0
 46 82  1  0  0  0  0
 46 47  1  0  0  0  0
 47 83  1  0  0  0  0
 48 84  1  0  0  0  0
 48 47  2  0  0  0  0
 50 12  1  0  0  0  0
 51 13  1  0  0  0  0
 52 14  1  0  0  0  0
 56 20  1  0  0  0  0
 57 23  1  0  0  0  0
 58 24  1  0  0  0  0
 61 28  1  0  0  0  0
 65 29  1  0  0  0  0
 67 30  1  0  0  0  0
 69 30  1  0  0  0  0
 71 33  1  0  0  0  0
 72 34  1  0  0  0  0
 73 35  1  0  0  0  0
 77 40  1  0  0  0  0
 78 41  1  0  0  0  0
 79 42  1  0  0  0  0
 80 44  1  0  0  0  0
 81 45  1  0  0  0  0
M  END
$$$$
