CSD_code = BIXRAE | q = 0 | S = 0 | Stoichiometry = C16H36ClNNiP2 | MND = 4
 OpenBabel04212202013D

 57 58  0  0  1  0  0  0  0  0999 V2000
    8.3272   11.3210    4.8224 Ni  0  0  1  0  0  0  0  0  0  0  0  0
    7.5145   10.2942    6.5084 P   0  0  0  0  0  4  0  0  0  0  0  0
    9.1003   12.0922    2.9878 P   0  0  0  0  0  4  0  0  0  0  0  0
    7.3794   13.1424    5.3269 Cl  0  0  0  0  0  0  0  0  0  0  0  0
    9.4081    9.7914    4.5277 N   0  0  2  0  0  0  0  0  0  0  0  0
    9.9104    9.5263    3.1939 C   0  0  0  0  0  0  0  0  0  0  0  0
    9.1626    8.9913    2.5754 H   0  0  0  0  0  0  0  0  0  0  0  0
   10.7788    8.8495    3.2780 H   0  0  0  0  0  0  0  0  0  0  0  0
   10.0562   13.6797    3.0871 C   0  0  0  0  0  0  0  0  0  0  0  0
    9.3030   14.4525    3.2809 H   0  0  0  0  0  0  0  0  0  0  0  0
    7.7422   11.0839    8.1723 C   0  0  0  0  0  0  0  0  0  0  0  0
    7.0623   11.9441    8.1738 H   0  0  0  0  0  0  0  0  0  0  0  0
    8.5176    8.7465    6.5700 C   0  0  0  0  0  0  0  0  0  0  0  0
    9.3583    8.9264    7.2421 H   0  0  0  0  0  0  0  0  0  0  0  0
    7.9496    7.8851    6.9274 H   0  0  0  0  0  0  0  0  0  0  0  0
   10.3378   10.8157    2.4935 C   0  0  0  0  0  0  0  0  0  0  0  0
   10.4093   10.6887    1.4115 H   0  0  0  0  0  0  0  0  0  0  0  0
   11.3075   11.1295    2.8836 H   0  0  0  0  0  0  0  0  0  0  0  0
    9.0466    8.5339    5.1521 C   0  0  0  0  0  0  0  0  0  0  0  0
    9.9454    7.8934    5.1883 H   0  0  0  0  0  0  0  0  0  0  0  0
    8.2989    7.9805    4.5500 H   0  0  0  0  0  0  0  0  0  0  0  0
    5.7490    9.7106    6.5035 C   0  0  0  0  0  0  0  0  0  0  0  0
    5.6262    8.9524    7.2868 H   0  0  0  0  0  0  0  0  0  0  0  0
    8.0077   12.2929    1.4968 C   0  0  0  0  0  0  0  0  0  0  0  0
    8.6422   12.3854    0.6066 H   0  0  0  0  0  0  0  0  0  0  0  0
    7.4181   10.1654    9.3444 C   0  0  0  0  0  0  0  0  0  0  0  0
    6.3757    9.8562    9.3320 H   0  0  0  0  0  0  0  0  0  0  0  0
    7.6029   10.6886   10.2817 H   0  0  0  0  0  0  0  0  0  0  0  0
    8.0441    9.2753    9.3261 H   0  0  0  0  0  0  0  0  0  0  0  0
   10.9691   13.6012    4.3092 C   0  0  0  0  0  0  0  0  0  0  0  0
   10.4042   13.2173    5.1630 H   0  0  0  0  0  0  0  0  0  0  0  0
   11.3561   14.5854    4.5660 H   0  0  0  0  0  0  0  0  0  0  0  0
   11.8127   12.9367    4.1321 H   0  0  0  0  0  0  0  0  0  0  0  0
    4.8098   10.8879    6.7496 C   0  0  0  0  0  0  0  0  0  0  0  0
    4.8695   11.2348    7.7784 H   0  0  0  0  0  0  0  0  0  0  0  0
    3.7795   10.5975    6.5485 H   0  0  0  0  0  0  0  0  0  0  0  0
    5.0707   11.7169    6.0924 H   0  0  0  0  0  0  0  0  0  0  0  0
   10.8316   14.0178    1.8196 C   0  0  0  0  0  0  0  0  0  0  0  0
   11.5454   13.2323    1.5787 H   0  0  0  0  0  0  0  0  0  0  0  0
   11.3856   14.9442    1.9654 H   0  0  0  0  0  0  0  0  0  0  0  0
   10.1667   14.1539    0.9699 H   0  0  0  0  0  0  0  0  0  0  0  0
    5.4762    9.0840    5.1386 C   0  0  0  0  0  0  0  0  0  0  0  0
    5.7270    9.8011    4.3539 H   0  0  0  0  0  0  0  0  0  0  0  0
    4.4257    8.8155    5.0366 H   0  0  0  0  0  0  0  0  0  0  0  0
    6.0753    8.1876    4.9900 H   0  0  0  0  0  0  0  0  0  0  0  0
    9.1705   11.6195    8.2466 C   0  0  0  0  0  0  0  0  0  0  0  0
    9.8925   10.8116    8.3493 H   0  0  0  0  0  0  0  0  0  0  0  0
    9.2864   12.2925    9.0940 H   0  0  0  0  0  0  0  0  0  0  0  0
    9.4013   12.1715    7.3320 H   0  0  0  0  0  0  0  0  0  0  0  0
    7.1495   11.0357    1.3840 C   0  0  0  0  0  0  0  0  0  0  0  0
    7.7621   10.1566    1.1926 H   0  0  0  0  0  0  0  0  0  0  0  0
    6.4239   11.1309    0.5775 H   0  0  0  0  0  0  0  0  0  0  0  0
    6.6075   10.8821    2.3195 H   0  0  0  0  0  0  0  0  0  0  0  0
    7.1278   13.5294    1.6558 C   0  0  0  0  0  0  0  0  0  0  0  0
    6.6529   13.5257    2.6364 H   0  0  0  0  0  0  0  0  0  0  0  0
    6.3494   13.5392    0.8941 H   0  0  0  0  0  0  0  0  0  0  0  0
    7.7077   14.4442    1.5598 H   0  0  0  0  0  0  0  0  0  0  0  0
  1  4  1  1  0  0  0
  1  2  1  0  0  0  0
  2 13  1  0  0  0  0
  2 11  1  0  0  0  0
  3  9  1  0  0  0  0
  3  1  1  0  0  0  0
  5  6  1  6  0  0  0
  5  1  1  0  0  0  0
  5 19  1  0  0  0  0
  6  8  1  0  0  0  0
  7  6  1  0  0  0  0
  9 10  1  0  0  0  0
  9 30  1  0  0  0  0
 11 12  1  0  0  0  0
 11 46  1  0  0  0  0
 11 26  1  0  0  0  0
 13 15  1  0  0  0  0
 13 14  1  0  0  0  0
 16 18  1  0  0  0  0
 16  3  1  0  0  0  0
 16  6  1  0  0  0  0
 17 16  1  0  0  0  0
 19 20  1  0  0  0  0
 19 13  1  0  0  0  0
 21 19  1  0  0  0  0
 22  2  1  0  0  0  0
 22 34  1  0  0  0  0
 22 23  1  0  0  0  0
 24 54  1  0  0  0  0
 24  3  1  0  0  0  0
 25 24  1  0  0  0  0
 26 28  1  0  0  0  0
 27 26  1  0  0  0  0
 29 26  1  0  0  0  0
 30 32  1  0  0  0  0
 30 31  1  0  0  0  0
 33 30  1  0  0  0  0
 34 35  1  0  0  0  0
 36 34  1  0  0  0  0
 37 34  1  0  0  0  0
 38 40  1  0  0  0  0
 38  9  1  0  0  0  0
 39 38  1  0  0  0  0
 41 38  1  0  0  0  0
 42 22  1  0  0  0  0
 43 42  1  0  0  0  0
 44 42  1  0  0  0  0
 45 42  1  0  0  0  0
 46 47  1  0  0  0  0
 46 48  1  0  0  0  0
 49 46  1  0  0  0  0
 50 24  1  0  0  0  0
 50 53  1  0  0  0  0
 51 50  1  0  0  0  0
 52 50  1  0  0  0  0
 54 55  1  0  0  0  0
 56 54  1  0  0  0  0
 57 54  1  0  0  0  0
M  END
$$$$
