CSD_code = BIXVAG | q = 0 | S = 0 | Stoichiometry = C42H36Br3IrP2S | MND = 6
 OpenBabel04212202013D

 85 91  0  0  1  0  0  0  0  0999 V2000
    1.3644    6.9494   15.0832 Ir  0  0  0  0  0  0  0  0  0  0  0  0
   -0.7932    7.6782   16.3044 Br  0  0  0  0  0  0  0  0  0  0  0  0
    0.3257    6.9856   12.7339 Br  0  0  0  0  0  0  0  0  0  0  0  0
    5.9141    6.3749   13.6153 Br  0  0  0  0  0  0  0  0  0  0  0  0
    1.2372    6.7323   18.2510 S   0  0  0  0  0  0  0  0  0  0  0  0
    0.6639    4.7213   14.8733 P   0  0  0  0  0  4  0  0  0  0  0  0
    1.7449    9.2659   15.1503 P   0  0  0  0  0  4  0  0  0  0  0  0
    2.2574    6.6110   16.8836 C   0  0  1  0  0  3  0  0  0  0  0  0
    3.5985    6.2641   17.0856 C   0  0  0  0  0  0  0  0  0  0  0  0
    3.9416    6.0409   18.0877 H   0  0  0  0  0  0  0  0  0  0  0  0
    4.5650    6.2283   16.1128 C   0  0  0  0  0  0  0  0  0  0  0  0
    5.5790    5.9981   16.4118 H   0  0  0  0  0  0  0  0  0  0  0  0
    4.3260    6.4594   14.7463 C   0  0  0  0  0  0  0  0  0  0  0  0
    3.1297    6.6701   14.1692 C   0  0  0  0  0  0  0  0  0  0  0  0
    3.1389    6.7546   13.0843 H   0  0  0  0  0  0  0  0  0  0  0  0
    2.1984    6.2370   19.7243 C   0  0  0  0  0  0  0  0  0  0  0  0
    2.5478    5.2140   19.6233 H   0  0  0  0  0  0  0  0  0  0  0  0
    1.4856    6.3009   20.5404 H   0  0  0  0  0  0  0  0  0  0  0  0
    3.0154    6.9303   19.8987 H   0  0  0  0  0  0  0  0  0  0  0  0
    0.7632    3.7384   16.4133 C   0  0  0  0  0  0  0  0  0  0  0  0
   -0.1526    4.1088   17.3988 C   0  0  0  0  0  0  0  0  0  0  0  0
   -0.8667    4.8955   17.1956 H   0  0  0  0  0  0  0  0  0  0  0  0
   -0.1622    3.4692   18.6234 C   0  0  0  0  0  0  0  0  0  0  0  0
   -0.8743    3.7684   19.3780 H   0  0  0  0  0  0  0  0  0  0  0  0
    0.7413    2.4503   18.8787 C   0  0  0  0  0  0  0  0  0  0  0  0
    0.7420    1.9524   19.8373 H   0  0  0  0  0  0  0  0  0  0  0  0
    1.6349    2.0609   17.8954 C   0  0  0  0  0  0  0  0  0  0  0  0
    2.3265    1.2518   18.0821 H   0  0  0  0  0  0  0  0  0  0  0  0
    1.6484    2.6985   16.6662 C   0  0  0  0  0  0  0  0  0  0  0  0
    2.3361    2.3639   15.9041 H   0  0  0  0  0  0  0  0  0  0  0  0
   -1.0288    4.2203   14.4089 C   0  0  0  0  0  0  0  0  0  0  0  0
   -1.2338    2.8430   14.3125 C   0  0  0  0  0  0  0  0  0  0  0  0
   -0.4080    2.1636   14.4832 H   0  0  0  0  0  0  0  0  0  0  0  0
   -2.4822    2.3492   13.9948 C   0  0  0  0  0  0  0  0  0  0  0  0
   -2.6328    1.2823   13.9163 H   0  0  0  0  0  0  0  0  0  0  0  0
   -3.5389    3.2219   13.7801 C   0  0  0  0  0  0  0  0  0  0  0  0
   -4.5156    2.8332   13.5323 H   0  0  0  0  0  0  0  0  0  0  0  0
   -3.3395    4.5859   13.8866 C   0  0  0  0  0  0  0  0  0  0  0  0
   -4.1584    5.2699   13.7253 H   0  0  0  0  0  0  0  0  0  0  0  0
   -2.0880    5.0897   14.2014 C   0  0  0  0  0  0  0  0  0  0  0  0
   -1.9575    6.1561   14.2833 H   0  0  0  0  0  0  0  0  0  0  0  0
    1.6978    3.8646   13.6477 C   0  0  0  0  0  0  0  0  0  0  0  0
    1.1999    3.5630   12.3848 C   0  0  0  0  0  0  0  0  0  0  0  0
    0.1681    3.7755   12.1452 H   0  0  0  0  0  0  0  0  0  0  0  0
    2.0340    3.0154   11.4261 C   0  0  0  0  0  0  0  0  0  0  0  0
    1.6418    2.7904   10.4458 H   0  0  0  0  0  0  0  0  0  0  0  0
    3.3663    2.7731   11.7145 C   0  0  0  0  0  0  0  0  0  0  0  0
    4.0164    2.3523   10.9622 H   0  0  0  0  0  0  0  0  0  0  0  0
    3.8722    3.0897   12.9653 C   0  0  0  0  0  0  0  0  0  0  0  0
    4.9160    2.9224   13.1873 H   0  0  0  0  0  0  0  0  0  0  0  0
    3.0454    3.6426   13.9245 C   0  0  0  0  0  0  0  0  0  0  0  0
    3.4478    3.9238   14.8883 H   0  0  0  0  0  0  0  0  0  0  0  0
    3.2096    9.8277   14.2119 C   0  0  0  0  0  0  0  0  0  0  0  0
    3.1935    9.5202   12.8521 C   0  0  0  0  0  0  0  0  0  0  0  0
    2.3386    9.0076   12.4317 H   0  0  0  0  0  0  0  0  0  0  0  0
    4.2543    9.8747   12.0421 C   0  0  0  0  0  0  0  0  0  0  0  0
    4.2367    9.6207   10.9930 H   0  0  0  0  0  0  0  0  0  0  0  0
    5.3392   10.5491   12.5792 C   0  0  0  0  0  0  0  0  0  0  0  0
    6.1774   10.8139   11.9525 H   0  0  0  0  0  0  0  0  0  0  0  0
    5.3422   10.8911   13.9201 C   0  0  0  0  0  0  0  0  0  0  0  0
    6.1767   11.4352   14.3383 H   0  0  0  0  0  0  0  0  0  0  0  0
    4.2812   10.5383   14.7369 C   0  0  0  0  0  0  0  0  0  0  0  0
    4.2940   10.8284   15.7778 H   0  0  0  0  0  0  0  0  0  0  0  0
    2.0189    9.7942   16.8679 C   0  0  0  0  0  0  0  0  0  0  0  0
    3.2038    9.4514   17.5158 C   0  0  0  0  0  0  0  0  0  0  0  0
    3.9816    8.9328   16.9712 H   0  0  0  0  0  0  0  0  0  0  0  0
    3.3786    9.7550   18.8528 C   0  0  0  0  0  0  0  0  0  0  0  0
    4.3064    9.4975   19.3449 H   0  0  0  0  0  0  0  0  0  0  0  0
    2.3638   10.3788   19.5618 C   0  0  0  0  0  0  0  0  0  0  0  0
    2.4984   10.6052   20.6093 H   0  0  0  0  0  0  0  0  0  0  0  0
    1.1748   10.6979   18.9284 C   0  0  0  0  0  0  0  0  0  0  0  0
    0.3752   11.1670   19.4817 H   0  0  0  0  0  0  0  0  0  0  0  0
    0.9989   10.4078   17.5870 C   0  0  0  0  0  0  0  0  0  0  0  0
    0.0627   10.6420   17.1012 H   0  0  0  0  0  0  0  0  0  0  0  0
    0.5578   10.5091   14.5391 C   0  0  0  0  0  0  0  0  0  0  0  0
    0.9474   11.8402   14.6929 C   0  0  0  0  0  0  0  0  0  0  0  0
    1.8922   12.0735   15.1671 H   0  0  0  0  0  0  0  0  0  0  0  0
    0.1281   12.8564   14.2462 C   0  0  0  0  0  0  0  0  0  0  0  0
    0.4327   13.8852   14.3720 H   0  0  0  0  0  0  0  0  0  0  0  0
   -1.0805   12.5552   13.6356 C   0  0  0  0  0  0  0  0  0  0  0  0
   -1.7192   13.3526   13.2855 H   0  0  0  0  0  0  0  0  0  0  0  0
   -1.4629   11.2362   13.4750 C   0  0  0  0  0  0  0  0  0  0  0  0
   -2.4004   10.9957   12.9977 H   0  0  0  0  0  0  0  0  0  0  0  0
   -0.6479   10.2101   13.9240 C   0  0  0  0  0  0  0  0  0  0  0  0
   -0.9640    9.1894   13.7894 H   0  0  0  0  0  0  0  0  0  0  0  0
  1  7  1  0  0  0  0
  1  2  1  0  0  0  0
  1  8  1  0  0  0  0
  3  1  1  0  0  0  0
  4 13  1  0  0  0  0
  5 16  1  0  0  0  0
  6  1  1  0  0  0  0
  6 20  1  0  0  0  0
  7 64  1  0  0  0  0
  8  9  1  0  0  0  0
  8  5  1  6  0  0  0
  9 10  1  0  0  0  0
 11 12  1  0  0  0  0
 11  9  2  0  0  0  0
 13 11  1  0  0  0  0
 14 13  2  0  0  0  0
 14  1  1  0  0  0  0
 15 14  1  0  0  0  0
 16 19  1  0  0  0  0
 16 18  1  0  0  0  0
 17 16  1  0  0  0  0
 20 29  2  0  0  0  0
 20 21  1  0  0  0  0
 21 23  2  0  0  0  0
 22 21  1  0  0  0  0
 23 25  1  0  0  0  0
 23 24  1  0  0  0  0
 25 26  1  0  0  0  0
 27 28  1  0  0  0  0
 27 25  2  0  0  0  0
 29 27  1  0  0  0  0
 30 29  1  0  0  0  0
 31  6  1  0  0  0  0
 32 31  1  0  0  0  0
 32 33  1  0  0  0  0
 34 32  2  0  0  0  0
 35 34  1  0  0  0  0
 36 38  2  0  0  0  0
 36 34  1  0  0  0  0
 37 36  1  0  0  0  0
 38 40  1  0  0  0  0
 39 38  1  0  0  0  0
 40 41  1  0  0  0  0
 40 31  2  0  0  0  0
 42 51  1  0  0  0  0
 42  6  1  0  0  0  0
 43 42  2  0  0  0  0
 44 43  1  0  0  0  0
 45 47  2  0  0  0  0
 45 43  1  0  0  0  0
 46 45  1  0  0  0  0
 47 49  1  0  0  0  0
 48 47  1  0  0  0  0
 49 50  1  0  0  0  0
 49 51  2  0  0  0  0
 51 52  1  0  0  0  0
 53 62  1  0  0  0  0
 53  7  1  0  0  0  0
 54 53  2  0  0  0  0
 55 54  1  0  0  0  0
 56 58  2  0  0  0  0
 56 54  1  0  0  0  0
 57 56  1  0  0  0  0
 58 60  1  0  0  0  0
 59 58  1  0  0  0  0
 60 61  1  0  0  0  0
 60 62  2  0  0  0  0
 62 63  1  0  0  0  0
 64 65  2  0  0  0  0
 64 73  1  0  0  0  0
 65 67  1  0  0  0  0
 66 65  1  0  0  0  0
 67 68  1  0  0  0  0
 67 69  2  0  0  0  0
 69 70  1  0  0  0  0
 71 72  1  0  0  0  0
 71 69  1  0  0  0  0
 73 71  2  0  0  0  0
 74 73  1  0  0  0  0
 75 76  1  0  0  0  0
 75  7  1  0  0  0  0
 76 77  1  0  0  0  0
 78 79  1  0  0  0  0
 78 76  2  0  0  0  0
 80 78  1  0  0  0  0
 81 80  1  0  0  0  0
 82 80  2  0  0  0  0
 82 84  1  0  0  0  0
 83 82  1  0  0  0  0
 84 75  2  0  0  0  0
 85 84  1  0  0  0  0
M  END
$$$$
