CSD_code = BIYJIC | q = 0 | S = 0 | Stoichiometry = C11H31ClIrOP3 | MND = 6
 OpenBabel04212202013D

 48 47  0  0  0  0  0  0  0  0999 V2000
    1.7337    1.6347    9.8176 Ir  0  0  0  0  0  0  0  0  0  0  0  0
    3.3100    1.0846   11.5657 Cl  0  0  0  0  0  0  0  0  0  0  0  0
    2.6526   -0.0617    8.4468 P   0  0  0  0  0  4  0  0  0  0  0  0
    3.3762    3.2094    9.3305 P   0  0  0  0  0  4  0  0  0  0  0  0
    0.1530    0.2617   10.8501 P   0  0  0  0  0  4  0  0  0  0  0  0
   -1.7717    2.5037    9.2260 O   0  0  0  0  0  0  0  0  0  0  0  0
    4.1161   -0.9520    9.0894 C   0  0  0  0  0  0  0  0  0  0  0  0
    1.6397   -1.5025    7.9144 C   0  0  0  0  0  0  0  0  0  0  0  0
    3.2456    0.4400    6.7783 C   0  0  0  0  0  0  0  0  0  0  0  0
    5.1395    2.7047    9.2585 C   0  0  0  0  0  0  0  0  0  0  0  0
    3.4919    4.4900   10.6294 C   0  0  0  0  0  0  0  0  0  0  0  0
    3.2546    4.2772    7.8371 C   0  0  0  0  0  0  0  0  0  0  0  0
    0.8365   -1.1726   11.7680 C   0  0  0  0  0  0  0  0  0  0  0  0
   -0.7549    1.1123   12.1852 C   0  0  0  0  0  0  0  0  0  0  0  0
   -1.2489   -0.5010    9.9507 C   0  0  0  0  0  0  0  0  0  0  0  0
    0.3549    2.1442    8.2045 C   0  0  0  0  0  0  0  0  0  0  0  0
   -0.7116    2.9265    8.7983 C   0  0  0  0  0  0  0  0  0  0  0  0
    1.1480    2.7425   10.6935 H   0  0  0  0  0  0  0  0  0  0  0  0
    4.4665   -1.6962    8.3738 H   0  0  0  0  0  0  0  0  0  0  0  0
    3.8432   -1.4328   10.0274 H   0  0  0  0  0  0  0  0  0  0  0  0
    4.9081   -0.2401    9.3084 H   0  0  0  0  0  0  0  0  0  0  0  0
    2.2276   -2.1566    7.2701 H   0  0  0  0  0  0  0  0  0  0  0  0
    1.3056   -2.0658    8.7833 H   0  0  0  0  0  0  0  0  0  0  0  0
    0.7688   -1.1505    7.3642 H   0  0  0  0  0  0  0  0  0  0  0  0
    3.6986   -0.4059    6.2615 H   0  0  0  0  0  0  0  0  0  0  0  0
    2.3962    0.8019    6.2012 H   0  0  0  0  0  0  0  0  0  0  0  0
    3.9743    1.2432    6.8608 H   0  0  0  0  0  0  0  0  0  0  0  0
    5.7686    3.5913    9.1832 H   0  0  0  0  0  0  0  0  0  0  0  0
    5.3689    2.1694   10.1782 H   0  0  0  0  0  0  0  0  0  0  0  0
    5.3305    2.0547    8.4076 H   0  0  0  0  0  0  0  0  0  0  0  0
    4.3032    5.1859   10.4153 H   0  0  0  0  0  0  0  0  0  0  0  0
    2.5458    5.0242   10.6873 H   0  0  0  0  0  0  0  0  0  0  0  0
    3.6700    3.9909   11.5800 H   0  0  0  0  0  0  0  0  0  0  0  0
    4.0670    5.0025    7.8269 H   0  0  0  0  0  0  0  0  0  0  0  0
    3.2978    3.6753    6.9320 H   0  0  0  0  0  0  0  0  0  0  0  0
    2.3019    4.8020    7.8630 H   0  0  0  0  0  0  0  0  0  0  0  0
    0.0452   -1.6632   12.3339 H   0  0  0  0  0  0  0  0  0  0  0  0
    1.2894   -1.8855   11.0819 H   0  0  0  0  0  0  0  0  0  0  0  0
    1.6073   -0.8093   12.4448 H   0  0  0  0  0  0  0  0  0  0  0  0
   -0.0388    1.5400   12.8841 H   0  0  0  0  0  0  0  0  0  0  0  0
   -1.3390    1.9124   11.7348 H   0  0  0  0  0  0  0  0  0  0  0  0
   -1.4151    0.4165   12.7029 H   0  0  0  0  0  0  0  0  0  0  0  0
   -1.8649   -1.0581   10.6554 H   0  0  0  0  0  0  0  0  0  0  0  0
   -0.9039   -1.1679    9.1656 H   0  0  0  0  0  0  0  0  0  0  0  0
   -1.8322    0.3076    9.5138 H   0  0  0  0  0  0  0  0  0  0  0  0
    0.8973    2.7121    7.4505 H   0  0  0  0  0  0  0  0  0  0  0  0
   -0.0296    1.2121    7.7863 H   0  0  0  0  0  0  0  0  0  0  0  0
   -0.4999    4.0154    8.8665 H   0  0  0  0  0  0  0  0  0  0  0  0
  1 18  1  0  0  0  0
  1  5  1  0  0  0  0
  1  2  1  0  0  0  0
  3  7  1  0  0  0  0
  3  1  1  0  0  0  0
  4  1  1  0  0  0  0
  4 11  1  0  0  0  0
  5 13  1  0  0  0  0
  5 14  1  0  0  0  0
  7 21  1  0  0  0  0
  7 20  1  0  0  0  0
  8  3  1  0  0  0  0
  8 23  1  0  0  0  0
  9 27  1  0  0  0  0
  9  3  1  0  0  0  0
 10  4  1  0  0  0  0
 10 29  1  0  0  0  0
 11 32  1  0  0  0  0
 11 33  1  0  0  0  0
 12 36  1  0  0  0  0
 12  4  1  0  0  0  0
 13 37  1  0  0  0  0
 13 39  1  0  0  0  0
 14 42  1  0  0  0  0
 14 40  1  0  0  0  0
 15 43  1  0  0  0  0
 15  5  1  0  0  0  0
 16 17  1  0  0  0  0
 16  1  1  0  0  0  0
 17 48  1  0  0  0  0
 17  6  2  0  0  0  0
 19  7  1  0  0  0  0
 22  8  1  0  0  0  0
 24  8  1  0  0  0  0
 25  9  1  0  0  0  0
 26  9  1  0  0  0  0
 28 10  1  0  0  0  0
 30 10  1  0  0  0  0
 31 11  1  0  0  0  0
 34 12  1  0  0  0  0
 35 12  1  0  0  0  0
 38 13  1  0  0  0  0
 41 14  1  0  0  0  0
 44 15  1  0  0  0  0
 45 15  1  0  0  0  0
 46 16  1  0  0  0  0
 47 16  1  0  0  0  0
M  END
$$$$
