CSD_code = BIYREH | q = -1 | S = 0 | Stoichiometry = C8H18ClO7RuS3(1-) | MND = 6
 OpenBabel04212202013D

 38 38  0  0  0  0  0  0  0  0999 V2000
    5.8379   10.4116    4.2026 Ru  0  0  0  0  0  0  0  0  0  0  0  0
    5.1434    8.6275    2.8524 Cl  0  0  0  0  0  0  0  0  0  0  0  0
    7.1456   11.1353    2.7431 O   0  0  0  0  0  0  0  0  0  0  0  0
    7.5799    9.4123    4.7916 O   0  0  0  0  0  0  0  0  0  0  0  0
    9.7448    9.3941    4.3646 O   0  0  0  0  0  0  0  0  0  0  0  0
    9.2461   10.9561    2.0836 O   0  0  0  0  0  0  0  0  0  0  0  0
    8.6041    9.7273    4.0756 C   0  0  0  0  0  0  0  0  0  0  0  0
    8.3388   10.6569    2.8437 C   0  0  0  0  0  0  0  0  0  0  0  0
    6.6532   11.9912    5.5959 S   0  0  0  0  0  0  0  0  0  0  0  0
    4.5548    9.4227    5.7584 S   0  0  0  0  0  0  0  0  0  0  0  0
    4.2076   11.6723    3.3103 S   0  0  0  0  0  0  0  0  0  0  0  0
    5.7661   13.1070    5.9206 O   0  0  0  0  0  1  0  0  0  0  0  0
    4.4438   10.0336    7.0816 O   0  0  0  0  0  1  0  0  0  0  0  0
    2.8619   11.7335    3.8773 O   0  0  0  0  0  1  0  0  0  0  0  0
    7.2250   11.3065    7.1785 C   0  0  0  0  0  0  0  0  0  0  0  0
    7.6846   12.0963    7.7607 H   0  0  0  0  0  0  0  0  0  0  0  0
    7.9243   10.5104    6.9468 H   0  0  0  0  0  0  0  0  0  0  0  0
    6.3442   10.9142    7.6776 H   0  0  0  0  0  0  0  0  0  0  0  0
    8.2363   12.7784    5.1258 C   0  0  0  0  0  0  0  0  0  0  0  0
    8.1287   13.1859    4.1261 H   0  0  0  0  0  0  0  0  0  0  0  0
    9.0199   12.0297    5.1352 H   0  0  0  0  0  0  0  0  0  0  0  0
    8.4304   13.5706    5.8402 H   0  0  0  0  0  0  0  0  0  0  0  0
    2.8677    8.9576    5.2629 C   0  0  0  0  0  0  0  0  0  0  0  0
    2.4028    8.4145    6.0768 H   0  0  0  0  0  0  0  0  0  0  0  0
    2.9594    8.3620    4.3612 H   0  0  0  0  0  0  0  0  0  0  0  0
    2.3400    9.8831    5.0541 H   0  0  0  0  0  0  0  0  0  0  0  0
    5.1965    7.7430    6.0396 C   0  0  0  0  0  0  0  0  0  0  0  0
    6.2531    7.8502    6.2669 H   0  0  0  0  0  0  0  0  0  0  0  0
    5.0760    7.1979    5.1101 H   0  0  0  0  0  0  0  0  0  0  0  0
    4.6605    7.2862    6.8635 H   0  0  0  0  0  0  0  0  0  0  0  0
    4.0097   11.2829    1.5428 C   0  0  0  0  0  0  0  0  0  0  0  0
    3.5796   10.2889    1.4754 H   0  0  0  0  0  0  0  0  0  0  0  0
    5.0115   11.2770    1.1249 H   0  0  0  0  0  0  0  0  0  0  0  0
    3.3705   12.0224    1.0748 H   0  0  0  0  0  0  0  0  0  0  0  0
    4.7625   13.3865    3.0707 C   0  0  0  0  0  0  0  0  0  0  0  0
    4.0170   13.9299    2.5020 H   0  0  0  0  0  0  0  0  0  0  0  0
    5.7111   13.3276    2.5473 H   0  0  0  0  0  0  0  0  0  0  0  0
    4.8912   13.8194    4.0575 H   0  0  0  0  0  0  0  0  0  0  0  0
  1  4  1  0  0  0  0
  1  9  1  0  0  0  0
  1 10  1  0  0  0  0
  2  1  1  0  0  0  0
  3  8  1  0  0  0  0
  3  1  1  0  0  0  0
  6  8  2  0  0  0  0
  7  5  2  0  0  0  0
  7  4  1  0  0  0  0
  8  7  1  0  0  0  0
  9 12  1  0  0  0  0
  9 15  1  0  0  0  0
 10 27  1  0  0  0  0
 10 13  1  0  0  0  0
 11 14  1  0  0  0  0
 11  1  1  0  0  0  0
 15 18  1  0  0  0  0
 15 16  1  0  0  0  0
 17 15  1  0  0  0  0
 19 21  1  0  0  0  0
 19  9  1  0  0  0  0
 19 22  1  0  0  0  0
 20 19  1  0  0  0  0
 23 10  1  0  0  0  0
 23 24  1  0  0  0  0
 25 23  1  0  0  0  0
 26 23  1  0  0  0  0
 27 28  1  0  0  0  0
 27 30  1  0  0  0  0
 29 27  1  0  0  0  0
 31 11  1  0  0  0  0
 32 31  1  0  0  0  0
 33 31  1  0  0  0  0
 34 31  1  0  0  0  0
 35 11  1  0  0  0  0
 35 38  1  0  0  0  0
 36 35  1  0  0  0  0
 37 35  1  0  0  0  0
M  END
$$$$
