CSD_code = BIYVAH | q = 0 | S = 0 | Stoichiometry = C24H23Cl2N5Zn | MND = 5
 OpenBabel04212202013D

 55 60  0  0  1  0  0  0  0  0999 V2000
    8.4114    9.8439    2.6487 Zn  0  0  0  0  0  0  0  0  0  0  0  0
   10.4051    9.9272    1.6654 Cl  0  0  0  0  0  0  0  0  0  0  0  0
    7.6522   11.3483    4.1551 Cl  0  0  0  0  0  0  0  0  0  0  0  0
   -2.1974    2.5426    2.5017 C   0  0  0  0  0  0  0  0  0  0  0  0
   -2.8859    3.1028    3.1356 H   0  0  0  0  0  0  0  0  0  0  0  0
   -2.0309    1.5708    2.9603 H   0  0  0  0  0  0  0  0  0  0  0  0
   -2.6718    2.4039    1.5326 H   0  0  0  0  0  0  0  0  0  0  0  0
   -0.9124    3.2925    2.3609 C   0  0  0  0  0  0  0  0  0  0  0  0
   -0.7478    4.2883    1.4025 C   0  0  0  0  0  0  0  0  0  0  0  0
   -1.5571    4.5249    0.7254 H   0  0  0  0  0  0  0  0  0  0  0  0
    0.4534    4.9651    1.3211 C   0  0  0  0  0  0  0  0  0  0  0  0
    0.6256    5.7400    0.5922 H   0  0  0  0  0  0  0  0  0  0  0  0
    1.4749    4.6269    2.2094 C   0  0  0  0  0  0  0  0  0  0  0  0
    0.1732    3.0397    3.1971 C   0  0  0  0  0  0  0  0  0  0  0  0
    0.1106    2.2765    3.9636 H   0  0  0  0  0  0  0  0  0  0  0  0
    2.7743    5.3050    2.1595 C   0  0  0  0  0  0  0  0  0  0  0  0
    3.8101    4.9276    3.0175 C   0  0  0  0  0  0  0  0  0  0  0  0
    3.6429    4.1236    3.7152 H   0  0  0  0  0  0  0  0  0  0  0  0
    5.0162    5.5947    2.9381 C   0  0  0  0  0  0  0  0  0  0  0  0
    5.8434    5.3111    3.5757 H   0  0  0  0  0  0  0  0  0  0  0  0
    5.1719    6.6233    2.0110 C   0  0  0  0  0  0  0  0  0  0  0  0
    4.0822    6.8985    1.1878 C   0  0  0  0  0  0  0  0  0  0  0  0
    4.1522    7.6570    0.4163 H   0  0  0  0  0  0  0  0  0  0  0  0
    6.4441    7.4197    1.9179 C   0  0  0  0  0  0  0  0  0  0  0  0
    7.2933    6.7935    2.2026 H   0  0  0  0  0  0  0  0  0  0  0  0
    6.5978    7.7509    0.8879 H   0  0  0  0  0  0  0  0  0  0  0  0
    6.4320    8.2899    4.1910 C   0  0  0  0  0  0  0  0  0  0  0  0
    5.5974    7.6288    4.4592 H   0  0  0  0  0  0  0  0  0  0  0  0
    6.3245    9.2351    4.7358 H   0  0  0  0  0  0  0  0  0  0  0  0
    7.7471    7.7076    4.6190 C   0  0  2  0  0  3  0  0  0  0  0  0
    7.8545    6.7685    5.6369 C   0  0  0  0  0  0  0  0  0  0  0  0
    6.9673    6.4064    6.1339 H   0  0  0  0  0  0  0  0  0  0  0  0
    9.1124    6.3187    6.0022 C   0  0  0  0  0  0  0  0  0  0  0  0
    9.2236    5.5911    6.7924 H   0  0  0  0  0  0  0  0  0  0  0  0
   10.2222    6.8155    5.3356 C   0  0  0  0  0  0  0  0  0  0  0  0
   11.2180    6.4892    5.5880 H   0  0  0  0  0  0  0  0  0  0  0  0
   10.0260    7.7490    4.3321 C   0  0  0  0  0  0  0  0  0  0  0  0
   10.8484    8.1712    3.7716 H   0  0  0  0  0  0  0  0  0  0  0  0
    5.4822    9.6073    2.3836 C   0  0  0  0  0  0  0  0  0  0  0  0
    5.4912   10.3904    3.1506 H   0  0  0  0  0  0  0  0  0  0  0  0
    4.4669    9.1969    2.3058 H   0  0  0  0  0  0  0  0  0  0  0  0
    5.8999   10.2694    1.1034 C   0  0  1  0  0  3  0  0  0  0  0  0
    4.9843   10.7426    0.1721 C   0  0  0  0  0  0  0  0  0  0  0  0
    3.9262   10.6116    0.3404 H   0  0  0  0  0  0  0  0  0  0  0  0
    5.4544   11.3853   -0.9609 C   0  0  0  0  0  0  0  0  0  0  0  0
    4.7638   11.7650   -1.6991 H   0  0  0  0  0  0  0  0  0  0  0  0
    6.8230   11.5291   -1.1316 C   0  0  0  0  0  0  0  0  0  0  0  0
    7.2291   12.0208   -2.0006 H   0  0  0  0  0  0  0  0  0  0  0  0
    7.6662   11.0261   -0.1556 C   0  0  0  0  0  0  0  0  0  0  0  0
    8.7420   11.1009   -0.2319 H   0  0  0  0  0  0  0  0  0  0  0  0
    1.3233    3.6764    3.1305 N   0  0  0  0  0  0  0  0  0  0  0  0
    2.9258    6.2723    1.2566 N   0  0  0  0  0  0  0  0  0  0  0  0
    6.4697    8.6138    2.7740 N   0  0  1  0  0  4  0  0  0  0  0  0
    8.8201    8.1781    3.9911 N   0  0  0  0  0  0  0  0  0  0  0  0
    7.2093   10.4168    0.9284 N   0  0  0  0  0  0  0  0  0  0  0  0
  1 53  1  0  0  0  0
  1 54  1  0  0  0  0
  1  3  1  0  0  0  0
  2  1  1  0  0  0  0
  4  6  1  0  0  0  0
  4  5  1  0  0  0  0
  7  4  1  0  0  0  0
  8  4  1  0  0  0  0
  8 14  1  0  0  0  0
  9  8  2  0  0  0  0
 10  9  1  0  0  0  0
 11  9  1  0  0  0  0
 11 13  2  0  0  0  0
 12 11  1  0  0  0  0
 13 51  1  0  0  0  0
 14 15  1  0  0  0  0
 16 13  1  0  0  0  0
 16 17  1  0  0  0  0
 17 18  1  0  0  0  0
 19 17  2  0  0  0  0
 19 20  1  0  0  0  0
 21 19  1  0  0  0  0
 22 52  1  0  0  0  0
 22 21  2  0  0  0  0
 23 22  1  0  0  0  0
 24 21  1  0  0  0  0
 24 25  1  0  0  0  0
 26 24  1  0  0  0  0
 27 28  1  0  0  0  0
 27 30  1  0  0  0  0
 27 29  1  0  0  0  0
 30 31  1  1  0  0  0
 31 33  2  0  0  0  0
 31 32  1  0  0  0  0
 33 34  1  0  0  0  0
 35 36  1  0  0  0  0
 35 33  1  0  0  0  0
 37 35  2  0  0  0  0
 38 37  1  0  0  0  0
 39 53  1  0  0  0  0
 39 40  1  0  0  0  0
 41 39  1  0  0  0  0
 42 43  1  1  0  0  0
 42 39  1  0  0  0  0
 43 44  1  0  0  0  0
 45 43  2  0  0  0  0
 46 45  1  0  0  0  0
 47 45  1  0  0  0  0
 47 49  2  0  0  0  0
 48 47  1  0  0  0  0
 49 55  1  0  0  0  0
 50 49  1  0  0  0  0
 51 14  2  0  0  0  0
 52 16  2  0  0  0  0
 53 24  1  6  0  0  0
 53 27  1  0  0  0  0
 54 37  1  0  0  0  0
 54 30  1  0  0  0  0
 55 42  1  0  0  0  0
 55  1  1  0  0  0  0
M  END
$$$$
