CSD_code = BIZBES | q = 0 | S = 0 | Stoichiometry = C29H34ClMnN2O3 | MND = 6
 OpenBabel04212202013D

 70 74  0  0  0  0  0  0  0  0999 V2000
   10.4654    2.4267    2.3653 Mn  0  0  0  0  0  0  0  0  0  0  0  0
    8.4008    1.8205    1.8144 Cl  0  0  0  0  0  0  0  0  0  0  0  0
    9.8718    3.9790    2.9580 O   0  0  0  0  0  0  0  0  0  0  0  0
   10.6148    1.3741    3.7602 O   0  0  0  0  0  0  0  0  0  0  0  0
   12.5787    3.1834    2.9821 O   0  0  0  0  0  0  0  0  0  0  0  0
   12.4773    3.8504    3.6745 H   0  0  0  0  0  0  0  0  0  0  0  0
   10.8623    3.2642    0.6313 N   0  0  0  0  0  0  0  0  0  0  0  0
   11.1408    0.8094    1.2925 N   0  0  0  0  0  0  0  0  0  0  0  0
   10.0069    5.2190    2.6636 C   0  0  0  0  0  0  0  0  0  0  0  0
    9.5998    6.2683    3.5521 C   0  0  0  0  0  0  0  0  0  0  0  0
    9.7714    7.5671    3.1463 C   0  0  0  0  0  0  0  0  0  0  0  0
    9.4773    8.3773    3.7928 H   0  0  0  0  0  0  0  0  0  0  0  0
   10.3177    7.9040    1.8972 C   0  0  0  0  0  0  0  0  0  0  0  0
   10.4214    8.9449    1.6315 H   0  0  0  0  0  0  0  0  0  0  0  0
   10.7026    6.9242    1.0328 C   0  0  0  0  0  0  0  0  0  0  0  0
   11.1126    7.1698    0.0637 H   0  0  0  0  0  0  0  0  0  0  0  0
   10.5669    5.5635    1.3847 C   0  0  0  0  0  0  0  0  0  0  0  0
   10.9665    4.5692    0.4747 C   0  0  0  0  0  3  0  0  0  0  0  0
   11.4132    4.9390   -0.4462 H   0  0  0  0  0  0  0  0  0  0  0  0
   11.2262    2.4256   -0.4101 C   0  0  0  0  0  0  0  0  0  0  0  0
   11.3758    2.7853   -1.7510 C   0  0  0  0  0  0  0  0  0  0  0  0
   11.1246    3.7806   -2.0835 H   0  0  0  0  0  0  0  0  0  0  0  0
   11.8238    1.8613   -2.6726 C   0  0  0  0  0  0  0  0  0  0  0  0
   11.9376    2.1500   -3.7064 H   0  0  0  0  0  0  0  0  0  0  0  0
   12.1366    0.5674   -2.2762 C   0  0  0  0  0  0  0  0  0  0  0  0
   12.5157   -0.1408   -2.9971 H   0  0  0  0  0  0  0  0  0  0  0  0
   11.9463    0.1751   -0.9673 C   0  0  0  0  0  0  0  0  0  0  0  0
   12.1948   -0.8345   -0.6777 H   0  0  0  0  0  0  0  0  0  0  0  0
   11.4461    1.0805   -0.0292 C   0  0  0  0  0  0  0  0  0  0  0  0
   10.9749   -0.4283    1.6921 C   0  0  0  0  0  3  0  0  0  0  0  0
   11.0354   -1.2284    0.9563 H   0  0  0  0  0  0  0  0  0  0  0  0
   10.6911   -0.8403    3.0115 C   0  0  0  0  0  0  0  0  0  0  0  0
   10.6090   -2.2138    3.3111 C   0  0  0  0  0  0  0  0  0  0  0  0
   10.8041   -2.9295    2.5257 H   0  0  0  0  0  0  0  0  0  0  0  0
   10.2912   -2.6266    4.5723 C   0  0  0  0  0  0  0  0  0  0  0  0
   10.2292   -3.6779    4.8083 H   0  0  0  0  0  0  0  0  0  0  0  0
   10.0222   -1.6827    5.5718 C   0  0  0  0  0  0  0  0  0  0  0  0
    9.7478   -2.0543    6.5452 H   0  0  0  0  0  0  0  0  0  0  0  0
   10.0900   -0.3276    5.3496 C   0  0  0  0  0  0  0  0  0  0  0  0
   10.4543    0.1247    4.0447 C   0  0  0  0  0  0  0  0  0  0  0  0
    8.9921    5.9000    4.8979 C   0  0  0  0  0  0  0  0  0  0  0  0
    8.6356    7.1298    5.7392 C   0  0  0  0  0  0  0  0  0  0  0  0
    9.5176    7.7273    5.9612 H   0  0  0  0  0  0  0  0  0  0  0  0
    8.2046    6.8026    6.6833 H   0  0  0  0  0  0  0  0  0  0  0  0
    7.8997    7.7511    5.2349 H   0  0  0  0  0  0  0  0  0  0  0  0
    7.7060    5.0966    4.6581 C   0  0  0  0  0  0  0  0  0  0  0  0
    7.2723    4.7898    5.6074 H   0  0  0  0  0  0  0  0  0  0  0  0
    7.8976    4.2064    4.0647 H   0  0  0  0  0  0  0  0  0  0  0  0
    6.9794    5.7075    4.1264 H   0  0  0  0  0  0  0  0  0  0  0  0
   10.0026    5.0620    5.6939 C   0  0  0  0  0  0  0  0  0  0  0  0
   10.9330    5.6144    5.8256 H   0  0  0  0  0  0  0  0  0  0  0  0
   10.2108    4.1270    5.1813 H   0  0  0  0  0  0  0  0  0  0  0  0
    9.6002    4.8270    6.6768 H   0  0  0  0  0  0  0  0  0  0  0  0
    9.7609    0.6960    6.4266 C   0  0  0  0  0  0  0  0  0  0  0  0
    8.5851    1.5543    5.9409 C   0  0  0  0  0  0  0  0  0  0  0  0
    7.7047    0.9319    5.7969 H   0  0  0  0  0  0  0  0  0  0  0  0
    8.8077    2.0362    4.9919 H   0  0  0  0  0  0  0  0  0  0  0  0
    8.3520    2.3234    6.6741 H   0  0  0  0  0  0  0  0  0  0  0  0
    9.3553    0.0487    7.7547 C   0  0  0  0  0  0  0  0  0  0  0  0
   10.1623   -0.5545    8.1651 H   0  0  0  0  0  0  0  0  0  0  0  0
    8.4697   -0.5702    7.6346 H   0  0  0  0  0  0  0  0  0  0  0  0
    9.1216    0.8306    8.4746 H   0  0  0  0  0  0  0  0  0  0  0  0
   10.9974    1.5678    6.6893 C   0  0  0  0  0  0  0  0  0  0  0  0
   11.8271    0.9507    7.0321 H   0  0  0  0  0  0  0  0  0  0  0  0
   10.7790    2.3110    7.4533 H   0  0  0  0  0  0  0  0  0  0  0  0
   11.3011    2.0863    5.7840 H   0  0  0  0  0  0  0  0  0  0  0  0
   13.6493    2.3240    3.3327 C   0  0  0  0  0  0  0  0  0  0  0  0
   14.5741    2.8968    3.4490 H   0  0  0  0  0  0  0  0  0  0  0  0
   13.7655    1.6154    2.5140 H   0  0  0  0  0  0  0  0  0  0  0  0
   13.4408    1.7739    4.2550 H   0  0  0  0  0  0  0  0  0  0  0  0
  1  3  1  0  0  0  0
  1  4  1  0  0  0  0
  2  1  1  0  0  0  0
  4 40  1  0  0  0  0
  5 67  1  0  0  0  0
  5  6  1  0  0  0  0
  7  1  1  0  0  0  0
  8 30  1  0  0  0  0
  8  1  1  0  0  0  0
  9  3  1  0  0  0  0
  9 10  1  0  0  0  0
 10 41  1  0  0  0  0
 11 10  2  0  0  0  0
 11 12  1  0  0  0  0
 13 11  1  0  0  0  0
 14 13  1  0  0  0  0
 15 17  1  0  0  0  0
 15 13  2  0  0  0  0
 16 15  1  0  0  0  0
 17  9  2  0  0  0  0
 18  7  1  0  0  0  0
 18 17  1  0  0  0  0
 19 18  1  0  0  0  0
 20 29  1  0  0  0  0
 20  7  1  0  0  0  0
 21 20  2  0  0  0  0
 22 21  1  0  0  0  0
 23 25  2  0  0  0  0
 23 21  1  0  0  0  0
 24 23  1  0  0  0  0
 25 27  1  0  0  0  0
 26 25  1  0  0  0  0
 27 28  1  0  0  0  0
 27 29  2  0  0  0  0
 29  8  1  0  0  0  0
 30 32  1  0  0  0  0
 31 30  1  0  0  0  0
 32 33  2  0  0  0  0
 32 40  1  0  0  0  0
 33 35  1  0  0  0  0
 34 33  1  0  0  0  0
 35 36  1  0  0  0  0
 35 37  2  0  0  0  0
 37 38  1  0  0  0  0
 39 37  1  0  0  0  0
 39 54  1  0  0  0  0
 40 39  2  0  0  0  0
 41 50  1  0  0  0  0
 41 42  1  0  0  0  0
 42 43  1  0  0  0  0
 42 44  1  0  0  0  0
 45 42  1  0  0  0  0
 46 41  1  0  0  0  0
 46 47  1  0  0  0  0
 48 46  1  0  0  0  0
 49 46  1  0  0  0  0
 50 51  1  0  0  0  0
 50 53  1  0  0  0  0
 52 50  1  0  0  0  0
 54 63  1  0  0  0  0
 54 59  1  0  0  0  0
 55 54  1  0  0  0  0
 55 58  1  0  0  0  0
 56 55  1  0  0  0  0
 57 55  1  0  0  0  0
 59 60  1  0  0  0  0
 59 62  1  0  0  0  0
 61 59  1  0  0  0  0
 63 64  1  0  0  0  0
 63 65  1  0  0  0  0
 66 63  1  0  0  0  0
 67 68  1  0  0  0  0
 67 70  1  0  0  0  0
 69 67  1  0  0  0  0
M  END
$$$$
