CSD_code = BIZGIA | q = 0 | S = 0 | Stoichiometry = C12H14ClCoO4S2 | MND = 8
 OpenBabel04212202013D

 34 33  0  0  1  0  0  0  0  0999 V2000
    3.5316    1.3685    4.8778 Co  0  0  0  0  0  0  0  0  0  0  0  0
    4.7201   -0.4067    4.5859 Cl  0  0  0  0  0 15  0  0  0  0  0  0
    1.6785    0.0649    4.9956 S   0  0  0  0  0  0  0  0  0  0  0  0
    3.4442    1.3146    2.6159 S   0  0  0  0  0  0  0  0  0  0  0  0
    0.5940   -2.6794    3.4311 O   0  0  0  0  0  0  0  0  0  0  0  0
   -0.6389   -0.9423    2.7167 O   0  0  0  0  0  0  0  0  0  0  0  0
    2.7133    0.1924    0.0571 O   0  0  0  0  0  0  0  0  0  0  0  0
    1.3968   -1.4836    0.7892 O   0  0  0  0  0  0  0  0  0  0  0  0
    1.5318   -0.4687    3.3943 C   0  0  0  0  0  0  0  0  0  0  0  0
    2.2498    0.0205    2.3555 C   0  0  1  0  0  3  0  0  0  0  0  0
    0.4716   -1.5174    3.1791 C   0  0  0  0  0  0  0  0  0  0  0  0
   -1.7272   -1.8243    2.4635 C   0  0  0  0  0  0  0  0  0  0  0  0
    2.1614   -0.3943    0.9609 C   0  0  0  0  0  0  0  0  0  0  0  0
    1.2772   -1.9582   -0.5450 C   0  0  0  0  0  0  0  0  0  0  0  0
    2.4442    2.7025    1.9776 C   0  0  0  0  0  0  0  0  0  0  0  0
    3.0825    3.3585    5.3261 C   0  0  1  0  0  0  0  0  0  0  0  0
    2.8216    2.5556    6.4533 C   0  0  0  0  0  3  0  0  0  0  0  0
    4.0321    1.9082    6.8234 C   0  0  2  0  0  0  0  0  0  0  0  0
    5.0568    2.3764    5.9620 C   0  0  0  0  0  0  0  0  0  0  0  0
    4.4720    3.2506    5.0256 C   0  0  0  0  0  0  0  0  0  0  0  0
   -2.5481   -1.2009    2.1192 H   0  0  0  0  0  0  0  0  0  0  0  0
   -2.0022   -2.3564    3.3760 H   0  0  0  0  0  0  0  0  0  0  0  0
   -1.4467   -2.5518    1.7001 H   0  0  0  0  0  0  0  0  0  0  0  0
    0.5679   -1.3410   -1.1013 H   0  0  0  0  0  0  0  0  0  0  0  0
    2.2469   -1.9244   -1.0448 H   0  0  0  0  0  0  0  0  0  0  0  0
    0.9175   -2.9816   -0.4724 H   0  0  0  0  0  0  0  0  0  0  0  0
    3.0128    3.6149    2.1193 H   0  0  0  0  0  0  0  0  0  0  0  0
    1.4929    2.7492    2.4971 H   0  0  0  0  0  0  0  0  0  0  0  0
    2.2964    2.5154    0.9181 H   0  0  0  0  0  0  0  0  0  0  0  0
    2.3890    4.0434    4.8667 H   0  0  0  0  0  0  0  0  0  0  0  0
    1.8827    2.4803    6.9770 H   0  0  0  0  0  0  0  0  0  0  0  0
    4.1738    1.2863    7.6928 H   0  0  0  0  0  0  0  0  0  0  0  0
    6.1043    2.1372    6.0385 H   0  0  0  0  0  0  0  0  0  0  0  0
    5.0038    3.8197    4.2797 H   0  0  0  0  0  0  0  0  0  0  0  0
  1 16  1  0  0  0  0
  1 18  1  0  0  0  0
  6 11  1  0  0  0  0
  7 13  2  0  0  0  0
  8 13  1  0  0  0  0
  9  3  2  0  0  0  0
 10 13  1  6  0  0  0
 10  4  1  0  0  0  0
 10  9  1  0  0  0  0
 11  9  1  0  0  0  0
 11  5  2  0  0  0  0
 12  6  1  0  0  0  0
 12 22  1  0  0  0  0
 14 26  1  0  0  0  0
 14  8  1  0  0  0  0
 15 27  1  0  0  0  0
 15 28  1  0  0  0  0
 15  4  1  0  0  0  0
 16 30  1  6  0  0  0
 16 17  1  0  0  0  0
 17 18  1  0  0  0  0
 17 31  1  0  0  0  0
 18 32  1  1  0  0  0
 19 33  1  0  0  0  0
 19 18  1  0  0  0  0
 20 16  1  0  0  0  0
 20 19  2  0  0  0  0
 21 12  1  0  0  0  0
 23 12  1  0  0  0  0
 24 14  1  0  0  0  0
 25 14  1  0  0  0  0
 29 15  1  0  0  0  0
 34 20  1  0  0  0  0
M  END
$$$$
