CSD_code = BIZJIF | q = 1 | S = 0 | Stoichiometry = C23H19AuClNP(1+) | MND = 2
 OpenBabel04212202013D

 46 49  0  0  1  0  0  0  0  0999 V2000
    4.6646    4.8700   11.8576 Au  0  0  0  0  0  0  0  0  0  0  0  0
    3.5842    4.5484    9.8990 Cl  0  0  0  0  0  0  0  0  0  0  0  0
    5.6842    4.8654   13.8657 P   0  0  0  0  0  4  0  0  0  0  0  0
    3.7746    3.1746   14.9528 N   0  0  0  0  0  0  0  0  0  0  0  0
    4.6295    4.1915   15.2138 C   0  0  2  0  0  3  0  0  0  0  0  0
    4.5733    4.8079   16.4610 C   0  0  0  0  0  0  0  0  0  0  0  0
    5.2551    5.6198   16.6683 H   0  0  0  0  0  0  0  0  0  0  0  0
    3.6555    4.3991   17.4119 C   0  0  0  0  0  0  0  0  0  0  0  0
    3.6251    4.8696   18.3820 H   0  0  0  0  0  0  0  0  0  0  0  0
    2.7632    3.3792   17.0885 C   0  0  0  0  0  0  0  0  0  0  0  0
    2.0173    3.0449   17.7909 H   0  0  0  0  0  0  0  0  0  0  0  0
    2.8537    2.7881   15.8513 C   0  0  0  0  0  0  0  0  0  0  0  0
    2.2063    1.9773   15.5502 H   0  0  0  0  0  0  0  0  0  0  0  0
    3.8174    2.4936   13.7007 C   0  0  0  0  0  0  0  0  0  0  0  0
    4.9769    1.8287   13.3175 C   0  0  0  0  0  0  0  0  0  0  0  0
    5.8204    1.7792   13.9905 H   0  0  0  0  0  0  0  0  0  0  0  0
    5.0104    1.1876   12.0910 C   0  0  0  0  0  0  0  0  0  0  0  0
    5.9071    0.6692   11.7902 H   0  0  0  0  0  0  0  0  0  0  0  0
    3.9017    1.2091   11.2600 C   0  0  0  0  0  0  0  0  0  0  0  0
    3.9408    0.7266   10.2969 H   0  0  0  0  0  0  0  0  0  0  0  0
    2.7390    1.8482   11.6624 C   0  0  0  0  0  0  0  0  0  0  0  0
    1.8782    1.8678   11.0145 H   0  0  0  0  0  0  0  0  0  0  0  0
    2.6857    2.4838   12.8895 C   0  0  0  0  0  0  0  0  0  0  0  0
    1.7931    3.0064   13.1995 H   0  0  0  0  0  0  0  0  0  0  0  0
    6.0600    6.5217   14.4893 C   0  0  0  0  0  0  0  0  0  0  0  0
    5.0077    7.4409   14.4685 C   0  0  0  0  0  0  0  0  0  0  0  0
    4.0247    7.1173   14.1471 H   0  0  0  0  0  0  0  0  0  0  0  0
    5.2295    8.7496   14.8473 C   0  0  0  0  0  0  0  0  0  0  0  0
    4.4170    9.4594   14.8347 H   0  0  0  0  0  0  0  0  0  0  0  0
    6.5027    9.1526   15.2259 C   0  0  0  0  0  0  0  0  0  0  0  0
    6.6778   10.1781   15.5114 H   0  0  0  0  0  0  0  0  0  0  0  0
    7.5524    8.2484   15.2223 C   0  0  0  0  0  0  0  0  0  0  0  0
    8.5437    8.5694   15.5028 H   0  0  0  0  0  0  0  0  0  0  0  0
    7.3403    6.9319   14.8498 C   0  0  0  0  0  0  0  0  0  0  0  0
    8.1628    6.2311   14.8355 H   0  0  0  0  0  0  0  0  0  0  0  0
    7.2382    3.9490   14.0044 C   0  0  0  0  0  0  0  0  0  0  0  0
    7.9221    3.6775   12.8233 C   0  0  0  0  0  0  0  0  0  0  0  0
    7.4917    3.9813   11.8775 H   0  0  0  0  0  0  0  0  0  0  0  0
    9.1383    3.0198   12.8733 C   0  0  0  0  0  0  0  0  0  0  0  0
    9.6735    2.8115   11.9601 H   0  0  0  0  0  0  0  0  0  0  0  0
    9.6636    2.6291   14.0950 C   0  0  0  0  0  0  0  0  0  0  0  0
   10.6102    2.1131   14.1333 H   0  0  0  0  0  0  0  0  0  0  0  0
    8.9784    2.8976   15.2712 C   0  0  0  0  0  0  0  0  0  0  0  0
    9.3924    2.5925   16.2201 H   0  0  0  0  0  0  0  0  0  0  0  0
    7.7649    3.5595   15.2349 C   0  0  0  0  0  0  0  0  0  0  0  0
    7.2312    3.7748   16.1513 H   0  0  0  0  0  0  0  0  0  0  0  0
  1  3  1  0  0  0  0
  2  1  1  0  0  0  0
  3 36  1  0  0  0  0
  3 25  1  0  0  0  0
  4  5  1  0  0  0  0
  4 12  1  0  0  0  0
  5  3  1  6  0  0  0
  5  6  1  0  0  0  0
  6  7  1  0  0  0  0
  6  8  2  0  0  0  0
  8  9  1  0  0  0  0
 10  8  1  0  0  0  0
 10 11  1  0  0  0  0
 12 10  2  0  0  0  0
 13 12  1  0  0  0  0
 14  4  1  0  0  0  0
 15 14  1  0  0  0  0
 15 16  1  0  0  0  0
 17 15  2  0  0  0  0
 18 17  1  0  0  0  0
 19 21  2  0  0  0  0
 19 17  1  0  0  0  0
 20 19  1  0  0  0  0
 21 23  1  0  0  0  0
 22 21  1  0  0  0  0
 23 24  1  0  0  0  0
 23 14  2  0  0  0  0
 25 34  1  0  0  0  0
 26 25  2  0  0  0  0
 26 28  1  0  0  0  0
 27 26  1  0  0  0  0
 28 30  2  0  0  0  0
 29 28  1  0  0  0  0
 30 31  1  0  0  0  0
 32 30  1  0  0  0  0
 32 33  1  0  0  0  0
 34 32  2  0  0  0  0
 35 34  1  0  0  0  0
 36 45  1  0  0  0  0
 37 39  1  0  0  0  0
 37 36  2  0  0  0  0
 38 37  1  0  0  0  0
 39 41  2  0  0  0  0
 40 39  1  0  0  0  0
 41 42  1  0  0  0  0
 41 43  1  0  0  0  0
 43 44  1  0  0  0  0
 45 43  2  0  0  0  0
 45 46  1  0  0  0  0
M  END
$$$$
