CSD_code = BIZKUT | q = 0 | S = 0 | Stoichiometry = C13H15Cl2N3Zn | MND = 4
 OpenBabel04212202013D

 34 37  0  0  1  0  0  0  0  0999 V2000
    3.4946    8.3645   12.5893 Zn  0  0  0  0  0  0  0  0  0  0  0  0
    4.2510   10.4010   12.2598 Cl  0  0  0  0  0  0  0  0  0  0  0  0
    1.6608    7.4038   13.2958 Cl  0  0  0  0  0  0  0  0  0  0  0  0
    4.9792    7.1569   13.6306 N   0  0  0  0  0  0  0  0  0  0  0  0
    5.5683    6.7023   11.4555 N   0  0  0  0  0  0  0  0  0  0  0  0
    4.4653    7.3589   11.0346 N   0  0  0  0  0  0  0  0  0  0  0  0
    5.0114    6.9168   14.9323 C   0  0  0  0  0  3  0  0  0  0  0  0
    4.4187    7.5797   15.5460 H   0  0  0  0  0  0  0  0  0  0  0  0
    5.7507    5.8844   15.4822 C   0  0  0  0  0  0  0  0  0  0  0  0
    5.7583    5.7256   16.5476 H   0  0  0  0  0  0  0  0  0  0  0  0
    6.4549    5.0517   14.6248 C   0  0  0  0  0  0  0  0  0  0  0  0
    7.0176    4.2145   15.0090 H   0  0  0  0  0  0  0  0  0  0  0  0
    6.4165    5.2906   13.2631 C   0  0  0  0  0  0  0  0  0  0  0  0
    6.9173    4.6303   12.5774 H   0  0  0  0  0  0  0  0  0  0  0  0
    5.6729    6.3765   12.8020 C   0  0  0  0  0  0  0  0  0  0  0  0
    6.4467    6.5292   10.4169 C   0  0  1  0  0  3  0  0  0  0  0  0
    5.8566    7.0931    9.3081 C   0  0  0  0  0  0  0  0  0  0  0  0
    4.6170    7.5982    9.7506 C   0  0  0  0  0  0  0  0  0  0  0  0
    7.7983    5.9261   10.5308 C   0  0  0  0  0  0  0  0  0  0  0  0
    8.2732    6.2002   11.4706 H   0  0  0  0  0  0  0  0  0  0  0  0
    8.4116    6.2901    9.7095 H   0  0  0  0  0  0  0  0  0  0  0  0
    7.7585    4.8390   10.4557 H   0  0  0  0  0  0  0  0  0  0  0  0
    3.6527    8.3299    8.8977 C   0  0  0  0  0  0  0  0  0  0  0  0
    3.7212    9.3930    9.1492 H   0  0  0  0  0  0  0  0  0  0  0  0
    2.6326    8.0102    9.1198 H   0  0  0  0  0  0  0  0  0  0  0  0
    4.0072    8.1080    7.4256 C   0  0  0  0  0  0  0  0  0  0  0  0
    3.7299    7.0933    7.1317 H   0  0  0  0  0  0  0  0  0  0  0  0
    3.4403    8.8039    6.8069 H   0  0  0  0  0  0  0  0  0  0  0  0
    5.5057    8.3084    7.1960 C   0  0  0  0  0  0  0  0  0  0  0  0
    5.7985    9.2838    7.5888 H   0  0  0  0  0  0  0  0  0  0  0  0
    5.7245    8.2939    6.1273 H   0  0  0  0  0  0  0  0  0  0  0  0
    6.3183    7.2163    7.8969 C   0  0  0  0  0  0  0  0  0  0  0  0
    6.1738    6.2607    7.3827 H   0  0  0  0  0  0  0  0  0  0  0  0
    7.3845    7.4515    7.8602 H   0  0  0  0  0  0  0  0  0  0  0  0
  1  3  1  0  0  0  0
  1  4  1  0  0  0  0
  2  1  1  0  0  0  0
  4  7  1  0  0  0  0
  5 15  1  0  0  0  0
  6  5  1  0  0  0  0
  6  1  1  0  0  0  0
  7  9  1  0  0  0  0
  7  8  1  0  0  0  0
  9 10  1  0  0  0  0
 11 12  1  0  0  0  0
 11  9  2  0  0  0  0
 13 11  1  0  0  0  0
 14 13  1  0  0  0  0
 15 13  2  0  0  0  0
 15  4  1  0  0  0  0
 16 19  1  1  0  0  0
 16  5  1  0  0  0  0
 17 18  2  0  0  0  0
 17 16  1  0  0  0  0
 18  6  1  0  0  0  0
 19 20  1  0  0  0  0
 21 19  1  0  0  0  0
 22 19  1  0  0  0  0
 23 25  1  0  0  0  0
 23 24  1  0  0  0  0
 23 18  1  0  0  0  0
 26 23  1  0  0  0  0
 27 26  1  0  0  0  0
 28 26  1  0  0  0  0
 29 26  1  0  0  0  0
 29 30  1  0  0  0  0
 29 32  1  0  0  0  0
 31 29  1  0  0  0  0
 32 17  1  0  0  0  0
 33 32  1  0  0  0  0
 34 32  1  0  0  0  0
M  END
$$$$
