CSD_code = BMPINN | q = 0 | S = 0 | Stoichiometry = C21H30BrNiP | MND = 5
 OpenBabel04212202013D

 54 54  0  0  1  0  0  0  0  0999 V2000
    0.9708    2.5546    4.3493 Ni  0  0  0  0  0  0  0  0  0  0  0  0
    0.2929    1.7217    2.4123 Br  0  0  0  0  0 15  0  0  0  0  0  0
    3.1312    2.5232    4.1529 P   0  0  1  0  0  0  0  0  0  0  0  0
    4.1025    4.0077    4.6461 C   0  0  0  0  0  0  0  0  0  0  0  0
    4.0887    1.8049    2.5166 C   0  0  0  0  0  0  0  0  0  0  0  0
    3.5777    0.4926    2.2770 C   0  0  0  0  0  3  0  0  0  0  0  0
    5.5770    1.8075    2.8555 C   0  0  0  0  0  0  0  0  0  0  0  0
    3.7358    2.8108    1.4283 C   0  0  0  0  0  0  0  0  0  0  0  0
    3.6163    1.2681    5.3693 C   0  0  0  0  0  0  0  0  0  0  0  0
    2.8700    0.0897    5.3257 C   0  0  0  0  0  0  0  0  0  0  0  0
    3.0960   -0.9221    6.2368 C   0  0  0  0  0  0  0  0  0  0  0  0
    4.0701   -0.7650    7.2109 C   0  0  0  0  0  0  0  0  0  0  0  0
    4.8135    0.4027    7.2631 C   0  0  0  0  0  0  0  0  0  0  0  0
    4.5904    1.4185    6.3495 C   0  0  0  0  0  0  0  0  0  0  0  0
    1.1765    3.3998    6.1549 C   0  0  0  0  0  0  0  0  0  0  0  0
   -0.0113    2.6603    6.0987 C   0  0  1  0  0  3  0  0  0  0  0  0
   -0.9021    2.8937    5.0366 C   0  0  0  0  0  3  0  0  0  0  0  0
   -2.1675    2.0774    4.9738 C   0  0  0  0  0  0  0  0  0  0  0  0
   -0.2830    1.4509    6.9248 C   0  0  2  0  0  0  0  0  0  0  0  0
   -0.7578    0.3173    6.0046 C   0  0  0  0  0  0  0  0  0  0  0  0
   -2.1379    0.9821    6.0343 C   0  0  1  0  0  0  0  0  0  0  0  0
   -1.7875    1.5567    7.4466 C   0  0  1  0  0  0  0  0  0  0  0  0
   -2.0540    0.6102    8.5171 C   0  0  0  0  0  3  0  0  0  0  0  0
   -2.2892    2.9427    7.8348 C   0  0  0  0  0  0  0  0  0  0  0  0
    5.1732    3.8232    4.6181 H   0  0  0  0  0  0  0  0  0  0  0  0
    3.8598    4.8240    3.9664 H   0  0  0  0  0  0  0  0  0  0  0  0
    3.8140    4.3011    5.6540 H   0  0  0  0  0  0  0  0  0  0  0  0
    2.7125    0.3395    1.6615 H   0  0  0  0  0  0  0  0  0  0  0  0
    4.0196   -0.3583    2.7633 H   0  0  0  0  0  0  0  0  0  0  0  0
    6.1144    1.2863    2.0650 H   0  0  0  0  0  0  0  0  0  0  0  0
    5.7731    1.2902    3.7933 H   0  0  0  0  0  0  0  0  0  0  0  0
    5.9730    2.8184    2.9083 H   0  0  0  0  0  0  0  0  0  0  0  0
    4.2515    2.5458    0.5072 H   0  0  0  0  0  0  0  0  0  0  0  0
    2.6659    2.7971    1.2334 H   0  0  0  0  0  0  0  0  0  0  0  0
    4.0355    3.8191    1.7100 H   0  0  0  0  0  0  0  0  0  0  0  0
    2.1136   -0.0192    4.5539 H   0  0  0  0  0  0  0  0  0  0  0  0
    2.5116   -1.8293    6.1941 H   0  0  0  0  0  0  0  0  0  0  0  0
    4.2472   -1.5494    7.9317 H   0  0  0  0  0  0  0  0  0  0  0  0
    5.5711    0.5258    8.0239 H   0  0  0  0  0  0  0  0  0  0  0  0
    5.1756    2.3242    6.4107 H   0  0  0  0  0  0  0  0  0  0  0  0
    1.8933    3.1689    6.9361 H   0  0  0  0  0  0  0  0  0  0  0  0
    1.1566    4.4491    5.8579 H   0  0  0  0  0  0  0  0  0  0  0  0
   -0.9603    3.8921    4.5846 H   0  0  0  0  0  0  0  0  0  0  0  0
   -3.0309    2.7360    5.1154 H   0  0  0  0  0  0  0  0  0  0  0  0
   -2.2799    1.6178    3.9866 H   0  0  0  0  0  0  0  0  0  0  0  0
    0.4920    1.2433    7.6636 H   0  0  0  0  0  0  0  0  0  0  0  0
   -3.0192    0.3430    5.9778 H   0  0  0  0  0  0  0  0  0  0  0  0
   -0.7291   -0.6577    6.4822 H   0  0  0  0  0  0  0  0  0  0  0  0
   -0.2763    0.2537    5.0254 H   0  0  0  0  0  0  0  0  0  0  0  0
   -1.9709   -0.4478    8.3644 H   0  0  0  0  0  0  0  0  0  0  0  0
   -2.2893    0.9561    9.5048 H   0  0  0  0  0  0  0  0  0  0  0  0
   -2.0418    3.7014    7.0984 H   0  0  0  0  0  0  0  0  0  0  0  0
   -3.3709    2.9169    7.9532 H   0  0  0  0  0  0  0  0  0  0  0  0
   -1.8471    3.2389    8.7847 H   0  0  0  0  0  0  0  0  0  0  0  0
  1 15  1  0  0  0  0
  3  5  1  6  0  0  0
  3  4  1  0  0  0  0
  3  9  1  0  0  0  0
  4 27  1  0  0  0  0
  5  7  1  0  0  0  0
  6  5  1  0  0  0  0
  6 29  1  0  0  0  0
  7 32  1  0  0  0  0
  7 31  1  0  0  0  0
  8 35  1  0  0  0  0
  8  5  1  0  0  0  0
  9 14  1  0  0  0  0
 10  9  2  0  0  0  0
 10 11  1  0  0  0  0
 11 12  2  0  0  0  0
 12 13  1  0  0  0  0
 12 38  1  0  0  0  0
 13 39  1  0  0  0  0
 14 40  1  0  0  0  0
 14 13  2  0  0  0  0
 15 41  1  0  0  0  0
 16 15  1  6  0  0  0
 16 19  1  0  0  0  0
 17 16  1  0  0  0  0
 18 17  1  0  0  0  0
 18 44  1  0  0  0  0
 18 21  1  0  0  0  0
 19 22  1  0  0  0  0
 19 46  1  1  0  0  0
 20 21  1  0  0  0  0
 20 48  1  0  0  0  0
 20 19  1  0  0  0  0
 21 47  1  6  0  0  0
 21 22  1  0  0  0  0
 22 24  1  0  0  0  0
 22 23  1  1  0  0  0
 23 51  1  0  0  0  0
 24 53  1  0  0  0  0
 24 54  1  0  0  0  0
 25  4  1  0  0  0  0
 26  4  1  0  0  0  0
 28  6  1  0  0  0  0
 30  7  1  0  0  0  0
 33  8  1  0  0  0  0
 34  8  1  0  0  0  0
 36 10  1  0  0  0  0
 37 11  1  0  0  0  0
 42 15  1  0  0  0  0
 43 17  1  0  0  0  0
 45 18  1  0  0  0  0
 49 20  1  0  0  0  0
 50 23  1  0  0  0  0
 52 24  1  0  0  0  0
M  END
$$$$
