CSD_code = BOBHEF | q = 0 | S = 0 | Stoichiometry = C9H11Cl2N3O2Zn | MND = 5
 OpenBabel04212202013D

 28 30  0  0  1  0  0  0  0  0999 V2000
    0.0223    1.9259    1.9371 Zn  0  0  0  0  0  0  0  0  0  0  0  0
    0.9147    2.2576   -0.0980 Cl  0  0  0  0  0  0  0  0  0  0  0  0
   -2.0625    1.2660    2.2832 Cl  0  0  0  0  0  0  0  0  0  0  0  0
    1.5302   -0.9477    2.1800 O   0  0  0  0  0  0  0  0  0  0  0  0
   -0.0221    4.9369    1.1154 O   0  0  0  0  0  0  0  0  0  0  0  0
    1.0490    0.1470    2.8486 N   0  0  0  0  0  0  0  0  0  0  0  0
    0.3124    2.3450    3.9729 N   0  0  0  0  0  0  0  0  0  0  0  0
   -0.0357    4.1079    2.1850 N   0  0  0  0  0  0  0  0  0  0  0  0
    1.2238   -1.1436    4.9265 C   0  0  0  0  0  0  0  0  0  0  0  0
    0.9157    0.0706    4.1173 C   0  0  0  0  0  0  0  0  0  0  0  0
    0.4017    1.2855    4.7641 C   0  0  0  0  0  0  0  0  0  0  0  0
   -0.0002    1.3582    6.0974 C   0  0  0  0  0  0  0  0  0  0  0  0
   -0.5074    2.5615    6.5643 C   0  0  0  0  0  0  0  0  0  0  0  0
   -0.6106    3.6512    5.7140 C   0  0  0  0  0  0  0  0  0  0  0  0
   -0.1907    3.4991    4.3931 C   0  0  0  0  0  0  0  0  0  0  0  0
   -0.2709    4.5430    3.3613 C   0  0  2  0  0  3  0  0  0  0  0  0
   -0.5991    5.9564    3.7083 C   0  0  0  0  0  0  0  0  0  0  0  0
    1.5481   -0.6925    1.2429 H   0  0  0  0  0  0  0  0  0  0  0  0
    1.7336   -1.8770    4.3073 H   0  0  0  0  0  0  0  0  0  0  0  0
    0.2960   -1.5816    5.2926 H   0  0  0  0  0  0  0  0  0  0  0  0
    1.8491   -0.8878    5.7792 H   0  0  0  0  0  0  0  0  0  0  0  0
    0.0613    0.5007    6.7466 H   0  0  0  0  0  0  0  0  0  0  0  0
   -0.8356    2.6451    7.5896 H   0  0  0  0  0  0  0  0  0  0  0  0
   -1.0239    4.5840    6.0609 H   0  0  0  0  0  0  0  0  0  0  0  0
    0.0311    6.3091    4.5221 H   0  0  0  0  0  0  0  0  0  0  0  0
   -0.4507    6.5844    2.8333 H   0  0  0  0  0  0  0  0  0  0  0  0
   -1.6411    6.0292    4.0176 H   0  0  0  0  0  0  0  0  0  0  0  0
    0.2515    4.3444    0.3714 H   0  0  0  0  0  0  0  0  0  0  0  0
  1  8  1  0  0  0  0
  1  3  1  0  0  0  0
  1  6  1  0  0  0  0
  1  7  1  0  0  0  0
  2  1  1  0  0  0  0
  4  6  1  0  0  0  0
  5  8  1  0  0  0  0
  6 10  1  0  0  0  0
  7 15  1  0  0  0  0
  7 11  1  0  0  0  0
  8 16  1  0  0  0  0
  9 20  1  0  0  0  0
  9 21  1  0  0  0  0
 10 11  2  0  0  0  0
 10  9  1  0  0  0  0
 11 12  1  0  0  0  0
 12 13  2  0  0  0  0
 12 22  1  0  0  0  0
 13 23  1  0  0  0  0
 14 24  1  0  0  0  0
 14 13  1  0  0  0  0
 15 14  2  0  0  0  0
 16 17  1  6  0  0  0
 16 15  1  0  0  0  0
 17 27  1  0  0  0  0
 17 25  1  0  0  0  0
 18  4  1  0  0  0  0
 19  9  1  0  0  0  0
 26 17  1  0  0  0  0
 28  5  1  0  0  0  0
M  END
$$$$
