CSD_code = BOBSEQ | q = 0 | S = 0 | Stoichiometry = C38H32ClNP2Pd | MND = 4
 OpenBabel04212202013D

 75 80  0  0  0  0  0  0  0  0999 V2000
    0.1042    6.2819   12.4755 Pd  0  0  0  0  0  0  0  0  0  0  0  0
    0.6304    4.2071   13.4237 Cl  0  0  0  0  0  0  0  0  0  0  0  0
    2.1250    6.9959   13.1981 P   0  0  0  0  0  4  0  0  0  0  0  0
   -1.7924    5.2364   11.8373 P   0  0  0  0  0  4  0  0  0  0  0  0
    0.3849    7.1525    9.3027 N   0  0  0  0  0  0  0  0  0  0  0  0
   -0.4109    8.0832   11.5601 C   0  0  0  0  0  0  0  0  0  0  0  0
    0.0210    7.6018   10.3037 C   0  0  0  0  0  0  0  0  0  0  0  0
    3.2748    5.7783   12.4917 C   0  0  0  0  0  0  0  0  0  0  0  0
    4.4021    5.2893   13.1361 C   0  0  0  0  0  0  0  0  0  0  0  0
    5.1816    4.3288   12.5135 C   0  0  0  0  0  0  0  0  0  0  0  0
    4.8398    3.8566   11.2578 C   0  0  0  0  0  0  0  0  0  0  0  0
    3.7108    4.3407   10.6144 C   0  0  0  0  0  0  0  0  0  0  0  0
    2.9260    5.2960   11.2298 C   0  0  0  0  0  0  0  0  0  0  0  0
    2.7962    8.5885   12.6246 C   0  0  0  0  0  0  0  0  0  0  0  0
    2.3890    9.7443   13.2882 C   0  0  0  0  0  0  0  0  0  0  0  0
    2.8055   10.9850   12.8459 C   0  0  0  0  0  0  0  0  0  0  0  0
    3.6203   11.0828   11.7285 C   0  0  0  0  0  0  0  0  0  0  0  0
    4.0131    9.9381   11.0554 C   0  0  0  0  0  0  0  0  0  0  0  0
    3.6004    8.6928   11.4959 C   0  0  0  0  0  0  0  0  0  0  0  0
    2.4735    7.0475   14.9771 C   0  0  0  0  0  0  0  0  0  0  0  0
    1.5507    6.4833   15.8502 C   0  0  0  0  0  0  0  0  0  0  0  0
    1.7880    6.4990   17.2130 C   0  0  0  0  0  0  0  0  0  0  0  0
    2.9435    7.0812   17.7069 C   0  0  0  0  0  0  0  0  0  0  0  0
    3.8623    7.6514   16.8389 C   0  0  0  0  0  0  0  0  0  0  0  0
    3.6311    7.6397   15.4761 C   0  0  0  0  0  0  0  0  0  0  0  0
   -2.8433    4.9576   13.2884 C   0  0  0  0  0  0  0  0  0  0  0  0
   -2.4314    5.5266   14.4897 C   0  0  0  0  0  0  0  0  0  0  0  0
   -3.1973    5.3692   15.6303 C   0  0  0  0  0  0  0  0  0  0  0  0
   -4.3809    4.6514   15.5706 C   0  0  0  0  0  0  0  0  0  0  0  0
   -4.8098    4.1099   14.3685 C   0  0  0  0  0  0  0  0  0  0  0  0
   -4.0496    4.2668   13.2241 C   0  0  0  0  0  0  0  0  0  0  0  0
   -1.3465    3.6357   11.1108 C   0  0  0  0  0  0  0  0  0  0  0  0
   -0.3632    3.7041   10.1233 C   0  0  0  0  0  0  0  0  0  0  0  0
    0.1039    2.5469    9.5322 C   0  0  0  0  0  0  0  0  0  0  0  0
   -0.3977    1.3174    9.9315 C   0  0  0  0  0  0  0  0  0  0  0  0
   -1.3586    1.2486   10.9254 C   0  0  0  0  0  0  0  0  0  0  0  0
   -1.8350    2.4042   11.5215 C   0  0  0  0  0  0  0  0  0  0  0  0
   -2.9922    5.9318   10.6555 C   0  0  0  0  0  0  0  0  0  0  0  0
   -3.8403    6.9382   11.1139 C   0  0  0  0  0  0  0  0  0  0  0  0
   -4.7265    7.5511   10.2497 C   0  0  0  0  0  0  0  0  0  0  0  0
   -4.7670    7.1721    8.9171 C   0  0  0  0  0  0  0  0  0  0  0  0
   -3.9204    6.1789    8.4549 C   0  0  0  0  0  0  0  0  0  0  0  0
   -3.0320    5.5606    9.3170 C   0  0  0  0  0  0  0  0  0  0  0  0
    0.1612    8.9583   11.8823 H   0  0  0  0  0  0  0  0  0  0  0  0
   -1.4841    8.2999   11.5634 H   0  0  0  0  0  0  0  0  0  0  0  0
    4.6596    5.6411   14.1250 H   0  0  0  0  0  0  0  0  0  0  0  0
    6.0553    3.9411   13.0171 H   0  0  0  0  0  0  0  0  0  0  0  0
    5.4485    3.1012   10.7828 H   0  0  0  0  0  0  0  0  0  0  0  0
    3.4392    3.9661    9.6387 H   0  0  0  0  0  0  0  0  0  0  0  0
    2.0295    5.6803   10.7364 H   0  0  0  0  0  0  0  0  0  0  0  0
    1.7455    9.6577   14.1559 H   0  0  0  0  0  0  0  0  0  0  0  0
    2.4912   11.8774   13.3675 H   0  0  0  0  0  0  0  0  0  0  0  0
    3.9434   12.0526   11.3802 H   0  0  0  0  0  0  0  0  0  0  0  0
    4.6410   10.0146   10.1800 H   0  0  0  0  0  0  0  0  0  0  0  0
    3.9025    7.8008   10.9653 H   0  0  0  0  0  0  0  0  0  0  0  0
    0.6599    6.0140   15.4461 H   0  0  0  0  0  0  0  0  0  0  0  0
    1.0729    6.0560   17.8904 H   0  0  0  0  0  0  0  0  0  0  0  0
    3.1306    7.0938   18.7707 H   0  0  0  0  0  0  0  0  0  0  0  0
    4.7619    8.1070   17.2270 H   0  0  0  0  0  0  0  0  0  0  0  0
    4.3394    8.0958   14.7970 H   0  0  0  0  0  0  0  0  0  0  0  0
   -1.4993    6.1029   14.5116 H   0  0  0  0  0  0  0  0  0  0  0  0
   -2.8761    5.8059   16.5646 H   0  0  0  0  0  0  0  0  0  0  0  0
   -4.9780    4.5215   16.4612 H   0  0  0  0  0  0  0  0  0  0  0  0
   -5.7427    3.5666   14.3237 H   0  0  0  0  0  0  0  0  0  0  0  0
   -4.3925    3.8696   12.2779 H   0  0  0  0  0  0  0  0  0  0  0  0
    0.0313    4.6755    9.8318 H   0  0  0  0  0  0  0  0  0  0  0  0
    0.8649    2.5996    8.7675 H   0  0  0  0  0  0  0  0  0  0  0  0
   -0.0269    0.4102    9.4770 H   0  0  0  0  0  0  0  0  0  0  0  0
   -1.7333    0.2881   11.2487 H   0  0  0  0  0  0  0  0  0  0  0  0
   -2.5604    2.3429   12.3195 H   0  0  0  0  0  0  0  0  0  0  0  0
   -3.8042    7.2305   12.1570 H   0  0  0  0  0  0  0  0  0  0  0  0
   -5.3840    8.3278   10.6129 H   0  0  0  0  0  0  0  0  0  0  0  0
   -5.4568    7.6538    8.2400 H   0  0  0  0  0  0  0  0  0  0  0  0
   -3.9484    5.8854    7.4159 H   0  0  0  0  0  0  0  0  0  0  0  0
   -2.3714    4.7883    8.9506 H   0  0  0  0  0  0  0  0  0  0  0  0
  1  3  1  0  0  0  0
  1  2  1  0  0  0  0
  3 20  1  0  0  0  0
  4  1  1  0  0  0  0
  4 26  1  0  0  0  0
  5  7  3  0  0  0  0
  6 45  1  0  0  0  0
  6 44  1  0  0  0  0
  6  1  1  0  0  0  0
  7  6  1  0  0  0  0
  8  9  1  0  0  0  0
  8  3  1  0  0  0  0
  9 46  1  0  0  0  0
 10 47  1  0  0  0  0
 10  9  2  0  0  0  0
 11 10  1  0  0  0  0
 12 13  1  0  0  0  0
 12 11  2  0  0  0  0
 13  8  2  0  0  0  0
 14  3  1  0  0  0  0
 14 15  1  0  0  0  0
 15 51  1  0  0  0  0
 16 15  2  0  0  0  0
 16 52  1  0  0  0  0
 17 16  1  0  0  0  0
 18 19  1  0  0  0  0
 18 17  2  0  0  0  0
 19 14  2  0  0  0  0
 20 25  2  0  0  0  0
 20 21  1  0  0  0  0
 21 22  2  0  0  0  0
 22 23  1  0  0  0  0
 22 57  1  0  0  0  0
 23 58  1  0  0  0  0
 24 59  1  0  0  0  0
 24 23  2  0  0  0  0
 25 24  1  0  0  0  0
 26 27  1  0  0  0  0
 27 61  1  0  0  0  0
 27 28  2  0  0  0  0
 28 62  1  0  0  0  0
 29 28  1  0  0  0  0
 29 63  1  0  0  0  0
 30 29  2  0  0  0  0
 31 26  2  0  0  0  0
 31 30  1  0  0  0  0
 32 37  1  0  0  0  0
 32  4  1  0  0  0  0
 33 32  2  0  0  0  0
 34 35  2  0  0  0  0
 34 33  1  0  0  0  0
 35 36  1  0  0  0  0
 36 69  1  0  0  0  0
 36 37  2  0  0  0  0
 37 70  1  0  0  0  0
 38 39  1  0  0  0  0
 38  4  1  0  0  0  0
 39 71  1  0  0  0  0
 40 72  1  0  0  0  0
 40 39  2  0  0  0  0
 41 40  1  0  0  0  0
 42 41  2  0  0  0  0
 42 43  1  0  0  0  0
 43 38  2  0  0  0  0
 48 11  1  0  0  0  0
 49 12  1  0  0  0  0
 50 13  1  0  0  0  0
 53 17  1  0  0  0  0
 54 18  1  0  0  0  0
 55 19  1  0  0  0  0
 56 21  1  0  0  0  0
 60 25  1  0  0  0  0
 64 30  1  0  0  0  0
 65 31  1  0  0  0  0
 66 33  1  0  0  0  0
 67 34  1  0  0  0  0
 68 35  1  0  0  0  0
 73 41  1  0  0  0  0
 74 42  1  0  0  0  0
 75 43  1  0  0  0  0
M  END
$$$$
