CSD_code = BOCCUT | q = 0 | S = 0 | Stoichiometry = C16H12FN3S3Zn | MND = 5
 OpenBabel04212202013D

 36 41  0  0  1  0  0  0  0  0999 V2000
    4.8818    3.3214    4.8616 Zn  0  0  0  0  0  0  0  0  0  0  0  0
    7.8441    3.3215    3.4491 S   0  0  0  0  0  0  0  0  0  0  0  0
    7.5970    1.8607    5.9650 S   0  0  0  0  0  0  0  0  0  0  0  0
    3.1229    3.3215    4.6790 F   0  0  0  0  0  0  0  0  0  0  0  0
    5.2444    3.3214    2.8146 N   0  0  0  0  0  0  0  0  0  0  0  0
    4.9352    1.5873    5.9932 N   0  0  0  0  0  0  0  0  0  0  0  0
    7.0298    3.3214    5.0599 C   0  0  2  0  0  0  0  0  0  0  0  0
    6.4880    3.3214    2.3479 C   0  0  1  0  0  3  0  0  0  0  0  0
    6.7701    3.3214    0.9775 C   0  0  0  0  0  0  0  0  0  0  0  0
    7.7992    3.3214    0.6553 H   0  0  0  0  0  0  0  0  0  0  0  0
    5.7216    3.3213    0.0873 C   0  0  0  0  0  0  0  0  0  0  0  0
    5.9073    3.3212   -0.9764 H   0  0  0  0  0  0  0  0  0  0  0  0
    4.4188    3.3213    0.5826 C   0  0  0  0  0  0  0  0  0  0  0  0
    3.5703    3.3212   -0.0815 H   0  0  0  0  0  0  0  0  0  0  0  0
    4.2326    3.3213    1.9483 C   0  0  0  0  0  0  0  0  0  0  0  0
    3.2504    3.3213    2.3943 H   0  0  0  0  0  0  0  0  0  0  0  0
    6.0953    1.0807    6.3960 C   0  0  2  0  0  3  0  0  0  0  0  0
    6.1711   -0.0807    7.1729 C   0  0  0  0  0  0  0  0  0  0  0  0
    7.1399   -0.4487    7.4708 H   0  0  0  0  0  0  0  0  0  0  0  0
    5.0033   -0.7117    7.5330 C   0  0  0  0  0  0  0  0  0  0  0  0
    5.0294   -1.6079    8.1347 H   0  0  0  0  0  0  0  0  0  0  0  0
    3.7891   -0.1738    7.1099 C   0  0  0  0  0  0  0  0  0  0  0  0
    2.8524   -0.6374    7.3724 H   0  0  0  0  0  0  0  0  0  0  0  0
    3.8075    0.9715    6.3434 C   0  0  0  0  0  0  0  0  0  0  0  0
    2.9034    1.4358    5.9814 H   0  0  0  0  0  0  0  0  0  0  0  0
    7.5970    4.7821    5.9651 S   0  0  0  0  0  0  0  0  0  0  0  0
    4.9352    5.0555    5.9933 N   0  0  0  0  0  0  0  0  0  0  0  0
    6.0953    5.5621    6.3961 C   0  0  1  0  0  3  0  0  0  0  0  0
    6.1711    6.7234    7.1731 C   0  0  0  0  0  0  0  0  0  0  0  0
    7.1399    7.0915    7.4709 H   0  0  0  0  0  0  0  0  0  0  0  0
    5.0033    7.3544    7.5332 C   0  0  0  0  0  0  0  0  0  0  0  0
    5.0294    8.2507    8.1349 H   0  0  0  0  0  0  0  0  0  0  0  0
    3.7891    6.8165    7.1101 C   0  0  0  0  0  0  0  0  0  0  0  0
    2.8524    7.2801    7.3726 H   0  0  0  0  0  0  0  0  0  0  0  0
    3.8075    5.6713    6.3435 C   0  0  0  0  0  0  0  0  0  0  0  0
    2.9035    5.2070    5.9816 H   0  0  0  0  0  0  0  0  0  0  0  0
  1  7  1  0  0  0  0
  1  6  1  0  0  0  0
  1 27  1  0  0  0  0
  4  1  1  0  0  0  0
  5  1  1  0  0  0  0
  6 24  1  0  0  0  0
  6 17  1  0  0  0  0
  7  2  1  6  0  0  0
  7  3  1  0  0  0  0
  7 26  1  0  0  0  0
  8  9  1  6  0  0  0
  8  5  1  0  0  0  0
  8  2  1  0  0  0  0
 10  9  1  0  0  0  0
 11 13  1  0  0  0  0
 11  9  2  0  0  0  0
 12 11  1  0  0  0  0
 13 15  2  0  0  0  0
 14 13  1  0  0  0  0
 15 16  1  0  0  0  0
 15  5  1  0  0  0  0
 17  3  1  1  0  0  0
 17 18  1  0  0  0  0
 18 19  1  0  0  0  0
 18 20  2  0  0  0  0
 20 21  1  0  0  0  0
 22 23  1  0  0  0  0
 22 20  1  0  0  0  0
 24 22  2  0  0  0  0
 25 24  1  0  0  0  0
 27 35  1  0  0  0  0
 27 28  1  0  0  0  0
 28 26  1  1  0  0  0
 28 29  1  0  0  0  0
 29 30  1  0  0  0  0
 29 31  2  0  0  0  0
 31 32  1  0  0  0  0
 33 34  1  0  0  0  0
 33 31  1  0  0  0  0
 35 33  2  0  0  0  0
 36 35  1  0  0  0  0
M  END
$$$$
