CSD_code = BOCKOU | q = 1 | S = 0 | Stoichiometry = C18H23ClN3Pd(1+) | MND = 4
 OpenBabel04212202013D

 46 50  0  0  1  0  0  0  0  0999 V2000
    7.6591    2.0006    1.4921 Pd  0  0  1  0  0  0  0  0  0  0  0  0
    9.4408    2.9199    1.1840 N   0  0  0  0  0  4  0  0  0  0  0  0
   10.1863    2.4479    1.7080 H   0  0  0  0  0  0  0  0  0  0  0  0
    6.8870    3.9194    1.5630 N   0  0  1  0  0  4  0  0  0  0  0  0
    5.7848    1.2281    1.7899 N   0  0  0  0  0  0  0  0  0  0  0  0
    8.7835    0.0664    1.5986 Cl  0  0  0  0  0  0  0  0  0  0  0  0
    9.8039    2.8157   -0.2495 C   0  0  0  0  0  0  0  0  0  0  0  0
    9.0411    3.3197   -0.8544 H   0  0  0  0  0  0  0  0  0  0  0  0
    9.8058    1.7466   -0.5020 H   0  0  0  0  0  0  0  0  0  0  0  0
   11.1668    3.4073   -0.5133 C   0  0  0  0  0  0  0  0  0  0  0  0
   11.3107    4.6217   -1.1710 C   0  0  0  0  0  0  0  0  0  0  0  0
   10.4381    5.1442   -1.5382 H   0  0  0  0  0  0  0  0  0  0  0  0
   12.5702    5.1586   -1.3784 C   0  0  0  0  0  0  0  0  0  0  0  0
   12.6732    6.0988   -1.8978 H   0  0  0  0  0  0  0  0  0  0  0  0
   13.6928    4.4891   -0.9226 C   0  0  0  0  0  0  0  0  0  0  0  0
   14.6737    4.9069   -1.0864 H   0  0  0  0  0  0  0  0  0  0  0  0
   13.5562    3.2778   -0.2638 C   0  0  0  0  0  0  0  0  0  0  0  0
   14.4298    2.7498    0.0851 H   0  0  0  0  0  0  0  0  0  0  0  0
   12.2990    2.7390   -0.0595 C   0  0  0  0  0  0  0  0  0  0  0  0
   12.1958    1.7852    0.4390 H   0  0  0  0  0  0  0  0  0  0  0  0
    9.2971    4.3034    1.6734 C   0  0  0  0  0  0  0  0  0  0  0  0
   10.1121    4.9356    1.2989 H   0  0  0  0  0  0  0  0  0  0  0  0
    9.3449    4.2866    2.7686 H   0  0  0  0  0  0  0  0  0  0  0  0
    7.9404    4.8747    1.2345 C   0  0  0  0  0  0  0  0  0  0  0  0
    7.7647    5.8443    1.7196 H   0  0  0  0  0  0  0  0  0  0  0  0
    7.9261    5.0279    0.1513 H   0  0  0  0  0  0  0  0  0  0  0  0
    5.5713    4.0247    0.9202 C   0  0  0  0  0  0  0  0  0  0  0  0
    5.4629    3.4200    0.0145 H   0  0  0  0  0  0  0  0  0  0  0  0
    5.2841    5.0604    0.7155 H   0  0  0  0  0  0  0  0  0  0  0  0
    6.2563    3.9313    2.8967 C   0  0  0  0  0  0  0  0  0  0  0  0
    6.1879    4.9418    3.3132 H   0  0  0  0  0  0  0  0  0  0  0  0
    6.7051    3.2526    3.6372 H   0  0  0  0  0  0  0  0  0  0  0  0
    4.9249    3.5015    2.2296 C   0  0  1  0  0  0  0  0  0  0  0  0
    3.6992    4.2684    2.6958 C   0  0  0  0  0  0  0  0  0  0  0  0
    2.8605    4.1067    2.0237 H   0  0  0  0  0  0  0  0  0  0  0  0
    3.9132    5.3345    2.7075 H   0  0  0  0  0  0  0  0  0  0  0  0
    3.4175    3.9744    3.7037 H   0  0  0  0  0  0  0  0  0  0  0  0
    4.7437    1.9926    2.1808 C   0  0  1  0  0  3  0  0  0  0  0  0
    3.5188    1.4099    2.4831 C   0  0  0  0  0  0  0  0  0  0  0  0
    2.6918    2.0155    2.8091 H   0  0  0  0  0  0  0  0  0  0  0  0
    3.3486    0.0391    2.3667 C   0  0  0  0  0  0  0  0  0  0  0  0
    2.3988   -0.4124    2.6062 H   0  0  0  0  0  0  0  0  0  0  0  0
    4.4148   -0.7253    1.9300 C   0  0  0  0  0  0  0  0  0  0  0  0
    4.3324   -1.7922    1.8059 H   0  0  0  0  0  0  0  0  0  0  0  0
    5.6137   -0.0893    1.6574 C   0  0  0  0  0  0  0  0  0  0  0  0
    6.4744   -0.6594    1.3273 H   0  0  0  0  0  0  0  0  0  0  0  0
  1  4  1  0  0  0  0
  1  6  1  1  0  0  0
  1  5  1  0  0  0  0
  2  1  1  0  0  0  0
  2 21  1  0  0  0  0
  2  3  1  0  0  0  0
  4 27  1  6  0  0  0
  4 30  1  0  0  0  0
  5 38  1  0  0  0  0
  7  2  1  0  0  0  0
  8  7  1  0  0  0  0
  9  7  1  0  0  0  0
 10  7  1  0  0  0  0
 10 19  1  0  0  0  0
 11 10  2  0  0  0  0
 12 11  1  0  0  0  0
 13 11  1  0  0  0  0
 13 15  2  0  0  0  0
 14 13  1  0  0  0  0
 15 17  1  0  0  0  0
 16 15  1  0  0  0  0
 17 19  2  0  0  0  0
 17 18  1  0  0  0  0
 19 20  1  0  0  0  0
 21 23  1  0  0  0  0
 22 21  1  0  0  0  0
 24  4  1  0  0  0  0
 24 21  1  0  0  0  0
 24 25  1  0  0  0  0
 26 24  1  0  0  0  0
 27 33  1  0  0  0  0
 28 27  1  0  0  0  0
 29 27  1  0  0  0  0
 30 31  1  0  0  0  0
 30 32  1  0  0  0  0
 33 34  1  1  0  0  0
 33 30  1  0  0  0  0
 34 36  1  0  0  0  0
 34 37  1  0  0  0  0
 35 34  1  0  0  0  0
 38 33  1  0  0  0  0
 38 39  1  6  0  0  0
 39 40  1  0  0  0  0
 41 39  2  0  0  0  0
 41 42  1  0  0  0  0
 43 41  1  0  0  0  0
 44 43  1  0  0  0  0
 45  5  1  0  0  0  0
 45 43  2  0  0  0  0
 46 45  1  0  0  0  0
M  END
$$$$
