CSD_code = BOCLOU | q = 0 | S = 0 | Stoichiometry = C24H33Cl2NP3Re | MND = 6
 OpenBabel04212202013D

 64 66  0  0  0  0  0  0  0  0999 V2000
   11.1294    0.5818   17.6382 Re  0  0  0  0  0  0  0  0  0  0  0  0
   13.4263    1.2580   17.3282 Cl  0  0  0  0  0  0  0  0  0  0  0  0
   11.8842   -1.1039   19.1169 Cl  0  0  0  0  0  0  0  0  0  0  0  0
    9.4235    0.3068   17.6999 N   0  0  0  0  0  1  0  0  0  0  0  0
   11.5172   -1.2205   16.0563 P   0  0  0  0  0  4  0  0  0  0  0  0
   11.0795    2.4293   16.0374 P   0  0  0  0  0  4  0  0  0  0  0  0
   11.1440    1.8295   19.7289 P   0  0  0  0  0  4  0  0  0  0  0  0
   10.9391   -0.9689   14.3522 C   0  0  0  0  0  0  0  0  0  0  0  0
    9.6676   -0.4112   14.2359 C   0  0  0  0  0  0  0  0  0  0  0  0
    9.1346   -0.1452   12.9900 C   0  0  0  0  0  0  0  0  0  0  0  0
    9.8718   -0.4331   11.8504 C   0  0  0  0  0  0  0  0  0  0  0  0
   11.1358   -0.9872   11.9626 C   0  0  0  0  0  0  0  0  0  0  0  0
   11.6746   -1.2550   13.2108 C   0  0  0  0  0  0  0  0  0  0  0  0
   13.2326   -1.8112   15.9471 C   0  0  0  0  0  0  0  0  0  0  0  0
   10.5926   -2.7267   16.5142 C   0  0  0  0  0  0  0  0  0  0  0  0
    9.4747    2.9750   15.3510 C   0  0  0  0  0  0  0  0  0  0  0  0
    8.2995    2.4054   15.8218 C   0  0  0  0  0  0  0  0  0  0  0  0
    7.0755    2.8044   15.3153 C   0  0  0  0  0  0  0  0  0  0  0  0
    7.0169    3.7759   14.3301 C   0  0  0  0  0  0  0  0  0  0  0  0
    8.1864    4.3445   13.8524 C   0  0  0  0  0  0  0  0  0  0  0  0
    9.4102    3.9476   14.3592 C   0  0  0  0  0  0  0  0  0  0  0  0
   12.0552    2.1797   14.5049 C   0  0  0  0  0  0  0  0  0  0  0  0
   11.7509    4.0171   16.6540 C   0  0  0  0  0  0  0  0  0  0  0  0
   10.3787    3.4779   19.7565 C   0  0  0  0  0  0  0  0  0  0  0  0
   10.9427    4.6076   20.3322 C   0  0  0  0  0  0  0  0  0  0  0  0
   10.2683    5.8168   20.2738 C   0  0  0  0  0  0  0  0  0  0  0  0
    9.0393    5.9028   19.6423 C   0  0  0  0  0  0  0  0  0  0  0  0
    8.4746    4.7755   19.0629 C   0  0  0  0  0  0  0  0  0  0  0  0
    9.1432    3.5687   19.1186 C   0  0  0  0  0  0  0  0  0  0  0  0
   12.7733    2.0031   20.5151 C   0  0  0  0  0  0  0  0  0  0  0  0
   10.1581    0.9859   21.0147 C   0  0  0  0  0  0  0  0  0  0  0  0
    9.1271   -0.1759   15.1449 H   0  0  0  0  0  0  0  0  0  0  0  0
    8.1525    0.2960   12.9060 H   0  0  0  0  0  0  0  0  0  0  0  0
    9.4630   -0.2206   10.8734 H   0  0  0  0  0  0  0  0  0  0  0  0
   11.7089   -1.2082   11.0736 H   0  0  0  0  0  0  0  0  0  0  0  0
   12.6656   -1.6782   13.2862 H   0  0  0  0  0  0  0  0  0  0  0  0
   13.8669   -1.0466   15.4996 H   0  0  0  0  0  0  0  0  0  0  0  0
   13.2744   -2.7341   15.3684 H   0  0  0  0  0  0  0  0  0  0  0  0
   13.5765   -1.9998   16.9657 H   0  0  0  0  0  0  0  0  0  0  0  0
    9.5390   -2.4638   16.6005 H   0  0  0  0  0  0  0  0  0  0  0  0
   10.9486   -3.0750   17.4828 H   0  0  0  0  0  0  0  0  0  0  0  0
   10.7352   -3.4932   15.7524 H   0  0  0  0  0  0  0  0  0  0  0  0
    8.3721    1.6345   16.5825 H   0  0  0  0  0  0  0  0  0  0  0  0
    6.1668    2.3546   15.6873 H   0  0  0  0  0  0  0  0  0  0  0  0
    6.0632    4.0895   13.9309 H   0  0  0  0  0  0  0  0  0  0  0  0
    8.1442    5.1001   13.0810 H   0  0  0  0  0  0  0  0  0  0  0  0
   10.3133    4.3986   13.9731 H   0  0  0  0  0  0  0  0  0  0  0  0
   11.4733    1.5986   13.7921 H   0  0  0  0  0  0  0  0  0  0  0  0
   12.9724    1.6471   14.7488 H   0  0  0  0  0  0  0  0  0  0  0  0
   12.3126    3.1461   14.0735 H   0  0  0  0  0  0  0  0  0  0  0  0
   11.1323    4.3788   17.4733 H   0  0  0  0  0  0  0  0  0  0  0  0
   11.7509    4.7487   15.8467 H   0  0  0  0  0  0  0  0  0  0  0  0
   12.7688    3.8577   17.0057 H   0  0  0  0  0  0  0  0  0  0  0  0
   11.9049    4.5552   20.8202 H   0  0  0  0  0  0  0  0  0  0  0  0
   10.7083    6.6965   20.7212 H   0  0  0  0  0  0  0  0  0  0  0  0
    8.5233    6.8506   19.5967 H   0  0  0  0  0  0  0  0  0  0  0  0
    7.5204    4.8420   18.5617 H   0  0  0  0  0  0  0  0  0  0  0  0
    8.7422    2.6758   18.6550 H   0  0  0  0  0  0  0  0  0  0  0  0
   13.4057    2.6660   19.9254 H   0  0  0  0  0  0  0  0  0  0  0  0
   13.2304    1.0124   20.5401 H   0  0  0  0  0  0  0  0  0  0  0  0
   12.6592    2.3808   21.5314 H   0  0  0  0  0  0  0  0  0  0  0  0
    9.1538    0.8273   20.6235 H   0  0  0  0  0  0  0  0  0  0  0  0
   10.1258    1.5992   21.9153 H   0  0  0  0  0  0  0  0  0  0  0  0
   10.6104    0.0176   21.2242 H   0  0  0  0  0  0  0  0  0  0  0  0
  1  4  1  0  0  0  0
  1  3  1  0  0  0  0
  1  7  1  0  0  0  0
  2  1  1  0  0  0  0
  5 15  1  0  0  0  0
  5  1  1  0  0  0  0
  6 23  1  0  0  0  0
  6  1  1  0  0  0  0
  7 24  1  0  0  0  0
  7 30  1  0  0  0  0
  7 31  1  0  0  0  0
  8  5  1  0  0  0  0
  9  8  1  0  0  0  0
  9 32  1  0  0  0  0
 10  9  2  0  0  0  0
 11 12  2  0  0  0  0
 11 10  1  0  0  0  0
 12 13  1  0  0  0  0
 13 36  1  0  0  0  0
 13  8  2  0  0  0  0
 14  5  1  0  0  0  0
 14 39  1  0  0  0  0
 15 40  1  0  0  0  0
 15 41  1  0  0  0  0
 16 17  1  0  0  0  0
 16  6  1  0  0  0  0
 17 43  1  0  0  0  0
 18 44  1  0  0  0  0
 18 17  2  0  0  0  0
 19 18  1  0  0  0  0
 20 19  2  0  0  0  0
 20 21  1  0  0  0  0
 21 16  2  0  0  0  0
 22 49  1  0  0  0  0
 22  6  1  0  0  0  0
 23 53  1  0  0  0  0
 23 51  1  0  0  0  0
 24 25  1  0  0  0  0
 25 54  1  0  0  0  0
 26 25  2  0  0  0  0
 26 55  1  0  0  0  0
 27 26  1  0  0  0  0
 28 29  1  0  0  0  0
 28 27  2  0  0  0  0
 29 24  2  0  0  0  0
 30 60  1  0  0  0  0
 30 61  1  0  0  0  0
 31 64  1  0  0  0  0
 31 63  1  0  0  0  0
 33 10  1  0  0  0  0
 34 11  1  0  0  0  0
 35 12  1  0  0  0  0
 37 14  1  0  0  0  0
 38 14  1  0  0  0  0
 42 15  1  0  0  0  0
 45 19  1  0  0  0  0
 46 20  1  0  0  0  0
 47 21  1  0  0  0  0
 48 22  1  0  0  0  0
 50 22  1  0  0  0  0
 52 23  1  0  0  0  0
 56 27  1  0  0  0  0
 57 28  1  0  0  0  0
 58 29  1  0  0  0  0
 59 30  1  0  0  0  0
 62 31  1  0  0  0  0
M  END
$$$$
