CSD_code = BOCXIC | q = 0 | S = 0 | Stoichiometry = C20H21Cl2HgN3 | MND = 4
 OpenBabel04212202013D

 47 49  0  0  1  0  0  0  0  0999 V2000
    4.1347    4.1462   23.8429 C   0  0  2  0  0  3  0  0  0  0  0  0
    3.0685    4.8253   23.2163 C   0  0  0  0  0  0  0  0  0  0  0  0
    2.8237    4.5649   22.1900 H   0  0  0  0  0  0  0  0  0  0  0  0
    2.3671    5.7849   23.8909 C   0  0  0  0  0  0  0  0  0  0  0  0
    1.5508    6.2991   23.4067 H   0  0  0  0  0  0  0  0  0  0  0  0
    2.6964    6.1127   25.2167 C   0  0  0  0  0  0  0  0  0  0  0  0
    2.1287    6.8741   25.7301 H   0  0  0  0  0  0  0  0  0  0  0  0
    3.7259    5.4744   25.8523 C   0  0  0  0  0  0  0  0  0  0  0  0
    3.9860    5.7202   26.8717 H   0  0  0  0  0  0  0  0  0  0  0  0
    4.4676    4.4801   25.1871 C   0  0  0  0  0  0  0  0  0  0  0  0
    5.5373    3.7818   25.7868 C   0  0  0  0  0  0  0  0  0  0  0  0
    5.8132    4.0096   26.8067 H   0  0  0  0  0  0  0  0  0  0  0  0
    6.2033    2.8316   25.0700 C   0  0  0  0  0  0  0  0  0  0  0  0
    7.0244    2.2792   25.5012 H   0  0  0  0  0  0  0  0  0  0  0  0
    5.8125    2.5576   23.7356 C   0  0  0  0  0  0  0  0  0  0  0  0
    6.5325    1.5492   22.9896 C   0  0  0  0  0  0  0  0  0  0  0  0
    6.8848    0.3023   21.0296 C   0  0  0  0  0  0  0  0  0  0  0  0
    8.0953   -0.3225   21.3759 C   0  0  0  0  0  0  0  0  0  0  0  0
    8.5932   -0.0739   22.3009 H   0  0  0  0  0  0  0  0  0  0  0  0
    8.6916   -1.2319   20.5418 C   0  0  0  0  0  0  0  0  0  0  0  0
    9.6321   -1.6571   20.8514 H   0  0  0  0  0  0  0  0  0  0  0  0
    8.1204   -1.5940   19.3029 C   0  0  0  0  0  0  0  0  0  0  0  0
    6.9079   -0.9598   18.9586 C   0  0  0  0  0  0  0  0  0  0  0  0
    6.4107   -1.1942   18.0329 H   0  0  0  0  0  0  0  0  0  0  0  0
    6.3233   -0.0435   19.7903 C   0  0  0  0  0  0  0  0  0  0  0  0
    5.3855    0.4240   19.4976 H   0  0  0  0  0  0  0  0  0  0  0  0
    9.8539   -3.2860   18.8934 C   0  0  0  0  0  0  0  0  0  0  0  0
    9.8168   -4.2367   18.3551 H   0  0  0  0  0  0  0  0  0  0  0  0
    9.7779   -3.5146   19.9587 H   0  0  0  0  0  0  0  0  0  0  0  0
   11.1810   -2.5875   18.5933 C   0  0  0  0  0  0  0  0  0  0  0  0
   12.0107   -3.2121   18.9133 H   0  0  0  0  0  0  0  0  0  0  0  0
   11.2397   -1.6334   19.1104 H   0  0  0  0  0  0  0  0  0  0  0  0
   11.2796   -2.4012   17.5266 H   0  0  0  0  0  0  0  0  0  0  0  0
    8.2352   -2.7426   17.1359 C   0  0  0  0  0  0  0  0  0  0  0  0
    9.0898   -3.0583   16.5317 H   0  0  0  0  0  0  0  0  0  0  0  0
    7.8607   -1.8115   16.7058 H   0  0  0  0  0  0  0  0  0  0  0  0
    7.1539   -3.8225   17.0871 C   0  0  0  0  0  0  0  0  0  0  0  0
    6.8297   -3.9764   16.0615 H   0  0  0  0  0  0  0  0  0  0  0  0
    6.2945   -3.5345   17.6863 H   0  0  0  0  0  0  0  0  0  0  0  0
    7.5376   -4.7640   17.4735 H   0  0  0  0  0  0  0  0  0  0  0  0
    4.8108    3.2034   23.1589 N   0  0  0  0  0  0  0  0  0  0  0  0
    6.2176    1.2323   21.7849 N   0  0  0  0  0  0  0  0  0  0  0  0
    8.7112   -2.4992   18.4817 N   0  0  0  0  0  0  0  0  0  0  0  0
    4.7529    3.8417   19.3238 Cl  0  0  0  0  0  0  0  0  0  0  0  0
    2.5003    0.8968   21.4805 Cl  0  0  0  0  0  0  0  0  0  0  0  0
    4.1680    2.3755   20.9735 Hg  0  0  0  0  0  0  0  0  0  0  0  0
    7.3554    1.0745   23.5262 H   0  0  0  0  0  0  0  0  0  0  0  0
  1  2  1  6  0  0  0
  1 10  1  0  0  0  0
  2  4  2  0  0  0  0
  3  2  1  0  0  0  0
  4  6  1  0  0  0  0
  5  4  1  0  0  0  0
  6  7  1  0  0  0  0
  6  8  2  0  0  0  0
  8  9  1  0  0  0  0
 10 11  2  0  0  0  0
 10  8  1  0  0  0  0
 11 12  1  0  0  0  0
 13 14  1  0  0  0  0
 13 11  1  0  0  0  0
 15 13  2  0  0  0  0
 16 47  1  0  0  0  0
 16 15  1  0  0  0  0
 17 18  1  0  0  0  0
 17 42  1  0  0  0  0
 18 19  1  0  0  0  0
 20 21  1  0  0  0  0
 20 18  2  0  0  0  0
 22 20  1  0  0  0  0
 23 22  2  0  0  0  0
 23 25  1  0  0  0  0
 24 23  1  0  0  0  0
 25 17  2  0  0  0  0
 26 25  1  0  0  0  0
 27 29  1  0  0  0  0
 28 27  1  0  0  0  0
 30 27  1  0  0  0  0
 30 31  1  0  0  0  0
 30 32  1  0  0  0  0
 33 30  1  0  0  0  0
 34 43  1  0  0  0  0
 35 34  1  0  0  0  0
 36 34  1  0  0  0  0
 37 34  1  0  0  0  0
 37 40  1  0  0  0  0
 37 39  1  0  0  0  0
 38 37  1  0  0  0  0
 41 15  1  0  0  0  0
 41  1  1  0  0  0  0
 42 16  2  0  0  0  0
 43 27  1  0  0  0  0
 43 22  1  0  0  0  0
 44 46  1  0  0  0  0
 46 45  1  0  0  0  0
 46 41  1  0  0  0  0
M  END
$$$$
