CSD_code = BODRER | q = 0 | S = 0 | Stoichiometry = C7H19Cl3P2Ti | MND = 6
 OpenBabel04212202013D

 32 32  0  0  0  0  0  0  0  0999 V2000
    5.8202    2.8243   10.9515 Ti  0  0  0  0  0  0  0  0  0  0  0  0
    6.4184    4.7280   10.1071 Cl  0  0  0  0  0  0  0  0  0  0  0  0
    3.9543    3.5342   12.0130 Cl  0  0  0  0  0  0  0  0  0  0  0  0
    7.0100    1.4656    9.6014 Cl  0  0  0  0  0  0  0  0  0  0  0  0
    4.6838    0.5930   11.5953 P   0  0  0  0  0  4  0  0  0  0  0  0
    4.1125    2.4903    8.9578 P   0  0  0  0  0  4  0  0  0  0  0  0
    7.0813    2.7093   12.5918 C   0  0  0  0  0  0  0  0  0  0  0  0
    5.4907   -1.0352   11.3228 C   0  0  0  0  0  0  0  0  0  0  0  0
    3.9603    0.3444   13.2620 C   0  0  0  0  0  0  0  0  0  0  0  0
    3.1620    0.4258   10.5524 C   0  0  0  0  0  0  0  0  0  0  0  0
    3.4772    0.7515    9.0950 C   0  0  0  0  0  0  0  0  0  0  0  0
    2.5424    3.4369    8.8284 C   0  0  0  0  0  0  0  0  0  0  0  0
    4.6592    2.4955    7.2071 C   0  0  0  0  0  0  0  0  0  0  0  0
    8.0994    2.9790   12.2759 H   0  0  0  0  0  0  0  0  0  0  0  0
    7.1334    1.7135   13.0524 H   0  0  0  0  0  0  0  0  0  0  0  0
    6.7684    3.4223   13.3673 H   0  0  0  0  0  0  0  0  0  0  0  0
    4.7920   -1.8530   11.4997 H   0  0  0  0  0  0  0  0  0  0  0  0
    6.3330   -1.1169   12.0098 H   0  0  0  0  0  0  0  0  0  0  0  0
    5.8808   -1.0776   10.3073 H   0  0  0  0  0  0  0  0  0  0  0  0
    3.3839    1.2299   13.5256 H   0  0  0  0  0  0  0  0  0  0  0  0
    4.7697    0.2227   13.9819 H   0  0  0  0  0  0  0  0  0  0  0  0
    3.3230   -0.5400   13.2756 H   0  0  0  0  0  0  0  0  0  0  0  0
    2.4289    1.1363   10.9491 H   0  0  0  0  0  0  0  0  0  0  0  0
    2.7640   -0.5902   10.6558 H   0  0  0  0  0  0  0  0  0  0  0  0
    4.2692    0.0923    8.7245 H   0  0  0  0  0  0  0  0  0  0  0  0
    2.5915    0.6306    8.4621 H   0  0  0  0  0  0  0  0  0  0  0  0
    2.7926    4.4734    8.6010 H   0  0  0  0  0  0  0  0  0  0  0  0
    1.9017    3.0332    8.0441 H   0  0  0  0  0  0  0  0  0  0  0  0
    2.0279    3.4158    9.7882 H   0  0  0  0  0  0  0  0  0  0  0  0
    5.5499    1.8744    7.1175 H   0  0  0  0  0  0  0  0  0  0  0  0
    4.9174    3.5180    6.9300 H   0  0  0  0  0  0  0  0  0  0  0  0
    3.8715    2.1234    6.5514 H   0  0  0  0  0  0  0  0  0  0  0  0
  1  5  1  0  0  0  0
  1  3  1  0  0  0  0
  1  7  1  0  0  0  0
  2  1  1  0  0  0  0
  4  1  1  0  0  0  0
  5  9  1  0  0  0  0
  6 11  1  0  0  0  0
  6  1  1  0  0  0  0
  7 15  1  0  0  0  0
  7 16  1  0  0  0  0
  8 17  1  0  0  0  0
  8  5  1  0  0  0  0
  8 18  1  0  0  0  0
  9 22  1  0  0  0  0
  9 20  1  0  0  0  0
  9 21  1  0  0  0  0
 10 24  1  0  0  0  0
 10 23  1  0  0  0  0
 10  5  1  0  0  0  0
 11 10  1  0  0  0  0
 12  6  1  0  0  0  0
 12 29  1  0  0  0  0
 13  6  1  0  0  0  0
 14  7  1  0  0  0  0
 19  8  1  0  0  0  0
 25 11  1  0  0  0  0
 26 11  1  0  0  0  0
 27 12  1  0  0  0  0
 28 12  1  0  0  0  0
 30 13  1  0  0  0  0
 31 13  1  0  0  0  0
 32 13  1  0  0  0  0
M  END
$$$$
