CSD_code = BODTEU | q = 1 | S = 0 | Stoichiometry = C42H33Cl2N2P2Pd(1+) | MND = 4
 OpenBabel04212202013D

 82 90  0  0  1  0  0  0  0  0999 V2000
    6.6959    3.0480    6.4805 Pd  0  0  0  0  0  0  0  0  0  0  0  0
    5.3874    2.6723    4.7031 P   0  0  0  0  0  4  0  0  0  0  0  0
    5.3694    4.6019    7.4578 P   0  0  0  0  0  4  0  0  0  0  0  0
    3.9362    2.2956    5.7362 C   0  0  1  0  0  3  0  0  0  0  0  0
    2.1751    2.5231    7.0556 C   0  0  0  0  0  0  0  0  0  0  0  0
    1.0565    2.9551    7.7530 C   0  0  0  0  0  0  0  0  0  0  0  0
    0.4359    2.0297    8.5670 C   0  0  0  0  0  0  0  0  0  0  0  0
    0.9122    0.7223    8.6871 C   0  0  0  0  0  0  0  0  0  0  0  0
    2.0265    0.2871    7.9989 C   0  0  0  0  0  0  0  0  0  0  0  0
    2.6597    1.2093    7.1759 C   0  0  0  0  0  0  0  0  0  0  0  0
    4.7013    0.0213    6.3282 C   0  0  0  0  0  0  0  0  0  0  0  0
    3.0104    4.5744    5.9206 C   0  0  0  0  0  0  0  0  0  0  0  0
    3.9961    5.3574    6.4936 C   0  0  0  0  0  0  0  0  0  0  0  0
    3.9826    6.7436    6.2428 C   0  0  0  0  0  0  0  0  0  0  0  0
    3.0143    7.3077    5.4631 C   0  0  0  0  0  0  0  0  0  0  0  0
    2.0017    6.5237    4.8747 C   0  0  0  0  0  0  0  0  0  0  0  0
    1.0096    7.0852    4.0451 C   0  0  0  0  0  0  0  0  0  0  0  0
    0.0499    6.2978    3.4730 C   0  0  0  0  0  0  0  0  0  0  0  0
    0.0371    4.9142    3.7092 C   0  0  0  0  0  0  0  0  0  0  0  0
    0.9816    4.3365    4.5110 C   0  0  0  0  0  0  0  0  0  0  0  0
    1.9875    5.1228    5.1132 C   0  0  0  0  0  0  0  0  0  0  0  0
    6.3067    6.0257    8.0668 C   0  0  0  0  0  0  0  0  0  0  0  0
    5.9854    6.7488    9.2088 C   0  0  0  0  0  0  0  0  0  0  0  0
    6.7922    7.8071    9.5926 C   0  0  0  0  0  0  0  0  0  0  0  0
    7.9088    8.1436    8.8457 C   0  0  0  0  0  0  0  0  0  0  0  0
    8.2381    7.4134    7.7127 C   0  0  0  0  0  0  0  0  0  0  0  0
    7.4436    6.3524    7.3264 C   0  0  0  0  0  0  0  0  0  0  0  0
    4.4444    3.8465    8.8249 C   0  0  0  0  0  0  0  0  0  0  0  0
    4.7658    2.5474    9.2117 C   0  0  0  0  0  0  0  0  0  0  0  0
    4.0692    1.9436   10.2430 C   0  0  0  0  0  0  0  0  0  0  0  0
    3.0505    2.6279   10.8860 C   0  0  0  0  0  0  0  0  0  0  0  0
    2.7137    3.9119   10.4877 C   0  0  0  0  0  0  0  0  0  0  0  0
    3.3995    4.5208    9.4528 C   0  0  0  0  0  0  0  0  0  0  0  0
    5.3721    1.3334    3.4816 C   0  0  0  0  0  0  0  0  0  0  0  0
    4.2036    0.6749    3.1036 C   0  0  0  0  0  0  0  0  0  0  0  0
    4.2542   -0.2800    2.1051 C   0  0  0  0  0  0  0  0  0  0  0  0
    5.4574   -0.5747    1.4816 C   0  0  0  0  0  0  0  0  0  0  0  0
    6.6171    0.0860    1.8533 C   0  0  0  0  0  0  0  0  0  0  0  0
    6.5779    1.0432    2.8514 C   0  0  0  0  0  0  0  0  0  0  0  0
    4.9198    4.1163    3.7078 C   0  0  0  0  0  0  0  0  0  0  0  0
    5.7544    5.2266    3.8036 C   0  0  0  0  0  0  0  0  0  0  0  0
    5.5028    6.3493    3.0375 C   0  0  0  0  0  0  0  0  0  0  0  0
    4.4234    6.3589    2.1682 C   0  0  0  0  0  0  0  0  0  0  0  0
    3.6066    5.2444    2.0528 C   0  0  0  0  0  0  0  0  0  0  0  0
    3.8552    4.1163    2.8119 C   0  0  0  0  0  0  0  0  0  0  0  0
    3.7673    1.1168    6.3602 N   0  0  0  0  0  0  0  0  0  0  0  0
    3.0116    3.1732    6.1708 N   0  0  0  0  0  0  0  0  0  0  0  0
    8.0835    1.3656    5.8469 Cl  0  0  0  0  0  0  0  0  0  0  0  0
    7.8889    3.3668    8.3680 Cl  0  0  0  0  0  0  0  0  0  0  0  0
    0.6916    3.9640    7.6520 H   0  0  0  0  0  0  0  0  0  0  0  0
   -0.4407    2.3204    9.1232 H   0  0  0  0  0  0  0  0  0  0  0  0
    0.3912    0.0338    9.3329 H   0  0  0  0  0  0  0  0  0  0  0  0
    2.3797   -0.7265    8.0924 H   0  0  0  0  0  0  0  0  0  0  0  0
    4.5424   -0.5995    7.2075 H   0  0  0  0  0  0  0  0  0  0  0  0
    5.7350    0.4115    6.3456 H   0  0  0  0  0  0  0  0  0  0  0  0
    4.5741   -0.5880    5.4321 H   0  0  0  0  0  0  0  0  0  0  0  0
    4.7547    7.3565    6.6838 H   0  0  0  0  0  0  0  0  0  0  0  0
    3.0158    8.3719    5.2818 H   0  0  0  0  0  0  0  0  0  0  0  0
    1.0254    8.1502    3.8704 H   0  0  0  0  0  0  0  0  0  0  0  0
   -0.7053    6.7327    2.8371 H   0  0  0  0  0  0  0  0  0  0  0  0
   -0.7282    4.3061    3.2519 H   0  0  0  0  0  0  0  0  0  0  0  0
    0.9602    3.2710    4.6886 H   0  0  0  0  0  0  0  0  0  0  0  0
    5.1289    6.4758    9.8071 H   0  0  0  0  0  0  0  0  0  0  0  0
    6.5522    8.3636   10.4857 H   0  0  0  0  0  0  0  0  0  0  0  0
    8.5361    8.9648    9.1564 H   0  0  0  0  0  0  0  0  0  0  0  0
    9.1229    7.6617    7.1470 H   0  0  0  0  0  0  0  0  0  0  0  0
    7.7226    5.7341    6.4699 H   0  0  0  0  0  0  0  0  0  0  0  0
    5.5856    2.0225    8.7158 H   0  0  0  0  0  0  0  0  0  0  0  0
    4.3273    0.9427   10.5539 H   0  0  0  0  0  0  0  0  0  0  0  0
    2.5174    2.1606   11.6994 H   0  0  0  0  0  0  0  0  0  0  0  0
    1.9158    4.4407   10.9867 H   0  0  0  0  0  0  0  0  0  0  0  0
    3.1223    5.5139    9.1248 H   0  0  0  0  0  0  0  0  0  0  0  0
    3.2620    0.9021    3.5885 H   0  0  0  0  0  0  0  0  0  0  0  0
    3.3523   -0.7960    1.8118 H   0  0  0  0  0  0  0  0  0  0  0  0
    5.4878   -1.3234    0.7053 H   0  0  0  0  0  0  0  0  0  0  0  0
    7.5522   -0.1468    1.3688 H   0  0  0  0  0  0  0  0  0  0  0  0
    7.4773    1.5528    3.1682 H   0  0  0  0  0  0  0  0  0  0  0  0
    6.6068    5.1875    4.4829 H   0  0  0  0  0  0  0  0  0  0  0  0
    6.1488    7.2105    3.1102 H   0  0  0  0  0  0  0  0  0  0  0  0
    4.2250    7.2327    1.5672 H   0  0  0  0  0  0  0  0  0  0  0  0
    2.7758    5.2527    1.3642 H   0  0  0  0  0  0  0  0  0  0  0  0
    3.2283    3.2427    2.7092 H   0  0  0  0  0  0  0  0  0  0  0  0
  1  3  1  0  0  0  0
  1 49  1  0  0  0  0
  2  4  1  0  0  0  0
  2  1  1  0  0  0  0
  3 22  1  0  0  0  0
  3 28  1  0  0  0  0
  4 47  1  1  0  0  0
  4 46  1  0  0  0  0
  5 10  2  0  0  0  0
  5  6  1  0  0  0  0
  6  7  2  0  0  0  0
  7  8  1  0  0  0  0
  7 51  1  0  0  0  0
  8 52  1  0  0  0  0
  9 53  1  0  0  0  0
  9  8  2  0  0  0  0
 10  9  1  0  0  0  0
 11 55  1  0  0  0  0
 11 46  1  0  0  0  0
 11 54  1  0  0  0  0
 12 47  1  0  0  0  0
 12 13  1  0  0  0  0
 13  3  1  0  0  0  0
 14 13  2  0  0  0  0
 14 57  1  0  0  0  0
 15 14  1  0  0  0  0
 16 21  1  0  0  0  0
 16 15  2  0  0  0  0
 17 16  1  0  0  0  0
 18 19  1  0  0  0  0
 18 17  2  0  0  0  0
 19 20  2  0  0  0  0
 20 62  1  0  0  0  0
 20 21  1  0  0  0  0
 21 12  2  0  0  0  0
 22 23  1  0  0  0  0
 23 24  2  0  0  0  0
 23 63  1  0  0  0  0
 24 64  1  0  0  0  0
 25 65  1  0  0  0  0
 25 24  1  0  0  0  0
 26 25  2  0  0  0  0
 27 26  1  0  0  0  0
 27 22  2  0  0  0  0
 28 29  2  0  0  0  0
 28 33  1  0  0  0  0
 29 30  1  0  0  0  0
 30 69  1  0  0  0  0
 30 31  2  0  0  0  0
 31 70  1  0  0  0  0
 32 31  1  0  0  0  0
 32 71  1  0  0  0  0
 33 32  2  0  0  0  0
 34  2  1  0  0  0  0
 35 34  1  0  0  0  0
 35 73  1  0  0  0  0
 36 35  2  0  0  0  0
 37 38  2  0  0  0  0
 37 36  1  0  0  0  0
 38 39  1  0  0  0  0
 39 77  1  0  0  0  0
 39 34  2  0  0  0  0
 40 41  1  0  0  0  0
 40  2  1  0  0  0  0
 41 78  1  0  0  0  0
 42 79  1  0  0  0  0
 42 41  2  0  0  0  0
 43 42  1  0  0  0  0
 44 43  2  0  0  0  0
 44 45  1  0  0  0  0
 45 40  2  0  0  0  0
 46 10  1  0  0  0  0
 47  5  1  0  0  0  0
 48  1  1  0  0  0  0
 50  6  1  0  0  0  0
 56 11  1  0  0  0  0
 58 15  1  0  0  0  0
 59 17  1  0  0  0  0
 60 18  1  0  0  0  0
 61 19  1  0  0  0  0
 66 26  1  0  0  0  0
 67 27  1  0  0  0  0
 68 29  1  0  0  0  0
 72 33  1  0  0  0  0
 74 36  1  0  0  0  0
 75 37  1  0  0  0  0
 76 38  1  0  0  0  0
 80 43  1  0  0  0  0
 81 44  1  0  0  0  0
 82 45  1  0  0  0  0
M  END
$$$$
