CSD_code = BODZOM | q = 0 | S = 0 | Stoichiometry = C25H38IN2O2Rh | MND = 6
 OpenBabel04212202013D

 69 70  0  0  1  0  0  0  0  0999 V2000
    5.3742    7.5797    4.7576 Rh  0  0  0  0  0  0  0  0  0  0  0  0
    3.8648    7.8676    2.6272 I   0  0  0  0  0 15  0  0  0  0  0  0
    7.5038    6.9408    2.7602 N   0  0  0  0  0  0  0  0  0  0  0  0
    7.8401    8.3294    2.5979 C   0  0  0  0  0  0  0  0  0  0  0  0
    7.1507    8.9203    3.2123 H   0  0  0  0  0  0  0  0  0  0  0  0
    7.7278    8.6185    1.5530 H   0  0  0  0  0  0  0  0  0  0  0  0
    8.8696    8.5175    2.9054 H   0  0  0  0  0  0  0  0  0  0  0  0
    6.5258    6.4892    3.5711 C   0  0  0  0  0  3  0  0  0  0  0  0
    6.4210    5.1588    3.3755 N   0  0  0  0  0  0  0  0  0  0  0  0
    5.4175    4.3322    3.9898 C   0  0  0  0  0  0  0  0  0  0  0  0
    4.7559    4.9815    4.5770 H   0  0  0  0  0  0  0  0  0  0  0  0
    5.8755    3.5852    4.6400 H   0  0  0  0  0  0  0  0  0  0  0  0
    4.8349    3.8216    3.2231 H   0  0  0  0  0  0  0  0  0  0  0  0
    7.3392    4.7487    2.4343 C   0  0  0  0  0  0  0  0  0  0  0  0
    7.6225    3.4887    1.8900 C   0  0  0  0  0  0  0  0  0  0  0  0
    6.8993    2.4260    2.3424 O   0  0  0  0  0  0  0  0  0  0  0  0
    7.1478    1.1530    1.7821 C   0  0  0  0  0  0  0  0  0  0  0  0
    8.1955    0.8650    1.9472 H   0  0  0  0  0  0  0  0  0  0  0  0
    6.9547    1.1761    0.7007 H   0  0  0  0  0  0  0  0  0  0  0  0
    6.2164    0.1549    2.4622 C   0  0  0  0  0  0  0  0  0  0  0  0
    6.2882   -0.8000    1.9387 H   0  0  0  0  0  0  0  0  0  0  0  0
    5.1920    0.5196    2.3709 H   0  0  0  0  0  0  0  0  0  0  0  0
    6.5608   -0.0334    3.9379 C   0  0  0  0  0  0  0  0  0  0  0  0
    6.5272    0.9381    4.4334 H   0  0  0  0  0  0  0  0  0  0  0  0
    7.5800   -0.4178    4.0238 H   0  0  0  0  0  0  0  0  0  0  0  0
    5.5963   -0.9917    4.6240 C   0  0  0  0  0  0  0  0  0  0  0  0
    4.5782   -0.6129    4.5692 H   0  0  0  0  0  0  0  0  0  0  0  0
    5.8611   -1.1150    5.6713 H   0  0  0  0  0  0  0  0  0  0  0  0
    5.6240   -1.9685    4.1459 H   0  0  0  0  0  0  0  0  0  0  0  0
    8.6262    3.4516    0.9397 C   0  0  0  0  0  0  0  0  0  0  0  0
    8.8958    2.5191    0.4718 H   0  0  0  0  0  0  0  0  0  0  0  0
    9.3249    4.5968    0.5472 C   0  0  0  0  0  0  0  0  0  0  0  0
   10.0934    4.4799   -0.1989 H   0  0  0  0  0  0  0  0  0  0  0  0
    9.0575    5.8438    1.0812 C   0  0  0  0  0  0  0  0  0  0  0  0
    9.6942    7.0089    0.7699 O   0  0  0  0  0  0  0  0  0  0  0  0
   10.7043    6.9813   -0.2170 C   0  0  0  0  0  0  0  0  0  0  0  0
   10.2957    6.6113   -1.1674 H   0  0  0  0  0  0  0  0  0  0  0  0
   11.5212    6.3153    0.0955 H   0  0  0  0  0  0  0  0  0  0  0  0
   11.2232    8.4048   -0.3863 C   0  0  0  0  0  0  0  0  0  0  0  0
   11.5893    8.7599    0.5788 H   0  0  0  0  0  0  0  0  0  0  0  0
   10.3921    9.0463   -0.6836 H   0  0  0  0  0  0  0  0  0  0  0  0
   12.3379    8.4819   -1.4252 C   0  0  0  0  0  0  0  0  0  0  0  0
   11.9639    8.1165   -2.3842 H   0  0  0  0  0  0  0  0  0  0  0  0
   13.1616    7.8316   -1.1213 H   0  0  0  0  0  0  0  0  0  0  0  0
   12.8505    9.9071   -1.5901 C   0  0  0  0  0  0  0  0  0  0  0  0
   12.0475   10.5658   -1.9127 H   0  0  0  0  0  0  0  0  0  0  0  0
   13.6441    9.9436   -2.3323 H   0  0  0  0  0  0  0  0  0  0  0  0
   13.2436   10.2827   -0.6480 H   0  0  0  0  0  0  0  0  0  0  0  0
    8.0361    5.8951    2.0392 C   0  0  0  0  0  0  0  0  0  0  0  0
    6.9898    7.9491    6.0736 C   0  0  2  0  0  0  0  0  0  0  0  0
    7.9496    7.7346    5.5991 H   0  0  0  0  0  0  0  0  0  0  0  0
    6.2614    6.8560    6.5556 C   0  0  0  0  0  3  0  0  0  0  0  0
    6.6939    5.8684    6.3896 H   0  0  0  0  0  0  0  0  0  0  0  0
    5.3479    6.9349    7.7613 C   0  0  0  0  0  0  0  0  0  0  0  0
    5.7374    7.6823    8.4550 H   0  0  0  0  0  0  0  0  0  0  0  0
    5.3631    5.9752    8.2834 H   0  0  0  0  0  0  0  0  0  0  0  0
    3.8932    7.2650    7.3755 C   0  0  0  0  0  0  0  0  0  0  0  0
    3.3485    6.3308    7.2100 H   0  0  0  0  0  0  0  0  0  0  0  0
    3.3935    7.7849    8.2008 H   0  0  0  0  0  0  0  0  0  0  0  0
    3.7805    8.1020    6.1218 C   0  0  0  0  0  3  0  0  0  0  0  0
    2.8343    7.9676    5.5964 H   0  0  0  0  0  0  0  0  0  0  0  0
    4.5089    9.2452    5.8686 C   0  0  0  0  0  3  0  0  0  0  0  0
    4.1219    9.9435    5.1256 H   0  0  0  0  0  0  0  0  0  0  0  0
    5.4804    9.8501    6.8577 C   0  0  0  0  0  0  0  0  0  0  0  0
    5.1440    9.6250    7.8712 H   0  0  0  0  0  0  0  0  0  0  0  0
    5.4674   10.9369    6.7489 H   0  0  0  0  0  0  0  0  0  0  0  0
    6.9207    9.3471    6.6448 C   0  0  0  0  0  0  0  0  0  0  0  0
    7.4343   10.0212    5.9527 H   0  0  0  0  0  0  0  0  0  0  0  0
    7.4738    9.3785    7.5910 H   0  0  0  0  0  0  0  0  0  0  0  0
  1 50  1  0  0  0  0
  3  8  1  0  0  0  0
  4  3  1  0  0  0  0
  4  7  1  0  0  0  0
  4  5  1  0  0  0  0
  6  4  1  0  0  0  0
  8  1  1  0  0  0  0
  9  8  1  0  0  0  0
  9 10  1  0  0  0  0
 10 11  1  0  0  0  0
 10 12  1  0  0  0  0
 13 10  1  0  0  0  0
 14  9  1  0  0  0  0
 15 16  1  0  0  0  0
 15 14  2  0  0  0  0
 17 18  1  0  0  0  0
 17 16  1  0  0  0  0
 17 20  1  0  0  0  0
 19 17  1  0  0  0  0
 20 23  1  0  0  0  0
 21 20  1  0  0  0  0
 22 20  1  0  0  0  0
 23 25  1  0  0  0  0
 23 24  1  0  0  0  0
 23 26  1  0  0  0  0
 26 28  1  0  0  0  0
 27 26  1  0  0  0  0
 29 26  1  0  0  0  0
 30 15  1  0  0  0  0
 31 30  1  0  0  0  0
 32 30  2  0  0  0  0
 32 34  1  0  0  0  0
 33 32  1  0  0  0  0
 34 49  2  0  0  0  0
 35 34  1  0  0  0  0
 36 38  1  0  0  0  0
 36 35  1  0  0  0  0
 37 36  1  0  0  0  0
 39 36  1  0  0  0  0
 39 40  1  0  0  0  0
 41 39  1  0  0  0  0
 42 44  1  0  0  0  0
 42 39  1  0  0  0  0
 43 42  1  0  0  0  0
 45 42  1  0  0  0  0
 45 48  1  0  0  0  0
 46 45  1  0  0  0  0
 47 45  1  0  0  0  0
 49 14  1  0  0  0  0
 49  3  1  0  0  0  0
 50 51  1  6  0  0  0
 50 52  1  0  0  0  0
 50 67  1  0  0  0  0
 52 54  1  0  0  0  0
 53 52  1  0  0  0  0
 54 56  1  0  0  0  0
 54 55  1  0  0  0  0
 57 54  1  0  0  0  0
 57 59  1  0  0  0  0
 58 57  1  0  0  0  0
 60 57  1  0  0  0  0
 61 60  1  0  0  0  0
 62 60  1  0  0  0  0
 62 64  1  0  0  0  0
 63 62  1  0  0  0  0
 64 65  1  0  0  0  0
 66 64  1  0  0  0  0
 67 64  1  0  0  0  0
 67 69  1  0  0  0  0
 68 67  1  0  0  0  0
M  END
$$$$
