CSD_code = BOFHUA | q = 0 | S = 0 | Stoichiometry = C21H18BrN2O3Re | MND = 6
 OpenBabel04212202013D

 46 49  0  0  1  0  0  0  0  0999 V2000
    5.7711    7.2742    7.8320 Re  0  0  0  0  0  0  0  0  0  0  0  0
    7.5198    7.2924    9.7620 Br  0  0  0  0  0  0  0  0  0  0  0  0
    5.9975   10.3627    7.7880 O   0  0  0  0  0  1  0  0  0  0  0  0
    8.1921    7.0231    5.9169 O   0  0  0  0  0  1  0  0  0  0  0  0
    3.6479    7.0836    5.5925 O   0  0  0  0  0  1  0  0  0  0  0  0
    4.3185    7.3235    9.3465 N   0  0  0  0  0  0  0  0  0  0  0  0
    5.7472    5.2099    8.1955 N   0  0  0  0  0  0  0  0  0  0  0  0
    3.0978    6.7019    9.8978 C   0  0  0  0  0  0  0  0  0  0  0  0
    2.1743    6.8589    9.3504 H   0  0  0  0  0  0  0  0  0  0  0  0
    3.1984    5.7263   10.3612 H   0  0  0  0  0  0  0  0  0  0  0  0
    3.8545    7.8398   10.4120 C   0  0  2  0  0  3  0  0  0  0  0  0
    3.9977    8.8471   11.3892 C   0  0  0  0  0  0  0  0  0  0  0  0
    5.1024    9.7087   11.3698 C   0  0  0  0  0  0  0  0  0  0  0  0
    5.8600    9.5907   10.6115 H   0  0  0  0  0  0  0  0  0  0  0  0
    5.2265   10.6847   12.3334 C   0  0  0  0  0  0  0  0  0  0  0  0
    6.0843   11.3403   12.3169 H   0  0  0  0  0  0  0  0  0  0  0  0
    4.2661   10.8352   13.3306 C   0  0  0  0  0  0  0  0  0  0  0  0
    3.1683    9.9750   13.3441 C   0  0  0  0  0  0  0  0  0  0  0  0
    2.4202   10.0840   14.1161 H   0  0  0  0  0  0  0  0  0  0  0  0
    3.0298    8.9901   12.3929 C   0  0  0  0  0  0  0  0  0  0  0  0
    2.1792    8.3240   12.4086 H   0  0  0  0  0  0  0  0  0  0  0  0
    4.3930   11.9092   14.3618 C   0  0  0  0  0  0  0  0  0  0  0  0
    5.4206   12.2534   14.4424 H   0  0  0  0  0  0  0  0  0  0  0  0
    4.0581   11.5544   15.3341 H   0  0  0  0  0  0  0  0  0  0  0  0
    3.7699   12.7606   14.0855 H   0  0  0  0  0  0  0  0  0  0  0  0
    5.7659    4.2012    9.2774 C   0  0  0  0  0  0  0  0  0  0  0  0
    6.5355    4.2986   10.0354 H   0  0  0  0  0  0  0  0  0  0  0  0
    4.8034    3.8483    9.6354 H   0  0  0  0  0  0  0  0  0  0  0  0
    6.1242    4.0380    7.8735 C   0  0  2  0  0  3  0  0  0  0  0  0
    6.5748    3.2419    6.7984 C   0  0  0  0  0  0  0  0  0  0  0  0
    6.6206    3.7856    5.5075 C   0  0  0  0  0  0  0  0  0  0  0  0
    6.2999    4.8065    5.3542 H   0  0  0  0  0  0  0  0  0  0  0  0
    7.0646    3.0161    4.4549 C   0  0  0  0  0  0  0  0  0  0  0  0
    7.0984    3.4405    3.4624 H   0  0  0  0  0  0  0  0  0  0  0  0
    7.4732    1.6993    4.6530 C   0  0  0  0  0  0  0  0  0  0  0  0
    7.4225    1.1641    5.9399 C   0  0  0  0  0  0  0  0  0  0  0  0
    7.7377    0.1431    6.0996 H   0  0  0  0  0  0  0  0  0  0  0  0
    6.9783    1.9166    7.0038 C   0  0  0  0  0  0  0  0  0  0  0  0
    6.9437    1.4990    7.9993 H   0  0  0  0  0  0  0  0  0  0  0  0
    7.9727    0.8682    3.5157 C   0  0  0  0  0  0  0  0  0  0  0  0
    7.7662    1.3445    2.5612 H   0  0  0  0  0  0  0  0  0  0  0  0
    7.5104   -0.1170    3.5284 H   0  0  0  0  0  0  0  0  0  0  0  0
    9.0501    0.7287    3.6042 H   0  0  0  0  0  0  0  0  0  0  0  0
    5.8843    9.2232    7.7611 C   0  0  0  0  0  2  0  0  0  0  0  0
    7.2641    7.1171    6.5817 C   0  0  0  0  0  2  0  0  0  0  0  0
    4.4244    7.1589    6.4356 C   0  0  0  0  0  2  0  0  0  0  0  0
  1  7  1  0  0  0  0
  1  6  1  0  0  0  0
  1  2  1  0  0  0  0
  4 45  1  0  0  0  0
  5 46  1  0  0  0  0
  6  8  1  0  0  0  0
  6 11  1  0  0  0  0
  7 26  1  0  0  0  0
  8 10  1  0  0  0  0
  8 11  1  0  0  0  0
  9  8  1  0  0  0  0
 11 12  1  6  0  0  0
 12 20  1  0  0  0  0
 13 12  2  0  0  0  0
 13 15  1  0  0  0  0
 14 13  1  0  0  0  0
 15 17  2  0  0  0  0
 16 15  1  0  0  0  0
 17 18  1  0  0  0  0
 17 22  1  0  0  0  0
 18 19  1  0  0  0  0
 20 21  1  0  0  0  0
 20 18  2  0  0  0  0
 22 23  1  0  0  0  0
 22 24  1  0  0  0  0
 25 22  1  0  0  0  0
 26 28  1  0  0  0  0
 26 27  1  0  0  0  0
 29 30  1  1  0  0  0
 29  7  1  0  0  0  0
 29 26  1  0  0  0  0
 30 38  1  0  0  0  0
 31 30  2  0  0  0  0
 32 31  1  0  0  0  0
 33 35  2  0  0  0  0
 33 31  1  0  0  0  0
 34 33  1  0  0  0  0
 35 36  1  0  0  0  0
 36 37  1  0  0  0  0
 36 38  2  0  0  0  0
 38 39  1  0  0  0  0
 40 42  1  0  0  0  0
 40 43  1  0  0  0  0
 40 35  1  0  0  0  0
 41 40  1  0  0  0  0
 44  3  1  0  0  0  0
 44  1  1  0  0  0  0
 45  1  1  0  0  0  0
 46  1  1  0  0  0  0
M  END
$$$$
