CSD_code = BOFHOU | q = 0 | S = 0 | Stoichiometry = C19H14BrN2O3Re | MND = 6
 OpenBabel04212202013D

 40 43  0  0  1  0  0  0  0  0999 V2000
    6.8468    6.7547    3.9475 Re  0  0  0  0  0  0  0  0  0  0  0  0
    8.8944    5.3403    4.7610 Br  0  0  0  0  0  0  0  0  0  0  0  0
    8.0244    9.0264    5.6920 O   0  0  0  0  0  1  0  0  0  0  0  0
    8.6984    7.6302    1.6245 O   0  0  0  0  0  1  0  0  0  0  0  0
    4.3665    8.3382    2.9982 O   0  0  0  0  0  1  0  0  0  0  0  0
    5.8983    5.8664    5.5818 N   0  0  0  0  0  0  0  0  0  0  0  0
    6.3230    4.9784    2.9817 N   0  0  0  0  0  0  0  0  0  0  0  0
    5.7187    4.5651    6.2641 C   0  0  0  0  0  0  0  0  0  0  0  0
    4.8367    3.9908    5.9992 H   0  0  0  0  0  0  0  0  0  0  0  0
    6.6110    3.9834    6.4674 H   0  0  0  0  0  0  0  0  0  0  0  0
    5.5744    5.9090    6.8106 C   0  0  1  0  0  3  0  0  0  0  0  0
    5.2973    6.7728    7.8954 C   0  0  0  0  0  0  0  0  0  0  0  0
    5.2130    8.1543    7.6762 C   0  0  0  0  0  0  0  0  0  0  0  0
    5.3433    8.5378    6.6742 H   0  0  0  0  0  0  0  0  0  0  0  0
    4.9584    8.9993    8.7360 C   0  0  0  0  0  0  0  0  0  0  0  0
    4.8953   10.0640    8.5702 H   0  0  0  0  0  0  0  0  0  0  0  0
    4.7877    8.4838   10.0134 C   0  0  0  0  0  0  0  0  0  0  0  0
    4.5942    9.1506   10.8401 H   0  0  0  0  0  0  0  0  0  0  0  0
    4.8651    7.1160   10.2344 C   0  0  0  0  0  0  0  0  0  0  0  0
    4.7314    6.7224   11.2308 H   0  0  0  0  0  0  0  0  0  0  0  0
    5.1150    6.2572    9.1838 C   0  0  0  0  0  0  0  0  0  0  0  0
    5.1834    5.1912    9.3438 H   0  0  0  0  0  0  0  0  0  0  0  0
    6.2101    3.5180    3.1952 C   0  0  0  0  0  0  0  0  0  0  0  0
    7.0541    3.0168    3.6561 H   0  0  0  0  0  0  0  0  0  0  0  0
    5.2321    3.1378    3.4725 H   0  0  0  0  0  0  0  0  0  0  0  0
    6.3786    4.2463    1.9435 C   0  0  2  0  0  3  0  0  0  0  0  0
    6.5312    4.2606    0.5376 C   0  0  0  0  0  0  0  0  0  0  0  0
    6.5273    5.4841   -0.1457 C   0  0  0  0  0  0  0  0  0  0  0  0
    6.3845    6.3988    0.4122 H   0  0  0  0  0  0  0  0  0  0  0  0
    6.6981    5.5025   -1.5140 C   0  0  0  0  0  0  0  0  0  0  0  0
    6.6985    6.4437   -2.0421 H   0  0  0  0  0  0  0  0  0  0  0  0
    6.8738    4.3148   -2.2106 C   0  0  0  0  0  0  0  0  0  0  0  0
    7.0130    4.3357   -3.2810 H   0  0  0  0  0  0  0  0  0  0  0  0
    6.8713    3.1003   -1.5393 C   0  0  0  0  0  0  0  0  0  0  0  0
    7.0077    2.1806   -2.0880 H   0  0  0  0  0  0  0  0  0  0  0  0
    6.6972    3.0650   -0.1709 C   0  0  0  0  0  0  0  0  0  0  0  0
    6.7000    2.1266    0.3639 H   0  0  0  0  0  0  0  0  0  0  0  0
    7.5370    8.2244    5.0369 C   0  0  0  0  0  2  0  0  0  0  0  0
    7.9637    7.3392    2.4524 C   0  0  0  0  0  2  0  0  0  0  0  0
    5.2817    7.7413    3.3532 C   0  0  0  0  0  2  0  0  0  0  0  0
  1  2  1  0  0  0  0
  1 38  1  0  0  0  0
  1  6  1  0  0  0  0
  4 39  1  0  0  0  0
  5 40  1  0  0  0  0
  6  8  1  0  0  0  0
  6 11  1  0  0  0  0
  7 23  1  0  0  0  0
  7  1  1  0  0  0  0
  8 10  1  0  0  0  0
  8 11  1  0  0  0  0
  9  8  1  0  0  0  0
 11 12  1  1  0  0  0
 12 21  1  0  0  0  0
 13 12  2  0  0  0  0
 13 15  1  0  0  0  0
 14 13  1  0  0  0  0
 15 17  2  0  0  0  0
 16 15  1  0  0  0  0
 17 19  1  0  0  0  0
 17 18  1  0  0  0  0
 19 20  1  0  0  0  0
 21 22  1  0  0  0  0
 21 19  2  0  0  0  0
 23 25  1  0  0  0  0
 23 24  1  0  0  0  0
 26 27  1  1  0  0  0
 26  7  1  0  0  0  0
 26 23  1  0  0  0  0
 28 29  1  0  0  0  0
 28 27  1  0  0  0  0
 30 28  2  0  0  0  0
 31 30  1  0  0  0  0
 32 34  2  0  0  0  0
 32 30  1  0  0  0  0
 33 32  1  0  0  0  0
 34 36  1  0  0  0  0
 35 34  1  0  0  0  0
 36 37  1  0  0  0  0
 36 27  2  0  0  0  0
 38  3  1  0  0  0  0
 39  1  1  0  0  0  0
 40  1  1  0  0  0  0
M  END
$$$$
