CSD_code = BOFMAN | q = 0 | S = 0 | Stoichiometry = C20H36ClNOP2Ru | MND = 6
 OpenBabel04212202013D

 62 64  0  0  1  0  0  0  0  0999 V2000
    9.1114    4.3408    9.1797 Ru  0  0  0  0  0  0  0  0  0  0  0  0
    7.9702    4.3996    8.1590 H   0  0  0  0  0  0  0  0  0  0  0  0
    7.9109    3.8590   10.4870 C   0  0  0  0  0  2  0  0  0  0  0  0
    7.1288    3.5367   11.2711 O   0  0  0  0  0  1  0  0  0  0  0  0
   10.9268    4.4035   10.7245 Cl  0  0  0  0  0  0  0  0  0  0  0  0
    9.6320    2.2515    8.4264 P   0  0  0  0  0  4  0  0  0  0  0  0
    9.1490    6.5954    9.5468 P   0  0  0  0  0  4  0  0  0  0  0  0
   10.4250    4.8592    7.6489 N   0  0  0  0  0  0  0  0  0  0  0  0
    9.9379    2.6956    6.6545 C   0  0  0  0  0  0  0  0  0  0  0  0
   10.4691    1.9308    6.0825 H   0  0  0  0  0  0  0  0  0  0  0  0
    8.9431    2.8422    6.2183 H   0  0  0  0  0  0  0  0  0  0  0  0
   10.6609    4.0056    6.6375 C   0  0  1  0  0  3  0  0  0  0  0  0
   11.5273    4.3176    5.5995 C   0  0  0  0  0  0  0  0  0  0  0  0
   11.6893    3.6024    4.8076 H   0  0  0  0  0  0  0  0  0  0  0  0
   12.1712    5.5427    5.5899 C   0  0  0  0  0  0  0  0  0  0  0  0
   12.8499    5.8065    4.7939 H   0  0  0  0  0  0  0  0  0  0  0  0
   11.9193    6.4182    6.6302 C   0  0  0  0  0  0  0  0  0  0  0  0
   12.3998    7.3837    6.6687 H   0  0  0  0  0  0  0  0  0  0  0  0
   11.0449    6.0496    7.6450 C   0  0  0  0  0  0  0  0  0  0  0  0
   10.7968    6.9756    8.7922 C   0  0  0  0  0  0  0  0  0  0  0  0
   10.9061    8.0224    8.4939 H   0  0  0  0  0  0  0  0  0  0  0  0
   11.5294    6.7482    9.5781 H   0  0  0  0  0  0  0  0  0  0  0  0
   11.2099    1.3618    8.8934 C   0  0  0  0  0  0  0  0  0  0  0  0
   11.1485    1.2488    9.9841 H   0  0  0  0  0  0  0  0  0  0  0  0
   11.3873   -0.0102    8.2458 C   0  0  0  0  0  0  0  0  0  0  0  0
   10.6548   -0.7308    8.5986 H   0  0  0  0  0  0  0  0  0  0  0  0
   11.3203    0.0532    7.1607 H   0  0  0  0  0  0  0  0  0  0  0  0
   12.3760   -0.3934    8.4953 H   0  0  0  0  0  0  0  0  0  0  0  0
   12.4187    2.2459    8.5880 C   0  0  0  0  0  0  0  0  0  0  0  0
   12.2969    3.2305    9.0374 H   0  0  0  0  0  0  0  0  0  0  0  0
   13.3163    1.8001    9.0144 H   0  0  0  0  0  0  0  0  0  0  0  0
   12.5720    2.3557    7.5149 H   0  0  0  0  0  0  0  0  0  0  0  0
    8.3837    0.8788    8.3241 C   0  0  0  0  0  0  0  0  0  0  0  0
    8.7706    0.0974    7.6591 H   0  0  0  0  0  0  0  0  0  0  0  0
    7.0579    1.3950    7.7772 C   0  0  0  0  0  0  0  0  0  0  0  0
    7.1353    1.6756    6.7289 H   0  0  0  0  0  0  0  0  0  0  0  0
    6.2957    0.6223    7.8633 H   0  0  0  0  0  0  0  0  0  0  0  0
    6.7367    2.2673    8.3471 H   0  0  0  0  0  0  0  0  0  0  0  0
    8.1832    0.3284    9.7353 C   0  0  0  0  0  0  0  0  0  0  0  0
    9.1064   -0.0725   10.1490 H   0  0  0  0  0  0  0  0  0  0  0  0
    7.8351    1.1256   10.3912 H   0  0  0  0  0  0  0  0  0  0  0  0
    7.4362   -0.4642    9.7329 H   0  0  0  0  0  0  0  0  0  0  0  0
    8.0247    7.7504    8.6159 C   0  0  0  0  0  0  0  0  0  0  0  0
    8.3369    8.7847    8.8008 H   0  0  0  0  0  0  0  0  0  0  0  0
    8.1229    7.4552    7.1227 C   0  0  0  0  0  0  0  0  0  0  0  0
    9.1067    7.7022    6.7264 H   0  0  0  0  0  0  0  0  0  0  0  0
    7.9288    6.3970    6.9438 H   0  0  0  0  0  0  0  0  0  0  0  0
    7.3819    8.0367    6.5760 H   0  0  0  0  0  0  0  0  0  0  0  0
    6.5985    7.5281    9.1086 C   0  0  0  0  0  0  0  0  0  0  0  0
    6.4713    7.8892   10.1266 H   0  0  0  0  0  0  0  0  0  0  0  0
    5.8852    8.0493    8.4719 H   0  0  0  0  0  0  0  0  0  0  0  0
    6.3723    6.4606    9.0881 H   0  0  0  0  0  0  0  0  0  0  0  0
    9.3769    7.3403   11.2397 C   0  0  0  0  0  0  0  0  0  0  0  0
   10.3703    6.9802   11.5403 H   0  0  0  0  0  0  0  0  0  0  0  0
    8.3655    6.7578   12.2226 C   0  0  0  0  0  0  0  0  0  0  0  0
    8.4591    5.6730   12.2459 H   0  0  0  0  0  0  0  0  0  0  0  0
    8.5574    7.1374   13.2252 H   0  0  0  0  0  0  0  0  0  0  0  0
    7.3431    7.0092   11.9486 H   0  0  0  0  0  0  0  0  0  0  0  0
    9.3737    8.8649   11.2619 C   0  0  0  0  0  0  0  0  0  0  0  0
   10.0560    9.2769   10.5201 H   0  0  0  0  0  0  0  0  0  0  0  0
    8.3757    9.2592   11.0822 H   0  0  0  0  0  0  0  0  0  0  0  0
    9.6968    9.2105   12.2428 H   0  0  0  0  0  0  0  0  0  0  0  0
  1  7  1  0  0  0  0
  1  3  1  0  0  0  0
  1  5  1  0  0  0  0
  2  1  1  0  0  0  0
  3  4  1  0  0  0  0
  6 23  1  0  0  0  0
  6  1  1  0  0  0  0
  7 53  1  0  0  0  0
  8  1  1  0  0  0  0
  9  6  1  0  0  0  0
 10  9  1  0  0  0  0
 11  9  1  0  0  0  0
 12 13  1  6  0  0  0
 12  9  1  0  0  0  0
 12  8  1  0  0  0  0
 14 13  1  0  0  0  0
 15 13  2  0  0  0  0
 15 17  1  0  0  0  0
 16 15  1  0  0  0  0
 17 18  1  0  0  0  0
 17 19  2  0  0  0  0
 19  8  1  0  0  0  0
 19 20  1  0  0  0  0
 20  7  1  0  0  0  0
 20 22  1  0  0  0  0
 21 20  1  0  0  0  0
 23 24  1  0  0  0  0
 25 28  1  0  0  0  0
 25 26  1  0  0  0  0
 25 23  1  0  0  0  0
 27 25  1  0  0  0  0
 29 23  1  0  0  0  0
 29 31  1  0  0  0  0
 29 30  1  0  0  0  0
 32 29  1  0  0  0  0
 33  6  1  0  0  0  0
 33 39  1  0  0  0  0
 34 33  1  0  0  0  0
 35 37  1  0  0  0  0
 35 33  1  0  0  0  0
 35 38  1  0  0  0  0
 36 35  1  0  0  0  0
 39 40  1  0  0  0  0
 39 41  1  0  0  0  0
 42 39  1  0  0  0  0
 43 44  1  0  0  0  0
 43 49  1  0  0  0  0
 43  7  1  0  0  0  0
 45 43  1  0  0  0  0
 46 45  1  0  0  0  0
 47 45  1  0  0  0  0
 48 45  1  0  0  0  0
 49 50  1  0  0  0  0
 51 49  1  0  0  0  0
 52 49  1  0  0  0  0
 53 59  1  0  0  0  0
 53 54  1  0  0  0  0
 53 55  1  0  0  0  0
 55 56  1  0  0  0  0
 55 57  1  0  0  0  0
 58 55  1  0  0  0  0
 59 62  1  0  0  0  0
 60 59  1  0  0  0  0
 61 59  1  0  0  0  0
M  END
$$$$
