CSD_code = BOFPUI | q = 0 | S = 0 | Stoichiometry = C34H30IO2PPdS | MND = 5
 OpenBabel04212202013D

 70 72  0  0  1  0  0  0  0  0999 V2000
    7.3821    4.6244    0.9135 Pd  0  0  0  0  0  0  0  0  0  0  0  0
    5.4600    5.9036   -0.2117 I   0  0  0  0  0 15  0  0  0  0  0  0
    8.4584    4.0535   -0.9850 P   0  0  0  0  0  0  0  0  0  0  0  0
    8.0175    2.0893    2.2602 S   0  0  0  0  0  0  0  0  0  0  0  0
    9.1168    1.1803    2.0745 O   0  0  0  0  0  0  0  0  0  0  0  0
    6.9339    2.0216    1.2987 O   0  0  0  0  0  0  0  0  0  0  0  0
    6.4692    4.7062    2.8824 C   0  0  0  0  0  3  0  0  0  0  0  0
    5.9574    3.7410    2.8006 H   0  0  0  0  0  0  0  0  0  0  0  0
    7.8624    4.7306    2.9832 C   0  0  1  0  0  3  0  0  0  0  0  0
    8.6483    3.7494    2.3304 C   0  0  2  0  0  0  0  0  0  0  0  0
    9.7290    3.7595    2.4223 H   0  0  0  0  0  0  0  0  0  0  0  0
    5.6258    5.7957    3.4833 C   0  0  0  0  0  0  0  0  0  0  0  0
    5.4520    5.5814    4.5415 H   0  0  0  0  0  0  0  0  0  0  0  0
    4.6584    5.8476    2.9870 H   0  0  0  0  0  0  0  0  0  0  0  0
    6.1093    6.7691    3.4023 H   0  0  0  0  0  0  0  0  0  0  0  0
    8.5667    5.9552    3.4526 C   0  0  0  0  0  0  0  0  0  0  0  0
    8.8700    6.1278    4.7964 C   0  0  0  0  0  0  0  0  0  0  0  0
    8.5750    5.3735    5.5129 H   0  0  0  0  0  0  0  0  0  0  0  0
    9.5440    7.2646    5.2077 C   0  0  0  0  0  0  0  0  0  0  0  0
    9.7789    7.3984    6.2532 H   0  0  0  0  0  0  0  0  0  0  0  0
    9.9140    8.2286    4.2846 C   0  0  0  0  0  0  0  0  0  0  0  0
   10.4371    9.1145    4.6119 H   0  0  0  0  0  0  0  0  0  0  0  0
    9.6119    8.0593    2.9430 C   0  0  0  0  0  0  0  0  0  0  0  0
    9.8961    8.8114    2.2224 H   0  0  0  0  0  0  0  0  0  0  0  0
    8.9418    6.9239    2.5265 C   0  0  0  0  0  0  0  0  0  0  0  0
    8.6939    6.7822    1.4671 H   0  0  0  0  0  0  0  0  0  0  0  0
    7.3098    1.7766    3.8900 C   0  0  0  0  0  0  0  0  0  0  0  0
    6.0277    1.2752    4.0039 C   0  0  0  0  0  0  0  0  0  0  0  0
    5.4700    1.0602    3.1048 H   0  0  0  0  0  0  0  0  0  0  0  0
    5.4902    1.0672    5.2638 C   0  0  0  0  0  0  0  0  0  0  0  0
    4.4883    0.6784    5.3646 H   0  0  0  0  0  0  0  0  0  0  0  0
    6.2400    1.3629    6.3908 C   0  0  0  0  0  0  0  0  0  0  0  0
    5.8194    1.2055    7.3727 H   0  0  0  0  0  0  0  0  0  0  0  0
    7.5292    1.8581    6.2661 C   0  0  0  0  0  0  0  0  0  0  0  0
    8.1118    2.0814    7.1474 H   0  0  0  0  0  0  0  0  0  0  0  0
    8.0689    2.0668    5.0081 C   0  0  0  0  0  0  0  0  0  0  0  0
    9.0732    2.4448    4.8853 H   0  0  0  0  0  0  0  0  0  0  0  0
    9.6406    2.6903   -0.7692 C   0  0  0  0  0  0  0  0  0  0  0  0
   10.8630    2.9781   -0.1654 C   0  0  0  0  0  0  0  0  0  0  0  0
   11.1020    4.0063    0.0870 H   0  0  0  0  0  0  0  0  0  0  0  0
   11.7575    1.9630    0.1066 C   0  0  0  0  0  0  0  0  0  0  0  0
   12.7045    2.1892    0.5758 H   0  0  0  0  0  0  0  0  0  0  0  0
   11.4328    0.6534   -0.2097 C   0  0  0  0  0  0  0  0  0  0  0  0
   12.1271   -0.1421    0.0167 H   0  0  0  0  0  0  0  0  0  0  0  0
   10.2160    0.3633   -0.8004 C   0  0  0  0  0  0  0  0  0  0  0  0
    9.9593   -0.6592   -1.0344 H   0  0  0  0  0  0  0  0  0  0  0  0
    9.3165    1.3763   -1.0800 C   0  0  0  0  0  0  0  0  0  0  0  0
    8.3590    1.1492   -1.5273 H   0  0  0  0  0  0  0  0  0  0  0  0
    7.3180    3.4440   -2.2599 C   0  0  0  0  0  0  0  0  0  0  0  0
    7.5152    3.6358   -3.6215 C   0  0  0  0  0  0  0  0  0  0  0  0
    8.3782    4.1818   -3.9754 H   0  0  0  0  0  0  0  0  0  0  0  0
    6.5892    3.1387   -4.5221 C   0  0  0  0  0  0  0  0  0  0  0  0
    6.7374    3.2933   -5.5809 H   0  0  0  0  0  0  0  0  0  0  0  0
    5.4729    2.4551   -4.0705 C   0  0  0  0  0  0  0  0  0  0  0  0
    4.7510    2.0765   -4.7789 H   0  0  0  0  0  0  0  0  0  0  0  0
    5.2734    2.2666   -2.7118 C   0  0  0  0  0  0  0  0  0  0  0  0
    4.3966    1.7433   -2.3608 H   0  0  0  0  0  0  0  0  0  0  0  0
    6.1896    2.7635   -1.8046 C   0  0  0  0  0  0  0  0  0  0  0  0
    6.0382    2.6332   -0.7352 H   0  0  0  0  0  0  0  0  0  0  0  0
    9.4506    5.3351   -1.8093 C   0  0  0  0  0  0  0  0  0  0  0  0
   10.4890    5.0109   -2.6785 C   0  0  0  0  0  0  0  0  0  0  0  0
   10.7359    3.9730   -2.8572 H   0  0  0  0  0  0  0  0  0  0  0  0
   11.2051    6.0168   -3.3006 C   0  0  0  0  0  0  0  0  0  0  0  0
   12.0098    5.7634   -3.9754 H   0  0  0  0  0  0  0  0  0  0  0  0
   10.8923    7.3462   -3.0620 C   0  0  0  0  0  0  0  0  0  0  0  0
   11.4553    8.1272   -3.5513 H   0  0  0  0  0  0  0  0  0  0  0  0
    9.8604    7.6728   -2.1980 C   0  0  0  0  0  0  0  0  0  0  0  0
    9.6132    8.7075   -2.0137 H   0  0  0  0  0  0  0  0  0  0  0  0
    9.1418    6.6703   -1.5717 C   0  0  0  0  0  0  0  0  0  0  0  0
    8.3243    6.9184   -0.9036 H   0  0  0  0  0  0  0  0  0  0  0  0
  1 10  1  0  0  0  0
  3 38  1  0  0  0  0
  4 10  1  0  0  0  0
  4 27  1  0  0  0  0
  5  4  2  0  0  0  0
  6  4  2  0  0  0  0
  7 12  1  0  0  0  0
  8  7  1  0  0  0  0
  9  7  1  6  0  0  0
  9 16  1  0  0  0  0
 10 11  1  6  0  0  0
 10  9  1  0  0  0  0
 12 13  1  0  0  0  0
 14 12  1  0  0  0  0
 15 12  1  0  0  0  0
 16 17  1  0  0  0  0
 17 19  2  0  0  0  0
 17 18  1  0  0  0  0
 19 20  1  0  0  0  0
 21 22  1  0  0  0  0
 21 19  1  0  0  0  0
 23 21  2  0  0  0  0
 24 23  1  0  0  0  0
 25 23  1  0  0  0  0
 25 16  2  0  0  0  0
 26 25  1  0  0  0  0
 27 28  2  0  0  0  0
 27 36  1  0  0  0  0
 28 30  1  0  0  0  0
 29 28  1  0  0  0  0
 30 31  1  0  0  0  0
 30 32  2  0  0  0  0
 32 33  1  0  0  0  0
 34 32  1  0  0  0  0
 34 35  1  0  0  0  0
 36 34  2  0  0  0  0
 37 36  1  0  0  0  0
 38 39  1  0  0  0  0
 39 40  1  0  0  0  0
 39 41  2  0  0  0  0
 41 42  1  0  0  0  0
 43 44  1  0  0  0  0
 43 41  1  0  0  0  0
 45 43  2  0  0  0  0
 46 45  1  0  0  0  0
 47 45  1  0  0  0  0
 47 38  2  0  0  0  0
 48 47  1  0  0  0  0
 49 58  1  0  0  0  0
 49  3  1  0  0  0  0
 50 49  2  0  0  0  0
 51 50  1  0  0  0  0
 52 54  2  0  0  0  0
 52 50  1  0  0  0  0
 53 52  1  0  0  0  0
 54 56  1  0  0  0  0
 55 54  1  0  0  0  0
 56 57  1  0  0  0  0
 56 58  2  0  0  0  0
 58 59  1  0  0  0  0
 60 69  1  0  0  0  0
 60  3  1  0  0  0  0
 61 60  2  0  0  0  0
 62 61  1  0  0  0  0
 63 65  2  0  0  0  0
 63 61  1  0  0  0  0
 64 63  1  0  0  0  0
 65 67  1  0  0  0  0
 66 65  1  0  0  0  0
 67 68  1  0  0  0  0
 67 69  2  0  0  0  0
 69 70  1  0  0  0  0
M  END
$$$$
