CSD_code = BOFVIB | q = 0 | S = 0 | Stoichiometry = C26H24Cl2P2Pt | MND = 4
 OpenBabel04212202013D

 55 59  0  0  0  0  0  0  0  0999 V2000
    0.8552    3.2785    3.3425 Pt  0  0  0  0  0  0  0  0  0  0  0  0
    2.4300    3.9395    4.8682 Cl  0  0  0  0  0  0  0  0  0  0  0  0
   -0.8889    3.6229    4.7978 Cl  0  0  0  0  0  0  0  0  0  0  0  0
   -0.6879    2.7282    1.7787 P   0  0  0  0  0  4  0  0  0  0  0  0
    2.4151    2.7437    1.7834 P   0  0  0  0  0  4  0  0  0  0  0  0
    0.2056    1.9293    0.3585 C   0  0  0  0  0  0  0  0  0  0  0  0
    1.5291    2.6599    0.1543 C   0  0  0  0  0  0  0  0  0  0  0  0
   -2.1447    1.7097    2.1010 C   0  0  0  0  0  0  0  0  0  0  0  0
   -2.1183    0.3229    1.9898 C   0  0  0  0  0  0  0  0  0  0  0  0
   -3.2299   -0.4181    2.3479 C   0  0  0  0  0  0  0  0  0  0  0  0
   -4.3615    0.2147    2.8362 C   0  0  0  0  0  0  0  0  0  0  0  0
   -4.3807    1.5935    2.9742 C   0  0  0  0  0  0  0  0  0  0  0  0
   -3.2761    2.3411    2.6139 C   0  0  0  0  0  0  0  0  0  0  0  0
   -1.3389    4.2327    1.0055 C   0  0  0  0  0  0  0  0  0  0  0  0
   -0.8003    5.4532    1.3977 C   0  0  0  0  0  0  0  0  0  0  0  0
   -1.2444    6.6255    0.8128 C   0  0  0  0  0  0  0  0  0  0  0  0
   -2.2262    6.5794   -0.1636 C   0  0  0  0  0  0  0  0  0  0  0  0
   -2.7666    5.3635   -0.5553 C   0  0  0  0  0  0  0  0  0  0  0  0
   -2.3262    4.1889    0.0255 C   0  0  0  0  0  0  0  0  0  0  0  0
    2.9010    1.0116    2.0283 C   0  0  0  0  0  0  0  0  0  0  0  0
    3.8956    0.4127    1.2619 C   0  0  0  0  0  0  0  0  0  0  0  0
    4.2069   -0.9196    1.4624 C   0  0  0  0  0  0  0  0  0  0  0  0
    3.5311   -1.6557    2.4236 C   0  0  0  0  0  0  0  0  0  0  0  0
    2.5443   -1.0601    3.1928 C   0  0  0  0  0  0  0  0  0  0  0  0
    2.2302    0.2726    2.9971 C   0  0  0  0  0  0  0  0  0  0  0  0
    3.9850    3.5808    1.4634 C   0  0  0  0  0  0  0  0  0  0  0  0
    4.2672    4.2967    0.3054 C   0  0  0  0  0  0  0  0  0  0  0  0
    5.4886    4.9348    0.1757 C   0  0  0  0  0  0  0  0  0  0  0  0
    6.4214    4.8737    1.1976 C   0  0  0  0  0  0  0  0  0  0  0  0
    6.1350    4.1740    2.3598 C   0  0  0  0  0  0  0  0  0  0  0  0
    4.9207    3.5302    2.4960 C   0  0  0  0  0  0  0  0  0  0  0  0
   -0.4133    1.9595   -0.5431 H   0  0  0  0  0  0  0  0  0  0  0  0
    0.4017    0.8844    0.6155 H   0  0  0  0  0  0  0  0  0  0  0  0
    2.1513    2.1571   -0.5925 H   0  0  0  0  0  0  0  0  0  0  0  0
    1.3363    3.6872   -0.1732 H   0  0  0  0  0  0  0  0  0  0  0  0
   -1.2311   -0.1798    1.6315 H   0  0  0  0  0  0  0  0  0  0  0  0
   -3.2098   -1.4941    2.2557 H   0  0  0  0  0  0  0  0  0  0  0  0
   -5.2242   -0.3689    3.1210 H   0  0  0  0  0  0  0  0  0  0  0  0
   -5.2551    2.0851    3.3730 H   0  0  0  0  0  0  0  0  0  0  0  0
   -3.2726    3.4144    2.7394 H   0  0  0  0  0  0  0  0  0  0  0  0
   -0.0421    5.4694    2.1792 H   0  0  0  0  0  0  0  0  0  0  0  0
   -0.8304    7.5737    1.1212 H   0  0  0  0  0  0  0  0  0  0  0  0
   -2.5775    7.4937   -0.6186 H   0  0  0  0  0  0  0  0  0  0  0  0
   -3.5360    5.3338   -1.3129 H   0  0  0  0  0  0  0  0  0  0  0  0
   -2.7522    3.2381   -0.2669 H   0  0  0  0  0  0  0  0  0  0  0  0
    4.4269    0.9953    0.5213 H   0  0  0  0  0  0  0  0  0  0  0  0
    4.9809   -1.3862    0.8708 H   0  0  0  0  0  0  0  0  0  0  0  0
    3.7807   -2.6951    2.5773 H   0  0  0  0  0  0  0  0  0  0  0  0
    2.0258   -1.6320    3.9476 H   0  0  0  0  0  0  0  0  0  0  0  0
    1.4710    0.7630    3.6061 H   0  0  0  0  0  0  0  0  0  0  0  0
    3.5425    4.3584   -0.4933 H   0  0  0  0  0  0  0  0  0  0  0  0
    5.7103    5.4868   -0.7261 H   0  0  0  0  0  0  0  0  0  0  0  0
    7.3699    5.3790    1.0911 H   0  0  0  0  0  0  0  0  0  0  0  0
    6.8568    4.1376    3.1616 H   0  0  0  0  0  0  0  0  0  0  0  0
    4.6704    3.0016    3.4054 H   0  0  0  0  0  0  0  0  0  0  0  0
  1  3  1  0  0  0  0
  1  2  1  0  0  0  0
  4  8  1  0  0  0  0
  4  1  1  0  0  0  0
  5 20  1  0  0  0  0
  5  1  1  0  0  0  0
  6 33  1  0  0  0  0
  6  4  1  0  0  0  0
  7  6  1  0  0  0  0
  7  5  1  0  0  0  0
  8 13  1  0  0  0  0
  9  8  2  0  0  0  0
  9 10  1  0  0  0  0
 10 11  2  0  0  0  0
 11 12  1  0  0  0  0
 11 38  1  0  0  0  0
 12 39  1  0  0  0  0
 13 40  1  0  0  0  0
 13 12  2  0  0  0  0
 14 15  1  0  0  0  0
 14  4  1  0  0  0  0
 15 41  1  0  0  0  0
 16 42  1  0  0  0  0
 16 15  2  0  0  0  0
 17 16  1  0  0  0  0
 18 17  2  0  0  0  0
 18 19  1  0  0  0  0
 19 14  2  0  0  0  0
 20 25  1  0  0  0  0
 21 22  1  0  0  0  0
 21 20  2  0  0  0  0
 22 23  2  0  0  0  0
 23 48  1  0  0  0  0
 23 24  1  0  0  0  0
 24 49  1  0  0  0  0
 25 24  2  0  0  0  0
 25 50  1  0  0  0  0
 26  5  1  0  0  0  0
 26 31  1  0  0  0  0
 27 26  2  0  0  0  0
 28 27  1  0  0  0  0
 28 29  2  0  0  0  0
 29 30  1  0  0  0  0
 30 31  2  0  0  0  0
 30 54  1  0  0  0  0
 31 55  1  0  0  0  0
 32  6  1  0  0  0  0
 34  7  1  0  0  0  0
 35  7  1  0  0  0  0
 36  9  1  0  0  0  0
 37 10  1  0  0  0  0
 43 17  1  0  0  0  0
 44 18  1  0  0  0  0
 45 19  1  0  0  0  0
 46 21  1  0  0  0  0
 47 22  1  0  0  0  0
 51 27  1  0  0  0  0
 52 28  1  0  0  0  0
 53 29  1  0  0  0  0
M  END
$$$$
