CSD_code = BOFXOK | q = 0 | S = 0 | Stoichiometry = C24H21ClN6O2Pd | MND = 4
 OpenBabel04212202013D

 55 59  0  0  0  0  0  0  0  0999 V2000
    3.9269    8.2754    9.6547 Pd  0  0  2  0  0  0  0  0  0  0  0  0
    1.8876    7.9139   10.5562 Cl  0  0  0  0  0  0  0  0  0  0  0  0
    6.4436    9.4082    6.6702 O   0  0  0  0  0  0  0  0  0  0  0  0
    4.7401    5.6097    5.4801 O   0  0  0  0  0  0  0  0  0  0  0  0
    3.6486   10.2194    9.6060 N   0  0  0  0  0  0  0  0  0  0  0  0
    4.3645   10.0214    7.3941 N   0  0  0  0  0  0  0  0  0  0  0  0
    5.6910    8.6465    8.7200 N   0  0  0  0  0  0  0  0  0  0  0  0
    4.2554    6.2893    9.5689 N   0  0  0  0  0  0  0  0  0  0  0  0
    3.7957    6.5407    7.3456 N   0  0  0  0  0  0  0  0  0  0  0  0
    3.6632    7.6331    5.3602 N   0  0  0  0  0  0  0  0  0  0  0  0
    3.1512   10.9286   10.6179 C   0  0  0  0  0  3  0  0  0  0  0  0
    2.7785   12.2502   10.4788 C   0  0  0  0  0  0  0  0  0  0  0  0
    2.9171   12.8518    9.2325 C   0  0  0  0  0  0  0  0  0  0  0  0
    3.4519   12.1257    8.1904 C   0  0  0  0  0  0  0  0  0  0  0  0
    3.8293   10.7938    8.4066 C   0  0  0  0  0  0  0  0  0  0  0  0
    5.6422    9.2904    7.5734 C   0  0  0  0  0  0  0  0  0  0  0  0
    6.7862    7.9252    9.1790 C   0  0  0  0  0  0  0  0  0  0  0  0
    7.7591    7.3571    8.3586 C   0  0  0  0  0  0  0  0  0  0  0  0
    8.7722    6.6040    8.9224 C   0  0  0  0  0  0  0  0  0  0  0  0
    8.8348    6.4100   10.2921 C   0  0  0  0  0  0  0  0  0  0  0  0
    7.8768    6.9846   11.1138 C   0  0  0  0  0  0  0  0  0  0  0  0
    6.8598    7.7383   10.5649 C   0  0  0  0  0  0  0  0  0  0  0  0
    4.6502    5.5836   10.6258 C   0  0  0  0  0  3  0  0  0  0  0  0
    5.1807    4.3157   10.5035 C   0  0  0  0  0  0  0  0  0  0  0  0
    5.3094    3.7696    9.2310 C   0  0  0  0  0  0  0  0  0  0  0  0
    4.8617    4.4784    8.1354 C   0  0  0  0  0  0  0  0  0  0  0  0
    4.3202    5.7477    8.3436 C   0  0  0  0  0  0  0  0  0  0  0  0
    4.1330    6.5194    5.9887 C   0  0  0  0  0  0  0  0  0  0  0  0
    3.8775    8.0393    4.0373 C   0  0  0  0  0  0  0  0  0  0  0  0
    4.5648    7.2687    3.1069 C   0  0  0  0  0  0  0  0  0  0  0  0
    4.7347    7.7429    1.8187 C   0  0  0  0  0  0  0  0  0  0  0  0
    4.2265    8.9745    1.4431 C   0  0  0  0  0  0  0  0  0  0  0  0
    3.5407    9.7417    2.3697 C   0  0  0  0  0  0  0  0  0  0  0  0
    3.3663    9.2789    3.6594 C   0  0  0  0  0  0  0  0  0  0  0  0
    3.0351   10.4010   11.5589 H   0  0  0  0  0  0  0  0  0  0  0  0
    2.3761   12.7919   11.3182 H   0  0  0  0  0  0  0  0  0  0  0  0
    4.4269   10.5195    6.5091 H   0  0  0  0  0  0  0  0  0  0  0  0
    2.6190   13.8779    9.0821 H   0  0  0  0  0  0  0  0  0  0  0  0
    3.5865   12.5647    7.2138 H   0  0  0  0  0  0  0  0  0  0  0  0
    3.2893    7.3594    7.7290 H   0  0  0  0  0  0  0  0  0  0  0  0
    3.1986    8.3297    5.9304 H   0  0  0  0  0  0  0  0  0  0  0  0
    7.7096    7.5089    7.2924 H   0  0  0  0  0  0  0  0  0  0  0  0
    9.5190    6.1593    8.2813 H   0  0  0  0  0  0  0  0  0  0  0  0
    9.6286    5.8168   10.7206 H   0  0  0  0  0  0  0  0  0  0  0  0
    7.9273    6.8444   12.1840 H   0  0  0  0  0  0  0  0  0  0  0  0
    6.0985    8.2140   11.1981 H   0  0  0  0  0  0  0  0  0  0  0  0
    4.5237    6.0616   11.5926 H   0  0  0  0  0  0  0  0  0  0  0  0
    5.4958    3.7721   11.3785 H   0  0  0  0  0  0  0  0  0  0  0  0
    5.7416    2.7900    9.0985 H   0  0  0  0  0  0  0  0  0  0  0  0
    4.9306    4.0940    7.1321 H   0  0  0  0  0  0  0  0  0  0  0  0
    4.9644    6.3121    3.3971 H   0  0  0  0  0  0  0  0  0  0  0  0
    5.2715    7.1401    1.1016 H   0  0  0  0  0  0  0  0  0  0  0  0
    4.3635    9.3366    0.4355 H   0  0  0  0  0  0  0  0  0  0  0  0
    3.1401   10.7044    2.0880 H   0  0  0  0  0  0  0  0  0  0  0  0
    2.8254    9.8774    4.3808 H   0  0  0  0  0  0  0  0  0  0  0  0
  1  2  1  6  0  0  0
  3 16  2  0  0  0  0
  4 28  2  0  0  0  0
  5  1  1  0  0  0  0
  5 11  1  0  0  0  0
  6 16  1  0  0  0  0
  6 15  1  0  0  0  0
  7 17  1  0  0  0  0
  7  1  1  0  0  0  0
  8  1  1  0  0  0  0
  8 23  1  0  0  0  0
  9 40  1  0  0  0  0
  9 27  1  0  0  0  0
 10 41  1  0  0  0  0
 10 28  1  0  0  0  0
 11 35  1  0  0  0  0
 12 11  1  0  0  0  0
 12 36  1  0  0  0  0
 13 12  2  0  0  0  0
 14 15  2  0  0  0  0
 14 13  1  0  0  0  0
 15  5  1  0  0  0  0
 16  7  1  0  0  0  0
 17 22  1  0  0  0  0
 18 19  1  0  0  0  0
 18 17  2  0  0  0  0
 19 20  2  0  0  0  0
 20 44  1  0  0  0  0
 20 21  1  0  0  0  0
 21 45  1  0  0  0  0
 22 21  2  0  0  0  0
 22 46  1  0  0  0  0
 23 47  1  0  0  0  0
 24 23  1  0  0  0  0
 24 48  1  0  0  0  0
 25 24  2  0  0  0  0
 26 27  2  0  0  0  0
 26 25  1  0  0  0  0
 27  8  1  0  0  0  0
 28  9  1  0  0  0  0
 29 10  1  0  0  0  0
 30 51  1  0  0  0  0
 30 29  2  0  0  0  0
 31 30  1  0  0  0  0
 32 31  2  0  0  0  0
 32 33  1  0  0  0  0
 33 34  2  0  0  0  0
 34 29  1  0  0  0  0
 34 55  1  0  0  0  0
 37  6  1  0  0  0  0
 38 13  1  0  0  0  0
 39 14  1  0  0  0  0
 42 18  1  0  0  0  0
 43 19  1  0  0  0  0
 49 25  1  0  0  0  0
 50 26  1  0  0  0  0
 52 31  1  0  0  0  0
 53 32  1  0  0  0  0
 54 33  1  0  0  0  0
M  END
$$$$
