CSD_code = BOFYOL | q = 0 | S = 0 | Stoichiometry = C18H11ClN3O3Re | MND = 6
 OpenBabel04212202013D

 37 40  0  0  1  0  0  0  0  0999 V2000
    1.4890    1.9370    3.1581 Re  0  0  0  0  0  0  0  0  0  0  0  0
   -0.3411    3.0987    2.1920 Cl  0  0  0  0  0  0  0  0  0  0  0  0
    4.0237    0.4731    4.1495 O   0  0  0  0  0  1  0  0  0  0  0  0
   -0.3360   -0.5362    3.4415 O   0  0  0  0  0  1  0  0  0  0  0  0
    0.4653    2.9817    5.8850 O   0  0  0  0  0  1  0  0  0  0  0  0
    1.9740    1.5843    1.1139 N   0  0  0  0  0  0  0  0  0  0  0  0
    2.4720    3.8187    2.4872 N   0  0  0  0  0  0  0  0  0  0  0  0
    2.1018    5.7470    5.3823 N   0  0  0  0  0  0  0  0  0  0  0  0
    1.8370    0.4214    0.4816 C   0  0  0  0  0  3  0  0  0  0  0  0
    1.9952    0.2775   -0.8835 C   0  0  0  0  0  0  0  0  0  0  0  0
    2.3312    1.3949   -1.6335 C   0  0  0  0  0  0  0  0  0  0  0  0
    2.4842    2.6036   -0.9835 C   0  0  0  0  0  0  0  0  0  0  0  0
    2.2823    2.6773    0.3948 C   0  0  0  0  0  0  0  0  0  0  0  0
    2.4176    3.9330    1.1474 C   0  0  1  0  0  3  0  0  0  0  0  0
    2.4678    5.1720    0.5132 C   0  0  0  0  0  0  0  0  0  0  0  0
    2.5681    6.3214    1.2761 C   0  0  0  0  0  0  0  0  0  0  0  0
    2.6666    6.1961    2.6476 C   0  0  0  0  0  0  0  0  0  0  0  0
    2.6289    4.9249    3.2179 C   0  0  0  0  0  0  0  0  0  0  0  0
    2.7581    4.8244    4.6853 C   0  0  0  0  0  0  0  0  0  0  0  0
    3.5610    3.8572    5.2897 C   0  0  0  0  0  0  0  0  0  0  0  0
    3.6181    3.8213    6.6731 C   0  0  0  0  0  0  0  0  0  0  0  0
    2.8819    4.7439    7.3981 C   0  0  0  0  0  0  0  0  0  0  0  0
    2.1540    5.6966    6.6982 C   0  0  0  0  0  0  0  0  0  0  0  0
    3.0767    1.0279    3.7980 C   0  0  0  0  0  2  0  0  0  0  0  0
    0.3776    0.3571    3.3859 C   0  0  0  0  0  2  0  0  0  0  0  0
    0.9021    2.5704    4.9106 C   0  0  0  0  0  2  0  0  0  0  0  0
    1.5892   -0.4334    1.0979 H   0  0  0  0  0  0  0  0  0  0  0  0
    1.8590   -0.6873   -1.3445 H   0  0  0  0  0  0  0  0  0  0  0  0
    2.4729    1.3254   -2.7011 H   0  0  0  0  0  0  0  0  0  0  0  0
    2.7631    3.4815   -1.5425 H   0  0  0  0  0  0  0  0  0  0  0  0
    2.3794    5.2434   -0.5579 H   0  0  0  0  0  0  0  0  0  0  0  0
    2.5663    7.2928    0.8060 H   0  0  0  0  0  0  0  0  0  0  0  0
    2.7483    7.0511    3.2981 H   0  0  0  0  0  0  0  0  0  0  0  0
    4.1407    3.1730    4.6905 H   0  0  0  0  0  0  0  0  0  0  0  0
    4.2258    3.0817    7.1724 H   0  0  0  0  0  0  0  0  0  0  0  0
    2.8816    4.7363    8.4765 H   0  0  0  0  0  0  0  0  0  0  0  0
    1.5859    6.4601    7.2130 H   0  0  0  0  0  0  0  0  0  0  0  0
  1 25  1  0  0  0  0
  1 24  1  0  0  0  0
  1 26  1  0  0  0  0
  2  1  1  0  0  0  0
  6  1  1  0  0  0  0
  7  1  1  0  0  0  0
  7 18  1  0  0  0  0
  8 23  1  0  0  0  0
  9 27  1  0  0  0  0
  9  6  1  0  0  0  0
 10  9  1  0  0  0  0
 11 12  1  0  0  0  0
 11 10  2  0  0  0  0
 12 13  2  0  0  0  0
 13  6  1  0  0  0  0
 14 13  1  1  0  0  0
 14  7  1  0  0  0  0
 15 14  1  0  0  0  0
 15 16  2  0  0  0  0
 16 17  1  0  0  0  0
 17 18  2  0  0  0  0
 17 33  1  0  0  0  0
 18 19  1  0  0  0  0
 19 20  1  0  0  0  0
 19  8  2  0  0  0  0
 20 21  2  0  0  0  0
 21 35  1  0  0  0  0
 21 22  1  0  0  0  0
 22 36  1  0  0  0  0
 23 37  1  0  0  0  0
 23 22  2  0  0  0  0
 24  3  1  0  0  0  0
 25  4  1  0  0  0  0
 26  5  1  0  0  0  0
 28 10  1  0  0  0  0
 29 11  1  0  0  0  0
 30 12  1  0  0  0  0
 31 15  1  0  0  0  0
 32 16  1  0  0  0  0
 34 20  1  0  0  0  0
M  END
$$$$
