CSD_code = BOGBIJ | q = 1 | S = 0 | Stoichiometry = C12H19AuClN2(1+) | MND = 4
 OpenBabel04212202013D

 35 37  0  0  0  0  0  0  0  0999 V2000
    4.4645    8.6159    1.0065 Au  0  0  0  0  0  0  0  0  0  0  0  0
    5.9327   10.3702    0.6640 Cl  0  0  0  0  0  0  0  0  0  0  0  0
    5.7160    7.3789    2.1615 N   0  0  0  0  0  4  0  0  0  0  0  0
    2.8129    9.3755   -0.0542 N   0  0  0  0  0  4  0  0  0  0  0  0
    3.2326    7.1429    1.2938 C   0  0  0  0  0  0  0  0  0  0  0  0
    3.7336    5.9743    1.8320 C   0  0  0  0  0  0  0  0  0  0  0  0
    2.8452    4.9259    2.0399 C   0  0  0  0  0  0  0  0  0  0  0  0
    1.5111    5.0844    1.6941 C   0  0  0  0  0  0  0  0  0  0  0  0
    1.0339    6.2674    1.1491 C   0  0  0  0  0  0  0  0  0  0  0  0
    1.9090    7.3280    0.9472 C   0  0  0  0  0  0  0  0  0  0  0  0
    5.2125    5.9725    2.0724 C   0  0  0  0  0  0  0  0  0  0  0  0
    5.6155    7.8447    3.5550 C   0  0  0  0  0  0  0  0  0  0  0  0
    7.1228    7.4409    1.7449 C   0  0  0  0  0  0  0  0  0  0  0  0
    1.5741    8.6981    0.4417 C   0  0  0  0  0  0  0  0  0  0  0  0
    3.0175    9.0383   -1.4730 C   0  0  0  0  0  0  0  0  0  0  0  0
    2.6773   10.8326    0.0686 C   0  0  0  0  0  0  0  0  0  0  0  0
    3.1926    3.9961    2.4621 H   0  0  0  0  0  0  0  0  0  0  0  0
    0.8268    4.2659    1.8529 H   0  0  0  0  0  0  0  0  0  0  0  0
   -0.0082    6.3668    0.8887 H   0  0  0  0  0  0  0  0  0  0  0  0
    5.7009    5.4872    1.2214 H   0  0  0  0  0  0  0  0  0  0  0  0
    5.4911    5.4216    2.9755 H   0  0  0  0  0  0  0  0  0  0  0  0
    4.5929    7.7392    3.9129 H   0  0  0  0  0  0  0  0  0  0  0  0
    5.9098    8.8906    3.6148 H   0  0  0  0  0  0  0  0  0  0  0  0
    6.2785    7.2596    4.1964 H   0  0  0  0  0  0  0  0  0  0  0  0
    7.4763    8.4679    1.8128 H   0  0  0  0  0  0  0  0  0  0  0  0
    7.2240    7.1153    0.7116 H   0  0  0  0  0  0  0  0  0  0  0  0
    7.7380    6.8061    2.3852 H   0  0  0  0  0  0  0  0  0  0  0  0
    1.1727    9.2852    1.2740 H   0  0  0  0  0  0  0  0  0  0  0  0
    0.8190    8.6817   -0.3497 H   0  0  0  0  0  0  0  0  0  0  0  0
    2.2037    9.4448   -2.0778 H   0  0  0  0  0  0  0  0  0  0  0  0
    3.0483    7.9578   -1.6012 H   0  0  0  0  0  0  0  0  0  0  0  0
    3.9553    9.4670   -1.8208 H   0  0  0  0  0  0  0  0  0  0  0  0
    3.5832   11.3132   -0.2956 H   0  0  0  0  0  0  0  0  0  0  0  0
    2.5416   11.1115    1.1115 H   0  0  0  0  0  0  0  0  0  0  0  0
    1.8242   11.1861   -0.5135 H   0  0  0  0  0  0  0  0  0  0  0  0
  1  5  1  0  0  0  0
  1  3  1  0  0  0  0
  2  1  1  0  0  0  0
  3 12  1  0  0  0  0
  4 16  1  0  0  0  0
  4 14  1  0  0  0  0
  4  1  1  0  0  0  0
  5  6  1  0  0  0  0
  6  7  2  0  0  0  0
  6 11  1  0  0  0  0
  7 17  1  0  0  0  0
  8 18  1  0  0  0  0
  8  7  1  0  0  0  0
  9  8  2  0  0  0  0
 10  9  1  0  0  0  0
 10  5  2  0  0  0  0
 11  3  1  0  0  0  0
 11 21  1  0  0  0  0
 12 23  1  0  0  0  0
 12 22  1  0  0  0  0
 12 24  1  0  0  0  0
 13 25  1  0  0  0  0
 13  3  1  0  0  0  0
 13 27  1  0  0  0  0
 14 10  1  0  0  0  0
 14 28  1  0  0  0  0
 15  4  1  0  0  0  0
 16 34  1  0  0  0  0
 19  9  1  0  0  0  0
 20 11  1  0  0  0  0
 26 13  1  0  0  0  0
 29 14  1  0  0  0  0
 30 15  1  0  0  0  0
 31 15  1  0  0  0  0
 32 15  1  0  0  0  0
 33 16  1  0  0  0  0
 35 16  1  0  0  0  0
M  END
$$$$
