CSD_code = BOGQAP | q = 0 | S = 0 | Stoichiometry = C26H36Cl2Ti | MND = 12
 OpenBabel04212202013D

 65 69  0  0  1  0  0  0  0  0999 V2000
    3.9792   15.1367    1.6670 Ti  0  0  0  0  0  0  0  0  0  0  0  0
    2.3092   15.7826    2.9923 Cl  0  0  0  0  0  0  0  0  0  0  0  0
    2.4737   14.4526    0.1745 Cl  0  0  0  0  0  0  0  0  0  0  0  0
    5.8791   13.9892    2.3588 C   0  0  0  0  0  0  0  0  0  0  0  0
    4.9901   14.1245    3.4525 C   0  0  2  0  0  0  0  0  0  0  0  0
    5.2161   14.6053    4.3970 H   0  0  0  0  0  0  0  0  0  0  0  0
    3.8761   13.2801    3.2114 C   0  0  0  0  0  0  0  0  0  0  0  0
    2.7796   12.9103    4.1620 C   0  0  0  0  0  0  0  0  0  0  0  0
    2.4140   13.7875    4.7024 H   0  0  0  0  0  0  0  0  0  0  0  0
    3.1803   12.2073    4.9037 H   0  0  0  0  0  0  0  0  0  0  0  0
    1.6487   12.2430    3.3818 C   0  0  0  0  0  0  0  0  0  0  0  0
    1.1956   12.9772    2.7082 H   0  0  0  0  0  0  0  0  0  0  0  0
    0.8797   11.8859    4.0690 H   0  0  0  0  0  0  0  0  0  0  0  0
    2.2141   11.0830    2.5669 C   0  0  0  0  0  0  0  0  0  0  0  0
    1.4038   10.4963    2.1303 H   0  0  0  0  0  0  0  0  0  0  0  0
    2.7831   10.4271    3.2317 H   0  0  0  0  0  0  0  0  0  0  0  0
    3.1237   11.5962    1.4464 C   0  0  0  0  0  0  0  0  0  0  0  0
    3.6998   10.7630    1.0360 H   0  0  0  0  0  0  0  0  0  0  0  0
    2.5026   11.9975    0.6389 H   0  0  0  0  0  0  0  0  0  0  0  0
    4.0526   12.6613    1.9545 C   0  0  0  0  0  0  0  0  0  0  0  0
    5.2728   13.1387    1.3923 C   0  0  0  0  0  0  0  0  0  0  0  0
    7.2596   14.5789    2.3013 C   0  0  0  0  0  0  0  0  0  0  0  0
    7.9875   13.8170    2.0103 H   0  0  0  0  0  0  0  0  0  0  0  0
    7.5312   14.9250    3.3019 H   0  0  0  0  0  0  0  0  0  0  0  0
    7.2873   15.7560    1.3043 C   0  0  0  0  0  0  0  0  0  0  0  0
    7.9793   16.5294    1.6480 H   0  0  0  0  0  0  0  0  0  0  0  0
    7.6376   15.4144    0.3268 H   0  0  0  0  0  0  0  0  0  0  0  0
    5.9060   16.3242    1.1429 C   0  0  0  0  0  0  0  0  0  0  0  0
    5.1106   16.1892   -0.0205 C   0  0  2  0  0  0  0  0  0  0  0  0
    5.4194   15.7216   -0.9483 H   0  0  0  0  0  0  0  0  0  0  0  0
    3.9657   17.0113    0.1399 C   0  0  0  0  0  0  0  0  0  0  0  0
    2.9396   17.3729   -0.8891 C   0  0  0  0  0  0  0  0  0  0  0  0
    2.6348   16.4959   -1.4664 H   0  0  0  0  0  0  0  0  0  0  0  0
    3.3823   18.0932   -1.5893 H   0  0  0  0  0  0  0  0  0  0  0  0
    1.7384   18.0081   -0.1914 C   0  0  0  0  0  0  0  0  0  0  0  0
    1.2505   17.2570    0.4378 H   0  0  0  0  0  0  0  0  0  0  0  0
    1.0171   18.3578   -0.9320 H   0  0  0  0  0  0  0  0  0  0  0  0
    2.2149   19.1698    0.6762 C   0  0  0  0  0  0  0  0  0  0  0  0
    1.3612   19.7341    1.0558 H   0  0  0  0  0  0  0  0  0  0  0  0
    2.8181   19.8455    0.0633 H   0  0  0  0  0  0  0  0  0  0  0  0
    3.0477   18.6627    1.8576 C   0  0  0  0  0  0  0  0  0  0  0  0
    3.5774   19.5020    2.3155 H   0  0  0  0  0  0  0  0  0  0  0  0
    2.3756   18.2443    2.6138 H   0  0  0  0  0  0  0  0  0  0  0  0
    4.0307   17.6181    1.4132 C   0  0  0  0  0  0  0  0  0  0  0  0
    5.2085   17.1525    2.0669 C   0  0  0  0  0  0  0  0  0  0  0  0
    5.9905   12.6306    0.1642 C   0  0  0  0  0  0  0  0  0  0  0  0
    6.7824   13.3486   -0.0811 H   0  0  0  0  0  0  0  0  0  0  0  0
    6.6679   11.2909    0.4868 C   0  0  0  0  0  0  0  0  0  0  0  0
    7.2424   10.9445   -0.3697 H   0  0  0  0  0  0  0  0  0  0  0  0
    5.9269   10.5348    0.7321 H   0  0  0  0  0  0  0  0  0  0  0  0
    7.3387   11.3955    1.3369 H   0  0  0  0  0  0  0  0  0  0  0  0
    5.0942   12.4949   -1.0683 C   0  0  0  0  0  0  0  0  0  0  0  0
    5.7068   12.3383   -1.9547 H   0  0  0  0  0  0  0  0  0  0  0  0
    4.4945   13.3934   -1.2101 H   0  0  0  0  0  0  0  0  0  0  0  0
    4.4190   11.6503   -0.9716 H   0  0  0  0  0  0  0  0  0  0  0  0
    5.8076   17.6513    3.3606 C   0  0  0  0  0  0  0  0  0  0  0  0
    6.5805   16.9369    3.6685 H   0  0  0  0  0  0  0  0  0  0  0  0
    6.4994   19.0005    3.1191 C   0  0  0  0  0  0  0  0  0  0  0  0
    6.9794   19.3450    4.0326 H   0  0  0  0  0  0  0  0  0  0  0  0
    5.7788   19.7510    2.8050 H   0  0  0  0  0  0  0  0  0  0  0  0
    7.2549   18.9105    2.3414 H   0  0  0  0  0  0  0  0  0  0  0  0
    4.7988   17.7639    4.5062 C   0  0  0  0  0  0  0  0  0  0  0  0
    5.3249   17.8733    5.4531 H   0  0  0  0  0  0  0  0  0  0  0  0
    4.1686   16.8763    4.5549 H   0  0  0  0  0  0  0  0  0  0  0  0
    4.1550   18.6286    4.3775 H   0  0  0  0  0  0  0  0  0  0  0  0
  1  2  1  0  0  0  0
  1  5  1  0  0  0  0
  3  1  1  0  0  0  0
  4  5  1  0  0  0  0
  5  6  1  1  0  0  0
  7  5  1  0  0  0  0
  7  8  1  0  0  0  0
  8  9  1  0  0  0  0
  8 10  1  0  0  0  0
 11 13  1  0  0  0  0
 11  8  1  0  0  0  0
 12 11  1  0  0  0  0
 14 16  1  0  0  0  0
 14 11  1  0  0  0  0
 15 14  1  0  0  0  0
 17 20  1  0  0  0  0
 17 14  1  0  0  0  0
 18 17  1  0  0  0  0
 19 17  1  0  0  0  0
 20  7  2  0  0  0  0
 21 20  1  0  0  0  0
 21  4  2  0  0  0  0
 22  4  1  0  0  0  0
 22 24  1  0  0  0  0
 23 22  1  0  0  0  0
 25 26  1  0  0  0  0
 25 22  1  0  0  0  0
 27 25  1  0  0  0  0
 28 25  1  0  0  0  0
 28 45  2  0  0  0  0
 29 30  1  6  0  0  0
 29 31  1  0  0  0  0
 29 28  1  0  0  0  0
 29  1  1  0  0  0  0
 31 44  2  0  0  0  0
 32 35  1  0  0  0  0
 32 31  1  0  0  0  0
 33 32  1  0  0  0  0
 34 32  1  0  0  0  0
 35 36  1  0  0  0  0
 35 38  1  0  0  0  0
 37 35  1  0  0  0  0
 38 39  1  0  0  0  0
 38 41  1  0  0  0  0
 40 38  1  0  0  0  0
 41 42  1  0  0  0  0
 41 43  1  0  0  0  0
 44 41  1  0  0  0  0
 44 45  1  0  0  0  0
 45 56  1  0  0  0  0
 46 48  1  0  0  0  0
 46 21  1  0  0  0  0
 47 46  1  0  0  0  0
 48 50  1  0  0  0  0
 48 51  1  0  0  0  0
 49 48  1  0  0  0  0
 52 55  1  0  0  0  0
 52 46  1  0  0  0  0
 53 52  1  0  0  0  0
 54 52  1  0  0  0  0
 56 57  1  0  0  0  0
 56 62  1  0  0  0  0
 58 56  1  0  0  0  0
 58 59  1  0  0  0  0
 60 58  1  0  0  0  0
 61 58  1  0  0  0  0
 62 64  1  0  0  0  0
 62 63  1  0  0  0  0
 65 62  1  0  0  0  0
M  END
$$$$
