CSD_code = BOHBAC | q = 0 | S = 0 | Stoichiometry = C48H36Cl2N4O2Pd | MND = 4
 OpenBabel04212202013D

 93100  0  0  0  0  0  0  0  0999 V2000
   -3.1536    3.9766   13.3416 Pd  0  0  0  0  0  0  0  0  0  0  0  0
   -1.8471    2.8437   14.8380 Cl  0  0  0  0  0  0  0  0  0  0  0  0
   -4.4583    5.1054   11.8456 Cl  0  0  0  0  0  0  0  0  0  0  0  0
    1.1452   14.9444   17.2553 O   0  0  0  0  0  0  0  0  0  0  0  0
    0.7655   15.1951   18.1097 H   0  0  0  0  0  0  0  0  0  0  0  0
   -7.3896   -6.7150    8.7025 O   0  0  0  0  0  0  0  0  0  0  0  0
   -6.7124   -7.1509    8.1653 H   0  0  0  0  0  0  0  0  0  0  0  0
   -0.8454   10.0243   15.7200 N   0  0  0  0  0  0  0  0  0  0  0  0
   -5.3684   -1.9976   10.7475 N   0  0  0  0  0  0  0  0  0  0  0  0
   -2.2816    5.6254   13.8340 N   0  0  0  0  0  0  0  0  0  0  0  0
   -1.0817    5.9155   13.3282 C   0  0  0  0  0  3  0  0  0  0  0  0
   -0.6594    5.1849   12.6377 H   0  0  0  0  0  0  0  0  0  0  0  0
   -0.4008    7.0678   13.6609 C   0  0  0  0  0  0  0  0  0  0  0  0
    0.5702    7.2655   13.2327 H   0  0  0  0  0  0  0  0  0  0  0  0
   -0.9807    7.9735   14.5545 C   0  0  0  0  0  0  0  0  0  0  0  0
   -2.2420    7.6541   15.0714 C   0  0  0  0  0  0  0  0  0  0  0  0
   -2.7130    8.3349   15.7613 H   0  0  0  0  0  0  0  0  0  0  0  0
   -2.8508    6.4789   14.6899 C   0  0  0  0  0  0  0  0  0  0  0  0
   -3.8323    6.1949   15.0692 H   0  0  0  0  0  0  0  0  0  0  0  0
   -0.2982    9.1956   14.9266 C   0  0  0  0  0  0  0  0  0  0  0  0
    0.7038    9.3326   14.5008 H   0  0  0  0  0  0  0  0  0  0  0  0
   -0.2845   11.2278   16.0750 C   0  0  0  0  0  0  0  0  0  0  0  0
    0.5487   11.9806   15.2430 C   0  0  0  0  0  0  0  0  0  0  0  0
    0.7997   11.6115   14.2595 H   0  0  0  0  0  0  0  0  0  0  0  0
    1.0347   13.2160   15.6365 C   0  0  0  0  0  0  0  0  0  0  0  0
    0.6989   13.7122   16.9060 C   0  0  0  0  0  0  0  0  0  0  0  0
   -0.1361   12.9662   17.7522 C   0  0  0  0  0  0  0  0  0  0  0  0
   -0.6360   11.7496   17.3206 C   0  0  0  0  0  0  0  0  0  0  0  0
   -1.2725   11.1674   17.9687 H   0  0  0  0  0  0  0  0  0  0  0  0
    1.8855   13.9944   14.7187 C   0  0  0  0  0  0  0  0  0  0  0  0
    1.5106   14.1496   13.3868 C   0  0  0  0  0  0  0  0  0  0  0  0
    0.5781   13.7246   13.0433 H   0  0  0  0  0  0  0  0  0  0  0  0
    2.3087   14.8619   12.5111 C   0  0  0  0  0  0  0  0  0  0  0  0
    2.0032   14.9808   11.4816 H   0  0  0  0  0  0  0  0  0  0  0  0
    3.4952   15.4235   12.9517 C   0  0  0  0  0  0  0  0  0  0  0  0
    4.1189   15.9794   12.2672 H   0  0  0  0  0  0  0  0  0  0  0  0
    3.8774   15.2704   14.2738 C   0  0  0  0  0  0  0  0  0  0  0  0
    4.8037   15.7042   14.6216 H   0  0  0  0  0  0  0  0  0  0  0  0
    3.0790   14.5626   15.1529 C   0  0  0  0  0  0  0  0  0  0  0  0
    3.3848   14.4402   16.1803 H   0  0  0  0  0  0  0  0  0  0  0  0
   -0.5098   13.4783   19.0863 C   0  0  0  0  0  0  0  0  0  0  0  0
    0.4620   13.8920   19.9965 C   0  0  0  0  0  0  0  0  0  0  0  0
    1.5097   13.8091   19.7406 H   0  0  0  0  0  0  0  0  0  0  0  0
    0.0972   14.3642   21.2453 C   0  0  0  0  0  0  0  0  0  0  0  0
    0.8602   14.6749   21.9438 H   0  0  0  0  0  0  0  0  0  0  0  0
   -1.2390   14.4325   21.6001 C   0  0  0  0  0  0  0  0  0  0  0  0
   -1.5222   14.8029   22.5738 H   0  0  0  0  0  0  0  0  0  0  0  0
   -2.2109   14.0171   20.7042 C   0  0  0  0  0  0  0  0  0  0  0  0
   -3.2541   14.0639   20.9795 H   0  0  0  0  0  0  0  0  0  0  0  0
   -1.8506   13.5420   19.4573 C   0  0  0  0  0  0  0  0  0  0  0  0
   -2.6073   13.2251   18.7548 H   0  0  0  0  0  0  0  0  0  0  0  0
   -4.0038    2.3182   12.8464 N   0  0  0  0  0  0  0  0  0  0  0  0
   -3.5869    1.6564   11.7630 C   0  0  0  0  0  3  0  0  0  0  0  0
   -2.7845    2.1258   11.1930 H   0  0  0  0  0  0  0  0  0  0  0  0
   -4.1362    0.4539   11.3789 C   0  0  0  0  0  0  0  0  0  0  0  0
   -3.7911   -0.0701   10.5028 H   0  0  0  0  0  0  0  0  0  0  0  0
   -5.1652   -0.1074   12.1448 C   0  0  0  0  0  0  0  0  0  0  0  0
   -5.5894    0.6003   13.2733 C   0  0  0  0  0  0  0  0  0  0  0  0
   -6.3796    0.2132   13.8984 H   0  0  0  0  0  0  0  0  0  0  0  0
   -4.9869    1.8019   13.5846 C   0  0  0  0  0  0  0  0  0  0  0  0
   -5.2885    2.3802   14.4577 H   0  0  0  0  0  0  0  0  0  0  0  0
   -5.7641   -1.3758   11.7832 C   0  0  0  0  0  0  0  0  0  0  0  0
   -6.5380   -1.7532   12.4631 H   0  0  0  0  0  0  0  0  0  0  0  0
   -5.9093   -3.1801   10.3039 C   0  0  0  0  0  0  0  0  0  0  0  0
   -5.0748   -4.0153    9.5595 C   0  0  0  0  0  0  0  0  0  0  0  0
   -4.0437   -3.7301    9.4197 H   0  0  0  0  0  0  0  0  0  0  0  0
   -5.5352   -5.2180    9.0523 C   0  0  0  0  0  0  0  0  0  0  0  0
   -6.8759   -5.5846    9.2478 C   0  0  0  0  0  0  0  0  0  0  0  0
   -7.7370   -4.7384    9.9643 C   0  0  0  0  0  0  0  0  0  0  0  0
   -7.2422   -3.5567   10.4897 C   0  0  0  0  0  0  0  0  0  0  0  0
   -7.9142   -2.9049   11.0283 H   0  0  0  0  0  0  0  0  0  0  0  0
   -9.1573   -5.0844   10.1528 C   0  0  0  0  0  0  0  0  0  0  0  0
   -9.5381   -6.3484   10.5916 C   0  0  0  0  0  0  0  0  0  0  0  0
   -8.7836   -7.0939   10.7890 H   0  0  0  0  0  0  0  0  0  0  0  0
  -10.8736   -6.6480   10.7870 C   0  0  0  0  0  0  0  0  0  0  0  0
  -11.1572   -7.6317   11.1319 H   0  0  0  0  0  0  0  0  0  0  0  0
  -11.8463   -5.6931   10.5441 C   0  0  0  0  0  0  0  0  0  0  0  0
  -12.8893   -5.9299   10.6950 H   0  0  0  0  0  0  0  0  0  0  0  0
  -11.4764   -4.4329   10.1052 C   0  0  0  0  0  0  0  0  0  0  0  0
  -12.2309   -3.6847    9.9100 H   0  0  0  0  0  0  0  0  0  0  0  0
  -10.1415   -4.1290    9.9138 C   0  0  0  0  0  0  0  0  0  0  0  0
   -9.8567   -3.1492    9.5576 H   0  0  0  0  0  0  0  0  0  0  0  0
   -4.6193   -6.0852    8.2835 C   0  0  0  0  0  0  0  0  0  0  0  0
   -3.8879   -5.5558    7.2231 C   0  0  0  0  0  0  0  0  0  0  0  0
   -4.0089   -4.5133    6.9684 H   0  0  0  0  0  0  0  0  0  0  0  0
   -3.0270   -6.3566    6.4966 C   0  0  0  0  0  0  0  0  0  0  0  0
   -2.4672   -5.9351    5.6749 H   0  0  0  0  0  0  0  0  0  0  0  0
   -2.8811   -7.6962    6.8190 C   0  0  0  0  0  0  0  0  0  0  0  0
   -2.2083   -8.3203    6.2503 H   0  0  0  0  0  0  0  0  0  0  0  0
   -3.5954   -8.2302    7.8775 C   0  0  0  0  0  0  0  0  0  0  0  0
   -3.4764   -9.2706    8.1417 H   0  0  0  0  0  0  0  0  0  0  0  0
   -4.4606   -7.4323    8.6059 C   0  0  0  0  0  0  0  0  0  0  0  0
   -4.9880   -7.8494    9.4533 H   0  0  0  0  0  0  0  0  0  0  0  0
  1 10  1  0  0  0  0
  1  2  1  0  0  0  0
  3  1  1  0  0  0  0
  4  5  1  0  0  0  0
  6 68  1  0  0  0  0
  7  6  1  0  0  0  0
  8 22  1  0  0  0  0
  9 62  2  0  0  0  0
 10 18  1  0  0  0  0
 11 13  1  0  0  0  0
 11 10  1  0  0  0  0
 12 11  1  0  0  0  0
 13 15  2  0  0  0  0
 14 13  1  0  0  0  0
 15 20  1  0  0  0  0
 15 16  1  0  0  0  0
 16 17  1  0  0  0  0
 18 19  1  0  0  0  0
 18 16  2  0  0  0  0
 20  8  2  0  0  0  0
 21 20  1  0  0  0  0
 22 28  1  0  0  0  0
 23 25  1  0  0  0  0
 23 22  2  0  0  0  0
 24 23  1  0  0  0  0
 25 26  2  0  0  0  0
 26  4  1  0  0  0  0
 26 27  1  0  0  0  0
 27 41  1  0  0  0  0
 28 27  2  0  0  0  0
 28 29  1  0  0  0  0
 30 39  1  0  0  0  0
 30 25  1  0  0  0  0
 31 30  2  0  0  0  0
 32 31  1  0  0  0  0
 33 35  2  0  0  0  0
 33 31  1  0  0  0  0
 34 33  1  0  0  0  0
 35 37  1  0  0  0  0
 36 35  1  0  0  0  0
 37 38  1  0  0  0  0
 37 39  2  0  0  0  0
 39 40  1  0  0  0  0
 41 50  2  0  0  0  0
 41 42  1  0  0  0  0
 42 44  2  0  0  0  0
 43 42  1  0  0  0  0
 44 46  1  0  0  0  0
 44 45  1  0  0  0  0
 46 47  1  0  0  0  0
 48 49  1  0  0  0  0
 48 46  2  0  0  0  0
 50 48  1  0  0  0  0
 51 50  1  0  0  0  0
 52  1  1  0  0  0  0
 52 60  1  0  0  0  0
 53 52  1  0  0  0  0
 54 53  1  0  0  0  0
 55 53  1  0  0  0  0
 55 57  2  0  0  0  0
 56 55  1  0  0  0  0
 57 58  1  0  0  0  0
 58 60  2  0  0  0  0
 58 59  1  0  0  0  0
 60 61  1  0  0  0  0
 62 57  1  0  0  0  0
 62 63  1  0  0  0  0
 64 70  1  0  0  0  0
 64  9  1  0  0  0  0
 65 64  2  0  0  0  0
 66 65  1  0  0  0  0
 67 68  2  0  0  0  0
 67 65  1  0  0  0  0
 68 69  1  0  0  0  0
 69 72  1  0  0  0  0
 69 70  2  0  0  0  0
 70 71  1  0  0  0  0
 72 73  1  0  0  0  0
 73 75  2  0  0  0  0
 73 74  1  0  0  0  0
 75 76  1  0  0  0  0
 77 78  1  0  0  0  0
 77 75  1  0  0  0  0
 79 77  2  0  0  0  0
 80 79  1  0  0  0  0
 81 79  1  0  0  0  0
 81 72  2  0  0  0  0
 82 81  1  0  0  0  0
 83 92  1  0  0  0  0
 83 67  1  0  0  0  0
 84 83  2  0  0  0  0
 85 84  1  0  0  0  0
 86 88  2  0  0  0  0
 86 84  1  0  0  0  0
 87 86  1  0  0  0  0
 88 90  1  0  0  0  0
 89 88  1  0  0  0  0
 90 91  1  0  0  0  0
 90 92  2  0  0  0  0
 92 93  1  0  0  0  0
M  END
$$$$
