CSD_code = BOHGUB | q = 0 | S = 0 | Stoichiometry = C29H34Cl4N4Ti | MND = 5
 OpenBabel04212202013D

 72 75  0  0  1  0  0  0  0  0999 V2000
    2.8529   16.4306    0.4943 C   0  0  0  0  0  0  0  0  0  0  0  0
    1.7667   17.2501    0.0850 C   0  0  0  0  0  0  0  0  0  0  0  0
    1.9289   18.3487   -0.7240 C   0  0  0  0  0  0  0  0  0  0  0  0
    1.0666   18.9365   -0.9989 H   0  0  0  0  0  0  0  0  0  0  0  0
    3.1922   18.6936   -1.1890 C   0  0  0  0  0  0  0  0  0  0  0  0
    3.3165   19.5611   -1.8161 H   0  0  0  0  0  0  0  0  0  0  0  0
    4.2900   17.9051   -0.8675 C   0  0  0  0  0  0  0  0  0  0  0  0
    5.2711   18.1415   -1.2493 H   0  0  0  0  0  0  0  0  0  0  0  0
    4.1113   16.8068   -0.0635 C   0  0  0  0  0  0  0  0  0  0  0  0
    4.5004   14.7391    3.5726 C   0  0  1  0  0  3  0  0  0  0  0  0
    5.2328   14.7225    5.6880 C   0  0  0  0  0  0  0  0  0  0  0  0
    5.7460   14.3387    6.5463 H   0  0  0  0  0  0  0  0  0  0  0  0
    4.5554   15.8785    5.4980 C   0  0  0  0  0  0  0  0  0  0  0  0
    4.3549   16.6953    6.1613 H   0  0  0  0  0  0  0  0  0  0  0  0
    5.9044   12.8239    4.3031 C   0  0  0  0  0  0  0  0  0  0  0  0
    7.1433   12.8837    3.6601 C   0  0  0  0  0  0  0  0  0  0  0  0
    7.8501   11.7064    3.4843 C   0  0  0  0  0  0  0  0  0  0  0  0
    8.8015   11.7357    2.9735 H   0  0  0  0  0  0  0  0  0  0  0  0
    7.3542   10.4898    3.9340 C   0  0  0  0  0  0  0  0  0  0  0  0
    6.1405   10.4693    4.6029 C   0  0  0  0  0  0  0  0  0  0  0  0
    5.7515    9.5306    4.9706 H   0  0  0  0  0  0  0  0  0  0  0  0
    5.4019   11.6264    4.8102 C   0  0  0  0  0  0  0  0  0  0  0  0
    4.1082   11.5890    5.5624 C   0  0  0  0  0  0  0  0  0  0  0  0
    3.2896   11.9382    4.9318 H   0  0  0  0  0  0  0  0  0  0  0  0
    4.1501   12.2309    6.4425 H   0  0  0  0  0  0  0  0  0  0  0  0
    3.8862   10.5754    5.8848 H   0  0  0  0  0  0  0  0  0  0  0  0
    7.6844   14.1892    3.1587 C   0  0  0  0  0  0  0  0  0  0  0  0
    7.1277   14.5033    2.2729 H   0  0  0  0  0  0  0  0  0  0  0  0
    8.7295   14.0831    2.8802 H   0  0  0  0  0  0  0  0  0  0  0  0
    7.6003   14.9700    3.9158 H   0  0  0  0  0  0  0  0  0  0  0  0
    8.1251    9.2289    3.6905 C   0  0  0  0  0  0  0  0  0  0  0  0
    9.1753    9.3655    3.9428 H   0  0  0  0  0  0  0  0  0  0  0  0
    8.0675    8.9606    2.6357 H   0  0  0  0  0  0  0  0  0  0  0  0
    7.7242    8.4058    4.2767 H   0  0  0  0  0  0  0  0  0  0  0  0
    3.4468   16.9903    3.6293 C   0  0  0  0  0  0  0  0  0  0  0  0
    4.2159   17.9920    3.0360 C   0  0  0  0  0  0  0  0  0  0  0  0
    3.5666   19.1026    2.5192 C   0  0  0  0  0  0  0  0  0  0  0  0
    4.1487   19.8749    2.0386 H   0  0  0  0  0  0  0  0  0  0  0  0
    2.1888   19.2383    2.6025 C   0  0  0  0  0  0  0  0  0  0  0  0
    1.4552   18.2428    3.2323 C   0  0  0  0  0  0  0  0  0  0  0  0
    0.3827   18.3439    3.3102 H   0  0  0  0  0  0  0  0  0  0  0  0
    2.0618   17.1080    3.7486 C   0  0  0  0  0  0  0  0  0  0  0  0
    5.7118   17.8907    2.9952 C   0  0  0  0  0  0  0  0  0  0  0  0
    6.0309   16.8843    2.7296 H   0  0  0  0  0  0  0  0  0  0  0  0
    6.1310   18.1347    3.9730 H   0  0  0  0  0  0  0  0  0  0  0  0
    6.1172   18.5865    2.2664 H   0  0  0  0  0  0  0  0  0  0  0  0
    1.2616   16.0290    4.4050 C   0  0  0  0  0  0  0  0  0  0  0  0
    1.6352   15.8136    5.4063 H   0  0  0  0  0  0  0  0  0  0  0  0
    1.3330   15.1124    3.8143 H   0  0  0  0  0  0  0  0  0  0  0  0
    0.2162   16.3160    4.4744 H   0  0  0  0  0  0  0  0  0  0  0  0
    1.5085   20.4505    2.0457 C   0  0  0  0  0  0  0  0  0  0  0  0
    0.4858   20.2186    1.7601 H   0  0  0  0  0  0  0  0  0  0  0  0
    2.0444   20.8236    1.1765 H   0  0  0  0  0  0  0  0  0  0  0  0
    1.4815   21.2419    2.7958 H   0  0  0  0  0  0  0  0  0  0  0  0
    2.4179   11.5533    0.0231 C   0  0  0  0  0  0  0  0  0  0  0  0
    3.4122   11.1085   -0.0523 H   0  0  0  0  0  0  0  0  0  0  0  0
    1.8034   11.1845   -0.8105 H   0  0  0  0  0  0  0  0  0  0  0  0
    1.9632   11.2390    0.9643 H   0  0  0  0  0  0  0  0  0  0  0  0
    3.0907   13.4568   -1.2847 C   0  0  0  0  0  0  0  0  0  0  0  0
    2.5389   13.0248   -2.1326 H   0  0  0  0  0  0  0  0  0  0  0  0
    4.1361   13.1402   -1.3516 H   0  0  0  0  0  0  0  0  0  0  0  0
    3.0396   14.5461   -1.3558 H   0  0  0  0  0  0  0  0  0  0  0  0
    2.7569   15.4060    1.2987 N   0  0  0  0  0  2  0  0  0  0  0  0
    4.1151   15.8684    4.2025 N   0  0  0  0  0  0  0  0  0  0  0  0
    5.1860   14.0400    4.5023 N   0  0  0  0  0  0  0  0  0  0  0  0
    2.5398   13.0106   -0.0058 N   0  0  0  0  0  4  0  0  0  0  0  0
    1.5978   13.4060    0.0946 H   0  0  0  0  0  0  0  0  0  0  0  0
    5.2734   12.5790    1.1867 Cl  0  0  0  0  0  0  0  0  0  0  0  0
    2.1219   12.8475    3.0348 Cl  0  0  0  0  0  0  0  0  0  0  0  0
    0.1994   16.7816    0.6365 Cl  0  0  0  0  0  0  0  0  0  0  0  0
    5.3960   15.7081    0.3332 Cl  0  0  0  0  0  0  0  0  0  0  0  0
    3.6179   13.9726    1.7476 Ti  0  0  0  0  0  0  0  0  0  0  0  0
  1 63  1  0  0  0  0
  2  1  1  0  0  0  0
  2 70  1  0  0  0  0
  3  2  2  0  0  0  0
  4  3  1  0  0  0  0
  5  7  2  0  0  0  0
  5  3  1  0  0  0  0
  6  5  1  0  0  0  0
  7  9  1  0  0  0  0
  8  7  1  0  0  0  0
  9 71  1  0  0  0  0
  9  1  2  0  0  0  0
 10 72  1  1  0  0  0
 10 64  1  0  0  0  0
 10 65  1  0  0  0  0
 11 12  1  0  0  0  0
 13 11  2  0  0  0  0
 13 14  1  0  0  0  0
 15 65  1  0  0  0  0
 15 22  1  0  0  0  0
 16 15  2  0  0  0  0
 17 16  1  0  0  0  0
 17 19  2  0  0  0  0
 18 17  1  0  0  0  0
 19 20  1  0  0  0  0
 20 22  2  0  0  0  0
 20 21  1  0  0  0  0
 22 23  1  0  0  0  0
 23 26  1  0  0  0  0
 23 25  1  0  0  0  0
 24 23  1  0  0  0  0
 27 16  1  0  0  0  0
 27 30  1  0  0  0  0
 28 27  1  0  0  0  0
 29 27  1  0  0  0  0
 31 19  1  0  0  0  0
 31 32  1  0  0  0  0
 31 34  1  0  0  0  0
 33 31  1  0  0  0  0
 35 42  1  0  0  0  0
 35 64  1  0  0  0  0
 36 35  2  0  0  0  0
 37 39  2  0  0  0  0
 37 36  1  0  0  0  0
 38 37  1  0  0  0  0
 39 40  1  0  0  0  0
 40 41  1  0  0  0  0
 40 42  2  0  0  0  0
 42 47  1  0  0  0  0
 43 36  1  0  0  0  0
 43 45  1  0  0  0  0
 44 43  1  0  0  0  0
 46 43  1  0  0  0  0
 47 50  1  0  0  0  0
 47 48  1  0  0  0  0
 49 47  1  0  0  0  0
 51 39  1  0  0  0  0
 51 54  1  0  0  0  0
 52 51  1  0  0  0  0
 53 51  1  0  0  0  0
 55 58  1  0  0  0  0
 56 55  1  0  0  0  0
 57 55  1  0  0  0  0
 59 66  1  0  0  0  0
 60 59  1  0  0  0  0
 61 59  1  0  0  0  0
 62 59  1  0  0  0  0
 63 72  1  0  0  0  0
 64 13  1  0  0  0  0
 65 11  1  0  0  0  0
 66 55  1  0  0  0  0
 66 67  1  0  0  0  0
 66 72  1  0  0  0  0
 68 72  1  0  0  0  0
 72 69  1  0  0  0  0
M  END
$$$$
