CSD_code = BOHJIS | q = 0 | S = 0 | Stoichiometry = C13H12Cl2N4O2Ru | MND = 6
 OpenBabel04212202013D

 34 36  0  0  1  0  0  0  0  0999 V2000
    1.9878   10.4446   12.5215 C   0  0  0  0  0  2  0  0  0  0  0  0
    0.1027   12.2295   13.1973 C   0  0  0  0  0  2  0  0  0  0  0  0
    2.2079    8.0131   14.3755 C   0  0  0  0  0  0  0  0  0  0  0  0
    3.1718    7.5194   15.2579 C   0  0  0  0  0  0  0  0  0  0  0  0
    3.1802    7.8790   16.2755 H   0  0  0  0  0  0  0  0  0  0  0  0
    4.1212    6.6274   14.8016 C   0  0  0  0  0  0  0  0  0  0  0  0
    4.8821    6.2643   15.4758 H   0  0  0  0  0  0  0  0  0  0  0  0
    4.1010    6.2007   13.4821 C   0  0  0  0  0  0  0  0  0  0  0  0
    4.8467    5.5042   13.1301 H   0  0  0  0  0  0  0  0  0  0  0  0
    3.1235    6.6653   12.6139 C   0  0  0  0  0  0  0  0  0  0  0  0
    3.0976    6.3180   11.5925 H   0  0  0  0  0  0  0  0  0  0  0  0
    2.1807    7.5752   13.0485 C   0  0  0  0  0  0  0  0  0  0  0  0
    1.3914    7.9162   12.3910 H   0  0  0  0  0  0  0  0  0  0  0  0
   -0.0842    9.6723   16.3539 C   0  0  1  0  0  3  0  0  0  0  0  0
   -1.4733   11.3074   16.1715 C   0  0  0  0  0  0  0  0  0  0  0  0
   -1.9989   12.1261   15.7201 H   0  0  0  0  0  0  0  0  0  0  0  0
   -1.6079   10.7829   17.4336 C   0  0  0  0  0  0  0  0  0  0  0  0
   -2.2530   11.0652   18.2400 H   0  0  0  0  0  0  0  0  0  0  0  0
   -0.4356    8.9552   18.7040 C   0  0  0  0  0  0  0  0  0  0  0  0
   -1.3539    8.8367   19.2843 H   0  0  0  0  0  0  0  0  0  0  0  0
   -0.0937    7.9768   18.3594 H   0  0  0  0  0  0  0  0  0  0  0  0
    0.6489    9.6262   19.5420 C   0  0  0  0  0  0  0  0  0  0  0  0
    1.5452    9.7723   18.9442 H   0  0  0  0  0  0  0  0  0  0  0  0
    0.8939    9.0021   20.3963 H   0  0  0  0  0  0  0  0  0  0  0  0
    0.3116   10.5956   19.9012 H   0  0  0  0  0  0  0  0  0  0  0  0
   -0.9947    9.4117   12.6621 Cl  0  0  0  0  0  0  0  0  0  0  0  0
    2.2605   11.7046   15.3244 Cl  0  0  0  0  0  0  0  0  0  0  0  0
    1.2564    8.9341   14.8022 N   0  0  0  0  0  0  0  0  0  0  0  0
    0.8471    8.7650   16.0048 N   0  0  0  0  0  2  0  0  0  0  0  0
   -0.5275   10.6110   15.5093 N   0  0  0  0  0  0  0  0  0  0  0  0
   -0.7344    9.7459   17.5368 N   0  0  0  0  0  0  0  0  0  0  0  0
    2.8026   10.4121   11.7271 O   0  0  0  0  0  1  0  0  0  0  0  0
   -0.3007   13.2381   12.8679 O   0  0  0  0  0  1  0  0  0  0  0  0
    0.7098   10.5813   13.8639 Ru  0  0  0  0  0  0  0  0  0  0  0  0
  1 34  1  0  0  0  0
  2 34  1  0  0  0  0
  3 28  1  0  0  0  0
  3  4  1  0  0  0  0
  4  5  1  0  0  0  0
  6  4  2  0  0  0  0
  6  7  1  0  0  0  0
  8  6  1  0  0  0  0
  9  8  1  0  0  0  0
 10 12  1  0  0  0  0
 10  8  2  0  0  0  0
 11 10  1  0  0  0  0
 12  3  2  0  0  0  0
 13 12  1  0  0  0  0
 14 29  1  6  0  0  0
 14 31  1  0  0  0  0
 15 17  2  0  0  0  0
 16 15  1  0  0  0  0
 17 31  1  0  0  0  0
 17 18  1  0  0  0  0
 19 20  1  0  0  0  0
 19 22  1  0  0  0  0
 21 19  1  0  0  0  0
 22 25  1  0  0  0  0
 22 24  1  0  0  0  0
 23 22  1  0  0  0  0
 26 34  1  0  0  0  0
 28 29  1  0  0  0  0
 30 15  1  0  0  0  0
 30 14  1  0  0  0  0
 31 19  1  0  0  0  0
 32  1  1  0  0  0  0
 33  2  1  0  0  0  0
 34 28  1  0  0  0  0
 34 27  1  0  0  0  0
 34 30  1  0  0  0  0
M  END
$$$$
