CSD_code = BOHKOZ | q = 0 | S = 0 | Stoichiometry = C45H45ClOP2Pd | MND = 4
 OpenBabel04212202013D

 95101  0  0  1  0  0  0  0  0999 V2000
    0.3275    4.0495   12.2683 Pd  0  0  1  0  0  0  0  0  0  0  0  0
   -1.4019    6.4728   10.5877 C   0  0  0  0  0  0  0  0  0  0  0  0
   -1.6063    7.5410   10.6622 H   0  0  0  0  0  0  0  0  0  0  0  0
   -1.8409    5.9763   11.4574 H   0  0  0  0  0  0  0  0  0  0  0  0
   -1.8446    6.1009    9.6657 H   0  0  0  0  0  0  0  0  0  0  0  0
    0.0937    6.2665   10.5597 C   0  0  0  0  0  0  0  0  0  0  0  0
    0.7827    6.0476   11.8056 C   0  0  2  0  0  0  0  0  0  0  0  0
    0.5721    6.6673   12.6794 H   0  0  0  0  0  0  0  0  0  0  0  0
    3.5248    7.0105   10.7847 C   0  0  0  0  0  0  0  0  0  0  0  0
    3.5531    7.3883    9.4460 C   0  0  0  0  0  0  0  0  0  0  0  0
    2.9399    6.8566    8.7345 H   0  0  0  0  0  0  0  0  0  0  0  0
    4.3459    8.4482    9.0525 C   0  0  0  0  0  0  0  0  0  0  0  0
    4.3719    8.7389    8.0118 H   0  0  0  0  0  0  0  0  0  0  0  0
    5.1101    9.1552    9.9764 C   0  0  0  0  0  0  0  0  0  0  0  0
    5.9498   10.3129    9.5331 C   0  0  0  0  0  0  0  0  0  0  0  0
    5.3142   11.1739    9.3248 H   0  0  0  0  0  0  0  0  0  0  0  0
    6.4888   10.0699    8.6194 H   0  0  0  0  0  0  0  0  0  0  0  0
    6.6650   10.5946   10.3018 H   0  0  0  0  0  0  0  0  0  0  0  0
    5.0586    8.7801   11.3143 C   0  0  0  0  0  0  0  0  0  0  0  0
    5.6402    9.3253   12.0444 H   0  0  0  0  0  0  0  0  0  0  0  0
    4.2715    7.7202   11.7204 C   0  0  0  0  0  0  0  0  0  0  0  0
    4.2364    7.4313   12.7631 H   0  0  0  0  0  0  0  0  0  0  0  0
    2.4033    4.2515   10.2719 C   0  0  0  0  0  0  0  0  0  0  0  0
    1.3756    3.3853   10.6688 C   0  0  0  0  0  0  0  0  0  0  0  0
    1.2197    2.2254    9.9181 C   0  0  0  0  0  0  0  0  0  0  0  0
    0.4464    1.5086   10.1735 H   0  0  0  0  0  0  0  0  0  0  0  0
    2.0426    1.9368    8.8353 C   0  0  0  0  0  0  0  0  0  0  0  0
    1.8432    0.6805    8.0408 C   0  0  0  0  0  0  0  0  0  0  0  0
    2.7259    0.0449    8.1097 H   0  0  0  0  0  0  0  0  0  0  0  0
    1.6848    0.9176    6.9895 H   0  0  0  0  0  0  0  0  0  0  0  0
    0.9843    0.1223    8.4059 H   0  0  0  0  0  0  0  0  0  0  0  0
    3.0682    2.8143    8.4967 C   0  0  0  0  0  0  0  0  0  0  0  0
    3.7160    2.5816    7.6628 H   0  0  0  0  0  0  0  0  0  0  0  0
    3.2586    3.9777    9.2153 C   0  0  0  0  0  0  0  0  0  0  0  0
    4.0528    4.6651    8.9570 H   0  0  0  0  0  0  0  0  0  0  0  0
    3.2745    4.9488   12.8155 C   0  0  0  0  0  0  0  0  0  0  0  0
    2.6071    4.6795   14.0123 C   0  0  0  0  0  0  0  0  0  0  0  0
    1.6189    5.0927   14.2214 H   0  0  0  0  0  0  0  0  0  0  0  0
    3.2322    3.9127   14.9811 C   0  0  0  0  0  0  0  0  0  0  0  0
    2.7168    3.7112   15.9098 H   0  0  0  0  0  0  0  0  0  0  0  0
    4.5068    3.3916   14.7817 C   0  0  0  0  0  0  0  0  0  0  0  0
    5.1278    2.5013   15.8125 C   0  0  0  0  0  0  0  0  0  0  0  0
    6.2028    2.4249   15.6691 H   0  0  0  0  0  0  0  0  0  0  0  0
    4.6990    1.5010   15.7358 H   0  0  0  0  0  0  0  0  0  0  0  0
    4.9297    2.8732   16.8155 H   0  0  0  0  0  0  0  0  0  0  0  0
    5.1730    3.6934   13.5998 C   0  0  0  0  0  0  0  0  0  0  0  0
    6.1710    3.3122   13.4348 H   0  0  0  0  0  0  0  0  0  0  0  0
    4.5631    4.4597   12.6247 C   0  0  0  0  0  0  0  0  0  0  0  0
    5.0763    4.6756   11.6955 H   0  0  0  0  0  0  0  0  0  0  0  0
    1.1296    0.7820   13.2190 C   0  0  0  0  0  0  0  0  0  0  0  0
    0.9219   -0.4458   13.8426 C   0  0  0  0  0  0  0  0  0  0  0  0
   -0.0706   -0.7250   14.1692 H   0  0  0  0  0  0  0  0  0  0  0  0
    1.9867   -1.2931   14.0751 C   0  0  0  0  0  0  0  0  0  0  0  0
    1.8176   -2.2458   14.5575 H   0  0  0  0  0  0  0  0  0  0  0  0
    3.2822   -0.9338   13.7124 C   0  0  0  0  0  0  0  0  0  0  0  0
    4.4241   -1.8671   13.9755 C   0  0  0  0  0  0  0  0  0  0  0  0
    4.3557   -2.7362   13.3214 H   0  0  0  0  0  0  0  0  0  0  0  0
    4.3994   -2.2242   15.0038 H   0  0  0  0  0  0  0  0  0  0  0  0
    5.3775   -1.3768   13.7955 H   0  0  0  0  0  0  0  0  0  0  0  0
    3.4858    0.3028   13.1146 C   0  0  0  0  0  0  0  0  0  0  0  0
    4.4855    0.6100   12.8416 H   0  0  0  0  0  0  0  0  0  0  0  0
    2.4233    1.1536   12.8737 C   0  0  0  0  0  0  0  0  0  0  0  0
    2.5920    2.1251   12.4217 H   0  0  0  0  0  0  0  0  0  0  0  0
   -1.0672    1.8281   14.5680 C   0  0  0  0  0  0  0  0  0  0  0  0
   -0.3056    1.9623   15.7253 C   0  0  0  0  0  0  0  0  0  0  0  0
    0.7631    2.1151   15.6358 H   0  0  0  0  0  0  0  0  0  0  0  0
   -0.9090    1.9164   16.9650 C   0  0  0  0  0  0  0  0  0  0  0  0
   -0.3099    2.0277   17.8582 H   0  0  0  0  0  0  0  0  0  0  0  0
   -2.2838    1.7438   17.0789 C   0  0  0  0  0  0  0  0  0  0  0  0
   -2.9459    1.6839   18.4215 C   0  0  0  0  0  0  0  0  0  0  0  0
   -3.1984    0.6522   18.6693 H   0  0  0  0  0  0  0  0  0  0  0  0
   -3.8679    2.2616   18.4195 H   0  0  0  0  0  0  0  0  0  0  0  0
   -2.2897    2.0709   19.1970 H   0  0  0  0  0  0  0  0  0  0  0  0
   -3.0380    1.6189   15.9183 C   0  0  0  0  0  0  0  0  0  0  0  0
   -4.1095    1.4958   15.9924 H   0  0  0  0  0  0  0  0  0  0  0  0
   -2.4427    1.6655   14.6722 C   0  0  0  0  0  0  0  0  0  0  0  0
   -3.0474    1.5878   13.7791 H   0  0  0  0  0  0  0  0  0  0  0  0
   -1.4235    1.3277   11.7954 C   0  0  0  0  0  0  0  0  0  0  0  0
   -1.7308   -0.0158   11.6239 C   0  0  0  0  0  0  0  0  0  0  0  0
   -1.2092   -0.7702   12.1944 H   0  0  0  0  0  0  0  0  0  0  0  0
   -2.6937   -0.3906   10.7035 C   0  0  0  0  0  0  0  0  0  0  0  0
   -2.9227   -1.4390   10.5713 H   0  0  0  0  0  0  0  0  0  0  0  0
   -3.3699    0.5576    9.9455 C   0  0  0  0  0  0  0  0  0  0  0  0
   -4.4289    0.1501    8.9682 C   0  0  0  0  0  0  0  0  0  0  0  0
   -4.3653    0.7466    8.0607 H   0  0  0  0  0  0  0  0  0  0  0  0
   -5.4161    0.3090    9.4032 H   0  0  0  0  0  0  0  0  0  0  0  0
   -4.3375   -0.9016    8.7080 H   0  0  0  0  0  0  0  0  0  0  0  0
   -3.0529    1.9022   10.1187 C   0  0  0  0  0  0  0  0  0  0  0  0
   -3.5652    2.6484    9.5283 H   0  0  0  0  0  0  0  0  0  0  0  0
   -2.0878    2.2859   11.0273 C   0  0  0  0  0  0  0  0  0  0  0  0
   -1.8230    3.3450   11.1470 H   0  0  0  0  0  0  0  0  0  0  0  0
    0.7487    6.2481    9.5123 O   0  0  0  0  0  0  0  0  0  0  0  0
    2.4545    5.6723   11.3588 P   0  0  0  0  0  4  0  0  0  0  0  0
   -0.2095    1.9935   12.9772 P   0  0  0  0  0  4  0  0  0  0  0  0
   -1.0611    4.8659   13.9960 Cl  0  0  0  0  0  0  0  0  0  0  0  0
  1 94  1  0  0  0  0
  1 95  1  6  0  0  0
  2  3  1  0  0  0  0
  2  4  1  0  0  0  0
  5  2  1  0  0  0  0
  6  2  1  0  0  0  0
  6  7  1  0  0  0  0
  7  1  1  0  0  0  0
  7  8  1  1  0  0  0
  9 93  1  0  0  0  0
  9 21  1  0  0  0  0
 10  9  2  0  0  0  0
 11 10  1  0  0  0  0
 12 10  1  0  0  0  0
 12 14  2  0  0  0  0
 13 12  1  0  0  0  0
 14 19  1  0  0  0  0
 15 14  1  0  0  0  0
 15 18  1  0  0  0  0
 16 15  1  0  0  0  0
 17 15  1  0  0  0  0
 19 21  2  0  0  0  0
 19 20  1  0  0  0  0
 21 22  1  0  0  0  0
 23 24  1  0  0  0  0
 23 93  1  0  0  0  0
 24  1  1  0  0  0  0
 25 26  1  0  0  0  0
 25 24  2  0  0  0  0
 27 25  1  0  0  0  0
 28 29  1  0  0  0  0
 28 31  1  0  0  0  0
 28 27  1  0  0  0  0
 30 28  1  0  0  0  0
 32 27  2  0  0  0  0
 32 34  1  0  0  0  0
 33 32  1  0  0  0  0
 34 23  2  0  0  0  0
 35 34  1  0  0  0  0
 36 37  1  0  0  0  0
 37 38  1  0  0  0  0
 37 39  2  0  0  0  0
 39 40  1  0  0  0  0
 41 39  1  0  0  0  0
 41 42  1  0  0  0  0
 42 45  1  0  0  0  0
 43 42  1  0  0  0  0
 44 42  1  0  0  0  0
 46 41  2  0  0  0  0
 47 46  1  0  0  0  0
 48 36  2  0  0  0  0
 48 46  1  0  0  0  0
 49 48  1  0  0  0  0
 50 51  1  0  0  0  0
 51 53  2  0  0  0  0
 51 52  1  0  0  0  0
 53 54  1  0  0  0  0
 55 56  1  0  0  0  0
 55 53  1  0  0  0  0
 56 58  1  0  0  0  0
 57 56  1  0  0  0  0
 59 56  1  0  0  0  0
 60 55  2  0  0  0  0
 61 60  1  0  0  0  0
 62 60  1  0  0  0  0
 62 50  2  0  0  0  0
 63 62  1  0  0  0  0
 64 76  2  0  0  0  0
 64 65  1  0  0  0  0
 65 67  2  0  0  0  0
 66 65  1  0  0  0  0
 67 69  1  0  0  0  0
 67 68  1  0  0  0  0
 69 70  1  0  0  0  0
 70 71  1  0  0  0  0
 70 73  1  0  0  0  0
 72 70  1  0  0  0  0
 74 75  1  0  0  0  0
 74 69  2  0  0  0  0
 76 74  1  0  0  0  0
 77 76  1  0  0  0  0
 78 94  1  0  0  0  0
 79 78  1  0  0  0  0
 79 80  1  0  0  0  0
 81 79  2  0  0  0  0
 82 81  1  0  0  0  0
 83 88  2  0  0  0  0
 83 81  1  0  0  0  0
 84 86  1  0  0  0  0
 84 83  1  0  0  0  0
 85 84  1  0  0  0  0
 87 84  1  0  0  0  0
 88 90  1  0  0  0  0
 89 88  1  0  0  0  0
 90 91  1  0  0  0  0
 90 78  2  0  0  0  0
 92  6  2  0  0  0  0
 93  7  1  0  0  0  0
 93 36  1  0  0  0  0
 94 50  1  0  0  0  0
 94 64  1  0  0  0  0
M  END
$$$$
