CSD_code = BOHLUI | q = 0 | S = 0 | Stoichiometry = C7H10Cl2N2Zn | MND = 4
 OpenBabel04212202013D

 22 23  0  0  1  0  0  0  0  0999 V2000
    5.3933    6.1296    2.8484 Zn  0  0  0  0  0  0  0  0  0  0  0  0
    5.0793    7.3803    4.6105 Cl  0  0  0  0  0  0  0  0  0  0  0  0
    6.4093    6.5043    0.9062 Cl  0  0  0  0  0  0  0  0  0  0  0  0
    3.6219    5.1819    1.9255 N   0  0  0  0  0  4  0  0  0  0  0  0
    6.1165    4.2803    3.5629 N   0  0  0  0  0  0  0  0  0  0  0  0
    3.7247    3.7214    1.8474 C   0  0  0  0  0  0  0  0  0  0  0  0
    3.0747    3.3288    1.0550 H   0  0  0  0  0  0  0  0  0  0  0  0
    3.3929    3.3019    2.8013 H   0  0  0  0  0  0  0  0  0  0  0  0
    5.1714    3.2870    1.5680 C   0  0  0  0  0  0  0  0  0  0  0  0
    5.1725    2.3267    1.0535 H   0  0  0  0  0  0  0  0  0  0  0  0
    5.6359    4.0352    0.9195 H   0  0  0  0  0  0  0  0  0  0  0  0
    5.9757    3.1787    2.8258 C   0  0  2  0  0  3  0  0  0  0  0  0
    6.7926    4.2288    4.7049 C   0  0  0  0  0  0  0  0  0  0  0  0
    6.8461    5.1535    5.2626 H   0  0  0  0  0  0  0  0  0  0  0  0
    7.3848    3.0685    5.1691 C   0  0  0  0  0  0  0  0  0  0  0  0
    7.9289    3.0708    6.0994 H   0  0  0  0  0  0  0  0  0  0  0  0
    7.2601    1.9159    4.4087 C   0  0  0  0  0  0  0  0  0  0  0  0
    7.7102    0.9893    4.7323 H   0  0  0  0  0  0  0  0  0  0  0  0
    6.5406    1.9723    3.2281 C   0  0  0  0  0  0  0  0  0  0  0  0
    6.4166    1.0918    2.6169 H   0  0  0  0  0  0  0  0  0  0  0  0
    2.7073    5.4493    2.2802 H   0  0  0  0  0  0  0  0  0  0  0  0
    3.7055    5.5636    0.9841 H   0  0  0  0  0  0  0  0  0  0  0  0
  1  5  1  0  0  0  0
  1  2  1  0  0  0  0
  3  1  1  0  0  0  0
  4 21  1  0  0  0  0
  4  1  1  0  0  0  0
  5 13  1  0  0  0  0
  6  4  1  0  0  0  0
  6  8  1  0  0  0  0
  7  6  1  0  0  0  0
  9  6  1  0  0  0  0
  9 12  1  0  0  0  0
 10  9  1  0  0  0  0
 11  9  1  0  0  0  0
 12 19  1  1  0  0  0
 12  5  1  0  0  0  0
 13 15  2  0  0  0  0
 13 14  1  0  0  0  0
 15 16  1  0  0  0  0
 17 18  1  0  0  0  0
 17 15  1  0  0  0  0
 19 17  2  0  0  0  0
 20 19  1  0  0  0  0
 22  4  1  0  0  0  0
M  END
$$$$
