CSD_code = BOHLIV | q = 0 | S = 0 | Stoichiometry = C37H54ClIrN2O2 | MND = 6
 OpenBabel04212202013D

 97 99  0  0  1  0  0  0  0  0999 V2000
    0.2219    0.9898    4.3762 Ir  0  0  0  0  0  0  0  0  0  0  0  0
    0.3621    1.1564    6.6971 Cl  0  0  0  0  0 15  0  0  0  0  0  0
    2.5626   -5.2248    5.3319 O   0  0  0  0  0  0  0  0  0  0  0  0
    1.3749    6.9118    1.5845 O   0  0  0  0  0  0  0  0  0  0  0  0
    3.0620    0.3213    5.0593 N   0  0  0  0  0  0  0  0  0  0  0  0
    2.8682    2.4021    4.4748 N   0  0  0  0  0  0  0  0  0  0  0  0
    2.2313    1.2200    4.5044 C   0  0  0  0  0  3  0  0  0  0  0  0
    4.3418    0.8992    5.4683 C   0  0  0  0  0  0  0  0  0  0  0  0
    4.1656    2.3799    5.1410 C   0  0  0  0  0  0  0  0  0  0  0  0
    2.8930   -1.0914    5.1064 C   0  0  0  0  0  0  0  0  0  0  0  0
    3.0075   -1.8389    3.9270 C   0  0  0  0  0  0  0  0  0  0  0  0
    2.8976   -3.2223    3.9793 C   0  0  0  0  0  0  0  0  0  0  0  0
    2.6853   -3.8742    5.1832 C   0  0  0  0  0  0  0  0  0  0  0  0
    2.6091   -3.1238    6.3497 C   0  0  0  0  0  0  0  0  0  0  0  0
    2.7126   -1.7446    6.3357 C   0  0  0  0  0  0  0  0  0  0  0  0
    3.3239   -1.1928    2.5958 C   0  0  0  0  0  0  0  0  0  0  0  0
    2.5947   -1.8571    1.4247 C   0  0  0  0  0  0  0  0  0  0  0  0
    4.8348   -1.2420    2.3408 C   0  0  0  0  0  0  0  0  0  0  0  0
    2.6759   -1.0096    7.6549 C   0  0  0  0  0  0  0  0  0  0  0  0
    1.4691   -1.4148    8.5017 C   0  0  0  0  0  0  0  0  0  0  0  0
    3.9708   -1.2781    8.4298 C   0  0  0  0  0  0  0  0  0  0  0  0
    2.6204   -6.0346    4.1847 C   0  0  0  0  0  0  0  0  0  0  0  0
    2.4637    3.5689    3.7728 C   0  0  0  0  0  0  0  0  0  0  0  0
    1.6845    4.5410    4.3988 C   0  0  0  0  0  0  0  0  0  0  0  0
    1.3075    5.6711    3.6831 C   0  0  0  0  0  0  0  0  0  0  0  0
    1.7034    5.8448    2.3669 C   0  0  0  0  0  0  0  0  0  0  0  0
    2.5112    4.8823    1.7671 C   0  0  0  0  0  0  0  0  0  0  0  0
    2.9010    3.7464    2.4507 C   0  0  0  0  0  0  0  0  0  0  0  0
    1.2691    4.4093    5.8425 C   0  0  0  0  0  0  0  0  0  0  0  0
   -0.2442    4.5479    6.0034 C   0  0  0  0  0  0  0  0  0  0  0  0
    2.0071    5.4426    6.6977 C   0  0  0  0  0  0  0  0  0  0  0  0
    3.8112    2.7474    1.7708 C   0  0  0  0  0  0  0  0  0  0  0  0
    3.2134    2.2243    0.4637 C   0  0  0  0  0  0  0  0  0  0  0  0
    5.1801    3.3828    1.5078 C   0  0  0  0  0  0  0  0  0  0  0  0
    0.5487    7.9120    2.1276 C   0  0  0  0  0  0  0  0  0  0  0  0
   -0.0270    0.4618    2.3246 C   0  0  0  0  0  3  0  0  0  0  0  0
   -0.1536    1.8551    2.4842 C   0  0  1  0  0  0  0  0  0  0  0  0
   -1.4665    2.6053    2.4544 C   0  0  0  0  0  0  0  0  0  0  0  0
   -2.5442    1.9839    3.3614 C   0  0  0  0  0  0  0  0  0  0  0  0
   -1.9399    1.2620    4.5428 C   0  0  0  0  0  3  0  0  0  0  0  0
   -1.6312   -0.0840    4.5476 C   0  0  0  0  0  3  0  0  0  0  0  0
   -1.7973   -1.0166    3.3716 C   0  0  0  0  0  0  0  0  0  0  0  0
   -1.2113   -0.4494    2.0664 C   0  0  0  0  0  0  0  0  0  0  0  0
    5.1608    0.4343    4.9078 H   0  0  0  0  0  0  0  0  0  0  0  0
    4.5185    0.7320    6.5313 H   0  0  0  0  0  0  0  0  0  0  0  0
    4.1278    2.9999    6.0429 H   0  0  0  0  0  0  0  0  0  0  0  0
    4.9462    2.7737    4.4847 H   0  0  0  0  0  0  0  0  0  0  0  0
    2.9944   -3.7862    3.0675 H   0  0  0  0  0  0  0  0  0  0  0  0
    2.4708   -3.6566    7.2756 H   0  0  0  0  0  0  0  0  0  0  0  0
    3.0089   -0.1474    2.6403 H   0  0  0  0  0  0  0  0  0  0  0  0
    1.5599   -2.0627    1.6834 H   0  0  0  0  0  0  0  0  0  0  0  0
    3.0735   -2.7917    1.1409 H   0  0  0  0  0  0  0  0  0  0  0  0
    2.6149   -1.2021    0.5560 H   0  0  0  0  0  0  0  0  0  0  0  0
    5.1797   -2.2737    2.3140 H   0  0  0  0  0  0  0  0  0  0  0  0
    5.3862   -0.7247    3.1217 H   0  0  0  0  0  0  0  0  0  0  0  0
    5.0690   -0.7741    1.3869 H   0  0  0  0  0  0  0  0  0  0  0  0
    2.5750    0.0596    7.4622 H   0  0  0  0  0  0  0  0  0  0  0  0
    1.5184   -2.4562    8.8083 H   0  0  0  0  0  0  0  0  0  0  0  0
    0.5548   -1.2519    7.9403 H   0  0  0  0  0  0  0  0  0  0  0  0
    1.4302   -0.7947    9.3939 H   0  0  0  0  0  0  0  0  0  0  0  0
    4.8505   -1.0504    7.8298 H   0  0  0  0  0  0  0  0  0  0  0  0
    4.0273   -2.3254    8.7180 H   0  0  0  0  0  0  0  0  0  0  0  0
    3.9989   -0.6718    9.3326 H   0  0  0  0  0  0  0  0  0  0  0  0
    3.5944   -5.9632    3.6886 H   0  0  0  0  0  0  0  0  0  0  0  0
    1.8297   -5.7804    3.4711 H   0  0  0  0  0  0  0  0  0  0  0  0
    2.4725   -7.0550    4.5352 H   0  0  0  0  0  0  0  0  0  0  0  0
    0.7031    6.4151    4.1746 H   0  0  0  0  0  0  0  0  0  0  0  0
    2.8225    5.0544    0.7496 H   0  0  0  0  0  0  0  0  0  0  0  0
    1.5343    3.4119    6.1968 H   0  0  0  0  0  0  0  0  0  0  0  0
   -0.7444    3.8610    5.3265 H   0  0  0  0  0  0  0  0  0  0  0  0
   -0.5846    5.5608    5.7989 H   0  0  0  0  0  0  0  0  0  0  0  0
   -0.5248    4.2865    7.0201 H   0  0  0  0  0  0  0  0  0  0  0  0
    1.7241    6.4546    6.4151 H   0  0  0  0  0  0  0  0  0  0  0  0
    3.0848    5.3462    6.5767 H   0  0  0  0  0  0  0  0  0  0  0  0
    1.7618    5.2970    7.7468 H   0  0  0  0  0  0  0  0  0  0  0  0
    3.9523    1.8902    2.4334 H   0  0  0  0  0  0  0  0  0  0  0  0
    3.0770    3.0282   -0.2543 H   0  0  0  0  0  0  0  0  0  0  0  0
    2.2487    1.7576    0.6439 H   0  0  0  0  0  0  0  0  0  0  0  0
    3.8796    1.4848    0.0236 H   0  0  0  0  0  0  0  0  0  0  0  0
    5.0923    4.1990    0.7957 H   0  0  0  0  0  0  0  0  0  0  0  0
    5.8670    2.6435    1.1009 H   0  0  0  0  0  0  0  0  0  0  0  0
    5.6061    3.7822    2.4262 H   0  0  0  0  0  0  0  0  0  0  0  0
    1.0224    8.4056    2.9826 H   0  0  0  0  0  0  0  0  0  0  0  0
   -0.4228    7.5095    2.4321 H   0  0  0  0  0  0  0  0  0  0  0  0
    0.4020    8.6392    1.3305 H   0  0  0  0  0  0  0  0  0  0  0  0
   -1.8289    2.6632    1.4217 H   0  0  0  0  0  0  0  0  0  0  0  0
   -1.2674    3.6287    2.7810 H   0  0  0  0  0  0  0  0  0  0  0  0
   -3.2020    2.7763    3.7252 H   0  0  0  0  0  0  0  0  0  0  0  0
   -3.1643    1.2882    2.7937 H   0  0  0  0  0  0  0  0  0  0  0  0
   -2.8597   -1.2516    3.2409 H   0  0  0  0  0  0  0  0  0  0  0  0
   -1.2864   -1.9520    3.6116 H   0  0  0  0  0  0  0  0  0  0  0  0
   -0.8942   -1.2815    1.4332 H   0  0  0  0  0  0  0  0  0  0  0  0
   -1.9745    0.0979    1.5110 H   0  0  0  0  0  0  0  0  0  0  0  0
    0.8916    0.1174    1.8645 H   0  0  0  0  0  0  0  0  0  0  0  0
    0.6704    2.4724    2.1327 H   0  0  0  0  0  0  0  0  0  0  0  0
   -2.1200    1.7337    5.5044 H   0  0  0  0  0  0  0  0  0  0  0  0
   -1.6095   -0.5951    5.5087 H   0  0  0  0  0  0  0  0  0  0  0  0
  1  7  1  0  0  0  0
  4 35  1  0  0  0  0
  4 26  1  0  0  0  0
  5 10  1  0  0  0  0
  5  8  1  0  0  0  0
  6  7  1  0  0  0  0
  6  9  1  0  0  0  0
  7  5  1  0  0  0  0
  8 45  1  0  0  0  0
  9  8  1  0  0  0  0
  9 46  1  0  0  0  0
 10 15  1  0  0  0  0
 11 12  1  0  0  0  0
 11 10  2  0  0  0  0
 12 13  2  0  0  0  0
 13  3  1  0  0  0  0
 13 14  1  0  0  0  0
 14 49  1  0  0  0  0
 15 14  2  0  0  0  0
 15 19  1  0  0  0  0
 16 50  1  0  0  0  0
 16 11  1  0  0  0  0
 17 51  1  0  0  0  0
 17 16  1  0  0  0  0
 18 16  1  0  0  0  0
 18 55  1  0  0  0  0
 19 21  1  0  0  0  0
 19 20  1  0  0  0  0
 20 58  1  0  0  0  0
 20 60  1  0  0  0  0
 21 62  1  0  0  0  0
 21 63  1  0  0  0  0
 22 66  1  0  0  0  0
 22  3  1  0  0  0  0
 23 24  1  0  0  0  0
 23  6  1  0  0  0  0
 24 29  1  0  0  0  0
 25 67  1  0  0  0  0
 25 24  2  0  0  0  0
 26 25  1  0  0  0  0
 27 26  2  0  0  0  0
 27 28  1  0  0  0  0
 28 23  2  0  0  0  0
 29 30  1  0  0  0  0
 29 69  1  0  0  0  0
 29 31  1  0  0  0  0
 30 72  1  0  0  0  0
 31 75  1  0  0  0  0
 32 76  1  0  0  0  0
 32 28  1  0  0  0  0
 33 78  1  0  0  0  0
 33 32  1  0  0  0  0
 34 32  1  0  0  0  0
 34 82  1  0  0  0  0
 35 84  1  0  0  0  0
 35 83  1  0  0  0  0
 36 37  1  0  0  0  0
 37 95  1  6  0  0  0
 37  1  1  0  0  0  0
 38 37  1  0  0  0  0
 38 87  1  0  0  0  0
 38 39  1  0  0  0  0
 39 88  1  0  0  0  0
 39 40  1  0  0  0  0
 40 41  1  0  0  0  0
 40 96  1  0  0  0  0
 41 97  1  0  0  0  0
 42 91  1  0  0  0  0
 42 41  1  0  0  0  0
 43 36  1  0  0  0  0
 43 42  1  0  0  0  0
 44  8  1  0  0  0  0
 47  9  1  0  0  0  0
 48 12  1  0  0  0  0
 52 17  1  0  0  0  0
 53 17  1  0  0  0  0
 54 18  1  0  0  0  0
 56 18  1  0  0  0  0
 57 19  1  0  0  0  0
 59 20  1  0  0  0  0
 61 21  1  0  0  0  0
 64 22  1  0  0  0  0
 65 22  1  0  0  0  0
 68 27  1  0  0  0  0
 70 30  1  0  0  0  0
 71 30  1  0  0  0  0
 73 31  1  0  0  0  0
 74 31  1  0  0  0  0
 77 33  1  0  0  0  0
 79 33  1  0  0  0  0
 80 34  1  0  0  0  0
 81 34  1  0  0  0  0
 85 35  1  0  0  0  0
 86 38  1  0  0  0  0
 89 39  1  0  0  0  0
 90 42  1  0  0  0  0
 92 43  1  0  0  0  0
 93 43  1  0  0  0  0
 94 36  1  0  0  0  0
M  END
$$$$
