CSD_code = BOHNUJ | q = 0 | S = 0 | Stoichiometry = C40H46Cl2O8Ti | MND = 12
 OpenBabel04212202013D

 97104  0  0  1  0  0  0  0  0999 V2000
   -0.0000   13.9306    4.0193 Ti  0  0  0  0  0  0  0  0  0  0  0  0
   -1.5138   14.3911    5.6046 Cl  0  0  0  0  0  0  0  0  0  0  0  0
    0.6121   16.1502    4.2815 C   0  0  1  0  0  0  0  0  0  0  0  0
    1.6698   15.5309    3.5720 C   0  0  0  0  0  0  0  0  0  0  0  0
    2.6981   15.4656    3.9049 H   0  0  0  0  0  0  0  0  0  0  0  0
    1.1768   15.1133    2.3223 C   0  0  0  0  0  0  0  0  0  0  0  0
    1.7769   14.7201    1.5132 H   0  0  0  0  0  0  0  0  0  0  0  0
   -0.1825   15.4947    2.2397 C   0  0  0  0  0  0  0  0  0  0  0  0
   -0.7999   15.4425    1.3538 H   0  0  0  0  0  0  0  0  0  0  0  0
   -0.5306   16.1342    3.4436 C   0  0  0  0  0  0  0  0  0  0  0  0
   -1.4688   16.6288    3.6598 H   0  0  0  0  0  0  0  0  0  0  0  0
    0.7227   16.7997    5.6265 C   0  0  0  0  0  0  0  0  0  0  0  0
    1.3552   16.1920    6.2816 H   0  0  0  0  0  0  0  0  0  0  0  0
   -0.2691   16.9033    6.0743 H   0  0  0  0  0  0  0  0  0  0  0  0
    1.3570   18.1856    5.5180 C   0  0  2  0  0  0  0  0  0  0  0  0
    2.2910   18.1246    4.9421 H   0  0  0  0  0  0  0  0  0  0  0  0
    1.6747   18.8108    6.8912 C   0  0  2  0  0  0  0  0  0  0  0  0
    0.9753   18.4291    7.6537 H   0  0  0  0  0  0  0  0  0  0  0  0
    1.3952   20.3307    6.6789 C   0  0  2  0  0  0  0  0  0  0  0  0
    0.7219   20.7275    7.4427 H   0  0  0  0  0  0  0  0  0  0  0  0
    0.8057   20.3801    5.2498 C   0  0  2  0  0  0  0  0  0  0  0  0
   -0.0963   20.9944    5.1339 H   0  0  0  0  0  0  0  0  0  0  0  0
    2.9375   21.3156    5.2839 C   0  0  0  0  0  0  0  0  0  0  0  0
    3.2149   22.8034    5.0567 C   0  0  0  0  0  0  0  0  0  0  0  0
    2.3041   23.3727    5.2216 H   0  0  0  0  0  0  0  0  0  0  0  0
    3.5529   22.9559    4.0370 H   0  0  0  0  0  0  0  0  0  0  0  0
    3.9761   23.1368    5.7549 H   0  0  0  0  0  0  0  0  0  0  0  0
    4.1746   20.4715    4.9619 C   0  0  0  0  0  0  0  0  0  0  0  0
    5.0580   20.9457    5.3788 H   0  0  0  0  0  0  0  0  0  0  0  0
    4.2749   20.3913    3.8836 H   0  0  0  0  0  0  0  0  0  0  0  0
    4.0759   19.4812    5.3981 H   0  0  0  0  0  0  0  0  0  0  0  0
    3.3629   18.8343    8.5515 C   0  0  0  0  0  0  0  0  0  0  0  0
    2.6043   18.4501    9.2552 H   0  0  0  0  0  0  0  0  0  0  0  0
    3.4119   19.9251    8.6591 H   0  0  0  0  0  0  0  0  0  0  0  0
    4.6972   18.2068    8.8513 C   0  0  0  0  0  0  0  0  0  0  0  0
    4.9386   16.8881    8.4871 C   0  0  0  0  0  0  0  0  0  0  0  0
    4.1670   16.3322    7.9767 H   0  0  0  0  0  0  0  0  0  0  0  0
    6.1581   16.2981    8.7657 C   0  0  0  0  0  0  0  0  0  0  0  0
    6.3369   15.2732    8.4757 H   0  0  0  0  0  0  0  0  0  0  0  0
    7.1451   17.0171    9.4188 C   0  0  0  0  0  0  0  0  0  0  0  0
    8.0965   16.5556    9.6395 H   0  0  0  0  0  0  0  0  0  0  0  0
    6.9094   18.3308    9.7858 C   0  0  0  0  0  0  0  0  0  0  0  0
    7.6771   18.8969   10.2929 H   0  0  0  0  0  0  0  0  0  0  0  0
    5.6925   18.9250    9.4987 C   0  0  0  0  0  0  0  0  0  0  0  0
    5.5132   19.9527    9.7805 H   0  0  0  0  0  0  0  0  0  0  0  0
    0.4581   19.0861    4.8884 O   0  0  0  0  0  0  0  0  0  0  0  0
    1.8366   20.9206    4.4730 O   0  0  0  0  0  0  0  0  0  0  0  0
    2.5305   21.1410    6.6345 O   0  0  0  0  0  0  0  0  0  0  0  0
    2.9881   18.4893    7.2287 O   0  0  0  0  0  0  0  0  0  0  0  0
    1.5153   13.4696    5.6028 Cl  0  0  0  0  0  0  0  0  0  0  0  0
   -0.6124   11.7108    4.2817 C   0  0  1  0  0  0  0  0  0  0  0  0
   -1.6704   12.3306    3.5731 C   0  0  0  0  0  0  0  0  0  0  0  0
   -2.6985   12.3960    3.9067 H   0  0  0  0  0  0  0  0  0  0  0  0
   -1.1783   12.7483    2.3231 C   0  0  0  0  0  0  0  0  0  0  0  0
   -1.7789   13.1418    1.5145 H   0  0  0  0  0  0  0  0  0  0  0  0
    0.1810   12.3666    2.2395 C   0  0  0  0  0  0  0  0  0  0  0  0
    0.7977   12.4189    1.3531 H   0  0  0  0  0  0  0  0  0  0  0  0
    0.5297   11.7267    3.4429 C   0  0  0  0  0  0  0  0  0  0  0  0
    1.4680   11.2319    3.6584 H   0  0  0  0  0  0  0  0  0  0  0  0
   -0.7222   11.0611    5.6266 C   0  0  0  0  0  0  0  0  0  0  0  0
   -1.3543   11.6686    6.2822 H   0  0  0  0  0  0  0  0  0  0  0  0
    0.2700   10.9573    6.0737 H   0  0  0  0  0  0  0  0  0  0  0  0
   -1.3566    9.6752    5.5181 C   0  0  2  0  0  0  0  0  0  0  0  0
   -2.2907    9.7364    4.9424 H   0  0  0  0  0  0  0  0  0  0  0  0
   -1.6742    9.0500    6.8913 C   0  0  2  0  0  0  0  0  0  0  0  0
   -0.9747    9.4317    7.6538 H   0  0  0  0  0  0  0  0  0  0  0  0
   -1.3949    7.5301    6.6790 C   0  0  2  0  0  0  0  0  0  0  0  0
   -0.7215    7.1332    7.4428 H   0  0  0  0  0  0  0  0  0  0  0  0
   -0.8055    7.4806    5.2499 C   0  0  2  0  0  0  0  0  0  0  0  0
    0.0966    6.8664    5.1339 H   0  0  0  0  0  0  0  0  0  0  0  0
   -2.9374    6.5453    5.2842 C   0  0  0  0  0  0  0  0  0  0  0  0
   -3.2152    5.0575    5.0572 C   0  0  0  0  0  0  0  0  0  0  0  0
   -2.3045    4.4881    5.2221 H   0  0  0  0  0  0  0  0  0  0  0  0
   -3.5532    4.9050    4.0375 H   0  0  0  0  0  0  0  0  0  0  0  0
   -3.9764    4.7243    5.7555 H   0  0  0  0  0  0  0  0  0  0  0  0
   -4.1743    7.3896    4.9622 C   0  0  0  0  0  0  0  0  0  0  0  0
   -5.0579    6.9154    5.3787 H   0  0  0  0  0  0  0  0  0  0  0  0
   -4.2744    7.4702    3.8838 H   0  0  0  0  0  0  0  0  0  0  0  0
   -4.0756    8.3798    5.3987 H   0  0  0  0  0  0  0  0  0  0  0  0
   -3.3624    9.0271    8.5519 C   0  0  0  0  0  0  0  0  0  0  0  0
   -2.6039    9.4119    9.2554 H   0  0  0  0  0  0  0  0  0  0  0  0
   -3.4110    7.9364    8.6600 H   0  0  0  0  0  0  0  0  0  0  0  0
   -4.6969    9.6543    8.8511 C   0  0  0  0  0  0  0  0  0  0  0  0
   -4.9386   10.9728    8.4861 C   0  0  0  0  0  0  0  0  0  0  0  0
   -4.1669   11.5287    7.9757 H   0  0  0  0  0  0  0  0  0  0  0  0
   -6.1583   11.5625    8.7639 C   0  0  0  0  0  0  0  0  0  0  0  0
   -6.3374   12.5873    8.4733 H   0  0  0  0  0  0  0  0  0  0  0  0
   -7.1454   10.8436    9.4170 C   0  0  0  0  0  0  0  0  0  0  0  0
   -8.0969   11.3049    9.6371 H   0  0  0  0  0  0  0  0  0  0  0  0
   -6.9094    9.5302    9.7848 C   0  0  0  0  0  0  0  0  0  0  0  0
   -7.6770    8.9641   10.2919 H   0  0  0  0  0  0  0  0  0  0  0  0
   -5.6921    8.9362    9.4985 C   0  0  0  0  0  0  0  0  0  0  0  0
   -5.5126    7.9087    9.7809 H   0  0  0  0  0  0  0  0  0  0  0  0
   -0.4580    8.7746    4.8883 O   0  0  0  0  0  0  0  0  0  0  0  0
   -1.8364    6.9399    4.4732 O   0  0  0  0  0  0  0  0  0  0  0  0
   -2.5303    6.7199    6.6348 O   0  0  0  0  0  0  0  0  0  0  0  0
   -2.9875    9.3716    7.2289 O   0  0  0  0  0  0  0  0  0  0  0  0
  1  3  1  0  0  0  0
  1 51  1  0  0  0  0
  1 50  1  0  0  0  0
  1  2  1  0  0  0  0
  3 12  1  1  0  0  0
  4  5  1  0  0  0  0
  4  3  1  0  0  0  0
  6  4  2  0  0  0  0
  7  6  1  0  0  0  0
  8  6  1  0  0  0  0
  8 10  2  0  0  0  0
  9  8  1  0  0  0  0
 10 11  1  0  0  0  0
 10  3  1  0  0  0  0
 12 14  1  0  0  0  0
 12 13  1  0  0  0  0
 15 16  1  6  0  0  0
 15 12  1  0  0  0  0
 15 17  1  0  0  0  0
 17 49  1  0  0  0  0
 17 18  1  1  0  0  0
 19 17  1  0  0  0  0
 19 20  1  1  0  0  0
 21 22  1  6  0  0  0
 21 19  1  0  0  0  0
 23 48  1  0  0  0  0
 24 25  1  0  0  0  0
 24 23  1  0  0  0  0
 24 27  1  0  0  0  0
 26 24  1  0  0  0  0
 28 23  1  0  0  0  0
 28 29  1  0  0  0  0
 28 31  1  0  0  0  0
 30 28  1  0  0  0  0
 32 34  1  0  0  0  0
 32 35  1  0  0  0  0
 32 33  1  0  0  0  0
 35 44  1  0  0  0  0
 36 38  1  0  0  0  0
 36 35  2  0  0  0  0
 37 36  1  0  0  0  0
 38 40  2  0  0  0  0
 39 38  1  0  0  0  0
 40 41  1  0  0  0  0
 40 42  1  0  0  0  0
 42 43  1  0  0  0  0
 44 45  1  0  0  0  0
 44 42  2  0  0  0  0
 46 21  1  0  0  0  0
 46 15  1  0  0  0  0
 47 21  1  0  0  0  0
 47 23  1  0  0  0  0
 48 19  1  0  0  0  0
 49 32  1  0  0  0  0
 51 60  1  1  0  0  0
 52 53  1  0  0  0  0
 52 51  1  0  0  0  0
 54 52  2  0  0  0  0
 55 54  1  0  0  0  0
 56 54  1  0  0  0  0
 56 58  2  0  0  0  0
 57 56  1  0  0  0  0
 58 59  1  0  0  0  0
 58 51  1  0  0  0  0
 60 62  1  0  0  0  0
 60 61  1  0  0  0  0
 63 64  1  6  0  0  0
 63 60  1  0  0  0  0
 63 65  1  0  0  0  0
 65 97  1  0  0  0  0
 65 66  1  1  0  0  0
 67 65  1  0  0  0  0
 67 68  1  1  0  0  0
 69 70  1  6  0  0  0
 69 67  1  0  0  0  0
 71 96  1  0  0  0  0
 72 73  1  0  0  0  0
 72 71  1  0  0  0  0
 72 75  1  0  0  0  0
 74 72  1  0  0  0  0
 76 71  1  0  0  0  0
 76 77  1  0  0  0  0
 76 79  1  0  0  0  0
 78 76  1  0  0  0  0
 80 82  1  0  0  0  0
 80 83  1  0  0  0  0
 80 81  1  0  0  0  0
 83 92  1  0  0  0  0
 84 86  1  0  0  0  0
 84 83  2  0  0  0  0
 85 84  1  0  0  0  0
 86 88  2  0  0  0  0
 87 86  1  0  0  0  0
 88 89  1  0  0  0  0
 88 90  1  0  0  0  0
 90 91  1  0  0  0  0
 92 93  1  0  0  0  0
 92 90  2  0  0  0  0
 94 69  1  0  0  0  0
 94 63  1  0  0  0  0
 95 69  1  0  0  0  0
 95 71  1  0  0  0  0
 96 67  1  0  0  0  0
 97 80  1  0  0  0  0
M  END
$$$$
