CSD_code = BOHREW | q = 0 | S = 0 | Stoichiometry = C20H30Cl2N6Pd | MND = 4
 OpenBabel04212202013D

 59 61  0  0  0  0  0  0  0  0999 V2000
    2.1287    7.1336    1.8782 C   0  0  0  0  0  0  0  0  0  0  0  0
    1.8451    8.4913    1.8896 C   0  0  0  0  0  0  0  0  0  0  0  0
    0.9368    8.8408    1.4193 H   0  0  0  0  0  0  0  0  0  0  0  0
    2.6915    9.4082    2.5118 C   0  0  0  0  0  0  0  0  0  0  0  0
    2.4208   10.4545    2.5125 H   0  0  0  0  0  0  0  0  0  0  0  0
    3.8255    8.9840    3.1465 C   0  0  0  0  0  0  0  0  0  0  0  0
    4.4549    9.6785    3.6822 H   0  0  0  0  0  0  0  0  0  0  0  0
    4.2152    7.6312    3.0742 C   0  0  0  0  0  0  0  0  0  0  0  0
    5.4289    7.2024    3.6540 C   0  0  0  0  0  0  0  0  0  0  0  0
    6.0132    7.9203    4.2106 H   0  0  0  0  0  0  0  0  0  0  0  0
    5.8635    5.9161    3.5027 C   0  0  0  0  0  0  0  0  0  0  0  0
    6.7879    5.5895    3.9558 H   0  0  0  0  0  0  0  0  0  0  0  0
    5.1365    5.0221    2.7132 C   0  0  0  0  0  0  0  0  0  0  0  0
    5.5056    4.0219    2.5381 H   0  0  0  0  0  0  0  0  0  0  0  0
    3.9333    5.3946    2.1483 C   0  0  0  0  0  0  0  0  0  0  0  0
    3.3997    6.6992    2.3771 C   0  0  0  0  0  0  0  0  0  0  0  0
   -0.0695    6.4141    1.3620 C   0  0  0  0  0  3  0  0  0  0  0  0
   -1.9176    7.8209    2.2117 C   0  0  0  0  0  0  0  0  0  0  0  0
   -2.1780    7.9053    1.1604 H   0  0  0  0  0  0  0  0  0  0  0  0
   -1.7801    8.8272    2.6200 H   0  0  0  0  0  0  0  0  0  0  0  0
   -2.7377    7.3442    2.7557 H   0  0  0  0  0  0  0  0  0  0  0  0
   -0.1351    7.1033    3.7018 C   0  0  0  0  0  0  0  0  0  0  0  0
    0.6030    6.2975    3.8168 H   0  0  0  0  0  0  0  0  0  0  0  0
   -0.9493    6.9129    4.4037 H   0  0  0  0  0  0  0  0  0  0  0  0
    0.3381    8.0602    3.9443 H   0  0  0  0  0  0  0  0  0  0  0  0
   -2.1200    5.3605    0.5101 C   0  0  0  0  0  0  0  0  0  0  0  0
   -2.4230    5.4388    1.5476 H   0  0  0  0  0  0  0  0  0  0  0  0
   -2.0711    4.2947    0.2790 H   0  0  0  0  0  0  0  0  0  0  0  0
   -2.8541    5.8368   -0.1436 H   0  0  0  0  0  0  0  0  0  0  0  0
   -0.0617    5.3383   -0.7602 C   0  0  0  0  0  0  0  0  0  0  0  0
    0.7557    5.9906   -1.0642 H   0  0  0  0  0  0  0  0  0  0  0  0
   -0.7307    5.1712   -1.6023 H   0  0  0  0  0  0  0  0  0  0  0  0
    0.3645    4.3747   -0.4238 H   0  0  0  0  0  0  0  0  0  0  0  0
    3.7611    4.0812    0.1855 C   0  0  0  0  0  3  0  0  0  0  0  0
    3.1910    2.9066   -1.8791 C   0  0  0  0  0  0  0  0  0  0  0  0
    3.6408    3.7907   -2.3219 H   0  0  0  0  0  0  0  0  0  0  0  0
    2.1399    2.8604   -2.1807 H   0  0  0  0  0  0  0  0  0  0  0  0
    3.6987    2.0179   -2.2619 H   0  0  0  0  0  0  0  0  0  0  0  0
    2.4567    2.0124    0.2645 C   0  0  0  0  0  0  0  0  0  0  0  0
    2.8757    1.8108    1.2540 H   0  0  0  0  0  0  0  0  0  0  0  0
    2.4390    1.0857   -0.3080 H   0  0  0  0  0  0  0  0  0  0  0  0
    1.4112    2.3670    0.3978 H   0  0  0  0  0  0  0  0  0  0  0  0
    4.9593    6.1586   -0.4028 C   0  0  0  0  0  0  0  0  0  0  0  0
    4.0064    6.6470   -0.2136 H   0  0  0  0  0  0  0  0  0  0  0  0
    5.3519    6.5180   -1.3576 H   0  0  0  0  0  0  0  0  0  0  0  0
    5.6656    6.4378    0.3870 H   0  0  0  0  0  0  0  0  0  0  0  0
    5.9512    3.9975   -0.8910 C   0  0  0  0  0  0  0  0  0  0  0  0
    5.7552    2.9299   -0.8518 H   0  0  0  0  0  0  0  0  0  0  0  0
    6.7772    4.2276   -0.2081 H   0  0  0  0  0  0  0  0  0  0  0  0
    6.2560    4.2703   -1.9041 H   0  0  0  0  0  0  0  0  0  0  0  0
   -0.6223    3.9428    2.9574 Cl  0  0  0  0  0  0  0  0  0  0  0  0
    2.1947    2.5864    3.4870 Cl  0  0  0  0  0  0  0  0  0  0  0  0
    1.2411    6.2337    1.3058 N   0  0  0  0  0  0  0  0  0  0  0  0
   -0.6789    7.0989    2.3625 N   0  0  0  0  0  0  0  0  0  0  0  0
   -0.8099    5.9581    0.3116 N   0  0  0  0  0  0  0  0  0  0  0  0
    3.2743    4.4898    1.3129 N   0  0  0  0  0  0  0  0  0  0  0  0
    3.2878    2.9647   -0.4376 N   0  0  0  0  0  0  0  0  0  0  0  0
    4.7634    4.7337   -0.5155 N   0  0  0  0  0  0  0  0  0  0  0  0
    1.4687    4.2606    2.1675 Pd  0  0  0  0  0  0  0  0  0  0  0  0
  1  2  2  0  0  0  0
  1 16  1  0  0  0  0
  2  4  1  0  0  0  0
  3  2  1  0  0  0  0
  4  5  1  0  0  0  0
  4  6  2  0  0  0  0
  6  7  1  0  0  0  0
  8  6  1  0  0  0  0
  8  9  1  0  0  0  0
  9 10  1  0  0  0  0
 11  9  2  0  0  0  0
 11 12  1  0  0  0  0
 13 11  1  0  0  0  0
 14 13  1  0  0  0  0
 15 16  1  0  0  0  0
 15 13  2  0  0  0  0
 16  8  2  0  0  0  0
 17 54  1  0  0  0  0
 18 54  1  0  0  0  0
 18 20  1  0  0  0  0
 18 21  1  0  0  0  0
 19 18  1  0  0  0  0
 22 23  1  0  0  0  0
 22 25  1  0  0  0  0
 22 24  1  0  0  0  0
 26 27  1  0  0  0  0
 28 26  1  0  0  0  0
 29 26  1  0  0  0  0
 30 33  1  0  0  0  0
 30 55  1  0  0  0  0
 31 30  1  0  0  0  0
 32 30  1  0  0  0  0
 34 56  1  0  0  0  0
 35 57  1  0  0  0  0
 36 35  1  0  0  0  0
 37 35  1  0  0  0  0
 38 35  1  0  0  0  0
 39 42  1  0  0  0  0
 39 40  1  0  0  0  0
 41 39  1  0  0  0  0
 43 44  1  0  0  0  0
 43 46  1  0  0  0  0
 45 43  1  0  0  0  0
 47 48  1  0  0  0  0
 47 58  1  0  0  0  0
 47 49  1  0  0  0  0
 50 47  1  0  0  0  0
 53 17  1  0  0  0  0
 53  1  1  0  0  0  0
 53 59  1  0  0  0  0
 54 22  1  0  0  0  0
 55 26  1  0  0  0  0
 55 17  1  0  0  0  0
 56 15  1  0  0  0  0
 56 59  1  0  0  0  0
 57 34  1  0  0  0  0
 57 39  1  0  0  0  0
 58 43  1  0  0  0  0
 58 34  1  0  0  0  0
 59 51  1  0  0  0  0
 59 52  1  0  0  0  0
M  END
$$$$
