CSD_code = BOHSEZ | q = 0 | S = 0 | Stoichiometry = C23H28BrMnN2O5 | MND = 6
 OpenBabel04212202013D

 60 62  0  0  1  0  0  0  0  0999 V2000
    9.0506    4.5318    8.5796 Br  0  0  0  0  0  0  0  0  0  0  0  0
    6.7597    4.6761    7.6641 Mn  0  0  0  0  0  0  0  0  0  0  0  0
    5.3305    2.6583    9.5657 O   0  0  0  0  0  0  0  0  0  0  0  0
    7.0596    7.2999    5.9986 O   0  0  0  0  0  0  0  0  0  0  0  0
    7.9101    4.6961    4.9709 O   0  0  0  0  0  1  0  0  0  0  0  0
    6.8362    1.7831    7.2154 O   0  0  0  0  0  1  0  0  0  0  0  0
    4.0723    4.7915    6.5265 O   0  0  0  0  0  1  0  0  0  0  0  0
    6.1486    4.7316    9.6460 N   0  0  0  0  0  0  0  0  0  0  0  0
    6.8801    6.6939    8.1373 N   0  0  0  0  0  0  0  0  0  0  0  0
    7.4562    4.7489    6.0268 C   0  0  0  0  0  2  0  0  0  0  0  0
    6.7759    2.9091    7.4431 C   0  0  0  0  0  2  0  0  0  0  0  0
    5.1215    4.7726    7.0025 C   0  0  0  0  0  2  0  0  0  0  0  0
    4.9535    1.4297   10.1487 C   0  0  0  0  0  0  0  0  0  0  0  0
    4.8154    0.7466    9.3126 H   0  0  0  0  0  0  0  0  0  0  0  0
    4.0137    1.5225   10.7019 H   0  0  0  0  0  0  0  0  0  0  0  0
    5.7376    1.0429   10.8057 H   0  0  0  0  0  0  0  0  0  0  0  0
    5.6804    3.6948   10.3425 C   0  0  1  0  0  3  0  0  0  0  0  0
    5.5631    3.7144   11.7311 C   0  0  0  0  0  0  0  0  0  0  0  0
    5.1956    2.8412   12.2385 H   0  0  0  0  0  0  0  0  0  0  0  0
    5.9268    4.8525   12.4361 C   0  0  0  0  0  0  0  0  0  0  0  0
    6.3674    5.9430   11.6912 C   0  0  0  0  0  0  0  0  0  0  0  0
    6.6476    6.8557   12.1865 H   0  0  0  0  0  0  0  0  0  0  0  0
    6.4670    5.8572   10.3105 C   0  0  0  0  0  0  0  0  0  0  0  0
    5.8560    4.9463   13.9480 C   0  0  0  0  0  0  0  0  0  0  0  0
    7.2630    5.2428   14.4860 C   0  0  0  0  0  0  0  0  0  0  0  0
    7.9559    4.4619   14.1813 H   0  0  0  0  0  0  0  0  0  0  0  0
    7.2434    5.2837   15.5725 H   0  0  0  0  0  0  0  0  0  0  0  0
    7.6400    6.1923   14.1167 H   0  0  0  0  0  0  0  0  0  0  0  0
    5.3555    3.6520   14.5935 C   0  0  0  0  0  0  0  0  0  0  0  0
    4.3467    3.4120   14.2644 H   0  0  0  0  0  0  0  0  0  0  0  0
    5.3329    3.7738   15.6740 H   0  0  0  0  0  0  0  0  0  0  0  0
    6.0171    2.8196   14.3657 H   0  0  0  0  0  0  0  0  0  0  0  0
    4.8964    6.0818   14.3318 C   0  0  0  0  0  0  0  0  0  0  0  0
    5.2403    7.0407   13.9539 H   0  0  0  0  0  0  0  0  0  0  0  0
    4.8205    6.1515   15.4144 H   0  0  0  0  0  0  0  0  0  0  0  0
    3.9037    5.8917   13.9286 H   0  0  0  0  0  0  0  0  0  0  0  0
    7.4788    8.1660    4.9664 C   0  0  0  0  0  0  0  0  0  0  0  0
    7.3661    7.5926    4.0481 H   0  0  0  0  0  0  0  0  0  0  0  0
    8.5274    8.4521    5.0873 H   0  0  0  0  0  0  0  0  0  0  0  0
    6.8502    9.0605    4.9163 H   0  0  0  0  0  0  0  0  0  0  0  0
    6.8916    6.9691    9.4542 C   0  0  2  0  0  3  0  0  0  0  0  0
    7.2581    8.2168    9.9360 C   0  0  0  0  0  0  0  0  0  0  0  0
    7.2796    8.3891   10.9975 H   0  0  0  0  0  0  0  0  0  0  0  0
    7.6205    9.2341    9.0572 C   0  0  0  0  0  0  0  0  0  0  0  0
    7.5550    8.9475    7.7014 C   0  0  0  0  0  0  0  0  0  0  0  0
    7.7990    9.6909    6.9647 H   0  0  0  0  0  0  0  0  0  0  0  0
    7.1769    7.6733    7.2820 C   0  0  0  0  0  0  0  0  0  0  0  0
    8.0614   10.5807    9.5972 C   0  0  0  0  0  0  0  0  0  0  0  0
    9.3152   10.3704   10.4581 C   0  0  0  0  0  0  0  0  0  0  0  0
    9.1131    9.7204   11.3050 H   0  0  0  0  0  0  0  0  0  0  0  0
    9.6682   11.3263   10.8380 H   0  0  0  0  0  0  0  0  0  0  0  0
   10.1083    9.9183    9.8665 H   0  0  0  0  0  0  0  0  0  0  0  0
    6.9307   11.1734   10.4500 C   0  0  0  0  0  0  0  0  0  0  0  0
    6.0274   11.2907    9.8546 H   0  0  0  0  0  0  0  0  0  0  0  0
    7.2249   12.1508   10.8247 H   0  0  0  0  0  0  0  0  0  0  0  0
    6.6986   10.5410   11.3023 H   0  0  0  0  0  0  0  0  0  0  0  0
    8.3990   11.5767    8.4853 C   0  0  0  0  0  0  0  0  0  0  0  0
    9.2172   11.2125    7.8686 H   0  0  0  0  0  0  0  0  0  0  0  0
    8.7113   12.5193    8.9292 H   0  0  0  0  0  0  0  0  0  0  0  0
    7.5330   11.7745    7.8570 H   0  0  0  0  0  0  0  0  0  0  0  0
  2  9  1  0  0  0  0
  2  1  1  0  0  0  0
  2  8  1  0  0  0  0
  3 13  1  0  0  0  0
  4 47  1  0  0  0  0
  5 10  1  0  0  0  0
  6 11  1  0  0  0  0
  7 12  1  0  0  0  0
  8 23  1  0  0  0  0
  8 17  1  0  0  0  0
  9 41  1  0  0  0  0
 10  2  1  0  0  0  0
 11  2  1  0  0  0  0
 12  2  1  0  0  0  0
 13 15  1  0  0  0  0
 13 16  1  0  0  0  0
 14 13  1  0  0  0  0
 17  3  1  6  0  0  0
 17 18  1  0  0  0  0
 18 19  1  0  0  0  0
 18 20  2  0  0  0  0
 20 24  1  0  0  0  0
 21 22  1  0  0  0  0
 21 20  1  0  0  0  0
 23 21  2  0  0  0  0
 24 33  1  0  0  0  0
 24 25  1  0  0  0  0
 24 29  1  0  0  0  0
 25 27  1  0  0  0  0
 26 25  1  0  0  0  0
 28 25  1  0  0  0  0
 29 31  1  0  0  0  0
 30 29  1  0  0  0  0
 32 29  1  0  0  0  0
 33 35  1  0  0  0  0
 34 33  1  0  0  0  0
 36 33  1  0  0  0  0
 37 39  1  0  0  0  0
 37  4  1  0  0  0  0
 38 37  1  0  0  0  0
 40 37  1  0  0  0  0
 41 42  1  6  0  0  0
 41 23  1  0  0  0  0
 42 43  1  0  0  0  0
 44 48  1  0  0  0  0
 44 42  2  0  0  0  0
 45 44  1  0  0  0  0
 46 45  1  0  0  0  0
 47 45  2  0  0  0  0
 47  9  1  0  0  0  0
 48 53  1  0  0  0  0
 48 49  1  0  0  0  0
 49 51  1  0  0  0  0
 49 50  1  0  0  0  0
 52 49  1  0  0  0  0
 53 55  1  0  0  0  0
 53 56  1  0  0  0  0
 54 53  1  0  0  0  0
 57 59  1  0  0  0  0
 57 48  1  0  0  0  0
 58 57  1  0  0  0  0
 60 57  1  0  0  0  0
M  END
$$$$
