CSD_code = BOHSEY | q = 0 | S = 0 | Stoichiometry = C42H43F2N2P2Rh | MND = 4
 OpenBabel04212202013D

 92 97  0  0  0  0  0  0  0  0999 V2000
    8.0067    3.5995   11.9988 Rh  0  0  0  0  0  0  0  0  0  0  0  0
    9.8062    4.2708   13.1870 P   0  0  0  0  0  4  0  0  0  0  0  0
    6.2580    2.9396   10.7329 P   0  0  0  0  0  4  0  0  0  0  0  0
    8.7099    4.6977   10.4140 F   0  0  0  0  0  0  0  0  0  0  0  0
    7.3412    2.5654   13.5583 C   0  0  0  0  0  0  0  0  0  0  0  0
   10.1934    3.3673   14.7276 C   0  0  0  0  0  0  0  0  0  0  0  0
    6.5044    3.1201   14.4402 N   0  0  0  0  0  0  0  0  0  0  0  0
   11.3968    4.1332   12.2959 C   0  0  0  0  0  0  0  0  0  0  0  0
    6.6092    1.8781    9.2854 C   0  0  0  0  0  0  0  0  0  0  0  0
   11.4275    3.3054   11.1793 C   0  0  0  0  0  0  0  0  0  0  0  0
   10.5127    2.8154   10.8648 H   0  0  0  0  0  0  0  0  0  0  0  0
    7.7381    1.3081   13.7776 N   0  0  0  0  0  0  0  0  0  0  0  0
    5.7093    0.9644    8.7453 C   0  0  0  0  0  0  0  0  0  0  0  0
    4.7410    0.8143    9.2034 H   0  0  0  0  0  0  0  0  0  0  0  0
    7.8544    2.0425    8.6864 C   0  0  0  0  0  0  0  0  0  0  0  0
    8.5475    2.7594    9.1037 H   0  0  0  0  0  0  0  0  0  0  0  0
   11.1306    2.3416   14.7641 C   0  0  0  0  0  0  0  0  0  0  0  0
   11.7263    2.1321   13.8859 H   0  0  0  0  0  0  0  0  0  0  0  0
    5.3234    4.2956    9.9397 C   0  0  0  0  0  0  0  0  0  0  0  0
    8.1952    1.3112    7.5636 C   0  0  0  0  0  0  0  0  0  0  0  0
    9.1621    1.4494    7.1022 H   0  0  0  0  0  0  0  0  0  0  0  0
    9.8574    6.0040   13.7601 C   0  0  0  0  0  0  0  0  0  0  0  0
    9.4295    3.6228   15.8632 C   0  0  0  0  0  0  0  0  0  0  0  0
    8.7009    4.4221   15.8364 H   0  0  0  0  0  0  0  0  0  0  0  0
    6.0553    0.2315    7.6242 C   0  0  0  0  0  0  0  0  0  0  0  0
    5.3515   -0.4765    7.2095 H   0  0  0  0  0  0  0  0  0  0  0  0
    5.6128    5.5950   10.3379 C   0  0  0  0  0  0  0  0  0  0  0  0
    6.3832    5.7590   11.0824 H   0  0  0  0  0  0  0  0  0  0  0  0
    3.7839    2.6595   12.0396 C   0  0  0  0  0  0  0  0  0  0  0  0
    3.6494    3.7150   11.8453 H   0  0  0  0  0  0  0  0  0  0  0  0
    7.3890    0.5441   14.9576 C   0  0  0  0  0  0  0  0  0  0  0  0
    8.1365    0.7123   15.7459 H   0  0  0  0  0  0  0  0  0  0  0  0
    7.4000   -0.5190   14.7004 H   0  0  0  0  0  0  0  0  0  0  0  0
    4.9159    2.0147   11.5552 C   0  0  0  0  0  0  0  0  0  0  0  0
   10.5549    6.4368   14.8840 C   0  0  0  0  0  0  0  0  0  0  0  0
   11.0841    5.7261   15.5051 H   0  0  0  0  0  0  0  0  0  0  0  0
   12.5994    3.1355   10.4656 C   0  0  0  0  0  0  0  0  0  0  0  0
   12.6152    2.4959    9.5950 H   0  0  0  0  0  0  0  0  0  0  0  0
    9.1870    8.2744   13.3157 C   0  0  0  0  0  0  0  0  0  0  0  0
    8.6597    8.9858   12.6983 H   0  0  0  0  0  0  0  0  0  0  0  0
    6.0069    0.9563   15.4403 C   0  0  0  0  0  0  0  0  0  0  0  0
    5.7588    0.4520   16.3739 H   0  0  0  0  0  0  0  0  0  0  0  0
    5.2661    0.6853   14.6859 H   0  0  0  0  0  0  0  0  0  0  0  0
    6.0686    4.4859   14.2788 C   0  0  0  0  0  0  0  0  0  0  0  0
    6.5724    4.9114   13.4001 H   0  0  0  0  0  0  0  0  0  0  0  0
    6.3265    5.0772   15.1618 H   0  0  0  0  0  0  0  0  0  0  0  0
    4.9858    4.5278   14.1325 H   0  0  0  0  0  0  0  0  0  0  0  0
    5.0874    0.6597   11.8234 C   0  0  0  0  0  0  0  0  0  0  0  0
    5.9757    0.1592   11.4619 H   0  0  0  0  0  0  0  0  0  0  0  0
    4.1284   -0.0446   12.5269 C   0  0  0  0  0  0  0  0  0  0  0  0
    4.2622   -1.1010   12.7152 H   0  0  0  0  0  0  0  0  0  0  0  0
   10.5638    7.7795   15.2168 C   0  0  0  0  0  0  0  0  0  0  0  0
   11.1078    8.1105   16.0905 H   0  0  0  0  0  0  0  0  0  0  0  0
    8.6671    0.6644   12.8822 C   0  0  0  0  0  0  0  0  0  0  0  0
    8.8407    1.3296   12.0250 H   0  0  0  0  0  0  0  0  0  0  0  0
    8.2568   -0.2841   12.5259 H   0  0  0  0  0  0  0  0  0  0  0  0
    9.6164    0.4689   13.3887 H   0  0  0  0  0  0  0  0  0  0  0  0
    2.9937    0.6031   12.9922 C   0  0  0  0  0  0  0  0  0  0  0  0
    2.2440    0.0535   13.5426 H   0  0  0  0  0  0  0  0  0  0  0  0
    9.8847    8.6996   14.4339 C   0  0  0  0  0  0  0  0  0  0  0  0
    9.9012    9.7469   14.6985 H   0  0  0  0  0  0  0  0  0  0  0  0
    6.0019    2.4642   15.6307 C   0  0  0  0  0  0  0  0  0  0  0  0
    4.9824    2.8176   15.8159 H   0  0  0  0  0  0  0  0  0  0  0  0
    6.6211    2.7389   16.4960 H   0  0  0  0  0  0  0  0  0  0  0  0
    7.2954    0.4031    7.0309 C   0  0  0  0  0  0  0  0  0  0  0  0
    7.5576   -0.1715    6.1544 H   0  0  0  0  0  0  0  0  0  0  0  0
   10.5527    1.8650   17.0450 C   0  0  0  0  0  0  0  0  0  0  0  0
   10.6947    1.2844   17.9449 H   0  0  0  0  0  0  0  0  0  0  0  0
    3.6845    5.1495    8.4080 C   0  0  0  0  0  0  0  0  0  0  0  0
    2.9328    4.9769    7.6508 H   0  0  0  0  0  0  0  0  0  0  0  0
    4.3527    4.0768    8.9679 C   0  0  0  0  0  0  0  0  0  0  0  0
    4.1252    3.0708    8.6451 H   0  0  0  0  0  0  0  0  0  0  0  0
    9.6113    2.8827   17.0156 C   0  0  0  0  0  0  0  0  0  0  0  0
    9.0223    3.0971   17.8970 H   0  0  0  0  0  0  0  0  0  0  0  0
    9.1702    6.9324   12.9849 C   0  0  0  0  0  0  0  0  0  0  0  0
    8.6332    6.5945   12.1097 H   0  0  0  0  0  0  0  0  0  0  0  0
   13.7506    3.7937   10.8645 C   0  0  0  0  0  0  0  0  0  0  0  0
   14.6676    3.6674   10.3074 H   0  0  0  0  0  0  0  0  0  0  0  0
    2.8282    1.9571   12.7522 C   0  0  0  0  0  0  0  0  0  0  0  0
    1.9474    2.4655   13.1181 H   0  0  0  0  0  0  0  0  0  0  0  0
    4.9484    6.6672    9.7716 C   0  0  0  0  0  0  0  0  0  0  0  0
    5.1964    7.6736   10.0723 H   0  0  0  0  0  0  0  0  0  0  0  0
    3.9820    6.4439    8.8061 C   0  0  0  0  0  0  0  0  0  0  0  0
    3.4633    7.2776    8.3555 H   0  0  0  0  0  0  0  0  0  0  0  0
   11.3110    1.5979   15.9175 C   0  0  0  0  0  0  0  0  0  0  0  0
   12.0470    0.8067   15.9378 H   0  0  0  0  0  0  0  0  0  0  0  0
   12.5534    4.7969   12.6886 C   0  0  0  0  0  0  0  0  0  0  0  0
   12.5373    5.4542   13.5461 H   0  0  0  0  0  0  0  0  0  0  0  0
   13.7244    4.6245   11.9734 C   0  0  0  0  0  0  0  0  0  0  0  0
   14.6211    5.1445   12.2791 H   0  0  0  0  0  0  0  0  0  0  0  0
    8.4178    6.9633    9.5231 F   0  0  0  0  0  0  0  0  0  0  0  0
    8.5612    6.0490    9.8144 H   0  0  0  0  0  0  0  0  0  0  0  0
  1  2  1  0  0  0  0
  1  5  2  0  0  0  0
  2 22  1  0  0  0  0
  2  6  1  0  0  0  0
  3 34  1  0  0  0  0
  3  1  1  0  0  0  0
  4  1  1  0  0  0  0
  5 12  1  0  0  0  0
  5  7  1  0  0  0  0
  6 17  2  0  0  0  0
  6 23  1  0  0  0  0
  7 62  1  0  0  0  0
  8 87  1  0  0  0  0
  8  2  1  0  0  0  0
  9  3  1  0  0  0  0
 10  8  2  0  0  0  0
 11 10  1  0  0  0  0
 12 31  1  0  0  0  0
 13 14  1  0  0  0  0
 13  9  1  0  0  0  0
 15 16  1  0  0  0  0
 15  9  2  0  0  0  0
 17 85  1  0  0  0  0
 18 17  1  0  0  0  0
 19 27  1  0  0  0  0
 19  3  1  0  0  0  0
 20 15  1  0  0  0  0
 21 20  1  0  0  0  0
 22 35  1  0  0  0  0
 23 73  2  0  0  0  0
 24 23  1  0  0  0  0
 25 13  2  0  0  0  0
 26 25  1  0  0  0  0
 27 28  1  0  0  0  0
 29 79  1  0  0  0  0
 30 29  1  0  0  0  0
 31 41  1  0  0  0  0
 31 32  1  0  0  0  0
 33 31  1  0  0  0  0
 34 48  1  0  0  0  0
 34 29  2  0  0  0  0
 35 52  2  0  0  0  0
 35 36  1  0  0  0  0
 37 77  2  0  0  0  0
 37 10  1  0  0  0  0
 38 37  1  0  0  0  0
 39 60  2  0  0  0  0
 40 39  1  0  0  0  0
 41 62  1  0  0  0  0
 41 42  1  0  0  0  0
 43 41  1  0  0  0  0
 44  7  1  0  0  0  0
 44 46  1  0  0  0  0
 45 44  1  0  0  0  0
 47 44  1  0  0  0  0
 48 50  2  0  0  0  0
 49 48  1  0  0  0  0
 50 51  1  0  0  0  0
 50 58  1  0  0  0  0
 52 53  1  0  0  0  0
 54 57  1  0  0  0  0
 54 12  1  0  0  0  0
 55 54  1  0  0  0  0
 56 54  1  0  0  0  0
 58 59  1  0  0  0  0
 60 61  1  0  0  0  0
 60 52  1  0  0  0  0
 62 63  1  0  0  0  0
 62 64  1  0  0  0  0
 65 20  2  0  0  0  0
 65 25  1  0  0  0  0
 66 65  1  0  0  0  0
 67 68  1  0  0  0  0
 69 83  2  0  0  0  0
 69 71  1  0  0  0  0
 70 69  1  0  0  0  0
 71 19  2  0  0  0  0
 72 71  1  0  0  0  0
 73 67  1  0  0  0  0
 73 74  1  0  0  0  0
 75 39  1  0  0  0  0
 75 22  2  0  0  0  0
 76 75  1  0  0  0  0
 77 89  1  0  0  0  0
 78 77  1  0  0  0  0
 79 58  2  0  0  0  0
 79 80  1  0  0  0  0
 81 82  1  0  0  0  0
 81 27  2  0  0  0  0
 83 81  1  0  0  0  0
 84 83  1  0  0  0  0
 85 86  1  0  0  0  0
 85 67  2  0  0  0  0
 87 88  1  0  0  0  0
 89 90  1  0  0  0  0
 89 87  2  0  0  0  0
 91 92  1  0  0  0  0
M  END
$$$$
