CSD_code = BOHVUS | q = 1 | S = 0 | Stoichiometry = C19H16ClN2O2Ru(1+) | MND = 9
 OpenBabel04212202013D

 41 43  0  0  1  0  0  0  0  0999 V2000
    6.8929   -0.7504    3.6335 C   0  0  0  0  0  0  0  0  0  0  0  0
    7.4667   -0.7070    4.9035 C   0  0  0  0  0  0  0  0  0  0  0  0
    7.4685    0.2204    5.4616 H   0  0  0  0  0  0  0  0  0  0  0  0
    8.0930   -1.8359    5.4109 C   0  0  0  0  0  0  0  0  0  0  0  0
    8.1582   -3.0032    4.6521 C   0  0  0  0  0  0  0  0  0  0  0  0
    8.6562   -3.8651    5.0685 H   0  0  0  0  0  0  0  0  0  0  0  0
    7.5930   -3.0389    3.3891 C   0  0  0  0  0  0  0  0  0  0  0  0
    7.6425   -3.9416    2.8008 H   0  0  0  0  0  0  0  0  0  0  0  0
    6.9620   -1.9203    2.8737 C   0  0  0  0  0  0  0  0  0  0  0  0
    6.5013   -1.9515    1.8974 H   0  0  0  0  0  0  0  0  0  0  0  0
    8.7110   -1.8283    6.7678 C   0  0  0  0  0  0  0  0  0  0  0  0
    6.4628    0.8442    1.9577 C   0  0  0  0  0  0  0  0  0  0  0  0
    7.1478    0.3644    1.2686 H   0  0  0  0  0  0  0  0  0  0  0  0
    5.7543    2.0435    1.6304 C   0  0  0  0  0  0  0  0  0  0  0  0
    5.8548    2.7547    0.4315 C   0  0  0  0  0  0  0  0  0  0  0  0
    6.5020    2.3878   -0.3486 H   0  0  0  0  0  0  0  0  0  0  0  0
    5.1368    3.9239    0.2851 C   0  0  0  0  0  0  0  0  0  0  0  0
    5.1992    4.4986   -0.6250 H   0  0  0  0  0  0  0  0  0  0  0  0
    4.3421    4.3581    1.3426 C   0  0  0  0  0  0  0  0  0  0  0  0
    3.7787    5.2740    1.2727 H   0  0  0  0  0  0  0  0  0  0  0  0
    4.2883    3.6061    2.5019 C   0  0  0  0  0  0  0  0  0  0  0  0
    3.6978    3.9375    3.3462 H   0  0  0  0  0  0  0  0  0  0  0  0
    2.8567    1.0994    4.6745 C   0  0  2  0  0  0  0  0  0  0  0  0
    2.0288    1.1927    3.9795 H   0  0  0  0  0  0  0  0  0  0  0  0
    3.1894    2.1870    5.5232 C   0  0  0  0  0  0  0  0  0  0  0  0
    2.6151    3.1051    5.4763 H   0  0  0  0  0  0  0  0  0  0  0  0
    4.2109    2.0463    6.4626 C   0  0  0  0  0  0  0  0  0  0  0  0
    4.4595    2.8678    7.1260 H   0  0  0  0  0  0  0  0  0  0  0  0
    4.8594    0.7921    6.6308 C   0  0  0  0  0  0  0  0  0  0  0  0
    5.5946    0.6690    7.4175 H   0  0  0  0  0  0  0  0  0  0  0  0
    4.4667   -0.3030    5.8603 C   0  0  0  0  0  0  0  0  0  0  0  0
    4.8849   -1.2831    6.0569 H   0  0  0  0  0  0  0  0  0  0  0  0
    3.4860   -0.1485    4.8515 C   0  0  0  0  0  3  0  0  0  0  0  0
    3.1447   -1.0127    4.2923 H   0  0  0  0  0  0  0  0  0  0  0  0
    6.8987    2.8215    4.7400 Cl  0  0  0  0  0 15  0  0  0  0  0  0
    5.0807    1.4287    4.3394 Ru  0  0  0  0  0  0  0  0  0  0  0  0
    6.2555    0.3998    3.1603 N   0  0  0  0  0  0  0  0  0  0  0  0
    4.9601    2.4685    2.6470 N   0  0  0  0  0  0  0  0  0  0  0  0
    8.3373   -0.7702    7.4995 O   0  0  0  0  0  0  0  0  0  0  0  0
    8.7899   -0.7879    8.3587 H   0  0  0  0  0  0  0  0  0  0  0  0
    9.4454   -2.6841    7.1763 O   0  0  0  0  0  0  0  0  0  0  0  0
  1  2  1  0  0  0  0
  2  4  2  0  0  0  0
  2  3  1  0  0  0  0
  4 11  1  0  0  0  0
  5  6  1  0  0  0  0
  5  4  1  0  0  0  0
  7  5  2  0  0  0  0
  8  7  1  0  0  0  0
  9  7  1  0  0  0  0
  9  1  2  0  0  0  0
 10  9  1  0  0  0  0
 11 41  2  0  0  0  0
 11 39  1  0  0  0  0
 12 37  1  0  0  0  0
 13 12  1  0  0  0  0
 14 12  2  0  0  0  0
 14 38  1  0  0  0  0
 15 14  1  0  0  0  0
 16 15  1  0  0  0  0
 17 15  2  0  0  0  0
 17 19  1  0  0  0  0
 18 17  1  0  0  0  0
 19 21  2  0  0  0  0
 20 19  1  0  0  0  0
 21 38  1  0  0  0  0
 21 22  1  0  0  0  0
 23 24  1  6  0  0  0
 23 33  1  0  0  0  0
 23 25  1  0  0  0  0
 25 27  2  0  0  0  0
 26 25  1  0  0  0  0
 27 29  1  0  0  0  0
 27 28  1  0  0  0  0
 29 30  1  0  0  0  0
 31 32  1  0  0  0  0
 31 29  2  0  0  0  0
 33 31  1  0  0  0  0
 34 33  1  0  0  0  0
 36 23  1  0  0  0  0
 37  1  1  0  0  0  0
 37 36  1  0  0  0  0
 38 36  1  0  0  0  0
 39 40  1  0  0  0  0
M  END
$$$$
