CSD_code = BOHWUT | q = 0 | S = 0 | Stoichiometry = C34H27Cl2NO3P2Pd | MND = 4
 OpenBabel04212202013D

 70 75  0  0  1  0  0  0  0  0999 V2000
    8.8022    3.8489   11.5839 Pd  0  0  0  0  0  0  0  0  0  0  0  0
   10.2719    4.0756    9.8856 Cl  0  0  0  0  0  0  0  0  0  0  0  0
   10.4449    2.9095   12.8997 Cl  0  0  0  0  0  0  0  0  0  0  0  0
    7.2376    4.4039   10.0930 P   0  0  0  0  0  4  0  0  0  0  0  0
    6.0100    3.0757   12.4857 P   0  0  0  0  0  4  0  0  0  0  0  0
    6.1582    5.3195   12.4449 O   0  0  0  0  0  0  0  0  0  0  0  0
   10.1869   10.6575   13.6268 O   0  0  0  0  0  0  0  0  0  0  0  0
   11.7542    9.3887   14.3683 O   0  0  0  0  0  0  0  0  0  0  0  0
   10.6441    9.5715   13.9189 N   0  0  0  0  0  0  0  0  0  0  0  0
    7.5023    3.7000   13.2344 C   0  0  2  0  0  0  0  0  0  0  0  0
    8.0208    3.2113   14.0542 H   0  0  0  0  0  0  0  0  0  0  0  0
    7.2847    5.0879   13.0011 C   0  0  0  0  0  0  0  0  0  0  0  0
    8.1864    6.2144   13.3088 C   0  0  0  0  0  0  0  0  0  0  0  0
    9.5120    6.0394   13.7293 C   0  0  0  0  0  0  0  0  0  0  0  0
    9.9198    5.0479   13.9022 H   0  0  0  0  0  0  0  0  0  0  0  0
   10.3152    7.1446   13.9328 C   0  0  0  0  0  0  0  0  0  0  0  0
   11.3426    7.0352   14.2459 H   0  0  0  0  0  0  0  0  0  0  0  0
    9.8003    8.4193   13.7190 C   0  0  0  0  0  0  0  0  0  0  0  0
    8.4808    8.6070   13.3227 C   0  0  0  0  0  0  0  0  0  0  0  0
    8.1088    9.6092   13.1753 H   0  0  0  0  0  0  0  0  0  0  0  0
    7.6783    7.5054   13.1240 C   0  0  0  0  0  0  0  0  0  0  0  0
    6.6502    7.6134   12.8136 H   0  0  0  0  0  0  0  0  0  0  0  0
    4.5169    3.3244   13.4622 C   0  0  0  0  0  0  0  0  0  0  0  0
    4.4852    2.7160   14.7133 C   0  0  0  0  0  0  0  0  0  0  0  0
    5.3207    2.1029   15.0274 H   0  0  0  0  0  0  0  0  0  0  0  0
    3.3875    2.8976   15.5339 C   0  0  0  0  0  0  0  0  0  0  0  0
    3.3560    2.4285   16.5058 H   0  0  0  0  0  0  0  0  0  0  0  0
    2.3296    3.6853   15.1062 C   0  0  0  0  0  0  0  0  0  0  0  0
    1.4721    3.8261   15.7471 H   0  0  0  0  0  0  0  0  0  0  0  0
    2.3709    4.2995   13.8642 C   0  0  0  0  0  0  0  0  0  0  0  0
    1.5477    4.9196   13.5420 H   0  0  0  0  0  0  0  0  0  0  0  0
    3.4670    4.1263   13.0381 C   0  0  0  0  0  0  0  0  0  0  0  0
    3.5283    4.6167   12.0782 H   0  0  0  0  0  0  0  0  0  0  0  0
    6.2328    1.2704   12.3563 C   0  0  0  0  0  0  0  0  0  0  0  0
    5.1632    0.3941   12.5113 C   0  0  0  0  0  0  0  0  0  0  0  0
    4.1933    0.7779   12.7984 H   0  0  0  0  0  0  0  0  0  0  0  0
    5.3427   -0.9635   12.3158 C   0  0  0  0  0  0  0  0  0  0  0  0
    4.5101   -1.6386   12.4468 H   0  0  0  0  0  0  0  0  0  0  0  0
    6.5860   -1.4549   11.9529 C   0  0  0  0  0  0  0  0  0  0  0  0
    6.7238   -2.5151   11.8027 H   0  0  0  0  0  0  0  0  0  0  0  0
    7.6521   -0.5862   11.7815 C   0  0  0  0  0  0  0  0  0  0  0  0
    8.6218   -0.9656   11.4974 H   0  0  0  0  0  0  0  0  0  0  0  0
    7.4784    0.7724   11.9754 C   0  0  0  0  0  0  0  0  0  0  0  0
    8.3350    1.4462   11.8416 H   0  0  0  0  0  0  0  0  0  0  0  0
    5.7821    3.5002   10.7299 C   0  0  0  0  0  0  0  0  0  0  0  0
    4.7592    3.0362   10.0214 C   0  0  0  0  0  0  0  0  0  0  0  0
    3.9885    2.4265   10.4701 H   0  0  0  0  0  0  0  0  0  0  0  0
    4.6586    3.2525    8.9685 H   0  0  0  0  0  0  0  0  0  0  0  0
    7.3720    3.6829    8.4385 C   0  0  0  0  0  0  0  0  0  0  0  0
    7.0670    4.3616    7.2669 C   0  0  0  0  0  0  0  0  0  0  0  0
    6.7331    5.3894    7.3069 H   0  0  0  0  0  0  0  0  0  0  0  0
    7.2095    3.7156    6.0500 C   0  0  0  0  0  0  0  0  0  0  0  0
    6.9787    4.2406    5.1348 H   0  0  0  0  0  0  0  0  0  0  0  0
    7.6559    2.4058    6.0037 C   0  0  0  0  0  0  0  0  0  0  0  0
    7.7714    1.9109    5.0510 H   0  0  0  0  0  0  0  0  0  0  0  0
    7.9702    1.7311    7.1749 C   0  0  0  0  0  0  0  0  0  0  0  0
    8.3337    0.7153    7.1333 H   0  0  0  0  0  0  0  0  0  0  0  0
    7.8318    2.3681    8.3912 C   0  0  0  0  0  0  0  0  0  0  0  0
    8.1047    1.8688    9.3196 H   0  0  0  0  0  0  0  0  0  0  0  0
    6.8508    6.1505    9.8645 C   0  0  0  0  0  0  0  0  0  0  0  0
    5.5861    6.6363    9.5581 C   0  0  0  0  0  0  0  0  0  0  0  0
    4.7566    5.9519    9.4490 H   0  0  0  0  0  0  0  0  0  0  0  0
    5.4050    7.9997    9.4114 C   0  0  0  0  0  0  0  0  0  0  0  0
    4.4247    8.3889    9.1778 H   0  0  0  0  0  0  0  0  0  0  0  0
    6.4754    8.8681    9.5650 C   0  0  0  0  0  0  0  0  0  0  0  0
    6.3241    9.9311    9.4494 H   0  0  0  0  0  0  0  0  0  0  0  0
    7.7358    8.3805    9.8721 C   0  0  0  0  0  0  0  0  0  0  0  0
    8.5649    9.0606    9.9967 H   0  0  0  0  0  0  0  0  0  0  0  0
    7.9262    7.0195   10.0296 C   0  0  0  0  0  0  0  0  0  0  0  0
    8.9045    6.6134   10.2820 H   0  0  0  0  0  0  0  0  0  0  0  0
  1  3  1  0  0  0  0
  1 10  1  0  0  0  0
  2  1  1  0  0  0  0
  4 45  1  0  0  0  0
  4  1  1  0  0  0  0
  5 10  1  0  0  0  0
  5 23  1  0  0  0  0
  6 12  2  0  0  0  0
  7  9  2  0  0  0  0
  9  8  2  0  0  0  0
 10 11  1  1  0  0  0
 12 10  1  0  0  0  0
 12 13  1  0  0  0  0
 13 14  1  0  0  0  0
 14 15  1  0  0  0  0
 14 16  2  0  0  0  0
 16 17  1  0  0  0  0
 18  9  1  0  0  0  0
 18 16  1  0  0  0  0
 19 18  2  0  0  0  0
 20 19  1  0  0  0  0
 21 13  2  0  0  0  0
 21 19  1  0  0  0  0
 22 21  1  0  0  0  0
 23 24  1  0  0  0  0
 24 25  1  0  0  0  0
 24 26  2  0  0  0  0
 26 27  1  0  0  0  0
 28 26  1  0  0  0  0
 28 29  1  0  0  0  0
 30 28  2  0  0  0  0
 31 30  1  0  0  0  0
 32 23  2  0  0  0  0
 32 30  1  0  0  0  0
 33 32  1  0  0  0  0
 34  5  1  0  0  0  0
 34 35  1  0  0  0  0
 35 36  1  0  0  0  0
 37 38  1  0  0  0  0
 37 35  2  0  0  0  0
 39 37  1  0  0  0  0
 40 39  1  0  0  0  0
 41 39  2  0  0  0  0
 41 43  1  0  0  0  0
 42 41  1  0  0  0  0
 43 34  2  0  0  0  0
 44 43  1  0  0  0  0
 45  5  1  0  0  0  0
 46 47  1  0  0  0  0
 46 45  2  0  0  0  0
 48 46  1  0  0  0  0
 49  4  1  0  0  0  0
 50 51  1  0  0  0  0
 50 49  2  0  0  0  0
 52 50  1  0  0  0  0
 53 52  1  0  0  0  0
 54 52  2  0  0  0  0
 54 56  1  0  0  0  0
 55 54  1  0  0  0  0
 56 58  2  0  0  0  0
 57 56  1  0  0  0  0
 58 49  1  0  0  0  0
 58 59  1  0  0  0  0
 60 69  1  0  0  0  0
 60  4  1  0  0  0  0
 61 60  2  0  0  0  0
 62 61  1  0  0  0  0
 63 61  1  0  0  0  0
 63 65  2  0  0  0  0
 64 63  1  0  0  0  0
 65 67  1  0  0  0  0
 66 65  1  0  0  0  0
 67 68  1  0  0  0  0
 67 69  2  0  0  0  0
 69 70  1  0  0  0  0
M  END
$$$$
