CSD_code = BOHXAA | q = 0 | S = 0 | Stoichiometry = C34H27Cl2NO3P2Pt | MND = 4
 OpenBabel04212202013D

 70 75  0  0  1  0  0  0  0  0999 V2000
    8.9436    3.9574   11.3116 Pt  0  0  0  0  0  0  0  0  0  0  0  0
   10.3555    4.0908    9.5205 Cl  0  0  0  0  0  0  0  0  0  0  0  0
   10.7034    3.3434   12.6537 Cl  0  0  0  0  0  0  0  0  0  0  0  0
    7.2521    4.3882    9.8623 P   0  0  0  0  0  4  0  0  0  0  0  0
    6.1034    3.1158   12.3225 P   0  0  0  0  0  4  0  0  0  0  0  0
    6.2949    5.3706   12.2576 O   0  0  0  0  0  0  0  0  0  0  0  0
   10.3651   10.5980   13.9179 O   0  0  0  0  0  0  0  0  0  0  0  0
   11.6021    9.3060   15.1081 O   0  0  0  0  0  0  0  0  0  0  0  0
   10.6665    9.5099   14.3644 N   0  0  0  0  0  0  0  0  0  0  0  0
    7.6495    3.7254   12.9899 C   0  0  2  0  0  0  0  0  0  0  0  0
    8.1477    3.2274   13.8157 H   0  0  0  0  0  0  0  0  0  0  0  0
    7.4089    5.1293   12.8284 C   0  0  0  0  0  0  0  0  0  0  0  0
    8.2811    6.2299   13.2615 C   0  0  0  0  0  0  0  0  0  0  0  0
    9.4178    6.0300   14.0523 C   0  0  0  0  0  0  0  0  0  0  0  0
    9.7009    5.0376   14.3659 H   0  0  0  0  0  0  0  0  0  0  0  0
   10.2003    7.1074   14.4121 C   0  0  0  0  0  0  0  0  0  0  0  0
   11.0889    6.9762   15.0103 H   0  0  0  0  0  0  0  0  0  0  0  0
    9.8480    8.3855   13.9894 C   0  0  0  0  0  0  0  0  0  0  0  0
    8.7093    8.6013   13.2199 C   0  0  0  0  0  0  0  0  0  0  0  0
    8.4583    9.6059   12.9157 H   0  0  0  0  0  0  0  0  0  0  0  0
    7.9257    7.5257   12.8682 C   0  0  0  0  0  0  0  0  0  0  0  0
    7.0302    7.6566   12.2807 H   0  0  0  0  0  0  0  0  0  0  0  0
    4.6563    3.4368   13.3454 C   0  0  0  0  0  0  0  0  0  0  0  0
    4.6498    2.8676   14.6150 C   0  0  0  0  0  0  0  0  0  0  0  0
    5.4791    2.2431   14.9224 H   0  0  0  0  0  0  0  0  0  0  0  0
    3.5839    3.1027   15.4635 C   0  0  0  0  0  0  0  0  0  0  0  0
    3.5726    2.6652   16.4505 H   0  0  0  0  0  0  0  0  0  0  0  0
    2.5317    3.9025   15.0442 C   0  0  0  0  0  0  0  0  0  0  0  0
    1.6993    4.0848   15.7072 H   0  0  0  0  0  0  0  0  0  0  0  0
    2.5470    4.4753   13.7820 C   0  0  0  0  0  0  0  0  0  0  0  0
    1.7284    5.1045   13.4659 H   0  0  0  0  0  0  0  0  0  0  0  0
    3.6118    4.2495   12.9281 C   0  0  0  0  0  0  0  0  0  0  0  0
    3.6539    4.7085   11.9521 H   0  0  0  0  0  0  0  0  0  0  0  0
    6.2851    1.3062   12.2665 C   0  0  0  0  0  0  0  0  0  0  0  0
    5.2102    0.4478   12.4705 C   0  0  0  0  0  0  0  0  0  0  0  0
    4.2468    0.8511   12.7529 H   0  0  0  0  0  0  0  0  0  0  0  0
    5.3789   -0.9181   12.3291 C   0  0  0  0  0  0  0  0  0  0  0  0
    4.5438   -1.5821   12.4964 H   0  0  0  0  0  0  0  0  0  0  0  0
    6.6151   -1.4328   11.9729 C   0  0  0  0  0  0  0  0  0  0  0  0
    6.7430   -2.4993   11.8641 H   0  0  0  0  0  0  0  0  0  0  0  0
    7.6862   -0.5806   11.7546 C   0  0  0  0  0  0  0  0  0  0  0  0
    8.6497   -0.9787   11.4748 H   0  0  0  0  0  0  0  0  0  0  0  0
    7.5224    0.7848   11.8961 C   0  0  0  0  0  0  0  0  0  0  0  0
    8.3662    1.4527   11.7231 H   0  0  0  0  0  0  0  0  0  0  0  0
    5.8325    3.4758   10.5614 C   0  0  0  0  0  0  0  0  0  0  0  0
    4.7873    2.9964    9.8974 C   0  0  0  0  0  0  0  0  0  0  0  0
    4.0269    2.4048   10.3864 H   0  0  0  0  0  0  0  0  0  0  0  0
    4.6594    3.1766    8.8406 H   0  0  0  0  0  0  0  0  0  0  0  0
    7.3612    3.6800    8.2002 C   0  0  0  0  0  0  0  0  0  0  0  0
    7.2814    4.4473    7.0454 C   0  0  0  0  0  0  0  0  0  0  0  0
    7.1067    5.5120    7.1140 H   0  0  0  0  0  0  0  0  0  0  0  0
    7.4387    3.8432    5.8096 C   0  0  0  0  0  0  0  0  0  0  0  0
    7.3813    4.4400    4.9113 H   0  0  0  0  0  0  0  0  0  0  0  0
    7.6806    2.4829    5.7242 C   0  0  0  0  0  0  0  0  0  0  0  0
    7.8102    2.0184    4.7581 H   0  0  0  0  0  0  0  0  0  0  0  0
    7.7701    1.7169    6.8773 C   0  0  0  0  0  0  0  0  0  0  0  0
    7.9721    0.6583    6.8096 H   0  0  0  0  0  0  0  0  0  0  0  0
    7.6154    2.3130    8.1125 C   0  0  0  0  0  0  0  0  0  0  0  0
    7.7042    1.7312    9.0226 H   0  0  0  0  0  0  0  0  0  0  0  0
    6.7605    6.1066    9.6007 C   0  0  0  0  0  0  0  0  0  0  0  0
    5.4449    6.5166    9.4279 C   0  0  0  0  0  0  0  0  0  0  0  0
    4.6449    5.7908    9.4519 H   0  0  0  0  0  0  0  0  0  0  0  0
    5.1730    7.8597    9.2395 C   0  0  0  0  0  0  0  0  0  0  0  0
    4.1517    8.1874    9.1108 H   0  0  0  0  0  0  0  0  0  0  0  0
    6.2045    8.7862    9.2182 C   0  0  0  0  0  0  0  0  0  0  0  0
    5.9824    9.8331    9.0736 H   0  0  0  0  0  0  0  0  0  0  0  0
    7.5172    8.3748    9.3875 C   0  0  0  0  0  0  0  0  0  0  0  0
    8.3190    9.0976    9.3755 H   0  0  0  0  0  0  0  0  0  0  0  0
    7.7976    7.0348    9.5842 C   0  0  0  0  0  0  0  0  0  0  0  0
    8.8156    6.6918    9.7300 H   0  0  0  0  0  0  0  0  0  0  0  0
  1  3  1  0  0  0  0
  1 10  1  0  0  0  0
  2  1  1  0  0  0  0
  4 45  1  0  0  0  0
  4  1  1  0  0  0  0
  5 10  1  0  0  0  0
  5 23  1  0  0  0  0
  6 12  2  0  0  0  0
  7  9  2  0  0  0  0
  9  8  2  0  0  0  0
 10 11  1  1  0  0  0
 12 10  1  0  0  0  0
 12 13  1  0  0  0  0
 13 14  1  0  0  0  0
 14 15  1  0  0  0  0
 14 16  2  0  0  0  0
 16 17  1  0  0  0  0
 18  9  1  0  0  0  0
 18 16  1  0  0  0  0
 19 18  2  0  0  0  0
 20 19  1  0  0  0  0
 21 19  1  0  0  0  0
 21 13  2  0  0  0  0
 22 21  1  0  0  0  0
 23 24  1  0  0  0  0
 24 25  1  0  0  0  0
 24 26  2  0  0  0  0
 26 27  1  0  0  0  0
 28 26  1  0  0  0  0
 28 29  1  0  0  0  0
 30 28  2  0  0  0  0
 31 30  1  0  0  0  0
 32 23  2  0  0  0  0
 32 30  1  0  0  0  0
 33 32  1  0  0  0  0
 34  5  1  0  0  0  0
 34 35  1  0  0  0  0
 35 36  1  0  0  0  0
 37 35  2  0  0  0  0
 37 38  1  0  0  0  0
 39 37  1  0  0  0  0
 40 39  1  0  0  0  0
 41 43  1  0  0  0  0
 41 39  2  0  0  0  0
 42 41  1  0  0  0  0
 43 34  2  0  0  0  0
 44 43  1  0  0  0  0
 45  5  1  0  0  0  0
 46 47  1  0  0  0  0
 46 45  2  0  0  0  0
 48 46  1  0  0  0  0
 49  4  1  0  0  0  0
 50 51  1  0  0  0  0
 50 49  2  0  0  0  0
 52 50  1  0  0  0  0
 53 52  1  0  0  0  0
 54 52  2  0  0  0  0
 54 56  1  0  0  0  0
 55 54  1  0  0  0  0
 56 58  2  0  0  0  0
 57 56  1  0  0  0  0
 58 49  1  0  0  0  0
 58 59  1  0  0  0  0
 60  4  1  0  0  0  0
 61 62  1  0  0  0  0
 61 60  2  0  0  0  0
 63 61  1  0  0  0  0
 64 63  1  0  0  0  0
 65 63  2  0  0  0  0
 65 67  1  0  0  0  0
 66 65  1  0  0  0  0
 67 69  2  0  0  0  0
 68 67  1  0  0  0  0
 69 60  1  0  0  0  0
 69 70  1  0  0  0  0
M  END
$$$$
