CSD_code = BOJBAE | q = 0 | S = 0 | Stoichiometry = C18H15Br2N5OZn | MND = 5
 OpenBabel04212202013D

 42 46  0  0  1  0  0  0  0  0999 V2000
    1.1837    6.5508    6.1566 Zn  0  0  0  0  0  0  0  0  0  0  0  0
    0.5392    7.0710    3.9776 Br  0  0  0  0  0  0  0  0  0  0  0  0
    3.1174    6.1999    7.5554 Br  0  0  0  0  0  0  0  0  0  0  0  0
    0.5999    8.4707    7.1702 O   0  0  0  0  0  0  0  0  0  0  0  0
    0.4351    4.3999    6.0843 N   0  0  0  0  0  0  0  0  0  0  0  0
   -0.0646    6.1104    7.9993 N   0  0  2  0  0  0  0  0  0  0  0  0
   -0.0585    7.1193    8.8633 N   0  0  0  0  0  0  0  0  0  0  0  0
   -0.3553    5.2601   10.6935 N   0  0  0  0  0  0  0  0  0  0  0  0
    0.3268    9.3373    9.2722 N   0  0  0  0  0  0  0  0  0  0  0  0
    0.4306    3.6432    5.0015 C   0  0  0  0  0  3  0  0  0  0  0  0
    0.8882    4.0703    4.1197 H   0  0  0  0  0  0  0  0  0  0  0  0
   -0.1364    2.3781    4.9748 C   0  0  0  0  0  0  0  0  0  0  0  0
   -0.1126    1.7921    4.0709 H   0  0  0  0  0  0  0  0  0  0  0  0
   -0.7445    1.9043    6.1262 C   0  0  0  0  0  0  0  0  0  0  0  0
   -1.2208    0.9354    6.1407 H   0  0  0  0  0  0  0  0  0  0  0  0
   -0.7436    2.6976    7.2611 C   0  0  0  0  0  0  0  0  0  0  0  0
   -1.2386    2.3750    8.1639 H   0  0  0  0  0  0  0  0  0  0  0  0
   -0.1237    3.9441    7.2080 C   0  0  0  0  0  0  0  0  0  0  0  0
   -0.1004    4.8711    8.3467 C   0  0  1  0  0  3  0  0  0  0  0  0
   -0.0029    4.3980    9.7310 C   0  0  0  0  0  0  0  0  0  0  0  0
    0.5486    3.1508   10.0376 C   0  0  0  0  0  0  0  0  0  0  0  0
    0.9016    2.5026    9.2523 H   0  0  0  0  0  0  0  0  0  0  0  0
    0.6772    2.7862   11.3652 C   0  0  0  0  0  0  0  0  0  0  0  0
    1.1015    1.8285   11.6268 H   0  0  0  0  0  0  0  0  0  0  0  0
    0.2662    3.6691   12.3531 C   0  0  0  0  0  0  0  0  0  0  0  0
    0.3443    3.4179   13.3984 H   0  0  0  0  0  0  0  0  0  0  0  0
   -0.2249    4.9024   11.9580 C   0  0  0  0  0  0  0  0  0  0  0  0
   -0.5291    5.6463   12.6828 H   0  0  0  0  0  0  0  0  0  0  0  0
    0.3220    8.3518    8.3517 C   0  0  2  0  0  3  0  0  0  0  0  0
    0.6869   10.6864    9.1009 C   0  0  0  0  0  0  0  0  0  0  0  0
    0.7356   11.4823   10.2423 C   0  0  0  0  0  0  0  0  0  0  0  0
    0.5077   11.0518   11.2078 H   0  0  0  0  0  0  0  0  0  0  0  0
    1.0774   12.8173   10.1435 C   0  0  0  0  0  0  0  0  0  0  0  0
    1.1144   13.4259   11.0344 H   0  0  0  0  0  0  0  0  0  0  0  0
    1.3724   13.3695    8.9079 C   0  0  0  0  0  0  0  0  0  0  0  0
    1.6407   14.4119    8.8313 H   0  0  0  0  0  0  0  0  0  0  0  0
    1.3212   12.5774    7.7739 C   0  0  0  0  0  0  0  0  0  0  0  0
    1.5486   13.0008    6.8078 H   0  0  0  0  0  0  0  0  0  0  0  0
    0.9789   11.2395    7.8599 C   0  0  0  0  0  0  0  0  0  0  0  0
    0.9415   10.6311    6.9728 H   0  0  0  0  0  0  0  0  0  0  0  0
   -0.1212    6.8701    9.8613 H   0  0  0  0  0  0  0  0  0  0  0  0
    0.1045    9.0799   10.2247 H   0  0  0  0  0  0  0  0  0  0  0  0
  1  4  1  0  0  0  0
  1  3  1  0  0  0  0
  1  6  1  0  0  0  0
  2  1  1  0  0  0  0
  4 29  1  0  0  0  0
  5  1  1  0  0  0  0
  5 18  1  0  0  0  0
  6 19  1  0  0  0  0
  6  7  1  1  0  0  0
  7 41  1  0  0  0  0
  8 27  1  0  0  0  0
  9 42  1  0  0  0  0
 10  5  1  0  0  0  0
 11 10  1  0  0  0  0
 12 10  1  0  0  0  0
 12 14  2  0  0  0  0
 13 12  1  0  0  0  0
 14 15  1  0  0  0  0
 14 16  1  0  0  0  0
 16 17  1  0  0  0  0
 18 16  2  0  0  0  0
 18 19  1  0  0  0  0
 19 20  1  1  0  0  0
 20 21  1  0  0  0  0
 20  8  2  0  0  0  0
 21 23  2  0  0  0  0
 22 21  1  0  0  0  0
 23 24  1  0  0  0  0
 23 25  1  0  0  0  0
 25 26  1  0  0  0  0
 27 25  2  0  0  0  0
 27 28  1  0  0  0  0
 29  7  1  0  0  0  0
 29  9  1  6  0  0  0
 30  9  1  0  0  0  0
 30 31  1  0  0  0  0
 31 32  1  0  0  0  0
 33 31  2  0  0  0  0
 33 34  1  0  0  0  0
 35 33  1  0  0  0  0
 36 35  1  0  0  0  0
 37 39  1  0  0  0  0
 37 35  2  0  0  0  0
 38 37  1  0  0  0  0
 39 30  2  0  0  0  0
 40 39  1  0  0  0  0
M  END
$$$$
