CSD_code = BOJJOA | q = 1 | S = 0 | Stoichiometry = C19H27ClN4RhSe2(1+) | MND = 8
 OpenBabel04212202013D

 54 55  0  0  1  0  0  0  0  0999 V2000
   14.5927    4.7009    8.9675 Rh  0  0  0  0  0  0  0  0  0  0  0  0
   16.4995    4.6328    7.3275 Se  0  0  0  0  0  1  0  0  0  0  0  0
   16.1036    5.6051   10.7934 Se  0  0  0  0  0  1  0  0  0  0  0  0
   14.1020    6.9049    8.2751 Cl  0  0  0  0  0 15  0  0  0  0  0  0
   16.0630    6.8242    5.5800 N   0  0  0  0  0  0  0  0  0  0  0  0
   17.2691    7.4076    7.2914 N   0  0  0  0  0  0  0  0  0  0  0  0
   16.9878    8.0440    9.5536 N   0  0  0  0  0  0  0  0  0  0  0  0
   15.3909    8.3412   10.9984 N   0  0  0  0  0  0  0  0  0  0  0  0
   16.5834    6.3835    6.7328 C   0  0  2  0  0  3  0  0  0  0  0  0
   16.3977    8.1351    5.4116 C   0  0  0  0  0  0  0  0  0  0  0  0
   16.0825    8.7028    4.5603 H   0  0  0  0  0  0  0  0  0  0  0  0
   17.1478    8.5045    6.4758 C   0  0  0  0  0  0  0  0  0  0  0  0
   17.6098    9.4427    6.7001 H   0  0  0  0  0  0  0  0  0  0  0  0
   16.1401    7.4087   10.3959 C   0  0  2  0  0  3  0  0  0  0  0  0
   16.7383    9.3918    9.6256 C   0  0  0  0  0  0  0  0  0  0  0  0
   17.2868   10.1102    9.0538 H   0  0  0  0  0  0  0  0  0  0  0  0
   15.7450    9.5708   10.5270 C   0  0  0  0  0  0  0  0  0  0  0  0
   15.2714   10.4710   10.8611 H   0  0  0  0  0  0  0  0  0  0  0  0
   17.8632    7.4090    8.6032 C   0  0  0  0  0  0  0  0  0  0  0  0
   18.0235    6.3682    8.9165 H   0  0  0  0  0  0  0  0  0  0  0  0
   18.8166    7.9460    8.5699 H   0  0  0  0  0  0  0  0  0  0  0  0
   15.2068    6.0447    4.7318 C   0  0  0  0  0  0  0  0  0  0  0  0
   15.7280    5.1470    4.3962 H   0  0  0  0  0  0  0  0  0  0  0  0
   14.9067    6.6390    3.8731 H   0  0  0  0  0  0  0  0  0  0  0  0
   14.3221    5.7456    5.2986 H   0  0  0  0  0  0  0  0  0  0  0  0
   14.3208    8.0492   11.9092 C   0  0  0  0  0  0  0  0  0  0  0  0
   13.5721    7.4424   11.3946 H   0  0  0  0  0  0  0  0  0  0  0  0
   13.8685    8.9770   12.2486 H   0  0  0  0  0  0  0  0  0  0  0  0
   14.6993    7.4875   12.7645 H   0  0  0  0  0  0  0  0  0  0  0  0
   13.2161    3.3134    8.0194 C   0  0  1  0  0  0  0  0  0  0  0  0
   14.2217    2.5538    8.7284 C   0  0  1  0  0  3  0  0  0  0  0  0
   14.1341    2.8929   10.1052 C   0  0  2  0  0  0  0  0  0  0  0  0
   13.0549    3.8466   10.2660 C   0  0  0  0  0  0  0  0  0  0  0  0
   12.4616    4.0603    8.9846 C   0  0  0  0  0  0  0  0  0  0  0  0
   12.8572    3.1371    6.5817 C   0  0  0  0  0  0  0  0  0  0  0  0
   12.2086    2.2651    6.4819 H   0  0  0  0  0  0  0  0  0  0  0  0
   13.7440    2.9682    5.9734 H   0  0  0  0  0  0  0  0  0  0  0  0
   12.3208    4.0034    6.2009 H   0  0  0  0  0  0  0  0  0  0  0  0
   15.0917    1.5052    8.1240 C   0  0  0  0  0  0  0  0  0  0  0  0
   15.9867    1.3424    8.7200 H   0  0  0  0  0  0  0  0  0  0  0  0
   15.3973    1.7760    7.1136 H   0  0  0  0  0  0  0  0  0  0  0  0
   14.5347    0.5684    8.0728 H   0  0  0  0  0  0  0  0  0  0  0  0
   14.8867    2.2661   11.2293 C   0  0  0  0  0  0  0  0  0  0  0  0
   14.2518    1.5214   11.7114 H   0  0  0  0  0  0  0  0  0  0  0  0
   15.1703    3.0062   11.9791 H   0  0  0  0  0  0  0  0  0  0  0  0
   15.7889    1.7747   10.8746 H   0  0  0  0  0  0  0  0  0  0  0  0
   12.5376    4.3134   11.5854 C   0  0  0  0  0  0  0  0  0  0  0  0
   11.9353    5.2133   11.4847 H   0  0  0  0  0  0  0  0  0  0  0  0
   13.3562    4.5106   12.2759 H   0  0  0  0  0  0  0  0  0  0  0  0
   11.9130    3.5303   12.0184 H   0  0  0  0  0  0  0  0  0  0  0  0
   11.2237    4.8351    8.6842 C   0  0  0  0  0  0  0  0  0  0  0  0
   11.3830    5.5410    7.8696 H   0  0  0  0  0  0  0  0  0  0  0  0
   10.8790    5.3873    9.5541 H   0  0  0  0  0  0  0  0  0  0  0  0
   10.4393    4.1418    8.3778 H   0  0  0  0  0  0  0  0  0  0  0  0
  1 32  1  0  0  0  0
  5  9  1  0  0  0  0
  6 19  1  0  0  0  0
  7 15  1  0  0  0  0
  7 14  1  0  0  0  0
  8 26  1  0  0  0  0
  9  6  1  0  0  0  0
  9  2  1  6  0  0  0
 10  5  1  0  0  0  0
 10 12  2  0  0  0  0
 11 10  1  0  0  0  0
 12 13  1  0  0  0  0
 12  6  1  0  0  0  0
 14  3  1  1  0  0  0
 14  8  1  0  0  0  0
 15 17  2  0  0  0  0
 16 15  1  0  0  0  0
 17 18  1  0  0  0  0
 17  8  1  0  0  0  0
 19 20  1  0  0  0  0
 19  7  1  0  0  0  0
 21 19  1  0  0  0  0
 22 25  1  0  0  0  0
 22  5  1  0  0  0  0
 23 22  1  0  0  0  0
 24 22  1  0  0  0  0
 26 28  1  0  0  0  0
 26 29  1  0  0  0  0
 27 26  1  0  0  0  0
 30 35  1  6  0  0  0
 30 31  1  0  0  0  0
 30  1  1  0  0  0  0
 30 34  1  0  0  0  0
 31 39  1  1  0  0  0
 31 32  1  0  0  0  0
 32 33  1  0  0  0  0
 32 43  1  1  0  0  0
 33 47  1  0  0  0  0
 34 33  2  0  0  0  0
 36 35  1  0  0  0  0
 37 35  1  0  0  0  0
 38 35  1  0  0  0  0
 39 40  1  0  0  0  0
 41 39  1  0  0  0  0
 42 39  1  0  0  0  0
 43 44  1  0  0  0  0
 43 45  1  0  0  0  0
 46 43  1  0  0  0  0
 47 50  1  0  0  0  0
 47 49  1  0  0  0  0
 48 47  1  0  0  0  0
 51 34  1  0  0  0  0
 51 53  1  0  0  0  0
 52 51  1  0  0  0  0
 54 51  1  0  0  0  0
M  END
$$$$
