CSD_code = BOJJAM | q = 1 | S = 0 | Stoichiometry = C19H27ClIrN4Se2(1+) | MND = 8
 OpenBabel04212202013D

 54 55  0  0  1  0  0  0  0  0999 V2000
    4.7472    8.4742    7.5878 Ir  0  0  0  0  0  0  0  0  0  0  0  0
    2.2378    8.4971    7.0104 Se  0  0  0  0  0  1  0  0  0  0  0  0
    5.0869   10.9797    7.0019 Se  0  0  0  0  0  1  0  0  0  0  0  0
    4.1460    9.1364    9.8049 Cl  0  0  0  0  0 15  0  0  0  0  0  0
    0.7800    8.5950    9.4399 N   0  0  0  0  0  0  0  0  0  0  0  0
    1.3493   10.5872    8.7847 N   0  0  0  0  0  0  0  0  0  0  0  0
    3.1647   12.1206    8.8098 N   0  0  0  0  0  0  0  0  0  0  0  0
    5.2185   12.3488    9.4827 N   0  0  0  0  0  0  0  0  0  0  0  0
    1.4563    9.2690    8.5013 C   0  0  2  0  0  3  0  0  0  0  0  0
    0.2560    9.4806   10.3346 C   0  0  0  0  0  0  0  0  0  0  0  0
   -0.3206    9.1680   11.1809 H   0  0  0  0  0  0  0  0  0  0  0  0
    0.6085   10.7234    9.9316 C   0  0  0  0  0  0  0  0  0  0  0  0
    0.3745   11.6758   10.3581 H   0  0  0  0  0  0  0  0  0  0  0  0
    2.0069   11.6616    8.0874 C   0  0  0  0  0  0  0  0  0  0  0  0
    2.3338   11.2926    7.1058 H   0  0  0  0  0  0  0  0  0  0  0  0
    1.3046   12.4932    7.9630 H   0  0  0  0  0  0  0  0  0  0  0  0
    4.4519   11.8246    8.5188 C   0  0  2  0  0  3  0  0  0  0  0  0
    4.4199   12.9628   10.4023 C   0  0  0  0  0  0  0  0  0  0  0  0
    4.8145   13.4462   11.2723 H   0  0  0  0  0  0  0  0  0  0  0  0
    3.1395   12.8236    9.9880 C   0  0  0  0  0  0  0  0  0  0  0  0
    2.2329   13.1807   10.4284 H   0  0  0  0  0  0  0  0  0  0  0  0
    0.7012    7.1632    9.5131 C   0  0  0  0  0  0  0  0  0  0  0  0
    0.2761    6.7640    8.5912 H   0  0  0  0  0  0  0  0  0  0  0  0
    0.0801    6.8774   10.3577 H   0  0  0  0  0  0  0  0  0  0  0  0
    1.7047    6.7533    9.6412 H   0  0  0  0  0  0  0  0  0  0  0  0
    6.6438   12.1951    9.5620 C   0  0  0  0  0  0  0  0  0  0  0  0
    6.8845   11.1449    9.7383 H   0  0  0  0  0  0  0  0  0  0  0  0
    7.0288   12.7990   10.3793 H   0  0  0  0  0  0  0  0  0  0  0  0
    7.1045   12.5070    8.6239 H   0  0  0  0  0  0  0  0  0  0  0  0
    6.8498    7.8597    7.3513 C   0  0  1  0  0  0  0  0  0  0  0  0
    6.2304    6.9025    8.2086 C   0  0  1  0  0  3  0  0  0  0  0  0
    5.1323    6.3218    7.4942 C   0  0  2  0  0  0  0  0  0  0  0  0
    5.1481    6.8444    6.1441 C   0  0  0  0  0  0  0  0  0  0  0  0
    6.1901    7.7996    6.0607 C   0  0  0  0  0  0  0  0  0  0  0  0
    8.0997    8.6270    7.6148 C   0  0  0  0  0  0  0  0  0  0  0  0
    8.9514    8.0809    7.2063 H   0  0  0  0  0  0  0  0  0  0  0  0
    8.2641    8.7694    8.6800 H   0  0  0  0  0  0  0  0  0  0  0  0
    8.0625    9.6012    7.1301 H   0  0  0  0  0  0  0  0  0  0  0  0
    6.6652    6.5004    9.5754 C   0  0  0  0  0  0  0  0  0  0  0  0
    6.9641    5.4519    9.5642 H   0  0  0  0  0  0  0  0  0  0  0  0
    5.8543    6.6079   10.2949 H   0  0  0  0  0  0  0  0  0  0  0  0
    7.5057    7.0985    9.9156 H   0  0  0  0  0  0  0  0  0  0  0  0
    4.2953    5.1824    7.9650 C   0  0  0  0  0  0  0  0  0  0  0  0
    3.3039    5.2165    7.5176 H   0  0  0  0  0  0  0  0  0  0  0  0
    4.1997    5.1891    9.0482 H   0  0  0  0  0  0  0  0  0  0  0  0
    4.7653    4.2423    7.6714 H   0  0  0  0  0  0  0  0  0  0  0  0
    4.2894    6.3514    5.0323 C   0  0  0  0  0  0  0  0  0  0  0  0
    4.6724    5.3937    4.6773 H   0  0  0  0  0  0  0  0  0  0  0  0
    4.2802    7.0506    4.2004 H   0  0  0  0  0  0  0  0  0  0  0  0
    3.2613    6.2021    5.3645 H   0  0  0  0  0  0  0  0  0  0  0  0
    6.6581    8.5193    4.8437 C   0  0  0  0  0  0  0  0  0  0  0  0
    6.8511    9.5715    5.0600 H   0  0  0  0  0  0  0  0  0  0  0  0
    5.9228    8.4646    4.0460 H   0  0  0  0  0  0  0  0  0  0  0  0
    7.5883    8.0719    4.4916 H   0  0  0  0  0  0  0  0  0  0  0  0
  5 22  1  0  0  0  0
  5 10  1  0  0  0  0
  6 12  1  0  0  0  0
  7 20  1  0  0  0  0
  8 26  1  0  0  0  0
  8 18  1  0  0  0  0
  9  2  1  6  0  0  0
  9  6  1  0  0  0  0
  9  5  1  0  0  0  0
 10 11  1  0  0  0  0
 12 10  2  0  0  0  0
 12 13  1  0  0  0  0
 14  6  1  0  0  0  0
 14  7  1  0  0  0  0
 15 14  1  0  0  0  0
 16 14  1  0  0  0  0
 17  3  1  6  0  0  0
 17  7  1  0  0  0  0
 17  8  1  0  0  0  0
 18 19  1  0  0  0  0
 20 18  2  0  0  0  0
 20 21  1  0  0  0  0
 22 25  1  0  0  0  0
 22 24  1  0  0  0  0
 23 22  1  0  0  0  0
 26 27  1  0  0  0  0
 26 28  1  0  0  0  0
 29 26  1  0  0  0  0
 30  1  1  0  0  0  0
 30 35  1  1  0  0  0
 30 31  1  0  0  0  0
 31 39  1  6  0  0  0
 32  1  1  0  0  0  0
 32 43  1  1  0  0  0
 32 31  1  0  0  0  0
 33 32  1  0  0  0  0
 34 33  2  0  0  0  0
 34 30  1  0  0  0  0
 35 37  1  0  0  0  0
 36 35  1  0  0  0  0
 38 35  1  0  0  0  0
 39 42  1  0  0  0  0
 39 41  1  0  0  0  0
 40 39  1  0  0  0  0
 43 45  1  0  0  0  0
 44 43  1  0  0  0  0
 46 43  1  0  0  0  0
 47 50  1  0  0  0  0
 47 33  1  0  0  0  0
 48 47  1  0  0  0  0
 49 47  1  0  0  0  0
 51 52  1  0  0  0  0
 51 34  1  0  0  0  0
 53 51  1  0  0  0  0
 54 51  1  0  0  0  0
M  END
$$$$
