CSD_code = BOJLIX | q = 0 | S = 0 | Stoichiometry = C12H13BrCuN3 | MND = 3
 OpenBabel04212202013D

 30 32  0  0  1  0  0  0  0  0999 V2000
    0.9336    6.5116    3.9404 Br  0  0  0  0  0  0  0  0  0  0  0  0
    1.2132    7.5914    2.0064 Cu  0  0  0  0  0  0  0  0  0  0  0  0
    1.1803   10.0814    0.1861 N   0  0  0  0  0  0  0  0  0  0  0  0
    1.6503    8.1784   -0.7005 N   0  0  0  0  0  0  0  0  0  0  0  0
    1.9742    6.1984    0.4064 N   0  0  0  0  0  0  0  0  0  0  0  0
    2.0544   13.2878    1.2875 C   0  0  0  0  0  0  0  0  0  0  0  0
    1.1822   13.8324    0.9636 H   0  0  0  0  0  0  0  0  0  0  0  0
    2.9280   13.8751    1.5093 H   0  0  0  0  0  0  0  0  0  0  0  0
    2.0448   11.9763    1.4252 C   0  0  0  0  0  0  0  0  0  0  0  0
    2.9251   11.4415    1.7551 H   0  0  0  0  0  0  0  0  0  0  0  0
    0.8512   11.1099    1.1431 C   0  0  0  0  0  0  0  0  0  0  0  0
    0.5355   10.6019    2.0616 H   0  0  0  0  0  0  0  0  0  0  0  0
    0.0218   11.7132    0.7614 H   0  0  0  0  0  0  0  0  0  0  0  0
    1.2861    8.7741    0.4746 C   0  0  0  0  0  0  0  0  0  0  0  0
    1.4707   10.3131   -1.1337 C   0  0  0  0  0  0  0  0  0  0  0  0
    1.4472   11.2952   -1.5590 H   0  0  0  0  0  0  0  0  0  0  0  0
    1.7595    9.1183   -1.6976 C   0  0  0  0  0  0  0  0  0  0  0  0
    2.0469    8.8815   -2.7002 H   0  0  0  0  0  0  0  0  0  0  0  0
    1.8528    6.7995   -0.7757 C   0  0  1  0  0  3  0  0  0  0  0  0
    1.8949    6.1033   -1.9765 C   0  0  0  0  0  0  0  0  0  0  0  0
    1.7808    6.6147   -2.9195 H   0  0  0  0  0  0  0  0  0  0  0  0
    2.0681    4.7243   -1.9427 C   0  0  0  0  0  0  0  0  0  0  0  0
    2.1807    4.1094   -0.6964 C   0  0  0  0  0  0  0  0  0  0  0  0
    2.3103    3.0417   -0.6221 H   0  0  0  0  0  0  0  0  0  0  0  0
    2.1242    4.8858    0.4460 C   0  0  0  0  0  0  0  0  0  0  0  0
    2.2024    4.4553    1.4348 H   0  0  0  0  0  0  0  0  0  0  0  0
    2.1447    3.9324   -3.2070 C   0  0  0  0  0  0  0  0  0  0  0  0
    3.1789    3.8913   -3.5508 H   0  0  0  0  0  0  0  0  0  0  0  0
    1.5468    4.3901   -3.9918 H   0  0  0  0  0  0  0  0  0  0  0  0
    1.8037    2.9130   -3.0454 H   0  0  0  0  0  0  0  0  0  0  0  0
  2  1  1  0  0  0  0
  3 14  1  0  0  0  0
  3 11  1  0  0  0  0
  4 14  1  0  0  0  0
  5 25  1  0  0  0  0
  5  2  1  0  0  0  0
  6  9  2  0  0  0  0
  6  8  1  0  0  0  0
  7  6  1  0  0  0  0
  9 10  1  0  0  0  0
 11  9  1  0  0  0  0
 11 12  1  0  0  0  0
 13 11  1  0  0  0  0
 14  2  2  0  0  0  0
 15  3  1  0  0  0  0
 16 15  1  0  0  0  0
 17 15  2  0  0  0  0
 17  4  1  0  0  0  0
 18 17  1  0  0  0  0
 19 20  1  1  0  0  0
 19  4  1  0  0  0  0
 19  5  1  0  0  0  0
 20 22  2  0  0  0  0
 21 20  1  0  0  0  0
 22 23  1  0  0  0  0
 23 24  1  0  0  0  0
 23 25  2  0  0  0  0
 25 26  1  0  0  0  0
 27 30  1  0  0  0  0
 27 22  1  0  0  0  0
 28 27  1  0  0  0  0
 29 27  1  0  0  0  0
M  END
$$$$
