CSD_code = BOJPAR | q = 0 | S = 0 | Stoichiometry = C17H29BIMoN9O | MND = 6
 OpenBabel04212202013D

 59 63  0  0  1  0  0  0  0  0999 V2000
    2.4097    4.0466    1.5670 I   0  0  0  0  0  0  0  0  0  0  0  0
    4.1311    2.4923    0.0195 Mo  0  0  0  0  0  0  0  0  0  0  0  0
    6.5517    3.3861    1.3992 O   0  0  0  0  0  1  0  0  0  0  0  0
    5.5524    3.0272    0.8480 N   0  0  0  0  0  2  0  0  0  0  0  0
    2.3428    1.7746   -1.0693 N   0  0  1  0  0  0  0  0  0  0  0  0
    2.1390    0.4453   -1.1719 N   0  0  0  0  0  0  0  0  0  0  0  0
    3.7985    0.8346    1.3849 N   0  0  2  0  0  0  0  0  0  0  0  0
    3.2838   -0.3197    0.9091 N   0  0  0  0  0  0  0  0  0  0  0  0
    5.1338    0.9060   -1.0059 N   0  0  1  0  0  0  0  0  0  0  0  0
    4.5190   -0.2700   -1.2226 N   0  0  0  0  0  0  0  0  0  0  0  0
    4.2955    3.6589   -1.5020 N   0  0  0  0  0  0  0  0  0  0  0  0
    4.8458    4.8834   -1.8158 N   0  0  0  0  0  0  0  0  0  0  0  0
    1.0947    3.8536   -1.7632 C   0  0  0  0  0  0  0  0  0  0  0  0
    1.3096    2.3828   -1.6565 C   0  0  2  0  0  3  0  0  0  0  0  0
    0.4254    1.4158   -2.1466 C   0  0  0  0  0  0  0  0  0  0  0  0
    0.9825    0.1971   -1.8176 C   0  0  0  0  0  0  0  0  0  0  0  0
    0.4523   -1.1631   -2.0932 C   0  0  0  0  0  0  0  0  0  0  0  0
    4.4199    1.7682    3.6194 C   0  0  0  0  0  0  0  0  0  0  0  0
    3.8964    0.7165    2.7114 C   0  0  1  0  0  3  0  0  0  0  0  0
    3.4242   -0.5421    3.0926 C   0  0  0  0  0  0  0  0  0  0  0  0
    3.0465   -1.1731    1.9230 C   0  0  0  0  0  0  0  0  0  0  0  0
    2.4751   -2.5340    1.7527 C   0  0  0  0  0  0  0  0  0  0  0  0
    7.3339    1.9472   -1.4827 C   0  0  0  0  0  0  0  0  0  0  0  0
    6.3504    0.8383   -1.5465 C   0  0  1  0  0  3  0  0  0  0  0  0
    6.5132   -0.4135   -2.1407 C   0  0  0  0  0  0  0  0  0  0  0  0
    5.3306   -1.0943   -1.9082 C   0  0  0  0  0  0  0  0  0  0  0  0
    4.9655   -2.4751   -2.3163 C   0  0  0  0  0  0  0  0  0  0  0  0
    5.6110    5.5120   -0.7662 C   0  0  0  0  0  0  0  0  0  0  0  0
    5.4338    5.0006   -3.1340 C   0  0  0  0  0  0  0  0  0  0  0  0
    3.1417   -0.5572   -0.5987 B   0  0  2  0  0  0  0  0  0  0  0  0
    2.8060   -1.6636   -0.8238 H   0  0  0  0  0  0  0  0  0  0  0  0
    3.7537    3.3952   -2.3324 H   0  0  0  0  0  0  0  0  0  0  0  0
   -0.4960    1.5919   -2.6630 H   0  0  0  0  0  0  0  0  0  0  0  0
    3.3679   -0.9337    4.0876 H   0  0  0  0  0  0  0  0  0  0  0  0
    7.3769   -0.7753   -2.6601 H   0  0  0  0  0  0  0  0  0  0  0  0
    0.2911    4.1497   -1.0883 H   0  0  0  0  0  0  0  0  0  0  0  0
    1.9774    4.4322   -1.5022 H   0  0  0  0  0  0  0  0  0  0  0  0
    0.7871    4.1038   -2.7785 H   0  0  0  0  0  0  0  0  0  0  0  0
    0.2877   -1.7078   -1.1651 H   0  0  0  0  0  0  0  0  0  0  0  0
   -0.4931   -1.0792   -2.6226 H   0  0  0  0  0  0  0  0  0  0  0  0
    1.1484   -1.7366   -2.7032 H   0  0  0  0  0  0  0  0  0  0  0  0
    3.6110    2.4225    3.9470 H   0  0  0  0  0  0  0  0  0  0  0  0
    4.8569    1.3024    4.5000 H   0  0  0  0  0  0  0  0  0  0  0  0
    5.1728    2.3799    3.1290 H   0  0  0  0  0  0  0  0  0  0  0  0
    2.3497   -2.9958    2.7282 H   0  0  0  0  0  0  0  0  0  0  0  0
    1.5062   -2.4860    1.2587 H   0  0  0  0  0  0  0  0  0  0  0  0
    3.1325   -3.1586    1.1499 H   0  0  0  0  0  0  0  0  0  0  0  0
    7.6484    2.1177   -0.4539 H   0  0  0  0  0  0  0  0  0  0  0  0
    8.2081    1.7041   -2.0813 H   0  0  0  0  0  0  0  0  0  0  0  0
    6.8893    2.8702   -1.8523 H   0  0  0  0  0  0  0  0  0  0  0  0
    4.7923   -3.1014   -1.4428 H   0  0  0  0  0  0  0  0  0  0  0  0
    4.0571   -2.4734   -2.9160 H   0  0  0  0  0  0  0  0  0  0  0  0
    5.7742   -2.9050   -2.9011 H   0  0  0  0  0  0  0  0  0  0  0  0
    5.0335    5.4716    0.1585 H   0  0  0  0  0  0  0  0  0  0  0  0
    6.5862    5.0391   -0.5984 H   0  0  0  0  0  0  0  0  0  0  0  0
    5.7664    6.5546   -1.0402 H   0  0  0  0  0  0  0  0  0  0  0  0
    5.5624    6.0573   -3.3634 H   0  0  0  0  0  0  0  0  0  0  0  0
    6.4130    4.5059   -3.2139 H   0  0  0  0  0  0  0  0  0  0  0  0
    4.7616    4.5628   -3.8740 H   0  0  0  0  0  0  0  0  0  0  0  0
  2  4  1  0  0  0  0
  2  7  1  0  0  0  0
  2  1  1  0  0  0  0
  4  3  1  0  0  0  0
  5  6  1  1  0  0  0
  5  2  1  0  0  0  0
  6 30  1  0  0  0  0
  7  8  1  1  0  0  0
  7 19  1  0  0  0  0
  8 21  1  0  0  0  0
  9 10  1  6  0  0  0
  9  2  1  0  0  0  0
 10 30  1  0  0  0  0
 11  2  1  0  0  0  0
 12 11  1  0  0  0  0
 12 28  1  0  0  0  0
 13 37  1  0  0  0  0
 13 36  1  0  0  0  0
 14 13  1  1  0  0  0
 14  5  1  0  0  0  0
 15 16  2  0  0  0  0
 15 14  1  0  0  0  0
 16  6  1  0  0  0  0
 17 16  1  0  0  0  0
 17 39  1  0  0  0  0
 18 42  1  0  0  0  0
 18 43  1  0  0  0  0
 19 20  1  0  0  0  0
 19 18  1  1  0  0  0
 20 34  1  0  0  0  0
 21 20  2  0  0  0  0
 22 21  1  0  0  0  0
 22 45  1  0  0  0  0
 23 48  1  0  0  0  0
 24 23  1  1  0  0  0
 24  9  1  0  0  0  0
 25 26  2  0  0  0  0
 25 24  1  0  0  0  0
 26 10  1  0  0  0  0
 27 26  1  0  0  0  0
 27 51  1  0  0  0  0
 28 55  1  0  0  0  0
 28 54  1  0  0  0  0
 29 12  1  0  0  0  0
 30 31  1  6  0  0  0
 30  8  1  0  0  0  0
 32 11  1  0  0  0  0
 33 15  1  0  0  0  0
 35 25  1  0  0  0  0
 38 13  1  0  0  0  0
 40 17  1  0  0  0  0
 41 17  1  0  0  0  0
 44 18  1  0  0  0  0
 46 22  1  0  0  0  0
 47 22  1  0  0  0  0
 49 23  1  0  0  0  0
 50 23  1  0  0  0  0
 52 27  1  0  0  0  0
 53 27  1  0  0  0  0
 56 28  1  0  0  0  0
 57 29  1  0  0  0  0
 58 29  1  0  0  0  0
 59 29  1  0  0  0  0
M  END
$$$$
