CSD_code = BOJPIC | q = 0 | S = 0 | Stoichiometry = C29H21AuClP | MND = 2
 OpenBabel04212202013D

 53 58  0  0  1  0  0  0  0  0999 V2000
    7.0154    7.6339   14.8170 C   0  0  0  0  0  0  0  0  0  0  0  0
    6.5085    8.8556   14.9783 C   0  0  0  0  0  0  0  0  0  0  0  0
    5.4478    9.0441   14.9351 H   0  0  0  0  0  0  0  0  0  0  0  0
    7.4304   10.0391   15.2082 C   0  0  1  0  0  0  0  0  0  0  0  0
    8.3778   10.0460   14.0260 C   0  0  0  0  0  0  0  0  0  0  0  0
    8.4371   10.9307   13.4150 H   0  0  0  0  0  0  0  0  0  0  0  0
    9.1067    8.9630   13.7546 C   0  0  0  0  0  0  0  0  0  0  0  0
   10.0715    8.8009   12.6677 C   0  0  0  0  0  0  0  0  0  0  0  0
    9.7823    9.2274   11.3745 C   0  0  0  0  0  0  0  0  0  0  0  0
    8.8260    9.6850   11.1662 H   0  0  0  0  0  0  0  0  0  0  0  0
   10.7045    9.0409   10.3614 C   0  0  0  0  0  0  0  0  0  0  0  0
   10.4702    9.3651    9.3582 H   0  0  0  0  0  0  0  0  0  0  0  0
   11.9211    8.4337   10.6273 C   0  0  0  0  0  0  0  0  0  0  0  0
   12.6348    8.2831    9.8315 H   0  0  0  0  0  0  0  0  0  0  0  0
   12.2204    8.0182   11.9144 C   0  0  0  0  0  0  0  0  0  0  0  0
   13.1675    7.5466   12.1278 H   0  0  0  0  0  0  0  0  0  0  0  0
   11.2992    8.1982   12.9285 C   0  0  0  0  0  0  0  0  0  0  0  0
   11.5346    7.8935   13.9412 H   0  0  0  0  0  0  0  0  0  0  0  0
    6.2711    6.3957   14.5923 C   0  0  0  0  0  0  0  0  0  0  0  0
    6.6349    5.2437   15.2839 C   0  0  0  0  0  0  0  0  0  0  0  0
    7.4420    5.2925   16.0048 H   0  0  0  0  0  0  0  0  0  0  0  0
    5.9553    4.0585   15.0762 C   0  0  0  0  0  0  0  0  0  0  0  0
    6.2484    3.1708   15.6154 H   0  0  0  0  0  0  0  0  0  0  0  0
    4.9081    4.0125   14.1706 C   0  0  0  0  0  0  0  0  0  0  0  0
    4.3835    3.0849   13.9986 H   0  0  0  0  0  0  0  0  0  0  0  0
    4.5355    5.1567   13.4839 C   0  0  0  0  0  0  0  0  0  0  0  0
    3.7190    5.1214   12.7779 H   0  0  0  0  0  0  0  0  0  0  0  0
    5.2101    6.3453   13.6924 C   0  0  0  0  0  0  0  0  0  0  0  0
    4.9330    7.2350   13.1457 H   0  0  0  0  0  0  0  0  0  0  0  0
    6.6590   11.3220   15.4295 C   0  0  0  0  0  0  0  0  0  0  0  0
    7.0890   12.5524   14.9495 C   0  0  0  0  0  0  0  0  0  0  0  0
    8.0070   12.6367   14.3883 H   0  0  0  0  0  0  0  0  0  0  0  0
    6.3622   13.7045   15.2000 C   0  0  0  0  0  0  0  0  0  0  0  0
    6.7120   14.6488   14.8097 H   0  0  0  0  0  0  0  0  0  0  0  0
    5.2021   13.6518   15.9508 C   0  0  0  0  0  0  0  0  0  0  0  0
    4.6362   14.5507   16.1436 H   0  0  0  0  0  0  0  0  0  0  0  0
    4.7846   12.4381   16.4694 C   0  0  0  0  0  0  0  0  0  0  0  0
    3.8951   12.3855   17.0795 H   0  0  0  0  0  0  0  0  0  0  0  0
    5.5092   11.2884   16.2158 C   0  0  0  0  0  0  0  0  0  0  0  0
    5.1857   10.3561   16.6560 H   0  0  0  0  0  0  0  0  0  0  0  0
    9.0077    8.5166   16.4053 C   0  0  0  0  0  0  0  0  0  0  0  0
    8.2832    9.7072   16.4364 C   0  0  0  0  0  0  0  0  0  0  0  0
    8.3849   10.5161   17.5541 C   0  0  0  0  0  0  0  0  0  0  0  0
    7.8445   11.4494   17.6045 H   0  0  0  0  0  0  0  0  0  0  0  0
    9.1876   10.1273   18.6172 C   0  0  0  0  0  0  0  0  0  0  0  0
    9.2594   10.7674   19.4835 H   0  0  0  0  0  0  0  0  0  0  0  0
    9.8939    8.9371   18.5804 C   0  0  0  0  0  0  0  0  0  0  0  0
   10.5126    8.6461   19.4154 H   0  0  0  0  0  0  0  0  0  0  0  0
    9.8084    8.1219   17.4647 C   0  0  0  0  0  0  0  0  0  0  0  0
   10.3545    7.1897   17.4065 H   0  0  0  0  0  0  0  0  0  0  0  0
    8.8356    7.5564   14.8846 P   0  0  1  0  0  4  0  0  0  0  0  0
   10.9598    3.6531   14.2122 Cl  0  0  0  0  0  0  0  0  0  0  0  0
    9.8919    5.6165   14.5460 Au  0  0  0  0  0  0  0  0  0  0  0  0
  1 51  1  0  0  0  0
  1  2  2  0  0  0  0
  2  4  1  0  0  0  0
  3  2  1  0  0  0  0
  4 30  1  1  0  0  0
  4 42  1  0  0  0  0
  5  4  1  0  0  0  0
  6  5  1  0  0  0  0
  7  5  2  0  0  0  0
  7 51  1  0  0  0  0
  8 17  1  0  0  0  0
  8  7  1  0  0  0  0
  9  8  2  0  0  0  0
 10  9  1  0  0  0  0
 11 13  2  0  0  0  0
 11  9  1  0  0  0  0
 12 11  1  0  0  0  0
 13 15  1  0  0  0  0
 14 13  1  0  0  0  0
 15 16  1  0  0  0  0
 15 17  2  0  0  0  0
 17 18  1  0  0  0  0
 19  1  1  0  0  0  0
 19 20  1  0  0  0  0
 20 21  1  0  0  0  0
 22 20  2  0  0  0  0
 22 23  1  0  0  0  0
 24 22  1  0  0  0  0
 25 24  1  0  0  0  0
 26 28  1  0  0  0  0
 26 24  2  0  0  0  0
 27 26  1  0  0  0  0
 28 19  2  0  0  0  0
 29 28  1  0  0  0  0
 30 39  1  0  0  0  0
 31 33  1  0  0  0  0
 31 30  2  0  0  0  0
 32 31  1  0  0  0  0
 33 35  2  0  0  0  0
 34 33  1  0  0  0  0
 35 36  1  0  0  0  0
 35 37  1  0  0  0  0
 37 38  1  0  0  0  0
 39 37  2  0  0  0  0
 39 40  1  0  0  0  0
 41 42  2  0  0  0  0
 41 49  1  0  0  0  0
 42 43  1  0  0  0  0
 43 44  1  0  0  0  0
 43 45  2  0  0  0  0
 45 46  1  0  0  0  0
 47 45  1  0  0  0  0
 47 48  1  0  0  0  0
 49 47  2  0  0  0  0
 50 49  1  0  0  0  0
 51 53  1  6  0  0  0
 51 41  1  0  0  0  0
 52 53  1  0  0  0  0
M  END
$$$$
