CSD_code = BOJQAV | q = 0 | S = 0 | Stoichiometry = C23H29AuClPSi2 | MND = 2
 OpenBabel04212202013D

 57 59  0  0  0  0  0  0  0  0999 V2000
    1.5530    5.4659   11.6463 C   0  0  0  0  0  0  0  0  0  0  0  0
    2.4875    6.3293   11.0758 C   0  0  0  0  0  0  0  0  0  0  0  0
    2.1396    7.4225   10.2888 C   0  0  0  0  0  0  0  0  0  0  0  0
    2.9481    7.9635    9.8130 H   0  0  0  0  0  0  0  0  0  0  0  0
    0.8478    7.8859   10.0613 C   0  0  0  0  0  0  0  0  0  0  0  0
   -0.2771    7.3611   10.6963 C   0  0  0  0  0  0  0  0  0  0  0  0
    0.7054    8.9742    9.0757 C   0  0  0  0  0  0  0  0  0  0  0  0
    1.3963   10.1727    9.2170 C   0  0  0  0  0  0  0  0  0  0  0  0
    2.0104   10.3337   10.0916 H   0  0  0  0  0  0  0  0  0  0  0  0
    1.2805   11.1618    8.2575 C   0  0  0  0  0  0  0  0  0  0  0  0
    1.8098   12.0951    8.3813 H   0  0  0  0  0  0  0  0  0  0  0  0
    0.4923   10.9566    7.1373 C   0  0  0  0  0  0  0  0  0  0  0  0
    0.4072   11.7283    6.3869 H   0  0  0  0  0  0  0  0  0  0  0  0
   -0.1828    9.7575    6.9803 C   0  0  0  0  0  0  0  0  0  0  0  0
   -0.7909    9.5900    6.1035 H   0  0  0  0  0  0  0  0  0  0  0  0
   -0.0805    8.7729    7.9458 C   0  0  0  0  0  0  0  0  0  0  0  0
   -0.5972    7.8323    7.8247 H   0  0  0  0  0  0  0  0  0  0  0  0
    3.9314    6.1272   11.3041 C   0  0  0  0  0  0  0  0  0  0  0  0
    4.4311    6.1851   12.6008 C   0  0  0  0  0  0  0  0  0  0  0  0
    3.7466    6.3366   13.4227 H   0  0  0  0  0  0  0  0  0  0  0  0
    5.7894    6.0686   12.8325 C   0  0  0  0  0  0  0  0  0  0  0  0
    6.1693    6.1220   13.8422 H   0  0  0  0  0  0  0  0  0  0  0  0
    6.6611    5.8823   11.7726 C   0  0  0  0  0  0  0  0  0  0  0  0
    7.7209    5.7846   11.9540 H   0  0  0  0  0  0  0  0  0  0  0  0
    6.1704    5.8260   10.4787 C   0  0  0  0  0  0  0  0  0  0  0  0
    6.8480    5.6823    9.6500 H   0  0  0  0  0  0  0  0  0  0  0  0
    4.8142    5.9594   10.2431 C   0  0  0  0  0  0  0  0  0  0  0  0
    4.4311    5.9165    9.2334 H   0  0  0  0  0  0  0  0  0  0  0  0
    3.6937    3.0894   12.0682 C   0  0  0  0  0  0  0  0  0  0  0  0
    3.9810    3.2287   11.0310 H   0  0  0  0  0  0  0  0  0  0  0  0
    3.7212    2.0241   12.2757 H   0  0  0  0  0  0  0  0  0  0  0  0
    4.4496    3.5622   12.6839 H   0  0  0  0  0  0  0  0  0  0  0  0
    1.6077    3.8814   14.2904 C   0  0  0  0  0  0  0  0  0  0  0  0
    0.6213    4.2987   14.4777 H   0  0  0  0  0  0  0  0  0  0  0  0
    2.3360    4.5088   14.7955 H   0  0  0  0  0  0  0  0  0  0  0  0
    1.6419    2.9017   14.7557 H   0  0  0  0  0  0  0  0  0  0  0  0
    0.7262    2.5375   11.5899 C   0  0  0  0  0  0  0  0  0  0  0  0
    0.6222    2.7406   10.5269 H   0  0  0  0  0  0  0  0  0  0  0  0
   -0.2653    2.6013   12.0312 H   0  0  0  0  0  0  0  0  0  0  0  0
    1.0626    1.5110   11.6962 H   0  0  0  0  0  0  0  0  0  0  0  0
   -2.5403    8.0926   12.5859 C   0  0  0  0  0  0  0  0  0  0  0  0
   -3.2423    8.8810   12.8381 H   0  0  0  0  0  0  0  0  0  0  0  0
   -1.6887    8.1841   13.2561 H   0  0  0  0  0  0  0  0  0  0  0  0
   -3.0251    7.1448   12.8043 H   0  0  0  0  0  0  0  0  0  0  0  0
   -3.2010    7.2107    9.6514 C   0  0  0  0  0  0  0  0  0  0  0  0
   -2.9765    7.3241    8.5954 H   0  0  0  0  0  0  0  0  0  0  0  0
   -4.2222    7.5444    9.8054 H   0  0  0  0  0  0  0  0  0  0  0  0
   -3.1648    6.1507    9.8898 H   0  0  0  0  0  0  0  0  0  0  0  0
   -1.9758   10.0471   10.2971 C   0  0  0  0  0  0  0  0  0  0  0  0
   -1.9095   10.2104    9.2280 H   0  0  0  0  0  0  0  0  0  0  0  0
   -1.1430   10.5660   10.7611 H   0  0  0  0  0  0  0  0  0  0  0  0
   -2.8900   10.5191   10.6443 H   0  0  0  0  0  0  0  0  0  0  0  0
    1.9428    3.7511   12.4190 Si  0  0  0  0  0  0  0  0  0  0  0  0
   -2.0047    8.1984   10.7566 Si  0  0  0  0  0  0  0  0  0  0  0  0
   -3.6053    3.5076   13.2292 Cl  0  0  0  0  0  0  0  0  0  0  0  0
   -1.8478    4.7125   12.4457 Au  0  0  0  0  0  0  0  0  0  0  0  0
   -0.1185    5.9053   11.6137 P   0  0  1  0  0  4  0  0  0  0  0  0
  1 53  1  0  0  0  0
  2 18  1  0  0  0  0
  2  1  1  0  0  0  0
  3  2  2  0  0  0  0
  4  3  1  0  0  0  0
  5  3  1  0  0  0  0
  5  6  2  0  0  0  0
  6 54  1  0  0  0  0
  6 57  1  0  0  0  0
  7  8  1  0  0  0  0
  7  5  1  0  0  0  0
  8  9  1  0  0  0  0
 10 11  1  0  0  0  0
 10  8  2  0  0  0  0
 12 10  1  0  0  0  0
 13 12  1  0  0  0  0
 14 12  2  0  0  0  0
 14 16  1  0  0  0  0
 15 14  1  0  0  0  0
 16  7  2  0  0  0  0
 17 16  1  0  0  0  0
 18 19  1  0  0  0  0
 19 21  2  0  0  0  0
 19 20  1  0  0  0  0
 21 22  1  0  0  0  0
 23 24  1  0  0  0  0
 23 21  1  0  0  0  0
 25 23  2  0  0  0  0
 26 25  1  0  0  0  0
 27 25  1  0  0  0  0
 27 18  2  0  0  0  0
 28 27  1  0  0  0  0
 29 31  1  0  0  0  0
 29 53  1  0  0  0  0
 29 32  1  0  0  0  0
 30 29  1  0  0  0  0
 33 34  1  0  0  0  0
 33 36  1  0  0  0  0
 33 35  1  0  0  0  0
 37 40  1  0  0  0  0
 37 39  1  0  0  0  0
 37 53  1  0  0  0  0
 38 37  1  0  0  0  0
 41 44  1  0  0  0  0
 41 42  1  0  0  0  0
 41 43  1  0  0  0  0
 45 47  1  0  0  0  0
 45 48  1  0  0  0  0
 45 54  1  0  0  0  0
 46 45  1  0  0  0  0
 49 52  1  0  0  0  0
 49 54  1  0  0  0  0
 49 51  1  0  0  0  0
 50 49  1  0  0  0  0
 53 33  1  0  0  0  0
 54 41  1  0  0  0  0
 56 55  1  0  0  0  0
 57  1  2  0  0  0  0
 57 56  1  6  0  0  0
M  END
$$$$
