CSD_code = BOKCUA | q = 0 | S = 0 | Stoichiometry = C19H11ClNO2RhS | MND = 4
 OpenBabel04212202013D

 36 39  0  0  0  0  0  0  0  0999 V2000
   -3.1169   10.7742   13.6312 Rh  0  0  0  0  0  0  0  0  0  0  0  0
   -1.3241   11.3100   14.8441 Cl  0  0  0  0  0  0  0  0  0  0  0  0
   -3.0807    9.0222    8.6455 S   0  0  0  0  0  0  0  0  0  0  0  0
   -4.4990   12.6862   15.4529 O   0  0  0  0  0  1  0  0  0  0  0  0
   -5.4503    9.9705   11.9369 O   0  0  0  0  0  1  0  0  0  0  0  0
   -1.9031    9.4210   12.6694 N   0  0  0  0  0  0  0  0  0  0  0  0
   -4.0341   11.9539   14.7128 C   0  0  0  0  0  2  0  0  0  0  0  0
   -4.5711   10.2705   12.6103 C   0  0  0  0  0  2  0  0  0  0  0  0
   -1.3806    8.4102   13.3622 C   0  0  0  0  0  3  0  0  0  0  0  0
   -0.4860    7.5111   12.8106 C   0  0  0  0  0  0  0  0  0  0  0  0
   -0.1136    7.6670   11.4838 C   0  0  0  0  0  0  0  0  0  0  0  0
   -0.6514    8.7175   10.7634 C   0  0  0  0  0  0  0  0  0  0  0  0
   -1.5439    9.5826   11.3876 C   0  0  0  0  0  0  0  0  0  0  0  0
   -2.1555   10.7180   10.6758 C   0  0  0  0  0  0  0  0  0  0  0  0
   -2.8541   10.5399    9.4850 C   0  0  0  0  0  0  0  0  0  0  0  0
   -3.5116   11.6114    8.8545 C   0  0  0  0  0  0  0  0  0  0  0  0
   -3.4428   12.8797    9.4230 C   0  0  0  0  0  0  0  0  0  0  0  0
   -2.7289   13.0702   10.5892 C   0  0  0  0  0  0  0  0  0  0  0  0
   -2.0980   12.0031   11.2233 C   0  0  0  0  0  0  0  0  0  0  0  0
   -4.0555    9.8148    7.4252 C   0  0  0  0  0  0  0  0  0  0  0  0
   -4.2006   11.1913    7.6618 C   0  0  0  0  0  0  0  0  0  0  0  0
   -4.9535   11.9503    6.7698 C   0  0  0  0  0  0  0  0  0  0  0  0
   -5.5361   11.3389    5.6789 C   0  0  0  0  0  0  0  0  0  0  0  0
   -5.3801    9.9735    5.4598 C   0  0  0  0  0  0  0  0  0  0  0  0
   -4.6382    9.1988    6.3307 C   0  0  0  0  0  0  0  0  0  0  0  0
   -1.6917    8.3222   14.3981 H   0  0  0  0  0  0  0  0  0  0  0  0
   -0.0902    6.7076   13.4106 H   0  0  0  0  0  0  0  0  0  0  0  0
    0.5851    6.9863   11.0219 H   0  0  0  0  0  0  0  0  0  0  0  0
   -0.3802    8.8846    9.7330 H   0  0  0  0  0  0  0  0  0  0  0  0
   -3.9444   13.7072    8.9456 H   0  0  0  0  0  0  0  0  0  0  0  0
   -2.6571   14.0566   11.0206 H   0  0  0  0  0  0  0  0  0  0  0  0
   -1.4690   12.1886   12.0905 H   0  0  0  0  0  0  0  0  0  0  0  0
   -5.0769   13.0093    6.9372 H   0  0  0  0  0  0  0  0  0  0  0  0
   -6.1207   11.9248    4.9858 H   0  0  0  0  0  0  0  0  0  0  0  0
   -5.8441    9.5129    4.6009 H   0  0  0  0  0  0  0  0  0  0  0  0
   -4.5132    8.1394    6.1693 H   0  0  0  0  0  0  0  0  0  0  0  0
  1  7  1  0  0  0  0
  1  2  1  0  0  0  0
  3 15  1  0  0  0  0
  5  8  1  0  0  0  0
  6  9  1  0  0  0  0
  6  1  1  0  0  0  0
  7  4  1  0  0  0  0
  8  1  1  0  0  0  0
  9 26  1  0  0  0  0
 10  9  1  0  0  0  0
 10 27  1  0  0  0  0
 11 10  2  0  0  0  0
 12 13  2  0  0  0  0
 12 11  1  0  0  0  0
 13  6  1  0  0  0  0
 14 19  1  0  0  0  0
 14 13  1  0  0  0  0
 15 14  2  0  0  0  0
 16 17  2  0  0  0  0
 16 15  1  0  0  0  0
 17 18  1  0  0  0  0
 18 31  1  0  0  0  0
 18 19  2  0  0  0  0
 19 32  1  0  0  0  0
 20 21  1  0  0  0  0
 20  3  1  0  0  0  0
 21 16  1  0  0  0  0
 22 33  1  0  0  0  0
 22 21  2  0  0  0  0
 23 22  1  0  0  0  0
 24 23  2  0  0  0  0
 24 25  1  0  0  0  0
 25 20  2  0  0  0  0
 28 11  1  0  0  0  0
 29 12  1  0  0  0  0
 30 17  1  0  0  0  0
 34 23  1  0  0  0  0
 35 24  1  0  0  0  0
 36 25  1  0  0  0  0
M  END
$$$$
