CSD_code = BOKPUP | q = 0 | S = 0 | Stoichiometry = C22H29AuClPSe | MND = 2
 OpenBabel04212202013D

 55 57  0  0  0  0  0  0  0  0999 V2000
    3.2584    4.7717    4.9285 Au  0  0  0  0  0  0  0  0  0  0  0  0
    3.3876    5.0667    2.6673 Cl  0  0  0  0  0  0  0  0  0  0  0  0
    3.4727    4.8850    7.3211 Se  0  0  0  0  0  0  0  0  0  0  0  0
    4.7307    6.6226    7.0304 P   0  0  0  0  0  4  0  0  0  0  0  0
    5.6270    4.0704   10.1368 C   0  0  0  0  0  0  0  0  0  0  0  0
    4.6664    3.7233    9.7515 H   0  0  0  0  0  0  0  0  0  0  0  0
    6.1258    3.2344   10.6266 H   0  0  0  0  0  0  0  0  0  0  0  0
    6.5058    4.5350    8.9156 C   0  0  0  0  0  0  0  0  0  0  0  0
    7.4699    4.0274    8.9642 H   0  0  0  0  0  0  0  0  0  0  0  0
    6.0056    4.2253    7.9997 H   0  0  0  0  0  0  0  0  0  0  0  0
    6.7298    6.0172    8.9494 C   0  0  0  0  0  0  0  0  0  0  0  0
    5.8323    6.9763    8.4504 C   0  0  0  0  0  0  0  0  0  0  0  0
    5.8343    8.2523    9.0122 C   0  0  0  0  0  0  0  0  0  0  0  0
    5.0787    8.9690    8.7339 H   0  0  0  0  0  0  0  0  0  0  0  0
    6.7198    8.6092   10.0203 C   0  0  0  0  0  0  0  0  0  0  0  0
    7.7984    7.7624   10.2489 C   0  0  0  0  0  0  0  0  0  0  0  0
    8.5892    8.0630   10.9193 H   0  0  0  0  0  0  0  0  0  0  0  0
    7.7874    6.4867    9.7261 C   0  0  0  0  0  0  0  0  0  0  0  0
    8.5683    5.7956   10.0083 H   0  0  0  0  0  0  0  0  0  0  0  0
    6.4210    9.7490   10.9510 C   0  0  0  0  0  0  0  0  0  0  0  0
    5.7096   10.4279   10.4798 H   0  0  0  0  0  0  0  0  0  0  0  0
    7.3302   10.3091   11.1710 H   0  0  0  0  0  0  0  0  0  0  0  0
    5.8128    9.2225   12.3050 C   0  0  0  0  0  0  0  0  0  0  0  0
    6.5384    9.3721   13.1045 H   0  0  0  0  0  0  0  0  0  0  0  0
    4.9235    9.8089   12.5375 H   0  0  0  0  0  0  0  0  0  0  0  0
    5.4787    7.7626   12.1928 C   0  0  0  0  0  0  0  0  0  0  0  0
    6.3756    6.7889   12.6164 C   0  0  0  0  0  0  0  0  0  0  0  0
    7.1728    7.0553   13.2958 H   0  0  0  0  0  0  0  0  0  0  0  0
    6.3346    5.5149   12.0798 C   0  0  0  0  0  0  0  0  0  0  0  0
    7.0976    4.7982   12.3479 H   0  0  0  0  0  0  0  0  0  0  0  0
    5.4002    5.1954   11.1018 C   0  0  0  0  0  0  0  0  0  0  0  0
    4.3465    6.0808   10.9001 C   0  0  0  0  0  0  0  0  0  0  0  0
    3.5424    5.8014   10.2319 H   0  0  0  0  0  0  0  0  0  0  0  0
    4.3822    7.3492   11.4429 C   0  0  0  0  0  0  0  0  0  0  0  0
    3.6025    8.0603   11.2066 H   0  0  0  0  0  0  0  0  0  0  0  0
    5.9092    6.6039    5.5759 C   0  0  0  0  0  0  0  0  0  0  0  0
    5.2687    6.5770    4.6843 H   0  0  0  0  0  0  0  0  0  0  0  0
    6.7751    5.3526    5.5794 C   0  0  0  0  0  0  0  0  0  0  0  0
    7.4706    5.3610    6.4172 H   0  0  0  0  0  0  0  0  0  0  0  0
    7.3475    5.3062    4.6551 H   0  0  0  0  0  0  0  0  0  0  0  0
    6.1577    4.4550    5.6294 H   0  0  0  0  0  0  0  0  0  0  0  0
    6.7641    7.8658    5.5699 C   0  0  0  0  0  0  0  0  0  0  0  0
    7.3827    7.9209    6.4647 H   0  0  0  0  0  0  0  0  0  0  0  0
    6.1563    8.7656    5.5093 H   0  0  0  0  0  0  0  0  0  0  0  0
    7.4201    7.8453    4.7017 H   0  0  0  0  0  0  0  0  0  0  0  0
    3.6470    8.1242    6.7828 C   0  0  0  0  0  0  0  0  0  0  0  0
    4.2950    9.0004    6.8968 H   0  0  0  0  0  0  0  0  0  0  0  0
    3.0181    8.1737    5.3959 C   0  0  0  0  0  0  0  0  0  0  0  0
    2.4296    7.2778    5.1964 H   0  0  0  0  0  0  0  0  0  0  0  0
    3.7626    8.2717    4.6089 H   0  0  0  0  0  0  0  0  0  0  0  0
    2.3507    9.0323    5.3369 H   0  0  0  0  0  0  0  0  0  0  0  0
    2.5736    8.1171    7.8662 C   0  0  0  0  0  0  0  0  0  0  0  0
    2.0266    9.0583    7.8652 H   0  0  0  0  0  0  0  0  0  0  0  0
    3.0077    7.9614    8.8533 H   0  0  0  0  0  0  0  0  0  0  0  0
    1.8638    7.3118    7.6801 H   0  0  0  0  0  0  0  0  0  0  0  0
  1  3  1  0  0  0  0
  2  1  1  0  0  0  0
  4  3  1  0  0  0  0
  4 12  1  0  0  0  0
  5  7  1  0  0  0  0
  5 31  1  0  0  0  0
  6  5  1  0  0  0  0
  8 11  1  0  0  0  0
  8  9  1  0  0  0  0
  8  5  1  0  0  0  0
 10  8  1  0  0  0  0
 11 18  1  0  0  0  0
 12 11  2  0  0  0  0
 12 13  1  0  0  0  0
 13 15  2  0  0  0  0
 14 13  1  0  0  0  0
 15 16  1  0  0  0  0
 15 20  1  0  0  0  0
 16 17  1  0  0  0  0
 18 19  1  0  0  0  0
 18 16  2  0  0  0  0
 20 22  1  0  0  0  0
 20 23  1  0  0  0  0
 21 20  1  0  0  0  0
 23 25  1  0  0  0  0
 23 24  1  0  0  0  0
 26 23  1  0  0  0  0
 26 27  1  0  0  0  0
 27 28  1  0  0  0  0
 29 30  1  0  0  0  0
 29 27  2  0  0  0  0
 31 29  1  0  0  0  0
 32 31  2  0  0  0  0
 32 34  1  0  0  0  0
 33 32  1  0  0  0  0
 34 26  2  0  0  0  0
 35 34  1  0  0  0  0
 36 38  1  0  0  0  0
 36  4  1  0  0  0  0
 37 36  1  0  0  0  0
 38 41  1  0  0  0  0
 38 39  1  0  0  0  0
 40 38  1  0  0  0  0
 42 36  1  0  0  0  0
 42 43  1  0  0  0  0
 44 42  1  0  0  0  0
 45 42  1  0  0  0  0
 46 47  1  0  0  0  0
 46  4  1  0  0  0  0
 46 52  1  0  0  0  0
 48 46  1  0  0  0  0
 49 48  1  0  0  0  0
 50 48  1  0  0  0  0
 51 48  1  0  0  0  0
 52 54  1  0  0  0  0
 53 52  1  0  0  0  0
 55 52  1  0  0  0  0
M  END
$$$$
