CSD_code = BOKPOJ | q = 0 | S = 0 | Stoichiometry = C22H29AuBrPS | MND = 2
 OpenBabel04212202013D

 55 57  0  0  0  0  0  0  0  0999 V2000
    9.5138    6.2070    3.2282 Au  0  0  0  0  0  0  0  0  0  0  0  0
   11.1786    7.8907    3.0797 Br  0  0  0  0  0  0  0  0  0  0  0  0
    8.1383    4.3728    3.6526 S   0  0  0  0  0  0  0  0  0  0  0  0
    9.5699    3.5474    4.7712 P   0  0  0  0  0  4  0  0  0  0  0  0
    5.6130    2.9504    5.5907 C   0  0  0  0  0  0  0  0  0  0  0  0
    4.6426    3.1688    6.0361 H   0  0  0  0  0  0  0  0  0  0  0  0
    5.6680    3.4402    4.6188 H   0  0  0  0  0  0  0  0  0  0  0  0
    6.7338    3.5622    6.5131 C   0  0  0  0  0  0  0  0  0  0  0  0
    7.1097    4.4629    6.0343 H   0  0  0  0  0  0  0  0  0  0  0  0
    6.2867    3.8450    7.4671 H   0  0  0  0  0  0  0  0  0  0  0  0
    7.8222    2.5611    6.7678 C   0  0  0  0  0  0  0  0  0  0  0  0
    8.8821    2.2751    5.8894 C   0  0  0  0  0  0  0  0  0  0  0  0
    9.4629    1.0086    5.9276 C   0  0  0  0  0  0  0  0  0  0  0  0
   10.1945    0.7255    5.1878 H   0  0  0  0  0  0  0  0  0  0  0  0
    9.0483    0.0373    6.8289 C   0  0  0  0  0  0  0  0  0  0  0  0
    8.2534    0.4549    7.8900 C   0  0  0  0  0  0  0  0  0  0  0  0
    8.0241   -0.2267    8.6951 H   0  0  0  0  0  0  0  0  0  0  0  0
    7.6477    1.6927    7.8438 C   0  0  0  0  0  0  0  0  0  0  0  0
    6.9368    1.9585    8.6126 H   0  0  0  0  0  0  0  0  0  0  0  0
    9.2816   -1.4221    6.5642 C   0  0  0  0  0  0  0  0  0  0  0  0
    9.5615   -1.9373    7.4836 H   0  0  0  0  0  0  0  0  0  0  0  0
   10.0969   -1.5365    5.8490 H   0  0  0  0  0  0  0  0  0  0  0  0
    7.9850   -2.0989    5.9817 C   0  0  0  0  0  0  0  0  0  0  0  0
    8.2669   -2.7043    5.1197 H   0  0  0  0  0  0  0  0  0  0  0  0
    7.5564   -2.7588    6.7362 H   0  0  0  0  0  0  0  0  0  0  0  0
    6.9790   -1.0516    5.5982 C   0  0  0  0  0  0  0  0  0  0  0  0
    5.9626   -0.6829    6.4717 C   0  0  0  0  0  0  0  0  0  0  0  0
    5.6976   -1.3369    7.2904 H   0  0  0  0  0  0  0  0  0  0  0  0
    5.3762    0.5662    6.3803 C   0  0  0  0  0  0  0  0  0  0  0  0
    4.6572    0.8743    7.1258 H   0  0  0  0  0  0  0  0  0  0  0  0
    5.8026    1.4728    5.4170 C   0  0  0  0  0  0  0  0  0  0  0  0
    6.6054    0.9922    4.3870 C   0  0  0  0  0  0  0  0  0  0  0  0
    6.8516    1.6445    3.5611 H   0  0  0  0  0  0  0  0  0  0  0  0
    7.1844   -0.2579    4.4743 C   0  0  0  0  0  0  0  0  0  0  0  0
    7.8792   -0.5859    3.7131 H   0  0  0  0  0  0  0  0  0  0  0  0
   10.5341    4.6482    5.9383 C   0  0  0  0  0  0  0  0  0  0  0  0
   11.1277    5.3129    5.2973 H   0  0  0  0  0  0  0  0  0  0  0  0
    9.6014    5.5019    6.7860 C   0  0  0  0  0  0  0  0  0  0  0  0
    9.0363    4.8846    7.4828 H   0  0  0  0  0  0  0  0  0  0  0  0
    8.9061    6.0611    6.1586 H   0  0  0  0  0  0  0  0  0  0  0  0
   10.1846    6.2219    7.3569 H   0  0  0  0  0  0  0  0  0  0  0  0
   11.4646    3.8141    6.8104 C   0  0  0  0  0  0  0  0  0  0  0  0
   12.0399    4.4774    7.4536 H   0  0  0  0  0  0  0  0  0  0  0  0
   12.1653    3.2352    6.2129 H   0  0  0  0  0  0  0  0  0  0  0  0
   10.8971    3.1321    7.4419 H   0  0  0  0  0  0  0  0  0  0  0  0
   10.8446    2.7163    3.6877 C   0  0  0  0  0  0  0  0  0  0  0  0
   11.4206    2.0464    4.3350 H   0  0  0  0  0  0  0  0  0  0  0  0
   11.8158    3.6957    3.0398 C   0  0  0  0  0  0  0  0  0  0  0  0
   12.5041    3.1453    2.4002 H   0  0  0  0  0  0  0  0  0  0  0  0
   12.4054    4.2399    3.7749 H   0  0  0  0  0  0  0  0  0  0  0  0
   11.2901    4.4184    2.4154 H   0  0  0  0  0  0  0  0  0  0  0  0
   10.0944    1.9122    2.6303 C   0  0  0  0  0  0  0  0  0  0  0  0
    9.5811    2.5850    1.9442 H   0  0  0  0  0  0  0  0  0  0  0  0
    9.3473    1.2627    3.0854 H   0  0  0  0  0  0  0  0  0  0  0  0
   10.7883    1.3021    2.0547 H   0  0  0  0  0  0  0  0  0  0  0  0
  1  3  1  0  0  0  0
  2  1  1  0  0  0  0
  3  4  1  0  0  0  0
  4 12  1  0  0  0  0
  4 36  1  0  0  0  0
  5  6  1  0  0  0  0
  5  8  1  0  0  0  0
  7  5  1  0  0  0  0
  8 11  1  0  0  0  0
  8 10  1  0  0  0  0
  9  8  1  0  0  0  0
 11 18  1  0  0  0  0
 12 13  1  0  0  0  0
 12 11  2  0  0  0  0
 13 15  2  0  0  0  0
 14 13  1  0  0  0  0
 15 16  1  0  0  0  0
 16 17  1  0  0  0  0
 18 16  2  0  0  0  0
 18 19  1  0  0  0  0
 20 15  1  0  0  0  0
 20 21  1  0  0  0  0
 22 20  1  0  0  0  0
 23 20  1  0  0  0  0
 23 25  1  0  0  0  0
 24 23  1  0  0  0  0
 26 23  1  0  0  0  0
 26 27  1  0  0  0  0
 27 28  1  0  0  0  0
 29 27  2  0  0  0  0
 29 30  1  0  0  0  0
 31  5  1  0  0  0  0
 31 29  1  0  0  0  0
 32 34  1  0  0  0  0
 32 31  2  0  0  0  0
 33 32  1  0  0  0  0
 34 26  2  0  0  0  0
 35 34  1  0  0  0  0
 36 38  1  0  0  0  0
 36 42  1  0  0  0  0
 37 36  1  0  0  0  0
 38 41  1  0  0  0  0
 38 39  1  0  0  0  0
 40 38  1  0  0  0  0
 42 45  1  0  0  0  0
 42 43  1  0  0  0  0
 44 42  1  0  0  0  0
 46 47  1  0  0  0  0
 46  4  1  0  0  0  0
 48 46  1  0  0  0  0
 48 50  1  0  0  0  0
 49 48  1  0  0  0  0
 51 48  1  0  0  0  0
 52 54  1  0  0  0  0
 52 46  1  0  0  0  0
 53 52  1  0  0  0  0
 55 52  1  0  0  0  0
M  END
$$$$
