CSD_code = BOKQAW | q = 0 | S = 0 | Stoichiometry = C22H29AuBrPSe | MND = 2
 OpenBabel04212202013D

 55 57  0  0  0  0  0  0  0  0999 V2000
    4.9641   11.7427    6.6798 Au  0  0  0  0  0  0  0  0  0  0  0  0
    3.2257   13.3636    6.5501 Br  0  0  0  0  0  0  0  0  0  0  0  0
    6.4327    9.8128    6.4698 Se  0  0  0  0  0  0  0  0  0  0  0  0
    4.9583    8.8841    5.1976 P   0  0  0  0  0  4  0  0  0  0  0  0
    8.9264    8.2598    4.3226 C   0  0  0  0  0  0  0  0  0  0  0  0
    9.8864    8.4577    3.8461 H   0  0  0  0  0  0  0  0  0  0  0  0
    8.9184    8.7501    5.2978 H   0  0  0  0  0  0  0  0  0  0  0  0
    7.7877    8.8958    3.4410 C   0  0  0  0  0  0  0  0  0  0  0  0
    7.4150    9.7821    3.9517 H   0  0  0  0  0  0  0  0  0  0  0  0
    8.2158    9.2111    2.4887 H   0  0  0  0  0  0  0  0  0  0  0  0
    6.6939    7.9037    3.1804 C   0  0  0  0  0  0  0  0  0  0  0  0
    5.6384    7.6201    4.0634 C   0  0  0  0  0  0  0  0  0  0  0  0
    5.0429    6.3606    4.0171 C   0  0  0  0  0  0  0  0  0  0  0  0
    4.3106    6.0794    4.7567 H   0  0  0  0  0  0  0  0  0  0  0  0
    5.4427    5.3939    3.1042 C   0  0  0  0  0  0  0  0  0  0  0  0
    6.2371    5.8125    2.0428 C   0  0  0  0  0  0  0  0  0  0  0  0
    6.4547    5.1357    1.2306 H   0  0  0  0  0  0  0  0  0  0  0  0
    6.8549    7.0440    2.0955 C   0  0  0  0  0  0  0  0  0  0  0  0
    7.5640    7.3108    1.3253 H   0  0  0  0  0  0  0  0  0  0  0  0
    5.1949    3.9348    3.3561 C   0  0  0  0  0  0  0  0  0  0  0  0
    4.9325    3.4283    2.4270 H   0  0  0  0  0  0  0  0  0  0  0  0
    4.3636    3.8199    4.0522 H   0  0  0  0  0  0  0  0  0  0  0  0
    6.4750    3.2455    3.9622 C   0  0  0  0  0  0  0  0  0  0  0  0
    6.1759    2.6632    4.8342 H   0  0  0  0  0  0  0  0  0  0  0  0
    6.8955    2.5624    3.2242 H   0  0  0  0  0  0  0  0  0  0  0  0
    7.4981    4.2799    4.3346 C   0  0  0  0  0  0  0  0  0  0  0  0
    8.5135    4.6316    3.4528 C   0  0  0  0  0  0  0  0  0  0  0  0
    8.7627    3.9719    2.6339 H   0  0  0  0  0  0  0  0  0  0  0  0
    9.1196    5.8715    3.5379 C   0  0  0  0  0  0  0  0  0  0  0  0
    9.8387    6.1671    2.7875 H   0  0  0  0  0  0  0  0  0  0  0  0
    8.7135    6.7864    4.5024 C   0  0  0  0  0  0  0  0  0  0  0  0
    7.9105    6.3201    5.5380 C   0  0  0  0  0  0  0  0  0  0  0  0
    7.6794    6.9779    6.3655 H   0  0  0  0  0  0  0  0  0  0  0  0
    7.3129    5.0785    5.4584 C   0  0  0  0  0  0  0  0  0  0  0  0
    6.6208    4.7612    6.2265 H   0  0  0  0  0  0  0  0  0  0  0  0
    3.9948    9.9999    4.0425 C   0  0  0  0  0  0  0  0  0  0  0  0
    3.4197   10.6722    4.6925 H   0  0  0  0  0  0  0  0  0  0  0  0
    4.9297   10.8421    3.1860 C   0  0  0  0  0  0  0  0  0  0  0  0
    5.4750   10.2201    2.4778 H   0  0  0  0  0  0  0  0  0  0  0  0
    5.6423   11.3869    3.8070 H   0  0  0  0  0  0  0  0  0  0  0  0
    4.3503   11.5756    2.6288 H   0  0  0  0  0  0  0  0  0  0  0  0
    3.0417    9.1834    3.1780 C   0  0  0  0  0  0  0  0  0  0  0  0
    2.4795    9.8592    2.5364 H   0  0  0  0  0  0  0  0  0  0  0  0
    2.3296    8.6237    3.7801 H   0  0  0  0  0  0  0  0  0  0  0  0
    3.5900    8.4869    2.5453 H   0  0  0  0  0  0  0  0  0  0  0  0
    3.6805    8.0497    6.2749 C   0  0  0  0  0  0  0  0  0  0  0  0
    3.0686    7.4212    5.6187 H   0  0  0  0  0  0  0  0  0  0  0  0
    2.7688    9.0569    6.9654 C   0  0  0  0  0  0  0  0  0  0  0  0
    2.0813    8.5275    7.6234 H   0  0  0  0  0  0  0  0  0  0  0  0
    2.1768    9.6329    6.2571 H   0  0  0  0  0  0  0  0  0  0  0  0
    3.3471    9.7492    7.5779 H   0  0  0  0  0  0  0  0  0  0  0  0
    4.4088    7.1906    7.3031 C   0  0  0  0  0  0  0  0  0  0  0  0
    4.9368    7.8273    8.0125 H   0  0  0  0  0  0  0  0  0  0  0  0
    5.1394    6.5364    6.8296 H   0  0  0  0  0  0  0  0  0  0  0  0
    3.6981    6.5818    7.8592 H   0  0  0  0  0  0  0  0  0  0  0  0
  2  1  1  0  0  0  0
  3  1  1  0  0  0  0
  4 46  1  0  0  0  0
  4  3  1  0  0  0  0
  5 31  1  0  0  0  0
  5  7  1  0  0  0  0
  6  5  1  0  0  0  0
  8  9  1  0  0  0  0
  8  5  1  0  0  0  0
 10  8  1  0  0  0  0
 11  8  1  0  0  0  0
 11 12  1  0  0  0  0
 12  4  1  0  0  0  0
 13 12  2  0  0  0  0
 13 14  1  0  0  0  0
 15 20  1  0  0  0  0
 15 13  1  0  0  0  0
 16 18  1  0  0  0  0
 16 15  2  0  0  0  0
 17 16  1  0  0  0  0
 18 11  2  0  0  0  0
 19 18  1  0  0  0  0
 20 23  1  0  0  0  0
 20 22  1  0  0  0  0
 21 20  1  0  0  0  0
 23 26  1  0  0  0  0
 23 24  1  0  0  0  0
 25 23  1  0  0  0  0
 26 34  1  0  0  0  0
 27 29  1  0  0  0  0
 27 26  2  0  0  0  0
 28 27  1  0  0  0  0
 29 31  2  0  0  0  0
 30 29  1  0  0  0  0
 31 32  1  0  0  0  0
 32 33  1  0  0  0  0
 34 32  2  0  0  0  0
 34 35  1  0  0  0  0
 36 37  1  0  0  0  0
 36  4  1  0  0  0  0
 38 40  1  0  0  0  0
 38 36  1  0  0  0  0
 39 38  1  0  0  0  0
 41 38  1  0  0  0  0
 42 44  1  0  0  0  0
 42 36  1  0  0  0  0
 43 42  1  0  0  0  0
 45 42  1  0  0  0  0
 46 48  1  0  0  0  0
 46 52  1  0  0  0  0
 47 46  1  0  0  0  0
 48 51  1  0  0  0  0
 48 49  1  0  0  0  0
 50 48  1  0  0  0  0
 52 55  1  0  0  0  0
 52 53  1  0  0  0  0
 54 52  1  0  0  0  0
M  END
$$$$
