CSD_code = BOKRUO | q = 0 | S = 0 | Stoichiometry = C16H16Cl2N4O2Pd | MND = 4
 OpenBabel04212202013D

 41 43  0  0  1  0  0  0  0  0999 V2000
    0.9427    0.0049    0.8012 Pd  0  0  0  0  0  0  0  0  0  0  0  0
   -0.1422    0.1961    2.8003 Cl  0  0  0  0  0  0  0  0  0  0  0  0
    1.9914   -0.2813   -1.3872 Cl  0  0  0  0  0  0  0  0  0  0  0  0
    1.2725    2.0898    0.8818 N   0  0  0  0  0  0  0  0  0  0  0  0
    0.9281   -1.9860    0.9494 N   0  0  0  0  0  0  0  0  0  0  0  0
   -0.7716    1.4737   -1.2442 N   0  0  0  0  0  0  0  0  0  0  0  0
   -0.4389   -1.3505   -1.8159 N   0  0  0  0  0  0  0  0  0  0  0  0
    0.8085    2.7460   -2.2682 O   0  0  0  0  0  0  0  0  0  0  0  0
   -1.9258   -1.8686   -0.1882 O   0  0  0  0  0  0  0  0  0  0  0  0
   -1.1659    0.9385   -2.5352 C   0  0  0  0  0  0  0  0  0  0  0  0
   -1.4424   -0.5694   -2.5148 C   0  0  0  0  0  0  0  0  0  0  0  0
   -1.7512    1.3777   -0.1722 C   0  0  0  0  0  0  0  0  0  0  0  0
    0.8772   -1.4221   -2.3032 C   0  0  0  0  0  0  0  0  0  0  0  0
    0.6558    2.9545    0.0717 C   0  0  1  0  0  3  0  0  0  0  0  0
    0.5686    4.3096    0.3576 C   0  0  0  0  0  0  0  0  0  0  0  0
    1.1231    4.7763    1.5381 C   0  0  0  0  0  0  0  0  0  0  0  0
    1.7688    3.8755    2.3736 C   0  0  0  0  0  0  0  0  0  0  0  0
    1.8232    2.5425    2.0083 C   0  0  0  0  0  0  0  0  0  0  0  0
    0.2865   -2.7378    0.0503 C   0  0  2  0  0  3  0  0  0  0  0  0
    0.6068   -4.0628   -0.2202 C   0  0  0  0  0  3  0  0  0  0  0  0
    1.6029   -4.5911    0.6083 C   0  0  0  0  0  0  0  0  0  0  0  0
    2.1862   -3.8584    1.6335 C   0  0  0  0  0  0  0  0  0  0  0  0
    1.8489   -2.5195    1.7443 C   0  0  0  0  0  0  0  0  0  0  0  0
    0.2181    2.4026   -1.2594 C   0  0  0  0  0  0  0  0  0  0  0  0
   -0.8045   -1.9748   -0.6336 C   0  0  0  0  0  0  0  0  0  0  0  0
    0.0775    4.9716   -0.3377 H   0  0  0  0  0  0  0  0  0  0  0  0
    1.0624    5.8223    1.7961 H   0  0  0  0  0  0  0  0  0  0  0  0
    2.2247    4.2003    3.2949 H   0  0  0  0  0  0  0  0  0  0  0  0
    2.3177    1.8048    2.6340 H   0  0  0  0  0  0  0  0  0  0  0  0
    1.9191   -5.6145    0.4499 H   0  0  0  0  0  0  0  0  0  0  0  0
    2.9159   -4.2881    2.3059 H   0  0  0  0  0  0  0  0  0  0  0  0
    2.3163   -1.8586    2.4752 H   0  0  0  0  0  0  0  0  0  0  0  0
   -2.0721    1.4443   -2.8911 H   0  0  0  0  0  0  0  0  0  0  0  0
   -0.3505    1.1723   -3.2252 H   0  0  0  0  0  0  0  0  0  0  0  0
   -1.5217   -0.9205   -3.5482 H   0  0  0  0  0  0  0  0  0  0  0  0
   -2.3840   -0.7777   -2.0007 H   0  0  0  0  0  0  0  0  0  0  0  0
   -1.4139    1.9234    0.7101 H   0  0  0  0  0  0  0  0  0  0  0  0
   -2.7003    1.8100   -0.5063 H   0  0  0  0  0  0  0  0  0  0  0  0
   -1.9278    0.3347    0.1120 H   0  0  0  0  0  0  0  0  0  0  0  0
    0.9339   -1.1055   -3.3432 H   0  0  0  0  0  0  0  0  0  0  0  0
    1.3098   -2.4141   -2.1598 H   0  0  0  0  0  0  0  0  0  0  0  0
  1  4  1  0  0  0  0
  1  5  1  0  0  0  0
  1  2  1  0  0  0  0
  4 18  1  0  0  0  0
  5 23  1  0  0  0  0
  6 12  1  0  0  0  0
  7 25  1  0  0  0  0
  8 24  2  0  0  0  0
 10 11  1  0  0  0  0
 10  6  1  0  0  0  0
 11 36  1  0  0  0  0
 11  7  1  0  0  0  0
 12 39  1  0  0  0  0
 12 37  1  0  0  0  0
 13 41  1  0  0  0  0
 13  7  1  0  0  0  0
 13  3  1  0  0  0  0
 14 24  1  6  0  0  0
 14 15  1  0  0  0  0
 14  4  1  0  0  0  0
 15 16  2  0  0  0  0
 16 27  1  0  0  0  0
 16 17  1  0  0  0  0
 17 28  1  0  0  0  0
 18 17  2  0  0  0  0
 18 29  1  0  0  0  0
 19 20  1  6  0  0  0
 19  5  1  0  0  0  0
 20 21  2  0  0  0  0
 21 22  1  0  0  0  0
 22 23  2  0  0  0  0
 22 31  1  0  0  0  0
 23 32  1  0  0  0  0
 24  6  1  0  0  0  0
 25  9  2  0  0  0  0
 25 19  1  0  0  0  0
 26 15  1  0  0  0  0
 30 21  1  0  0  0  0
 33 10  1  0  0  0  0
 34 10  1  0  0  0  0
 35 11  1  0  0  0  0
 38 12  1  0  0  0  0
 40 13  1  0  0  0  0
M  END
$$$$
