CSD_code = BOKZAD | q = 1 | S = 0 | Stoichiometry = C25H29ClN3NiO3(1+) | MND = 6
 OpenBabel04212202013D

 62 65  0  0  1  0  0  0  0  0999 V2000
    2.2004   12.3106    5.3253 Ni  0  0  1  0  0  0  0  0  0  0  0  0
    0.2236   12.1384    4.9183 Cl  0  0  0  0  0  0  0  0  0  0  0  0
    3.9734   12.3138    5.7097 N   0  0  0  0  0  0  0  0  0  0  0  0
    4.7142   11.6471    2.2924 O   0  0  0  0  0  0  0  0  0  0  0  0
    1.2336   11.7971    1.5413 C   0  0  0  0  0  0  0  0  0  0  0  0
    0.3369   11.9653    2.1157 H   0  0  0  0  0  0  0  0  0  0  0  0
    0.9291   15.3181    4.4529 C   0  0  0  0  0  0  0  0  0  0  0  0
    1.0489   16.4038    4.4809 H   0  0  0  0  0  0  0  0  0  0  0  0
    0.2483   15.0024    5.2400 H   0  0  0  0  0  0  0  0  0  0  0  0
    0.5180   15.0164    3.4876 H   0  0  0  0  0  0  0  0  0  0  0  0
    2.4054    9.8495    5.5120 O   0  0  0  0  0  0  0  0  0  0  0  0
    2.8559   12.0182    3.4628 N   0  0  0  0  0  0  0  0  0  0  0  0
    1.2224   11.5496    0.1852 C   0  0  0  0  0  0  0  0  0  0  0  0
    0.2801   11.5271   -0.3391 H   0  0  0  0  0  0  0  0  0  0  0  0
    2.0795    9.0087    4.4128 C   0  0  0  0  0  0  0  0  0  0  0  0
    1.1273    9.3017    3.9630 H   0  0  0  0  0  0  0  0  0  0  0  0
    2.0315    7.9652    4.7315 H   0  0  0  0  0  0  0  0  0  0  0  0
    2.8730    9.1122    3.6748 H   0  0  0  0  0  0  0  0  0  0  0  0
    2.1800   14.6784    4.7014 O   0  0  0  0  0  0  0  0  0  0  0  0
    2.0539   12.6865    7.2586 N   0  0  0  0  0  0  0  0  0  0  0  0
    2.3997   11.3242   -0.5360 C   0  0  0  0  0  0  0  0  0  0  0  0
    2.3346   11.1358   -1.5960 H   0  0  0  0  0  0  0  0  0  0  0  0
    3.6442   11.3326    0.0661 C   0  0  0  0  0  0  0  0  0  0  0  0
    4.5524   11.1568   -0.4857 H   0  0  0  0  0  0  0  0  0  0  0  0
    3.6615   11.5791    1.4271 C   0  0  0  0  0  0  0  0  0  0  0  0
    4.1669   11.9070    3.4803 C   0  0  1  0  0  3  0  0  0  0  0  0
    4.8554   12.0534    4.7423 C   0  0  0  0  0  0  0  0  0  0  0  0
    6.2139   11.9316    5.0142 C   0  0  0  0  0  0  0  0  0  0  0  0
    6.9129   11.7202    4.2217 H   0  0  0  0  0  0  0  0  0  0  0  0
    6.6250   12.0844    6.3316 C   0  0  0  0  0  0  0  0  0  0  0  0
    7.6712   11.9985    6.5803 H   0  0  0  0  0  0  0  0  0  0  0  0
    5.6950   12.3377    7.3314 C   0  0  0  0  0  0  0  0  0  0  0  0
    6.0089   12.4474    8.3565 H   0  0  0  0  0  0  0  0  0  0  0  0
    4.3496   12.4429    6.9822 C   0  0  0  0  0  0  0  0  0  0  0  0
    3.2014   12.7059    7.8512 C   0  0  0  0  0  0  0  0  0  0  0  0
    3.4048   12.9525    9.3050 C   0  0  0  0  0  0  0  0  0  0  0  0
    2.4542   13.0571    9.8214 H   0  0  0  0  0  0  0  0  0  0  0  0
    3.9932   13.8568    9.4557 H   0  0  0  0  0  0  0  0  0  0  0  0
    3.9589   12.1220    9.7414 H   0  0  0  0  0  0  0  0  0  0  0  0
    0.8796   13.0641    7.9406 C   0  0  0  0  0  0  0  0  0  0  0  0
    0.6543   14.4195    8.2250 C   0  0  0  0  0  0  0  0  0  0  0  0
   -0.5353   14.7796    8.8382 C   0  0  0  0  0  0  0  0  0  0  0  0
   -0.7137   15.8246    9.0444 H   0  0  0  0  0  0  0  0  0  0  0  0
   -1.4927   13.8416    9.1946 C   0  0  0  0  0  0  0  0  0  0  0  0
   -1.2335   12.5030    8.9262 C   0  0  0  0  0  0  0  0  0  0  0  0
   -1.9601   11.7568    9.2106 H   0  0  0  0  0  0  0  0  0  0  0  0
   -0.0693   12.0970    8.3008 C   0  0  0  0  0  0  0  0  0  0  0  0
    2.4785   11.8116    2.1623 C   0  0  0  0  0  0  0  0  0  0  0  0
   -2.7773   14.2514    9.8378 C   0  0  0  0  0  0  0  0  0  0  0  0
   -3.0405   13.5695   10.6432 H   0  0  0  0  0  0  0  0  0  0  0  0
   -3.5818   14.2222    9.1032 H   0  0  0  0  0  0  0  0  0  0  0  0
   -2.7138   15.2612   10.2337 H   0  0  0  0  0  0  0  0  0  0  0  0
    1.6579   15.4776    7.8761 C   0  0  0  0  0  0  0  0  0  0  0  0
    1.1513   16.4204    7.6871 H   0  0  0  0  0  0  0  0  0  0  0  0
    2.2348   15.2071    6.9950 H   0  0  0  0  0  0  0  0  0  0  0  0
    2.3469   15.6358    8.7065 H   0  0  0  0  0  0  0  0  0  0  0  0
    0.1748   10.6451    8.0255 C   0  0  0  0  0  0  0  0  0  0  0  0
   -0.0434   10.4520    6.9743 H   0  0  0  0  0  0  0  0  0  0  0  0
   -0.4862   10.0284    8.6281 H   0  0  0  0  0  0  0  0  0  0  0  0
    1.2068   10.3709    8.2434 H   0  0  0  0  0  0  0  0  0  0  0  0
    2.7813   14.9391    3.9948 H   0  0  0  0  0  0  0  0  0  0  0  0
    1.7560    9.6645    6.2042 H   0  0  0  0  0  0  0  0  0  0  0  0
  1  2  1  1  0  0  0
  1  3  1  0  0  0  0
  1 20  1  0  0  0  0
  3 34  1  0  0  0  0
  5  6  1  0  0  0  0
  5 48  1  0  0  0  0
  7  8  1  0  0  0  0
  7 19  1  0  0  0  0
  7  9  1  0  0  0  0
 10  7  1  0  0  0  0
 11 62  1  0  0  0  0
 12 26  1  0  0  0  0
 12  1  1  0  0  0  0
 13  5  2  0  0  0  0
 14 13  1  0  0  0  0
 15 17  1  0  0  0  0
 15 11  1  0  0  0  0
 16 15  1  0  0  0  0
 18 15  1  0  0  0  0
 20 35  1  0  0  0  0
 20 40  1  0  0  0  0
 21 23  2  0  0  0  0
 21 13  1  0  0  0  0
 22 21  1  0  0  0  0
 23 25  1  0  0  0  0
 24 23  1  0  0  0  0
 25 48  2  0  0  0  0
 25  4  1  0  0  0  0
 26  4  1  1  0  0  0
 26 27  1  0  0  0  0
 27 28  2  0  0  0  0
 27  3  1  0  0  0  0
 28 30  1  0  0  0  0
 29 28  1  0  0  0  0
 30 31  1  0  0  0  0
 30 32  2  0  0  0  0
 32 33  1  0  0  0  0
 34 32  1  0  0  0  0
 34 35  2  0  0  0  0
 35 36  1  0  0  0  0
 36 38  1  0  0  0  0
 36 39  1  0  0  0  0
 36 37  1  0  0  0  0
 40 41  2  0  0  0  0
 40 47  1  0  0  0  0
 41 42  1  0  0  0  0
 42 43  1  0  0  0  0
 42 44  2  0  0  0  0
 44 49  1  0  0  0  0
 45 44  1  0  0  0  0
 45 46  1  0  0  0  0
 47 45  2  0  0  0  0
 48 12  1  0  0  0  0
 49 52  1  0  0  0  0
 49 50  1  0  0  0  0
 51 49  1  0  0  0  0
 53 41  1  0  0  0  0
 53 56  1  0  0  0  0
 54 53  1  0  0  0  0
 55 53  1  0  0  0  0
 57 60  1  0  0  0  0
 57 47  1  0  0  0  0
 57 59  1  0  0  0  0
 58 57  1  0  0  0  0
 61 19  1  0  0  0  0
M  END
$$$$
