CSD_code = BOLBOU | q = 0 | S = 0 | Stoichiometry = C19H27BrClCoN2OP2 | MND = 6
 OpenBabel04212202013D

 54 57  0  0  0  0  0  0  0  0999 V2000
    7.3812    4.2741    4.0143 O   0  0  0  0  0  0  0  0  0  0  0  0
    5.9581    5.2535    6.5961 Cl  0  0  0  0  0  0  0  0  0  0  0  0
    7.7787    5.6454    5.4192 Co  0  0  0  0  0  0  0  0  0  0  0  0
    8.2326    9.4250    9.9001 Br  0  0  0  0  0  0  0  0  0  0  0  0
    8.6537    4.0964    6.6860 P   0  0  0  0  0  4  0  0  0  0  0  0
    6.5170    7.0897    4.3743 P   0  0  0  0  0  4  0  0  0  0  0  0
    9.2557    5.9554    4.4534 N   0  0  0  0  0  0  0  0  0  0  0  0
   10.1057    6.8329    4.8034 N   0  0  0  0  0  2  0  0  0  0  0  0
    8.6127    4.3458    8.4925 C   0  0  0  0  0  0  0  0  0  0  0  0
    8.9793    3.4486    8.9904 H   0  0  0  0  0  0  0  0  0  0  0  0
    7.5850    4.5431    8.7919 H   0  0  0  0  0  0  0  0  0  0  0  0
    9.2345    5.1976    8.7614 H   0  0  0  0  0  0  0  0  0  0  0  0
   10.4217    3.6926    6.4037 C   0  0  0  0  0  0  0  0  0  0  0  0
   10.7410    2.9087    7.0897 H   0  0  0  0  0  0  0  0  0  0  0  0
   11.0283    4.5833    6.5639 H   0  0  0  0  0  0  0  0  0  0  0  0
   10.5599    3.3547    5.3770 H   0  0  0  0  0  0  0  0  0  0  0  0
    5.7135    8.3948    5.3635 C   0  0  0  0  0  0  0  0  0  0  0  0
    5.0357    8.9646    4.7286 H   0  0  0  0  0  0  0  0  0  0  0  0
    6.4686    9.0559    5.7845 H   0  0  0  0  0  0  0  0  0  0  0  0
    5.1576    7.9241    6.1722 H   0  0  0  0  0  0  0  0  0  0  0  0
    7.8612    2.4652    6.5090 C   0  0  0  0  0  0  0  0  0  0  0  0
    8.3634    1.7409    7.1507 H   0  0  0  0  0  0  0  0  0  0  0  0
    7.9148    2.1484    5.4692 H   0  0  0  0  0  0  0  0  0  0  0  0
    6.8147    2.5604    6.7929 H   0  0  0  0  0  0  0  0  0  0  0  0
    7.3043    8.0663    3.0346 C   0  0  0  0  0  0  0  0  0  0  0  0
    6.5777    8.7454    2.5900 H   0  0  0  0  0  0  0  0  0  0  0  0
    7.6880    7.3931    2.2684 H   0  0  0  0  0  0  0  0  0  0  0  0
    8.1346    8.6412    3.4433 H   0  0  0  0  0  0  0  0  0  0  0  0
    5.0990    6.3387    3.5109 C   0  0  0  0  0  0  0  0  0  0  0  0
    4.5281    7.1134    2.9986 H   0  0  0  0  0  0  0  0  0  0  0  0
    4.4764    5.8356    4.2486 H   0  0  0  0  0  0  0  0  0  0  0  0
    5.4601    5.6019    2.7961 H   0  0  0  0  0  0  0  0  0  0  0  0
    8.3799    3.4471    2.0139 C   0  0  0  0  0  0  0  0  0  0  0  0
    7.5767    2.7447    1.8505 H   0  0  0  0  0  0  0  0  0  0  0  0
    9.4368    3.5370    1.1466 C   0  0  0  0  0  0  0  0  0  0  0  0
    9.4646    2.8897    0.2809 H   0  0  0  0  0  0  0  0  0  0  0  0
   10.4832    8.4546    6.5581 C   0  0  0  0  0  0  0  0  0  0  0  0
   11.4099    8.7619    6.0991 H   0  0  0  0  0  0  0  0  0  0  0  0
   10.4972    4.4436    1.3348 C   0  0  0  0  0  0  0  0  0  0  0  0
   10.4751    5.2724    2.4313 C   0  0  0  0  0  0  0  0  0  0  0  0
   11.2632    5.9855    2.6228 H   0  0  0  0  0  0  0  0  0  0  0  0
   10.0378    9.0370    7.7260 C   0  0  0  0  0  0  0  0  0  0  0  0
   10.6096    9.8155    8.2072 H   0  0  0  0  0  0  0  0  0  0  0  0
    9.7194    7.4508    5.9627 C   0  0  0  0  0  0  0  0  0  0  0  0
    8.3281    4.2862    3.1499 C   0  0  0  0  0  0  0  0  0  0  0  0
    8.0668    7.6126    7.7019 C   0  0  0  0  0  0  0  0  0  0  0  0
    7.1398    7.3087    8.1652 H   0  0  0  0  0  0  0  0  0  0  0  0
    8.8393    8.6086    8.2793 C   0  0  0  0  0  0  0  0  0  0  0  0
    8.4968    7.0159    6.5303 C   0  0  0  0  0  0  0  0  0  0  0  0
    9.4062    5.1992    3.3318 C   0  0  0  0  0  0  0  0  0  0  0  0
   11.6193    4.4847    0.3415 C   0  0  0  0  0  0  0  0  0  0  0  0
   12.3578    5.2308    0.6226 H   0  0  0  0  0  0  0  0  0  0  0  0
   11.2404    4.7265   -0.6512 H   0  0  0  0  0  0  0  0  0  0  0  0
   12.1106    3.5139    0.2813 H   0  0  0  0  0  0  0  0  0  0  0  0
  1  3  1  0  0  0  0
  3 49  1  0  0  0  0
  3  2  1  0  0  0  0
  3  5  1  0  0  0  0
  5  9  1  0  0  0  0
  6 17  1  0  0  0  0
  6  3  1  0  0  0  0
  7  8  1  0  0  0  0
  7  3  1  0  0  0  0
  8 44  1  0  0  0  0
  9 12  1  0  0  0  0
  9 11  1  0  0  0  0
  9 10  1  0  0  0  0
 13 15  1  0  0  0  0
 13  5  1  0  0  0  0
 13 14  1  0  0  0  0
 16 13  1  0  0  0  0
 17 19  1  0  0  0  0
 17 20  1  0  0  0  0
 18 17  1  0  0  0  0
 21  5  1  0  0  0  0
 21 24  1  0  0  0  0
 21 22  1  0  0  0  0
 23 21  1  0  0  0  0
 25 28  1  0  0  0  0
 25  6  1  0  0  0  0
 26 25  1  0  0  0  0
 27 25  1  0  0  0  0
 29 31  1  0  0  0  0
 29  6  1  0  0  0  0
 30 29  1  0  0  0  0
 32 29  1  0  0  0  0
 33 45  1  0  0  0  0
 34 33  1  0  0  0  0
 35 39  1  0  0  0  0
 35 33  2  0  0  0  0
 36 35  1  0  0  0  0
 37 42  1  0  0  0  0
 38 37  1  0  0  0  0
 39 40  2  0  0  0  0
 40 41  1  0  0  0  0
 40 50  1  0  0  0  0
 42 43  1  0  0  0  0
 42 48  2  0  0  0  0
 44 49  1  0  0  0  0
 44 37  2  0  0  0  0
 45 50  2  0  0  0  0
 45  1  1  0  0  0  0
 46 47  1  0  0  0  0
 46 48  1  0  0  0  0
 48  4  1  0  0  0  0
 49 46  2  0  0  0  0
 50  7  1  0  0  0  0
 51 52  1  0  0  0  0
 51 39  1  0  0  0  0
 53 51  1  0  0  0  0
 54 51  1  0  0  0  0
M  END
$$$$
