CSD_code = BOLDOW | q = 0 | S = 0 | Stoichiometry = C38H32ClNNiP2 | MND = 4
 OpenBabel04212202013D

 75 82  0  0  1  0  0  0  0  0999 V2000
    3.6787   12.3351    0.4433 Ni  0  0  2  0  0  0  0  0  0  0  0  0
    5.3724   11.3225    1.1320 Cl  0  0  0  0  0  0  0  0  0  0  0  0
    2.2110   13.3659   -0.2255 N   0  0  0  0  0  0  0  0  0  0  0  0
    4.4835   14.1746    1.1261 P   0  0  0  0  0  4  0  0  0  0  0  0
    2.3816   10.6077    0.2479 P   0  0  0  0  0  4  0  0  0  0  0  0
    2.1210   14.6970   -0.0349 C   0  0  0  0  0  0  0  0  0  0  0  0
    3.1674   15.3299    0.6863 C   0  0  0  0  0  0  0  0  0  0  0  0
    3.1465   16.6747    1.0094 C   0  0  0  0  0  0  0  0  0  0  0  0
    3.9659   17.1007    1.5728 H   0  0  0  0  0  0  0  0  0  0  0  0
    2.0901   17.4626    0.5936 C   0  0  0  0  0  0  0  0  0  0  0  0
    2.0616   18.5150    0.8300 H   0  0  0  0  0  0  0  0  0  0  0  0
    1.0665   16.8770   -0.1428 C   0  0  0  0  0  0  0  0  0  0  0  0
    0.2398   17.4883   -0.4782 H   0  0  0  0  0  0  0  0  0  0  0  0
    1.0689   15.5370   -0.4568 C   0  0  0  0  0  0  0  0  0  0  0  0
    0.2403   15.1379   -1.0234 H   0  0  0  0  0  0  0  0  0  0  0  0
    1.3763   12.6434   -1.1529 C   0  0  2  0  0  0  0  0  0  0  0  0
    0.5302   13.2547   -1.4899 H   0  0  0  0  0  0  0  0  0  0  0  0
    0.8454   11.3931   -0.4219 C   0  0  0  0  0  0  0  0  0  0  0  0
    0.2957   10.7267   -1.0872 H   0  0  0  0  0  0  0  0  0  0  0  0
    0.2017   11.6960    0.4074 H   0  0  0  0  0  0  0  0  0  0  0  0
    2.1439   12.1611   -2.3750 C   0  0  0  0  0  0  0  0  0  0  0  0
    1.4472   11.5890   -3.4338 C   0  0  0  0  0  0  0  0  0  0  0  0
    0.3661   11.5645   -3.4105 H   0  0  0  0  0  0  0  0  0  0  0  0
    2.1207   11.0494   -4.5130 C   0  0  0  0  0  0  0  0  0  0  0  0
    1.5646   10.6003   -5.3230 H   0  0  0  0  0  0  0  0  0  0  0  0
    3.5046   11.0825   -4.5560 C   0  0  0  0  0  0  0  0  0  0  0  0
    4.0311   10.6562   -5.3968 H   0  0  0  0  0  0  0  0  0  0  0  0
    4.2071   11.6706   -3.5202 C   0  0  0  0  0  0  0  0  0  0  0  0
    5.2860   11.7112   -3.5495 H   0  0  0  0  0  0  0  0  0  0  0  0
    3.5311   12.2051   -2.4366 C   0  0  0  0  0  0  0  0  0  0  0  0
    4.1160   12.6869   -1.6382 H   0  0  0  0  0  0  0  0  0  0  0  0
    4.5562   14.2237    2.9396 C   0  0  0  0  0  0  0  0  0  0  0  0
    3.8461   13.2437    3.6254 C   0  0  0  0  0  0  0  0  0  0  0  0
    3.3577   12.4534    3.0572 H   0  0  0  0  0  0  0  0  0  0  0  0
    3.7917   13.2604    5.0057 C   0  0  0  0  0  0  0  0  0  0  0  0
    3.2473   12.4921    5.5354 H   0  0  0  0  0  0  0  0  0  0  0  0
    4.4462   14.2610    5.7064 C   0  0  0  0  0  0  0  0  0  0  0  0
    4.4101   14.2764    6.7860 H   0  0  0  0  0  0  0  0  0  0  0  0
    5.1545   15.2393    5.0264 C   0  0  0  0  0  0  0  0  0  0  0  0
    5.6670   16.0147    5.5773 H   0  0  0  0  0  0  0  0  0  0  0  0
    5.2116   15.2267    3.6445 C   0  0  0  0  0  0  0  0  0  0  0  0
    5.7732   15.9833    3.1139 H   0  0  0  0  0  0  0  0  0  0  0  0
    6.0541   14.8957    0.5963 C   0  0  0  0  0  0  0  0  0  0  0  0
    7.2359   14.4264    1.1657 C   0  0  0  0  0  0  0  0  0  0  0  0
    7.1896   13.6644    1.9312 H   0  0  0  0  0  0  0  0  0  0  0  0
    8.4506   14.9282    0.7389 C   0  0  0  0  0  0  0  0  0  0  0  0
    9.3672   14.5681    1.1825 H   0  0  0  0  0  0  0  0  0  0  0  0
    8.4939   15.8883   -0.2605 C   0  0  0  0  0  0  0  0  0  0  0  0
    9.4447   16.2806   -0.5909 H   0  0  0  0  0  0  0  0  0  0  0  0
    7.3205   16.3394   -0.8431 C   0  0  0  0  0  0  0  0  0  0  0  0
    7.3565   17.0804   -1.6287 H   0  0  0  0  0  0  0  0  0  0  0  0
    6.1006   15.8402   -0.4238 C   0  0  0  0  0  0  0  0  0  0  0  0
    5.1805   16.1824   -0.8779 H   0  0  0  0  0  0  0  0  0  0  0  0
    1.8113    9.7524    1.7455 C   0  0  0  0  0  0  0  0  0  0  0  0
    2.0469    8.4019    1.9756 C   0  0  0  0  0  0  0  0  0  0  0  0
    2.5455    7.8072    1.2238 H   0  0  0  0  0  0  0  0  0  0  0  0
    1.6456    7.8243    3.1673 C   0  0  0  0  0  0  0  0  0  0  0  0
    1.8250    6.7730    3.3392 H   0  0  0  0  0  0  0  0  0  0  0  0
    1.0237    8.5884    4.1405 C   0  0  0  0  0  0  0  0  0  0  0  0
    0.7143    8.1330    5.0696 H   0  0  0  0  0  0  0  0  0  0  0  0
    0.8105    9.9413    3.9272 C   0  0  0  0  0  0  0  0  0  0  0  0
    0.3394   10.5431    4.6910 H   0  0  0  0  0  0  0  0  0  0  0  0
    1.2082   10.5221    2.7388 C   0  0  0  0  0  0  0  0  0  0  0  0
    1.0608   11.5832    2.5766 H   0  0  0  0  0  0  0  0  0  0  0  0
    2.7101    9.2578   -0.9244 C   0  0  0  0  0  0  0  0  0  0  0  0
    1.6989    8.3977   -1.3417 C   0  0  0  0  0  0  0  0  0  0  0  0
    0.7048    8.4870   -0.9242 H   0  0  0  0  0  0  0  0  0  0  0  0
    1.9693    7.4193   -2.2792 C   0  0  0  0  0  0  0  0  0  0  0  0
    1.1822    6.7544   -2.6047 H   0  0  0  0  0  0  0  0  0  0  0  0
    3.2471    7.2892   -2.8009 C   0  0  0  0  0  0  0  0  0  0  0  0
    3.4511    6.5265   -3.5380 H   0  0  0  0  0  0  0  0  0  0  0  0
    4.2601    8.1292   -2.3719 C   0  0  0  0  0  0  0  0  0  0  0  0
    5.2584    8.0208   -2.7691 H   0  0  0  0  0  0  0  0  0  0  0  0
    3.9940    9.1118   -1.4352 C   0  0  0  0  0  0  0  0  0  0  0  0
    4.7788    9.7702   -1.0877 H   0  0  0  0  0  0  0  0  0  0  0  0
  1  4  1  0  0  0  0
  1  2  1  6  0  0  0
  3  6  1  0  0  0  0
  3  1  1  0  0  0  0
  4 32  1  0  0  0  0
  5  1  1  0  0  0  0
  5 54  1  0  0  0  0
  6  7  1  0  0  0  0
  7  8  2  0  0  0  0
  7  4  1  0  0  0  0
  8  9  1  0  0  0  0
 10 11  1  0  0  0  0
 10  8  1  0  0  0  0
 12 10  2  0  0  0  0
 13 12  1  0  0  0  0
 14 12  1  0  0  0  0
 14  6  2  0  0  0  0
 15 14  1  0  0  0  0
 16 17  1  6  0  0  0
 16 18  1  0  0  0  0
 16  3  1  0  0  0  0
 18  5  1  0  0  0  0
 18 20  1  0  0  0  0
 19 18  1  0  0  0  0
 21 16  1  0  0  0  0
 22 23  1  0  0  0  0
 22 21  2  0  0  0  0
 24 22  1  0  0  0  0
 25 24  1  0  0  0  0
 26 24  2  0  0  0  0
 26 28  1  0  0  0  0
 27 26  1  0  0  0  0
 28 30  2  0  0  0  0
 29 28  1  0  0  0  0
 30 21  1  0  0  0  0
 30 31  1  0  0  0  0
 32 33  2  0  0  0  0
 32 41  1  0  0  0  0
 33 35  1  0  0  0  0
 34 33  1  0  0  0  0
 35 36  1  0  0  0  0
 35 37  2  0  0  0  0
 37 38  1  0  0  0  0
 39 40  1  0  0  0  0
 39 37  1  0  0  0  0
 41 39  2  0  0  0  0
 42 41  1  0  0  0  0
 43  4  1  0  0  0  0
 43 44  1  0  0  0  0
 44 45  1  0  0  0  0
 46 44  2  0  0  0  0
 46 47  1  0  0  0  0
 48 46  1  0  0  0  0
 49 48  1  0  0  0  0
 50 52  1  0  0  0  0
 50 48  2  0  0  0  0
 51 50  1  0  0  0  0
 52 43  2  0  0  0  0
 53 52  1  0  0  0  0
 54 55  2  0  0  0  0
 54 63  1  0  0  0  0
 55 57  1  0  0  0  0
 56 55  1  0  0  0  0
 57 58  1  0  0  0  0
 57 59  2  0  0  0  0
 59 60  1  0  0  0  0
 61 59  1  0  0  0  0
 61 62  1  0  0  0  0
 63 61  2  0  0  0  0
 64 63  1  0  0  0  0
 65  5  1  0  0  0  0
 66 65  1  0  0  0  0
 66 67  1  0  0  0  0
 68 66  2  0  0  0  0
 69 68  1  0  0  0  0
 70 72  2  0  0  0  0
 70 68  1  0  0  0  0
 71 70  1  0  0  0  0
 72 74  1  0  0  0  0
 73 72  1  0  0  0  0
 74 75  1  0  0  0  0
 74 65  2  0  0  0  0
M  END
$$$$
