CSD_code = BOLGEQ | q = 0 | S = 0 | Stoichiometry = C25H29Cl2N2O2V | MND = 6
 OpenBabel04212202013D

 61 65  0  0  0  0  0  0  0  0999 V2000
    3.6655    7.0731    0.4599 C   0  0  0  0  0  0  0  0  0  0  0  0
    2.7103    7.6913   -0.3807 C   0  0  0  0  0  0  0  0  0  0  0  0
    2.8259    7.6026   -1.4498 H   0  0  0  0  0  0  0  0  0  0  0  0
    1.6767    8.4004    0.1536 C   0  0  0  0  0  0  0  0  0  0  0  0
    0.9525    8.9024   -0.4712 H   0  0  0  0  0  0  0  0  0  0  0  0
    1.5491    8.4676    1.5561 C   0  0  0  0  0  0  0  0  0  0  0  0
    0.5131    9.1770    2.1939 C   0  0  0  0  0  3  0  0  0  0  0  0
   -0.2151    9.6909    1.5848 H   0  0  0  0  0  0  0  0  0  0  0  0
    0.4501    9.2255    3.5600 C   0  0  0  0  0  0  0  0  0  0  0  0
   -0.3262    9.7925    4.0511 H   0  0  0  0  0  0  0  0  0  0  0  0
    1.3827    8.5357    4.3372 C   0  0  0  0  0  0  0  0  0  0  0  0
    1.3184    8.6071    5.4128 H   0  0  0  0  0  0  0  0  0  0  0  0
    2.3962    7.7983    3.7503 C   0  0  0  0  0  0  0  0  0  0  0  0
    2.5282    7.7968    2.3319 C   0  0  0  0  0  0  0  0  0  0  0  0
    3.1791    6.6822    5.6472 C   0  0  0  0  0  3  0  0  0  0  0  0
    2.2150    6.8134    6.1524 H   0  0  0  0  0  0  0  0  0  0  0  0
    4.1961    6.0265    6.4167 C   0  0  0  0  0  0  0  0  0  0  0  0
    5.4681    5.7634    5.8363 C   0  0  0  0  0  0  0  0  0  0  0  0
    6.4747    5.1392    6.6150 C   0  0  0  0  0  0  0  0  0  0  0  0
    6.1699    4.8023    7.9220 C   0  0  0  0  0  0  0  0  0  0  0  0
    6.9294    4.3254    8.5143 H   0  0  0  0  0  0  0  0  0  0  0  0
    4.9236    5.0429    8.5086 C   0  0  0  0  0  0  0  0  0  0  0  0
    3.9495    5.6531    7.7379 C   0  0  0  0  0  0  0  0  0  0  0  0
    2.9717    5.8586    8.1483 H   0  0  0  0  0  0  0  0  0  0  0  0
    4.7806    6.3120   -0.1627 C   0  0  0  0  0  0  0  0  0  0  0  0
    5.7289    6.8132    0.0478 H   0  0  0  0  0  0  0  0  0  0  0  0
    4.6442    6.2249   -1.2377 H   0  0  0  0  0  0  0  0  0  0  0  0
    4.8416    5.3187    0.2891 H   0  0  0  0  0  0  0  0  0  0  0  0
    7.8261    4.8603    5.9737 C   0  0  0  0  0  0  0  0  0  0  0  0
    7.6297    3.9197    4.7728 C   0  0  0  0  0  0  0  0  0  0  0  0
    8.5993    3.6421    4.3654 H   0  0  0  0  0  0  0  0  0  0  0  0
    7.0551    4.3990    3.9773 H   0  0  0  0  0  0  0  0  0  0  0  0
    7.1109    3.0133    5.0810 H   0  0  0  0  0  0  0  0  0  0  0  0
    8.4450    6.1850    5.4990 C   0  0  0  0  0  0  0  0  0  0  0  0
    8.5215    6.8883    6.3271 H   0  0  0  0  0  0  0  0  0  0  0  0
    7.8508    6.6388    4.7045 H   0  0  0  0  0  0  0  0  0  0  0  0
    9.4431    6.0023    5.1074 H   0  0  0  0  0  0  0  0  0  0  0  0
    8.8040    4.1960    6.9488 C   0  0  0  0  0  0  0  0  0  0  0  0
    9.7522    4.0284    6.4432 H   0  0  0  0  0  0  0  0  0  0  0  0
    8.4311    3.2311    7.2852 H   0  0  0  0  0  0  0  0  0  0  0  0
    8.9939    4.8308    7.8115 H   0  0  0  0  0  0  0  0  0  0  0  0
    4.6098    4.6615    9.9474 C   0  0  0  0  0  0  0  0  0  0  0  0
    3.4294    3.6797    9.9560 C   0  0  0  0  0  0  0  0  0  0  0  0
    3.6767    2.7901    9.3808 H   0  0  0  0  0  0  0  0  0  0  0  0
    2.5361    4.1248    9.5265 H   0  0  0  0  0  0  0  0  0  0  0  0
    3.2021    3.3792   10.9764 H   0  0  0  0  0  0  0  0  0  0  0  0
    5.7903    3.9941   10.6579 C   0  0  0  0  0  0  0  0  0  0  0  0
    6.0789    3.0719   10.1592 H   0  0  0  0  0  0  0  0  0  0  0  0
    5.5018    3.7456   11.6771 H   0  0  0  0  0  0  0  0  0  0  0  0
    6.6478    4.6609   10.7076 H   0  0  0  0  0  0  0  0  0  0  0  0
    4.2379    5.9311   10.7272 C   0  0  0  0  0  0  0  0  0  0  0  0
    4.0338    5.6838   11.7666 H   0  0  0  0  0  0  0  0  0  0  0  0
    3.3547    6.4091   10.3128 H   0  0  0  0  0  0  0  0  0  0  0  0
    5.0583    6.6450   10.6972 H   0  0  0  0  0  0  0  0  0  0  0  0
    5.3862    8.7040    3.2467 Cl  0  0  0  0  0  0  0  0  0  0  0  0
    3.7324    4.6810    2.9782 Cl  0  0  0  0  0  0  0  0  0  0  0  0
    3.5803    7.1564    1.7728 N   0  0  0  0  0  0  0  0  0  0  0  0
    3.3534    7.0893    4.4435 N   0  0  0  0  0  0  0  0  0  0  0  0
    5.6640    6.0683    4.6025 O   0  0  0  0  0  0  0  0  0  0  0  0
    6.1144    6.1655    2.1818 O   0  0  0  0  0  1  0  0  0  0  0  0
    5.0053    6.5204    3.1608 V   0  0  0  0  0  0  0  0  0  0  0  0
  1 57  1  0  0  0  0
  2  4  1  0  0  0  0
  2  1  2  0  0  0  0
  3  2  1  0  0  0  0
  4  6  2  0  0  0  0
  5  4  1  0  0  0  0
  6  7  1  0  0  0  0
  6 14  1  0  0  0  0
  7  9  1  0  0  0  0
  8  7  1  0  0  0  0
  9 10  1  0  0  0  0
  9 11  2  0  0  0  0
 11 12  1  0  0  0  0
 13 11  1  0  0  0  0
 13 58  1  0  0  0  0
 14 13  2  0  0  0  0
 15 16  1  0  0  0  0
 15 17  1  0  0  0  0
 17 23  1  0  0  0  0
 18 17  2  0  0  0  0
 18 19  1  0  0  0  0
 19 20  2  0  0  0  0
 20 22  1  0  0  0  0
 20 21  1  0  0  0  0
 22 42  1  0  0  0  0
 23 24  1  0  0  0  0
 23 22  2  0  0  0  0
 25 26  1  0  0  0  0
 25 28  1  0  0  0  0
 25  1  1  0  0  0  0
 27 25  1  0  0  0  0
 29 19  1  0  0  0  0
 29 38  1  0  0  0  0
 30 33  1  0  0  0  0
 30 29  1  0  0  0  0
 31 30  1  0  0  0  0
 32 30  1  0  0  0  0
 34 29  1  0  0  0  0
 34 35  1  0  0  0  0
 36 34  1  0  0  0  0
 37 34  1  0  0  0  0
 38 40  1  0  0  0  0
 38 41  1  0  0  0  0
 39 38  1  0  0  0  0
 42 43  1  0  0  0  0
 42 47  1  0  0  0  0
 42 51  1  0  0  0  0
 43 46  1  0  0  0  0
 44 43  1  0  0  0  0
 45 43  1  0  0  0  0
 47 50  1  0  0  0  0
 47 49  1  0  0  0  0
 48 47  1  0  0  0  0
 51 52  1  0  0  0  0
 53 51  1  0  0  0  0
 54 51  1  0  0  0  0
 56 61  1  0  0  0  0
 57 14  1  0  0  0  0
 57 61  1  0  0  0  0
 58 15  1  0  0  0  0
 59 18  1  0  0  0  0
 60 61  1  0  0  0  0
 61 55  1  0  0  0  0
 61 58  1  0  0  0  0
 61 59  1  0  0  0  0
M  END
$$$$
