CSD_code = BOLMUM | q = 0 | S = 0 | Stoichiometry = C6H7AuClN3 | MND = 2
 OpenBabel04212202013D

 18 18  0  0  0  0  0  0  0  0999 V2000
    3.4119   -1.4075    2.6529 Au  0  0  0  0  0  0  0  0  0  0  0  0
    3.8029   -0.2200    4.5084 Cl  0  0  0  0  0  0  0  0  0  0  0  0
    3.0607   -2.4650    0.9760 C   0  0  0  0  0  0  0  0  0  0  0  0
    3.6852   -2.1323   -0.1772 N   0  0  0  0  0  0  0  0  0  0  0  0
    4.3135   -1.3437   -0.1158 H   0  0  0  0  0  0  0  0  0  0  0  0
    2.2392   -3.4909    0.9170 N   0  0  0  0  0  4  0  0  0  0  0  0
    2.1077   -3.9813    0.0283 H   0  0  0  0  0  0  0  0  0  0  0  0
    1.7497   -3.7817    1.7454 H   0  0  0  0  0  0  0  0  0  0  0  0
    3.6050   -2.6999   -1.4437 C   0  0  0  0  0  0  0  0  0  0  0  0
    2.8029   -3.7422   -1.6426 N   0  0  0  0  0  0  0  0  0  0  0  0
    2.7339   -4.2735   -2.8541 C   0  0  0  0  0  0  0  0  0  0  0  0
    2.0630   -5.1168   -2.9448 H   0  0  0  0  0  0  0  0  0  0  0  0
    3.4551   -3.8019   -3.9339 C   0  0  0  0  0  0  0  0  0  0  0  0
    3.3663   -4.2666   -4.9020 H   0  0  0  0  0  0  0  0  0  0  0  0
    4.2954   -2.7127   -3.7315 C   0  0  0  0  0  0  0  0  0  0  0  0
    4.8784   -2.3108   -4.5468 H   0  0  0  0  0  0  0  0  0  0  0  0
    4.3763   -2.1498   -2.4746 C   0  0  0  0  0  0  0  0  0  0  0  0
    5.0175   -1.3036   -2.2813 H   0  0  0  0  0  0  0  0  0  0  0  0
  1  2  1  0  0  0  0
  3  1  1  0  0  0  0
  4  5  1  0  0  0  0
  4  3  1  0  0  0  0
  6  3  2  0  0  0  0
  6  8  1  0  0  0  0
  7  6  1  0  0  0  0
  9  4  1  0  0  0  0
 10  9  1  0  0  0  0
 11 10  2  0  0  0  0
 12 11  1  0  0  0  0
 13 15  2  0  0  0  0
 13 11  1  0  0  0  0
 14 13  1  0  0  0  0
 15 17  1  0  0  0  0
 16 15  1  0  0  0  0
 17 18  1  0  0  0  0
 17  9  2  0  0  0  0
M  END
$$$$
