CSD_code = BOLMAS | q = 0 | S = 0 | Stoichiometry = C18H25Cl3CoN5O3 | MND = 6
 OpenBabel04212202013D

 55 59  0  0  1  0  0  0  0  0999 V2000
    4.5078   -5.0726   -3.8694 Co  0  0  0  0  0  0  0  0  0  0  0  0
    6.4488   -0.7102    0.7674 Cl  0  0  0  0  0  0  0  0  0  0  0  0
    5.4105    1.1041   -1.5617 Cl  0  0  0  0  0  0  0  0  0  0  0  0
    6.4505   -5.1342   -4.7759 Cl  0  0  0  0  0  0  0  0  0  0  0  0
    6.0677   -5.7544   -0.3498 O   0  0  0  0  0  0  0  0  0  0  0  0
    3.7584   -1.6563   -5.6195 O   0  0  0  0  0  0  0  0  0  0  0  0
    2.6496   -4.8557   -2.8824 O   0  0  0  0  0  0  0  0  0  0  0  0
    5.2950   -4.7308   -2.2579 N   0  0  0  0  0  0  0  0  0  0  0  0
    4.4614   -3.2671   -4.1370 N   0  0  0  0  0  0  0  0  0  0  0  0
    3.5873   -5.2253   -5.6659 N   0  0  2  0  0  4  0  0  0  0  0  0
    4.6066   -7.0271   -3.3505 N   0  0  2  0  0  4  0  0  0  0  0  0
    1.0789   -4.0390   -1.4837 N   0  0  0  0  0  0  0  0  0  0  0  0
    5.3727   -3.3772   -1.9797 C   0  0  0  0  0  0  0  0  0  0  0  0
    5.8624   -2.8032   -0.8161 C   0  0  0  0  0  0  0  0  0  0  0  0
    6.2285   -3.4299   -0.0196 H   0  0  0  0  0  0  0  0  0  0  0  0
    5.8692   -1.4199   -0.6961 C   0  0  0  0  0  0  0  0  0  0  0  0
    5.4071   -0.6142   -1.7302 C   0  0  0  0  0  0  0  0  0  0  0  0
    4.9276   -1.1738   -2.9069 C   0  0  0  0  0  0  0  0  0  0  0  0
    4.5780   -0.5511   -3.7138 H   0  0  0  0  0  0  0  0  0  0  0  0
    4.9005   -2.5540   -3.0362 C   0  0  0  0  0  0  0  0  0  0  0  0
    4.0432   -2.8023   -5.3200 C   0  0  0  0  0  0  0  0  0  0  0  0
    3.9773   -3.9644   -6.3342 C   0  0  0  0  0  0  0  0  0  0  0  0
    3.2967   -3.7149   -7.1552 H   0  0  0  0  0  0  0  0  0  0  0  0
    4.9881   -4.0612   -6.7374 H   0  0  0  0  0  0  0  0  0  0  0  0
    2.1227   -5.2364   -5.6112 C   0  0  0  0  0  0  0  0  0  0  0  0
    1.7600   -6.0757   -5.0241 H   0  0  0  0  0  0  0  0  0  0  0  0
    1.7051   -5.3056   -6.6225 H   0  0  0  0  0  0  0  0  0  0  0  0
    1.7702   -4.3158   -5.1517 H   0  0  0  0  0  0  0  0  0  0  0  0
    4.0597   -6.3948   -6.4292 C   0  0  0  0  0  0  0  0  0  0  0  0
    5.1142   -6.2386   -6.6626 H   0  0  0  0  0  0  0  0  0  0  0  0
    3.4983   -6.4627   -7.3715 H   0  0  0  0  0  0  0  0  0  0  0  0
    3.9337   -7.7266   -5.6814 C   0  0  0  0  0  0  0  0  0  0  0  0
    2.9064   -7.8929   -5.3570 H   0  0  0  0  0  0  0  0  0  0  0  0
    4.1722   -8.5144   -6.3993 H   0  0  0  0  0  0  0  0  0  0  0  0
    4.9071   -7.8881   -4.5087 C   0  0  0  0  0  0  0  0  0  0  0  0
    4.9051   -8.9394   -4.1885 H   0  0  0  0  0  0  0  0  0  0  0  0
    5.9071   -7.6342   -4.8641 H   0  0  0  0  0  0  0  0  0  0  0  0
    3.4252   -7.5422   -2.6518 C   0  0  0  0  0  0  0  0  0  0  0  0
    2.5305   -7.4284   -3.2578 H   0  0  0  0  0  0  0  0  0  0  0  0
    3.2834   -6.9929   -1.7238 H   0  0  0  0  0  0  0  0  0  0  0  0
    3.5581   -8.6037   -2.4122 H   0  0  0  0  0  0  0  0  0  0  0  0
    5.7189   -7.0447   -2.3752 C   0  0  0  0  0  0  0  0  0  0  0  0
    6.6728   -7.0405   -2.9080 H   0  0  0  0  0  0  0  0  0  0  0  0
    5.6806   -7.9319   -1.7344 H   0  0  0  0  0  0  0  0  0  0  0  0
    5.7155   -5.7617   -1.5163 C   0  0  0  0  0  0  0  0  0  0  0  0
    2.3012   -4.0760   -1.9948 C   0  0  0  0  0  3  0  0  0  0  0  0
    2.9859   -3.3436   -1.5533 H   0  0  0  0  0  0  0  0  0  0  0  0
    0.7101   -3.1141   -0.4419 C   0  0  0  0  0  0  0  0  0  0  0  0
   -0.1010   -2.4679   -0.7835 H   0  0  0  0  0  0  0  0  0  0  0  0
    1.5631   -2.4962   -0.1707 H   0  0  0  0  0  0  0  0  0  0  0  0
    0.3719   -3.6599    0.4412 H   0  0  0  0  0  0  0  0  0  0  0  0
    0.0392   -4.9292   -1.9450 C   0  0  0  0  0  0  0  0  0  0  0  0
   -0.8030   -4.3547   -2.3341 H   0  0  0  0  0  0  0  0  0  0  0  0
   -0.3112   -5.5572   -1.1239 H   0  0  0  0  0  0  0  0  0  0  0  0
    0.4442   -5.5573   -2.7347 H   0  0  0  0  0  0  0  0  0  0  0  0
  1 11  1  0  0  0  0
  1  7  1  0  0  0  0
  1  8  1  0  0  0  0
  4  1  1  0  0  0  0
  6 21  2  0  0  0  0
  7 46  1  0  0  0  0
  8 13  1  0  0  0  0
  8 45  1  0  0  0  0
  9  1  1  0  0  0  0
  9 20  1  0  0  0  0
 10 25  1  1  0  0  0
 10  1  1  0  0  0  0
 11 38  1  1  0  0  0
 11 42  1  0  0  0  0
 12 48  1  0  0  0  0
 13 14  1  0  0  0  0
 14 16  2  0  0  0  0
 14 15  1  0  0  0  0
 16  2  1  0  0  0  0
 17  3  1  0  0  0  0
 17 16  1  0  0  0  0
 18 17  2  0  0  0  0
 19 18  1  0  0  0  0
 20 18  1  0  0  0  0
 20 13  2  0  0  0  0
 21  9  1  0  0  0  0
 22 10  1  0  0  0  0
 22 21  1  0  0  0  0
 23 22  1  0  0  0  0
 24 22  1  0  0  0  0
 25 28  1  0  0  0  0
 25 26  1  0  0  0  0
 27 25  1  0  0  0  0
 29 32  1  0  0  0  0
 29 10  1  0  0  0  0
 30 29  1  0  0  0  0
 31 29  1  0  0  0  0
 32 33  1  0  0  0  0
 32 35  1  0  0  0  0
 34 32  1  0  0  0  0
 35 36  1  0  0  0  0
 35 11  1  0  0  0  0
 37 35  1  0  0  0  0
 38 41  1  0  0  0  0
 38 40  1  0  0  0  0
 39 38  1  0  0  0  0
 42 44  1  0  0  0  0
 42 45  1  0  0  0  0
 43 42  1  0  0  0  0
 45  5  2  0  0  0  0
 46 47  1  0  0  0  0
 46 12  1  0  0  0  0
 48 50  1  0  0  0  0
 48 51  1  0  0  0  0
 49 48  1  0  0  0  0
 52 12  1  0  0  0  0
 52 54  1  0  0  0  0
 53 52  1  0  0  0  0
 55 52  1  0  0  0  0
M  END
$$$$
