CSD_code = BOLTUS | q = 0 | S = 0 | Stoichiometry = C17H37BrNiP2 | MND = 4
 OpenBabel04212202013D

 58 59  0  0  1  0  0  0  0  0999 V2000
    6.0429    5.4472    2.8067 Br  0  0  0  0  0  0  0  0  0  0  0  0
    6.8996    3.3410    2.8268 Ni  0  0  2  0  0  0  0  0  0  0  0  0
    7.8639    3.5544    4.7243 P   0  0  0  0  0  4  0  0  0  0  0  0
    6.0774    2.8473    0.9196 P   0  0  0  0  0  4  0  0  0  0  0  0
    8.5623    1.8870    5.1138 C   0  0  0  0  0  0  0  0  0  0  0  0
    9.4903    1.9457    5.6871 H   0  0  0  0  0  0  0  0  0  0  0  0
    7.8239    1.3359    5.7019 H   0  0  0  0  0  0  0  0  0  0  0  0
    8.7479    1.2067    3.7604 C   0  0  0  0  0  0  0  0  0  0  0  0
    9.6453    1.5926    3.2683 H   0  0  0  0  0  0  0  0  0  0  0  0
    8.8923    0.1263    3.8934 H   0  0  0  0  0  0  0  0  0  0  0  0
    7.5290    1.4595    2.8671 C   0  0  2  0  0  0  0  0  0  0  0  0
    6.6527    0.9763    3.3424 H   0  0  0  0  0  0  0  0  0  0  0  0
    7.7329    0.8159    1.4915 C   0  0  0  0  0  0  0  0  0  0  0  0
    8.6362    1.2216    1.0280 H   0  0  0  0  0  0  0  0  0  0  0  0
    7.8884   -0.2648    1.6074 H   0  0  0  0  0  0  0  0  0  0  0  0
    6.5253    1.0850    0.5997 C   0  0  0  0  0  0  0  0  0  0  0  0
    5.6795    0.4687    0.9184 H   0  0  0  0  0  0  0  0  0  0  0  0
    6.7189    0.8779   -0.4541 H   0  0  0  0  0  0  0  0  0  0  0  0
    9.2845    4.7028    5.0766 C   0  0  0  0  0  0  0  0  0  0  0  0
    9.7319    4.3720    6.0237 H   0  0  0  0  0  0  0  0  0  0  0  0
    6.6369    3.9087    6.0735 C   0  0  0  0  0  0  0  0  0  0  0  0
    6.3467    4.9571    5.9297 H   0  0  0  0  0  0  0  0  0  0  0  0
    6.8876    3.8661   -0.4078 C   0  0  0  0  0  0  0  0  0  0  0  0
    6.4038    4.8478   -0.3215 H   0  0  0  0  0  0  0  0  0  0  0  0
    4.2596    2.8764    0.5163 C   0  0  0  0  0  0  0  0  0  0  0  0
    4.1058    2.1484   -0.2925 H   0  0  0  0  0  0  0  0  0  0  0  0
    8.8363    6.1557    5.1957 C   0  0  0  0  0  0  0  0  0  0  0  0
    9.7072    6.8026    5.2905 H   0  0  0  0  0  0  0  0  0  0  0  0
    8.2056    6.3092    6.0676 H   0  0  0  0  0  0  0  0  0  0  0  0
    8.2786    6.4607    4.3128 H   0  0  0  0  0  0  0  0  0  0  0  0
   10.3106    4.5528    3.9563 C   0  0  0  0  0  0  0  0  0  0  0  0
    9.8599    4.8284    3.0029 H   0  0  0  0  0  0  0  0  0  0  0  0
   10.6734    3.5290    3.8864 H   0  0  0  0  0  0  0  0  0  0  0  0
   11.1647    5.2056    4.1286 H   0  0  0  0  0  0  0  0  0  0  0  0
    5.4039    3.0449    5.8103 C   0  0  0  0  0  0  0  0  0  0  0  0
    5.6037    1.9940    6.0163 H   0  0  0  0  0  0  0  0  0  0  0  0
    5.1030    3.1393    4.7604 H   0  0  0  0  0  0  0  0  0  0  0  0
    4.5684    3.3625    6.4309 H   0  0  0  0  0  0  0  0  0  0  0  0
    7.1793    3.7148    7.4836 C   0  0  0  0  0  0  0  0  0  0  0  0
    6.3967    3.9332    8.2088 H   0  0  0  0  0  0  0  0  0  0  0  0
    8.0168    4.3795    7.6817 H   0  0  0  0  0  0  0  0  0  0  0  0
    7.5074    2.6889    7.6419 H   0  0  0  0  0  0  0  0  0  0  0  0
    8.3612    4.0403   -0.0430 C   0  0  0  0  0  0  0  0  0  0  0  0
    8.9240    3.1280   -0.2335 H   0  0  0  0  0  0  0  0  0  0  0  0
    8.4510    4.2869    1.0233 H   0  0  0  0  0  0  0  0  0  0  0  0
    8.8118    4.8481   -0.6168 H   0  0  0  0  0  0  0  0  0  0  0  0
    6.7130    3.3345   -1.8245 C   0  0  0  0  0  0  0  0  0  0  0  0
    7.0691    4.0744   -2.5397 H   0  0  0  0  0  0  0  0  0  0  0  0
    5.6690    3.1224   -2.0454 H   0  0  0  0  0  0  0  0  0  0  0  0
    7.2899    2.4239   -1.9750 H   0  0  0  0  0  0  0  0  0  0  0  0
    3.7450    4.2464    0.0876 C   0  0  0  0  0  0  0  0  0  0  0  0
    2.6602    4.2129   -0.0033 H   0  0  0  0  0  0  0  0  0  0  0  0
    4.1531    4.5477   -0.8737 H   0  0  0  0  0  0  0  0  0  0  0  0
    4.0001    5.0013    0.8284 H   0  0  0  0  0  0  0  0  0  0  0  0
    3.5219    2.4086    1.7703 C   0  0  0  0  0  0  0  0  0  0  0  0
    3.6522    3.1453    2.5634 H   0  0  0  0  0  0  0  0  0  0  0  0
    3.9033    1.4497    2.1221 H   0  0  0  0  0  0  0  0  0  0  0  0
    2.4559    2.3022    1.5769 H   0  0  0  0  0  0  0  0  0  0  0  0
  2  1  1  1  0  0  0
  2 11  1  0  0  0  0
  2  3  1  0  0  0  0
  3 19  1  0  0  0  0
  3  5  1  0  0  0  0
  3 21  1  0  0  0  0
  4  2  1  0  0  0  0
  5  6  1  0  0  0  0
  5  7  1  0  0  0  0
  8 10  1  0  0  0  0
  8  5  1  0  0  0  0
  9  8  1  0  0  0  0
 11 12  1  1  0  0  0
 11  8  1  0  0  0  0
 13 15  1  0  0  0  0
 13 11  1  0  0  0  0
 14 13  1  0  0  0  0
 16 17  1  0  0  0  0
 16  4  1  0  0  0  0
 16 13  1  0  0  0  0
 18 16  1  0  0  0  0
 19 27  1  0  0  0  0
 19 20  1  0  0  0  0
 21 39  1  0  0  0  0
 22 21  1  0  0  0  0
 23 24  1  0  0  0  0
 23 43  1  0  0  0  0
 23  4  1  0  0  0  0
 25  4  1  0  0  0  0
 25 55  1  0  0  0  0
 26 25  1  0  0  0  0
 27 28  1  0  0  0  0
 27 29  1  0  0  0  0
 30 27  1  0  0  0  0
 31 34  1  0  0  0  0
 31 19  1  0  0  0  0
 32 31  1  0  0  0  0
 33 31  1  0  0  0  0
 35 36  1  0  0  0  0
 35 21  1  0  0  0  0
 35 38  1  0  0  0  0
 37 35  1  0  0  0  0
 39 42  1  0  0  0  0
 39 41  1  0  0  0  0
 39 40  1  0  0  0  0
 43 45  1  0  0  0  0
 44 43  1  0  0  0  0
 46 43  1  0  0  0  0
 47 23  1  0  0  0  0
 48 47  1  0  0  0  0
 49 47  1  0  0  0  0
 50 47  1  0  0  0  0
 51 25  1  0  0  0  0
 51 54  1  0  0  0  0
 52 51  1  0  0  0  0
 53 51  1  0  0  0  0
 55 57  1  0  0  0  0
 55 56  1  0  0  0  0
 58 55  1  0  0  0  0
M  END
$$$$
