CSD_code = BOLVOO | q = 0 | S = 0 | Stoichiometry = C20H35BrNiP2 | MND = 4
 OpenBabel04212202013D

 59 61  0  0  0  0  0  0  0  0999 V2000
   17.2350   15.2713    1.7182 Ni  0  0  0  0  0  0  0  0  0  0  0  0
   18.3639   17.2260    1.7177 Br  0  0  0  0  0  0  0  0  0  0  0  0
   15.3901   16.1313    1.1100 P   0  0  0  0  0  4  0  0  0  0  0  0
   14.3788   14.7134    0.5079 C   0  0  0  0  0  0  0  0  0  0  0  0
   13.3182   14.8235    0.7544 H   0  0  0  0  0  0  0  0  0  0  0  0
   14.4698   14.6448   -0.5815 H   0  0  0  0  0  0  0  0  0  0  0  0
   14.9900   13.4948    1.1450 C   0  0  0  0  0  0  0  0  0  0  0  0
   16.2662   13.5932    1.7179 C   0  0  0  0  0  0  0  0  0  0  0  0
   15.3428   17.4009   -0.2427 C   0  0  0  0  0  0  0  0  0  0  0  0
   15.8421   18.2873    0.1677 H   0  0  0  0  0  0  0  0  0  0  0  0
   14.3489   16.8241    2.4819 C   0  0  0  0  0  0  0  0  0  0  0  0
   13.3154   16.9013    2.1197 H   0  0  0  0  0  0  0  0  0  0  0  0
   14.3008   12.2896    1.1502 C   0  0  0  0  0  0  0  0  0  0  0  0
   13.3171   12.2396    0.7026 H   0  0  0  0  0  0  0  0  0  0  0  0
   14.8622   11.1614    1.7178 C   0  0  0  0  0  0  0  0  0  0  0  0
   14.3221   10.2259    1.7178 H   0  0  0  0  0  0  0  0  0  0  0  0
   13.9304   17.7609   -0.6868 C   0  0  0  0  0  0  0  0  0  0  0  0
   13.9765   18.4921   -1.4924 H   0  0  0  0  0  0  0  0  0  0  0  0
   13.3547   18.1943    0.1277 H   0  0  0  0  0  0  0  0  0  0  0  0
   13.4013   16.8851   -1.0585 H   0  0  0  0  0  0  0  0  0  0  0  0
   16.1889   16.8849   -1.4054 C   0  0  0  0  0  0  0  0  0  0  0  0
   15.7122   16.0389   -1.8991 H   0  0  0  0  0  0  0  0  0  0  0  0
   17.1689   16.5677   -1.0435 H   0  0  0  0  0  0  0  0  0  0  0  0
   16.3413   17.6685   -2.1446 H   0  0  0  0  0  0  0  0  0  0  0  0
   14.4102   15.8307    3.6403 C   0  0  0  0  0  0  0  0  0  0  0  0
   15.4500   15.6858    3.9469 H   0  0  0  0  0  0  0  0  0  0  0  0
   14.0038   14.8614    3.3541 H   0  0  0  0  0  0  0  0  0  0  0  0
   13.8509   16.2016    4.4979 H   0  0  0  0  0  0  0  0  0  0  0  0
   14.8542   18.1954    2.9192 C   0  0  0  0  0  0  0  0  0  0  0  0
   14.3079   18.5312    3.7996 H   0  0  0  0  0  0  0  0  0  0  0  0
   14.7238   18.9376    2.1351 H   0  0  0  0  0  0  0  0  0  0  0  0
   15.9125   18.1504    3.1713 H   0  0  0  0  0  0  0  0  0  0  0  0
   18.9024   14.1034    2.3259 P   0  0  0  0  0  4  0  0  0  0  0  0
   18.1801   12.5187    2.9279 C   0  0  0  0  0  0  0  0  0  0  0  0
   18.8057   11.6553    2.6815 H   0  0  0  0  0  0  0  0  0  0  0  0
   18.0751   12.5633    4.0173 H   0  0  0  0  0  0  0  0  0  0  0  0
   16.8191   12.4387    2.2907 C   0  0  0  0  0  0  0  0  0  0  0  0
   20.0255   14.6973    3.6785 C   0  0  0  0  0  0  0  0  0  0  0  0
   20.5435   15.5729    3.2682 H   0  0  0  0  0  0  0  0  0  0  0  0
   20.0229   13.5482    0.9539 C   0  0  0  0  0  0  0  0  0  0  0  0
   20.6065   12.6917    1.3160 H   0  0  0  0  0  0  0  0  0  0  0  0
   16.1200   11.2393    2.2855 C   0  0  0  0  0  0  0  0  0  0  0  0
   16.5685   10.3623    2.7330 H   0  0  0  0  0  0  0  0  0  0  0  0
   21.0434   13.6540    4.1226 C   0  0  0  0  0  0  0  0  0  0  0  0
   21.6536   14.0596    4.9281 H   0  0  0  0  0  0  0  0  0  0  0  0
   21.7065   13.3722    3.3080 H   0  0  0  0  0  0  0  0  0  0  0  0
   20.5494   12.7579    4.4943 H   0  0  0  0  0  0  0  0  0  0  0  0
   19.1556   15.1720    4.8413 C   0  0  0  0  0  0  0  0  0  0  0  0
   18.6612   14.3362    5.3349 H   0  0  0  0  0  0  0  0  0  0  0  0
   18.3910   15.8622    4.4795 H   0  0  0  0  0  0  0  0  0  0  0  0
   19.7580   15.6956    5.5805 H   0  0  0  0  0  0  0  0  0  0  0  0
   19.1320   13.1047   -0.2045 C   0  0  0  0  0  0  0  0  0  0  0  0
   18.4866   13.9327   -0.5111 H   0  0  0  0  0  0  0  0  0  0  0  0
   18.4956   12.2681    0.0817 H   0  0  0  0  0  0  0  0  0  0  0  0
   19.7327   12.8057   -1.0621 H   0  0  0  0  0  0  0  0  0  0  0  0
   20.9579   14.6714    0.5166 C   0  0  0  0  0  0  0  0  0  0  0  0
   21.5219   14.3661   -0.3637 H   0  0  0  0  0  0  0  0  0  0  0  0
   21.6658   14.9295    1.3007 H   0  0  0  0  0  0  0  0  0  0  0  0
   20.3898   15.5654    0.2645 H   0  0  0  0  0  0  0  0  0  0  0  0
  1 33  1  0  0  0  0
  2  1  1  0  0  0  0
  3  1  1  0  0  0  0
  3 11  1  0  0  0  0
  4  5  1  0  0  0  0
  4  3  1  0  0  0  0
  4  7  1  0  0  0  0
  6  4  1  0  0  0  0
  7 13  2  0  0  0  0
  7  8  1  0  0  0  0
  8  1  1  0  0  0  0
  8 37  2  0  0  0  0
  9 10  1  0  0  0  0
  9  3  1  0  0  0  0
 11 29  1  0  0  0  0
 11 25  1  0  0  0  0
 12 11  1  0  0  0  0
 13 15  1  0  0  0  0
 14 13  1  0  0  0  0
 15 42  2  0  0  0  0
 16 15  1  0  0  0  0
 17  9  1  0  0  0  0
 17 19  1  0  0  0  0
 18 17  1  0  0  0  0
 20 17  1  0  0  0  0
 21 23  1  0  0  0  0
 21  9  1  0  0  0  0
 22 21  1  0  0  0  0
 24 21  1  0  0  0  0
 25 26  1  0  0  0  0
 25 28  1  0  0  0  0
 27 25  1  0  0  0  0
 29 32  1  0  0  0  0
 29 30  1  0  0  0  0
 31 29  1  0  0  0  0
 33 34  1  0  0  0  0
 33 38  1  0  0  0  0
 34 36  1  0  0  0  0
 35 34  1  0  0  0  0
 37 34  1  0  0  0  0
 38 44  1  0  0  0  0
 38 48  1  0  0  0  0
 39 38  1  0  0  0  0
 40 41  1  0  0  0  0
 40 33  1  0  0  0  0
 42 37  1  0  0  0  0
 42 43  1  0  0  0  0
 44 47  1  0  0  0  0
 44 45  1  0  0  0  0
 46 44  1  0  0  0  0
 48 49  1  0  0  0  0
 48 51  1  0  0  0  0
 50 48  1  0  0  0  0
 52 54  1  0  0  0  0
 52 40  1  0  0  0  0
 53 52  1  0  0  0  0
 55 52  1  0  0  0  0
 56 40  1  0  0  0  0
 56 58  1  0  0  0  0
 57 56  1  0  0  0  0
 59 56  1  0  0  0  0
M  END
$$$$
