CSD_code = BOLYOR | q = 0 | S = 0 | Stoichiometry = C22H33ClTi | MND = 12
 OpenBabel04212202013D

 57 58  0  0  1  0  0  0  0  0999 V2000
   10.9892   12.0850    1.8690 Ti  0  0  0  0  0  0  0  0  0  0  0  0
   12.0500   11.8226    3.8289 Cl  0  0  0  0  0  0  0  0  0  0  0  0
   10.7073   14.3689    1.8650 C   0  0  2  0  0  0  0  0  0  0  0  0
   10.5067   13.9267    0.5246 C   0  0  2  0  0  3  0  0  0  0  0  0
   11.7628   13.4945    0.0186 C   0  0  2  0  0  3  0  0  0  0  0  0
   12.7077   13.5828    1.0750 C   0  0  0  0  0  0  0  0  0  0  0  0
   12.0685   14.1716    2.1966 C   0  0  0  0  0  0  0  0  0  0  0  0
    9.6598   14.9178    2.7873 C   0  0  0  0  0  0  0  0  0  0  0  0
    8.7757   15.2139    2.2164 H   0  0  0  0  0  0  0  0  0  0  0  0
   10.0297   15.7958    3.3238 H   0  0  0  0  0  0  0  0  0  0  0  0
    9.2771   14.2201   -0.2889 C   0  0  0  0  0  0  0  0  0  0  0  0
    9.4060   13.8978   -1.3193 H   0  0  0  0  0  0  0  0  0  0  0  0
    9.0927   15.2970   -0.2986 H   0  0  0  0  0  0  0  0  0  0  0  0
    8.3889   13.7361    0.1217 H   0  0  0  0  0  0  0  0  0  0  0  0
   12.1082   13.4135   -1.4398 C   0  0  0  0  0  0  0  0  0  0  0  0
   12.1830   14.4333   -1.8290 H   0  0  0  0  0  0  0  0  0  0  0  0
   11.3501   12.8980   -2.0231 H   0  0  0  0  0  0  0  0  0  0  0  0
   13.0673   12.9308   -1.6041 H   0  0  0  0  0  0  0  0  0  0  0  0
   14.1863   13.3336    1.0109 C   0  0  0  0  0  0  0  0  0  0  0  0
   14.4811   12.8820    0.0659 H   0  0  0  0  0  0  0  0  0  0  0  0
   14.5017   12.6798    1.8279 H   0  0  0  0  0  0  0  0  0  0  0  0
   14.7271   14.2771    1.1146 H   0  0  0  0  0  0  0  0  0  0  0  0
   12.7828   14.7287    3.3907 C   0  0  0  0  0  0  0  0  0  0  0  0
   13.1943   15.7095    3.1343 H   0  0  0  0  0  0  0  0  0  0  0  0
   13.6044   14.0844    3.6976 H   0  0  0  0  0  0  0  0  0  0  0  0
   12.1100   14.8489    4.2365 H   0  0  0  0  0  0  0  0  0  0  0  0
    9.5962   10.2815    1.2259 C   0  0  0  0  0  0  0  0  0  0  0  0
   10.3206   10.6438    0.0555 C   0  0  0  0  0  0  0  0  0  0  0  0
   11.6985   10.3989    0.3006 C   0  0  0  0  0  0  0  0  0  0  0  0
   11.8228    9.8986    1.6210 C   0  0  0  0  0  0  0  0  0  0  0  0
   10.5260    9.8058    2.1913 C   0  0  2  0  0  3  0  0  0  0  0  0
    8.1077   10.0858    1.2494 C   0  0  0  0  0  0  0  0  0  0  0  0
    7.5959   10.8552    0.6729 H   0  0  0  0  0  0  0  0  0  0  0  0
    7.7112   10.0903    2.2621 H   0  0  0  0  0  0  0  0  0  0  0  0
    7.8676    9.1183    0.7993 H   0  0  0  0  0  0  0  0  0  0  0  0
    9.6521   10.8200   -1.2774 C   0  0  0  0  0  0  0  0  0  0  0  0
    9.1296    9.8953   -1.5352 H   0  0  0  0  0  0  0  0  0  0  0  0
   10.3709   11.0193   -2.0673 H   0  0  0  0  0  0  0  0  0  0  0  0
    8.9128   11.6192   -1.2641 H   0  0  0  0  0  0  0  0  0  0  0  0
   12.7999   10.2767   -0.7113 C   0  0  0  0  0  0  0  0  0  0  0  0
   13.7113   10.7771   -0.3862 H   0  0  0  0  0  0  0  0  0  0  0  0
   12.5067   10.6678   -1.6811 H   0  0  0  0  0  0  0  0  0  0  0  0
   13.0405    9.2177   -0.8385 H   0  0  0  0  0  0  0  0  0  0  0  0
   13.0858    9.3410    2.2054 C   0  0  0  0  0  0  0  0  0  0  0  0
   13.0143    9.2688    3.2883 H   0  0  0  0  0  0  0  0  0  0  0  0
   13.9451    9.9648    1.9571 H   0  0  0  0  0  0  0  0  0  0  0  0
   13.2678    8.3405    1.8028 H   0  0  0  0  0  0  0  0  0  0  0  0
   10.2098    9.1252    3.4900 C   0  0  0  0  0  0  0  0  0  0  0  0
   10.5439    8.0864    3.4486 H   0  0  0  0  0  0  0  0  0  0  0  0
    9.1397    9.1310    3.6872 H   0  0  0  0  0  0  0  0  0  0  0  0
   10.7220    9.6105    4.3226 H   0  0  0  0  0  0  0  0  0  0  0  0
    9.3042   13.7786    3.7502 C   0  0  0  0  0  0  0  0  0  0  0  0
    8.3606   13.9906    4.2731 H   0  0  0  0  0  0  0  0  0  0  0  0
   10.0865   13.6773    4.5089 H   0  0  0  0  0  0  0  0  0  0  0  0
    9.2111   12.4897    2.9383 C   0  0  0  0  0  0  0  0  0  0  0  0
    8.3725   12.5948    2.2331 H   0  0  0  0  0  0  0  0  0  0  0  0
    8.9803   11.6678    3.6277 H   0  0  0  0  0  0  0  0  0  0  0  0
  1 55  1  0  0  0  0
  1  2  1  0  0  0  0
  3  1  1  0  0  0  0
  3  7  1  1  0  0  0
  3  8  1  0  0  0  0
  4 11  1  6  0  0  0
  4  3  1  0  0  0  0
  5 15  1  6  0  0  0
  5  4  1  0  0  0  0
  5  6  1  0  0  0  0
  6  7  2  0  0  0  0
  7 23  1  0  0  0  0
  8 10  1  0  0  0  0
  8 52  1  0  0  0  0
  9  8  1  0  0  0  0
 11 14  1  0  0  0  0
 12 11  1  0  0  0  0
 13 11  1  0  0  0  0
 16 15  1  0  0  0  0
 17 15  1  0  0  0  0
 18 15  1  0  0  0  0
 19  6  1  0  0  0  0
 19 22  1  0  0  0  0
 19 21  1  0  0  0  0
 20 19  1  0  0  0  0
 23 25  1  0  0  0  0
 23 26  1  0  0  0  0
 24 23  1  0  0  0  0
 27 32  1  0  0  0  0
 27 31  1  0  0  0  0
 28 29  1  0  0  0  0
 28 27  2  0  0  0  0
 29 30  2  0  0  0  0
 30 31  1  0  0  0  0
 30 44  1  0  0  0  0
 31 48  1  6  0  0  0
 32 34  1  0  0  0  0
 33 32  1  0  0  0  0
 35 32  1  0  0  0  0
 36 39  1  0  0  0  0
 36 28  1  0  0  0  0
 37 36  1  0  0  0  0
 38 36  1  0  0  0  0
 40 41  1  0  0  0  0
 40 29  1  0  0  0  0
 42 40  1  0  0  0  0
 43 40  1  0  0  0  0
 44 45  1  0  0  0  0
 46 44  1  0  0  0  0
 47 44  1  0  0  0  0
 48 50  1  0  0  0  0
 48 51  1  0  0  0  0
 49 48  1  0  0  0  0
 52 53  1  0  0  0  0
 52 54  1  0  0  0  0
 55 57  1  0  0  0  0
 55 52  1  0  0  0  0
 56 55  1  0  0  0  0
M  END
$$$$
