CSD_code = BOLYEH | q = 0 | S = 0 | Stoichiometry = C30H49ClSi2Ti | MND = 12
 OpenBabel04212202013D

 83 85  0  0  1  0  0  0  0  0999 V2000
    7.5518    4.6799    4.1787 Ti  0  0  1  0  0  0  0  0  0  0  0  0
   11.3025    0.7299    2.3858 Si  0  0  0  0  0  0  0  0  0  0  0  0
    7.8320    1.3730    4.9534 Si  0  0  0  0  0  0  0  0  0  0  0  0
    5.5450    3.9533    3.6952 Cl  0  0  0  0  0  0  0  0  0  0  0  0
    9.5555    5.1373    2.4695 C   0  0  0  0  0  0  0  0  0  0  0  0
    9.9079    6.4144    2.1170 C   0  0  0  0  0  0  0  0  0  0  0  0
    8.7413    7.1002    1.6123 C   0  0  0  0  0  0  0  0  0  0  0  0
    7.6737    6.2491    1.6729 C   0  0  0  0  0  0  0  0  0  0  0  0
    8.1183    4.9462    2.1949 C   0  0  2  0  0  0  0  0  0  0  0  0
   10.4814    4.0407    2.9067 C   0  0  0  0  0  0  0  0  0  0  0  0
   11.2719    7.0290    2.1519 C   0  0  0  0  0  0  0  0  0  0  0  0
   11.9560    6.4472    2.7665 H   0  0  0  0  0  0  0  0  0  0  0  0
   11.2421    8.0498    2.5337 H   0  0  0  0  0  0  0  0  0  0  0  0
   11.6843    7.0735    1.1424 H   0  0  0  0  0  0  0  0  0  0  0  0
    8.7732    8.4957    1.0762 C   0  0  0  0  0  0  0  0  0  0  0  0
    9.3020    8.5142    0.1221 H   0  0  0  0  0  0  0  0  0  0  0  0
    9.2930    9.1740    1.7525 H   0  0  0  0  0  0  0  0  0  0  0  0
    7.7679    8.8753    0.9097 H   0  0  0  0  0  0  0  0  0  0  0  0
    6.2728    6.4981    1.2023 C   0  0  0  0  0  0  0  0  0  0  0  0
    6.1614    6.1947    0.1586 H   0  0  0  0  0  0  0  0  0  0  0  0
    6.0147    7.5544    1.2672 H   0  0  0  0  0  0  0  0  0  0  0  0
    5.5589    5.9278    1.7994 H   0  0  0  0  0  0  0  0  0  0  0  0
    7.7188    3.7397    1.3411 C   0  0  0  0  0  0  0  0  0  0  0  0
    6.6380    3.7013    1.1980 H   0  0  0  0  0  0  0  0  0  0  0  0
    8.0477    2.8031    1.7919 H   0  0  0  0  0  0  0  0  0  0  0  0
    8.1848    3.8343    0.3549 H   0  0  0  0  0  0  0  0  0  0  0  0
    7.9922    4.9867    6.4987 C   0  0  0  0  0  0  0  0  0  0  0  0
    8.8217    5.8468    5.7203 C   0  0  2  0  0  0  0  0  0  0  0  0
    7.9856    6.7886    5.0529 C   0  0  1  0  0  3  0  0  0  0  0  0
    6.6402    6.4681    5.3828 C   0  0  1  0  0  3  0  0  0  0  0  0
    6.6452    5.3785    6.2923 C   0  0  0  0  0  0  0  0  0  0  0  0
    8.5323    4.0337    7.5249 C   0  0  0  0  0  0  0  0  0  0  0  0
    9.2420    4.5561    8.1703 H   0  0  0  0  0  0  0  0  0  0  0  0
    9.0517    3.1931    7.0607 H   0  0  0  0  0  0  0  0  0  0  0  0
    7.7351    3.6413    8.1510 H   0  0  0  0  0  0  0  0  0  0  0  0
   10.3155    5.9107    5.8469 C   0  0  0  0  0  0  0  0  0  0  0  0
   10.7567    6.4539    5.0144 H   0  0  0  0  0  0  0  0  0  0  0  0
   10.7455    4.9097    5.8822 H   0  0  0  0  0  0  0  0  0  0  0  0
   10.5885    6.4284    6.7712 H   0  0  0  0  0  0  0  0  0  0  0  0
    8.4309    8.1056    4.4919 C   0  0  0  0  0  0  0  0  0  0  0  0
    8.4268    8.8498    5.2941 H   0  0  0  0  0  0  0  0  0  0  0  0
    7.7656    8.4559    3.7062 H   0  0  0  0  0  0  0  0  0  0  0  0
    9.4402    8.0467    4.0959 H   0  0  0  0  0  0  0  0  0  0  0  0
    5.4183    7.2376    4.9756 C   0  0  0  0  0  0  0  0  0  0  0  0
    4.5871    6.5623    4.7672 H   0  0  0  0  0  0  0  0  0  0  0  0
    5.6109    7.8354    4.0857 H   0  0  0  0  0  0  0  0  0  0  0  0
    5.1098    7.9126    5.7785 H   0  0  0  0  0  0  0  0  0  0  0  0
    5.4187    4.9158    7.0223 C   0  0  0  0  0  0  0  0  0  0  0  0
    4.6435    4.5864    6.3278 H   0  0  0  0  0  0  0  0  0  0  0  0
    5.0085    5.7446    7.6047 H   0  0  0  0  0  0  0  0  0  0  0  0
    5.6419    4.0990    7.7037 H   0  0  0  0  0  0  0  0  0  0  0  0
    9.8697    2.9351    3.7488 C   0  0  2  0  0  3  0  0  0  0  0  0
    8.6546    2.9634    4.3136 C   0  0  1  0  0  3  0  0  0  0  0  0
   10.8356    1.8170    3.8846 C   0  0  0  0  0  0  0  0  0  0  0  0
   11.4666    1.6547    5.0426 C   0  0  0  0  0  0  0  0  0  0  0  0
   13.1213    1.1245    1.9393 C   0  0  0  0  0  0  0  0  0  0  0  0
   13.7775    0.9646    2.7891 H   0  0  0  0  0  0  0  0  0  0  0  0
   13.2457    2.1559    1.6228 H   0  0  0  0  0  0  0  0  0  0  0  0
   13.4715    0.4902    1.1307 H   0  0  0  0  0  0  0  0  0  0  0  0
   10.2269    1.0072    0.8351 C   0  0  0  0  0  0  0  0  0  0  0  0
   10.5144    0.3077    0.0553 H   0  0  0  0  0  0  0  0  0  0  0  0
   10.3318    2.0069    0.4265 H   0  0  0  0  0  0  0  0  0  0  0  0
    9.1733    0.8480    1.0389 H   0  0  0  0  0  0  0  0  0  0  0  0
   11.1691   -1.1108    2.8733 C   0  0  0  0  0  0  0  0  0  0  0  0
   10.1381   -1.4057    3.0433 H   0  0  0  0  0  0  0  0  0  0  0  0
   11.7264   -1.3264    3.7794 H   0  0  0  0  0  0  0  0  0  0  0  0
   11.5662   -1.7469    2.0878 H   0  0  0  0  0  0  0  0  0  0  0  0
    7.0988    0.4945    3.4090 C   0  0  0  0  0  0  0  0  0  0  0  0
    6.5268   -0.3815    3.6993 H   0  0  0  0  0  0  0  0  0  0  0  0
    7.8767    0.1645    2.7276 H   0  0  0  0  0  0  0  0  0  0  0  0
    6.4308    1.1577    2.8654 H   0  0  0  0  0  0  0  0  0  0  0  0
    6.3530    1.6469    6.1411 C   0  0  0  0  0  0  0  0  0  0  0  0
    5.7361    0.7528    6.1522 H   0  0  0  0  0  0  0  0  0  0  0  0
    5.7220    2.4683    5.8218 H   0  0  0  0  0  0  0  0  0  0  0  0
    6.6680    1.8281    7.1630 H   0  0  0  0  0  0  0  0  0  0  0  0
    8.8801    0.0597    5.8800 C   0  0  0  0  0  0  0  0  0  0  0  0
    9.4105    0.4823    6.7268 H   0  0  0  0  0  0  0  0  0  0  0  0
    9.6144   -0.4023    5.2331 H   0  0  0  0  0  0  0  0  0  0  0  0
    8.2317   -0.7235    6.2611 H   0  0  0  0  0  0  0  0  0  0  0  0
   10.9087    3.5641    2.0141 H   0  0  0  0  0  0  0  0  0  0  0  0
   11.3341    4.4593    3.4541 H   0  0  0  0  0  0  0  0  0  0  0  0
   12.2051    0.8848    5.1935 H   0  0  0  0  0  0  0  0  0  0  0  0
   11.2653    2.2857    5.8964 H   0  0  0  0  0  0  0  0  0  0  0  0
  1  4  1  1  0  0  0
  1 53  1  0  0  0  0
  1 28  1  0  0  0  0
  2 64  1  0  0  0  0
  2 54  1  0  0  0  0
  3 76  1  0  0  0  0
  3 72  1  0  0  0  0
  5 10  1  0  0  0  0
  6 11  1  0  0  0  0
  6  5  2  0  0  0  0
  7  8  2  0  0  0  0
  7  6  1  0  0  0  0
  8  9  1  0  0  0  0
  9 23  1  6  0  0  0
  9  5  1  0  0  0  0
  9  1  1  0  0  0  0
 10 81  1  0  0  0  0
 10 52  1  0  0  0  0
 11 13  1  0  0  0  0
 11 12  1  0  0  0  0
 14 11  1  0  0  0  0
 15  7  1  0  0  0  0
 15 17  1  0  0  0  0
 16 15  1  0  0  0  0
 18 15  1  0  0  0  0
 19 21  1  0  0  0  0
 19  8  1  0  0  0  0
 19 22  1  0  0  0  0
 20 19  1  0  0  0  0
 23 25  1  0  0  0  0
 24 23  1  0  0  0  0
 26 23  1  0  0  0  0
 27 32  1  0  0  0  0
 28 36  1  1  0  0  0
 28 27  1  0  0  0  0
 29 40  1  1  0  0  0
 29 30  1  0  0  0  0
 29 28  1  0  0  0  0
 30 44  1  1  0  0  0
 30 31  1  0  0  0  0
 31 27  2  0  0  0  0
 31 48  1  0  0  0  0
 32 35  1  0  0  0  0
 32 33  1  0  0  0  0
 34 32  1  0  0  0  0
 36 38  1  0  0  0  0
 36 39  1  0  0  0  0
 37 36  1  0  0  0  0
 40 41  1  0  0  0  0
 42 40  1  0  0  0  0
 43 40  1  0  0  0  0
 44 47  1  0  0  0  0
 45 44  1  0  0  0  0
 46 44  1  0  0  0  0
 48 50  1  0  0  0  0
 48 51  1  0  0  0  0
 49 48  1  0  0  0  0
 52 54  1  1  0  0  0
 52 53  1  0  0  0  0
 53  3  1  6  0  0  0
 54 55  2  0  0  0  0
 55 82  1  0  0  0  0
 55 83  1  0  0  0  0
 56  2  1  0  0  0  0
 56 57  1  0  0  0  0
 58 56  1  0  0  0  0
 59 56  1  0  0  0  0
 60 63  1  0  0  0  0
 60  2  1  0  0  0  0
 61 60  1  0  0  0  0
 62 60  1  0  0  0  0
 64 65  1  0  0  0  0
 64 66  1  0  0  0  0
 67 64  1  0  0  0  0
 68 69  1  0  0  0  0
 68  3  1  0  0  0  0
 70 68  1  0  0  0  0
 71 68  1  0  0  0  0
 72 73  1  0  0  0  0
 72 75  1  0  0  0  0
 74 72  1  0  0  0  0
 76 79  1  0  0  0  0
 76 77  1  0  0  0  0
 78 76  1  0  0  0  0
 80 10  1  0  0  0  0
M  END
$$$$
