CSD_code = BOMDOX | q = 0 | S = 0 | Stoichiometry = C17H19INOPPt | MND = 4
 OpenBabel04212202013D

 41 44  0  0  1  0  0  0  0  0999 V2000
    6.5672    4.1525   12.1950 Pt  0  0  2  0  0  0  0  0  0  0  0  0
    5.8940    6.1959   11.5263 P   0  0  0  0  0  4  0  0  0  0  0  0
    8.3239    4.7041   10.9148 N   0  0  1  0  0  0  0  0  0  0  0  0
    7.5087    1.8168   12.6578 I   0  0  0  0  0  0  0  0  0  0  0  0
    9.3144    6.0633    9.4574 O   0  0  0  0  0  0  0  0  0  0  0  0
    9.4750    3.9485   10.4670 C   0  0  0  0  0  0  0  0  0  0  0  0
    9.1467    3.0091   10.0166 H   0  0  0  0  0  0  0  0  0  0  0  0
   10.1088    3.7074   11.3234 H   0  0  0  0  0  0  0  0  0  0  0  0
   10.1514    4.9014    9.4580 C   0  0  0  0  0  0  0  0  0  0  0  0
   11.1573    5.2027    9.7594 H   0  0  0  0  0  0  0  0  0  0  0  0
   10.1828    4.4998    8.4426 H   0  0  0  0  0  0  0  0  0  0  0  0
    8.3155    5.8284   10.3239 C   0  0  2  0  0  3  0  0  0  0  0  0
    7.3123    6.9029   10.5361 C   0  0  0  0  0  0  0  0  0  0  0  0
    6.9974    7.3072    9.5697 H   0  0  0  0  0  0  0  0  0  0  0  0
    7.7871    7.7066   11.1090 H   0  0  0  0  0  0  0  0  0  0  0  0
    4.8520    3.7376   13.2438 C   0  0  0  0  0  0  0  0  0  0  0  0
    4.0660    4.4846   13.0936 H   0  0  0  0  0  0  0  0  0  0  0  0
    5.0874    3.6807   14.3121 H   0  0  0  0  0  0  0  0  0  0  0  0
    4.4575    2.7649   12.9365 H   0  0  0  0  0  0  0  0  0  0  0  0
    5.3764    7.6435   12.4969 C   0  0  0  0  0  0  0  0  0  0  0  0
    5.3959    8.9367   11.9795 C   0  0  0  0  0  0  0  0  0  0  0  0
    5.7344    9.1175   10.9683 H   0  0  0  0  0  0  0  0  0  0  0  0
    4.9871    9.9993   12.7645 C   0  0  0  0  0  0  0  0  0  0  0  0
    5.0015   11.0010   12.3600 H   0  0  0  0  0  0  0  0  0  0  0  0
    4.5631    9.7831   14.0662 C   0  0  0  0  0  0  0  0  0  0  0  0
    4.2458   10.6175   14.6737 H   0  0  0  0  0  0  0  0  0  0  0  0
    4.5560    8.5008   14.5891 C   0  0  0  0  0  0  0  0  0  0  0  0
    4.2372    8.3324   15.6068 H   0  0  0  0  0  0  0  0  0  0  0  0
    4.9633    7.4341   13.8080 C   0  0  0  0  0  0  0  0  0  0  0  0
    4.9774    6.4306   14.2092 H   0  0  0  0  0  0  0  0  0  0  0  0
    4.6149    5.9922   10.2455 C   0  0  0  0  0  0  0  0  0  0  0  0
    3.7199    6.9766    9.8459 C   0  0  0  0  0  0  0  0  0  0  0  0
    3.7286    7.9475   10.3198 H   0  0  0  0  0  0  0  0  0  0  0  0
    2.7988    6.7030    8.8494 C   0  0  0  0  0  0  0  0  0  0  0  0
    2.1010    7.4682    8.5421 H   0  0  0  0  0  0  0  0  0  0  0  0
    2.7640    5.4541    8.2514 C   0  0  0  0  0  0  0  0  0  0  0  0
    2.0414    5.2487    7.4759 H   0  0  0  0  0  0  0  0  0  0  0  0
    3.6439    4.4635    8.6589 C   0  0  0  0  0  0  0  0  0  0  0  0
    3.6062    3.4840    8.2065 H   0  0  0  0  0  0  0  0  0  0  0  0
    4.5610    4.7307    9.6567 C   0  0  0  0  0  0  0  0  0  0  0  0
    5.2386    3.9523   10.0130 H   0  0  0  0  0  0  0  0  0  0  0  0
  1  4  1  6  0  0  0
  1 16  1  0  0  0  0
  2  1  1  0  0  0  0
  2 20  1  0  0  0  0
  3  6  1  6  0  0  0
  3  1  1  0  0  0  0
  5  9  1  0  0  0  0
  6  8  1  0  0  0  0
  7  6  1  0  0  0  0
  9 10  1  0  0  0  0
  9  6  1  0  0  0  0
 11  9  1  0  0  0  0
 12  5  1  1  0  0  0
 12 13  1  0  0  0  0
 12  3  1  0  0  0  0
 13 15  1  0  0  0  0
 13  2  1  0  0  0  0
 14 13  1  0  0  0  0
 16 18  1  0  0  0  0
 17 16  1  0  0  0  0
 19 16  1  0  0  0  0
 20 29  1  0  0  0  0
 21 20  2  0  0  0  0
 21 23  1  0  0  0  0
 22 21  1  0  0  0  0
 23 25  2  0  0  0  0
 24 23  1  0  0  0  0
 25 27  1  0  0  0  0
 25 26  1  0  0  0  0
 27 28  1  0  0  0  0
 29 30  1  0  0  0  0
 29 27  2  0  0  0  0
 31  2  1  0  0  0  0
 32 31  1  0  0  0  0
 32 33  1  0  0  0  0
 34 32  2  0  0  0  0
 35 34  1  0  0  0  0
 36 38  2  0  0  0  0
 36 34  1  0  0  0  0
 37 36  1  0  0  0  0
 38 40  1  0  0  0  0
 39 38  1  0  0  0  0
 40 41  1  0  0  0  0
 40 31  2  0  0  0  0
M  END
$$$$
