CSD_code = BOMFAK | q = 0 | S = 0 | Stoichiometry = C4H10Cl4O2Ti | MND = 6
 OpenBabel04212202013D

 21 19  0  0  0  0  0  0  0  0999 V2000
    0.0002    4.7814   -0.1155 Ti  0  0  0  0  0  0  0  0  0  0  0  0
   -0.7233    3.3271    1.3054 Cl  0  0  0  0  0  0  0  0  0  0  0  0
    1.9895    3.8269   -0.4771 Cl  0  0  0  0  0  0  0  0  0  0  0  0
    0.5866    5.9996   -1.8153 O   0  0  0  0  0  0  0  0  0  0  0  0
    0.5576    7.4198   -1.7106 C   0  0  0  0  0  0  0  0  0  0  0  0
    1.1379    7.6836   -0.8244 H   0  0  0  0  0  0  0  0  0  0  0  0
   -0.4740    7.7741   -1.5962 H   0  0  0  0  0  0  0  0  0  0  0  0
    1.0144    7.8653   -2.6012 H   0  0  0  0  0  0  0  0  0  0  0  0
   -0.0480    5.5416   -3.0017 C   0  0  0  0  0  0  0  0  0  0  0  0
    0.4647    5.9568   -3.8811 H   0  0  0  0  0  0  0  0  0  0  0  0
   -1.1055    5.8506   -2.9957 H   0  0  0  0  0  0  0  0  0  0  0  0
    0.7227    6.2361    1.3053 Cl  0  0  0  0  0  0  0  0  0  0  0  0
   -1.9892    5.7360   -0.4767 Cl  0  0  0  0  0  0  0  0  0  0  0  0
    0.0480    4.0214   -3.0017 C   0  0  0  0  0  0  0  0  0  0  0  0
   -0.5866    3.5634   -1.8153 O   0  0  0  0  0  0  0  0  0  0  0  0
   -0.5576    2.1432   -1.7106 C   0  0  0  0  0  0  0  0  0  0  0  0
   -1.1379    1.8794   -0.8244 H   0  0  0  0  0  0  0  0  0  0  0  0
    0.4740    1.7889   -1.5963 H   0  0  0  0  0  0  0  0  0  0  0  0
   -1.0144    1.6977   -2.6012 H   0  0  0  0  0  0  0  0  0  0  0  0
   -0.4647    3.6062   -3.8811 H   0  0  0  0  0  0  0  0  0  0  0  0
    1.1055    3.7124   -2.9957 H   0  0  0  0  0  0  0  0  0  0  0  0
  1 12  1  0  0  0  0
  1  2  1  0  0  0  0
  3  1  1  0  0  0  0
  4  5  1  0  0  0  0
  5  7  1  0  0  0  0
  5  6  1  0  0  0  0
  8  5  1  0  0  0  0
  9 14  1  0  0  0  0
  9 11  1  0  0  0  0
  9  4  1  0  0  0  0
 10  9  1  0  0  0  0
 13  1  1  0  0  0  0
 14 21  1  0  0  0  0
 14 15  1  0  0  0  0
 15 16  1  0  0  0  0
 16 18  1  0  0  0  0
 16 17  1  0  0  0  0
 19 16  1  0  0  0  0
 20 14  1  0  0  0  0
M  END
$$$$
