CSD_code = BOMJES | q = 0 | S = 0 | Stoichiometry = C8H16ClCuN4S2 | MND = 3
 OpenBabel04212202013D

 32 33  0  0  0  0  0  0  0  0999 V2000
    0.0464    0.0469    0.0007 Cu  0  0  0  0  0  0  0  0  0  0  0  0
    1.6619    1.6630    0.0016 Cl  0  0  0  0  0  0  0  0  0  0  0  0
    0.6007   -2.0750    0.7191 S   0  0  0  0  0  0  0  0  0  0  0  0
    2.8863   -0.8478    1.2944 N   0  0  0  0  0  0  0  0  0  0  0  0
    2.7316   -3.0942    1.7931 N   0  0  0  0  0  0  0  0  0  0  0  0
    2.1817   -1.9702    1.3058 C   0  0  0  0  0  3  0  0  0  0  0  0
    4.0692   -3.1627    2.3354 C   0  0  0  0  0  0  0  0  0  0  0  0
    4.9313   -2.1052    1.6522 C   0  0  0  0  0  0  0  0  0  0  0  0
    4.2401   -0.7529    1.7909 C   0  0  0  0  0  0  0  0  0  0  0  0
    2.4568   -0.0053    0.8942 H   0  0  0  0  0  0  0  0  0  0  0  0
    2.1399   -3.9086    1.8038 H   0  0  0  0  0  0  0  0  0  0  0  0
    4.0502   -2.9884    3.4197 H   0  0  0  0  0  0  0  0  0  0  0  0
    4.4689   -4.1637    2.1569 H   0  0  0  0  0  0  0  0  0  0  0  0
    5.0310   -2.3513    0.5939 H   0  0  0  0  0  0  0  0  0  0  0  0
    5.9224   -2.0741    2.1015 H   0  0  0  0  0  0  0  0  0  0  0  0
    4.7592    0.0149    1.2140 H   0  0  0  0  0  0  0  0  0  0  0  0
    4.2284   -0.4403    2.8432 H   0  0  0  0  0  0  0  0  0  0  0  0
   -2.0752    0.6009   -0.7185 S   0  0  0  0  0  0  0  0  0  0  0  0
   -1.9702    2.1817   -1.3057 C   0  0  0  0  0  3  0  0  0  0  0  0
   -0.8478    2.8862   -1.2944 N   0  0  0  0  0  0  0  0  0  0  0  0
   -3.0941    2.7315   -1.7934 N   0  0  0  0  0  0  0  0  0  0  0  0
   -0.7528    4.2400   -1.7911 C   0  0  0  0  0  0  0  0  0  0  0  0
   -0.0056    2.4571   -0.8935 H   0  0  0  0  0  0  0  0  0  0  0  0
   -3.1626    4.0690   -2.3358 C   0  0  0  0  0  0  0  0  0  0  0  0
   -3.9086    2.1399   -1.8039 H   0  0  0  0  0  0  0  0  0  0  0  0
   -2.1051    4.9312   -1.6526 C   0  0  0  0  0  0  0  0  0  0  0  0
    0.0150    4.7592   -1.2142 H   0  0  0  0  0  0  0  0  0  0  0  0
   -0.4401    4.2281   -2.8433 H   0  0  0  0  0  0  0  0  0  0  0  0
   -2.9880    4.0499   -3.4201 H   0  0  0  0  0  0  0  0  0  0  0  0
   -4.1636    4.4688   -2.1575 H   0  0  0  0  0  0  0  0  0  0  0  0
   -2.3514    5.0311   -0.5944 H   0  0  0  0  0  0  0  0  0  0  0  0
   -2.0739    5.9223   -2.1021 H   0  0  0  0  0  0  0  0  0  0  0  0
  1  2  1  0  0  0  0
  1  3  1  0  0  0  0
  3  6  1  0  0  0  0
  4  6  1  0  0  0  0
  4  9  1  0  0  0  0
  5 11  1  0  0  0  0
  5  7  1  0  0  0  0
  6  5  1  0  0  0  0
  7 12  1  0  0  0  0
  8  9  1  0  0  0  0
  8 15  1  0  0  0  0
  8  7  1  0  0  0  0
  9 17  1  0  0  0  0
 10  4  1  0  0  0  0
 13  7  1  0  0  0  0
 14  8  1  0  0  0  0
 16  9  1  0  0  0  0
 18  1  1  0  0  0  0
 19 20  1  0  0  0  0
 19 18  1  0  0  0  0
 20 23  1  0  0  0  0
 21 19  1  0  0  0  0
 22 26  1  0  0  0  0
 22 20  1  0  0  0  0
 22 27  1  0  0  0  0
 24 30  1  0  0  0  0
 24 21  1  0  0  0  0
 24 26  1  0  0  0  0
 25 21  1  0  0  0  0
 26 31  1  0  0  0  0
 28 22  1  0  0  0  0
 29 24  1  0  0  0  0
 32 26  1  0  0  0  0
M  END
$$$$
