CSD_code = BOMMIC | q = 0 | S = 0 | Stoichiometry = C36H35Br2HgN3 | MND = 4
 OpenBabel04212202013D

 77 81  0  0  1  0  0  0  0  0999 V2000
    0.0581    3.1804   19.2337 Hg  0  0  0  0  0  0  0  0  0  0  0  0
    1.8110    1.8209   18.2097 Br  0  0  0  0  0  0  0  0  0  0  0  0
   -1.6476    3.5255   20.9503 Br  0  0  0  0  0  0  0  0  0  0  0  0
   -1.3838    2.4532   16.3320 C   0  0  0  0  0  0  0  0  0  0  0  0
    0.4292    5.3754   12.2526 C   0  0  0  0  0  0  0  0  0  0  0  0
    0.6244    4.3233   12.4001 H   0  0  0  0  0  0  0  0  0  0  0  0
   -0.0050    8.0808   11.8707 C   0  0  0  0  0  0  0  0  0  0  0  0
   -0.1792    9.1377   11.7407 H   0  0  0  0  0  0  0  0  0  0  0  0
   -2.3447    2.2583   17.3276 C   0  0  0  0  0  0  0  0  0  0  0  0
   -2.7557    3.1135   17.8514 H   0  0  0  0  0  0  0  0  0  0  0  0
   -0.4463    4.4656   17.2017 N   0  0  0  0  0  0  0  0  0  0  0  0
    0.7901    9.3284    5.3094 C   0  0  0  0  0  0  0  0  0  0  0  0
    1.1827    8.7052    4.5227 H   0  0  0  0  0  0  0  0  0  0  0  0
    0.8468    5.5816   19.3417 N   0  0  0  0  0  0  0  0  0  0  0  0
   -0.2133   10.8350    7.3785 C   0  0  0  0  0  0  0  0  0  0  0  0
   -0.6052   11.4406    8.1844 H   0  0  0  0  0  0  0  0  0  0  0  0
   -0.1800   11.3620    6.1101 C   0  0  0  0  0  0  0  0  0  0  0  0
   -0.5369   12.3690    5.9692 H   0  0  0  0  0  0  0  0  0  0  0  0
    0.1582    9.0402    9.0078 C   0  0  0  0  0  0  0  0  0  0  0  0
   -0.2248    9.7556    9.7246 H   0  0  0  0  0  0  0  0  0  0  0  0
    0.0696    6.1696   13.3427 C   0  0  0  0  0  0  0  0  0  0  0  0
    0.4993    6.3607   18.3129 C   0  0  0  0  0  0  0  0  0  0  0  0
    0.2772    6.2704   15.8259 C   0  0  0  0  0  0  0  0  0  0  0  0
    0.7636    7.2293   15.7450 H   0  0  0  0  0  0  0  0  0  0  0  0
    0.3463    7.2906   10.7693 C   0  0  0  0  0  0  0  0  0  0  0  0
    1.2823    7.5191   20.6589 C   0  0  0  0  0  0  0  0  0  0  0  0
    1.5994    7.9305   21.6033 H   0  0  0  0  0  0  0  0  0  0  0  0
    0.0903    5.6823   17.0681 C   0  0  1  0  0  3  0  0  0  0  0  0
   -0.6645    4.3189   14.8339 C   0  0  0  0  0  0  0  0  0  0  0  0
   -1.0054    3.7525   13.9817 H   0  0  0  0  0  0  0  0  0  0  0  0
   -0.8171    3.7925   16.1100 C   0  0  0  0  0  0  0  0  0  0  0  0
   -0.1047    5.5841   14.6704 C   0  0  0  0  0  0  0  0  0  0  0  0
    0.5092    7.7504   18.4160 C   0  0  0  0  0  0  0  0  0  0  0  0
    0.1867    8.3596   17.5869 H   0  0  0  0  0  0  0  0  0  0  0  0
    0.4730    7.7997    9.4243 C   0  0  0  0  0  0  0  0  0  0  0  0
    0.8325    7.0764    8.7046 H   0  0  0  0  0  0  0  0  0  0  0  0
    0.5748    5.9275   11.0008 C   0  0  0  0  0  0  0  0  0  0  0  0
    0.8641    5.2959   10.1727 H   0  0  0  0  0  0  0  0  0  0  0  0
   -2.8349    0.9875   17.5800 C   0  0  0  0  0  0  0  0  0  0  0  0
   -3.5819    0.8466   18.3472 H   0  0  0  0  0  0  0  0  0  0  0  0
   -2.3669   -0.0939   16.8513 C   0  0  0  0  0  0  0  0  0  0  0  0
   -2.7382   -1.0859   17.0604 H   0  0  0  0  0  0  0  0  0  0  0  0
    0.3383   11.1324    3.7553 N   0  0  0  0  0  0  0  0  0  0  0  0
    1.2291    6.1472   20.4772 C   0  0  0  0  0  0  0  0  0  0  0  0
    1.5038    5.4714   21.2775 H   0  0  0  0  0  0  0  0  0  0  0  0
   -0.9367    1.3636   15.5891 C   0  0  0  0  0  0  0  0  0  0  0  0
   -0.1770    1.5067   14.8352 H   0  0  0  0  0  0  0  0  0  0  0  0
   -1.4242    0.0973   15.8542 C   0  0  0  0  0  0  0  0  0  0  0  0
   -1.0575   -0.7456   15.2880 H   0  0  0  0  0  0  0  0  0  0  0  0
   -0.1317    7.5344   13.1276 C   0  0  0  0  0  0  0  0  0  0  0  0
   -0.4268    8.1656   13.9538 H   0  0  0  0  0  0  0  0  0  0  0  0
    0.9039    8.3356   19.6056 C   0  0  0  0  0  0  0  0  0  0  0  0
    0.9106    9.4104   19.7101 H   0  0  0  0  0  0  0  0  0  0  0  0
    0.7556    8.8119    6.5818 C   0  0  0  0  0  0  0  0  0  0  0  0
    1.1317    7.8127    6.7398 H   0  0  0  0  0  0  0  0  0  0  0  0
    0.2445    9.5425    7.6603 C   0  0  0  0  0  0  0  0  0  0  0  0
    0.3160   10.6212    5.0233 C   0  0  0  0  0  0  0  0  0  0  0  0
    1.0038   10.4555    2.6663 C   0  0  0  0  0  0  0  0  0  0  0  0
    1.3358   11.2123    1.9494 H   0  0  0  0  0  0  0  0  0  0  0  0
    1.8992    9.9513    3.0384 H   0  0  0  0  0  0  0  0  0  0  0  0
   -0.3374   12.3630    3.4138 C   0  0  0  0  0  0  0  0  0  0  0  0
   -1.2396   12.4696    4.0216 H   0  0  0  0  0  0  0  0  0  0  0  0
   -0.6590   12.2960    2.3702 H   0  0  0  0  0  0  0  0  0  0  0  0
    0.0964    9.4481    1.9473 C   0  0  0  0  0  0  0  0  0  0  0  0
   -0.7757    9.9724    1.5507 H   0  0  0  0  0  0  0  0  0  0  0  0
   -0.2644    8.7107    2.6663 H   0  0  0  0  0  0  0  0  0  0  0  0
    0.8337    8.7488    0.8132 C   0  0  0  0  0  0  0  0  0  0  0  0
    1.1838    9.4724    0.0800 H   0  0  0  0  0  0  0  0  0  0  0  0
    0.1780    8.0419    0.3113 H   0  0  0  0  0  0  0  0  0  0  0  0
    1.6954    8.2054    1.1947 H   0  0  0  0  0  0  0  0  0  0  0  0
    0.5556   13.5993    3.5822 C   0  0  0  0  0  0  0  0  0  0  0  0
    0.8982   13.6595    4.6165 H   0  0  0  0  0  0  0  0  0  0  0  0
    1.4396   13.4896    2.9505 H   0  0  0  0  0  0  0  0  0  0  0  0
   -0.1883   14.8739    3.2070 C   0  0  0  0  0  0  0  0  0  0  0  0
   -0.5223   14.8320    2.1724 H   0  0  0  0  0  0  0  0  0  0  0  0
    0.4569   15.7408    3.3241 H   0  0  0  0  0  0  0  0  0  0  0  0
   -1.0615   15.0083    3.8419 H   0  0  0  0  0  0  0  0  0  0  0  0
  1  3  1  0  0  0  0
  2  1  1  0  0  0  0
  4  9  1  0  0  0  0
  5  6  1  0  0  0  0
  5 21  1  0  0  0  0
  7 50  1  0  0  0  0
  8  7  1  0  0  0  0
  9 39  2  0  0  0  0
  9 10  1  0  0  0  0
 11  1  1  0  0  0  0
 12 54  1  0  0  0  0
 13 12  1  0  0  0  0
 14 44  1  0  0  0  0
 15 56  1  0  0  0  0
 15 16  1  0  0  0  0
 17 15  2  0  0  0  0
 18 17  1  0  0  0  0
 19 35  2  0  0  0  0
 19 20  1  0  0  0  0
 21 32  1  0  0  0  0
 22 33  1  0  0  0  0
 22 14  2  0  0  0  0
 23 28  1  0  0  0  0
 24 23  1  0  0  0  0
 25 37  1  0  0  0  0
 25  7  2  0  0  0  0
 26 27  1  0  0  0  0
 28 11  1  0  0  0  0
 28 22  1  6  0  0  0
 29 31  2  0  0  0  0
 30 29  1  0  0  0  0
 31  4  1  0  0  0  0
 31 11  1  0  0  0  0
 32 29  1  0  0  0  0
 32 23  2  0  0  0  0
 33 52  2  0  0  0  0
 34 33  1  0  0  0  0
 35 25  1  0  0  0  0
 36 35  1  0  0  0  0
 37  5  2  0  0  0  0
 38 37  1  0  0  0  0
 39 40  1  0  0  0  0
 41 42  1  0  0  0  0
 41 39  1  0  0  0  0
 43 57  1  0  0  0  0
 44 26  2  0  0  0  0
 44 45  1  0  0  0  0
 46 48  1  0  0  0  0
 46  4  2  0  0  0  0
 47 46  1  0  0  0  0
 48 41  2  0  0  0  0
 49 48  1  0  0  0  0
 50 21  2  0  0  0  0
 50 51  1  0  0  0  0
 52 53  1  0  0  0  0
 52 26  1  0  0  0  0
 54 55  1  0  0  0  0
 54 56  2  0  0  0  0
 56 19  1  0  0  0  0
 57 12  2  0  0  0  0
 57 17  1  0  0  0  0
 58 60  1  0  0  0  0
 58 43  1  0  0  0  0
 59 58  1  0  0  0  0
 61 71  1  0  0  0  0
 61 43  1  0  0  0  0
 61 62  1  0  0  0  0
 63 61  1  0  0  0  0
 64 66  1  0  0  0  0
 64 58  1  0  0  0  0
 65 64  1  0  0  0  0
 67 70  1  0  0  0  0
 67 64  1  0  0  0  0
 68 67  1  0  0  0  0
 69 67  1  0  0  0  0
 71 72  1  0  0  0  0
 73 71  1  0  0  0  0
 74 76  1  0  0  0  0
 74 71  1  0  0  0  0
 74 77  1  0  0  0  0
 75 74  1  0  0  0  0
M  END
$$$$
