CSD_code = BOMWAC | q = 0 | S = 0 | Stoichiometry = C10H13ClPdS2 | MND = 4
 OpenBabel04212202013D

 27 29  0  0  0  0  0  0  0  0999 V2000
    1.9120    3.5532    5.8187 Pd  0  0  2  0  0  0  0  0  0  0  0  0
    0.0166    2.2309    5.7469 Cl  0  0  0  0  0  0  0  0  0  0  0  0
    3.3146    1.7692    6.0790 S   0  0  1  0  0  3  0  0  0  0  0  0
    0.7342    5.4948    5.5725 S   0  0  1  0  0  3  0  0  0  0  0  0
    3.5479    4.6952    5.8853 C   0  0  0  0  0  0  0  0  0  0  0  0
    4.8143    4.1211    6.0387 C   0  0  0  0  0  0  0  0  0  0  0  0
    5.9505    4.9196    6.0864 C   0  0  0  0  0  0  0  0  0  0  0  0
    6.9224    4.4622    6.2080 H   0  0  0  0  0  0  0  0  0  0  0  0
    5.8390    6.2938    5.9727 C   0  0  0  0  0  0  0  0  0  0  0  0
    6.7240    6.9113    6.0063 H   0  0  0  0  0  0  0  0  0  0  0  0
    4.5946    6.8775    5.8159 C   0  0  0  0  0  0  0  0  0  0  0  0
    4.5061    7.9513    5.7280 H   0  0  0  0  0  0  0  0  0  0  0  0
    3.4529    6.0866    5.7768 C   0  0  0  0  0  0  0  0  0  0  0  0
    4.9440    2.6257    6.1204 C   0  0  0  0  0  0  0  0  0  0  0  0
    5.4589    2.3003    7.0262 H   0  0  0  0  0  0  0  0  0  0  0  0
    5.4921    2.2406    5.2568 H   0  0  0  0  0  0  0  0  0  0  0  0
    2.0994    6.7281    5.6491 C   0  0  0  0  0  0  0  0  0  0  0  0
    2.0180    7.3582    4.7614 H   0  0  0  0  0  0  0  0  0  0  0  0
    1.8818    7.3419    6.5267 H   0  0  0  0  0  0  0  0  0  0  0  0
    2.9149    1.7449    7.8615 C   0  0  0  0  0  0  0  0  0  0  0  0
    3.5664    1.0330    8.3632 H   0  0  0  0  0  0  0  0  0  0  0  0
    1.8759    1.4185    7.9338 H   0  0  0  0  0  0  0  0  0  0  0  0
    3.0288    2.7469    8.2867 H   0  0  0  0  0  0  0  0  0  0  0  0
    0.6692    5.1941    3.7716 C   0  0  0  0  0  0  0  0  0  0  0  0
    0.2518    6.0694    3.2790 H   0  0  0  0  0  0  0  0  0  0  0  0
    0.0103    4.3351    3.6317 H   0  0  0  0  0  0  0  0  0  0  0  0
    1.6710    4.9708    3.3908 H   0  0  0  0  0  0  0  0  0  0  0  0
  1  2  1  6  0  0  0
  1  5  1  0  0  0  0
  1  3  1  0  0  0  0
  3 14  1  0  0  0  0
  3 20  1  1  0  0  0
  4 24  1  6  0  0  0
  4 17  1  0  0  0  0
  4  1  1  0  0  0  0
  5  6  1  0  0  0  0
  6  7  2  0  0  0  0
  6 14  1  0  0  0  0
  7  8  1  0  0  0  0
  9 10  1  0  0  0  0
  9  7  1  0  0  0  0
 11  9  2  0  0  0  0
 12 11  1  0  0  0  0
 13 11  1  0  0  0  0
 13  5  2  0  0  0  0
 14 15  1  0  0  0  0
 16 14  1  0  0  0  0
 17 13  1  0  0  0  0
 17 19  1  0  0  0  0
 18 17  1  0  0  0  0
 20 22  1  0  0  0  0
 20 23  1  0  0  0  0
 20 21  1  0  0  0  0
 25 24  1  0  0  0  0
 26 24  1  0  0  0  0
 27 24  1  0  0  0  0
M  END
$$$$
