CSD_code = BONFEP | q = 0 | S = 0 | Stoichiometry = C22H30BIMoN8O2 | MND = 6
 OpenBabel04212202013D

 65 70  0  0  1  0  0  0  0  0999 V2000
    4.0247    3.8368    1.0822 I   0  0  0  0  0  0  0  0  0  0  0  0
    3.4585    5.6142   -0.9647 Mo  0  0  0  0  0  0  0  0  0  0  0  0
    3.8646    7.9954    0.6833 O   0  0  0  0  0  1  0  0  0  0  0  0
    9.8775    8.5073   -0.9975 O   0  0  0  0  0  0  0  0  0  0  0  0
    3.7020    7.0146    0.0218 N   0  0  0  0  0  2  0  0  0  0  0  0
    5.1760    5.6990   -1.8656 N   0  0  0  0  0  0  0  0  0  0  0  0
    1.3385    5.4946   -0.4757 N   0  0  1  0  0  0  0  0  0  0  0  0
    0.4678    5.0484   -1.4066 N   0  0  0  0  0  0  0  0  0  0  0  0
    3.1338    3.8760   -2.2677 N   0  0  2  0  0  0  0  0  0  0  0  0
    1.9668    3.7670   -2.9371 N   0  0  0  0  0  0  0  0  0  0  0  0
    2.6050    6.6941   -2.6020 N   0  0  2  0  0  0  0  0  0  0  0  0
    1.5699    6.1877   -3.2974 N   0  0  0  0  0  0  0  0  0  0  0  0
    6.3447    6.3849   -1.6267 C   0  0  0  0  0  0  0  0  0  0  0  0
    6.7037    6.7576   -0.3277 C   0  0  0  0  0  0  0  0  0  0  0  0
    7.8645    7.4629   -0.0820 C   0  0  0  0  0  0  0  0  0  0  0  0
    8.7140    7.8104   -1.1289 C   0  0  0  0  0  0  0  0  0  0  0  0
    8.3853    7.4118   -2.4262 C   0  0  0  0  0  0  0  0  0  0  0  0
    7.2302    6.7061   -2.6680 C   0  0  0  0  0  0  0  0  0  0  0  0
   10.2591    8.9360    0.2871 C   0  0  0  0  0  0  0  0  0  0  0  0
    1.2539    6.1303    1.9418 C   0  0  0  0  0  0  0  0  0  0  0  0
    0.6617    5.6546    0.6663 C   0  0  2  0  0  3  0  0  0  0  0  0
   -0.6706    5.2913    0.4593 C   0  0  0  0  0  0  0  0  0  0  0  0
   -0.7579    4.9155   -0.8683 C   0  0  0  0  0  0  0  0  0  0  0  0
   -1.9502    4.4401   -1.6157 C   0  0  0  0  0  0  0  0  0  0  0  0
    5.2178    2.4882   -2.0208 C   0  0  0  0  0  0  0  0  0  0  0  0
    3.8605    2.7935   -2.5529 C   0  0  1  0  0  3  0  0  0  0  0  0
    3.1381    1.9716   -3.4240 C   0  0  0  0  0  0  0  0  0  0  0  0
    1.9399    2.6201   -3.6444 C   0  0  0  0  0  0  0  0  0  0  0  0
    0.7979    2.1845   -4.4886 C   0  0  0  0  0  0  0  0  0  0  0  0
    4.0727    8.7046   -2.6916 C   0  0  0  0  0  0  0  0  0  0  0  0
    2.9582    7.8482   -3.1712 C   0  0  1  0  0  3  0  0  0  0  0  0
    2.1238    8.0837   -4.2649 C   0  0  0  0  0  0  0  0  0  0  0  0
    1.2510    7.0102   -4.3117 C   0  0  0  0  0  0  0  0  0  0  0  0
    0.1485    6.7583   -5.2745 C   0  0  0  0  0  0  0  0  0  0  0  0
    0.9063    4.8683   -2.8641 B   0  0  2  0  0  0  0  0  0  0  0  0
   -0.0132    4.6158   -3.5550 H   0  0  0  0  0  0  0  0  0  0  0  0
    5.2444    5.2680   -2.7935 H   0  0  0  0  0  0  0  0  0  0  0  0
    6.0745    6.4659    0.5020 H   0  0  0  0  0  0  0  0  0  0  0  0
    8.1008    7.7276    0.9358 H   0  0  0  0  0  0  0  0  0  0  0  0
    9.0591    7.6667   -3.2290 H   0  0  0  0  0  0  0  0  0  0  0  0
    6.9921    6.4007   -3.6801 H   0  0  0  0  0  0  0  0  0  0  0  0
   -1.4601    5.3030    1.1823 H   0  0  0  0  0  0  0  0  0  0  0  0
    3.4530    1.0317   -3.8287 H   0  0  0  0  0  0  0  0  0  0  0  0
    2.1506    8.9246   -4.9272 H   0  0  0  0  0  0  0  0  0  0  0  0
    9.5127    9.6060    0.7254 H   0  0  0  0  0  0  0  0  0  0  0  0
   10.4268    8.0891    0.9601 H   0  0  0  0  0  0  0  0  0  0  0  0
   11.1940    9.4776    0.1511 H   0  0  0  0  0  0  0  0  0  0  0  0
    0.4780    6.5848    2.5535 H   0  0  0  0  0  0  0  0  0  0  0  0
    1.6790    5.2939    2.4985 H   0  0  0  0  0  0  0  0  0  0  0  0
    2.0420    6.8588    1.7693 H   0  0  0  0  0  0  0  0  0  0  0  0
   -2.7994    4.3833   -0.9404 H   0  0  0  0  0  0  0  0  0  0  0  0
   -2.1935    5.1199   -2.4306 H   0  0  0  0  0  0  0  0  0  0  0  0
   -1.7705    3.4537   -2.0396 H   0  0  0  0  0  0  0  0  0  0  0  0
    5.6959    3.3559   -1.5702 H   0  0  0  0  0  0  0  0  0  0  0  0
    5.1454    1.7100   -1.2602 H   0  0  0  0  0  0  0  0  0  0  0  0
    5.8473    2.1111   -2.8261 H   0  0  0  0  0  0  0  0  0  0  0  0
   -0.1077    2.0880   -3.8925 H   0  0  0  0  0  0  0  0  0  0  0  0
    0.6049    2.9032   -5.2835 H   0  0  0  0  0  0  0  0  0  0  0  0
    1.0285    1.2209   -4.9347 H   0  0  0  0  0  0  0  0  0  0  0  0
    4.0890    8.7525   -1.6056 H   0  0  0  0  0  0  0  0  0  0  0  0
    5.0345    8.3133   -3.0247 H   0  0  0  0  0  0  0  0  0  0  0  0
    3.9563    9.7097   -3.0893 H   0  0  0  0  0  0  0  0  0  0  0  0
   -0.8093    6.7123   -4.7592 H   0  0  0  0  0  0  0  0  0  0  0  0
    0.1162    7.5618   -6.0051 H   0  0  0  0  0  0  0  0  0  0  0  0
    0.2978    5.8138   -5.7948 H   0  0  0  0  0  0  0  0  0  0  0  0
  2  7  1  0  0  0  0
  2  5  1  0  0  0  0
  2  1  1  0  0  0  0
  4 19  1  0  0  0  0
  5  3  1  0  0  0  0
  6 13  1  0  0  0  0
  6  2  1  0  0  0  0
  7  8  1  1  0  0  0
  7 21  1  0  0  0  0
  8 23  1  0  0  0  0
  9 10  1  1  0  0  0
  9  2  1  0  0  0  0
 10 35  1  0  0  0  0
 11 12  1  6  0  0  0
 11  2  1  0  0  0  0
 12 35  1  0  0  0  0
 13 14  1  0  0  0  0
 14 15  2  0  0  0  0
 14 38  1  0  0  0  0
 15 39  1  0  0  0  0
 16  4  1  0  0  0  0
 16 15  1  0  0  0  0
 17 16  2  0  0  0  0
 18 17  1  0  0  0  0
 18 13  2  0  0  0  0
 19 45  1  0  0  0  0
 19 46  1  0  0  0  0
 20 49  1  0  0  0  0
 20 48  1  0  0  0  0
 21 20  1  1  0  0  0
 22 21  1  0  0  0  0
 22 42  1  0  0  0  0
 23 22  2  0  0  0  0
 24 51  1  0  0  0  0
 24 23  1  0  0  0  0
 25 54  1  0  0  0  0
 25 55  1  0  0  0  0
 26  9  1  0  0  0  0
 26 25  1  1  0  0  0
 27 26  1  0  0  0  0
 28 27  2  0  0  0  0
 28 10  1  0  0  0  0
 29 57  1  0  0  0  0
 29 28  1  0  0  0  0
 30 60  1  0  0  0  0
 31 30  1  6  0  0  0
 31 11  1  0  0  0  0
 32 31  1  0  0  0  0
 33 32  2  0  0  0  0
 33 12  1  0  0  0  0
 34 63  1  0  0  0  0
 34 33  1  0  0  0  0
 35 36  1  6  0  0  0
 35  8  1  0  0  0  0
 37  6  1  0  0  0  0
 40 17  1  0  0  0  0
 41 18  1  0  0  0  0
 43 27  1  0  0  0  0
 44 32  1  0  0  0  0
 47 19  1  0  0  0  0
 50 20  1  0  0  0  0
 52 24  1  0  0  0  0
 53 24  1  0  0  0  0
 56 25  1  0  0  0  0
 58 29  1  0  0  0  0
 59 29  1  0  0  0  0
 61 30  1  0  0  0  0
 62 30  1  0  0  0  0
 64 34  1  0  0  0  0
 65 34  1  0  0  0  0
M  END
$$$$
