CSD_code = BONJEU | q = 0 | S = 0 | Stoichiometry = C28H26ClHgI2O2PS | MND = 4
 OpenBabel04212202013D

 62 64  0  0  1  0  0  0  0  0999 V2000
    2.5029   -0.6210    1.8377 C   0  0  0  0  0  0  0  0  0  0  0  0
    3.5280   -0.9540    1.9036 H   0  0  0  0  0  0  0  0  0  0  0  0
    1.4594   -1.5021    2.0307 C   0  0  0  0  0  0  0  0  0  0  0  0
    1.6488   -2.5412    2.2490 H   0  0  0  0  0  0  0  0  0  0  0  0
    0.1561   -1.0336    1.9519 C   0  0  0  0  0  0  0  0  0  0  0  0
   -0.1079    0.3021    1.6824 C   0  0  0  0  0  0  0  0  0  0  0  0
   -1.1297    0.6454    1.6357 H   0  0  0  0  0  0  0  0  0  0  0  0
    0.9405    1.1784    1.4889 C   0  0  0  0  0  0  0  0  0  0  0  0
    0.7306    2.2210    1.2975 H   0  0  0  0  0  0  0  0  0  0  0  0
    2.2579    0.7246    1.5643 C   0  0  0  0  0  0  0  0  0  0  0  0
    3.4045    1.6294    1.4116 C   0  0  0  0  0  0  0  0  0  0  0  0
    3.2841    3.0216    1.1030 C   0  0  1  0  0  0  0  0  0  0  0  0
    2.5463    3.4183    0.4114 H   0  0  0  0  0  0  0  0  0  0  0  0
    5.9603    2.4351   -0.2560 C   0  0  0  0  0  0  0  0  0  0  0  0
    7.1590    1.8530    0.1296 C   0  0  0  0  0  0  0  0  0  0  0  0
    7.5259    2.0016    1.1357 H   0  0  0  0  0  0  0  0  0  0  0  0
    7.8576    1.0785   -0.7784 C   0  0  0  0  0  0  0  0  0  0  0  0
    8.7922    0.6220   -0.4878 H   0  0  0  0  0  0  0  0  0  0  0  0
    7.3575    0.8818   -2.0561 C   0  0  0  0  0  0  0  0  0  0  0  0
    7.9044    0.2719   -2.7595 H   0  0  0  0  0  0  0  0  0  0  0  0
    6.1561    1.4604   -2.4344 C   0  0  0  0  0  0  0  0  0  0  0  0
    5.7669    1.3017   -3.4293 H   0  0  0  0  0  0  0  0  0  0  0  0
    5.4549    2.2423   -1.5354 C   0  0  0  0  0  0  0  0  0  0  0  0
    4.5172    2.7069   -1.8154 H   0  0  0  0  0  0  0  0  0  0  0  0
    5.9221    3.7675    2.4149 C   0  0  0  0  0  0  0  0  0  0  0  0
    5.7552    2.9800    3.5570 C   0  0  0  0  0  0  0  0  0  0  0  0
    5.1744    2.0699    3.5126 H   0  0  0  0  0  0  0  0  0  0  0  0
    6.3901    3.3246    4.7378 C   0  0  0  0  0  0  0  0  0  0  0  0
    6.2438    2.7130    5.6159 H   0  0  0  0  0  0  0  0  0  0  0  0
    7.2033    4.4447    4.7932 C   0  0  0  0  0  0  0  0  0  0  0  0
    7.6834    4.7189    5.7202 H   0  0  0  0  0  0  0  0  0  0  0  0
    7.3951    5.2129    3.6573 C   0  0  0  0  0  0  0  0  0  0  0  0
    8.0265    6.0877    3.6933 H   0  0  0  0  0  0  0  0  0  0  0  0
    6.7562    4.8835    2.4757 C   0  0  0  0  0  0  0  0  0  0  0  0
    6.8891    5.5112    1.6065 H   0  0  0  0  0  0  0  0  0  0  0  0
    4.9767    5.0584    0.0135 C   0  0  0  0  0  0  0  0  0  0  0  0
    6.1027    5.4256   -0.7232 C   0  0  0  0  0  0  0  0  0  0  0  0
    6.9494    4.7523   -0.7756 H   0  0  0  0  0  0  0  0  0  0  0  0
    6.1402    6.6373   -1.3859 C   0  0  0  0  0  0  0  0  0  0  0  0
    7.0184    6.9127   -1.9511 H   0  0  0  0  0  0  0  0  0  0  0  0
    5.0548    7.4968   -1.3204 C   0  0  0  0  0  0  0  0  0  0  0  0
    5.0868    8.4469   -1.8321 H   0  0  0  0  0  0  0  0  0  0  0  0
    3.9300    7.1350   -0.5999 C   0  0  0  0  0  0  0  0  0  0  0  0
    3.0824    7.8011   -0.5449 H   0  0  0  0  0  0  0  0  0  0  0  0
    3.8870    5.9204    0.0625 C   0  0  0  0  0  0  0  0  0  0  0  0
    2.9949    5.6599    0.6157 H   0  0  0  0  0  0  0  0  0  0  0  0
   -0.5194    6.0568    4.0973 C   0  0  0  0  0  0  0  0  0  0  0  0
    0.1834    6.8825    4.0341 H   0  0  0  0  0  0  0  0  0  0  0  0
   -0.1575    5.3154    4.8032 H   0  0  0  0  0  0  0  0  0  0  0  0
   -1.4957    6.4244    4.3921 H   0  0  0  0  0  0  0  0  0  0  0  0
   -1.6946    3.8831    2.9502 C   0  0  0  0  0  0  0  0  0  0  0  0
   -1.1511    3.2895    3.6782 H   0  0  0  0  0  0  0  0  0  0  0  0
   -1.9038    3.2866    2.0679 H   0  0  0  0  0  0  0  0  0  0  0  0
   -2.6207    4.2589    3.3689 H   0  0  0  0  0  0  0  0  0  0  0  0
    4.5818    1.2496    1.6168 O   0  0  0  0  0  0  0  0  0  0  0  0
    0.6646    4.7380    2.1180 O   0  0  0  0  0  0  0  0  0  0  0  0
    1.6956    2.4305    4.9711 I   0  0  0  0  0  0  0  0  0  0  0  0
    3.6106    6.5609    3.7402 I   0  0  0  0  0  0  0  0  0  0  0  0
    2.7833    4.1006    3.2349 Hg  0  0  0  0  0  0  0  0  0  0  0  0
    4.9928    3.4575    0.8810 P   0  0  0  0  0  4  0  0  0  0  0  0
   -1.1577   -2.1231    2.1948 Cl  0  0  0  0  0  0  0  0  0  0  0  0
   -0.6697    5.3143    2.4326 S   0  0  0  0  0  0  0  0  0  0  0  0
  1  2  1  0  0  0  0
  1  3  1  0  0  0  0
  3  4  1  0  0  0  0
  5  3  2  0  0  0  0
  5 61  1  0  0  0  0
  6  5  1  0  0  0  0
  7  6  1  0  0  0  0
  8 10  1  0  0  0  0
  8  6  2  0  0  0  0
  9  8  1  0  0  0  0
 10  1  2  0  0  0  0
 11 10  1  0  0  0  0
 11 55  2  0  0  0  0
 12 13  1  6  0  0  0
 12 11  1  0  0  0  0
 12 59  1  0  0  0  0
 14 15  1  0  0  0  0
 14 60  1  0  0  0  0
 15 16  1  0  0  0  0
 17 18  1  0  0  0  0
 17 15  2  0  0  0  0
 19 17  1  0  0  0  0
 20 19  1  0  0  0  0
 21 19  2  0  0  0  0
 21 23  1  0  0  0  0
 22 21  1  0  0  0  0
 23 14  2  0  0  0  0
 24 23  1  0  0  0  0
 25 34  2  0  0  0  0
 25 26  1  0  0  0  0
 26 28  2  0  0  0  0
 27 26  1  0  0  0  0
 28 30  1  0  0  0  0
 28 29  1  0  0  0  0
 30 31  1  0  0  0  0
 32 33  1  0  0  0  0
 32 30  2  0  0  0  0
 34 32  1  0  0  0  0
 35 34  1  0  0  0  0
 36 45  1  0  0  0  0
 36 60  1  0  0  0  0
 37 36  2  0  0  0  0
 38 37  1  0  0  0  0
 39 41  2  0  0  0  0
 39 37  1  0  0  0  0
 40 39  1  0  0  0  0
 41 43  1  0  0  0  0
 42 41  1  0  0  0  0
 43 44  1  0  0  0  0
 43 45  2  0  0  0  0
 45 46  1  0  0  0  0
 47 50  1  0  0  0  0
 47 49  1  0  0  0  0
 48 47  1  0  0  0  0
 51 54  1  0  0  0  0
 51 52  1  0  0  0  0
 53 51  1  0  0  0  0
 56 62  2  0  0  0  0
 59 58  1  0  0  0  0
 59 57  1  0  0  0  0
 60 12  1  0  0  0  0
 60 25  1  0  0  0  0
 62 51  1  0  0  0  0
 62 47  1  0  0  0  0
M  END
$$$$
