CSD_code = BOPMUP | q = 0 | S = 0 | Stoichiometry = C26H16Cl2F10N4Zr | MND = 6
 OpenBabel04212202013D

 59 64  0  0  1  0  0  0  0  0999 V2000
    5.6145    1.7337    8.0849 Cl  0  0  0  0  0  0  0  0  0  0  0  0
    1.4408    0.7258    7.3292 Cl  0  0  0  0  0  0  0  0  0  0  0  0
    3.2722    2.1320    7.9946 Zr  0  0  0  0  0  0  0  0  0  0  0  0
    4.5111    4.4116    8.0157 F   0  0  0  0  0  0  0  0  0  0  0  0
    4.6255    7.1296    7.9381 F   0  0  0  0  0  0  0  0  0  0  0  0
    3.6690    8.6247   10.0590 F   0  0  0  0  0  0  0  0  0  0  0  0
    2.5886    7.3064   12.2008 F   0  0  0  0  0  0  0  0  0  0  0  0
    2.3800    4.6768   12.2714 F   0  0  0  0  0  0  0  0  0  0  0  0
    4.0904    5.0875    3.9997 F   0  0  0  0  0  0  0  0  0  0  0  0
    5.8406    4.2048    2.2275 F   0  0  0  0  0  0  0  0  0  0  0  0
    6.7876    1.6407    2.2649 F   0  0  0  0  0  0  0  0  0  0  0  0
    5.8216   -0.0954    4.1952 F   0  0  0  0  0  0  0  0  0  0  0  0
    3.9796    0.7819    6.0188 F   0  0  0  0  0  0  0  0  0  0  0  0
    3.3513    3.0846    9.9708 N   0  0  0  0  0  0  0  0  0  0  0  0
    3.4014    0.4253    9.6287 N   0  0  0  0  0  0  0  0  0  0  0  0
    3.1620    3.2430    6.1483 N   0  0  0  0  0  0  0  0  0  0  0  0
    1.4067    3.6253    8.1016 N   0  0  0  0  0  0  0  0  0  0  0  0
    3.4304    4.4108   10.1136 C   0  0  0  0  0  0  0  0  0  0  0  0
    4.0119    5.1587    9.0611 C   0  0  0  0  0  0  0  0  0  0  0  0
    4.1008    6.5323    9.0128 C   0  0  0  0  0  0  0  0  0  0  0  0
    3.6205    7.2852   10.0808 C   0  0  0  0  0  0  0  0  0  0  0  0
    3.0711    6.6080   11.1668 C   0  0  0  0  0  0  0  0  0  0  0  0
    2.9796    5.2279   11.1882 C   0  0  0  0  0  0  0  0  0  0  0  0
    3.0827    2.3005   11.1605 C   0  0  0  0  0  0  0  0  0  0  0  0
    2.0939    2.5117   11.5949 H   0  0  0  0  0  0  0  0  0  0  0  0
    3.8274    2.5397   11.9374 H   0  0  0  0  0  0  0  0  0  0  0  0
    3.1771    0.8237   10.8845 C   0  0  2  0  0  3  0  0  0  0  0  0
    3.0586   -0.0644   11.9481 C   0  0  0  0  0  0  0  0  0  0  0  0
    2.8701    0.3105   12.9417 H   0  0  0  0  0  0  0  0  0  0  0  0
    3.1959   -1.4188   11.7047 C   0  0  0  0  0  0  0  0  0  0  0  0
    3.1006   -2.1358   12.5055 H   0  0  0  0  0  0  0  0  0  0  0  0
    3.4848   -1.8272   10.4158 C   0  0  0  0  0  0  0  0  0  0  0  0
    3.6329   -2.8712   10.1915 H   0  0  0  0  0  0  0  0  0  0  0  0
    3.5931   -0.8846    9.3964 C   0  0  0  0  0  0  0  0  0  0  0  0
    4.0229    2.9698    5.1583 C   0  0  0  0  0  0  0  0  0  0  0  0
    4.5090    3.8057    4.1171 C   0  0  0  0  0  0  0  0  0  0  0  0
    5.4192    3.3583    3.1737 C   0  0  0  0  0  0  0  0  0  0  0  0
    5.9022    2.0519    3.1841 C   0  0  0  0  0  0  0  0  0  0  0  0
    5.4257    1.1798    4.1605 C   0  0  0  0  0  0  0  0  0  0  0  0
    4.5201    1.6482    5.0845 C   0  0  0  0  0  0  0  0  0  0  0  0
    2.5185    4.5430    6.1489 C   0  0  0  0  0  0  0  0  0  0  0  0
    1.8743    4.6448    5.2583 H   0  0  0  0  0  0  0  0  0  0  0  0
    3.2405    5.3737    6.1130 H   0  0  0  0  0  0  0  0  0  0  0  0
    1.6373    4.7096    7.3554 C   0  0  1  0  0  3  0  0  0  0  0  0
    1.0528    5.9434    7.6340 C   0  0  0  0  0  0  0  0  0  0  0  0
    1.2742    6.7963    7.0121 H   0  0  0  0  0  0  0  0  0  0  0  0
    0.1967    6.0446    8.7144 C   0  0  0  0  0  0  0  0  0  0  0  0
   -0.2529    6.9905    8.9743 H   0  0  0  0  0  0  0  0  0  0  0  0
   -0.1022    4.8990    9.4354 C   0  0  0  0  0  0  0  0  0  0  0  0
   -0.8067    4.9302   10.2511 H   0  0  0  0  0  0  0  0  0  0  0  0
    0.5039    3.6962    9.0899 C   0  0  0  0  0  0  0  0  0  0  0  0
    3.9610   -1.3049    8.0183 C   0  0  0  0  0  0  0  0  0  0  0  0
    4.8334   -0.7344    7.6901 H   0  0  0  0  0  0  0  0  0  0  0  0
    3.1314   -1.1073    7.3362 H   0  0  0  0  0  0  0  0  0  0  0  0
    4.1952   -2.3655    7.9893 H   0  0  0  0  0  0  0  0  0  0  0  0
    0.1005    2.4236    9.7622 C   0  0  0  0  0  0  0  0  0  0  0  0
    0.8716    1.6578    9.6625 H   0  0  0  0  0  0  0  0  0  0  0  0
   -0.7901    2.0439    9.2571 H   0  0  0  0  0  0  0  0  0  0  0  0
   -0.1539    2.5939   10.8063 H   0  0  0  0  0  0  0  0  0  0  0  0
  2  3  1  0  0  0  0
  3  1  1  0  0  0  0
  3 17  1  0  0  0  0
  3 15  1  0  0  0  0
  3 14  1  0  0  0  0
  4 19  1  0  0  0  0
  5 20  1  0  0  0  0
  6 21  1  0  0  0  0
  9 36  1  0  0  0  0
 10 37  1  0  0  0  0
 11 38  1  0  0  0  0
 14 18  1  0  0  0  0
 14 24  1  0  0  0  0
 15 27  1  0  0  0  0
 16 41  1  0  0  0  0
 16  3  1  0  0  0  0
 17 51  1  0  0  0  0
 18 23  1  0  0  0  0
 19 18  2  0  0  0  0
 20 19  1  0  0  0  0
 20 21  2  0  0  0  0
 21 22  1  0  0  0  0
 22 23  2  0  0  0  0
 22  7  1  0  0  0  0
 23  8  1  0  0  0  0
 24 25  1  0  0  0  0
 24 26  1  0  0  0  0
 27 24  1  0  0  0  0
 27 28  1  1  0  0  0
 28 29  1  0  0  0  0
 30 28  2  0  0  0  0
 30 31  1  0  0  0  0
 32 30  1  0  0  0  0
 33 32  1  0  0  0  0
 34 15  1  0  0  0  0
 34 32  2  0  0  0  0
 35 16  1  0  0  0  0
 36 35  2  0  0  0  0
 37 38  2  0  0  0  0
 37 36  1  0  0  0  0
 38 39  1  0  0  0  0
 39 12  1  0  0  0  0
 39 40  2  0  0  0  0
 40 35  1  0  0  0  0
 40 13  1  0  0  0  0
 41 44  1  0  0  0  0
 42 41  1  0  0  0  0
 43 41  1  0  0  0  0
 44 45  1  6  0  0  0
 44 17  1  0  0  0  0
 45 47  2  0  0  0  0
 46 45  1  0  0  0  0
 47 48  1  0  0  0  0
 47 49  1  0  0  0  0
 49 50  1  0  0  0  0
 51 49  2  0  0  0  0
 51 56  1  0  0  0  0
 52 34  1  0  0  0  0
 53 52  1  0  0  0  0
 54 52  1  0  0  0  0
 55 52  1  0  0  0  0
 56 59  1  0  0  0  0
 57 56  1  0  0  0  0
 58 56  1  0  0  0  0
M  END
$$$$
