CSD_code = BOPNAW | q = 0 | S = 0 | Stoichiometry = C30H28F10N6Zr | MND = 7
 OpenBabel04212202013D

 75 79  0  0  1  0  0  0  0  0999 V2000
    6.5940    2.8132    3.6646 Zr  0  0  0  0  0  0  0  0  0  0  0  0
    5.4985    1.2677    3.4298 F   0  0  0  0  0  0  0  0  0  0  0  0
    8.4969    4.1756    2.9895 F   0  0  0  0  0  0  0  0  0  0  0  0
   10.0283    6.0871    1.8571 F   0  0  0  0  0  0  0  0  0  0  0  0
    9.7227    8.7516    2.5603 F   0  0  0  0  0  0  0  0  0  0  0  0
    7.7904    9.3951    4.3961 F   0  0  0  0  0  0  0  0  0  0  0  0
    6.2289    7.5646    5.4925 F   0  0  0  0  0  0  0  0  0  0  0  0
    6.4020    6.8608    1.2122 F   0  0  0  0  0  0  0  0  0  0  0  0
    4.6709    8.7507    1.9870 F   0  0  0  0  0  0  0  0  0  0  0  0
    2.5070    8.1036    3.5759 F   0  0  0  0  0  0  0  0  0  0  0  0
    2.0469    5.5727    4.2459 F   0  0  0  0  0  0  0  0  0  0  0  0
    5.6595    2.5159    5.8981 N   0  0  0  0  0  0  0  0  0  0  0  0
    6.6242    4.7174    4.7922 N   0  0  0  0  0  0  0  0  0  0  0  0
    5.9823    4.1133    1.9993 N   0  0  0  0  0  0  0  0  0  0  0  0
    7.2807    1.9089    1.4897 N   0  0  0  0  0  0  0  0  0  0  0  0
    8.3310    2.0003    4.5261 N   0  0  0  0  0  0  0  0  0  0  0  0
    3.8328    3.4163    3.3703 N   0  0  0  0  0  0  0  0  0  0  0  0
    7.3041    5.7548    4.3130 C   0  0  0  0  0  0  0  0  0  0  0  0
    8.3169    5.5053    3.3547 C   0  0  0  0  0  0  0  0  0  0  0  0
    9.1084    6.4621    2.7592 C   0  0  0  0  0  0  0  0  0  0  0  0
    8.9504    7.7992    3.1052 C   0  0  0  0  0  0  0  0  0  0  0  0
    7.9682    8.1180    4.0422 C   0  0  0  0  0  0  0  0  0  0  0  0
    7.1768    7.1426    4.6187 C   0  0  0  0  0  0  0  0  0  0  0  0
    5.7047    4.9456    5.8837 C   0  0  0  0  0  0  0  0  0  0  0  0
    4.8345    5.5495    5.5772 H   0  0  0  0  0  0  0  0  0  0  0  0
    6.1950    5.4962    6.7039 H   0  0  0  0  0  0  0  0  0  0  0  0
    5.2200    3.6419    6.4583 C   0  0  2  0  0  3  0  0  0  0  0  0
    4.3949    3.6463    7.5814 C   0  0  0  0  0  0  0  0  0  0  0  0
    4.0644    4.5818    8.0050 H   0  0  0  0  0  0  0  0  0  0  0  0
    4.0162    2.4356    8.1320 C   0  0  0  0  0  0  0  0  0  0  0  0
    3.3641    2.4022    8.9916 H   0  0  0  0  0  0  0  0  0  0  0  0
    4.5218    1.2701    7.5808 C   0  0  0  0  0  0  0  0  0  0  0  0
    4.2842    0.3104    8.0122 H   0  0  0  0  0  0  0  0  0  0  0  0
    5.3593    1.3437    6.4711 C   0  0  0  0  0  0  0  0  0  0  0  0
    6.0105    0.1213    5.9171 C   0  0  0  0  0  0  0  0  0  0  0  0
    6.9545    0.4150    5.4472 H   0  0  0  0  0  0  0  0  0  0  0  0
    5.3773   -0.3257    5.1518 H   0  0  0  0  0  0  0  0  0  0  0  0
    6.1742   -0.6122    6.7034 H   0  0  0  0  0  0  0  0  0  0  0  0
    5.1584    5.1270    2.3097 C   0  0  0  0  0  0  0  0  0  0  0  0
    5.3134    6.4801    1.9392 C   0  0  0  0  0  0  0  0  0  0  0  0
    4.4478    7.4792    2.3508 C   0  0  0  0  0  0  0  0  0  0  0  0
    3.3657    7.1565    3.1518 C   0  0  0  0  0  0  0  0  0  0  0  0
    3.1509    5.8206    3.4984 C   0  0  0  0  0  0  0  0  0  0  0  0
    4.0029    4.8038    3.1035 C   0  0  0  0  0  0  0  0  0  0  0  0
    3.4782    2.6903    2.1434 C   0  0  0  0  0  0  0  0  0  0  0  0
    4.2539    2.8316    1.3926 H   0  0  0  0  0  0  0  0  0  0  0  0
    2.5122    3.0352    1.7498 H   0  0  0  0  0  0  0  0  0  0  0  0
    3.4098    1.6295    2.3747 H   0  0  0  0  0  0  0  0  0  0  0  0
    2.8787    3.0477    4.4083 C   0  0  0  0  0  0  0  0  0  0  0  0
    3.0627    2.0044    4.6725 H   0  0  0  0  0  0  0  0  0  0  0  0
    1.8386    3.1417    4.0708 H   0  0  0  0  0  0  0  0  0  0  0  0
    3.0053    3.6607    5.2965 H   0  0  0  0  0  0  0  0  0  0  0  0
    6.8021    4.1919    0.8132 C   0  0  0  0  0  0  0  0  0  0  0  0
    7.6342    4.9147    0.8595 H   0  0  0  0  0  0  0  0  0  0  0  0
    6.1937    4.4947   -0.0567 H   0  0  0  0  0  0  0  0  0  0  0  0
    7.3812    2.8301    0.5305 C   0  0  0  0  0  0  0  0  0  0  0  0
    7.9676    2.5643   -0.7046 C   0  0  0  0  0  0  0  0  0  0  0  0
    8.0470    3.3473   -1.4421 H   0  0  0  0  0  0  0  0  0  0  0  0
    8.4342    1.2890   -0.9598 C   0  0  0  0  0  0  0  0  0  0  0  0
    8.8961    1.0495   -1.9057 H   0  0  0  0  0  0  0  0  0  0  0  0
    8.2790    0.3199    0.0177 C   0  0  0  0  0  0  0  0  0  0  0  0
    8.6061   -0.6931   -0.1572 H   0  0  0  0  0  0  0  0  0  0  0  0
    7.6998    0.6618    1.2359 C   0  0  0  0  0  0  0  0  0  0  0  0
    7.4995   -0.3691    2.2981 C   0  0  0  0  0  0  0  0  0  0  0  0
    6.4746   -0.7366    2.2407 H   0  0  0  0  0  0  0  0  0  0  0  0
    7.6337    0.0868    3.2809 H   0  0  0  0  0  0  0  0  0  0  0  0
    8.1804   -1.2054    2.1600 H   0  0  0  0  0  0  0  0  0  0  0  0
    9.5711    1.7488    3.8043 C   0  0  0  0  0  0  0  0  0  0  0  0
    9.4001    1.5481    2.7461 H   0  0  0  0  0  0  0  0  0  0  0  0
   10.1021    0.8810    4.2373 H   0  0  0  0  0  0  0  0  0  0  0  0
   10.2694    2.6032    3.8705 H   0  0  0  0  0  0  0  0  0  0  0  0
    8.7238    2.5400    5.8183 C   0  0  0  0  0  0  0  0  0  0  0  0
    7.8657    2.6962    6.4734 H   0  0  0  0  0  0  0  0  0  0  0  0
    9.2679    3.5025    5.7228 H   0  0  0  0  0  0  0  0  0  0  0  0
    9.4121    1.8431    6.3311 H   0  0  0  0  0  0  0  0  0  0  0  0
  1 16  1  0  0  0  0
  1 13  1  0  0  0  0
  1 12  1  0  0  0  0
  2  1  1  0  0  0  0
  3 19  1  0  0  0  0
  4 20  1  0  0  0  0
  5 21  1  0  0  0  0
  8 40  1  0  0  0  0
  9 41  1  0  0  0  0
 12 27  1  0  0  0  0
 12 34  1  0  0  0  0
 13 24  1  0  0  0  0
 14 39  1  0  0  0  0
 14  1  1  0  0  0  0
 16 72  1  0  0  0  0
 17 49  1  0  0  0  0
 18 23  1  0  0  0  0
 18 13  1  0  0  0  0
 19 18  2  0  0  0  0
 20 21  2  0  0  0  0
 20 19  1  0  0  0  0
 21 22  1  0  0  0  0
 22  6  1  0  0  0  0
 22 23  2  0  0  0  0
 23  7  1  0  0  0  0
 24 27  1  0  0  0  0
 24 26  1  0  0  0  0
 25 24  1  0  0  0  0
 27 28  1  1  0  0  0
 28 29  1  0  0  0  0
 28 30  2  0  0  0  0
 30 31  1  0  0  0  0
 32 33  1  0  0  0  0
 32 30  1  0  0  0  0
 34 32  2  0  0  0  0
 35 34  1  0  0  0  0
 35 38  1  0  0  0  0
 36 35  1  0  0  0  0
 37 35  1  0  0  0  0
 39 44  1  0  0  0  0
 40 39  2  0  0  0  0
 40 41  1  0  0  0  0
 41 42  2  0  0  0  0
 42 43  1  0  0  0  0
 42 10  1  0  0  0  0
 43 11  1  0  0  0  0
 44 17  1  0  0  0  0
 44 43  2  0  0  0  0
 45 48  1  0  0  0  0
 45 17  1  0  0  0  0
 46 45  1  0  0  0  0
 47 45  1  0  0  0  0
 49 50  1  0  0  0  0
 49 52  1  0  0  0  0
 51 49  1  0  0  0  0
 53 54  1  0  0  0  0
 53 14  1  0  0  0  0
 55 53  1  0  0  0  0
 56 53  1  0  0  0  0
 56 15  2  0  0  0  0
 57 56  1  0  0  0  0
 58 57  1  0  0  0  0
 59 57  2  0  0  0  0
 59 61  1  0  0  0  0
 60 59  1  0  0  0  0
 61 63  2  0  0  0  0
 62 61  1  0  0  0  0
 63 15  1  0  0  0  0
 63 64  1  0  0  0  0
 64 66  1  0  0  0  0
 65 64  1  0  0  0  0
 67 64  1  0  0  0  0
 68 71  1  0  0  0  0
 68 70  1  0  0  0  0
 68 16  1  0  0  0  0
 69 68  1  0  0  0  0
 72 75  1  0  0  0  0
 72 73  1  0  0  0  0
 74 72  1  0  0  0  0
M  END
$$$$
