CSD_code = BOPQED | q = 1 | S = 0 | Stoichiometry = C19H18ClN4Ni(1+) | MND = 4
 OpenBabel04212202013D

 43 48  0  0  0  0  0  0  0  0999 V2000
    0.5960    8.9193    0.8445 Ni  0  0  1  0  0  0  0  0  0  0  0  0
    1.9094    8.7114   -0.6194 Cl  0  0  0  0  0  0  0  0  0  0  0  0
   -0.5877    9.1335    2.2218 N   0  0  0  0  0  0  0  0  0  0  0  0
    1.7982   10.0780    2.0439 N   0  0  0  0  0  0  0  0  0  0  0  0
   -1.9468    7.8929    0.9839 N   0  0  0  0  0  0  0  0  0  0  0  0
   -1.2613    7.2005   -0.9449 N   0  0  0  0  0  0  0  0  0  0  0  0
   -1.7951    8.5882    2.1796 C   0  0  0  0  0  0  0  0  0  0  0  0
   -2.6991    8.7554    3.2343 C   0  0  0  0  0  0  0  0  0  0  0  0
   -3.6787    8.3081    3.1918 H   0  0  0  0  0  0  0  0  0  0  0  0
   -2.3120    9.5044    4.3289 C   0  0  0  0  0  0  0  0  0  0  0  0
   -2.9957    9.6447    5.1519 H   0  0  0  0  0  0  0  0  0  0  0  0
   -1.0305   10.0896    4.3821 C   0  0  0  0  0  0  0  0  0  0  0  0
   -0.2003    9.8603    3.2724 C   0  0  0  0  0  0  0  0  0  0  0  0
    1.1167   10.3831    3.1768 C   0  0  0  0  0  0  0  0  0  0  0  0
    1.6213   11.1635    4.2299 C   0  0  0  0  0  0  0  0  0  0  0  0
    2.9314   11.6520    4.0729 C   0  0  0  0  0  0  0  0  0  0  0  0
    3.3801   12.2584    4.8449 H   0  0  0  0  0  0  0  0  0  0  0  0
    3.6186   11.3403    2.9222 C   0  0  0  0  0  0  0  0  0  0  0  0
    4.6242   11.6976    2.7680 H   0  0  0  0  0  0  0  0  0  0  0  0
    3.0236   10.5513    1.9275 C   0  0  0  0  0  0  0  0  0  0  0  0
    3.5626   10.3048    1.0214 H   0  0  0  0  0  0  0  0  0  0  0  0
   -0.4886   10.8854    5.4342 C   0  0  0  0  0  0  0  0  0  0  0  0
   -1.1026   11.0794    6.3000 H   0  0  0  0  0  0  0  0  0  0  0  0
    0.7718   11.3930    5.3565 C   0  0  0  0  0  0  0  0  0  0  0  0
    1.1628   11.9934    6.1638 H   0  0  0  0  0  0  0  0  0  0  0  0
   -0.8723    7.9106    0.1165 C   0  0  0  0  0  0  0  0  0  0  0  0
   -2.5357    6.7354   -0.7602 C   0  0  0  0  0  0  0  0  0  0  0  0
   -3.0351    6.1390   -1.4963 H   0  0  0  0  0  0  0  0  0  0  0  0
   -2.9747    7.1694    0.4465 C   0  0  0  0  0  0  0  0  0  0  0  0
   -3.9118    7.0210    0.9413 H   0  0  0  0  0  0  0  0  0  0  0  0
   -0.4509    6.8791   -2.0953 C   0  0  0  0  0  0  0  0  0  0  0  0
    0.2058    7.7257   -2.3016 H   0  0  0  0  0  0  0  0  0  0  0  0
   -1.1115    6.7042   -2.9465 H   0  0  0  0  0  0  0  0  0  0  0  0
    0.3988    5.6349   -1.8160 C   0  0  0  0  0  0  0  0  0  0  0  0
   -0.2544    4.8142   -1.5092 H   0  0  0  0  0  0  0  0  0  0  0  0
    1.0790    5.8613   -0.9922 H   0  0  0  0  0  0  0  0  0  0  0  0
    1.2064    5.2063   -3.0398 C   0  0  0  0  0  0  0  0  0  0  0  0
    1.7249    4.2797   -2.7890 H   0  0  0  0  0  0  0  0  0  0  0  0
    0.5290    4.9898   -3.8682 H   0  0  0  0  0  0  0  0  0  0  0  0
    2.2314    6.2479   -3.4717 C   0  0  0  0  0  0  0  0  0  0  0  0
    1.7519    7.1249   -3.8969 H   0  0  0  0  0  0  0  0  0  0  0  0
    2.8895    5.8279   -4.2269 H   0  0  0  0  0  0  0  0  0  0  0  0
    2.8345    6.5636   -2.6249 H   0  0  0  0  0  0  0  0  0  0  0  0
  1  2  1  1  0  0  0
  1  4  1  0  0  0  0
  1  3  1  0  0  0  0
  3 13  1  0  0  0  0
  4 14  1  0  0  0  0
  5  7  1  0  0  0  0
  6 27  1  0  0  0  0
  6 26  1  0  0  0  0
  7  3  1  0  0  0  0
  7  8  2  0  0  0  0
  8 10  1  0  0  0  0
  9  8  1  0  0  0  0
 10 12  2  0  0  0  0
 10 11  1  0  0  0  0
 12 22  1  0  0  0  0
 13 12  1  0  0  0  0
 14 13  2  0  0  0  0
 14 15  1  0  0  0  0
 15 24  1  0  0  0  0
 16 15  2  0  0  0  0
 16 17  1  0  0  0  0
 18 16  1  0  0  0  0
 19 18  1  0  0  0  0
 20  4  1  0  0  0  0
 20 18  2  0  0  0  0
 21 20  1  0  0  0  0
 22 23  1  0  0  0  0
 24 22  2  0  0  0  0
 24 25  1  0  0  0  0
 26  1  2  0  0  0  0
 26  5  1  0  0  0  0
 27 29  2  0  0  0  0
 28 27  1  0  0  0  0
 29 30  1  0  0  0  0
 29  5  1  0  0  0  0
 31 34  1  0  0  0  0
 31  6  1  0  0  0  0
 32 31  1  0  0  0  0
 33 31  1  0  0  0  0
 34 35  1  0  0  0  0
 34 36  1  0  0  0  0
 37 38  1  0  0  0  0
 37 34  1  0  0  0  0
 39 37  1  0  0  0  0
 40 37  1  0  0  0  0
 40 43  1  0  0  0  0
 41 40  1  0  0  0  0
 42 40  1  0  0  0  0
M  END
$$$$
