CSD_code = BOPWUB | q = 0 | S = 0 | Stoichiometry = C24H38Cl2Ti | MND = 12
 OpenBabel04212202013D

 65 66  0  0  1  0  0  0  0  0999 V2000
   -1.2534    4.3033    3.2401 Ti  0  0  0  0  0  0  0  0  0  0  0  0
   -0.2369    2.6779    2.0835 Cl  0  0  0  0  0  0  0  0  0  0  0  0
    1.0030    5.0539    3.6598 C   0  0  0  0  0  0  0  0  0  0  0  0
    0.1093    6.1350    3.8377 C   0  0  0  0  0  0  0  0  0  0  0  0
    0.1714    7.0933    3.3398 H   0  0  0  0  0  0  0  0  0  0  0  0
   -0.7499    5.8435    4.9255 C   0  0  2  0  0  0  0  0  0  0  0  0
   -1.4305    6.5376    5.4003 H   0  0  0  0  0  0  0  0  0  0  0  0
   -0.3797    4.5847    5.4356 C   0  0  0  0  0  0  0  0  0  0  0  0
   -0.7725    4.1189    6.3305 H   0  0  0  0  0  0  0  0  0  0  0  0
    0.6731    4.0848    4.6420 C   0  0  0  0  0  0  0  0  0  0  0  0
    1.1929    3.1530    4.8205 H   0  0  0  0  0  0  0  0  0  0  0  0
    2.2273    5.0873    2.7730 C   0  0  0  0  0  0  0  0  0  0  0  0
    1.8273    5.4411    1.3329 C   0  0  0  0  0  0  0  0  0  0  0  0
    2.7064    5.4417    0.6919 H   0  0  0  0  0  0  0  0  0  0  0  0
    1.3756    6.4301    1.2823 H   0  0  0  0  0  0  0  0  0  0  0  0
    1.1215    4.7022    0.9523 H   0  0  0  0  0  0  0  0  0  0  0  0
    2.9569    3.7412    2.7536 C   0  0  0  0  0  0  0  0  0  0  0  0
    3.8016    3.7936    2.0700 H   0  0  0  0  0  0  0  0  0  0  0  0
    2.2888    2.9545    2.4140 H   0  0  0  0  0  0  0  0  0  0  0  0
    3.3367    3.4795    3.7374 H   0  0  0  0  0  0  0  0  0  0  0  0
    3.1805    6.1871    3.3022 C   0  0  0  0  0  0  0  0  0  0  0  0
    4.0849    6.1530    2.6920 H   0  0  0  0  0  0  0  0  0  0  0  0
    2.7191    7.1624    3.1372 H   0  0  0  0  0  0  0  0  0  0  0  0
    3.5609    6.0568    4.7902 C   0  0  0  0  0  0  0  0  0  0  0  0
    3.1896    5.1022    5.1742 H   0  0  0  0  0  0  0  0  0  0  0  0
    5.0784    6.0833    4.9659 C   0  0  0  0  0  0  0  0  0  0  0  0
    5.3435    5.9767    6.0157 H   0  0  0  0  0  0  0  0  0  0  0  0
    5.4864    7.0257    4.6056 H   0  0  0  0  0  0  0  0  0  0  0  0
    5.5443    5.2709    4.4126 H   0  0  0  0  0  0  0  0  0  0  0  0
    2.9202    7.1640    5.6256 C   0  0  0  0  0  0  0  0  0  0  0  0
    3.1851    7.0483    6.6744 H   0  0  0  0  0  0  0  0  0  0  0  0
    1.8368    7.1266    5.5422 H   0  0  0  0  0  0  0  0  0  0  0  0
    3.2649    8.1416    5.2935 H   0  0  0  0  0  0  0  0  0  0  0  0
   -2.2700    2.6779    4.3966 Cl  0  0  0  0  0  0  0  0  0  0  0  0
   -3.5100    5.0540    2.8209 C   0  0  0  0  0  0  0  0  0  0  0  0
   -2.6163    6.1350    2.6430 C   0  0  0  0  0  0  0  0  0  0  0  0
   -2.6783    7.0933    3.1409 H   0  0  0  0  0  0  0  0  0  0  0  0
   -1.7572    5.8435    1.5551 C   0  0  2  0  0  0  0  0  0  0  0  0
   -1.0766    6.5376    1.0802 H   0  0  0  0  0  0  0  0  0  0  0  0
   -2.1276    4.5848    1.0448 C   0  0  0  0  0  0  0  0  0  0  0  0
   -1.7349    4.1190    0.1499 H   0  0  0  0  0  0  0  0  0  0  0  0
   -3.1803    4.0850    1.8385 C   0  0  0  0  0  0  0  0  0  0  0  0
   -3.7002    3.1532    1.6601 H   0  0  0  0  0  0  0  0  0  0  0  0
   -4.7343    5.0874    3.7078 C   0  0  0  0  0  0  0  0  0  0  0  0
   -4.3340    5.4412    5.1478 C   0  0  0  0  0  0  0  0  0  0  0  0
   -5.2129    5.4417    5.7890 H   0  0  0  0  0  0  0  0  0  0  0  0
   -3.8823    6.4303    5.1984 H   0  0  0  0  0  0  0  0  0  0  0  0
   -3.6280    4.7024    5.5282 H   0  0  0  0  0  0  0  0  0  0  0  0
   -5.4638    3.7412    3.7274 C   0  0  0  0  0  0  0  0  0  0  0  0
   -6.3084    3.7937    4.4110 H   0  0  0  0  0  0  0  0  0  0  0  0
   -4.7956    2.9546    4.0671 H   0  0  0  0  0  0  0  0  0  0  0  0
   -5.8435    3.4794    2.7437 H   0  0  0  0  0  0  0  0  0  0  0  0
   -5.6876    6.1871    3.1787 C   0  0  0  0  0  0  0  0  0  0  0  0
   -6.5919    6.1530    3.7891 H   0  0  0  0  0  0  0  0  0  0  0  0
   -5.2262    7.1625    3.3435 H   0  0  0  0  0  0  0  0  0  0  0  0
   -6.0683    6.0567    1.6909 C   0  0  0  0  0  0  0  0  0  0  0  0
   -5.6975    5.1019    1.3069 H   0  0  0  0  0  0  0  0  0  0  0  0
   -7.5859    6.0836    1.5154 C   0  0  0  0  0  0  0  0  0  0  0  0
   -7.8513    5.9772    0.4657 H   0  0  0  0  0  0  0  0  0  0  0  0
   -7.9935    7.0261    1.8760 H   0  0  0  0  0  0  0  0  0  0  0  0
   -8.0519    5.2713    2.0688 H   0  0  0  0  0  0  0  0  0  0  0  0
   -5.4275    7.1635    0.8552 C   0  0  0  0  0  0  0  0  0  0  0  0
   -5.6925    7.0476   -0.1937 H   0  0  0  0  0  0  0  0  0  0  0  0
   -4.3440    7.1259    0.9384 H   0  0  0  0  0  0  0  0  0  0  0  0
   -5.7720    8.1413    1.1870 H   0  0  0  0  0  0  0  0  0  0  0  0
  1 34  1  0  0  0  0
  1  6  1  0  0  0  0
  2  1  1  0  0  0  0
  3  4  2  0  0  0  0
  3 10  1  0  0  0  0
  4  6  1  0  0  0  0
  5  4  1  0  0  0  0
  6  7  1  1  0  0  0
  6  8  1  0  0  0  0
  8  9  1  0  0  0  0
 10 11  1  0  0  0  0
 10  8  2  0  0  0  0
 12 21  1  0  0  0  0
 12  3  1  0  0  0  0
 13 12  1  0  0  0  0
 14 13  1  0  0  0  0
 15 13  1  0  0  0  0
 16 13  1  0  0  0  0
 17 12  1  0  0  0  0
 17 20  1  0  0  0  0
 18 17  1  0  0  0  0
 19 17  1  0  0  0  0
 21 24  1  0  0  0  0
 22 21  1  0  0  0  0
 23 21  1  0  0  0  0
 24 26  1  0  0  0  0
 24 25  1  0  0  0  0
 24 30  1  0  0  0  0
 26 27  1  0  0  0  0
 28 26  1  0  0  0  0
 29 26  1  0  0  0  0
 30 31  1  0  0  0  0
 32 30  1  0  0  0  0
 33 30  1  0  0  0  0
 35 44  1  0  0  0  0
 36 35  2  0  0  0  0
 36 37  1  0  0  0  0
 38 39  1  6  0  0  0
 38 36  1  0  0  0  0
 38  1  1  0  0  0  0
 40 38  1  0  0  0  0
 40 42  2  0  0  0  0
 41 40  1  0  0  0  0
 42 35  1  0  0  0  0
 43 42  1  0  0  0  0
 44 49  1  0  0  0  0
 44 45  1  0  0  0  0
 45 47  1  0  0  0  0
 45 48  1  0  0  0  0
 45 46  1  0  0  0  0
 49 51  1  0  0  0  0
 49 50  1  0  0  0  0
 52 49  1  0  0  0  0
 53 55  1  0  0  0  0
 53 44  1  0  0  0  0
 53 54  1  0  0  0  0
 56 53  1  0  0  0  0
 57 56  1  0  0  0  0
 58 56  1  0  0  0  0
 58 60  1  0  0  0  0
 58 61  1  0  0  0  0
 59 58  1  0  0  0  0
 62 64  1  0  0  0  0
 62 65  1  0  0  0  0
 62 56  1  0  0  0  0
 63 62  1  0  0  0  0
M  END
$$$$
