CSD_code = BOPWEK | q = 0 | S = 0 | Stoichiometry = C32H40Cl2P4Ru | MND = 6
 OpenBabel04212202013D

 79 84  0  0  0  0  0  0  0  0999 V2000
    2.1660    3.6748    4.2035 Ru  0  0  0  0  0  0  0  0  0  0  0  0
    0.5630    1.8871    4.1692 Cl  0  0  0  0  0  0  0  0  0  0  0  0
    3.5184    2.6521    2.6670 P   0  0  2  0  0  4  0  0  0  0  0  0
    3.3975    2.5423    5.7508 P   0  0  2  0  0  4  0  0  0  0  0  0
    4.6924    1.5193    3.5569 C   0  0  0  0  0  0  0  0  0  0  0  0
    4.2157    0.5399    3.6584 H   0  0  0  0  0  0  0  0  0  0  0  0
    5.6010    1.4001    2.9572 H   0  0  0  0  0  0  0  0  0  0  0  0
    4.6973    3.6809    1.7261 C   0  0  0  0  0  0  0  0  0  0  0  0
    5.3777    4.1448    2.4400 H   0  0  0  0  0  0  0  0  0  0  0  0
    4.1628    4.4789    1.2099 H   0  0  0  0  0  0  0  0  0  0  0  0
    5.2515    3.0630    1.0185 H   0  0  0  0  0  0  0  0  0  0  0  0
    2.7985    1.5807    1.3891 C   0  0  0  0  0  0  0  0  0  0  0  0
    2.7439    1.9793    0.0561 C   0  0  0  0  0  0  0  0  0  0  0  0
    3.2077    2.9045   -0.2529 H   0  0  0  0  0  0  0  0  0  0  0  0
    2.0908    1.1967   -0.8794 C   0  0  0  0  0  0  0  0  0  0  0  0
    2.0569    1.5133   -1.9125 H   0  0  0  0  0  0  0  0  0  0  0  0
    1.4770    0.0160   -0.4956 C   0  0  0  0  0  0  0  0  0  0  0  0
    0.9638   -0.5900   -1.2280 H   0  0  0  0  0  0  0  0  0  0  0  0
    1.5139   -0.3789    0.8315 C   0  0  0  0  0  0  0  0  0  0  0  0
    1.0240   -1.2910    1.1391 H   0  0  0  0  0  0  0  0  0  0  0  0
    2.1653    0.3997    1.7693 C   0  0  0  0  0  0  0  0  0  0  0  0
    2.1576    0.1028    2.8077 H   0  0  0  0  0  0  0  0  0  0  0  0
    4.9982    2.1028    4.9337 C   0  0  0  0  0  0  0  0  0  0  0  0
    5.5681    3.0329    4.8328 H   0  0  0  0  0  0  0  0  0  0  0  0
    5.5657    1.4054    5.5594 H   0  0  0  0  0  0  0  0  0  0  0  0
    2.7870    0.9069    6.2765 C   0  0  0  0  0  0  0  0  0  0  0  0
    2.5839    0.3122    5.3865 H   0  0  0  0  0  0  0  0  0  0  0  0
    1.8421    1.0372    6.8047 H   0  0  0  0  0  0  0  0  0  0  0  0
    3.5237    0.4096    6.9086 H   0  0  0  0  0  0  0  0  0  0  0  0
    3.9262    3.3101    7.3095 C   0  0  0  0  0  0  0  0  0  0  0  0
    3.5225    2.8337    8.5530 C   0  0  0  0  0  0  0  0  0  0  0  0
    2.8985    1.9564    8.6297 H   0  0  0  0  0  0  0  0  0  0  0  0
    3.9103    3.4894    9.7081 C   0  0  0  0  0  0  0  0  0  0  0  0
    3.5953    3.1076   10.6687 H   0  0  0  0  0  0  0  0  0  0  0  0
    4.6906    4.6305    9.6369 C   0  0  0  0  0  0  0  0  0  0  0  0
    4.9890    5.1402   10.5417 H   0  0  0  0  0  0  0  0  0  0  0  0
    5.0788    5.1218    8.4008 C   0  0  0  0  0  0  0  0  0  0  0  0
    5.6766    6.0198    8.3378 H   0  0  0  0  0  0  0  0  0  0  0  0
    4.6985    4.4689    7.2436 C   0  0  0  0  0  0  0  0  0  0  0  0
    4.9745    4.8721    6.2791 H   0  0  0  0  0  0  0  0  0  0  0  0
    3.7693    5.4628    4.1699 Cl  0  0  0  0  0  0  0  0  0  0  0  0
    0.8141    4.6969    2.6666 P   0  0  2  0  0  4  0  0  0  0  0  0
    0.9345    4.8071    5.7506 P   0  0  2  0  0  4  0  0  0  0  0  0
   -0.3601    5.8297    3.5563 C   0  0  0  0  0  0  0  0  0  0  0  0
    0.1166    6.8092    3.6578 H   0  0  0  0  0  0  0  0  0  0  0  0
   -1.2686    5.9489    2.9566 H   0  0  0  0  0  0  0  0  0  0  0  0
   -0.3648    3.6680    1.7257 C   0  0  0  0  0  0  0  0  0  0  0  0
   -1.0452    3.2041    2.4395 H   0  0  0  0  0  0  0  0  0  0  0  0
    0.1698    2.8700    1.2096 H   0  0  0  0  0  0  0  0  0  0  0  0
   -0.9189    4.2859    1.0180 H   0  0  0  0  0  0  0  0  0  0  0  0
    1.5340    5.7683    1.3888 C   0  0  0  0  0  0  0  0  0  0  0  0
    1.5887    5.3697    0.0558 C   0  0  0  0  0  0  0  0  0  0  0  0
    1.1249    4.4444   -0.2533 H   0  0  0  0  0  0  0  0  0  0  0  0
    2.2418    6.1523   -0.8798 C   0  0  0  0  0  0  0  0  0  0  0  0
    2.2758    5.8357   -1.9128 H   0  0  0  0  0  0  0  0  0  0  0  0
    2.8555    7.3330   -0.4960 C   0  0  0  0  0  0  0  0  0  0  0  0
    3.3686    7.9391   -1.2283 H   0  0  0  0  0  0  0  0  0  0  0  0
    2.8185    7.7280    0.8312 C   0  0  0  0  0  0  0  0  0  0  0  0
    3.3084    8.6401    1.1388 H   0  0  0  0  0  0  0  0  0  0  0  0
    2.1672    6.9494    1.7689 C   0  0  0  0  0  0  0  0  0  0  0  0
    2.1748    7.2463    2.8073 H   0  0  0  0  0  0  0  0  0  0  0  0
   -0.6661    5.2463    4.9332 C   0  0  0  0  0  0  0  0  0  0  0  0
   -1.2359    4.3162    4.8323 H   0  0  0  0  0  0  0  0  0  0  0  0
   -1.2337    5.9437    5.5588 H   0  0  0  0  0  0  0  0  0  0  0  0
    1.5448    6.4426    6.2763 C   0  0  0  0  0  0  0  0  0  0  0  0
    1.7476    7.0374    5.3863 H   0  0  0  0  0  0  0  0  0  0  0  0
    2.4898    6.3125    6.8043 H   0  0  0  0  0  0  0  0  0  0  0  0
    0.8081    6.9397    6.9085 H   0  0  0  0  0  0  0  0  0  0  0  0
    0.4060    4.0390    7.3092 C   0  0  0  0  0  0  0  0  0  0  0  0
    0.8104    4.5151    8.5527 C   0  0  0  0  0  0  0  0  0  0  0  0
    1.4343    5.3923    8.6294 H   0  0  0  0  0  0  0  0  0  0  0  0
    0.4232    3.8589    9.7077 C   0  0  0  0  0  0  0  0  0  0  0  0
    0.7387    4.2404   10.6683 H   0  0  0  0  0  0  0  0  0  0  0  0
   -0.3570    2.7178    9.6366 C   0  0  0  0  0  0  0  0  0  0  0  0
   -0.6549    2.2077   10.5413 H   0  0  0  0  0  0  0  0  0  0  0  0
   -0.7459    2.2269    8.4005 C   0  0  0  0  0  0  0  0  0  0  0  0
   -1.3437    1.3289    8.3374 H   0  0  0  0  0  0  0  0  0  0  0  0
   -0.3663    2.8803    7.2433 C   0  0  0  0  0  0  0  0  0  0  0  0
   -0.6427    2.4774    6.2788 H   0  0  0  0  0  0  0  0  0  0  0  0
  1 43  1  0  0  0  0
  1  4  1  0  0  0  0
  2  1  1  0  0  0  0
  3  8  1  6  0  0  0
  3  5  1  0  0  0  0
  3  1  1  0  0  0  0
  4 26  1  1  0  0  0
  4 30  1  0  0  0  0
  5  6  1  0  0  0  0
  5 23  1  0  0  0  0
  7  5  1  0  0  0  0
  8  9  1  0  0  0  0
 10  8  1  0  0  0  0
 11  8  1  0  0  0  0
 12 21  1  0  0  0  0
 12  3  1  0  0  0  0
 13 12  2  0  0  0  0
 14 13  1  0  0  0  0
 15 17  2  0  0  0  0
 15 13  1  0  0  0  0
 16 15  1  0  0  0  0
 17 19  1  0  0  0  0
 18 17  1  0  0  0  0
 19 20  1  0  0  0  0
 19 21  2  0  0  0  0
 21 22  1  0  0  0  0
 23 25  1  0  0  0  0
 23  4  1  0  0  0  0
 24 23  1  0  0  0  0
 26 28  1  0  0  0  0
 26 29  1  0  0  0  0
 27 26  1  0  0  0  0
 30 31  1  0  0  0  0
 31 32  1  0  0  0  0
 31 33  2  0  0  0  0
 33 34  1  0  0  0  0
 35 33  1  0  0  0  0
 35 36  1  0  0  0  0
 37 35  2  0  0  0  0
 38 37  1  0  0  0  0
 39 30  2  0  0  0  0
 39 37  1  0  0  0  0
 40 39  1  0  0  0  0
 41  1  1  0  0  0  0
 42 47  1  6  0  0  0
 42 44  1  0  0  0  0
 42  1  1  0  0  0  0
 43 65  1  1  0  0  0
 43 69  1  0  0  0  0
 44 45  1  0  0  0  0
 44 62  1  0  0  0  0
 46 44  1  0  0  0  0
 47 48  1  0  0  0  0
 49 47  1  0  0  0  0
 50 47  1  0  0  0  0
 51 60  1  0  0  0  0
 51 42  1  0  0  0  0
 52 51  2  0  0  0  0
 53 52  1  0  0  0  0
 54 56  2  0  0  0  0
 54 52  1  0  0  0  0
 55 54  1  0  0  0  0
 56 58  1  0  0  0  0
 57 56  1  0  0  0  0
 58 59  1  0  0  0  0
 58 60  2  0  0  0  0
 60 61  1  0  0  0  0
 62 64  1  0  0  0  0
 62 43  1  0  0  0  0
 63 62  1  0  0  0  0
 65 67  1  0  0  0  0
 65 68  1  0  0  0  0
 66 65  1  0  0  0  0
 69 70  1  0  0  0  0
 70 71  1  0  0  0  0
 70 72  2  0  0  0  0
 72 73  1  0  0  0  0
 74 72  1  0  0  0  0
 74 75  1  0  0  0  0
 76 74  2  0  0  0  0
 77 76  1  0  0  0  0
 78 69  2  0  0  0  0
 78 76  1  0  0  0  0
 79 78  1  0  0  0  0
M  END
$$$$
