CSD_code = BOQCUG | q = 0 | S = 0 | Stoichiometry = C21H37BrClIrO10P2 | MND = 6
 OpenBabel04212202013D

 73 73  0  0  1  0  0  0  0  0999 V2000
   12.3321    7.4166    2.7570 Ir  0  0  0  0  0  0  0  0  0  0  0  0
   14.1333    8.2212    1.0864 Br  0  0  0  0  0  0  0  0  0  0  0  0
   12.3643    9.4056    4.0138 Cl  0  0  0  0  0  0  0  0  0  0  0  0
   14.2053    6.7289    4.0328 P   0  0  0  0  0  4  0  0  0  0  0  0
   10.7460    8.6142    1.4877 P   0  0  0  0  0  4  0  0  0  0  0  0
   12.2427    5.8761    1.7149 C   0  0  0  0  0  2  0  0  0  0  0  0
   12.1908    4.9363    1.0676 O   0  0  0  0  0  1  0  0  0  0  0  0
   13.9376    5.9001    5.6427 C   0  0  0  0  0  0  0  0  0  0  0  0
   14.8860    5.8103    6.1713 H   0  0  0  0  0  0  0  0  0  0  0  0
   13.5209    4.9080    5.4787 H   0  0  0  0  0  0  0  0  0  0  0  0
   13.2365    6.4862    6.2316 H   0  0  0  0  0  0  0  0  0  0  0  0
   15.3436    8.0789    4.4743 C   0  0  0  0  0  0  0  0  0  0  0  0
   16.1955    7.6724    5.0197 H   0  0  0  0  0  0  0  0  0  0  0  0
   14.8166    8.8087    5.0852 H   0  0  0  0  0  0  0  0  0  0  0  0
   15.6846    8.5694    3.5633 H   0  0  0  0  0  0  0  0  0  0  0  0
   15.3296    5.5524    3.1949 C   0  0  0  0  0  0  0  0  0  0  0  0
   15.6954    5.9995    2.2719 H   0  0  0  0  0  0  0  0  0  0  0  0
   14.7968    4.6333    2.9562 H   0  0  0  0  0  0  0  0  0  0  0  0
   16.1720    5.3251    3.8471 H   0  0  0  0  0  0  0  0  0  0  0  0
    9.1276    9.0151    2.2164 C   0  0  0  0  0  0  0  0  0  0  0  0
    9.2585    9.6838    3.0658 H   0  0  0  0  0  0  0  0  0  0  0  0
    8.6316    8.1092    2.5504 H   0  0  0  0  0  0  0  0  0  0  0  0
    8.5195    9.5107    1.4596 H   0  0  0  0  0  0  0  0  0  0  0  0
   11.3238   10.2631    0.9577 C   0  0  0  0  0  0  0  0  0  0  0  0
   10.5097   10.7636    0.4329 H   0  0  0  0  0  0  0  0  0  0  0  0
   12.1830   10.1639    0.2969 H   0  0  0  0  0  0  0  0  0  0  0  0
   11.6147   10.8481    1.8282 H   0  0  0  0  0  0  0  0  0  0  0  0
   10.3208    7.8388   -0.1071 C   0  0  0  0  0  0  0  0  0  0  0  0
    9.7094    8.5252   -0.6921 H   0  0  0  0  0  0  0  0  0  0  0  0
    9.7645    6.9195    0.0614 H   0  0  0  0  0  0  0  0  0  0  0  0
   11.2347    7.6157   -0.6563 H   0  0  0  0  0  0  0  0  0  0  0  0
   10.8774    6.4838    4.0179 C   0  0  2  0  0  0  0  0  0  0  0  0
   11.3440    5.6115    4.5154 H   0  0  0  0  0  0  0  0  0  0  0  0
    9.8849    6.0001    3.1257 O   0  0  0  0  0  0  0  0  0  0  0  0
    9.0272    5.0562    3.7212 C   0  0  1  0  0  0  0  0  0  0  0  0
    9.6229    4.2290    4.1454 H   0  0  0  0  0  0  0  0  0  0  0  0
    8.2164    5.7017    4.8515 C   0  0  2  0  0  0  0  0  0  0  0  0
    7.4743    6.3894    4.4318 H   0  0  0  0  0  0  0  0  0  0  0  0
    9.1214    6.4659    5.8259 C   0  0  1  0  0  0  0  0  0  0  0  0
    9.6199    5.7384    6.4812 H   0  0  0  0  0  0  0  0  0  0  0  0
   10.2109    7.3011    5.1219 C   0  0  1  0  0  0  0  0  0  0  0  0
    9.7568    8.2115    4.7217 H   0  0  0  0  0  0  0  0  0  0  0  0
    8.0963    4.4781    2.6468 C   0  0  0  0  0  0  0  0  0  0  0  0
    8.6734    4.2917    1.7353 H   0  0  0  0  0  0  0  0  0  0  0  0
    7.6455    3.5541    3.0148 H   0  0  0  0  0  0  0  0  0  0  0  0
    7.0364    5.3732    2.3604 O   0  0  0  0  0  0  0  0  0  0  0  0
    7.0649    6.0489    1.2008 C   0  0  0  0  0  0  0  0  0  0  0  0
    7.8810    5.8656    0.3384 O   0  0  0  0  0  0  0  0  0  0  0  0
    5.9335    7.0348    1.1450 C   0  0  0  0  0  0  0  0  0  0  0  0
    5.9856    7.6032    0.2216 H   0  0  0  0  0  0  0  0  0  0  0  0
    5.9911    7.6995    2.0044 H   0  0  0  0  0  0  0  0  0  0  0  0
    4.9876    6.5009    1.1986 H   0  0  0  0  0  0  0  0  0  0  0  0
    7.5454    4.6574    5.5560 O   0  0  0  0  0  0  0  0  0  0  0  0
    6.3291    4.9209    6.0648 C   0  0  0  0  0  0  0  0  0  0  0  0
    5.7689    5.9770    5.9693 O   0  0  0  0  0  0  0  0  0  0  0  0
    5.7730    3.6987    6.7439 C   0  0  0  0  0  0  0  0  0  0  0  0
    5.0137    3.9938    7.4616 H   0  0  0  0  0  0  0  0  0  0  0  0
    6.5691    3.1431    7.2296 H   0  0  0  0  0  0  0  0  0  0  0  0
    5.3151    3.0621    5.9890 H   0  0  0  0  0  0  0  0  0  0  0  0
    8.3510    7.2648    6.7177 O   0  0  0  0  0  0  0  0  0  0  0  0
    7.5902    8.2594    6.2185 C   0  0  0  0  0  0  0  0  0  0  0  0
    7.5069    8.5245    5.0490 O   0  0  0  0  0  0  0  0  0  0  0  0
    6.8375    8.9431    7.3185 C   0  0  0  0  0  0  0  0  0  0  0  0
    6.6744    9.9826    7.0520 H   0  0  0  0  0  0  0  0  0  0  0  0
    7.3818    8.8636    8.2534 H   0  0  0  0  0  0  0  0  0  0  0  0
    5.8747    8.4434    7.4153 H   0  0  0  0  0  0  0  0  0  0  0  0
   11.1853    7.6589    6.0970 O   0  0  0  0  0  0  0  0  0  0  0  0
   11.0470    8.8645    6.6835 C   0  0  0  0  0  0  0  0  0  0  0  0
   10.0969    9.5800    6.5335 O   0  0  0  0  0  0  0  0  0  0  0  0
   12.2367    9.1741    7.5503 C   0  0  0  0  0  0  0  0  0  0  0  0
   12.9934    9.6331    6.9163 H   0  0  0  0  0  0  0  0  0  0  0  0
   12.6415    8.2669    7.9886 H   0  0  0  0  0  0  0  0  0  0  0  0
   11.9506    9.8829    8.3214 H   0  0  0  0  0  0  0  0  0  0  0  0
  1  3  1  0  0  0  0
  1 32  1  0  0  0  0
  1  4  1  0  0  0  0
  2  1  1  0  0  0  0
  4 12  1  0  0  0  0
  4  8  1  0  0  0  0
  5 20  1  0  0  0  0
  5  1  1  0  0  0  0
  6  1  1  0  0  0  0
  7  6  1  0  0  0  0
  8  9  1  0  0  0  0
  8 11  1  0  0  0  0
 10  8  1  0  0  0  0
 12 13  1  0  0  0  0
 12 14  1  0  0  0  0
 15 12  1  0  0  0  0
 16 19  1  0  0  0  0
 16  4  1  0  0  0  0
 17 16  1  0  0  0  0
 18 16  1  0  0  0  0
 20 22  1  0  0  0  0
 20 21  1  0  0  0  0
 23 20  1  0  0  0  0
 24  5  1  0  0  0  0
 24 27  1  0  0  0  0
 25 24  1  0  0  0  0
 26 24  1  0  0  0  0
 28 30  1  0  0  0  0
 28  5  1  0  0  0  0
 29 28  1  0  0  0  0
 31 28  1  0  0  0  0
 32 33  1  1  0  0  0
 32 41  1  0  0  0  0
 34 35  1  0  0  0  0
 34 32  1  0  0  0  0
 35 36  1  1  0  0  0
 35 37  1  0  0  0  0
 37 38  1  6  0  0  0
 37 53  1  0  0  0  0
 37 39  1  0  0  0  0
 39 40  1  1  0  0  0
 39 60  1  0  0  0  0
 41 42  1  6  0  0  0
 41 39  1  0  0  0  0
 41 67  1  0  0  0  0
 43 45  1  0  0  0  0
 43 35  1  0  0  0  0
 44 43  1  0  0  0  0
 46 43  1  0  0  0  0
 47 46  1  0  0  0  0
 48 47  2  0  0  0  0
 49 52  1  0  0  0  0
 49 47  1  0  0  0  0
 49 51  1  0  0  0  0
 50 49  1  0  0  0  0
 53 54  1  0  0  0  0
 54 56  1  0  0  0  0
 55 54  2  0  0  0  0
 56 58  1  0  0  0  0
 56 57  1  0  0  0  0
 59 56  1  0  0  0  0
 61 60  1  0  0  0  0
 61 63  1  0  0  0  0
 62 61  2  0  0  0  0
 63 66  1  0  0  0  0
 63 65  1  0  0  0  0
 64 63  1  0  0  0  0
 67 68  1  0  0  0  0
 68 70  1  0  0  0  0
 69 68  2  0  0  0  0
 70 72  1  0  0  0  0
 70 73  1  0  0  0  0
 71 70  1  0  0  0  0
M  END
$$$$
