CSD_code = BOQQAC | q = 0 | S = 0 | Stoichiometry = C16H28Cl2FeN6 | MND = 4
 OpenBabel04212202013D

 53 55  0  0  1  0  0  0  0  0999 V2000
   12.4681    0.6576    4.2114 Fe  0  0  0  0  0  0  0  0  0  0  0  0
   13.5438    0.3479    5.9020 Cl  0  0  0  0  0  0  0  0  0  0  0  0
   13.4634    2.6143    3.1386 N   0  0  2  0  0  0  0  0  0  0  0  0
   13.7912    3.0506    0.7445 N   0  0  0  0  0  0  0  0  0  0  0  0
   14.9485    1.4869    1.7758 N   0  0  0  0  0  0  0  0  0  0  0  0
   12.6117    3.7369    3.4582 C   0  0  0  0  0  0  0  0  0  0  0  0
   11.6486    3.6813    2.9353 H   0  0  0  0  0  0  0  0  0  0  0  0
   13.1092    4.6851    3.2088 H   0  0  0  0  0  0  0  0  0  0  0  0
   13.9746    2.4324    1.9670 C   0  0  1  0  0  3  0  0  0  0  0  0
   14.6078    2.4155   -0.1983 C   0  0  0  0  0  0  0  0  0  0  0  0
   15.3132    1.4557    0.4381 C   0  0  0  0  0  0  0  0  0  0  0  0
   14.6393    2.8271   -1.6281 C   0  0  0  0  0  0  0  0  0  0  0  0
   15.4307    2.2905   -2.1425 H   0  0  0  0  0  0  0  0  0  0  0  0
   14.8351    3.8953   -1.7227 H   0  0  0  0  0  0  0  0  0  0  0  0
   13.6956    2.6009   -2.1258 H   0  0  0  0  0  0  0  0  0  0  0  0
   16.3265    0.4931   -0.0693 C   0  0  0  0  0  0  0  0  0  0  0  0
   16.4421    0.6034   -1.1431 H   0  0  0  0  0  0  0  0  0  0  0  0
   16.0173   -0.5301    0.1410 H   0  0  0  0  0  0  0  0  0  0  0  0
   17.2955    0.6630    0.4011 H   0  0  0  0  0  0  0  0  0  0  0  0
   12.6629    3.8667    0.3707 C   0  0  0  0  0  0  0  0  0  0  0  0
   11.7329    3.2959    0.4417 H   0  0  0  0  0  0  0  0  0  0  0  0
   12.7921    4.1960   -0.6573 H   0  0  0  0  0  0  0  0  0  0  0  0
   12.5896    4.7470    1.0063 H   0  0  0  0  0  0  0  0  0  0  0  0
   15.3498    0.5640    2.7957 C   0  0  0  0  0  0  0  0  0  0  0  0
   15.3676    1.0886    3.7513 H   0  0  0  0  0  0  0  0  0  0  0  0
   16.3388    0.1705    2.5747 H   0  0  0  0  0  0  0  0  0  0  0  0
   14.6369   -0.2707    2.8746 H   0  0  0  0  0  0  0  0  0  0  0  0
   11.4730    2.6143    5.2843 N   0  0  2  0  0  0  0  0  0  0  0  0
   11.1454    3.0506    7.6784 N   0  0  0  0  0  0  0  0  0  0  0  0
    9.9880    1.4868    6.6472 N   0  0  0  0  0  0  0  0  0  0  0  0
   12.3247    3.7369    4.9646 C   0  0  0  0  0  0  0  0  0  0  0  0
   13.2878    3.6813    5.4875 H   0  0  0  0  0  0  0  0  0  0  0  0
   11.8271    4.6851    5.2140 H   0  0  0  0  0  0  0  0  0  0  0  0
   10.9619    2.4324    6.4559 C   0  0  1  0  0  3  0  0  0  0  0  0
   10.3289    2.4154    8.6213 C   0  0  0  0  0  0  0  0  0  0  0  0
    9.6235    1.4556    7.9849 C   0  0  0  0  0  0  0  0  0  0  0  0
   10.2975    2.8271   10.0510 C   0  0  0  0  0  0  0  0  0  0  0  0
    9.5062    2.2905   10.5655 H   0  0  0  0  0  0  0  0  0  0  0  0
   10.1017    3.8953   10.1457 H   0  0  0  0  0  0  0  0  0  0  0  0
   11.2412    2.6009   10.5487 H   0  0  0  0  0  0  0  0  0  0  0  0
    8.6103    0.4930    8.4925 C   0  0  0  0  0  0  0  0  0  0  0  0
    8.4951    0.6029    9.5663 H   0  0  0  0  0  0  0  0  0  0  0  0
    8.9193   -0.5302    8.2817 H   0  0  0  0  0  0  0  0  0  0  0  0
    7.6411    0.6631    8.0225 H   0  0  0  0  0  0  0  0  0  0  0  0
   12.2736    3.8668    8.0521 C   0  0  0  0  0  0  0  0  0  0  0  0
   13.2036    3.2960    7.9812 H   0  0  0  0  0  0  0  0  0  0  0  0
   12.1444    4.1962    9.0801 H   0  0  0  0  0  0  0  0  0  0  0  0
   12.3468    4.7470    7.4164 H   0  0  0  0  0  0  0  0  0  0  0  0
    9.5865    0.5639    5.6274 C   0  0  0  0  0  0  0  0  0  0  0  0
    9.5692    1.0886    4.6717 H   0  0  0  0  0  0  0  0  0  0  0  0
    8.5971    0.1710    5.8481 H   0  0  0  0  0  0  0  0  0  0  0  0
   10.2990   -0.2713    5.5488 H   0  0  0  0  0  0  0  0  0  0  0  0
   11.3924    0.3482    2.5206 Cl  0  0  0  0  0  0  0  0  0  0  0  0
  1 28  1  0  0  0  0
  1  2  1  0  0  0  0
  3  6  1  6  0  0  0
  3  1  1  0  0  0  0
  5  9  1  0  0  0  0
  5 24  1  0  0  0  0
  6 31  1  0  0  0  0
  7  6  1  0  0  0  0
  8  6  1  0  0  0  0
  9  4  1  1  0  0  0
  9  3  1  0  0  0  0
 10 11  2  0  0  0  0
 10  4  1  0  0  0  0
 11  5  1  0  0  0  0
 12 10  1  0  0  0  0
 13 12  1  0  0  0  0
 14 12  1  0  0  0  0
 15 12  1  0  0  0  0
 16 18  1  0  0  0  0
 16 19  1  0  0  0  0
 16 11  1  0  0  0  0
 17 16  1  0  0  0  0
 20 21  1  0  0  0  0
 20  4  1  0  0  0  0
 20 23  1  0  0  0  0
 22 20  1  0  0  0  0
 24 27  1  0  0  0  0
 24 25  1  0  0  0  0
 26 24  1  0  0  0  0
 28 31  1  1  0  0  0
 28 34  1  0  0  0  0
 29 45  1  0  0  0  0
 29 35  1  0  0  0  0
 30 36  1  0  0  0  0
 31 33  1  0  0  0  0
 31 32  1  0  0  0  0
 34 30  1  6  0  0  0
 34 29  1  0  0  0  0
 35 37  1  0  0  0  0
 36 41  1  0  0  0  0
 36 35  2  0  0  0  0
 37 39  1  0  0  0  0
 37 40  1  0  0  0  0
 37 38  1  0  0  0  0
 41 42  1  0  0  0  0
 43 41  1  0  0  0  0
 44 41  1  0  0  0  0
 45 47  1  0  0  0  0
 46 45  1  0  0  0  0
 48 45  1  0  0  0  0
 49 51  1  0  0  0  0
 49 30  1  0  0  0  0
 50 49  1  0  0  0  0
 52 49  1  0  0  0  0
 53  1  1  0  0  0  0
M  END
$$$$
