CSD_code = BOQTIL | q = 0 | S = 0 | Stoichiometry = C33H29Cl3HgOP2 | MND = 4
 OpenBabel04212202013D

 69 72  0  0  0  0  0  0  0  0999 V2000
    6.3702    5.7044    0.9775 Hg  0  0  0  0  0  0  0  0  0  0  0  0
    4.1256    5.1108    0.5201 Cl  0  0  0  0  0  0  0  0  0  0  0  0
    7.5548    3.7807    1.8498 Cl  0  0  0  0  0  0  0  0  0  0  0  0
    7.3096    7.7715    0.9458 Cl  0  0  0  0  0  0  0  0  0  0  0  0
    5.0327    3.0760    4.7186 P   0  0  0  0  0  4  0  0  0  0  0  0
    5.7083    5.9177    3.7607 P   0  0  0  0  0  0  0  0  0  0  0  0
    3.5762    1.1763    4.1400 O   0  0  0  0  0  0  0  0  0  0  0  0
    4.5873    2.8867    2.9702 C   0  0  0  0  0  0  0  0  0  0  0  0
    4.0730    3.7657    2.5559 H   0  0  0  0  0  0  0  0  0  0  0  0
    5.5209    2.7871    2.3924 H   0  0  0  0  0  0  0  0  0  0  0  0
    3.7644    1.6339    3.0159 C   0  0  0  0  0  0  0  0  0  0  0  0
    3.2660    1.0177    1.7947 C   0  0  0  0  0  0  0  0  0  0  0  0
    3.3655    1.6533    0.5533 C   0  0  0  0  0  0  0  0  0  0  0  0
    3.7870    2.6433    0.4732 H   0  0  0  0  0  0  0  0  0  0  0  0
    2.8865    1.0182   -0.5770 C   0  0  0  0  0  0  0  0  0  0  0  0
    2.9584    1.5113   -1.5343 H   0  0  0  0  0  0  0  0  0  0  0  0
    2.3168   -0.2430   -0.4880 C   0  0  0  0  0  0  0  0  0  0  0  0
    1.9508   -0.7334   -1.3780 H   0  0  0  0  0  0  0  0  0  0  0  0
    2.2118   -0.8769    0.7422 C   0  0  0  0  0  0  0  0  0  0  0  0
    1.7652   -1.8577    0.8095 H   0  0  0  0  0  0  0  0  0  0  0  0
    2.6792   -0.2509    1.8784 C   0  0  0  0  0  0  0  0  0  0  0  0
    2.6107   -0.7242    2.8466 H   0  0  0  0  0  0  0  0  0  0  0  0
    6.0076    1.6665    5.2840 C   0  0  0  0  0  0  0  0  0  0  0  0
    7.1780    1.3897    4.5815 C   0  0  0  0  0  0  0  0  0  0  0  0
    7.4734    2.0040    3.7396 H   0  0  0  0  0  0  0  0  0  0  0  0
    7.9509    0.3062    4.9600 C   0  0  0  0  0  0  0  0  0  0  0  0
    8.8566    0.0825    4.4171 H   0  0  0  0  0  0  0  0  0  0  0  0
    7.5627   -0.4895    6.0263 C   0  0  0  0  0  0  0  0  0  0  0  0
    8.1711   -1.3323    6.3187 H   0  0  0  0  0  0  0  0  0  0  0  0
    6.3895   -0.2153    6.7116 C   0  0  0  0  0  0  0  0  0  0  0  0
    6.0826   -0.8458    7.5326 H   0  0  0  0  0  0  0  0  0  0  0  0
    5.6026    0.8597    6.3400 C   0  0  0  0  0  0  0  0  0  0  0  0
    4.6697    1.0627    6.8448 H   0  0  0  0  0  0  0  0  0  0  0  0
    3.6537    3.4942    5.7994 C   0  0  0  0  0  0  0  0  0  0  0  0
    2.3725    3.6964    5.3035 C   0  0  0  0  0  0  0  0  0  0  0  0
    2.1727    3.5869    4.2483 H   0  0  0  0  0  0  0  0  0  0  0  0
    1.3534    4.0393    6.1734 C   0  0  0  0  0  0  0  0  0  0  0  0
    0.3563    4.1979    5.7919 H   0  0  0  0  0  0  0  0  0  0  0  0
    1.6076    4.1766    7.5280 C   0  0  0  0  0  0  0  0  0  0  0  0
    0.8067    4.4394    8.2023 H   0  0  0  0  0  0  0  0  0  0  0  0
    2.8876    3.9794    8.0210 C   0  0  0  0  0  0  0  0  0  0  0  0
    3.0851    4.0889    9.0768 H   0  0  0  0  0  0  0  0  0  0  0  0
    3.9140    3.6423    7.1589 C   0  0  0  0  0  0  0  0  0  0  0  0
    4.9175    3.4896    7.5348 H   0  0  0  0  0  0  0  0  0  0  0  0
    6.1923    4.4804    4.8429 C   0  0  0  0  0  0  0  0  0  0  0  0
    7.1591    4.1292    4.4712 H   0  0  0  0  0  0  0  0  0  0  0  0
    6.2830    4.7904    5.8891 H   0  0  0  0  0  0  0  0  0  0  0  0
    4.1768    6.4564    4.5907 C   0  0  0  0  0  0  0  0  0  0  0  0
    3.0294    6.5781    3.8147 C   0  0  0  0  0  0  0  0  0  0  0  0
    3.0777    6.3508    2.7578 H   0  0  0  0  0  0  0  0  0  0  0  0
    1.8433    6.9974    4.3924 C   0  0  0  0  0  0  0  0  0  0  0  0
    0.9558    7.0976    3.7856 H   0  0  0  0  0  0  0  0  0  0  0  0
    1.7996    7.2945    5.7434 C   0  0  0  0  0  0  0  0  0  0  0  0
    0.8766    7.6266    6.1953 H   0  0  0  0  0  0  0  0  0  0  0  0
    2.9435    7.1790    6.5188 C   0  0  0  0  0  0  0  0  0  0  0  0
    2.9098    7.4222    7.5709 H   0  0  0  0  0  0  0  0  0  0  0  0
    4.1308    6.7651    5.9477 C   0  0  0  0  0  0  0  0  0  0  0  0
    5.0277    6.7018    6.5489 H   0  0  0  0  0  0  0  0  0  0  0  0
    6.9239    7.1434    4.3289 C   0  0  0  0  0  0  0  0  0  0  0  0
    6.5380    8.4537    4.5953 C   0  0  0  0  0  0  0  0  0  0  0  0
    5.4929    8.7275    4.5496 H   0  0  0  0  0  0  0  0  0  0  0  0
    7.4933    9.4055    4.9012 C   0  0  0  0  0  0  0  0  0  0  0  0
    7.1892   10.4215    5.1065 H   0  0  0  0  0  0  0  0  0  0  0  0
    8.8349    9.0639    4.9247 C   0  0  0  0  0  0  0  0  0  0  0  0
    9.5790    9.8126    5.1531 H   0  0  0  0  0  0  0  0  0  0  0  0
    9.2247    7.7677    4.6290 C   0  0  0  0  0  0  0  0  0  0  0  0
   10.2728    7.5064    4.6193 H   0  0  0  0  0  0  0  0  0  0  0  0
    8.2769    6.8102    4.3223 C   0  0  0  0  0  0  0  0  0  0  0  0
    8.5888    5.8114    4.0491 H   0  0  0  0  0  0  0  0  0  0  0  0
  1  3  1  0  0  0  0
  2  1  1  0  0  0  0
  4  1  1  0  0  0  0
  5 45  1  0  0  0  0
  5 23  1  0  0  0  0
  5 34  1  0  0  0  0
  6 59  1  0  0  0  0
  6 48  1  0  0  0  0
  6 45  1  0  0  0  0
  8 11  1  0  0  0  0
  8  5  1  0  0  0  0
  9  8  1  0  0  0  0
 10  8  1  0  0  0  0
 11  7  2  0  0  0  0
 12 21  1  0  0  0  0
 12 11  1  0  0  0  0
 13 12  2  0  0  0  0
 14 13  1  0  0  0  0
 15 17  2  0  0  0  0
 15 13  1  0  0  0  0
 16 15  1  0  0  0  0
 17 19  1  0  0  0  0
 18 17  1  0  0  0  0
 19 20  1  0  0  0  0
 19 21  2  0  0  0  0
 21 22  1  0  0  0  0
 23 32  1  0  0  0  0
 24 26  1  0  0  0  0
 24 23  2  0  0  0  0
 25 24  1  0  0  0  0
 26 28  2  0  0  0  0
 27 26  1  0  0  0  0
 28 29  1  0  0  0  0
 28 30  1  0  0  0  0
 30 31  1  0  0  0  0
 32 30  2  0  0  0  0
 32 33  1  0  0  0  0
 34 43  1  0  0  0  0
 35 34  2  0  0  0  0
 35 37  1  0  0  0  0
 36 35  1  0  0  0  0
 37 39  2  0  0  0  0
 38 37  1  0  0  0  0
 39 41  1  0  0  0  0
 39 40  1  0  0  0  0
 41 42  1  0  0  0  0
 43 44  1  0  0  0  0
 43 41  2  0  0  0  0
 45 47  1  0  0  0  0
 46 45  1  0  0  0  0
 48 57  1  0  0  0  0
 49 51  1  0  0  0  0
 49 48  2  0  0  0  0
 50 49  1  0  0  0  0
 51 53  2  0  0  0  0
 52 51  1  0  0  0  0
 53 54  1  0  0  0  0
 53 55  1  0  0  0  0
 55 56  1  0  0  0  0
 57 55  2  0  0  0  0
 57 58  1  0  0  0  0
 59 60  1  0  0  0  0
 60 62  2  0  0  0  0
 61 60  1  0  0  0  0
 62 64  1  0  0  0  0
 62 63  1  0  0  0  0
 64 65  1  0  0  0  0
 66 64  2  0  0  0  0
 67 66  1  0  0  0  0
 68 59  2  0  0  0  0
 68 66  1  0  0  0  0
 69 68  1  0  0  0  0
M  END
$$$$
