CSD_code = BOQZEO | q = 0 | S = 0 | Stoichiometry = C21H17AuBrP | MND = 2
 OpenBabel04212202013D

 41 43  0  0  0  0  0  0  0  0999 V2000
   -2.8808    1.8740    1.5942 Au  0  0  0  0  0  0  0  0  0  0  0  0
   -2.7309    2.0700   -0.7649 Br  0  0  0  0  0  0  0  0  0  0  0  0
   -2.6898    1.7988    3.6125 C   0  0  0  0  0  0  0  0  0  0  0  0
   -3.4308    1.7285    4.6699 C   0  0  0  0  0  0  0  0  0  0  0  0
   -4.2709    1.6101    5.6539 C   0  0  0  0  0  0  0  0  0  0  0  0
   -0.9674    2.1171    3.6236 P   0  0  0  0  0  4  0  0  0  0  0  0
   -0.0230    0.7627    2.9013 C   0  0  0  0  0  0  0  0  0  0  0  0
    1.3582    0.9127    2.8062 C   0  0  0  0  0  0  0  0  0  0  0  0
    1.8202    1.8297    3.1509 H   0  0  0  0  0  0  0  0  0  0  0  0
    2.1188   -0.1075    2.2674 C   0  0  0  0  0  0  0  0  0  0  0  0
    3.1886    0.0078    2.1770 H   0  0  0  0  0  0  0  0  0  0  0  0
    1.5060   -1.2764    1.8413 C   0  0  0  0  0  0  0  0  0  0  0  0
    2.1015   -2.0685    1.4133 H   0  0  0  0  0  0  0  0  0  0  0  0
    0.1349   -1.4350    1.9651 C   0  0  0  0  0  0  0  0  0  0  0  0
   -0.3366   -2.3504    1.6411 H   0  0  0  0  0  0  0  0  0  0  0  0
   -0.6347   -0.4168    2.4982 C   0  0  0  0  0  0  0  0  0  0  0  0
   -1.7072   -0.5251    2.5965 H   0  0  0  0  0  0  0  0  0  0  0  0
   -0.6118    3.6478    2.7384 C   0  0  0  0  0  0  0  0  0  0  0  0
   -1.1270    4.8238    3.2795 C   0  0  0  0  0  0  0  0  0  0  0  0
   -1.6471    4.7876    4.2294 H   0  0  0  0  0  0  0  0  0  0  0  0
   -0.9847    6.0133    2.5902 C   0  0  0  0  0  0  0  0  0  0  0  0
   -1.3868    6.9263    3.0037 H   0  0  0  0  0  0  0  0  0  0  0  0
   -0.3396    6.0280    1.3630 C   0  0  0  0  0  0  0  0  0  0  0  0
   -0.2406    6.9556    0.8199 H   0  0  0  0  0  0  0  0  0  0  0  0
    0.1647    4.8558    0.8218 C   0  0  0  0  0  0  0  0  0  0  0  0
    0.6475    4.8665   -0.1431 H   0  0  0  0  0  0  0  0  0  0  0  0
    0.0298    3.6608    1.5043 C   0  0  0  0  0  0  0  0  0  0  0  0
    0.4004    2.7412    1.0722 H   0  0  0  0  0  0  0  0  0  0  0  0
   -0.2346    2.2815    5.2794 C   0  0  0  0  0  0  0  0  0  0  0  0
    0.5571    3.3483    5.6875 C   0  0  0  0  0  0  0  0  0  0  0  0
    0.7972    4.1443    4.9960 H   0  0  0  0  0  0  0  0  0  0  0  0
    1.0410    3.3794    6.9835 C   0  0  0  0  0  0  0  0  0  0  0  0
    1.6572    4.2063    7.3046 H   0  0  0  0  0  0  0  0  0  0  0  0
    0.7388    2.3561    7.8673 C   0  0  0  0  0  0  0  0  0  0  0  0
    1.1177    2.3896    8.8777 H   0  0  0  0  0  0  0  0  0  0  0  0
   -0.0474    1.2893    7.4590 C   0  0  0  0  0  0  0  0  0  0  0  0
   -0.2792    0.4915    8.1488 H   0  0  0  0  0  0  0  0  0  0  0  0
   -0.5353    1.2511    6.1676 C   0  0  0  0  0  0  0  0  0  0  0  0
   -1.1520    0.4279    5.8289 H   0  0  0  0  0  0  0  0  0  0  0  0
   -4.4793    0.6563    6.1096 H   0  0  0  0  0  0  0  0  0  0  0  0
   -4.7875    2.4639    6.0592 H   0  0  0  0  0  0  0  0  0  0  0  0
  1  3  1  0  0  0  0
  2  1  1  0  0  0  0
  3  6  1  0  0  0  0
  3  4  2  0  0  0  0
  4  5  2  0  0  0  0
  5 41  1  0  0  0  0
  5 40  1  0  0  0  0
  6 29  1  0  0  0  0
  7  6  1  0  0  0  0
  8  7  1  0  0  0  0
  8  9  1  0  0  0  0
 10  8  2  0  0  0  0
 11 10  1  0  0  0  0
 12 14  2  0  0  0  0
 12 10  1  0  0  0  0
 13 12  1  0  0  0  0
 14 16  1  0  0  0  0
 15 14  1  0  0  0  0
 16 17  1  0  0  0  0
 16  7  2  0  0  0  0
 18 19  1  0  0  0  0
 18  6  1  0  0  0  0
 19 20  1  0  0  0  0
 21 22  1  0  0  0  0
 21 19  2  0  0  0  0
 23 21  1  0  0  0  0
 24 23  1  0  0  0  0
 25 23  2  0  0  0  0
 25 27  1  0  0  0  0
 26 25  1  0  0  0  0
 27 18  2  0  0  0  0
 28 27  1  0  0  0  0
 29 30  2  0  0  0  0
 29 38  1  0  0  0  0
 30 32  1  0  0  0  0
 31 30  1  0  0  0  0
 32 33  1  0  0  0  0
 32 34  2  0  0  0  0
 34 35  1  0  0  0  0
 36 34  1  0  0  0  0
 36 37  1  0  0  0  0
 38 36  2  0  0  0  0
 39 38  1  0  0  0  0
M  END
$$$$
