CSD_code = BORFAQ | q = 0 | S = 0 | Stoichiometry = C21H18I2N6S2Zn | MND = 4
 OpenBabel04212202013D

 50 54  0  0  0  0  0  0  0  0999 V2000
   14.5176    1.2945    3.4730 I   0  0  0  0  0  0  0  0  0  0  0  0
   16.9543   -0.0036   -0.3702 I   0  0  0  0  0  0  0  0  0  0  0  0
   16.1356    1.4162    1.5412 Zn  0  0  0  0  0  0  0  0  0  0  0  0
   11.1217    5.8527    4.1721 S   0  0  0  0  0  0  0  0  0  0  0  0
   15.5623    5.7193    7.2781 S   0  0  0  0  0  0  0  0  0  0  0  0
   15.7615    3.3782    0.6246 N   0  0  0  0  0  0  0  0  0  0  0  0
   12.8278    5.7321    2.1541 N   0  0  0  0  0  0  0  0  0  0  0  0
   17.9667    2.1587    2.5011 N   0  0  0  0  0  0  0  0  0  0  0  0
   14.4136    5.3479    0.4317 C   0  0  0  0  0  0  0  0  0  0  0  0
   20.1576    2.9462    4.0061 C   0  0  0  0  0  0  0  0  0  0  0  0
   21.0095    3.2188    4.6097 H   0  0  0  0  0  0  0  0  0  0  0  0
   13.5926    5.5439    5.3665 C   0  0  0  0  0  0  0  0  0  0  0  0
   14.1430    6.0303    4.5591 H   0  0  0  0  0  0  0  0  0  0  0  0
   13.1865    6.3238    6.0151 H   0  0  0  0  0  0  0  0  0  0  0  0
   18.0772    6.2937    7.2533 N   0  0  0  0  0  0  0  0  0  0  0  0
   13.2274    6.0594    0.9269 C   0  0  0  0  0  0  0  0  0  0  0  0
   18.6661    4.5274    5.2723 C   0  0  0  0  0  0  0  0  0  0  0  0
   17.8451    3.0795    3.4455 C   0  0  0  0  0  3  0  0  0  0  0  0
   16.8622    3.4977    3.6087 H   0  0  0  0  0  0  0  0  0  0  0  0
   11.7225    6.3031    2.6091 C   0  0  0  0  0  0  0  0  0  0  0  0
   18.9071    3.5197    4.2305 C   0  0  0  0  0  0  0  0  0  0  0  0
   17.4041    4.6644    5.6752 N   0  0  0  0  0  0  0  0  0  0  0  0
   19.1679    1.6326    2.2798 C   0  0  0  0  0  0  0  0  0  0  0  0
   19.2350    0.8886    1.4982 H   0  0  0  0  0  0  0  0  0  0  0  0
   20.2864    1.9960    3.0089 C   0  0  0  0  0  0  0  0  0  0  0  0
   21.2365    1.5295    2.8040 H   0  0  0  0  0  0  0  0  0  0  0  0
   19.3173    6.1824    6.8324 C   0  0  0  0  0  0  0  0  0  0  0  0
   20.0412    6.8202    7.3224 H   0  0  0  0  0  0  0  0  0  0  0  0
   12.5210    6.9835    0.1598 C   0  0  0  0  0  0  0  0  0  0  0  0
   12.8127    7.2445   -0.8430 H   0  0  0  0  0  0  0  0  0  0  0  0
   16.5141    3.8130   -0.3827 C   0  0  0  0  0  3  0  0  0  0  0  0
   17.3282    3.1722   -0.6904 H   0  0  0  0  0  0  0  0  0  0  0  0
   17.1670    5.5297    6.6498 C   0  0  0  0  0  0  0  0  0  0  0  0
   12.4339    4.7430    4.7907 C   0  0  0  0  0  0  0  0  0  0  0  0
   11.9503    4.1490    5.5645 H   0  0  0  0  0  0  0  0  0  0  0  0
   12.7396    4.0916    3.9767 H   0  0  0  0  0  0  0  0  0  0  0  0
   10.9846    7.1999    1.9565 N   0  0  0  0  0  0  0  0  0  0  0  0
   11.3875    7.5333    0.7502 C   0  0  0  0  0  0  0  0  0  0  0  0
   10.7774    8.2629    0.2341 H   0  0  0  0  0  0  0  0  0  0  0  0
   14.7463    4.1300    1.0193 C   0  0  0  0  0  0  0  0  0  0  0  0
   14.1412    3.7654    1.8367 H   0  0  0  0  0  0  0  0  0  0  0  0
   15.2142    5.8021   -0.6130 C   0  0  0  0  0  0  0  0  0  0  0  0
   15.0188    6.7494   -1.0919 H   0  0  0  0  0  0  0  0  0  0  0  0
   14.5295    4.6682    6.1898 C   0  0  0  0  0  0  0  0  0  0  0  0
   15.2027    4.0693    5.5826 H   0  0  0  0  0  0  0  0  0  0  0  0
   13.9623    4.0162    6.8525 H   0  0  0  0  0  0  0  0  0  0  0  0
   16.2805    5.0183   -1.0207 C   0  0  0  0  0  0  0  0  0  0  0  0
   16.9232    5.3320   -1.8277 H   0  0  0  0  0  0  0  0  0  0  0  0
   19.6876    5.2989    5.8243 C   0  0  0  0  0  0  0  0  0  0  0  0
   20.7080    5.2325    5.4884 H   0  0  0  0  0  0  0  0  0  0  0  0
  2  3  1  0  0  0  0
  3  8  1  0  0  0  0
  3  1  1  0  0  0  0
  4 34  1  0  0  0  0
  6 40  1  0  0  0  0
  6  3  1  0  0  0  0
  7 20  2  0  0  0  0
  8 18  1  0  0  0  0
  9 16  1  0  0  0  0
  9 40  2  0  0  0  0
 10 21  2  0  0  0  0
 10 11  1  0  0  0  0
 12 14  1  0  0  0  0
 12 44  1  0  0  0  0
 13 12  1  0  0  0  0
 16  7  1  0  0  0  0
 17 22  2  0  0  0  0
 17 49  1  0  0  0  0
 18 19  1  0  0  0  0
 18 21  1  0  0  0  0
 20  4  1  0  0  0  0
 21 17  1  0  0  0  0
 22 33  1  0  0  0  0
 23  8  1  0  0  0  0
 23 25  2  0  0  0  0
 24 23  1  0  0  0  0
 25 10  1  0  0  0  0
 26 25  1  0  0  0  0
 27 15  1  0  0  0  0
 27 28  1  0  0  0  0
 29 38  1  0  0  0  0
 29 16  2  0  0  0  0
 30 29  1  0  0  0  0
 31  6  1  0  0  0  0
 32 31  1  0  0  0  0
 33 15  2  0  0  0  0
 33  5  1  0  0  0  0
 34 12  1  0  0  0  0
 34 35  1  0  0  0  0
 36 34  1  0  0  0  0
 37 20  1  0  0  0  0
 38 37  2  0  0  0  0
 39 38  1  0  0  0  0
 40 41  1  0  0  0  0
 42  9  1  0  0  0  0
 43 42  1  0  0  0  0
 44 46  1  0  0  0  0
 44  5  1  0  0  0  0
 45 44  1  0  0  0  0
 47 42  2  0  0  0  0
 47 31  1  0  0  0  0
 48 47  1  0  0  0  0
 49 27  2  0  0  0  0
 50 49  1  0  0  0  0
M  END
$$$$
