CSD_code = BORMOM | q = 0 | S = 0 | Stoichiometry = C20H20ClN3O3Pd | MND = 4
 OpenBabel04212202013D

 48 51  0  0  0  0  0  0  0  0999 V2000
    2.9786    2.7869    1.4813 Pd  0  0  2  0  0  0  0  0  0  0  0  0
    1.0850    1.8313    0.8070 Cl  0  0  0  0  0  0  0  0  0  0  0  0
    4.2524    1.7752    0.0635 N   0  0  0  0  0  0  0  0  0  0  0  0
    4.7753    3.6626    1.8736 N   0  0  0  0  0  0  0  0  0  0  0  0
   -1.9483    1.5779    4.2033 N   0  0  0  0  0  0  0  0  0  0  0  0
    3.8744    0.8935   -0.8511 C   0  0  0  0  0  0  0  0  0  0  0  0
    2.8822    0.4741   -0.7214 H   0  0  0  0  0  0  0  0  0  0  0  0
    4.6880    0.5268   -1.9110 C   0  0  0  0  0  0  0  0  0  0  0  0
    4.3476   -0.1960   -2.6344 H   0  0  0  0  0  0  0  0  0  0  0  0
    5.9383    1.1181   -2.0185 C   0  0  0  0  0  0  0  0  0  0  0  0
    6.5968    0.8691   -2.8369 H   0  0  0  0  0  0  0  0  0  0  0  0
    6.3323    2.0396   -1.0647 C   0  0  0  0  0  0  0  0  0  0  0  0
    7.2940    2.5187   -1.1479 H   0  0  0  0  0  0  0  0  0  0  0  0
    5.4644    2.3513   -0.0169 C   0  0  0  0  0  0  0  0  0  0  0  0
    5.7861    3.3101    1.0512 C   0  0  0  0  0  0  0  0  0  0  0  0
    7.0690    3.8289    1.2304 C   0  0  0  0  0  0  0  0  0  0  0  0
    7.8748    3.5247    0.5829 H   0  0  0  0  0  0  0  0  0  0  0  0
    7.3105    4.7287    2.2506 C   0  0  0  0  0  0  0  0  0  0  0  0
    8.2974    5.1394    2.3969 H   0  0  0  0  0  0  0  0  0  0  0  0
    6.2572    5.0891    3.0808 C   0  0  0  0  0  0  0  0  0  0  0  0
    6.3969    5.7898    3.8877 H   0  0  0  0  0  0  0  0  0  0  0  0
    5.0141    4.5285    2.8567 C   0  0  0  0  0  0  0  0  0  0  0  0
    4.1680    4.7858    3.4822 H   0  0  0  0  0  0  0  0  0  0  0  0
    1.9081    3.9952    2.6607 C   0  0  0  0  0  0  0  0  0  0  0  0
    1.6805    5.2186    2.0311 C   0  0  0  0  0  0  0  0  0  0  0  0
    2.0029    5.3595    0.9955 H   0  0  0  0  0  0  0  0  0  0  0  0
    1.0343    6.2577    2.6785 C   0  0  0  0  0  0  0  0  0  0  0  0
    0.8607    7.1955    2.1704 H   0  0  0  0  0  0  0  0  0  0  0  0
    0.6069    6.0712    3.9794 C   0  0  0  0  0  0  0  0  0  0  0  0
    0.0941    6.8641    4.5038 H   0  0  0  0  0  0  0  0  0  0  0  0
    0.8169    4.8587    4.6095 C   0  0  0  0  0  0  0  0  0  0  0  0
    0.4469    4.7416    5.6140 H   0  0  0  0  0  0  0  0  0  0  0  0
    1.4679    3.8011    3.9766 C   0  0  0  0  0  0  0  0  0  0  0  0
    1.5913    2.4533    4.6964 C   0  0  0  0  0  0  0  0  0  0  0  0
    0.4243    1.5738    4.2103 C   0  0  0  0  0  0  0  0  0  0  0  0
    0.4857    1.4267    3.1241 H   0  0  0  0  0  0  0  0  0  0  0  0
    0.4405    0.5962    4.7060 H   0  0  0  0  0  0  0  0  0  0  0  0
    2.9001    1.7194    4.3660 C   0  0  0  0  0  0  0  0  0  0  0  0
    2.9561    0.7940    4.9360 H   0  0  0  0  0  0  0  0  0  0  0  0
    3.7524    2.3429    4.6378 H   0  0  0  0  0  0  0  0  0  0  0  0
    2.9535    1.4557    3.2906 H   0  0  0  0  0  0  0  0  0  0  0  0
    1.5091    2.5864    6.2228 C   0  0  0  0  0  0  0  0  0  0  0  0
    0.5130    2.8787    6.5391 H   0  0  0  0  0  0  0  0  0  0  0  0
    2.2273    3.3194    6.5815 H   0  0  0  0  0  0  0  0  0  0  0  0
    1.7362    1.6278    6.6852 H   0  0  0  0  0  0  0  0  0  0  0  0
   -0.7905    2.2406    4.5273 O   0  0  0  0  0  0  0  0  0  0  0  0
   -1.8430    0.4844    3.7508 O   0  0  0  0  0  0  0  0  0  0  0  0
   -2.9320    2.1943    4.4478 O   0  0  0  0  0  0  0  0  0  0  0  0
  1  2  1  1  0  0  0
  1  4  1  0  0  0  0
  1 24  1  0  0  0  0
  3  1  1  0  0  0  0
  4 22  1  0  0  0  0
  5 48  2  0  0  0  0
  5 46  1  0  0  0  0
  6  7  1  0  0  0  0
  6  3  1  0  0  0  0
  8  6  2  0  0  0  0
  9  8  1  0  0  0  0
 10  8  1  0  0  0  0
 10 12  2  0  0  0  0
 11 10  1  0  0  0  0
 12 14  1  0  0  0  0
 13 12  1  0  0  0  0
 14  3  1  0  0  0  0
 14 15  2  0  0  0  0
 15 16  1  0  0  0  0
 15  4  1  0  0  0  0
 16 18  2  0  0  0  0
 17 16  1  0  0  0  0
 18 19  1  0  0  0  0
 18 20  1  0  0  0  0
 20 21  1  0  0  0  0
 22 20  2  0  0  0  0
 22 23  1  0  0  0  0
 24 33  1  0  0  0  0
 25 24  2  0  0  0  0
 25 27  1  0  0  0  0
 26 25  1  0  0  0  0
 27 29  2  0  0  0  0
 28 27  1  0  0  0  0
 29 30  1  0  0  0  0
 29 31  1  0  0  0  0
 31 32  1  0  0  0  0
 33 31  2  0  0  0  0
 33 34  1  0  0  0  0
 34 42  1  0  0  0  0
 35 46  1  0  0  0  0
 35 34  1  0  0  0  0
 35 37  1  0  0  0  0
 36 35  1  0  0  0  0
 38 40  1  0  0  0  0
 38 34  1  0  0  0  0
 38 39  1  0  0  0  0
 41 38  1  0  0  0  0
 42 43  1  0  0  0  0
 42 44  1  0  0  0  0
 42 45  1  0  0  0  0
 47  5  2  0  0  0  0
M  END
$$$$
