CSD_code = BORQII | q = 0 | S = 0 | Stoichiometry = C41H37ClN11O3Y | MND = 8
 OpenBabel04212202013D

 94103  0  0  0  0  0  0  0  0999 V2000
    1.6658    5.6659    3.8498 Y   0  0  0  0  0  0  0  0  0  0  0  0
    2.0858    5.4381    6.3418 Cl  0  0  0  0  0  0  0  0  0  0  0  0
    0.3533    3.5455    4.6371 O   0  0  0  0  0  0  0  0  0  0  0  0
   -0.6952    6.0786    3.8946 O   0  0  0  0  0  0  0  0  0  0  0  0
    1.1511    7.9511    4.8625 O   0  0  0  0  0  0  0  0  0  0  0  0
    1.5818    7.1652    2.0936 N   0  0  0  0  0  4  0  0  0  0  0  0
   -0.1260    6.1202    0.7666 N   0  0  0  0  0  0  0  0  0  0  0  0
    1.1000    4.4408    1.9722 N   0  0  0  0  0  0  0  0  0  0  0  0
    1.9829    2.2799    2.5548 N   0  0  0  0  0  0  0  0  0  0  0  0
    3.2398    3.9882    3.6806 N   0  0  0  0  0  4  0  0  0  0  0  0
    5.0179    5.0287    4.9166 N   0  0  0  0  0  0  0  0  0  0  0  0
    3.7170    6.7142    3.8054 N   0  0  0  0  0  0  0  0  0  0  0  0
    3.1201    8.8430    2.8671 N   0  0  0  0  0  0  0  0  0  0  0  0
    0.5878    1.4342    5.4307 N   0  0  0  0  0  0  0  0  0  0  0  0
   -2.5920    5.5338    2.7789 N   0  0  0  0  0  0  0  0  0  0  0  0
    2.0201    9.7993    5.8449 N   0  0  0  0  0  0  0  0  0  0  0  0
    2.0749    8.4263    2.1779 C   0  0  0  0  0  0  0  0  0  0  0  0
    1.2867    9.3193    1.3397 C   0  0  0  0  0  0  0  0  0  0  0  0
    1.3488   10.6774    1.0769 C   0  0  0  0  0  0  0  0  0  0  0  0
    0.4085   11.2137    0.2132 C   0  0  0  0  0  0  0  0  0  0  0  0
   -0.5666   10.4161   -0.3806 C   0  0  0  0  0  0  0  0  0  0  0  0
   -0.6299    9.0555   -0.1312 C   0  0  0  0  0  0  0  0  0  0  0  0
    0.3033    8.5137    0.7364 C   0  0  0  0  0  0  0  0  0  0  0  0
    0.5478    7.1621    1.2164 C   0  0  0  0  0  0  0  0  0  0  0  0
    0.1670    4.8737    1.0895 C   0  0  0  0  0  0  0  0  0  0  0  0
   -0.4707    3.7352    0.4477 C   0  0  0  0  0  0  0  0  0  0  0  0
   -1.4723    3.6213   -0.5027 C   0  0  0  0  0  0  0  0  0  0  0  0
   -1.8443    2.3490   -0.9018 C   0  0  0  0  0  0  0  0  0  0  0  0
   -1.2236    1.2177   -0.3759 C   0  0  0  0  0  0  0  0  0  0  0  0
   -0.2099    1.3237    0.5610 C   0  0  0  0  0  0  0  0  0  0  0  0
    0.1619    2.5928    0.9737 C   0  0  0  0  0  0  0  0  0  0  0  0
    1.1564    3.0855    1.9151 C   0  0  0  0  0  0  0  0  0  0  0  0
    2.9280    2.7041    3.3703 C   0  0  0  0  0  0  0  0  0  0  0  0
    3.8380    1.7982    4.0567 C   0  0  0  0  0  0  0  0  0  0  0  0
    3.9507    0.4188    4.0971 C   0  0  0  0  0  0  0  0  0  0  0  0
    4.9484   -0.1257    4.8891 C   0  0  0  0  0  0  0  0  0  0  0  0
    5.8156    0.6853    5.6167 C   0  0  0  0  0  0  0  0  0  0  0  0
    5.7195    2.0664    5.5692 C   0  0  0  0  0  0  0  0  0  0  0  0
    4.7222    2.6165    4.7832 C   0  0  0  0  0  0  0  0  0  0  0  0
    4.3292    3.9887    4.4928 C   0  0  0  0  0  0  0  0  0  0  0  0
    4.7311    6.2730    4.5958 C   0  0  0  0  0  0  0  0  0  0  0  0
    5.5613    7.4003    4.9989 C   0  0  0  0  0  0  0  0  0  0  0  0
    6.6758    7.5096    5.8118 C   0  0  0  0  0  0  0  0  0  0  0  0
    7.2301    8.7680    5.9810 C   0  0  0  0  0  0  0  0  0  0  0  0
    6.6944    9.8859    5.3469 C   0  0  0  0  0  0  0  0  0  0  0  0
    5.5814    9.7827    4.5284 C   0  0  0  0  0  0  0  0  0  0  0  0
    5.0134    8.5306    4.3655 C   0  0  0  0  0  0  0  0  0  0  0  0
    3.8603    8.0501    3.6173 C   0  0  0  0  0  0  0  0  0  0  0  0
    0.7900    2.7484    5.4652 C   0  0  0  0  0  0  0  0  0  0  0  0
   -0.1313    0.8076    4.3471 C   0  0  0  0  0  0  0  0  0  0  0  0
    1.1868    0.5474    6.3936 C   0  0  0  0  0  0  0  0  0  0  0  0
   -1.6435    6.3748    3.1795 C   0  0  0  0  0  3  0  0  0  0  0  0
   -2.5526    4.1397    3.1576 C   0  0  0  0  0  0  0  0  0  0  0  0
   -3.6438    5.9216    1.8773 C   0  0  0  0  0  0  0  0  0  0  0  0
    1.8034    8.4895    5.7529 C   0  0  0  0  0  0  0  0  0  0  0  0
    2.8709   10.3629    6.8597 C   0  0  0  0  0  0  0  0  0  0  0  0
    1.5255   10.7101    4.8400 C   0  0  0  0  0  0  0  0  0  0  0  0
    2.1117   11.2909    1.5299 H   0  0  0  0  0  0  0  0  0  0  0  0
    0.4303   12.2708   -0.0097 H   0  0  0  0  0  0  0  0  0  0  0  0
   -1.2823   10.8704   -1.0508 H   0  0  0  0  0  0  0  0  0  0  0  0
   -1.3757    8.4286   -0.5957 H   0  0  0  0  0  0  0  0  0  0  0  0
   -1.9353    4.5033   -0.9189 H   0  0  0  0  0  0  0  0  0  0  0  0
   -2.6252    2.2266   -1.6387 H   0  0  0  0  0  0  0  0  0  0  0  0
   -1.5375    0.2411   -0.7151 H   0  0  0  0  0  0  0  0  0  0  0  0
    0.2843    0.4509    0.9576 H   0  0  0  0  0  0  0  0  0  0  0  0
    3.2861   -0.2046    3.5178 H   0  0  0  0  0  0  0  0  0  0  0  0
    5.0608   -1.1993    4.9434 H   0  0  0  0  0  0  0  0  0  0  0  0
    6.5802    0.2235    6.2246 H   0  0  0  0  0  0  0  0  0  0  0  0
    6.3903    2.7023    6.1241 H   0  0  0  0  0  0  0  0  0  0  0  0
    7.0871    6.6377    6.2945 H   0  0  0  0  0  0  0  0  0  0  0  0
    8.0983    8.8886    6.6126 H   0  0  0  0  0  0  0  0  0  0  0  0
    7.1597   10.8499    5.4962 H   0  0  0  0  0  0  0  0  0  0  0  0
    5.1702   10.6431    4.0220 H   0  0  0  0  0  0  0  0  0  0  0  0
    1.3776    3.0830    6.3312 H   0  0  0  0  0  0  0  0  0  0  0  0
   -0.9274    0.1750    4.7445 H   0  0  0  0  0  0  0  0  0  0  0  0
    0.5487    0.2040    3.7442 H   0  0  0  0  0  0  0  0  0  0  0  0
   -0.5571    1.5851    3.7177 H   0  0  0  0  0  0  0  0  0  0  0  0
    1.9240   -0.0967    5.9074 H   0  0  0  0  0  0  0  0  0  0  0  0
    0.4185   -0.0791    6.8527 H   0  0  0  0  0  0  0  0  0  0  0  0
    1.6860    1.1256    7.1678 H   0  0  0  0  0  0  0  0  0  0  0  0
   -1.8018    7.4099    2.8286 H   0  0  0  0  0  0  0  0  0  0  0  0
   -3.4476    3.8852    3.7296 H   0  0  0  0  0  0  0  0  0  0  0  0
   -1.6678    3.9736    3.7716 H   0  0  0  0  0  0  0  0  0  0  0  0
   -2.5044    3.5088    2.2676 H   0  0  0  0  0  0  0  0  0  0  0  0
   -3.5528    5.3675    0.9404 H   0  0  0  0  0  0  0  0  0  0  0  0
   -3.5777    6.9862    1.6642 H   0  0  0  0  0  0  0  0  0  0  0  0
   -4.6181    5.7033    2.3208 H   0  0  0  0  0  0  0  0  0  0  0  0
    2.2501    7.9104    6.5743 H   0  0  0  0  0  0  0  0  0  0  0  0
    3.7699   10.7886    6.4062 H   0  0  0  0  0  0  0  0  0  0  0  0
    2.3398   11.1514    7.3980 H   0  0  0  0  0  0  0  0  0  0  0  0
    3.1687    9.5887    7.5634 H   0  0  0  0  0  0  0  0  0  0  0  0
    2.3467   11.0714    4.2186 H   0  0  0  0  0  0  0  0  0  0  0  0
    1.0269   11.5550    5.3182 H   0  0  0  0  0  0  0  0  0  0  0  0
    0.8207   10.1739    4.2085 H   0  0  0  0  0  0  0  0  0  0  0  0
  1  4  1  0  0  0  0
  1  2  1  0  0  0  0
  3 49  2  0  0  0  0
  5 55  2  0  0  0  0
  6 17  1  0  0  0  0
  6  1  1  0  0  0  0
  7 25  2  0  0  0  0
  7 24  1  0  0  0  0
  8  1  1  0  0  0  0
  9 33  1  0  0  0  0
 10  1  1  0  0  0  0
 10 40  1  0  0  0  0
 12  1  1  0  0  0  0
 12 41  1  0  0  0  0
 13 48  1  0  0  0  0
 14 49  1  0  0  0  0
 14 51  1  0  0  0  0
 15 53  1  0  0  0  0
 15 52  1  0  0  0  0
 16 56  1  0  0  0  0
 17 13  2  0  0  0  0
 18 17  1  0  0  0  0
 19 18  1  0  0  0  0
 19 58  1  0  0  0  0
 20 19  2  0  0  0  0
 21 22  2  0  0  0  0
 21 20  1  0  0  0  0
 22 23  1  0  0  0  0
 23 24  1  0  0  0  0
 23 18  2  0  0  0  0
 24  6  2  0  0  0  0
 25  8  1  0  0  0  0
 26 31  2  0  0  0  0
 26 25  1  0  0  0  0
 27 26  1  0  0  0  0
 28 27  2  0  0  0  0
 28 29  1  0  0  0  0
 29 30  2  0  0  0  0
 30 65  1  0  0  0  0
 30 31  1  0  0  0  0
 31 32  1  0  0  0  0
 32  8  1  0  0  0  0
 32  9  2  0  0  0  0
 33 10  2  0  0  0  0
 33 34  1  0  0  0  0
 34 35  1  0  0  0  0
 34 39  2  0  0  0  0
 35 36  2  0  0  0  0
 36 67  1  0  0  0  0
 36 37  1  0  0  0  0
 37 68  1  0  0  0  0
 38 37  2  0  0  0  0
 38 69  1  0  0  0  0
 39 38  1  0  0  0  0
 40 39  1  0  0  0  0
 40 11  2  0  0  0  0
 41 11  1  0  0  0  0
 41 42  2  0  0  0  0
 42 43  1  0  0  0  0
 43 44  2  0  0  0  0
 43 70  1  0  0  0  0
 44 71  1  0  0  0  0
 45 72  1  0  0  0  0
 45 44  1  0  0  0  0
 46 45  2  0  0  0  0
 47 46  1  0  0  0  0
 47 42  1  0  0  0  0
 48 12  1  0  0  0  0
 48 47  2  0  0  0  0
 49 74  1  0  0  0  0
 50 75  1  0  0  0  0
 50 14  1  0  0  0  0
 51 79  1  0  0  0  0
 51 80  1  0  0  0  0
 52  4  1  0  0  0  0
 53 82  1  0  0  0  0
 53 83  1  0  0  0  0
 54 87  1  0  0  0  0
 54 15  1  0  0  0  0
 55 16  1  0  0  0  0
 55 88  1  0  0  0  0
 56 90  1  0  0  0  0
 56 91  1  0  0  0  0
 57 93  1  0  0  0  0
 57 16  1  0  0  0  0
 59 20  1  0  0  0  0
 60 21  1  0  0  0  0
 61 22  1  0  0  0  0
 62 27  1  0  0  0  0
 63 28  1  0  0  0  0
 64 29  1  0  0  0  0
 66 35  1  0  0  0  0
 73 46  1  0  0  0  0
 76 50  1  0  0  0  0
 77 50  1  0  0  0  0
 78 51  1  0  0  0  0
 81 52  1  0  0  0  0
 84 53  1  0  0  0  0
 85 54  1  0  0  0  0
 86 54  1  0  0  0  0
 89 56  1  0  0  0  0
 92 57  1  0  0  0  0
 94 57  1  0  0  0  0
M  END
$$$$
