CSD_code = BOSFEX | q = 0 | S = 0 | Stoichiometry = C22H23I2N3Pd | MND = 4
 OpenBabel04212202013D

 51 54  0  0  1  0  0  0  0  0999 V2000
    2.6994    2.9318    2.0495 Pd  0  0  0  0  0  0  0  0  0  0  0  0
    3.5282    3.8472   -0.2692 I   0  0  0  0  0  0  0  0  0  0  0  0
    1.6185    1.8891    4.1801 I   0  0  0  0  0  0  0  0  0  0  0  0
    3.1207    0.3012    0.7222 N   0  0  0  0  0  0  0  0  0  0  0  0
    4.9133   -0.5830    1.6238 N   0  0  0  0  0  0  0  0  0  0  0  0
    1.8606    4.7020    2.4730 N   0  0  0  0  0  0  0  0  0  0  0  0
    3.5387    1.1975    1.6672 C   0  0  0  0  0  0  0  0  0  0  0  0
    4.6561    0.6327    2.2437 C   0  0  0  0  0  0  0  0  0  0  0  0
    3.9678   -0.7752    0.6824 C   0  0  2  0  0  3  0  0  0  0  0  0
    3.7555   -1.7964   -0.2439 C   0  0  0  0  0  0  0  0  0  0  0  0
    4.4365   -2.6308   -0.2922 H   0  0  0  0  0  0  0  0  0  0  0  0
    2.6728   -1.7151   -1.0897 C   0  0  0  0  0  0  0  0  0  0  0  0
    1.8002   -0.6033   -0.9879 C   0  0  0  0  0  0  0  0  0  0  0  0
    0.9428   -0.5437   -1.6379 H   0  0  0  0  0  0  0  0  0  0  0  0
    2.0369    0.3844   -0.0872 C   0  0  0  0  0  0  0  0  0  0  0  0
    1.4098    1.2655    0.0447 H   0  0  0  0  0  0  0  0  0  0  0  0
    2.3907   -2.7719   -2.1058 C   0  0  0  0  0  0  0  0  0  0  0  0
    2.3847   -2.3374   -3.1045 H   0  0  0  0  0  0  0  0  0  0  0  0
    1.4084   -3.2088   -1.9307 H   0  0  0  0  0  0  0  0  0  0  0  0
    3.1367   -3.5610   -2.0714 H   0  0  0  0  0  0  0  0  0  0  0  0
    6.0204   -1.4780    1.8584 C   0  0  0  0  0  0  0  0  0  0  0  0
    6.7769   -0.9303    2.4239 H   0  0  0  0  0  0  0  0  0  0  0  0
    6.4500   -1.7568    0.8903 H   0  0  0  0  0  0  0  0  0  0  0  0
    5.5877   -2.7321    2.6149 C   0  0  0  0  0  0  0  0  0  0  0  0
    5.1171   -2.4708    3.5597 H   0  0  0  0  0  0  0  0  0  0  0  0
    6.4543   -3.3554    2.8175 H   0  0  0  0  0  0  0  0  0  0  0  0
    4.8723   -3.3076    2.0326 H   0  0  0  0  0  0  0  0  0  0  0  0
    5.3605    1.2348    3.3663 C   0  0  0  0  0  0  0  0  0  0  0  0
    5.8564    0.5062    4.4457 C   0  0  0  0  0  0  0  0  0  0  0  0
    5.7723   -0.5689    4.4643 H   0  0  0  0  0  0  0  0  0  0  0  0
    6.4068    1.1506    5.5367 C   0  0  0  0  0  0  0  0  0  0  0  0
    6.7738    0.5637    6.3666 H   0  0  0  0  0  0  0  0  0  0  0  0
    6.4753    2.5360    5.5964 C   0  0  0  0  0  0  0  0  0  0  0  0
    5.9791    3.2662    4.5216 C   0  0  0  0  0  0  0  0  0  0  0  0
    6.0319    4.3463    4.5471 H   0  0  0  0  0  0  0  0  0  0  0  0
    5.4261    2.6347    3.4255 C   0  0  0  0  0  0  0  0  0  0  0  0
    5.0915    3.2364    2.5716 H   0  0  0  0  0  0  0  0  0  0  0  0
    7.0841    3.2270    6.7762 C   0  0  0  0  0  0  0  0  0  0  0  0
    6.9766    2.6256    7.6757 H   0  0  0  0  0  0  0  0  0  0  0  0
    6.6187    4.1960    6.9414 H   0  0  0  0  0  0  0  0  0  0  0  0
    8.1488    3.3901    6.6029 H   0  0  0  0  0  0  0  0  0  0  0  0
    2.4349    5.5109    3.3573 C   0  0  0  0  0  3  0  0  0  0  0  0
    3.3600    5.1543    3.8110 H   0  0  0  0  0  0  0  0  0  0  0  0
    1.8889    6.7348    3.6986 C   0  0  0  0  0  0  0  0  0  0  0  0
    2.3857    7.3664    4.4181 H   0  0  0  0  0  0  0  0  0  0  0  0
    0.6983    7.1238    3.1036 C   0  0  0  0  0  0  0  0  0  0  0  0
    0.2446    8.0719    3.3493 H   0  0  0  0  0  0  0  0  0  0  0  0
    0.1002    6.2701    2.1896 C   0  0  0  0  0  0  0  0  0  0  0  0
   -0.8279    6.5302    1.7059 H   0  0  0  0  0  0  0  0  0  0  0  0
    0.7182    5.0670    1.9007 C   0  0  0  0  0  0  0  0  0  0  0  0
    0.2874    4.3672    1.1841 H   0  0  0  0  0  0  0  0  0  0  0  0
  1  6  1  0  0  0  0
  1  3  1  0  0  0  0
  2  1  1  0  0  0  0
  4  7  1  0  0  0  0
  5 21  1  0  0  0  0
  5  8  1  0  0  0  0
  6 42  1  0  0  0  0
  7  1  1  0  0  0  0
  7  8  2  0  0  0  0
  8 28  1  0  0  0  0
  9 10  1  6  0  0  0
  9  4  1  0  0  0  0
  9  5  1  0  0  0  0
 11 10  1  0  0  0  0
 12 13  1  0  0  0  0
 12 10  2  0  0  0  0
 13 15  2  0  0  0  0
 14 13  1  0  0  0  0
 15 16  1  0  0  0  0
 15  4  1  0  0  0  0
 17 20  1  0  0  0  0
 17 19  1  0  0  0  0
 17 12  1  0  0  0  0
 18 17  1  0  0  0  0
 21 22  1  0  0  0  0
 21 24  1  0  0  0  0
 23 21  1  0  0  0  0
 24 26  1  0  0  0  0
 24 25  1  0  0  0  0
 27 24  1  0  0  0  0
 28 36  2  0  0  0  0
 28 29  1  0  0  0  0
 29 30  1  0  0  0  0
 29 31  2  0  0  0  0
 31 33  1  0  0  0  0
 31 32  1  0  0  0  0
 33 38  1  0  0  0  0
 34 35  1  0  0  0  0
 34 33  2  0  0  0  0
 36 34  1  0  0  0  0
 37 36  1  0  0  0  0
 38 40  1  0  0  0  0
 38 39  1  0  0  0  0
 41 38  1  0  0  0  0
 42 44  1  0  0  0  0
 42 43  1  0  0  0  0
 44 45  1  0  0  0  0
 46 47  1  0  0  0  0
 46 44  2  0  0  0  0
 48 46  1  0  0  0  0
 49 48  1  0  0  0  0
 50 48  2  0  0  0  0
 50  6  1  0  0  0  0
 51 50  1  0  0  0  0
M  END
$$$$
