CSD_code = BOSJIF | q = 0 | S = 0 | Stoichiometry = C4H14Cl2N2Pd | MND = 4
 OpenBabel04212202013D

 23 22  0  0  0  0  0  0  0  0999 V2000
   -0.0001   -0.0000   -0.0000 Pd  0  0  0  0  0  0  0  0  0  0  0  0
   -0.0010    1.5740   -1.6569 Cl  0  0  0  0  0  0  0  0  0  0  0  0
    0.8703   -1.3434   -1.2663 N   0  0  0  0  0  4  0  0  0  0  0  0
    2.3276   -1.1689   -1.1592 C   0  0  0  0  0  0  0  0  0  0  0  0
    3.0816   -2.1502   -2.0519 C   0  0  0  0  0  0  0  0  0  0  0  0
    0.5726   -1.1778   -2.2330 H   0  0  0  0  0  0  0  0  0  0  0  0
    0.6159   -2.2980   -0.9916 H   0  0  0  0  0  0  0  0  0  0  0  0
    2.6105   -1.3229   -0.1087 H   0  0  0  0  0  0  0  0  0  0  0  0
    2.5666   -0.1368   -1.4484 H   0  0  0  0  0  0  0  0  0  0  0  0
    2.8094   -2.0066   -3.0960 H   0  0  0  0  0  0  0  0  0  0  0  0
    4.1524   -1.9970   -1.9548 H   0  0  0  0  0  0  0  0  0  0  0  0
    2.8564   -3.1770   -1.7692 H   0  0  0  0  0  0  0  0  0  0  0  0
    0.0010   -1.5740    1.6569 Cl  0  0  0  0  0  0  0  0  0  0  0  0
   -0.8703    1.3434    1.2663 N   0  0  0  0  0  4  0  0  0  0  0  0
   -2.3276    1.1689    1.1592 C   0  0  0  0  0  0  0  0  0  0  0  0
   -3.0816    2.1502    2.0519 C   0  0  0  0  0  0  0  0  0  0  0  0
   -0.5726    1.1778    2.2330 H   0  0  0  0  0  0  0  0  0  0  0  0
   -0.6159    2.2980    0.9916 H   0  0  0  0  0  0  0  0  0  0  0  0
   -2.6105    1.3229    0.1087 H   0  0  0  0  0  0  0  0  0  0  0  0
   -2.5666    0.1368    1.4485 H   0  0  0  0  0  0  0  0  0  0  0  0
   -2.8094    2.0067    3.0960 H   0  0  0  0  0  0  0  0  0  0  0  0
   -4.1524    1.9970    1.9548 H   0  0  0  0  0  0  0  0  0  0  0  0
   -2.8564    3.1770    1.7692 H   0  0  0  0  0  0  0  0  0  0  0  0
  1 14  1  0  0  0  0
  1 13  1  0  0  0  0
  2  1  1  0  0  0  0
  3  4  1  0  0  0  0
  3  7  1  0  0  0  0
  3  1  1  0  0  0  0
  4  8  1  0  0  0  0
  5 11  1  0  0  0  0
  5 12  1  0  0  0  0
  5  4  1  0  0  0  0
  6  3  1  0  0  0  0
  9  4  1  0  0  0  0
 10  5  1  0  0  0  0
 14 17  1  0  0  0  0
 15 14  1  0  0  0  0
 15 20  1  0  0  0  0
 15 16  1  0  0  0  0
 16 21  1  0  0  0  0
 18 14  1  0  0  0  0
 19 15  1  0  0  0  0
 22 16  1  0  0  0  0
 23 16  1  0  0  0  0
M  END
$$$$
