CSD_code = BOSJAX | q = 0 | S = 0 | Stoichiometry = C4H14Cl2N2Pt | MND = 4
 OpenBabel04212202013D

 23 22  0  0  0  0  0  0  0  0999 V2000
   -0.0000    0.0000   -0.0000 Pt  0  0  0  0  0  0  0  0  0  0  0  0
    1.5058    1.7321   -0.2042 Cl  0  0  0  0  0  0  0  0  0  0  0  0
    1.3611   -1.2852   -0.8120 N   0  0  0  0  0  4  0  0  0  0  0  0
    1.1934   -2.2246   -0.4375 H   0  0  0  0  0  0  0  0  0  0  0  0
    2.3044   -0.9891   -0.5417 H   0  0  0  0  0  0  0  0  0  0  0  0
    1.2716   -1.3277   -2.2795 C   0  0  0  0  0  0  0  0  0  0  0  0
    1.4404   -0.3155   -2.6578 H   0  0  0  0  0  0  0  0  0  0  0  0
    0.2580   -1.6392   -2.5473 H   0  0  0  0  0  0  0  0  0  0  0  0
    2.2918   -2.2890   -2.8779 C   0  0  0  0  0  0  0  0  0  0  0  0
    2.2023   -2.3011   -3.9602 H   0  0  0  0  0  0  0  0  0  0  0  0
    3.3045   -1.9828   -2.6227 H   0  0  0  0  0  0  0  0  0  0  0  0
    2.1291   -3.3005   -2.5107 H   0  0  0  0  0  0  0  0  0  0  0  0
   -1.5058   -1.7321    0.2042 Cl  0  0  0  0  0  0  0  0  0  0  0  0
   -1.3611    1.2852    0.8120 N   0  0  0  0  0  4  0  0  0  0  0  0
   -1.1934    2.2246    0.4375 H   0  0  0  0  0  0  0  0  0  0  0  0
   -2.3044    0.9891    0.5417 H   0  0  0  0  0  0  0  0  0  0  0  0
   -1.2716    1.3277    2.2795 C   0  0  0  0  0  0  0  0  0  0  0  0
   -1.4404    0.3155    2.6578 H   0  0  0  0  0  0  0  0  0  0  0  0
   -0.2580    1.6392    2.5473 H   0  0  0  0  0  0  0  0  0  0  0  0
   -2.2918    2.2890    2.8779 C   0  0  0  0  0  0  0  0  0  0  0  0
   -2.2023    2.3011    3.9602 H   0  0  0  0  0  0  0  0  0  0  0  0
   -3.3045    1.9828    2.6227 H   0  0  0  0  0  0  0  0  0  0  0  0
   -2.1291    3.3005    2.5107 H   0  0  0  0  0  0  0  0  0  0  0  0
  1 13  1  0  0  0  0
  1 14  1  0  0  0  0
  2  1  1  0  0  0  0
  3  5  1  0  0  0  0
  3  4  1  0  0  0  0
  3  1  1  0  0  0  0
  6  3  1  0  0  0  0
  7  6  1  0  0  0  0
  8  6  1  0  0  0  0
  9 11  1  0  0  0  0
  9 12  1  0  0  0  0
  9  6  1  0  0  0  0
 10  9  1  0  0  0  0
 14 17  1  0  0  0  0
 15 14  1  0  0  0  0
 16 14  1  0  0  0  0
 17 19  1  0  0  0  0
 17 18  1  0  0  0  0
 17 20  1  0  0  0  0
 20 21  1  0  0  0  0
 22 20  1  0  0  0  0
 23 20  1  0  0  0  0
M  END
$$$$
