CSD_code = BOSNEC | q = 0 | S = 0 | Stoichiometry = C19H24Cl2N2NiS2 | MND = 6
 OpenBabel04212202013D

 50 54  0  0  1  0  0  0  0  0999 V2000
    3.8170    2.5421   -0.8323 Ni  0  0  0  0  0  0  0  0  0  0  0  0
    3.3489    1.1191    0.7623 Cl  0  0  0  0  0  0  0  0  0  0  0  0
    4.3113    3.9339   -2.3682 Cl  0  0  0  0  0  0  0  0  0  0  0  0
    2.2329    4.6281    0.0283 S   0  0  0  0  0  0  0  0  0  0  0  0
    5.3296    3.5475    0.4682 S   0  0  1  0  0  3  0  0  0  0  0  0
    2.3465    1.7271   -1.9447 N   0  0  1  0  0  4  0  0  0  0  0  0
    5.3267    1.0365   -1.7042 N   0  0  2  0  0  4  0  0  0  0  0  0
    4.2584    4.0001    1.8859 C   0  0  0  0  0  0  0  0  0  0  0  0
    6.2723    2.1628    1.0619 C   0  0  0  0  0  0  0  0  0  0  0  0
    6.4509    1.9349    2.4179 C   0  0  0  0  0  0  0  0  0  0  0  0
    7.2348    0.8808    2.8522 C   0  0  0  0  0  0  0  0  0  0  0  0
    7.8574    0.0562    1.9346 C   0  0  0  0  0  0  0  0  0  0  0  0
    7.6811    0.2880    0.5816 C   0  0  0  0  0  0  0  0  0  0  0  0
    6.8993    1.3375    0.1215 C   0  0  0  0  0  0  0  0  0  0  0  0
    6.6788    1.4970   -1.3592 C   0  0  0  0  0  0  0  0  0  0  0  0
    5.1566    0.8359   -3.1405 C   0  0  0  0  0  0  0  0  0  0  0  0
    3.7493    0.3368   -3.4721 C   0  0  0  0  0  0  0  0  0  0  0  0
    3.2738    5.0739    1.4599 C   0  0  0  0  0  0  0  0  0  0  0  0
    1.1174    3.3604    0.5798 C   0  0  0  0  0  0  0  0  0  0  0  0
    0.7018    3.2560    1.8977 C   0  0  0  0  0  0  0  0  0  0  0  0
   -0.1896    2.2663    2.2692 C   0  0  0  0  0  0  0  0  0  0  0  0
   -0.6859    1.3886    1.3233 C   0  0  0  0  0  0  0  0  0  0  0  0
   -0.2786    1.5018    0.0053 C   0  0  0  0  0  0  0  0  0  0  0  0
    0.6196    2.4814   -0.3890 C   0  0  0  0  0  0  0  0  0  0  0  0
    1.1031    2.5112   -1.8176 C   0  0  0  0  0  0  0  0  0  0  0  0
    2.6483    1.3910   -3.3394 C   0  0  0  0  0  0  0  0  0  0  0  0
    2.1878    0.8464   -1.4436 H   0  0  0  0  0  0  0  0  0  0  0  0
    5.1822    0.1374   -1.2384 H   0  0  0  0  0  0  0  0  0  0  0  0
    4.8956    4.3986    2.6779 H   0  0  0  0  0  0  0  0  0  0  0  0
    3.7483    3.0927    2.2158 H   0  0  0  0  0  0  0  0  0  0  0  0
    5.9743    2.5658    3.1500 H   0  0  0  0  0  0  0  0  0  0  0  0
    7.3560    0.7102    3.9113 H   0  0  0  0  0  0  0  0  0  0  0  0
    8.4712   -0.7670    2.2673 H   0  0  0  0  0  0  0  0  0  0  0  0
    8.1603   -0.3607   -0.1382 H   0  0  0  0  0  0  0  0  0  0  0  0
    7.4413    0.9162   -1.9034 H   0  0  0  0  0  0  0  0  0  0  0  0
    6.7678    2.5467   -1.6617 H   0  0  0  0  0  0  0  0  0  0  0  0
    5.3297    1.7950   -3.6344 H   0  0  0  0  0  0  0  0  0  0  0  0
    5.8928    0.1080   -3.5234 H   0  0  0  0  0  0  0  0  0  0  0  0
    3.7498   -0.0094   -4.5072 H   0  0  0  0  0  0  0  0  0  0  0  0
    3.5103   -0.5194   -2.8337 H   0  0  0  0  0  0  0  0  0  0  0  0
    2.6359    5.3624    2.2953 H   0  0  0  0  0  0  0  0  0  0  0  0
    3.8052    5.9575    1.1010 H   0  0  0  0  0  0  0  0  0  0  0  0
    1.0785    3.9364    2.6458 H   0  0  0  0  0  0  0  0  0  0  0  0
   -0.4943    2.1846    3.3019 H   0  0  0  0  0  0  0  0  0  0  0  0
   -1.3795    0.6130    1.6101 H   0  0  0  0  0  0  0  0  0  0  0  0
   -0.6591    0.8095   -0.7332 H   0  0  0  0  0  0  0  0  0  0  0  0
    1.2981    3.5344   -2.1532 H   0  0  0  0  0  0  0  0  0  0  0  0
    0.3274    2.0772   -2.4666 H   0  0  0  0  0  0  0  0  0  0  0  0
    1.7370    0.9992   -3.8187 H   0  0  0  0  0  0  0  0  0  0  0  0
    2.9467    2.3057   -3.8568 H   0  0  0  0  0  0  0  0  0  0  0  0
  1  5  1  0  0  0  0
  1  2  1  0  0  0  0
  3  1  1  0  0  0  0
  4 19  1  0  0  0  0
  4 18  1  0  0  0  0
  5  9  1  1  0  0  0
  5  8  1  0  0  0  0
  6 25  1  0  0  0  0
  6 27  1  1  0  0  0
  6  1  1  0  0  0  0
  7 15  1  0  0  0  0
  7 28  1  1  0  0  0
  7  1  1  0  0  0  0
  8 30  1  0  0  0  0
  8 29  1  0  0  0  0
  9 10  1  0  0  0  0
 10 11  2  0  0  0  0
 10 31  1  0  0  0  0
 11 32  1  0  0  0  0
 12 33  1  0  0  0  0
 12 11  1  0  0  0  0
 13 12  2  0  0  0  0
 14 13  1  0  0  0  0
 14  9  2  0  0  0  0
 15 14  1  0  0  0  0
 16  7  1  0  0  0  0
 17 26  1  0  0  0  0
 17 16  1  0  0  0  0
 17 40  1  0  0  0  0
 18  8  1  0  0  0  0
 18 41  1  0  0  0  0
 19 20  1  0  0  0  0
 20 21  2  0  0  0  0
 20 43  1  0  0  0  0
 21 44  1  0  0  0  0
 22 45  1  0  0  0  0
 22 21  1  0  0  0  0
 23 22  2  0  0  0  0
 24 23  1  0  0  0  0
 24 19  2  0  0  0  0
 25 24  1  0  0  0  0
 26  6  1  0  0  0  0
 34 13  1  0  0  0  0
 35 15  1  0  0  0  0
 36 15  1  0  0  0  0
 37 16  1  0  0  0  0
 38 16  1  0  0  0  0
 39 17  1  0  0  0  0
 42 18  1  0  0  0  0
 46 23  1  0  0  0  0
 47 25  1  0  0  0  0
 48 25  1  0  0  0  0
 49 26  1  0  0  0  0
 50 26  1  0  0  0  0
M  END
$$$$
