CSD_code = BOTBER | q = 0 | S = 0 | Stoichiometry = C27H29ClN3OPPd | MND = 4
 OpenBabel04212202013D

 63 67  0  0  0  0  0  0  0  0999 V2000
   -0.8845    3.0237    2.9984 Pd  0  0  1  0  0  0  0  0  0  0  0  0
   -2.4176    1.6839    1.7661 Cl  0  0  0  0  0  0  0  0  0  0  0  0
   -1.0719    4.3934    1.2461 P   0  0  0  0  0  4  0  0  0  0  0  0
   -2.8033    4.2544    4.7247 O   0  0  0  0  0  0  0  0  0  0  0  0
   -3.5700    4.6284    2.1066 N   0  0  0  0  0  0  0  0  0  0  0  0
   -3.6211    6.9212    2.4265 N   0  0  0  0  0  0  0  0  0  0  0  0
   -0.7415    1.5890    4.5348 N   0  0  0  0  0  4  0  0  0  0  0  0
   -0.4911    6.1236    1.2497 C   0  0  0  0  0  0  0  0  0  0  0  0
   -0.1834    6.8198    0.0881 C   0  0  0  0  0  0  0  0  0  0  0  0
    0.1599    8.1585    0.1579 C   0  0  0  0  0  0  0  0  0  0  0  0
    0.1943    8.8079    1.3806 C   0  0  0  0  0  0  0  0  0  0  0  0
   -0.0986    8.1127    2.5429 C   0  0  0  0  0  0  0  0  0  0  0  0
   -0.4348    6.7749    2.4775 C   0  0  0  0  0  0  0  0  0  0  0  0
   -0.3359    3.6015   -0.2067 C   0  0  0  0  0  0  0  0  0  0  0  0
    0.6480    2.6505    0.0529 C   0  0  0  0  0  0  0  0  0  0  0  0
    1.2348    1.9573   -0.9888 C   0  0  0  0  0  0  0  0  0  0  0  0
    0.8349    2.2050   -2.2928 C   0  0  0  0  0  0  0  0  0  0  0  0
   -0.1575    3.1360   -2.5527 C   0  0  0  0  0  0  0  0  0  0  0  0
   -0.7490    3.8333   -1.5138 C   0  0  0  0  0  0  0  0  0  0  0  0
   -2.8850    4.6656    0.8419 C   0  0  0  0  0  0  0  0  0  0  0  0
   -3.4401    5.7113    2.9362 C   0  0  0  0  0  0  0  0  0  0  0  0
   -3.1322    5.5229    4.3059 C   0  0  0  0  0  0  0  0  0  0  0  0
   -3.0946    6.6223    5.1340 C   0  0  0  0  0  0  0  0  0  0  0  0
   -3.3375    7.8819    4.5891 C   0  0  0  0  0  0  0  0  0  0  0  0
   -3.5707    7.9711    3.2321 C   0  0  0  0  0  0  0  0  0  0  0  0
   -1.9979    0.9575    4.9260 C   0  0  0  0  0  0  0  0  0  0  0  0
    0.1474    0.5810    3.9531 C   0  0  0  0  0  0  0  0  0  0  0  0
   -0.0931    2.2267    5.6899 C   0  0  0  0  0  0  0  0  0  0  0  0
    0.9392    3.2064    5.1931 C   0  0  0  0  0  0  0  0  0  0  0  0
    0.7133    3.7896    3.9383 C   0  0  0  0  0  0  0  0  0  0  0  0
    1.7130    4.6064    3.4210 C   0  0  0  0  0  0  0  0  0  0  0  0
    2.8574    4.8938    4.1508 C   0  0  0  0  0  0  0  0  0  0  0  0
    3.0357    4.3543    5.4118 C   0  0  0  0  0  0  0  0  0  0  0  0
    2.0804    3.4950    5.9261 C   0  0  0  0  0  0  0  0  0  0  0  0
   -0.2014    6.3149   -0.8668 H   0  0  0  0  0  0  0  0  0  0  0  0
    0.4000    8.6978   -0.7469 H   0  0  0  0  0  0  0  0  0  0  0  0
    0.4569    9.8544    1.4281 H   0  0  0  0  0  0  0  0  0  0  0  0
   -0.0630    8.6133    3.4992 H   0  0  0  0  0  0  0  0  0  0  0  0
   -0.6424    6.2118    3.3799 H   0  0  0  0  0  0  0  0  0  0  0  0
    0.9301    2.4529    1.0907 H   0  0  0  0  0  0  0  0  0  0  0  0
    1.9953    1.2167   -0.7885 H   0  0  0  0  0  0  0  0  0  0  0  0
    1.2875    1.6599   -3.1080 H   0  0  0  0  0  0  0  0  0  0  0  0
   -0.4793    3.3118   -3.5689 H   0  0  0  0  0  0  0  0  0  0  0  0
   -1.5424    4.5399   -1.7148 H   0  0  0  0  0  0  0  0  0  0  0  0
   -3.0484    5.6384    0.3716 H   0  0  0  0  0  0  0  0  0  0  0  0
   -3.2453    3.8501    0.2097 H   0  0  0  0  0  0  0  0  0  0  0  0
   -3.4386    3.7243    2.5711 H   0  0  0  0  0  0  0  0  0  0  0  0
   -2.5399    4.3023    5.6532 H   0  0  0  0  0  0  0  0  0  0  0  0
   -2.8440    6.5117    6.1821 H   0  0  0  0  0  0  0  0  0  0  0  0
   -3.3155    8.7622    5.2109 H   0  0  0  0  0  0  0  0  0  0  0  0
   -3.7241    8.9264    2.7492 H   0  0  0  0  0  0  0  0  0  0  0  0
   -2.6948    1.7113    5.2964 H   0  0  0  0  0  0  0  0  0  0  0  0
   -1.8316    0.2014    5.7062 H   0  0  0  0  0  0  0  0  0  0  0  0
   -2.4494    0.4795    4.0556 H   0  0  0  0  0  0  0  0  0  0  0  0
    0.2980   -0.2561    4.6512 H   0  0  0  0  0  0  0  0  0  0  0  0
    1.1214    1.0263    3.7266 H   0  0  0  0  0  0  0  0  0  0  0  0
   -0.2965    0.1941    3.0308 H   0  0  0  0  0  0  0  0  0  0  0  0
    0.3565    1.4663    6.3496 H   0  0  0  0  0  0  0  0  0  0  0  0
   -0.8604    2.7546    6.2706 H   0  0  0  0  0  0  0  0  0  0  0  0
    1.6083    5.0362    2.4304 H   0  0  0  0  0  0  0  0  0  0  0  0
    3.6135    5.5395    3.7267 H   0  0  0  0  0  0  0  0  0  0  0  0
    3.9230    4.5825    5.9843 H   0  0  0  0  0  0  0  0  0  0  0  0
    2.2260    3.0380    6.8963 H   0  0  0  0  0  0  0  0  0  0  0  0
  1  2  1  6  0  0  0
  1 30  1  0  0  0  0
  1  7  1  0  0  0  0
  3  8  1  0  0  0  0
  3  1  1  0  0  0  0
  4 48  1  0  0  0  0
  5 47  1  0  0  0  0
  5 21  1  0  0  0  0
  6 21  2  0  0  0  0
  6 25  1  0  0  0  0
  7 26  1  0  0  0  0
  7 28  1  0  0  0  0
  8 13  1  0  0  0  0
  9 10  1  0  0  0  0
  9  8  2  0  0  0  0
 10 11  2  0  0  0  0
 11 37  1  0  0  0  0
 11 12  1  0  0  0  0
 12 38  1  0  0  0  0
 13 12  2  0  0  0  0
 13 39  1  0  0  0  0
 14 15  1  0  0  0  0
 14  3  1  0  0  0  0
 15 40  1  0  0  0  0
 16 41  1  0  0  0  0
 16 15  2  0  0  0  0
 17 16  1  0  0  0  0
 18 17  2  0  0  0  0
 18 19  1  0  0  0  0
 19 14  2  0  0  0  0
 20  3  1  0  0  0  0
 20  5  1  0  0  0  0
 21 22  1  0  0  0  0
 22  4  1  0  0  0  0
 22 23  2  0  0  0  0
 23 49  1  0  0  0  0
 24 23  1  0  0  0  0
 24 50  1  0  0  0  0
 25 24  2  0  0  0  0
 26 52  1  0  0  0  0
 26 53  1  0  0  0  0
 27  7  1  0  0  0  0
 27 55  1  0  0  0  0
 28 59  1  0  0  0  0
 28 58  1  0  0  0  0
 29 28  1  0  0  0  0
 29 34  1  0  0  0  0
 30 29  2  0  0  0  0
 31 30  1  0  0  0  0
 31 32  2  0  0  0  0
 32 33  1  0  0  0  0
 33 34  2  0  0  0  0
 33 62  1  0  0  0  0
 34 63  1  0  0  0  0
 35  9  1  0  0  0  0
 36 10  1  0  0  0  0
 42 17  1  0  0  0  0
 43 18  1  0  0  0  0
 44 19  1  0  0  0  0
 45 20  1  0  0  0  0
 46 20  1  0  0  0  0
 51 25  1  0  0  0  0
 54 26  1  0  0  0  0
 56 27  1  0  0  0  0
 57 27  1  0  0  0  0
 60 31  1  0  0  0  0
 61 32  1  0  0  0  0
M  END
$$$$
