CSD_code = BOTZUI | q = 0 | S = 0 | Stoichiometry = C16H4AuClF10N2 | MND = 2
 OpenBabel04212202013D

 34 36  0  0  1  0  0  0  0  0999 V2000
    0.1818    8.2483    6.3263 Au  0  0  0  0  0  0  0  0  0  0  0  0
    0.2144   10.3682    5.6429 Cl  0  0  0  0  0  0  0  0  0  0  0  0
    0.1918    5.9110    8.2141 N   0  0  0  0  0  0  0  0  0  0  0  0
    0.5307    5.2622    6.2041 N   0  0  0  0  0  0  0  0  0  0  0  0
    0.2386    6.3545    6.9489 C   0  0  2  0  0  3  0  0  0  0  0  0
    0.4573    4.5659    8.2717 C   0  0  0  0  0  0  0  0  0  0  0  0
    0.4653    4.0204    9.1925 H   0  0  0  0  0  0  0  0  0  0  0  0
    0.6795    4.1530    7.0056 C   0  0  0  0  0  0  0  0  0  0  0  0
    0.9172    3.1866    6.6131 H   0  0  0  0  0  0  0  0  0  0  0  0
    0.6872    5.2773    4.8108 C   0  0  0  0  0  0  0  0  0  0  0  0
    1.8626    4.8080    4.2227 C   0  0  0  0  0  0  0  0  0  0  0  0
    2.8291    4.3205    5.0023 F   0  0  0  0  0  0  0  0  0  0  0  0
    2.0376    4.8356    2.8432 C   0  0  0  0  0  0  0  0  0  0  0  0
    3.1634    4.3785    2.3045 F   0  0  0  0  0  0  0  0  0  0  0  0
    1.0267    5.3423    2.0287 C   0  0  0  0  0  0  0  0  0  0  0  0
    1.1868    5.3692    0.7115 F   0  0  0  0  0  0  0  0  0  0  0  0
   -0.1601    5.8014    2.5984 C   0  0  0  0  0  0  0  0  0  0  0  0
   -1.1379    6.2522    1.8227 F   0  0  0  0  0  0  0  0  0  0  0  0
   -0.3249    5.7614    3.9794 C   0  0  0  0  0  0  0  0  0  0  0  0
   -1.4812    6.1464    4.5149 F   0  0  0  0  0  0  0  0  0  0  0  0
   -0.0588    6.7427    9.3588 C   0  0  0  0  0  0  0  0  0  0  0  0
   -0.9277    6.3672    9.9088 H   0  0  0  0  0  0  0  0  0  0  0  0
   -0.2924    7.7466    8.9783 H   0  0  0  0  0  0  0  0  0  0  0  0
    1.1223    6.8246   10.2951 C   0  0  0  0  0  0  0  0  0  0  0  0
    2.4386    6.8737    9.8439 C   0  0  0  0  0  0  0  0  0  0  0  0
    2.6994    6.8105    8.5353 F   0  0  0  0  0  0  0  0  0  0  0  0
    3.5110    6.9705   10.7270 C   0  0  0  0  0  0  0  0  0  0  0  0
    4.7559    7.0003   10.2611 F   0  0  0  0  0  0  0  0  0  0  0  0
    3.2773    7.0330   12.0981 C   0  0  0  0  0  0  0  0  0  0  0  0
    4.2950    7.1256   12.9471 F   0  0  0  0  0  0  0  0  0  0  0  0
    1.9689    6.9903   12.5733 C   0  0  0  0  0  0  0  0  0  0  0  0
    1.7295    7.0403   13.8808 F   0  0  0  0  0  0  0  0  0  0  0  0
    0.9155    6.8849   11.6712 C   0  0  0  0  0  0  0  0  0  0  0  0
   -0.3343    6.8293   12.1402 F   0  0  0  0  0  0  0  0  0  0  0  0
  2  1  1  0  0  0  0
  3  6  1  0  0  0  0
  3 21  1  0  0  0  0
  4  5  1  0  0  0  0
  4  8  1  0  0  0  0
  5  1  1  1  0  0  0
  5  3  1  0  0  0  0
  6  7  1  0  0  0  0
  8  6  2  0  0  0  0
  9  8  1  0  0  0  0
 10  4  1  0  0  0  0
 11 10  1  0  0  0  0
 11 12  1  0  0  0  0
 13 11  2  0  0  0  0
 14 13  1  0  0  0  0
 15 17  2  0  0  0  0
 15 13  1  0  0  0  0
 16 15  1  0  0  0  0
 17 19  1  0  0  0  0
 18 17  1  0  0  0  0
 19 20  1  0  0  0  0
 19 10  2  0  0  0  0
 21 22  1  0  0  0  0
 21 24  1  0  0  0  0
 23 21  1  0  0  0  0
 24 33  1  0  0  0  0
 25 24  2  0  0  0  0
 25 27  1  0  0  0  0
 26 25  1  0  0  0  0
 27 29  2  0  0  0  0
 28 27  1  0  0  0  0
 29 31  1  0  0  0  0
 29 30  1  0  0  0  0
 31 32  1  0  0  0  0
 33 34  1  0  0  0  0
 33 31  2  0  0  0  0
M  END
$$$$
