CSD_code = BOWKII | q = 0 | S = 0 | Stoichiometry = C21H37BrClIrO10P2 | MND = 6
 OpenBabel04212202013D

 73 73  0  0  1  0  0  0  0  0999 V2000
    2.3403    8.0737    4.2278 Ir  0  0  0  0  0  0  0  0  0  0  0  0
    1.7266    6.3302    6.0377 Br  0  0  0  0  0  0  0  0  0  0  0  0
    0.8580    7.1383    2.6488 Cl  0  0  0  0  0  0  0  0  0  0  0  0
    0.3498    9.2010    4.7461 P   0  0  0  0  0  4  0  0  0  0  0  0
    4.0706    6.5572    3.6091 P   0  0  0  0  0  4  0  0  0  0  0  0
    3.4250    8.8284    5.5349 C   0  0  0  0  0  2  0  0  0  0  0  0
    4.0986    9.2280    6.3677 O   0  0  0  0  0  1  0  0  0  0  0  0
    0.4689   10.3442    6.1672 C   0  0  0  0  0  0  0  0  0  0  0  0
   -0.4954   10.8162    6.3514 H   0  0  0  0  0  0  0  0  0  0  0  0
    1.2174   11.1046    5.9504 H   0  0  0  0  0  0  0  0  0  0  0  0
    0.7707    9.7846    7.0515 H   0  0  0  0  0  0  0  0  0  0  0  0
   -1.0629    8.1483    5.2085 C   0  0  0  0  0  0  0  0  0  0  0  0
   -0.8349    7.6045    6.1236 H   0  0  0  0  0  0  0  0  0  0  0  0
   -1.2528    7.4304    4.4125 H   0  0  0  0  0  0  0  0  0  0  0  0
   -1.9388    8.7799    5.3583 H   0  0  0  0  0  0  0  0  0  0  0  0
   -0.3744   10.2633    3.4504 C   0  0  0  0  0  0  0  0  0  0  0  0
   -0.5880    9.6614    2.5691 H   0  0  0  0  0  0  0  0  0  0  0  0
    0.3163   11.0618    3.1897 H   0  0  0  0  0  0  0  0  0  0  0  0
   -1.3017   10.6944    3.8278 H   0  0  0  0  0  0  0  0  0  0  0  0
    3.3907    4.9760    3.0054 C   0  0  0  0  0  0  0  0  0  0  0  0
    2.7949    5.1530    2.1138 H   0  0  0  0  0  0  0  0  0  0  0  0
    2.7433    4.5574    3.7754 H   0  0  0  0  0  0  0  0  0  0  0  0
    4.2007    4.2801    2.7873 H   0  0  0  0  0  0  0  0  0  0  0  0
    5.4049    6.9238    2.4127 C   0  0  0  0  0  0  0  0  0  0  0  0
    6.0841    7.6426    2.8643 H   0  0  0  0  0  0  0  0  0  0  0  0
    4.9952    7.3553    1.5063 H   0  0  0  0  0  0  0  0  0  0  0  0
    5.9397    6.0005    2.1884 H   0  0  0  0  0  0  0  0  0  0  0  0
    5.0887    5.9935    5.0258 C   0  0  0  0  0  0  0  0  0  0  0  0
    5.7942    5.2375    4.6825 H   0  0  0  0  0  0  0  0  0  0  0  0
    4.4545    5.5691    5.8014 H   0  0  0  0  0  0  0  0  0  0  0  0
    5.6393    6.8366    5.4397 H   0  0  0  0  0  0  0  0  0  0  0  0
    2.9813    9.6012    2.9001 C   0  0  2  0  0  0  0  0  0  0  0  0
    2.5545   10.5603    3.2310 H   0  0  0  0  0  0  0  0  0  0  0  0
    2.6079    9.4696    1.4306 C   0  0  1  0  0  0  0  0  0  0  0  0
    1.5229    9.5826    1.3117 H   0  0  0  0  0  0  0  0  0  0  0  0
    3.2760   10.5887    0.6105 C   0  0  2  0  0  0  0  0  0  0  0  0
    3.1433   10.3879   -0.4615 H   0  0  0  0  0  0  0  0  0  0  0  0
    4.7801   10.6728    0.8967 C   0  0  1  0  0  0  0  0  0  0  0  0
    5.1897   11.5920    0.4562 H   0  0  0  0  0  0  0  0  0  0  0  0
    5.0826   10.6582    2.4065 C   0  0  2  0  0  0  0  0  0  0  0  0
    6.1427   10.4157    2.5503 H   0  0  0  0  0  0  0  0  0  0  0  0
    4.3912    9.6310    3.0808 O   0  0  0  0  0  0  0  0  0  0  0  0
    2.9854    8.2037    0.9077 O   0  0  0  0  0  0  0  0  0  0  0  0
    2.2921    7.7863   -0.1634 C   0  0  0  0  0  0  0  0  0  0  0  0
    1.4805    8.4658   -0.7318 O   0  0  0  0  0  0  0  0  0  0  0  0
    2.6570    6.3797   -0.5482 C   0  0  0  0  0  0  0  0  0  0  0  0
    1.9212    5.7150   -0.0974 H   0  0  0  0  0  0  0  0  0  0  0  0
    3.6465    6.1226   -0.1843 H   0  0  0  0  0  0  0  0  0  0  0  0
    2.5967    6.2709   -1.6274 H   0  0  0  0  0  0  0  0  0  0  0  0
    2.6167   11.8045    0.9372 O   0  0  0  0  0  0  0  0  0  0  0  0
    2.6876   12.8026    0.0319 C   0  0  0  0  0  0  0  0  0  0  0  0
    3.3329   12.7346   -0.9757 O   0  0  0  0  0  0  0  0  0  0  0  0
    1.8494   13.9701    0.4673 C   0  0  0  0  0  0  0  0  0  0  0  0
    0.8416   13.8300    0.0800 H   0  0  0  0  0  0  0  0  0  0  0  0
    2.2553   14.8877    0.0523 H   0  0  0  0  0  0  0  0  0  0  0  0
    1.8020   14.0201    1.5507 H   0  0  0  0  0  0  0  0  0  0  0  0
    5.3810    9.5576    0.2484 O   0  0  0  0  0  0  0  0  0  0  0  0
    6.6954    9.6438   -0.0136 C   0  0  0  0  0  0  0  0  0  0  0  0
    7.3727   10.5865    0.2935 O   0  0  0  0  0  0  0  0  0  0  0  0
    7.1802    8.4065   -0.7166 C   0  0  0  0  0  0  0  0  0  0  0  0
    7.9731    8.6720   -1.4097 H   0  0  0  0  0  0  0  0  0  0  0  0
    6.3587    7.9242   -1.2363 H   0  0  0  0  0  0  0  0  0  0  0  0
    7.5867    7.7211    0.0249 H   0  0  0  0  0  0  0  0  0  0  0  0
    4.8401   12.0566    3.0080 C   0  0  0  0  0  0  0  0  0  0  0  0
    5.4780   12.7795    2.4945 H   0  0  0  0  0  0  0  0  0  0  0  0
    3.7897   12.3459    2.9163 H   0  0  0  0  0  0  0  0  0  0  0  0
    5.2131   12.0843    4.3777 O   0  0  0  0  0  0  0  0  0  0  0  0
    4.2433   12.0756    5.2957 C   0  0  0  0  0  0  0  0  0  0  0  0
    3.0658   12.0527    5.0333 O   0  0  0  0  0  0  0  0  0  0  0  0
    4.8172   12.1518    6.6811 C   0  0  0  0  0  0  0  0  0  0  0  0
    5.0535   13.1921    6.8993 H   0  0  0  0  0  0  0  0  0  0  0  0
    5.7323   11.5711    6.7377 H   0  0  0  0  0  0  0  0  0  0  0  0
    4.0906   11.7946    7.4044 H   0  0  0  0  0  0  0  0  0  0  0  0
  1  4  1  0  0  0  0
  1  6  1  0  0  0  0
  1  2  1  0  0  0  0
  3  1  1  0  0  0  0
  4 12  1  0  0  0  0
  4  8  1  0  0  0  0
  5  1  1  0  0  0  0
  5 28  1  0  0  0  0
  6  7  1  0  0  0  0
  8  9  1  0  0  0  0
  8 11  1  0  0  0  0
 10  8  1  0  0  0  0
 12 15  1  0  0  0  0
 12 13  1  0  0  0  0
 14 12  1  0  0  0  0
 16 19  1  0  0  0  0
 16  4  1  0  0  0  0
 17 16  1  0  0  0  0
 18 16  1  0  0  0  0
 20  5  1  0  0  0  0
 20 22  1  0  0  0  0
 21 20  1  0  0  0  0
 23 20  1  0  0  0  0
 24 25  1  0  0  0  0
 24  5  1  0  0  0  0
 26 24  1  0  0  0  0
 27 24  1  0  0  0  0
 28 31  1  0  0  0  0
 28 30  1  0  0  0  0
 29 28  1  0  0  0  0
 32 42  1  0  0  0  0
 32 33  1  1  0  0  0
 32  1  1  0  0  0  0
 34 35  1  6  0  0  0
 34 32  1  0  0  0  0
 36 37  1  6  0  0  0
 36 38  1  0  0  0  0
 36 50  1  0  0  0  0
 36 34  1  0  0  0  0
 38 39  1  6  0  0  0
 38 40  1  0  0  0  0
 40 41  1  1  0  0  0
 40 64  1  0  0  0  0
 40 42  1  0  0  0  0
 43 34  1  0  0  0  0
 44 43  1  0  0  0  0
 45 44  2  0  0  0  0
 46 48  1  0  0  0  0
 46 44  1  0  0  0  0
 46 47  1  0  0  0  0
 49 46  1  0  0  0  0
 51 53  1  0  0  0  0
 51 50  1  0  0  0  0
 52 51  2  0  0  0  0
 53 56  1  0  0  0  0
 54 53  1  0  0  0  0
 55 53  1  0  0  0  0
 57 38  1  0  0  0  0
 58 57  1  0  0  0  0
 58 59  2  0  0  0  0
 60 58  1  0  0  0  0
 60 63  1  0  0  0  0
 61 60  1  0  0  0  0
 62 60  1  0  0  0  0
 64 67  1  0  0  0  0
 65 64  1  0  0  0  0
 66 64  1  0  0  0  0
 67 68  1  0  0  0  0
 68 70  1  0  0  0  0
 69 68  2  0  0  0  0
 70 72  1  0  0  0  0
 70 71  1  0  0  0  0
 70 73  1  0  0  0  0
M  END
$$$$
