CSD_code = BOWNOR | q = 0 | S = 0 | Stoichiometry = C32H38Cl2Zr | MND = 12
 OpenBabel04212202013D

 73 77  0  0  1  0  0  0  0  0999 V2000
   -0.3141    2.9141    5.5006 Zr  0  0  0  0  0  0  0  0  0  0  0  0
   -2.3858    1.9242    5.1583 Cl  0  0  0  0  0  0  0  0  0  0  0  0
   -1.0966    4.8920    6.4461 Cl  0  0  0  0  0  0  0  0  0  0  0  0
    1.7139    2.0908    6.4916 C   0  0  0  0  0  0  0  0  0  0  0  0
    1.2610    3.0157    7.5045 C   0  0  2  0  0  3  0  0  0  0  0  0
    1.7793    4.2089    8.0585 C   0  0  0  0  0  0  0  0  0  0  0  0
    2.7215    4.6213    7.7380 H   0  0  0  0  0  0  0  0  0  0  0  0
    1.1076    4.8467    9.0747 C   0  0  0  0  0  0  0  0  0  0  0  0
    1.5199    5.7579    9.4824 H   0  0  0  0  0  0  0  0  0  0  0  0
   -0.0871    4.3495    9.6073 C   0  0  0  0  0  0  0  0  0  0  0  0
   -0.5803    4.8866   10.4024 H   0  0  0  0  0  0  0  0  0  0  0  0
   -0.6156    3.1741    9.1297 C   0  0  0  0  0  0  0  0  0  0  0  0
   -1.5229    2.7611    9.5496 H   0  0  0  0  0  0  0  0  0  0  0  0
    0.0410    2.5037    8.0929 C   0  0  0  0  0  0  0  0  0  0  0  0
   -0.2654    1.2540    7.4600 C   0  0  0  0  0  0  0  0  0  0  0  0
   -1.3071    0.3473    7.6897 C   0  0  0  0  0  0  0  0  0  0  0  0
   -2.0578    0.5650    8.4375 H   0  0  0  0  0  0  0  0  0  0  0  0
   -1.3560   -0.8157    6.9588 C   0  0  0  0  0  0  0  0  0  0  0  0
   -2.1554   -1.5233    7.1128 H   0  0  0  0  0  0  0  0  0  0  0  0
   -0.3539   -1.0993    6.0226 C   0  0  0  0  0  0  0  0  0  0  0  0
   -0.3976   -2.0327    5.4804 H   0  0  0  0  0  0  0  0  0  0  0  0
    0.6937   -0.2397    5.7872 C   0  0  0  0  0  0  0  0  0  0  0  0
    1.4736   -0.5580    5.1134 H   0  0  0  0  0  0  0  0  0  0  0  0
    0.7778    0.9871    6.4897 C   0  0  0  0  0  0  0  0  0  0  0  0
    2.7064    2.3745    5.3470 C   0  0  0  0  0  0  0  0  0  0  0  0
    3.5373    1.1376    4.9636 C   0  0  0  0  0  0  0  0  0  0  0  0
    2.9847    0.4368    4.3496 H   0  0  0  0  0  0  0  0  0  0  0  0
    3.8776    0.6264    5.8611 H   0  0  0  0  0  0  0  0  0  0  0  0
    4.4102    1.4424    4.3907 H   0  0  0  0  0  0  0  0  0  0  0  0
    3.7094    3.4915    5.6599 C   0  0  0  0  0  0  0  0  0  0  0  0
    4.3769    3.6184    4.8092 H   0  0  0  0  0  0  0  0  0  0  0  0
    4.3074    3.2257    6.5286 H   0  0  0  0  0  0  0  0  0  0  0  0
    3.2219    4.4440    5.8371 H   0  0  0  0  0  0  0  0  0  0  0  0
    1.7340    2.8132    4.2510 C   0  0  2  0  0  3  0  0  0  0  0  0
    1.1705    4.1225    4.1429 C   0  0  1  0  0  0  0  0  0  0  0  0
    1.6006    5.0326    4.5426 H   0  0  0  0  0  0  0  0  0  0  0  0
    0.0145    4.0528    3.3102 C   0  0  2  0  0  3  0  0  0  0  0  0
   -0.1492    2.6936    2.9471 C   0  0  0  0  0  0  0  0  0  0  0  0
   -0.8802    2.3012    2.2525 H   0  0  0  0  0  0  0  0  0  0  0  0
    0.8882    1.9371    3.5253 C   0  0  0  0  0  0  0  0  0  0  0  0
    1.0598    0.8921    3.3105 H   0  0  0  0  0  0  0  0  0  0  0  0
   -0.8787    5.1626    2.7899 C   0  0  2  0  0  0  0  0  0  0  0  0
   -2.3216    4.8523    3.2319 C   0  0  0  0  0  0  0  0  0  0  0  0
   -2.6426    3.8790    2.8606 H   0  0  0  0  0  0  0  0  0  0  0  0
   -3.0037    5.6050    2.8400 H   0  0  0  0  0  0  0  0  0  0  0  0
   -2.4006    4.8533    4.3213 H   0  0  0  0  0  0  0  0  0  0  0  0
   -0.8316    5.1952    1.2507 C   0  0  0  0  0  0  0  0  0  0  0  0
   -1.0561    4.2049    0.8518 H   0  0  0  0  0  0  0  0  0  0  0  0
   -1.6026    5.8804    0.8914 H   0  0  0  0  0  0  0  0  0  0  0  0
    0.5278    5.6586    0.7403 C   0  0  0  0  0  0  0  0  0  0  0  0
    0.5361    5.5875   -0.3473 H   0  0  0  0  0  0  0  0  0  0  0  0
    1.2963    4.9922    1.1343 H   0  0  0  0  0  0  0  0  0  0  0  0
    0.8015    7.0958    1.1919 C   0  0  1  0  0  0  0  0  0  0  0  0
   -0.0455    7.7146    0.8706 H   0  0  0  0  0  0  0  0  0  0  0  0
    0.8253    7.0962    2.7230 C   0  0  0  0  0  0  0  0  0  0  0  0
    0.9558    8.1098    3.1020 H   0  0  0  0  0  0  0  0  0  0  0  0
    1.6734    6.5008    3.0558 H   0  0  0  0  0  0  0  0  0  0  0  0
   -0.4772    6.5499    3.3134 C   0  0  0  0  0  0  0  0  0  0  0  0
   -0.4074    6.5202    4.4043 H   0  0  0  0  0  0  0  0  0  0  0  0
   -1.2808    7.2448    3.0573 H   0  0  0  0  0  0  0  0  0  0  0  0
    2.0694    7.7162    0.5464 C   0  0  0  0  0  0  0  0  0  0  0  0
    1.8352    7.9054   -0.9580 C   0  0  0  0  0  0  0  0  0  0  0  0
    2.6939    8.3965   -1.4108 H   0  0  0  0  0  0  0  0  0  0  0  0
    0.9577    8.5236   -1.1347 H   0  0  0  0  0  0  0  0  0  0  0  0
    1.6938    6.9542   -1.4634 H   0  0  0  0  0  0  0  0  0  0  0  0
    2.3449    9.1017    1.1458 C   0  0  0  0  0  0  0  0  0  0  0  0
    2.7129    9.0267    2.1651 H   0  0  0  0  0  0  0  0  0  0  0  0
    1.4430    9.7097    1.1429 H   0  0  0  0  0  0  0  0  0  0  0  0
    3.1018    9.6162    0.5575 H   0  0  0  0  0  0  0  0  0  0  0  0
    3.3109    6.8426    0.7432 C   0  0  0  0  0  0  0  0  0  0  0  0
    4.1842    7.3513    0.3400 H   0  0  0  0  0  0  0  0  0  0  0  0
    3.2074    5.8921    0.2274 H   0  0  0  0  0  0  0  0  0  0  0  0
    3.4924    6.6489    1.7970 H   0  0  0  0  0  0  0  0  0  0  0  0
  1  3  1  0  0  0  0
  2  1  1  0  0  0  0
  5  4  1  1  0  0  0
  5  6  1  0  0  0  0
  5 14  1  0  0  0  0
  6  8  2  0  0  0  0
  7  6  1  0  0  0  0
  8  9  1  0  0  0  0
  8 10  1  0  0  0  0
 10 11  1  0  0  0  0
 12 13  1  0  0  0  0
 12 10  2  0  0  0  0
 14 12  1  0  0  0  0
 15 16  1  0  0  0  0
 15 14  2  0  0  0  0
 16 17  1  0  0  0  0
 18 19  1  0  0  0  0
 18 16  2  0  0  0  0
 20 18  1  0  0  0  0
 21 20  1  0  0  0  0
 22 20  2  0  0  0  0
 22 24  1  0  0  0  0
 23 22  1  0  0  0  0
 24  4  2  0  0  0  0
 24 15  1  0  0  0  0
 25 30  1  0  0  0  0
 25  4  1  0  0  0  0
 26 25  1  0  0  0  0
 26 28  1  0  0  0  0
 27 26  1  0  0  0  0
 29 26  1  0  0  0  0
 30 33  1  0  0  0  0
 30 32  1  0  0  0  0
 31 30  1  0  0  0  0
 34 25  1  1  0  0  0
 35 34  1  0  0  0  0
 35 36  1  1  0  0  0
 35  1  1  0  0  0  0
 37 38  1  6  0  0  0
 37 35  1  0  0  0  0
 38 40  2  0  0  0  0
 39 38  1  0  0  0  0
 40 34  1  0  0  0  0
 41 40  1  0  0  0  0
 42 43  1  1  0  0  0
 42 37  1  0  0  0  0
 42 58  1  0  0  0  0
 43 46  1  0  0  0  0
 44 43  1  0  0  0  0
 45 43  1  0  0  0  0
 47 42  1  0  0  0  0
 48 47  1  0  0  0  0
 49 47  1  0  0  0  0
 50 52  1  0  0  0  0
 50 53  1  0  0  0  0
 50 47  1  0  0  0  0
 51 50  1  0  0  0  0
 53 54  1  6  0  0  0
 53 55  1  0  0  0  0
 55 57  1  0  0  0  0
 55 56  1  0  0  0  0
 55 58  1  0  0  0  0
 58 59  1  0  0  0  0
 60 58  1  0  0  0  0
 61 70  1  0  0  0  0
 61 66  1  0  0  0  0
 61 53  1  0  0  0  0
 62 61  1  0  0  0  0
 63 62  1  0  0  0  0
 64 62  1  0  0  0  0
 65 62  1  0  0  0  0
 66 67  1  0  0  0  0
 68 66  1  0  0  0  0
 69 66  1  0  0  0  0
 70 73  1  0  0  0  0
 71 70  1  0  0  0  0
 72 70  1  0  0  0  0
M  END
$$$$
