CSD_code = BOXKAB | q = 0 | S = 0 | Stoichiometry = C42H36Cl2HfN2 | MND = 12
 OpenBabel04212202013D

 83 92  0  0  1  0  0  0  0  0999 V2000
   -2.6000   11.6599    3.2316 Hf  0  0  0  0  0  0  0  0  0  0  0  0
   -4.2136   10.0094    3.0969 Cl  0  0  0  0  0  0  0  0  0  0  0  0
   -0.9778   14.4830    2.1058 N   0  0  0  0  0  0  0  0  0  0  0  0
   -1.1402   12.1770    1.1750 C   0  0  0  0  0  0  0  0  0  0  0  0
   -0.0888   11.9823    1.0331 H   0  0  0  0  0  0  0  0  0  0  0  0
   -1.7022   13.3735    1.6641 C   0  0  0  0  0  0  0  0  0  0  0  0
   -3.1328   13.2930    1.5854 C   0  0  1  0  0  0  0  0  0  0  0  0
   -3.8026   14.1361    1.6601 H   0  0  0  0  0  0  0  0  0  0  0  0
   -4.6345   11.5681    0.3457 C   0  0  0  0  0  0  0  0  0  0  0  0
   -5.5550   12.1244    0.4462 H   0  0  0  0  0  0  0  0  0  0  0  0
   -4.6022   10.3612   -0.3086 C   0  0  0  0  0  0  0  0  0  0  0  0
   -5.5116    9.9545   -0.7237 H   0  0  0  0  0  0  0  0  0  0  0  0
   -3.4086    9.6364   -0.4502 C   0  0  0  0  0  0  0  0  0  0  0  0
   -3.4339    8.6838   -0.9570 H   0  0  0  0  0  0  0  0  0  0  0  0
   -2.2158   10.1213    0.0276 C   0  0  0  0  0  0  0  0  0  0  0  0
   -1.2952    9.5720   -0.1058 H   0  0  0  0  0  0  0  0  0  0  0  0
   -2.2037   11.3667    0.6773 C   0  0  0  0  0  0  0  0  0  0  0  0
   -3.4387   12.0817    0.8750 C   0  0  0  0  0  0  0  0  0  0  0  0
    0.1854   14.4284    2.8485 C   0  0  0  0  0  0  0  0  0  0  0  0
    0.8332   13.3403    3.4207 C   0  0  0  0  0  0  0  0  0  0  0  0
    0.4573   12.3285    3.3188 H   0  0  0  0  0  0  0  0  0  0  0  0
    1.9824   13.5934    4.1436 C   0  0  0  0  0  0  0  0  0  0  0  0
    2.5176   12.7683    4.5890 H   0  0  0  0  0  0  0  0  0  0  0  0
    2.4700   14.8912    4.3103 C   0  0  0  0  0  0  0  0  0  0  0  0
    3.3736   15.0420    4.8820 H   0  0  0  0  0  0  0  0  0  0  0  0
    1.8160   15.9753    3.7674 C   0  0  0  0  0  0  0  0  0  0  0  0
    2.1879   16.9788    3.9093 H   0  0  0  0  0  0  0  0  0  0  0  0
    0.6569   15.7518    3.0272 C   0  0  0  0  0  0  0  0  0  0  0  0
   -0.2621   16.6063    2.3449 C   0  0  0  0  0  0  0  0  0  0  0  0
   -0.1948   18.0852    2.1525 C   0  0  0  0  0  0  0  0  0  0  0  0
    0.6663   18.3196    1.5176 H   0  0  0  0  0  0  0  0  0  0  0  0
   -0.0344   18.5880    3.1102 H   0  0  0  0  0  0  0  0  0  0  0  0
   -1.4786   18.5961    1.4940 C   0  0  0  0  0  0  0  0  0  0  0  0
   -1.3146   19.6020    1.1040 H   0  0  0  0  0  0  0  0  0  0  0  0
   -2.2759   18.6531    2.2375 H   0  0  0  0  0  0  0  0  0  0  0  0
   -1.9313   17.6656    0.3709 C   0  0  0  0  0  0  0  0  0  0  0  0
   -2.7754   18.1064   -0.1618 H   0  0  0  0  0  0  0  0  0  0  0  0
   -1.1137   17.5310   -0.3399 H   0  0  0  0  0  0  0  0  0  0  0  0
   -2.3382   16.3037    0.9406 C   0  0  0  0  0  0  0  0  0  0  0  0
   -3.2570   16.4184    1.5270 H   0  0  0  0  0  0  0  0  0  0  0  0
   -2.5380   15.5964    0.1324 H   0  0  0  0  0  0  0  0  0  0  0  0
   -1.2286   15.8130    1.8022 C   0  0  0  0  0  0  0  0  0  0  0  0
   -0.9864   10.0093    3.3670 Cl  0  0  0  0  0  0  0  0  0  0  0  0
   -4.2223   14.4829    4.3575 N   0  0  0  0  0  0  0  0  0  0  0  0
   -4.0599   12.1769    5.2881 C   0  0  0  0  0  0  0  0  0  0  0  0
   -5.1114   11.9822    5.4301 H   0  0  0  0  0  0  0  0  0  0  0  0
   -3.4979   13.3734    4.7991 C   0  0  0  0  0  0  0  0  0  0  0  0
   -2.0673   13.2929    4.8778 C   0  0  1  0  0  0  0  0  0  0  0  0
   -1.3976   14.1361    4.8032 H   0  0  0  0  0  0  0  0  0  0  0  0
   -0.5657   11.5681    6.1175 C   0  0  0  0  0  0  0  0  0  0  0  0
    0.3549   12.1243    6.0171 H   0  0  0  0  0  0  0  0  0  0  0  0
   -0.5980   10.3612    6.7719 C   0  0  0  0  0  0  0  0  0  0  0  0
    0.3114    9.9544    7.1870 H   0  0  0  0  0  0  0  0  0  0  0  0
   -1.7916    9.6364    6.9135 C   0  0  0  0  0  0  0  0  0  0  0  0
   -1.7663    8.6838    7.4203 H   0  0  0  0  0  0  0  0  0  0  0  0
   -2.9844   10.1213    6.4356 C   0  0  0  0  0  0  0  0  0  0  0  0
   -3.9050    9.5720    6.5691 H   0  0  0  0  0  0  0  0  0  0  0  0
   -2.9964   11.3666    5.7859 C   0  0  0  0  0  0  0  0  0  0  0  0
   -1.7614   12.0816    5.5882 C   0  0  0  0  0  0  0  0  0  0  0  0
   -5.3855   14.4284    3.6148 C   0  0  0  0  0  0  0  0  0  0  0  0
   -6.0334   13.3402    3.0425 C   0  0  0  0  0  0  0  0  0  0  0  0
   -5.6574   12.3285    3.1444 H   0  0  0  0  0  0  0  0  0  0  0  0
   -7.1825   13.5934    2.3197 C   0  0  0  0  0  0  0  0  0  0  0  0
   -7.7177   12.7683    1.8742 H   0  0  0  0  0  0  0  0  0  0  0  0
   -7.6702   14.8912    2.1530 C   0  0  0  0  0  0  0  0  0  0  0  0
   -8.5737   15.0420    1.5812 H   0  0  0  0  0  0  0  0  0  0  0  0
   -7.0162   15.9753    2.6959 C   0  0  0  0  0  0  0  0  0  0  0  0
   -7.3880   16.9788    2.5540 H   0  0  0  0  0  0  0  0  0  0  0  0
   -5.8570   15.7518    3.4360 C   0  0  0  0  0  0  0  0  0  0  0  0
   -4.9380   16.6062    4.1184 C   0  0  0  0  0  0  0  0  0  0  0  0
   -5.0053   18.0852    4.3108 C   0  0  0  0  0  0  0  0  0  0  0  0
   -5.8664   18.3196    4.9456 H   0  0  0  0  0  0  0  0  0  0  0  0
   -5.1657   18.5880    3.3530 H   0  0  0  0  0  0  0  0  0  0  0  0
   -3.7215   18.5960    4.9692 C   0  0  0  0  0  0  0  0  0  0  0  0
   -3.8855   19.6020    5.3593 H   0  0  0  0  0  0  0  0  0  0  0  0
   -2.9242   18.6530    4.2258 H   0  0  0  0  0  0  0  0  0  0  0  0
   -3.2688   17.6656    6.0923 C   0  0  0  0  0  0  0  0  0  0  0  0
   -2.4247   18.1063    6.6251 H   0  0  0  0  0  0  0  0  0  0  0  0
   -4.0864   17.5309    6.8032 H   0  0  0  0  0  0  0  0  0  0  0  0
   -2.8619   16.3037    5.5226 C   0  0  0  0  0  0  0  0  0  0  0  0
   -1.9431   16.4184    4.9362 H   0  0  0  0  0  0  0  0  0  0  0  0
   -2.6621   15.5963    6.3308 H   0  0  0  0  0  0  0  0  0  0  0  0
   -3.9715   15.8129    4.6610 C   0  0  0  0  0  0  0  0  0  0  0  0
  1 43  1  0  0  0  0
  1 48  1  0  0  0  0
  2  1  1  0  0  0  0
  3 19  1  0  0  0  0
  4  6  2  0  0  0  0
  5  4  1  0  0  0  0
  6  3  1  0  0  0  0
  7  8  1  1  0  0  0
  7  6  1  0  0  0  0
  7  1  1  0  0  0  0
  9 10  1  0  0  0  0
  9 18  1  0  0  0  0
 11  9  2  0  0  0  0
 12 11  1  0  0  0  0
 13 11  1  0  0  0  0
 13 15  2  0  0  0  0
 14 13  1  0  0  0  0
 15 17  1  0  0  0  0
 16 15  1  0  0  0  0
 17 18  2  0  0  0  0
 17  4  1  0  0  0  0
 18  7  1  0  0  0  0
 19 28  2  0  0  0  0
 19 20  1  0  0  0  0
 20 22  2  0  0  0  0
 21 20  1  0  0  0  0
 22 24  1  0  0  0  0
 22 23  1  0  0  0  0
 24 25  1  0  0  0  0
 26 27  1  0  0  0  0
 26 24  2  0  0  0  0
 28 26  1  0  0  0  0
 29 28  1  0  0  0  0
 30 29  1  0  0  0  0
 30 32  1  0  0  0  0
 31 30  1  0  0  0  0
 33 30  1  0  0  0  0
 33 35  1  0  0  0  0
 34 33  1  0  0  0  0
 36 39  1  0  0  0  0
 36 33  1  0  0  0  0
 37 36  1  0  0  0  0
 38 36  1  0  0  0  0
 39 40  1  0  0  0  0
 39 42  1  0  0  0  0
 41 39  1  0  0  0  0
 42  3  1  0  0  0  0
 42 29  2  0  0  0  0
 44 83  1  0  0  0  0
 44 47  1  0  0  0  0
 45 46  1  0  0  0  0
 45 58  1  0  0  0  0
 47 48  1  0  0  0  0
 47 45  2  0  0  0  0
 48 49  1  6  0  0  0
 48 59  1  0  0  0  0
 50 52  1  0  0  0  0
 51 50  1  0  0  0  0
 52 54  2  0  0  0  0
 52 53  1  0  0  0  0
 54 55  1  0  0  0  0
 56 57  1  0  0  0  0
 56 54  1  0  0  0  0
 58 56  2  0  0  0  0
 59 58  1  0  0  0  0
 59 50  2  0  0  0  0
 60 44  1  0  0  0  0
 61 62  1  0  0  0  0
 61 60  2  0  0  0  0
 63 61  1  0  0  0  0
 64 63  1  0  0  0  0
 65 63  2  0  0  0  0
 65 67  1  0  0  0  0
 66 65  1  0  0  0  0
 67 69  2  0  0  0  0
 68 67  1  0  0  0  0
 69 60  1  0  0  0  0
 69 70  1  0  0  0  0
 70 71  1  0  0  0  0
 70 83  2  0  0  0  0
 71 72  1  0  0  0  0
 71 74  1  0  0  0  0
 73 71  1  0  0  0  0
 74 75  1  0  0  0  0
 74 77  1  0  0  0  0
 76 74  1  0  0  0  0
 77 78  1  0  0  0  0
 77 79  1  0  0  0  0
 80 77  1  0  0  0  0
 80 82  1  0  0  0  0
 81 80  1  0  0  0  0
 83 80  1  0  0  0  0
M  END
$$$$
