CSD_code = BOXMEH | q = 1 | S = 0 | Stoichiometry = C16H16ClN8Pd(1+) | MND = 4
 OpenBabel04212202013D

 42 46  0  0  1  0  0  0  0  0999 V2000
    5.2293    3.8091    7.3251 Pd  0  0  1  0  0  0  0  0  0  0  0  0
    6.4875    1.9499    7.2669 Cl  0  0  0  0  0  0  0  0  0  0  0  0
    3.0570    6.1571    7.2518 N   0  0  0  0  0  0  0  0  0  0  0  0
    5.1456    6.6007    7.0376 N   0  0  0  0  0  0  0  0  0  0  0  0
    3.0870    1.7941    6.7280 N   0  0  0  0  0  0  0  0  0  0  0  0
    3.5769    1.9306    8.8202 N   0  0  0  0  0  0  0  0  0  0  0  0
    6.8410    5.0540    7.0430 N   0  0  0  0  0  0  0  0  0  0  0  0
    7.3331    7.3571    6.7913 N   0  0  0  0  0  0  0  0  0  0  0  0
    5.0338    3.3699    9.9218 N   0  0  0  0  0  0  0  0  0  0  0  0
    4.0413    1.5344   11.0454 N   0  0  0  0  0  0  0  0  0  0  0  0
    4.2588    5.5769    7.2121 C   0  0  0  0  0  0  0  0  0  0  0  0
    3.7945    2.5037    7.6076 C   0  0  1  0  0  3  0  0  0  0  0  0
    1.8003    5.4796    7.4208 C   0  0  0  0  0  0  0  0  0  0  0  0
    1.9957    4.4289    7.6378 H   0  0  0  0  0  0  0  0  0  0  0  0
    1.2015    5.5605    6.5121 H   0  0  0  0  0  0  0  0  0  0  0  0
    1.2439    5.9235    8.2470 H   0  0  0  0  0  0  0  0  0  0  0  0
    3.1765    7.5221    7.1035 C   0  0  0  0  0  0  0  0  0  0  0  0
    2.3239    8.1695    7.1043 H   0  0  0  0  0  0  0  0  0  0  0  0
    4.4895    7.8074    6.9684 C   0  0  0  0  0  0  0  0  0  0  0  0
    5.0125    8.7306    6.8325 H   0  0  0  0  0  0  0  0  0  0  0  0
    6.5036    6.3492    6.9517 C   0  0  1  0  0  3  0  0  0  0  0  0
    8.1381    4.7628    6.9685 C   0  0  0  0  0  0  0  0  0  0  0  0
    8.4032    3.7129    7.0402 H   0  0  0  0  0  0  0  0  0  0  0  0
    9.0861    5.7624    6.8006 C   0  0  0  0  0  0  0  0  0  0  0  0
   10.1345    5.5272    6.7386 H   0  0  0  0  0  0  0  0  0  0  0  0
    8.6238    7.0691    6.7136 C   0  0  0  0  0  0  0  0  0  0  0  0
    9.2840    7.9136    6.5793 H   0  0  0  0  0  0  0  0  0  0  0  0
    3.0961    2.0245    5.3068 C   0  0  0  0  0  0  0  0  0  0  0  0
    3.7873    2.8550    5.0978 H   0  0  0  0  0  0  0  0  0  0  0  0
    2.0954    2.2722    4.9501 H   0  0  0  0  0  0  0  0  0  0  0  0
    3.4480    1.1327    4.7871 H   0  0  0  0  0  0  0  0  0  0  0  0
    2.4160    0.7772    7.3703 C   0  0  0  0  0  0  0  0  0  0  0  0
    1.7902    0.0859    6.8443 H   0  0  0  0  0  0  0  0  0  0  0  0
    2.7226    0.8569    8.6826 C   0  0  0  0  0  0  0  0  0  0  0  0
    2.4322    0.2623    9.5230 H   0  0  0  0  0  0  0  0  0  0  0  0
    4.2449    2.2943    9.9863 C   0  0  0  0  0  0  0  0  0  0  0  0
    5.7171    3.6571   11.0240 C   0  0  0  0  0  0  0  0  0  0  0  0
    6.3608    4.5259   10.9714 H   0  0  0  0  0  0  0  0  0  0  0  0
    5.6108    2.8958   12.1792 C   0  0  0  0  0  0  0  0  0  0  0  0
    6.1810    3.1273   13.0621 H   0  0  0  0  0  0  0  0  0  0  0  0
    4.7223    1.8298   12.1398 C   0  0  0  0  0  0  0  0  0  0  0  0
    4.5432    1.1897   12.9920 H   0  0  0  0  0  0  0  0  0  0  0  0
  1  2  1  6  0  0  0
  1 12  1  0  0  0  0
  3 13  1  0  0  0  0
  4 11  1  0  0  0  0
  5 32  1  0  0  0  0
  6 36  1  0  0  0  0
  7  1  1  0  0  0  0
  9 36  2  0  0  0  0
  9 37  1  0  0  0  0
 10 41  2  0  0  0  0
 11  3  1  0  0  0  0
 11  1  2  0  0  0  0
 12  5  1  6  0  0  0
 12  6  1  0  0  0  0
 13 14  1  0  0  0  0
 13 16  1  0  0  0  0
 15 13  1  0  0  0  0
 17 18  1  0  0  0  0
 17  3  1  0  0  0  0
 19  4  1  0  0  0  0
 19 17  2  0  0  0  0
 20 19  1  0  0  0  0
 21  8  1  6  0  0  0
 21  4  1  0  0  0  0
 21  7  1  0  0  0  0
 22 23  1  0  0  0  0
 22  7  1  0  0  0  0
 24 22  2  0  0  0  0
 25 24  1  0  0  0  0
 26  8  2  0  0  0  0
 26 24  1  0  0  0  0
 27 26  1  0  0  0  0
 28  5  1  0  0  0  0
 29 28  1  0  0  0  0
 30 28  1  0  0  0  0
 31 28  1  0  0  0  0
 32 34  2  0  0  0  0
 33 32  1  0  0  0  0
 34  6  1  0  0  0  0
 34 35  1  0  0  0  0
 36 10  1  0  0  0  0
 37 39  2  0  0  0  0
 38 37  1  0  0  0  0
 39 40  1  0  0  0  0
 41 39  1  0  0  0  0
 41 42  1  0  0  0  0
M  END
$$$$
