CSD_code = BOXMAD | q = 0 | S = 0 | Stoichiometry = C17H25Br2N3Ni | MND = 4
 OpenBabel04212202013D

 48 50  0  0  1  0  0  0  0  0999 V2000
    8.7990   -3.5125   16.2826 Ni  0  0  0  0  0  0  0  0  0  0  0  0
   10.1006   -3.1261   18.0942 Br  0  0  0  0  0  0  0  0  0  0  0  0
   10.4439   -3.6228   14.8620 Br  0  0  0  0  0  0  0  0  0  0  0  0
    8.1050   -5.6933   16.2332 N   0  0  0  0  0  0  0  0  0  0  0  0
    6.5151   -4.0990   18.0003 N   0  0  2  0  0  0  0  0  0  0  0  0
    7.1057   -3.2444   17.1578 N   0  0  0  0  0  0  0  0  0  0  0  0
    8.4119   -6.5194   15.2405 C   0  0  0  0  0  3  0  0  0  0  0  0
    8.8135   -6.0647   14.3444 H   0  0  0  0  0  0  0  0  0  0  0  0
    8.2507   -7.8915   15.3290 C   0  0  0  0  0  0  0  0  0  0  0  0
    8.5188   -8.5228   14.4976 H   0  0  0  0  0  0  0  0  0  0  0  0
    7.7524   -8.4236   16.5064 C   0  0  0  0  0  0  0  0  0  0  0  0
    7.6215   -9.4890   16.6213 H   0  0  0  0  0  0  0  0  0  0  0  0
    7.4221   -7.5616   17.5387 C   0  0  0  0  0  0  0  0  0  0  0  0
    7.0375   -7.9438   18.4720 H   0  0  0  0  0  0  0  0  0  0  0  0
    7.6071   -6.1969   17.3643 C   0  0  0  0  0  0  0  0  0  0  0  0
    7.2922   -5.2190   18.4735 C   0  0  0  0  0  0  0  0  0  0  0  0
    6.7772   -5.7208   19.2873 H   0  0  0  0  0  0  0  0  0  0  0  0
    8.2463   -4.8222   18.8546 H   0  0  0  0  0  0  0  0  0  0  0  0
    4.0284   -5.9014   18.6305 C   0  0  0  0  0  0  0  0  0  0  0  0
    3.7476   -5.9110   17.5790 H   0  0  0  0  0  0  0  0  0  0  0  0
    3.2237   -6.3585   19.2017 H   0  0  0  0  0  0  0  0  0  0  0  0
    4.9140   -6.5169   18.7501 H   0  0  0  0  0  0  0  0  0  0  0  0
    2.8879   -3.7372   19.0233 C   0  0  0  0  0  0  0  0  0  0  0  0
    2.9727   -2.7105   19.3694 H   0  0  0  0  0  0  0  0  0  0  0  0
    2.1636   -4.2475   19.6537 H   0  0  0  0  0  0  0  0  0  0  0  0
    2.5101   -3.7376   18.0039 H   0  0  0  0  0  0  0  0  0  0  0  0
    4.6976   -4.4169   20.5732 C   0  0  0  0  0  0  0  0  0  0  0  0
    5.6192   -4.9652   20.7437 H   0  0  0  0  0  0  0  0  0  0  0  0
    3.9273   -4.8510   21.2065 H   0  0  0  0  0  0  0  0  0  0  0  0
    4.8573   -3.3872   20.8848 H   0  0  0  0  0  0  0  0  0  0  0  0
    4.2408   -4.4570   19.1075 C   0  0  0  0  0  0  0  0  0  0  0  0
    5.2292   -3.7420   18.2230 C   0  0  1  0  0  3  0  0  0  0  0  0
    5.0171   -2.5945   17.4772 C   0  0  0  0  0  0  0  0  0  0  0  0
    4.1159   -2.0246   17.4126 H   0  0  0  0  0  0  0  0  0  0  0  0
    6.2173   -2.3167   16.8199 C   0  0  0  0  0  0  0  0  0  0  0  0
    6.5436   -1.2304   15.8311 C   0  0  0  0  0  0  0  0  0  0  0  0
    7.8324   -0.5167   16.2564 C   0  0  0  0  0  0  0  0  0  0  0  0
    7.7431   -0.1191   17.2651 H   0  0  0  0  0  0  0  0  0  0  0  0
    8.0550    0.3002   15.5741 H   0  0  0  0  0  0  0  0  0  0  0  0
    8.6865   -1.2105   16.2334 H   0  0  0  0  0  0  0  0  0  0  0  0
    6.7616   -1.8961   14.4646 C   0  0  0  0  0  0  0  0  0  0  0  0
    7.5728   -2.6346   14.5269 H   0  0  0  0  0  0  0  0  0  0  0  0
    7.0380   -1.1554   13.7180 H   0  0  0  0  0  0  0  0  0  0  0  0
    5.8613   -2.4116   14.1331 H   0  0  0  0  0  0  0  0  0  0  0  0
    5.4003   -0.2193   15.7399 C   0  0  0  0  0  0  0  0  0  0  0  0
    4.4843   -0.6969   15.3991 H   0  0  0  0  0  0  0  0  0  0  0  0
    5.6588    0.5642   15.0315 H   0  0  0  0  0  0  0  0  0  0  0  0
    5.2184    0.2409   16.7085 H   0  0  0  0  0  0  0  0  0  0  0  0
  1  6  1  0  0  0  0
  1  2  1  0  0  0  0
  3  1  1  0  0  0  0
  4  1  1  0  0  0  0
  4 15  1  0  0  0  0
  5  6  1  6  0  0  0
  5 32  1  0  0  0  0
  5 16  1  0  0  0  0
  7  9  1  0  0  0  0
  7  4  1  0  0  0  0
  8  7  1  0  0  0  0
  9 11  2  0  0  0  0
 10  9  1  0  0  0  0
 11 12  1  0  0  0  0
 11 13  1  0  0  0  0
 13 14  1  0  0  0  0
 15 13  2  0  0  0  0
 15 16  1  0  0  0  0
 16 18  1  0  0  0  0
 16 17  1  0  0  0  0
 19 22  1  0  0  0  0
 19 31  1  0  0  0  0
 19 21  1  0  0  0  0
 20 19  1  0  0  0  0
 23 31  1  0  0  0  0
 23 24  1  0  0  0  0
 23 25  1  0  0  0  0
 26 23  1  0  0  0  0
 27 28  1  0  0  0  0
 27 30  1  0  0  0  0
 27 29  1  0  0  0  0
 31 27  1  0  0  0  0
 32 31  1  1  0  0  0
 33 32  1  0  0  0  0
 34 33  1  0  0  0  0
 35  6  1  0  0  0  0
 35 33  2  0  0  0  0
 36 37  1  0  0  0  0
 36 35  1  0  0  0  0
 37 38  1  0  0  0  0
 39 37  1  0  0  0  0
 40 37  1  0  0  0  0
 41 42  1  0  0  0  0
 41 36  1  0  0  0  0
 43 41  1  0  0  0  0
 44 41  1  0  0  0  0
 45 36  1  0  0  0  0
 45 48  1  0  0  0  0
 46 45  1  0  0  0  0
 47 45  1  0  0  0  0
M  END
$$$$
