CSD_code = BOXWOB | q = 0 | S = 0 | Stoichiometry = C31H42ClN2Rh | MND = 6
 OpenBabel04212202013D

 77 79  0  0  1  0  0  0  0  0999 V2000
    0.9467    3.3487   -3.8310 C   0  0  0  0  0  3  0  0  0  0  0  0
   -1.1542    4.4315   -2.9580 C   0  0  0  0  0  0  0  0  0  0  0  0
   -1.0368    5.5213   -2.8982 H   0  0  0  0  0  0  0  0  0  0  0  0
   -1.7412    4.1275   -2.0880 H   0  0  0  0  0  0  0  0  0  0  0  0
   -1.8849    4.0226   -4.2311 C   0  0  0  0  0  0  0  0  0  0  0  0
   -2.9604    4.1425   -4.0942 H   0  0  0  0  0  0  0  0  0  0  0  0
   -1.6858    2.9634   -4.4091 H   0  0  0  0  0  0  0  0  0  0  0  0
   -1.4282    4.8448   -5.4346 C   0  0  0  0  0  0  0  0  0  0  0  0
   -1.7025    4.3211   -6.3495 H   0  0  0  0  0  0  0  0  0  0  0  0
   -1.9274    5.8172   -5.4423 H   0  0  0  0  0  0  0  0  0  0  0  0
    0.0805    5.0893   -5.3951 C   0  0  0  0  0  0  0  0  0  0  0  0
    0.4227    5.4287   -6.3760 H   0  0  0  0  0  0  0  0  0  0  0  0
    0.3057    5.8882   -4.6776 H   0  0  0  0  0  0  0  0  0  0  0  0
    1.8652    3.5366   -6.0087 C   0  0  0  0  0  0  0  0  0  0  0  0
    1.5639    2.7094   -7.0988 C   0  0  0  0  0  0  0  0  0  0  0  0
    2.5937    2.3431   -7.9557 C   0  0  0  0  0  0  0  0  0  0  0  0
    2.3734    1.6748   -8.7765 H   0  0  0  0  0  0  0  0  0  0  0  0
    3.8863    2.8214   -7.8046 C   0  0  0  0  0  0  0  0  0  0  0  0
    4.1273    3.7507   -6.8050 C   0  0  0  0  0  0  0  0  0  0  0  0
    5.1081    4.1971   -6.7166 H   0  0  0  0  0  0  0  0  0  0  0  0
    3.1314    4.1318   -5.9188 C   0  0  0  0  0  0  0  0  0  0  0  0
    0.1641    2.2953   -7.4232 C   0  0  0  0  0  0  0  0  0  0  0  0
   -0.3847    2.0199   -6.5273 H   0  0  0  0  0  0  0  0  0  0  0  0
    0.1648    1.4486   -8.1046 H   0  0  0  0  0  0  0  0  0  0  0  0
   -0.3533    3.1228   -7.9107 H   0  0  0  0  0  0  0  0  0  0  0  0
    4.9761    2.3716   -8.7302 C   0  0  0  0  0  0  0  0  0  0  0  0
    5.8889    2.9380   -8.5631 H   0  0  0  0  0  0  0  0  0  0  0  0
    4.6723    2.4947   -9.7686 H   0  0  0  0  0  0  0  0  0  0  0  0
    5.1924    1.3151   -8.5719 H   0  0  0  0  0  0  0  0  0  0  0  0
    3.4000    5.2279   -4.9283 C   0  0  0  0  0  0  0  0  0  0  0  0
    2.9677    6.1619   -5.2908 H   0  0  0  0  0  0  0  0  0  0  0  0
    4.4691    5.3823   -4.8028 H   0  0  0  0  0  0  0  0  0  0  0  0
    2.9581    5.0016   -3.9626 H   0  0  0  0  0  0  0  0  0  0  0  0
    0.5016    3.4454   -1.4850 C   0  0  0  0  0  0  0  0  0  0  0  0
    1.3846    4.3112   -0.8310 C   0  0  0  0  0  0  0  0  0  0  0  0
    1.7777    4.0331    0.4709 C   0  0  0  0  0  0  0  0  0  0  0  0
    2.4721    4.7016    0.9606 H   0  0  0  0  0  0  0  0  0  0  0  0
    1.2984    2.9251    1.1500 C   0  0  0  0  0  0  0  0  0  0  0  0
    0.3694    2.1201    0.5105 C   0  0  0  0  0  0  0  0  0  0  0  0
   -0.0465    1.2735    1.0389 H   0  0  0  0  0  0  0  0  0  0  0  0
   -0.0569    2.3668   -0.7883 C   0  0  0  0  0  0  0  0  0  0  0  0
    1.9203    5.5571   -1.4767 C   0  0  0  0  0  0  0  0  0  0  0  0
    1.7533    6.4111   -0.8212 H   0  0  0  0  0  0  0  0  0  0  0  0
    1.4397    5.7555   -2.4297 H   0  0  0  0  0  0  0  0  0  0  0  0
    2.9950    5.4721   -1.6385 H   0  0  0  0  0  0  0  0  0  0  0  0
    1.7713    2.6091    2.5362 C   0  0  0  0  0  0  0  0  0  0  0  0
    1.0270    2.0311    3.0787 H   0  0  0  0  0  0  0  0  0  0  0  0
    1.9855    3.5202    3.0906 H   0  0  0  0  0  0  0  0  0  0  0  0
    2.6885    2.0209    2.4895 H   0  0  0  0  0  0  0  0  0  0  0  0
   -1.1332    1.5051   -1.3660 C   0  0  0  0  0  0  0  0  0  0  0  0
   -1.1638    0.5448   -0.8575 H   0  0  0  0  0  0  0  0  0  0  0  0
   -0.9803    1.3352   -2.4278 H   0  0  0  0  0  0  0  0  0  0  0  0
   -2.1059    1.9826   -1.2382 H   0  0  0  0  0  0  0  0  0  0  0  0
    3.3485    1.9067   -2.2997 C   0  0  2  0  0  0  0  0  0  0  0  0
    3.1475    2.8181   -1.7422 H   0  0  0  0  0  0  0  0  0  0  0  0
    3.9478    2.0451   -3.5499 C   0  0  0  0  0  3  0  0  0  0  0  0
    4.1471    3.0565   -3.8809 H   0  0  0  0  0  0  0  0  0  0  0  0
    4.8761    1.0219   -4.1702 C   0  0  0  0  0  0  0  0  0  0  0  0
    5.4188    0.5002   -3.3800 H   0  0  0  0  0  0  0  0  0  0  0  0
    5.6173    1.5439   -4.7797 H   0  0  0  0  0  0  0  0  0  0  0  0
    4.1247    0.0224   -5.0649 C   0  0  0  0  0  0  0  0  0  0  0  0
    4.0673    0.4332   -6.0765 H   0  0  0  0  0  0  0  0  0  0  0  0
    4.6747   -0.9240   -5.1247 H   0  0  0  0  0  0  0  0  0  0  0  0
    2.7156   -0.2457   -4.5957 C   0  0  0  0  0  3  0  0  0  0  0  0
    2.0465   -0.5660   -5.3960 H   0  0  0  0  0  0  0  0  0  0  0  0
    2.3417   -0.5136   -3.2955 C   0  0  0  0  0  3  0  0  0  0  0  0
    1.3811   -1.0029   -3.1349 H   0  0  0  0  0  0  0  0  0  0  0  0
    3.3081   -0.6361   -2.1414 C   0  0  0  0  0  0  0  0  0  0  0  0
    4.2708   -0.9925   -2.5107 H   0  0  0  0  0  0  0  0  0  0  0  0
    2.9338   -1.3859   -1.4407 H   0  0  0  0  0  0  0  0  0  0  0  0
    3.4723    0.7003   -1.3981 C   0  0  0  0  0  0  0  0  0  0  0  0
    2.6965    0.7807   -0.6316 H   0  0  0  0  0  0  0  0  0  0  0  0
    4.4408    0.7316   -0.8846 H   0  0  0  0  0  0  0  0  0  0  0  0
    0.1355    3.7493   -2.8395 N   0  0  0  0  0  0  0  0  0  0  0  0
    0.8629    3.9109   -5.0474 N   0  0  0  0  0  0  0  0  0  0  0  0
   -0.1963    0.8482   -4.5327 Cl  0  0  0  0  0 15  0  0  0  0  0  0
    1.8716    1.5620   -3.7843 Rh  0  0  0  0  0  0  0  0  0  0  0  0
  1 77  1  0  0  0  0
  1 74  1  0  0  0  0
  2  3  1  0  0  0  0
  2 74  1  0  0  0  0
  2  4  1  0  0  0  0
  5  6  1  0  0  0  0
  5  2  1  0  0  0  0
  7  5  1  0  0  0  0
  8 11  1  0  0  0  0
  8  5  1  0  0  0  0
  9  8  1  0  0  0  0
 10  8  1  0  0  0  0
 11 75  1  0  0  0  0
 11 13  1  0  0  0  0
 12 11  1  0  0  0  0
 14 21  1  0  0  0  0
 14 75  1  0  0  0  0
 15 14  2  0  0  0  0
 16 18  2  0  0  0  0
 16 15  1  0  0  0  0
 17 16  1  0  0  0  0
 18 19  1  0  0  0  0
 19 20  1  0  0  0  0
 19 21  2  0  0  0  0
 21 30  1  0  0  0  0
 22 15  1  0  0  0  0
 22 23  1  0  0  0  0
 24 22  1  0  0  0  0
 25 22  1  0  0  0  0
 26 29  1  0  0  0  0
 26 27  1  0  0  0  0
 26 18  1  0  0  0  0
 28 26  1  0  0  0  0
 30 32  1  0  0  0  0
 30 33  1  0  0  0  0
 31 30  1  0  0  0  0
 34 35  2  0  0  0  0
 34 41  1  0  0  0  0
 35 36  1  0  0  0  0
 36 37  1  0  0  0  0
 36 38  2  0  0  0  0
 38 46  1  0  0  0  0
 39 40  1  0  0  0  0
 39 38  1  0  0  0  0
 41 39  2  0  0  0  0
 42 35  1  0  0  0  0
 42 43  1  0  0  0  0
 44 42  1  0  0  0  0
 45 42  1  0  0  0  0
 46 47  1  0  0  0  0
 46 48  1  0  0  0  0
 49 46  1  0  0  0  0
 50 53  1  0  0  0  0
 50 51  1  0  0  0  0
 50 41  1  0  0  0  0
 52 50  1  0  0  0  0
 54 55  1  1  0  0  0
 54 71  1  0  0  0  0
 56 54  1  0  0  0  0
 57 56  1  0  0  0  0
 58 56  1  0  0  0  0
 58 59  1  0  0  0  0
 60 58  1  0  0  0  0
 61 64  1  0  0  0  0
 61 58  1  0  0  0  0
 62 61  1  0  0  0  0
 63 61  1  0  0  0  0
 64 66  1  0  0  0  0
 65 64  1  0  0  0  0
 66 67  1  0  0  0  0
 66 68  1  0  0  0  0
 68 70  1  0  0  0  0
 68 71  1  0  0  0  0
 69 68  1  0  0  0  0
 71 73  1  0  0  0  0
 71 72  1  0  0  0  0
 74 34  1  0  0  0  0
 75  1  1  0  0  0  0
 77 54  1  0  0  0  0
M  END
$$$$
