CSD_code = BOXXAO | q = 0 | S = 0 | Stoichiometry = C27H34ClN2Rh | MND = 6
 OpenBabel04212202013D

 65 67  0  0  1  0  0  0  0  0999 V2000
   12.2615    3.0085    3.7730 C   0  0  0  0  0  3  0  0  0  0  0  0
   11.5056    2.8168    5.9938 C   0  0  0  0  0  0  0  0  0  0  0  0
   10.9091    3.9793    6.4686 C   0  0  0  0  0  0  0  0  0  0  0  0
   11.2841    4.9383    6.1418 H   0  0  0  0  0  0  0  0  0  0  0  0
    9.8593    3.8992    7.3677 C   0  0  0  0  0  0  0  0  0  0  0  0
    9.3960    4.8031    7.7347 H   0  0  0  0  0  0  0  0  0  0  0  0
    9.4105    2.6615    7.7956 C   0  0  0  0  0  0  0  0  0  0  0  0
    8.5869    2.5933    8.4914 H   0  0  0  0  0  0  0  0  0  0  0  0
   10.0198    1.5075    7.3370 C   0  0  0  0  0  0  0  0  0  0  0  0
    9.6705    0.5435    7.6796 H   0  0  0  0  0  0  0  0  0  0  0  0
   11.0757    1.5637    6.4364 C   0  0  0  0  0  0  0  0  0  0  0  0
   11.7420    0.3100    5.9507 C   0  0  0  0  0  0  0  0  0  0  0  0
   11.9378    0.3698    4.8810 H   0  0  0  0  0  0  0  0  0  0  0  0
   11.1178   -0.5585    6.1467 H   0  0  0  0  0  0  0  0  0  0  0  0
   12.6947    0.1668    6.4619 H   0  0  0  0  0  0  0  0  0  0  0  0
   13.8995    3.1357    5.6799 C   0  0  0  0  0  0  0  0  0  0  0  0
   14.4590    2.2039    5.8281 H   0  0  0  0  0  0  0  0  0  0  0  0
   13.6936    3.5542    6.6695 H   0  0  0  0  0  0  0  0  0  0  0  0
   14.7021    4.1475    4.8685 C   0  0  0  0  0  0  0  0  0  0  0  0
   15.4405    4.6292    5.5107 H   0  0  0  0  0  0  0  0  0  0  0  0
   14.0090    4.9178    4.5201 H   0  0  0  0  0  0  0  0  0  0  0  0
   15.4058    3.5015    3.6735 C   0  0  0  0  0  0  0  0  0  0  0  0
   15.6101    4.2646    2.9213 H   0  0  0  0  0  0  0  0  0  0  0  0
   16.3604    3.0673    3.9809 H   0  0  0  0  0  0  0  0  0  0  0  0
   14.5557    2.3888    3.0631 C   0  0  0  0  0  0  0  0  0  0  0  0
   14.9861    2.0907    2.1052 H   0  0  0  0  0  0  0  0  0  0  0  0
   14.5550    1.5115    3.7189 H   0  0  0  0  0  0  0  0  0  0  0  0
   12.7898    2.9086    1.4543 C   0  0  0  0  0  0  0  0  0  0  0  0
   12.6750    1.7583    0.6674 C   0  0  0  0  0  0  0  0  0  0  0  0
   12.9161    0.3866    1.2280 C   0  0  0  0  0  0  0  0  0  0  0  0
   12.6767    0.3506    2.2888 H   0  0  0  0  0  0  0  0  0  0  0  0
   13.9598    0.0950    1.1041 H   0  0  0  0  0  0  0  0  0  0  0  0
   12.3033   -0.3458    0.7067 H   0  0  0  0  0  0  0  0  0  0  0  0
   12.3062    1.9039   -0.6641 C   0  0  0  0  0  0  0  0  0  0  0  0
   12.2073    1.0202   -1.2788 H   0  0  0  0  0  0  0  0  0  0  0  0
   12.0509    3.1501   -1.2078 C   0  0  0  0  0  0  0  0  0  0  0  0
   11.7595    3.2339   -2.2446 H   0  0  0  0  0  0  0  0  0  0  0  0
   12.1653    4.2821   -0.4202 C   0  0  0  0  0  0  0  0  0  0  0  0
   11.9688    5.2584   -0.8365 H   0  0  0  0  0  0  0  0  0  0  0  0
   12.5380    4.1625    0.9078 C   0  0  0  0  0  0  0  0  0  0  0  0
   12.6631    5.0412    1.5226 H   0  0  0  0  0  0  0  0  0  0  0  0
    9.1669    2.2443    3.5962 C   0  0  0  0  0  3  0  0  0  0  0  0
    9.5914    1.5125    4.2795 H   0  0  0  0  0  0  0  0  0  0  0  0
    9.6561    2.2476    2.2897 C   0  0  1  0  0  0  0  0  0  0  0  0
   10.3987    1.4939    2.0359 H   0  0  0  0  0  0  0  0  0  0  0  0
    8.8918    2.7375    1.0815 C   0  0  0  0  0  0  0  0  0  0  0  0
    8.1413    1.9889    0.8003 H   0  0  0  0  0  0  0  0  0  0  0  0
    9.5984    2.8147    0.2512 H   0  0  0  0  0  0  0  0  0  0  0  0
    8.2169    4.1048    1.2950 C   0  0  0  0  0  0  0  0  0  0  0  0
    8.1545    4.6193    0.3336 H   0  0  0  0  0  0  0  0  0  0  0  0
    7.1960    3.9735    1.6579 H   0  0  0  0  0  0  0  0  0  0  0  0
    8.9787    4.9728    2.2704 C   0  0  0  0  0  3  0  0  0  0  0  0
    9.4867    5.8283    1.8243 H   0  0  0  0  0  0  0  0  0  0  0  0
    8.7129    5.0160    3.6230 C   0  0  0  0  0  3  0  0  0  0  0  0
    8.9893    5.9177    4.1705 H   0  0  0  0  0  0  0  0  0  0  0  0
    7.6794    4.1707    4.3295 C   0  0  0  0  0  0  0  0  0  0  0  0
    6.6794    4.5587    4.1034 H   0  0  0  0  0  0  0  0  0  0  0  0
    7.8345    4.2768    5.4058 H   0  0  0  0  0  0  0  0  0  0  0  0
    7.7630    2.6776    3.9635 C   0  0  0  0  0  0  0  0  0  0  0  0
    7.4261    2.0897    4.8203 H   0  0  0  0  0  0  0  0  0  0  0  0
    7.0928    2.4507    3.1321 H   0  0  0  0  0  0  0  0  0  0  0  0
   12.5958    2.8826    5.0648 N   0  0  0  0  0  0  0  0  0  0  0  0
   13.1795    2.8003    2.8237 N   0  0  0  0  0  0  0  0  0  0  0  0
   11.7616    5.8019    3.7339 Cl  0  0  0  0  0 15  0  0  0  0  0  0
   10.5155    3.8718    3.3354 Rh  0  0  0  0  0  0  0  0  0  0  0  0
  1 62  1  0  0  0  0
  2 11  2  0  0  0  0
  2  3  1  0  0  0  0
  3  5  2  0  0  0  0
  4  3  1  0  0  0  0
  5  6  1  0  0  0  0
  5  7  1  0  0  0  0
  7  8  1  0  0  0  0
  9 10  1  0  0  0  0
  9  7  2  0  0  0  0
 11  9  1  0  0  0  0
 12 14  1  0  0  0  0
 12 11  1  0  0  0  0
 12 15  1  0  0  0  0
 13 12  1  0  0  0  0
 16 17  1  0  0  0  0
 16 18  1  0  0  0  0
 19 20  1  0  0  0  0
 19 16  1  0  0  0  0
 21 19  1  0  0  0  0
 22 24  1  0  0  0  0
 22 19  1  0  0  0  0
 23 22  1  0  0  0  0
 25 22  1  0  0  0  0
 25 27  1  0  0  0  0
 26 25  1  0  0  0  0
 28 63  1  0  0  0  0
 29 30  1  0  0  0  0
 29 28  2  0  0  0  0
 30 31  1  0  0  0  0
 32 30  1  0  0  0  0
 33 30  1  0  0  0  0
 34 29  1  0  0  0  0
 35 34  1  0  0  0  0
 36 34  2  0  0  0  0
 36 38  1  0  0  0  0
 37 36  1  0  0  0  0
 38 40  2  0  0  0  0
 39 38  1  0  0  0  0
 40 28  1  0  0  0  0
 40 41  1  0  0  0  0
 42 59  1  0  0  0  0
 42 43  1  0  0  0  0
 44 45  1  6  0  0  0
 44 65  1  0  0  0  0
 44 42  1  0  0  0  0
 46 49  1  0  0  0  0
 46 44  1  0  0  0  0
 47 46  1  0  0  0  0
 48 46  1  0  0  0  0
 49 51  1  0  0  0  0
 49 52  1  0  0  0  0
 50 49  1  0  0  0  0
 52 54  1  0  0  0  0
 53 52  1  0  0  0  0
 54 55  1  0  0  0  0
 54 56  1  0  0  0  0
 56 58  1  0  0  0  0
 57 56  1  0  0  0  0
 59 56  1  0  0  0  0
 59 60  1  0  0  0  0
 61 59  1  0  0  0  0
 62 16  1  0  0  0  0
 62  2  1  0  0  0  0
 63 25  1  0  0  0  0
 63  1  1  0  0  0  0
 65  1  1  0  0  0  0
M  END
$$$$
