CSD_code = BOYFOL | q = 0 | S = 0 | Stoichiometry = C32H32Cl2N4O8Ru | MND = 6
 OpenBabel04212202013D

 79 84  0  0  1  0  0  0  0  0999 V2000
    2.7527    2.0696    9.1850 Ru  0  0  0  0  0  0  0  0  0  0  0  0
    0.5213    2.6509    8.7602 Cl  0  0  0  0  0  0  0  0  0  0  0  0
    2.2306   -0.0117   10.1245 Cl  0  0  0  0  0  0  0  0  0  0  0  0
    4.6028    6.4137   11.6786 O   0  0  0  0  0  0  0  0  0  0  0  0
    4.9500    8.0010   10.1371 O   0  0  0  0  0  0  0  0  0  0  0  0
    2.0731    7.3256   10.1983 O   0  0  0  0  0  0  0  0  0  0  0  0
    1.5427    7.5093   12.3649 O   0  0  0  0  0  0  0  0  0  0  0  0
    6.5141   -1.4021    7.3940 O   0  0  0  0  0  0  0  0  0  0  0  0
    6.2434   -1.4356    5.1687 O   0  0  0  0  0  0  0  0  0  0  0  0
    8.2522    0.9033    6.2457 O   0  0  0  0  0  0  0  0  0  0  0  0
    6.2354    1.6760    5.6159 O   0  0  0  0  0  0  0  0  0  0  0  0
    3.3484    3.8499    8.5539 N   0  0  0  0  0  0  0  0  0  0  0  0
    2.4520    3.1281   10.8437 N   0  0  0  0  0  0  0  0  0  0  0  0
    2.9962    1.0062    7.5374 N   0  0  0  0  0  0  0  0  0  0  0  0
    4.7030    1.7024    9.3357 N   0  0  0  0  0  0  0  0  0  0  0  0
    3.9594    4.0647    7.3854 C   0  0  0  0  0  3  0  0  0  0  0  0
    3.8318    3.2999    6.6293 H   0  0  0  0  0  0  0  0  0  0  0  0
    4.7111    5.1911    7.1331 C   0  0  0  0  0  0  0  0  0  0  0  0
    5.1650    5.3341    6.1659 H   0  0  0  0  0  0  0  0  0  0  0  0
    4.9030    6.1095    8.1583 C   0  0  0  0  0  0  0  0  0  0  0  0
    5.5450    6.9656    8.0308 H   0  0  0  0  0  0  0  0  0  0  0  0
    4.2611    5.9054    9.3728 C   0  0  0  0  0  0  0  0  0  0  0  0
    3.4140    4.7983    9.5182 C   0  0  0  0  0  0  0  0  0  0  0  0
    2.6115    4.4624   10.6939 C   0  0  1  0  0  3  0  0  0  0  0  0
    1.9821    5.3631   11.5682 C   0  0  0  0  0  0  0  0  0  0  0  0
    1.3045    4.8527   12.6717 C   0  0  0  0  0  0  0  0  0  0  0  0
    0.8122    5.5299   13.3505 H   0  0  0  0  0  0  0  0  0  0  0  0
    1.2455    3.4816   12.8612 C   0  0  0  0  0  0  0  0  0  0  0  0
    0.7347    3.0580   13.7105 H   0  0  0  0  0  0  0  0  0  0  0  0
    1.7990    2.6552   11.9022 C   0  0  0  0  0  0  0  0  0  0  0  0
    1.7085    1.5752   11.9523 H   0  0  0  0  0  0  0  0  0  0  0  0
    4.5930    6.7849   10.5285 C   0  0  0  0  0  0  0  0  0  0  0  0
    5.2846    8.9429   11.1585 C   0  0  0  0  0  0  0  0  0  0  0  0
    6.3462    8.8230   11.4040 H   0  0  0  0  0  0  0  0  0  0  0  0
    4.6986    8.7116   12.0545 H   0  0  0  0  0  0  0  0  0  0  0  0
    4.9954   10.3405   10.6430 C   0  0  0  0  0  0  0  0  0  0  0  0
    5.2083   11.0686   11.4204 H   0  0  0  0  0  0  0  0  0  0  0  0
    3.9518   10.4226   10.3517 H   0  0  0  0  0  0  0  0  0  0  0  0
    5.6123   10.5556    9.7749 H   0  0  0  0  0  0  0  0  0  0  0  0
    1.8924    6.8197   11.2807 C   0  0  0  0  0  0  0  0  0  0  0  0
    1.3803    8.9219   12.2270 C   0  0  0  0  0  0  0  0  0  0  0  0
    0.3208    9.1228   12.0334 H   0  0  0  0  0  0  0  0  0  0  0  0
    1.9606    9.2601   11.3620 H   0  0  0  0  0  0  0  0  0  0  0  0
    1.8351    9.5979   13.5083 C   0  0  0  0  0  0  0  0  0  0  0  0
    1.7229   10.6741   13.4122 H   0  0  0  0  0  0  0  0  0  0  0  0
    2.8777    9.3651   13.7098 H   0  0  0  0  0  0  0  0  0  0  0  0
    1.2370    9.2518   14.3467 H   0  0  0  0  0  0  0  0  0  0  0  0
    2.0040    0.4900    6.8124 C   0  0  0  0  0  3  0  0  0  0  0  0
    1.0143    0.8740    7.0346 H   0  0  0  0  0  0  0  0  0  0  0  0
    2.2156   -0.4767    5.8488 C   0  0  0  0  0  0  0  0  0  0  0  0
    1.3855   -0.8558    5.2752 H   0  0  0  0  0  0  0  0  0  0  0  0
    3.4957   -0.9856    5.6724 C   0  0  0  0  0  0  0  0  0  0  0  0
    3.6883   -1.7895    4.9795 H   0  0  0  0  0  0  0  0  0  0  0  0
    4.5334   -0.4737    6.4405 C   0  0  0  0  0  0  0  0  0  0  0  0
    4.2581    0.5704    7.3335 C   0  0  0  0  0  0  0  0  0  0  0  0
    5.2397    1.2260    8.1891 C   0  0  1  0  0  3  0  0  0  0  0  0
    6.5934    1.4260    7.8925 C   0  0  0  0  0  0  0  0  0  0  0  0
    7.4318    1.9241    8.8806 C   0  0  0  0  0  0  0  0  0  0  0  0
    8.4819    2.0506    8.6703 H   0  0  0  0  0  0  0  0  0  0  0  0
    6.8832    2.2697   10.1105 C   0  0  0  0  0  0  0  0  0  0  0  0
    7.5041    2.6350   10.9121 H   0  0  0  0  0  0  0  0  0  0  0  0
    5.5155    2.1906   10.2754 C   0  0  0  0  0  0  0  0  0  0  0  0
    5.0413    2.5206   11.1915 H   0  0  0  0  0  0  0  0  0  0  0  0
    5.8708   -1.1351    6.4119 C   0  0  0  0  0  0  0  0  0  0  0  0
    7.5174   -2.0808    5.0350 C   0  0  0  0  0  0  0  0  0  0  0  0
    8.2838   -1.4180    5.4519 H   0  0  0  0  0  0  0  0  0  0  0  0
    7.5043   -3.0035    5.6245 H   0  0  0  0  0  0  0  0  0  0  0  0
    7.7594   -2.3601    3.5646 C   0  0  0  0  0  0  0  0  0  0  0  0
    8.7139   -2.8640    3.4461 H   0  0  0  0  0  0  0  0  0  0  0  0
    7.7786   -1.4305    3.0019 H   0  0  0  0  0  0  0  0  0  0  0  0
    6.9718   -2.9943    3.1658 H   0  0  0  0  0  0  0  0  0  0  0  0
    7.1366    1.2629    6.5152 C   0  0  0  0  0  0  0  0  0  0  0  0
    6.5940    1.6360    4.2310 C   0  0  0  0  0  0  0  0  0  0  0  0
    7.6824    1.5416    4.1531 H   0  0  0  0  0  0  0  0  0  0  0  0
    6.1234    0.7466    3.7980 H   0  0  0  0  0  0  0  0  0  0  0  0
    6.0957    2.9006    3.5538 C   0  0  0  0  0  0  0  0  0  0  0  0
    6.3222    2.8576    2.4925 H   0  0  0  0  0  0  0  0  0  0  0  0
    6.5798    3.7750    3.9823 H   0  0  0  0  0  0  0  0  0  0  0  0
    5.0206    2.9961    3.6831 H   0  0  0  0  0  0  0  0  0  0  0  0
  1 15  1  0  0  0  0
  1  3  1  0  0  0  0
  1 13  1  0  0  0  0
  2  1  1  0  0  0  0
  5 32  1  0  0  0  0
  5 33  1  0  0  0  0
  6 40  2  0  0  0  0
  9 64  1  0  0  0  0
 10 72  2  0  0  0  0
 11 72  1  0  0  0  0
 12  1  1  0  0  0  0
 12 23  1  0  0  0  0
 13 30  1  0  0  0  0
 14  1  1  0  0  0  0
 15 62  1  0  0  0  0
 16 12  1  0  0  0  0
 17 16  1  0  0  0  0
 18 16  1  0  0  0  0
 18 20  2  0  0  0  0
 19 18  1  0  0  0  0
 20 22  1  0  0  0  0
 21 20  1  0  0  0  0
 22 23  2  0  0  0  0
 22 32  1  0  0  0  0
 24 23  1  6  0  0  0
 24 13  1  0  0  0  0
 24 25  1  0  0  0  0
 25 26  2  0  0  0  0
 26 28  1  0  0  0  0
 26 27  1  0  0  0  0
 28 29  1  0  0  0  0
 30 31  1  0  0  0  0
 30 28  2  0  0  0  0
 32  4  2  0  0  0  0
 33 34  1  0  0  0  0
 33 35  1  0  0  0  0
 36 33  1  0  0  0  0
 36 37  1  0  0  0  0
 38 36  1  0  0  0  0
 39 36  1  0  0  0  0
 40 25  1  0  0  0  0
 40  7  1  0  0  0  0
 41  7  1  0  0  0  0
 41 44  1  0  0  0  0
 42 41  1  0  0  0  0
 43 41  1  0  0  0  0
 44 46  1  0  0  0  0
 44 47  1  0  0  0  0
 45 44  1  0  0  0  0
 48 49  1  0  0  0  0
 48 14  1  0  0  0  0
 50 48  1  0  0  0  0
 51 50  1  0  0  0  0
 52 50  2  0  0  0  0
 52 54  1  0  0  0  0
 53 52  1  0  0  0  0
 54 55  2  0  0  0  0
 55 14  1  0  0  0  0
 56 55  1  6  0  0  0
 56 15  1  0  0  0  0
 57 56  1  0  0  0  0
 57 58  2  0  0  0  0
 58 60  1  0  0  0  0
 59 58  1  0  0  0  0
 60 62  2  0  0  0  0
 60 61  1  0  0  0  0
 62 63  1  0  0  0  0
 64 54  1  0  0  0  0
 64  8  2  0  0  0  0
 65  9  1  0  0  0  0
 65 66  1  0  0  0  0
 65 67  1  0  0  0  0
 68 65  1  0  0  0  0
 69 68  1  0  0  0  0
 70 68  1  0  0  0  0
 71 68  1  0  0  0  0
 72 57  1  0  0  0  0
 73 11  1  0  0  0  0
 74 73  1  0  0  0  0
 75 73  1  0  0  0  0
 76 79  1  0  0  0  0
 76 78  1  0  0  0  0
 76 73  1  0  0  0  0
 77 76  1  0  0  0  0
M  END
$$$$
