CSD_code = BOYKOQ | q = 0 | S = 0 | Stoichiometry = C16H36ClNP2Pd | MND = 4
 OpenBabel04212202013D

 57 58  0  0  1  0  0  0  0  0999 V2000
    1.4736    3.4609    2.8937 Pd  0  0  1  0  0  0  0  0  0  0  0  0
    2.3114    5.6168    2.8031 Cl  0  0  0  0  0  0  0  0  0  0  0  0
    0.6537    3.6225    4.9600 P   0  0  0  0  0  4  0  0  0  0  0  0
    2.1907    2.8972    0.8576 P   0  0  0  0  0  4  0  0  0  0  0  0
    0.8755    1.5062    3.0009 N   0  0  1  0  0  0  0  0  0  0  0  0
   -0.1739    1.2399    3.9567 C   0  0  0  0  0  0  0  0  0  0  0  0
    0.1084    1.8972    5.3078 C   0  0  0  0  0  0  0  0  0  0  0  0
    0.5036    0.9623    1.7155 C   0  0  0  0  0  0  0  0  0  0  0  0
    1.6223    1.1509    0.6898 C   0  0  0  0  0  0  0  0  0  0  0  0
   -0.8588    4.6851    5.1413 C   0  0  0  0  0  0  0  0  0  0  0  0
   -0.4420    6.1458    5.2940 C   0  0  0  0  0  0  0  0  0  0  0  0
   -1.6559    4.4972    3.8482 C   0  0  0  0  0  0  0  0  0  0  0  0
    1.8194    4.0573    6.3310 C   0  0  0  0  0  0  0  0  0  0  0  0
    3.1254    3.3222    6.0277 C   0  0  0  0  0  0  0  0  0  0  0  0
    1.2812    3.7619    7.7255 C   0  0  0  0  0  0  0  0  0  0  0  0
    1.5470    3.8391   -0.6033 C   0  0  0  0  0  0  0  0  0  0  0  0
    0.0556    4.0579   -0.3470 C   0  0  0  0  0  0  0  0  0  0  0  0
    1.8235    3.1989   -1.9578 C   0  0  0  0  0  0  0  0  0  0  0  0
    4.0350    2.7724    0.7193 C   0  0  0  0  0  0  0  0  0  0  0  0
    4.4797    2.3776    2.1308 C   0  0  0  0  0  0  0  0  0  0  0  0
    4.6582    4.1055    0.3198 C   0  0  0  0  0  0  0  0  0  0  0  0
   -0.2498    0.1454    4.0984 H   0  0  0  0  0  0  0  0  0  0  0  0
   -1.1679    1.5685    3.5839 H   0  0  0  0  0  0  0  0  0  0  0  0
    0.9456    1.3792    5.7812 H   0  0  0  0  0  0  0  0  0  0  0  0
   -0.7623    1.8537    5.9669 H   0  0  0  0  0  0  0  0  0  0  0  0
   -0.4360    1.4141    1.3273 H   0  0  0  0  0  0  0  0  0  0  0  0
    0.2997   -0.1177    1.8337 H   0  0  0  0  0  0  0  0  0  0  0  0
    1.2805    0.9102   -0.3182 H   0  0  0  0  0  0  0  0  0  0  0  0
    2.4610    0.4980    0.9418 H   0  0  0  0  0  0  0  0  0  0  0  0
   -1.4545    4.3607    6.0045 H   0  0  0  0  0  0  0  0  0  0  0  0
    0.0058    6.3326    6.2675 H   0  0  0  0  0  0  0  0  0  0  0  0
   -1.3073    6.7986    5.1887 H   0  0  0  0  0  0  0  0  0  0  0  0
    0.2816    6.4059    4.5201 H   0  0  0  0  0  0  0  0  0  0  0  0
   -2.0931    3.5009    3.7955 H   0  0  0  0  0  0  0  0  0  0  0  0
   -0.9823    4.6341    2.9851 H   0  0  0  0  0  0  0  0  0  0  0  0
   -2.4604    5.2278    3.7760 H   0  0  0  0  0  0  0  0  0  0  0  0
    2.0061    5.1328    6.2240 H   0  0  0  0  0  0  0  0  0  0  0  0
    3.3921    3.4821    4.9741 H   0  0  0  0  0  0  0  0  0  0  0  0
    3.0243    2.2510    6.1975 H   0  0  0  0  0  0  0  0  0  0  0  0
    3.9358    3.6943    6.6519 H   0  0  0  0  0  0  0  0  0  0  0  0
    0.3499    4.2953    7.9053 H   0  0  0  0  0  0  0  0  0  0  0  0
    2.0036    4.0753    8.4778 H   0  0  0  0  0  0  0  0  0  0  0  0
    1.0988    2.6969    7.8544 H   0  0  0  0  0  0  0  0  0  0  0  0
    2.0507    4.8127   -0.5454 H   0  0  0  0  0  0  0  0  0  0  0  0
   -0.0845    4.4401    0.6746 H   0  0  0  0  0  0  0  0  0  0  0  0
   -0.4952    3.1226   -0.4480 H   0  0  0  0  0  0  0  0  0  0  0  0
   -0.3613    4.7806   -1.0463 H   0  0  0  0  0  0  0  0  0  0  0  0
    2.8805    2.9673   -2.0731 H   0  0  0  0  0  0  0  0  0  0  0  0
    1.5332    3.8800   -2.7564 H   0  0  0  0  0  0  0  0  0  0  0  0
    1.2545    2.2794   -2.0807 H   0  0  0  0  0  0  0  0  0  0  0  0
    4.3024    1.9872   -0.0010 H   0  0  0  0  0  0  0  0  0  0  0  0
    3.9276    1.5032    2.4885 H   0  0  0  0  0  0  0  0  0  0  0  0
    4.2721    3.2171    2.8075 H   0  0  0  0  0  0  0  0  0  0  0  0
    5.5463    2.1603    2.1646 H   0  0  0  0  0  0  0  0  0  0  0  0
    4.4465    4.3528   -0.7182 H   0  0  0  0  0  0  0  0  0  0  0  0
    5.7392    4.0666    0.4466 H   0  0  0  0  0  0  0  0  0  0  0  0
    4.2667    4.8992    0.9565 H   0  0  0  0  0  0  0  0  0  0  0  0
  1  2  1  1  0  0  0
  1  5  1  0  0  0  0
  1  3  1  0  0  0  0
  3 10  1  0  0  0  0
  3  7  1  0  0  0  0
  3 13  1  0  0  0  0
  4  1  1  0  0  0  0
  5  8  1  6  0  0  0
  5  6  1  0  0  0  0
  6 22  1  0  0  0  0
  6  7  1  0  0  0  0
  7 24  1  0  0  0  0
  7 25  1  0  0  0  0
  8 27  1  0  0  0  0
  9  4  1  0  0  0  0
  9 29  1  0  0  0  0
  9  8  1  0  0  0  0
 10 11  1  0  0  0  0
 10 30  1  0  0  0  0
 11 31  1  0  0  0  0
 12 10  1  0  0  0  0
 13 15  1  0  0  0  0
 14 39  1  0  0  0  0
 14 13  1  0  0  0  0
 14 40  1  0  0  0  0
 15 43  1  0  0  0  0
 15 41  1  0  0  0  0
 15 42  1  0  0  0  0
 16 44  1  0  0  0  0
 16 17  1  0  0  0  0
 16  4  1  0  0  0  0
 17 45  1  0  0  0  0
 18 16  1  0  0  0  0
 19  4  1  0  0  0  0
 19 20  1  0  0  0  0
 20 54  1  0  0  0  0
 20 52  1  0  0  0  0
 20 53  1  0  0  0  0
 21 56  1  0  0  0  0
 21 19  1  0  0  0  0
 21 57  1  0  0  0  0
 23  6  1  0  0  0  0
 26  8  1  0  0  0  0
 28  9  1  0  0  0  0
 32 11  1  0  0  0  0
 33 11  1  0  0  0  0
 34 12  1  0  0  0  0
 35 12  1  0  0  0  0
 36 12  1  0  0  0  0
 37 13  1  0  0  0  0
 38 14  1  0  0  0  0
 46 17  1  0  0  0  0
 47 17  1  0  0  0  0
 48 18  1  0  0  0  0
 49 18  1  0  0  0  0
 50 18  1  0  0  0  0
 51 19  1  0  0  0  0
 55 21  1  0  0  0  0
M  END
$$$$
