CSD_code = BOYLEH | q = 1 | S = 0 | Stoichiometry = C17H39ClNP2Pd(1+) | MND = 4
 OpenBabel04212202013D

 61 62  0  0  1  0  0  0  0  0999 V2000
    6.4667    2.7703    2.4681 Pd  0  0  1  0  0  0  0  0  0  0  0  0
    6.2388    0.5613    2.2075 Cl  0  0  0  0  0  0  0  0  0  0  0  0
    7.1175    3.0966    0.3238 P   0  0  0  0  0  4  0  0  0  0  0  0
    5.7216    2.7207    4.6057 P   0  0  0  0  0  4  0  0  0  0  0  0
    6.8083    4.8346    2.7611 N   0  0  1  0  0  4  0  0  0  0  0  0
    8.1872    4.9737    3.2353 C   0  0  0  0  0  0  0  0  0  0  0  0
    6.6379    5.5643    1.4912 C   0  0  0  0  0  0  0  0  0  0  0  0
    7.4081    4.9364    0.3247 C   0  0  0  0  0  0  0  0  0  0  0  0
    5.8735    5.3628    3.7716 C   0  0  0  0  0  0  0  0  0  0  0  0
    5.8309    4.5254    5.0545 C   0  0  0  0  0  0  0  0  0  0  0  0
    5.8421    2.8290   -0.9899 C   0  0  0  0  0  0  0  0  0  0  0  0
    5.7464    1.3451   -1.3338 C   0  0  0  0  0  0  0  0  0  0  0  0
    4.5159    3.3343   -0.4175 C   0  0  0  0  0  0  0  0  0  0  0  0
    8.6874    2.2892   -0.2214 C   0  0  0  0  0  0  0  0  0  0  0  0
    9.6677    2.3104    0.9532 C   0  0  0  0  0  0  0  0  0  0  0  0
    9.2751    2.8820   -1.4963 C   0  0  0  0  0  0  0  0  0  0  0  0
    3.9356    2.2884    4.8327 C   0  0  0  0  0  0  0  0  0  0  0  0
    3.1982    2.8540    3.6170 C   0  0  0  0  0  0  0  0  0  0  0  0
    3.7583    0.7741    4.9038 C   0  0  0  0  0  0  0  0  0  0  0  0
    6.7051    1.7808    5.8561 C   0  0  0  0  0  0  0  0  0  0  0  0
    8.1889    1.9401    5.5194 C   0  0  0  0  0  0  0  0  0  0  0  0
    6.3799    2.1522    7.2979 C   0  0  0  0  0  0  0  0  0  0  0  0
    8.3234    4.4244    4.1661 H   0  0  0  0  0  0  0  0  0  0  0  0
    8.4319    6.0287    3.4086 H   0  0  0  0  0  0  0  0  0  0  0  0
    8.8818    4.5686    2.5002 H   0  0  0  0  0  0  0  0  0  0  0  0
    6.9522    6.6103    1.6220 H   0  0  0  0  0  0  0  0  0  0  0  0
    5.5699    5.5612    1.2531 H   0  0  0  0  0  0  0  0  0  0  0  0
    8.4782    5.1329    0.4136 H   0  0  0  0  0  0  0  0  0  0  0  0
    7.0695    5.3784   -0.6148 H   0  0  0  0  0  0  0  0  0  0  0  0
    4.8762    5.3726    3.3211 H   0  0  0  0  0  0  0  0  0  0  0  0
    6.1431    6.4007    4.0167 H   0  0  0  0  0  0  0  0  0  0  0  0
    4.9686    4.8239    5.6546 H   0  0  0  0  0  0  0  0  0  0  0  0
    6.7251    4.6927    5.6579 H   0  0  0  0  0  0  0  0  0  0  0  0
    6.1139    3.4087   -1.8807 H   0  0  0  0  0  0  0  0  0  0  0  0
    6.6364    0.9964   -1.8520 H   0  0  0  0  0  0  0  0  0  0  0  0
    4.8924    1.1706   -1.9845 H   0  0  0  0  0  0  0  0  0  0  0  0
    5.6115    0.7553   -0.4273 H   0  0  0  0  0  0  0  0  0  0  0  0
    4.4968    4.4209   -0.3458 H   0  0  0  0  0  0  0  0  0  0  0  0
    4.3584    2.8984    0.5801 H   0  0  0  0  0  0  0  0  0  0  0  0
    3.6877    3.0291   -1.0531 H   0  0  0  0  0  0  0  0  0  0  0  0
    8.4016    1.2443   -0.3972 H   0  0  0  0  0  0  0  0  0  0  0  0
    9.1496    2.0273    1.8826 H   0  0  0  0  0  0  0  0  0  0  0  0
   10.1219    3.2936    1.0732 H   0  0  0  0  0  0  0  0  0  0  0  0
   10.4708    1.5964    0.7872 H   0  0  0  0  0  0  0  0  0  0  0  0
    8.5601    2.8401   -2.3149 H   0  0  0  0  0  0  0  0  0  0  0  0
   10.1565    2.3162   -1.7901 H   0  0  0  0  0  0  0  0  0  0  0  0
    9.5752    3.9180   -1.3521 H   0  0  0  0  0  0  0  0  0  0  0  0
    3.5644    2.7581    5.7521 H   0  0  0  0  0  0  0  0  0  0  0  0
    3.1923    3.9437    3.6207 H   0  0  0  0  0  0  0  0  0  0  0  0
    2.1644    2.5160    3.6086 H   0  0  0  0  0  0  0  0  0  0  0  0
    3.6826    2.4911    2.6987 H   0  0  0  0  0  0  0  0  0  0  0  0
    4.1651    0.3652    5.8254 H   0  0  0  0  0  0  0  0  0  0  0  0
    4.2494    0.2965    4.0564 H   0  0  0  0  0  0  0  0  0  0  0  0
    2.7000    0.5253    4.8678 H   0  0  0  0  0  0  0  0  0  0  0  0
    6.4335    0.7334    5.6738 H   0  0  0  0  0  0  0  0  0  0  0  0
    8.3449    1.8202    4.4366 H   0  0  0  0  0  0  0  0  0  0  0  0
    8.7748    1.1785    6.0284 H   0  0  0  0  0  0  0  0  0  0  0  0
    8.5663    2.9115    5.8374 H   0  0  0  0  0  0  0  0  0  0  0  0
    5.3193    2.0297    7.5058 H   0  0  0  0  0  0  0  0  0  0  0  0
    6.6578    3.1813    7.5163 H   0  0  0  0  0  0  0  0  0  0  0  0
    6.9330    1.5057    7.9757 H   0  0  0  0  0  0  0  0  0  0  0  0
  1  2  1  1  0  0  0
  1  5  1  0  0  0  0
  1  4  1  0  0  0  0
  3  8  1  0  0  0  0
  3  1  1  0  0  0  0
  4 17  1  0  0  0  0
  4 10  1  0  0  0  0
  4 20  1  0  0  0  0
  5  6  1  1  0  0  0
  5  9  1  0  0  0  0
  6 24  1  0  0  0  0
  6 23  1  0  0  0  0
  7 26  1  0  0  0  0
  7  5  1  0  0  0  0
  8 28  1  0  0  0  0
  8  7  1  0  0  0  0
  9 31  1  0  0  0  0
  9 10  1  0  0  0  0
 10 32  1  0  0  0  0
 10 33  1  0  0  0  0
 11 13  1  0  0  0  0
 11  3  1  0  0  0  0
 12 11  1  0  0  0  0
 12 37  1  0  0  0  0
 13 38  1  0  0  0  0
 13 39  1  0  0  0  0
 14  3  1  0  0  0  0
 14 15  1  0  0  0  0
 15 43  1  0  0  0  0
 15 42  1  0  0  0  0
 16 47  1  0  0  0  0
 16 14  1  0  0  0  0
 17 19  1  0  0  0  0
 17 48  1  0  0  0  0
 18 49  1  0  0  0  0
 18 17  1  0  0  0  0
 19 52  1  0  0  0  0
 20 22  1  0  0  0  0
 21 58  1  0  0  0  0
 21 20  1  0  0  0  0
 21 57  1  0  0  0  0
 22 59  1  0  0  0  0
 22 60  1  0  0  0  0
 22 61  1  0  0  0  0
 25  6  1  0  0  0  0
 27  7  1  0  0  0  0
 29  8  1  0  0  0  0
 30  9  1  0  0  0  0
 34 11  1  0  0  0  0
 35 12  1  0  0  0  0
 36 12  1  0  0  0  0
 40 13  1  0  0  0  0
 41 14  1  0  0  0  0
 44 15  1  0  0  0  0
 45 16  1  0  0  0  0
 46 16  1  0  0  0  0
 50 18  1  0  0  0  0
 51 18  1  0  0  0  0
 53 19  1  0  0  0  0
 54 19  1  0  0  0  0
 55 20  1  0  0  0  0
 56 21  1  0  0  0  0
M  END
$$$$
