CSD_code = BOYQEM | q = 0 | S = 0 | Stoichiometry = C24H27Cl3N2Pd | MND = 5
 OpenBabel04212202013D

 57 58  0  0  1  0  0  0  0  0999 V2000
    3.7493    8.7397   14.3199 C   0  0  2  0  0  3  0  0  0  0  0  0
    2.2417    7.7710   15.6526 C   0  0  0  0  0  0  0  0  0  0  0  0
    1.6161    8.7678   14.9650 C   0  0  0  0  0  0  0  0  0  0  0  0
    4.5916    6.9346   15.7423 C   0  0  0  0  0  0  0  0  0  0  0  0
    5.0322    7.1251   17.0535 C   0  0  0  0  0  0  0  0  0  0  0  0
    6.0411    6.3058   17.5347 C   0  0  0  0  0  0  0  0  0  0  0  0
    6.3894    6.4416   18.5483 H   0  0  0  0  0  0  0  0  0  0  0  0
    6.6223    5.3260   16.7407 C   0  0  0  0  0  0  0  0  0  0  0  0
    6.1872    5.1842   15.4316 C   0  0  0  0  0  0  0  0  0  0  0  0
    6.6465    4.4395   14.7977 H   0  0  0  0  0  0  0  0  0  0  0  0
    5.1769    5.9798   14.9066 C   0  0  0  0  0  0  0  0  0  0  0  0
    4.4599    8.2132   17.9097 C   0  0  0  0  0  0  0  0  0  0  0  0
    4.3238    9.1245   17.3288 H   0  0  0  0  0  0  0  0  0  0  0  0
    5.1245    8.4248   18.7432 H   0  0  0  0  0  0  0  0  0  0  0  0
    3.4918    7.9212   18.3144 H   0  0  0  0  0  0  0  0  0  0  0  0
    7.6946    4.4400   17.2954 C   0  0  0  0  0  0  0  0  0  0  0  0
    7.2458    3.6443   17.8902 H   0  0  0  0  0  0  0  0  0  0  0  0
    8.3648    5.0021   17.9421 H   0  0  0  0  0  0  0  0  0  0  0  0
    8.2737    3.9818   16.4978 H   0  0  0  0  0  0  0  0  0  0  0  0
    4.7538    5.8254   13.4787 C   0  0  0  0  0  0  0  0  0  0  0  0
    3.6702    5.8727   13.3777 H   0  0  0  0  0  0  0  0  0  0  0  0
    5.1058    4.8797   13.0751 H   0  0  0  0  0  0  0  0  0  0  0  0
    5.1795    6.6423   12.8639 H   0  0  0  0  0  0  0  0  0  0  0  0
    2.2784   10.3653   13.1875 C   0  0  0  0  0  0  0  0  0  0  0  0
    2.8917   11.6127   13.3113 C   0  0  0  0  0  0  0  0  0  0  0  0
    2.5570   12.6053   12.4037 C   0  0  0  0  0  0  0  0  0  0  0  0
    3.0268   13.5748   12.4887 H   0  0  0  0  0  0  0  0  0  0  0  0
    1.6468   12.3779   11.3814 C   0  0  0  0  0  0  0  0  0  0  0  0
    1.0971   11.1120   11.2522 C   0  0  0  0  0  0  0  0  0  0  0  0
    0.4275   10.9063   10.4300 H   0  0  0  0  0  0  0  0  0  0  0  0
    1.4067   10.0866   12.1326 C   0  0  0  0  0  0  0  0  0  0  0  0
    3.9398   11.8658   14.3541 C   0  0  0  0  0  0  0  0  0  0  0  0
    3.6567   11.4483   15.3204 H   0  0  0  0  0  0  0  0  0  0  0  0
    4.1167   12.9326   14.4671 H   0  0  0  0  0  0  0  0  0  0  0  0
    4.8833   11.3890   14.0279 H   0  0  0  0  0  0  0  0  0  0  0  0
    1.2896   13.4795   10.4315 C   0  0  0  0  0  0  0  0  0  0  0  0
    0.7183   13.0976    9.5898 H   0  0  0  0  0  0  0  0  0  0  0  0
    2.1881   13.9640   10.0547 H   0  0  0  0  0  0  0  0  0  0  0  0
    0.6913   14.2349   10.9411 H   0  0  0  0  0  0  0  0  0  0  0  0
    0.9100    8.6981   11.8794 C   0  0  0  0  0  0  0  0  0  0  0  0
    1.7756    8.0505   11.7362 H   0  0  0  0  0  0  0  0  0  0  0  0
    0.3095    8.6749   10.9747 H   0  0  0  0  0  0  0  0  0  0  0  0
    0.3125    8.3072   12.6993 H   0  0  0  0  0  0  0  0  0  0  0  0
    7.4067    9.0799   12.4600 C   0  0  0  0  0  3  0  0  0  0  0  0
    7.3993    9.7891   13.6625 C   0  0  0  0  0  0  0  0  0  0  0  0
    6.9399    9.1520   14.8349 C   0  0  0  0  0  3  0  0  0  0  0  0
    0.0203    9.3476   15.1166 Cl  0  0  0  0  0  0  0  0  0  0  0  0
    4.3459    8.7851   11.3343 Cl  0  0  0  0  0 15  0  0  0  0  0  0
    1.6094    6.6482   16.7664 Cl  0  0  0  0  0  0  0  0  0  0  0  0
    7.5284   10.8731   13.6500 H   0  0  0  0  0  0  0  0  0  0  0  0
    7.6350    8.0081   12.4739 H   0  0  0  0  0  0  0  0  0  0  0  0
    7.6879    9.5930   11.5454 H   0  0  0  0  0  0  0  0  0  0  0  0
    6.8735    9.7353   15.7470 H   0  0  0  0  0  0  0  0  0  0  0  0
    7.2146    8.1097   14.9971 H   0  0  0  0  0  0  0  0  0  0  0  0
    3.5526    7.7677   15.2371 N   0  0  0  0  0  0  0  0  0  0  0  0
    2.5577    9.3425   14.1413 N   0  0  0  0  0  0  0  0  0  0  0  0
    5.4653    9.0291   13.3232 Pd  0  0  0  0  0  0  0  0  0  0  0  0
  1 57  1  6  0  0  0
  1 55  1  0  0  0  0
  2 49  1  0  0  0  0
  3 47  1  0  0  0  0
  3  2  2  0  0  0  0
  4  5  1  0  0  0  0
  5  6  2  0  0  0  0
  5 12  1  0  0  0  0
  6  7  1  0  0  0  0
  8 16  1  0  0  0  0
  8  6  1  0  0  0  0
  9  8  2  0  0  0  0
 10  9  1  0  0  0  0
 11  9  1  0  0  0  0
 11  4  2  0  0  0  0
 12 15  1  0  0  0  0
 12 14  1  0  0  0  0
 13 12  1  0  0  0  0
 16 17  1  0  0  0  0
 16 18  1  0  0  0  0
 19 16  1  0  0  0  0
 20 11  1  0  0  0  0
 21 20  1  0  0  0  0
 22 20  1  0  0  0  0
 23 20  1  0  0  0  0
 24 25  1  0  0  0  0
 24 56  1  0  0  0  0
 25 32  1  0  0  0  0
 26 27  1  0  0  0  0
 26 25  2  0  0  0  0
 28 26  1  0  0  0  0
 29 28  2  0  0  0  0
 29 31  1  0  0  0  0
 30 29  1  0  0  0  0
 31 24  2  0  0  0  0
 32 34  1  0  0  0  0
 32 33  1  0  0  0  0
 35 32  1  0  0  0  0
 36 39  1  0  0  0  0
 36 28  1  0  0  0  0
 37 36  1  0  0  0  0
 38 36  1  0  0  0  0
 40 31  1  0  0  0  0
 40 43  1  0  0  0  0
 41 40  1  0  0  0  0
 42 40  1  0  0  0  0
 44 51  1  0  0  0  0
 44 45  1  0  0  0  0
 45 46  1  0  0  0  0
 46 54  1  0  0  0  0
 46 53  1  0  0  0  0
 50 45  1  0  0  0  0
 52 44  1  0  0  0  0
 55  2  1  0  0  0  0
 55  4  1  0  0  0  0
 56  1  1  0  0  0  0
 56  3  1  0  0  0  0
 57 45  1  0  0  0  0
M  END
$$$$
