CSD_code = BOYXET | q = 0 | S = 0 | Stoichiometry = C19H20Br2N4Ni | MND = 4
 OpenBabel04212202013D

 46 50  0  0  1  0  0  0  0  0999 V2000
    4.5578    9.9733   12.4673 Ni  0  0  0  0  0  0  0  0  0  0  0  0
    3.5877   11.0761   10.7424 Br  0  0  0  0  0  0  0  0  0  0  0  0
    3.5502   11.1044   14.1533 Br  0  0  0  0  0  0  0  0  0  0  0  0
    5.1954    7.9082   10.5265 N   0  0  0  0  0  0  0  0  0  0  0  0
    6.8085    9.3353   10.8528 N   0  0  0  0  0  0  0  0  0  0  0  0
    5.0799    7.8985   14.4134 N   0  0  0  0  0  0  0  0  0  0  0  0
    6.7311    9.3027   14.1918 N   0  0  0  0  0  0  0  0  0  0  0  0
    5.5450    9.0147   11.2091 C   0  0  2  0  0  3  0  0  0  0  0  0
    6.2370    7.5063    9.7201 C   0  0  0  0  0  0  0  0  0  0  0  0
    6.3765    6.4457    8.8399 C   0  0  0  0  0  0  0  0  0  0  0  0
    5.5769    5.7414    8.6743 H   0  0  0  0  0  0  0  0  0  0  0  0
    7.5867    6.3309    8.1811 C   0  0  0  0  0  0  0  0  0  0  0  0
    7.7348    5.5181    7.4870 H   0  0  0  0  0  0  0  0  0  0  0  0
    8.6207    7.2405    8.3903 C   0  0  0  0  0  0  0  0  0  0  0  0
    9.5481    7.1136    7.8536 H   0  0  0  0  0  0  0  0  0  0  0  0
    8.4885    8.3020    9.2668 C   0  0  0  0  0  0  0  0  0  0  0  0
    9.2956    9.0006    9.4218 H   0  0  0  0  0  0  0  0  0  0  0  0
    7.2794    8.4247    9.9318 C   0  0  0  0  0  0  0  0  0  0  0  0
    3.8901    7.3068   10.5497 C   0  0  0  0  0  0  0  0  0  0  0  0
    3.2174    7.9568   11.1155 H   0  0  0  0  0  0  0  0  0  0  0  0
    3.9234    6.3189   11.0142 H   0  0  0  0  0  0  0  0  0  0  0  0
    3.5068    7.2142    9.5330 H   0  0  0  0  0  0  0  0  0  0  0  0
    7.4942   10.5334   11.2701 C   0  0  0  0  0  0  0  0  0  0  0  0
    6.7422   11.3243   11.3995 H   0  0  0  0  0  0  0  0  0  0  0  0
    8.1603   10.8317   10.4572 H   0  0  0  0  0  0  0  0  0  0  0  0
    8.2990   10.3704   12.5663 C   0  0  0  0  0  0  0  0  0  0  0  0
    8.8155    9.4067   12.5621 H   0  0  0  0  0  0  0  0  0  0  0  0
    9.0533   11.1578   12.5896 H   0  0  0  0  0  0  0  0  0  0  0  0
    7.4524   10.5010   13.8390 C   0  0  0  0  0  0  0  0  0  0  0  0
    8.0959   10.7575   14.6837 H   0  0  0  0  0  0  0  0  0  0  0  0
    6.7204   11.3102   13.7127 H   0  0  0  0  0  0  0  0  0  0  0  0
    5.4831    9.0075   13.7653 C   0  0  0  0  0  0  0  0  0  0  0  0
    6.0707    7.4686   15.2678 C   0  0  0  0  0  0  0  0  0  0  0  0
    6.1459    6.3935   16.1380 C   0  0  0  0  0  0  0  0  0  0  0  0
    5.3263    5.7021   16.2519 H   0  0  0  0  0  0  0  0  0  0  0  0
    7.3185    6.2471   16.8558 C   0  0  0  0  0  0  0  0  0  0  0  0
    7.4167    5.4221   17.5441 H   0  0  0  0  0  0  0  0  0  0  0  0
    8.3777    7.1403   16.7125 C   0  0  0  0  0  0  0  0  0  0  0  0
    9.2745    6.9883   17.2929 H   0  0  0  0  0  0  0  0  0  0  0  0
    8.3091    8.2166   15.8467 C   0  0  0  0  0  0  0  0  0  0  0  0
    9.1361    8.9014   15.7434 H   0  0  0  0  0  0  0  0  0  0  0  0
    7.1378    8.3714   15.1233 C   0  0  0  0  0  0  0  0  0  0  0  0
    3.7653    7.3248   14.3193 C   0  0  0  0  0  0  0  0  0  0  0  0
    3.3211    7.2506   15.3128 H   0  0  0  0  0  0  0  0  0  0  0  0
    3.8038    6.3322   13.8658 H   0  0  0  0  0  0  0  0  0  0  0  0
    3.1407    7.9838   13.7097 H   0  0  0  0  0  0  0  0  0  0  0  0
  1 32  2  0  0  0  0
  1  3  1  0  0  0  0
  2  1  1  0  0  0  0
  4 19  1  0  0  0  0
  5  8  1  0  0  0  0
  5 23  1  0  0  0  0
  6 33  1  0  0  0  0
  7 42  1  0  0  0  0
  8  4  1  1  0  0  0
  8  1  1  0  0  0  0
  9 18  1  0  0  0  0
  9  4  1  0  0  0  0
 10  9  2  0  0  0  0
 11 10  1  0  0  0  0
 12 14  2  0  0  0  0
 12 10  1  0  0  0  0
 13 12  1  0  0  0  0
 14 16  1  0  0  0  0
 15 14  1  0  0  0  0
 16 17  1  0  0  0  0
 16 18  2  0  0  0  0
 18  5  1  0  0  0  0
 19 21  1  0  0  0  0
 19 20  1  0  0  0  0
 22 19  1  0  0  0  0
 23 24  1  0  0  0  0
 23 26  1  0  0  0  0
 25 23  1  0  0  0  0
 26 28  1  0  0  0  0
 26 29  1  0  0  0  0
 27 26  1  0  0  0  0
 29  7  1  0  0  0  0
 29 30  1  0  0  0  0
 31 29  1  0  0  0  0
 32  7  1  0  0  0  0
 32  6  1  0  0  0  0
 33 34  1  0  0  0  0
 34 35  1  0  0  0  0
 34 36  2  0  0  0  0
 36 37  1  0  0  0  0
 38 36  1  0  0  0  0
 38 39  1  0  0  0  0
 40 38  2  0  0  0  0
 41 40  1  0  0  0  0
 42 33  2  0  0  0  0
 42 40  1  0  0  0  0
 43  6  1  0  0  0  0
 43 44  1  0  0  0  0
 45 43  1  0  0  0  0
 46 43  1  0  0  0  0
M  END
$$$$
