CSD_code = BOZDEZ | q = 0 | S = 0 | Stoichiometry = C4H12Cl2N2O2Pt | MND = 6
 OpenBabel04212202013D

 23 24  0  0  0  0  0  0  0  0999 V2000
    0.6123    0.8283    2.4141 Pt  0  0  0  0  0  0  0  0  0  0  0  0
    1.7285   -0.1618    4.1149 Cl  0  0  0  0  0  0  0  0  0  0  0  0
    2.2598    0.3613    0.9347 Cl  0  0  0  0  0  0  0  0  0  0  0  0
    1.4071    2.6848    2.7871 O   0  0  0  0  0  0  0  0  0  0  0  0
   -0.4235   -0.9012    2.0220 O   0  0  0  0  0  0  0  0  0  0  0  0
   -0.3209    1.8525    0.7221 N   0  0  0  0  0  4  0  0  0  0  0  0
   -0.9590    1.1254    3.9061 N   0  0  0  0  0  4  0  0  0  0  0  0
    0.7285    3.6104    2.0367 C   0  0  0  0  0  0  0  0  0  0  0  0
    0.4611    3.0968    0.6094 C   0  0  0  0  0  0  0  0  0  0  0  0
   -1.6550   -0.8182    2.6190 C   0  0  0  0  0  0  0  0  0  0  0  0
   -1.5599   -0.2143    4.0329 C   0  0  0  0  0  0  0  0  0  0  0  0
   -1.3148    2.0496    0.8228 H   0  0  0  0  0  0  0  0  0  0  0  0
   -0.1830    1.2551   -0.0931 H   0  0  0  0  0  0  0  0  0  0  0  0
   -1.6614    1.8237    3.6692 H   0  0  0  0  0  0  0  0  0  0  0  0
   -0.4931    1.4043    4.7694 H   0  0  0  0  0  0  0  0  0  0  0  0
    1.3410    4.5229    1.9832 H   0  0  0  0  0  0  0  0  0  0  0  0
   -0.2451    3.8894    2.4993 H   0  0  0  0  0  0  0  0  0  0  0  0
   -0.0603    3.8469    0.0054 H   0  0  0  0  0  0  0  0  0  0  0  0
    1.4219    2.8496    0.1536 H   0  0  0  0  0  0  0  0  0  0  0  0
   -2.0716   -1.8341    2.6871 H   0  0  0  0  0  0  0  0  0  0  0  0
   -2.3678   -0.2056    2.0219 H   0  0  0  0  0  0  0  0  0  0  0  0
   -2.5416   -0.1718    4.5163 H   0  0  0  0  0  0  0  0  0  0  0  0
   -0.8788   -0.8338    4.6197 H   0  0  0  0  0  0  0  0  0  0  0  0
  1  4  1  0  0  0  0
  1  7  1  0  0  0  0
  1  2  1  0  0  0  0
  3  1  1  0  0  0  0
  5  1  1  0  0  0  0
  5 10  1  0  0  0  0
  6 12  1  0  0  0  0
  6  1  1  0  0  0  0
  7 11  1  0  0  0  0
  7 15  1  0  0  0  0
  8 17  1  0  0  0  0
  8  4  1  0  0  0  0
  9  6  1  0  0  0  0
  9  8  1  0  0  0  0
 10 20  1  0  0  0  0
 10 11  1  0  0  0  0
 11 22  1  0  0  0  0
 11 23  1  0  0  0  0
 13  6  1  0  0  0  0
 14  7  1  0  0  0  0
 16  8  1  0  0  0  0
 18  9  1  0  0  0  0
 19  9  1  0  0  0  0
 21 10  1  0  0  0  0
M  END
$$$$
