CSD_code = BOZZUL | q = 0 | S = 0 | Stoichiometry = C12H28Cl2N4Ni | MND = 6
 OpenBabel04212202013D

 47 50  0  0  1  0  0  0  0  0999 V2000
   -1.7270    1.7960    2.3632 Ni  0  0  0  0  0  0  0  0  0  0  0  0
   -1.7046    1.8090    4.4655 Cl  0  0  0  0  0  0  0  0  0  0  0  0
   -3.0726   -0.1077    2.6208 N   0  0  2  0  0  4  0  0  0  0  0  0
   -3.8367    2.6197    2.2752 N   0  0  1  0  0  4  0  0  0  0  0  0
   -2.4591   -1.3297    2.1346 C   0  0  0  0  0  0  0  0  0  0  0  0
   -4.3896    0.2203    2.1113 C   0  0  0  0  0  0  0  0  0  0  0  0
   -4.7885    1.5847    2.6779 C   0  0  0  0  0  0  0  0  0  0  0  0
   -4.1467    3.9047    2.9128 C   0  0  0  0  0  0  0  0  0  0  0  0
   -3.6638    5.1052    2.0978 C   0  0  0  0  0  0  0  0  0  0  0  0
   -2.1767    5.0860    1.7476 C   0  0  0  0  0  0  0  0  0  0  0  0
   -3.1133   -0.1458    3.6398 H   0  0  0  0  0  0  0  0  0  0  0  0
   -3.9216    2.7391    1.2623 H   0  0  0  0  0  0  0  0  0  0  0  0
   -2.4993   -1.3223    1.0412 H   0  0  0  0  0  0  0  0  0  0  0  0
   -2.9713   -2.2343    2.4987 H   0  0  0  0  0  0  0  0  0  0  0  0
   -5.1499   -0.5283    2.3895 H   0  0  0  0  0  0  0  0  0  0  0  0
   -4.3339    0.2718    1.0194 H   0  0  0  0  0  0  0  0  0  0  0  0
   -5.8080    1.8372    2.3473 H   0  0  0  0  0  0  0  0  0  0  0  0
   -4.7842    1.5329    3.7714 H   0  0  0  0  0  0  0  0  0  0  0  0
   -5.2377    4.0013    3.0329 H   0  0  0  0  0  0  0  0  0  0  0  0
   -3.7027    3.9095    3.9109 H   0  0  0  0  0  0  0  0  0  0  0  0
   -4.2368    5.1484    1.1670 H   0  0  0  0  0  0  0  0  0  0  0  0
   -3.8938    6.0083    2.6688 H   0  0  0  0  0  0  0  0  0  0  0  0
   -1.9667    4.1964    1.1528 H   0  0  0  0  0  0  0  0  0  0  0  0
   -1.9538    5.9603    1.1299 H   0  0  0  0  0  0  0  0  0  0  0  0
   -1.7502    1.8094    0.2608 Cl  0  0  0  0  0  0  0  0  0  0  0  0
   -0.3815   -0.1077    2.1056 N   0  0  2  0  0  4  0  0  0  0  0  0
    0.3826    2.6197    2.4511 N   0  0  1  0  0  4  0  0  0  0  0  0
   -0.9950   -1.3297    2.5919 C   0  0  0  0  0  0  0  0  0  0  0  0
   -1.2774    5.0860    2.9788 C   0  0  0  0  0  0  0  0  0  0  0  0
    0.9355    0.2203    2.6150 C   0  0  0  0  0  0  0  0  0  0  0  0
   -0.3408   -0.1459    1.0866 H   0  0  0  0  0  0  0  0  0  0  0  0
    1.3344    1.5847    2.0484 C   0  0  0  0  0  0  0  0  0  0  0  0
    0.6927    3.9047    1.8135 C   0  0  0  0  0  0  0  0  0  0  0  0
    0.4675    2.7391    3.4640 H   0  0  0  0  0  0  0  0  0  0  0  0
   -0.9548   -1.3222    3.6853 H   0  0  0  0  0  0  0  0  0  0  0  0
   -0.4828   -2.2343    2.2278 H   0  0  0  0  0  0  0  0  0  0  0  0
    0.2097    5.1053    2.6286 C   0  0  0  0  0  0  0  0  0  0  0  0
   -1.4874    4.1964    3.5736 H   0  0  0  0  0  0  0  0  0  0  0  0
   -1.5003    5.9603    3.5964 H   0  0  0  0  0  0  0  0  0  0  0  0
    1.6959   -0.5283    2.3369 H   0  0  0  0  0  0  0  0  0  0  0  0
    0.8798    0.2718    3.7069 H   0  0  0  0  0  0  0  0  0  0  0  0
    2.3539    1.8372    2.3790 H   0  0  0  0  0  0  0  0  0  0  0  0
    1.3301    1.5329    0.9549 H   0  0  0  0  0  0  0  0  0  0  0  0
    1.7836    4.0014    1.6934 H   0  0  0  0  0  0  0  0  0  0  0  0
    0.2486    3.9096    0.8154 H   0  0  0  0  0  0  0  0  0  0  0  0
    0.7827    5.1484    3.5594 H   0  0  0  0  0  0  0  0  0  0  0  0
    0.4397    6.0083    2.0576 H   0  0  0  0  0  0  0  0  0  0  0  0
  1 27  1  0  0  0  0
  1  3  1  0  0  0  0
  1  2  1  0  0  0  0
  3 11  1  1  0  0  0
  4 12  1  6  0  0  0
  4  1  1  0  0  0  0
  4  7  1  0  0  0  0
  4  8  1  0  0  0  0
  5 14  1  0  0  0  0
  5 28  1  0  0  0  0
  5  3  1  0  0  0  0
  6 15  1  0  0  0  0
  6  3  1  0  0  0  0
  6  7  1  0  0  0  0
  7 18  1  0  0  0  0
  8 19  1  0  0  0  0
  8 20  1  0  0  0  0
  9 22  1  0  0  0  0
  9  8  1  0  0  0  0
 10  9  1  0  0  0  0
 10 29  1  0  0  0  0
 13  5  1  0  0  0  0
 16  6  1  0  0  0  0
 17  7  1  0  0  0  0
 21  9  1  0  0  0  0
 23 10  1  0  0  0  0
 24 10  1  0  0  0  0
 25  1  1  0  0  0  0
 26 31  1  6  0  0  0
 26  1  1  0  0  0  0
 26 28  1  0  0  0  0
 26 30  1  0  0  0  0
 27 34  1  1  0  0  0
 28 35  1  0  0  0  0
 29 38  1  0  0  0  0
 29 39  1  0  0  0  0
 30 41  1  0  0  0  0
 32 42  1  0  0  0  0
 32 27  1  0  0  0  0
 32 30  1  0  0  0  0
 33 27  1  0  0  0  0
 33 37  1  0  0  0  0
 36 28  1  0  0  0  0
 37 29  1  0  0  0  0
 37 46  1  0  0  0  0
 40 30  1  0  0  0  0
 43 32  1  0  0  0  0
 44 33  1  0  0  0  0
 45 33  1  0  0  0  0
 47 37  1  0  0  0  0
M  END
$$$$
