CSD_code = BOZZIZ | q = 0 | S = 0 | Stoichiometry = C10H24Cl2N4Ni | MND = 6
 OpenBabel04212202013D

 41 44  0  0  1  0  0  0  0  0999 V2000
    3.1174    1.3974   -0.1550 Ni  0  0  0  0  0  0  0  0  0  0  0  0
    5.1444    1.2768   -1.0845 Cl  0  0  0  0  0  0  0  0  0  0  0  0
    1.1359    1.5860    0.8624 Cl  0  0  0  0  0  0  0  0  0  0  0  0
    3.8184    0.3566    1.2809 N   0  0  2  0  0  4  0  0  0  0  0  0
    2.1446   -0.5493   -0.9031 N   0  0  2  0  0  4  0  0  0  0  0  0
    2.4915    2.0863   -1.8792 N   0  0  1  0  0  4  0  0  0  0  0  0
    3.1984    3.6486    0.3181 N   0  0  2  0  0  4  0  0  0  0  0  0
    3.2008   -0.9759    1.2307 C   0  0  0  0  0  0  0  0  0  0  0  0
    3.0589   -1.4539   -0.2319 C   0  0  0  0  0  0  0  0  0  0  0  0
    2.1735   -0.3043   -2.3316 C   0  0  0  0  0  0  0  0  0  0  0  0
    1.6263    1.1228   -2.5600 C   0  0  0  0  0  0  0  0  0  0  0  0
    2.0232    3.4665   -1.8055 C   0  0  0  0  0  0  0  0  0  0  0  0
    3.0404    4.2790   -0.9874 C   0  0  0  0  0  0  0  0  0  0  0  0
    4.2465    4.2023    1.1609 C   0  0  0  0  0  0  0  0  0  0  0  0
    4.2241    3.5605    2.5538 C   0  0  0  0  0  0  0  0  0  0  0  0
    4.8462    2.1562    2.6653 C   0  0  0  0  0  0  0  0  0  0  0  0
    3.8826    0.9557    2.6157 C   0  0  0  0  0  0  0  0  0  0  0  0
    4.7847    0.2423    0.9558 H   0  0  0  0  0  0  0  0  0  0  0  0
    1.1924   -0.7078   -0.5875 H   0  0  0  0  0  0  0  0  0  0  0  0
    3.3916    2.0916   -2.3694 H   0  0  0  0  0  0  0  0  0  0  0  0
    2.3114    3.7484    0.8180 H   0  0  0  0  0  0  0  0  0  0  0  0
    2.2060   -0.9122    1.6813 H   0  0  0  0  0  0  0  0  0  0  0  0
    3.8031   -1.6966    1.8018 H   0  0  0  0  0  0  0  0  0  0  0  0
    4.0323   -1.4018   -0.7293 H   0  0  0  0  0  0  0  0  0  0  0  0
    2.7200   -2.5023   -0.2349 H   0  0  0  0  0  0  0  0  0  0  0  0
    3.2109   -0.3535   -2.6753 H   0  0  0  0  0  0  0  0  0  0  0  0
    1.5761   -1.0223   -2.9151 H   0  0  0  0  0  0  0  0  0  0  0  0
    0.6246    1.1923   -2.1257 H   0  0  0  0  0  0  0  0  0  0  0  0
    1.5634    1.3374   -3.6360 H   0  0  0  0  0  0  0  0  0  0  0  0
    1.0531    3.4771   -1.2997 H   0  0  0  0  0  0  0  0  0  0  0  0
    1.9085    3.9066   -2.8066 H   0  0  0  0  0  0  0  0  0  0  0  0
    4.0108    4.2654   -1.4949 H   0  0  0  0  0  0  0  0  0  0  0  0
    2.7042    5.3258   -0.9135 H   0  0  0  0  0  0  0  0  0  0  0  0
    4.1243    5.2940    1.2775 H   0  0  0  0  0  0  0  0  0  0  0  0
    5.2116    4.0218    0.6779 H   0  0  0  0  0  0  0  0  0  0  0  0
    3.1923    3.5309    2.9094 H   0  0  0  0  0  0  0  0  0  0  0  0
    4.7801    4.2247    3.2187 H   0  0  0  0  0  0  0  0  0  0  0  0
    5.3702    2.1063    3.6218 H   0  0  0  0  0  0  0  0  0  0  0  0
    5.5982    2.0405    1.8821 H   0  0  0  0  0  0  0  0  0  0  0  0
    2.8739    1.2532    2.9147 H   0  0  0  0  0  0  0  0  0  0  0  0
    4.2361    0.1911    3.3248 H   0  0  0  0  0  0  0  0  0  0  0  0
  1  7  1  0  0  0  0
  1  3  1  0  0  0  0
  1  4  1  0  0  0  0
  2  1  1  0  0  0  0
  4 18  1  6  0  0  0
  4 17  1  0  0  0  0
  5 19  1  1  0  0  0
  5  9  1  0  0  0  0
  5  1  1  0  0  0  0
  6 20  1  6  0  0  0
  6 12  1  0  0  0  0
  6  1  1  0  0  0  0
  7 21  1  1  0  0  0
  7 14  1  0  0  0  0
  8  4  1  0  0  0  0
  8 22  1  0  0  0  0
  8 23  1  0  0  0  0
  9  8  1  0  0  0  0
 10  5  1  0  0  0  0
 11 10  1  0  0  0  0
 11 28  1  0  0  0  0
 11  6  1  0  0  0  0
 12 30  1  0  0  0  0
 12 13  1  0  0  0  0
 13 33  1  0  0  0  0
 13  7  1  0  0  0  0
 14 34  1  0  0  0  0
 14 15  1  0  0  0  0
 15 16  1  0  0  0  0
 15 36  1  0  0  0  0
 15 37  1  0  0  0  0
 16 38  1  0  0  0  0
 17 16  1  0  0  0  0
 17 40  1  0  0  0  0
 17 41  1  0  0  0  0
 24  9  1  0  0  0  0
 25  9  1  0  0  0  0
 26 10  1  0  0  0  0
 27 10  1  0  0  0  0
 29 11  1  0  0  0  0
 31 12  1  0  0  0  0
 32 13  1  0  0  0  0
 35 14  1  0  0  0  0
 39 16  1  0  0  0  0
M  END
$$$$
