CSD_code = BPESNI | q = 1 | S = 0 | Stoichiometry = C16H22BrN4NiS2(1+) | MND = 6
 OpenBabel04212202013D

 46 51  0  0  1  0  0  0  0  0999 V2000
    4.5772    1.8407    1.0678 Br  0  0  0  0  0  0  0  0  0  0  0  0
    8.2603    2.0206    4.4364 C   0  0  0  0  0  0  0  0  0  0  0  0
    8.1897    1.9883    5.8203 C   0  0  0  0  0  0  0  0  0  0  0  0
    6.9478    2.0809    6.4303 C   0  0  0  0  0  0  0  0  0  0  0  0
    5.8216    2.2008    5.6299 C   0  0  1  0  0  3  0  0  0  0  0  0
    4.4385    2.3615    6.2177 C   0  0  0  0  0  0  0  0  0  0  0  0
    3.2155    0.2950    5.7450 C   0  0  0  0  0  0  0  0  0  0  0  0
    4.2993   -0.5707    5.1295 C   0  0  0  0  0  0  0  0  0  0  0  0
    1.5024   -1.0286    2.5644 C   0  0  0  0  0  0  0  0  0  0  0  0
    1.2454    0.2667    1.8139 C   0  0  0  0  0  0  0  0  0  0  0  0
    1.3175    2.6850    1.8854 C   0  0  0  0  0  0  0  0  0  0  0  0
    2.0560    3.8474    2.4876 C   0  0  2  0  0  3  0  0  0  0  0  0
    1.5494    5.1382    2.3952 C   0  0  0  0  0  0  0  0  0  0  0  0
    2.3015    6.2026    2.8577 C   0  0  0  0  0  0  0  0  0  0  0  0
    3.5514    5.9431    3.3991 C   0  0  0  0  0  0  0  0  0  0  0  0
    3.9854    4.6330    3.4689 C   0  0  0  0  0  0  0  0  0  0  0  0
    7.0839    2.1386    3.7150 C   0  0  0  0  0  0  0  0  0  0  0  0
    9.2060    1.9544    3.9246 H   0  0  0  0  0  0  0  0  0  0  0  0
    9.0832    1.8927    6.4174 H   0  0  0  0  0  0  0  0  0  0  0  0
    6.8549    2.0620    7.5051 H   0  0  0  0  0  0  0  0  0  0  0  0
    4.4255    1.9808    7.2474 H   0  0  0  0  0  0  0  0  0  0  0  0
    4.2195    3.4346    6.2536 H   0  0  0  0  0  0  0  0  0  0  0  0
    2.5226    2.1891    5.5979 H   0  0  0  0  0  0  0  0  0  0  0  0
    3.2162    0.1499    6.8364 H   0  0  0  0  0  0  0  0  0  0  0  0
    2.2399   -0.0244    5.3689 H   0  0  0  0  0  0  0  0  0  0  0  0
    5.2787   -0.3431    5.5498 H   0  0  0  0  0  0  0  0  0  0  0  0
    4.0909   -1.6304    5.2651 H   0  0  0  0  0  0  0  0  0  0  0  0
    1.2015   -0.9708    3.6102 H   0  0  0  0  0  0  0  0  0  0  0  0
    0.9637   -1.8496    2.0932 H   0  0  0  0  0  0  0  0  0  0  0  0
    1.8688    0.2927    0.9142 H   0  0  0  0  0  0  0  0  0  0  0  0
    0.1909    0.2857    1.4998 H   0  0  0  0  0  0  0  0  0  0  0  0
    0.9580    1.4351    3.4456 H   0  0  0  0  0  0  0  0  0  0  0  0
    1.7239    2.5553    0.8733 H   0  0  0  0  0  0  0  0  0  0  0  0
    0.2474    2.9106    1.7956 H   0  0  0  0  0  0  0  0  0  0  0  0
    0.5820    5.2982    1.9468 H   0  0  0  0  0  0  0  0  0  0  0  0
    1.9281    7.2117    2.7841 H   0  0  0  0  0  0  0  0  0  0  0  0
    4.1854    6.7395    3.7518 H   0  0  0  0  0  0  0  0  0  0  0  0
    4.9654    4.3960    3.8602 H   0  0  0  0  0  0  0  0  0  0  0  0
    7.0876    2.1683    2.6332 H   0  0  0  0  0  0  0  0  0  0  0  0
    3.8479    1.8253    3.2222 Ni  0  0  0  0  0  0  0  0  0  0  0  0
    3.4006    1.7107    5.4024 N   0  0  2  0  0  4  0  0  0  0  0  0
    1.5691    1.4421    2.6263 N   0  0  2  0  0  4  0  0  0  0  0  0
    3.2513    3.6088    3.0393 N   0  0  0  0  0  0  0  0  0  0  0  0
    5.8927    2.2279    4.2986 N   0  0  0  0  0  0  0  0  0  0  0  0
    4.4715   -0.2588    3.3253 S   0  0  2  0  0  3  0  0  0  0  0  0
    3.2420   -1.6200    2.4647 S   0  0  0  0  0  0  0  0  0  0  0  0
  1 40  1  0  0  0  0
  2  3  1  0  0  0  0
  3 19  1  0  0  0  0
  3  4  2  0  0  0  0
  4 20  1  0  0  0  0
  5  6  1  0  0  0  0
  5  4  1  1  0  0  0
  6 22  1  0  0  0  0
  6 21  1  0  0  0  0
  7 24  1  0  0  0  0
  8 27  1  0  0  0  0
  8 26  1  0  0  0  0
  8  7  1  0  0  0  0
  9 28  1  0  0  0  0
 10  9  1  0  0  0  0
 10 42  1  0  0  0  0
 11 12  1  0  0  0  0
 11 42  1  0  0  0  0
 12 13  1  6  0  0  0
 12 43  1  0  0  0  0
 13 14  2  0  0  0  0
 14 15  1  0  0  0  0
 15 16  2  0  0  0  0
 15 37  1  0  0  0  0
 16 38  1  0  0  0  0
 17 44  1  0  0  0  0
 17  2  2  0  0  0  0
 18  2  1  0  0  0  0
 25  7  1  0  0  0  0
 29  9  1  0  0  0  0
 30 10  1  0  0  0  0
 31 10  1  0  0  0  0
 33 11  1  0  0  0  0
 34 11  1  0  0  0  0
 35 13  1  0  0  0  0
 36 14  1  0  0  0  0
 39 17  1  0  0  0  0
 40 45  1  0  0  0  0
 40 44  1  0  0  0  0
 40 41  1  0  0  0  0
 41 23  1  1  0  0  0
 41  7  1  0  0  0  0
 41  6  1  0  0  0  0
 42 40  1  0  0  0  0
 42 32  1  1  0  0  0
 43 40  1  0  0  0  0
 43 16  1  0  0  0  0
 44  5  1  0  0  0  0
 45 46  1  6  0  0  0
 45  8  1  0  0  0  0
 46  9  1  0  0  0  0
M  END
$$$$
