CSD_code = BTETHG | q = 0 | S = 0 | Stoichiometry = C10Br2HgN2S4 | MND = 4
 OpenBabel04212202013D

 19 17  0  0  0  0  0  0  0  0999 V2000
   -0.0991    2.3421    3.1131 Hg  0  0  0  0  0  0  0  0  0  0  0  0
   -1.1712    2.8783    5.2512 Br  0  0  0  0  0  0  0  0  0  0  0  0
    0.9521    1.7073    0.9922 Br  0  0  0  0  0  0  0  0  0  0  0  0
   -1.2478    4.9137    1.6687 S   0  0  0  0  0  0  0  0  0  0  0  0
    0.2462    7.1132    3.1214 S   0  0  0  0  0  0  0  0  0  0  0  0
    1.4402    6.5952    1.5501 S   0  0  0  0  0  0  0  0  0  0  0  0
    2.0506    4.5830    3.7317 S   0  0  0  0  0  0  0  0  0  0  0  0
   -2.0987    6.1864    3.8399 N   0  0  0  0  0  0  0  0  0  0  0  0
    3.1858    4.6515    1.3304 N   0  0  0  0  0  0  0  0  0  0  0  0
   -1.1225    6.0116    2.8894 C   0  0  0  0  0  0  0  0  0  0  0  0
   -3.1102    5.3165    3.9423 C   0  0  0  0  0  3  0  0  0  0  0  0
   -4.1647    4.7948    3.5977 C   0  0  0  0  0  2  0  0  0  0  0  0
   -2.0190    7.2215    4.6894 C   0  0  0  0  0  0  0  0  0  0  0  0
   -1.5809    7.8785    5.6282 C   0  0  0  0  0  3  0  0  0  0  0  0
    2.2829    5.1860    2.2172 C   0  0  0  0  0  0  0  0  0  0  0  0
    3.4592    5.3021    0.1898 C   0  0  0  0  0  0  0  0  0  0  0  0
    3.2503    5.7384   -0.9376 C   0  0  0  0  0  3  0  0  0  0  0  0
    3.7698    3.4744    1.5826 C   0  0  0  0  0  3  0  0  0  0  0  0
    4.5590    2.7249    2.1471 C   0  0  0  0  0  2  0  0  0  0  0  0
  1  2  1  0  0  0  0
  3  1  1  0  0  0  0
  4 10  2  0  0  0  0
  6 15  1  0  0  0  0
  6  5  1  0  0  0  0
  8 11  1  0  0  0  0
  8 13  1  0  0  0  0
  9 18  1  0  0  0  0
  9 15  1  0  0  0  0
 10  5  1  0  0  0  0
 10  8  1  0  0  0  0
 12 11  2  0  0  0  0
 13 14  3  0  0  0  0
 15  7  2  0  0  0  0
 16  9  1  0  0  0  0
 17 16  3  0  0  0  0
 18 19  2  0  0  0  0
M  END
$$$$
