CSD_code = BTPPTI | q = 0 | S = 0 | Stoichiometry = C44H28Br2N4Ti | MND = 6
 OpenBabel04212202013D

 79 90  0  0  0  0  0  0  0  0999 V2000
   -0.0000   -0.0000   -0.0000 Ti  0  0  0  0  0  0  0  0  0  0  0  0
   -0.0000   -0.0000    2.5203 Br  0  0  0  0  0  0  0  0  0  0  0  0
    1.9518    0.5439    0.0000 N   0  0  0  0  0  4  0  0  0  0  0  0
    2.4445    1.8169   -0.0000 C   0  0  0  0  0  0  0  0  0  0  0  0
    3.8796    1.7848   -0.0000 C   0  0  0  0  0  0  0  0  0  0  0  0
    4.2436    0.4789    0.0000 C   0  0  0  0  0  0  0  0  0  0  0  0
    3.0320   -0.2908    0.0000 C   0  0  0  0  0  0  0  0  0  0  0  0
    1.6856    2.9881   -0.0000 C   0  0  0  0  0  0  0  0  0  0  0  0
    2.4156    4.2807   -0.0000 C   0  0  0  0  0  0  0  0  0  0  0  0
    2.7594    4.8883    1.2015 C   0  0  0  0  0  0  0  0  0  0  0  0
    3.4414    6.0923    1.1989 C   0  0  0  0  0  0  0  0  0  0  0  0
    3.7833    6.6955   -0.0000 C   0  0  0  0  0  0  0  0  0  0  0  0
    4.5100    2.6526   -0.0000 H   0  0  0  0  0  0  0  0  0  0  0  0
    5.2320    0.0623    0.0000 H   0  0  0  0  0  0  0  0  0  0  0  0
    2.4899    4.4123    2.1331 H   0  0  0  0  0  0  0  0  0  0  0  0
    3.7064    6.5600    2.1355 H   0  0  0  0  0  0  0  0  0  0  0  0
    4.3158    7.6348   -0.0000 H   0  0  0  0  0  0  0  0  0  0  0  0
   -0.0000   -0.0000   -2.5203 Br  0  0  0  0  0  0  0  0  0  0  0  0
   -1.9518   -0.5439    0.0000 N   0  0  0  0  0  4  0  0  0  0  0  0
   -0.5439    1.9518   -0.0000 N   0  0  0  0  0  0  0  0  0  0  0  0
    0.5439   -1.9518   -0.0000 N   0  0  0  0  0  0  0  0  0  0  0  0
    2.9881   -1.6856    0.0000 C   0  0  0  0  0  0  0  0  0  0  0  0
    0.2908    3.0320   -0.0000 C   0  0  0  0  0  0  0  0  0  0  0  0
    2.7594    4.8883   -1.2016 C   0  0  0  0  0  0  0  0  0  0  0  0
    3.4414    6.0923   -1.1989 C   0  0  0  0  0  0  0  0  0  0  0  0
   -2.4445   -1.8169   -0.0000 C   0  0  0  0  0  0  0  0  0  0  0  0
   -3.0320    0.2908    0.0000 C   0  0  0  0  0  0  0  0  0  0  0  0
   -1.8169    2.4445    0.0000 C   0  0  0  0  0  0  0  0  0  0  0  0
    1.8169   -2.4445    0.0000 C   0  0  0  0  0  0  0  0  0  0  0  0
   -0.2908   -3.0320   -0.0000 C   0  0  0  0  0  0  0  0  0  0  0  0
    4.2807   -2.4156    0.0000 C   0  0  0  0  0  0  0  0  0  0  0  0
   -0.4789    4.2436   -0.0000 C   0  0  0  0  0  0  0  0  0  0  0  0
    2.4899    4.4123   -2.1332 H   0  0  0  0  0  0  0  0  0  0  0  0
    3.7064    6.5600   -2.1355 H   0  0  0  0  0  0  0  0  0  0  0  0
   -3.8796   -1.7848   -0.0000 C   0  0  0  0  0  0  0  0  0  0  0  0
   -1.6856   -2.9880   -0.0000 C   0  0  0  0  0  0  0  0  0  0  0  0
   -4.2436   -0.4789    0.0000 C   0  0  0  0  0  0  0  0  0  0  0  0
   -2.9881    1.6856    0.0000 C   0  0  0  0  0  0  0  0  0  0  0  0
   -1.7848    3.8796    0.0000 C   0  0  0  0  0  0  0  0  0  0  0  0
    1.7848   -3.8796    0.0000 C   0  0  0  0  0  0  0  0  0  0  0  0
    0.4789   -4.2436   -0.0000 C   0  0  0  0  0  0  0  0  0  0  0  0
    4.8883   -2.7594   -1.2015 C   0  0  0  0  0  0  0  0  0  0  0  0
    4.8883   -2.7594    1.2016 C   0  0  0  0  0  0  0  0  0  0  0  0
   -0.0623    5.2320   -0.0000 H   0  0  0  0  0  0  0  0  0  0  0  0
   -4.5100   -2.6526   -0.0000 H   0  0  0  0  0  0  0  0  0  0  0  0
   -2.4156   -4.2807   -0.0000 C   0  0  0  0  0  0  0  0  0  0  0  0
   -5.2320   -0.0623    0.0000 H   0  0  0  0  0  0  0  0  0  0  0  0
   -4.2807    2.4156    0.0000 C   0  0  0  0  0  0  0  0  0  0  0  0
   -2.6526    4.5100    0.0000 H   0  0  0  0  0  0  0  0  0  0  0  0
    2.6526   -4.5100    0.0000 H   0  0  0  0  0  0  0  0  0  0  0  0
    0.0623   -5.2320   -0.0000 H   0  0  0  0  0  0  0  0  0  0  0  0
    6.0923   -3.4414   -1.1989 C   0  0  0  0  0  0  0  0  0  0  0  0
    4.4123   -2.4899   -2.1331 H   0  0  0  0  0  0  0  0  0  0  0  0
    6.0923   -3.4414    1.1989 C   0  0  0  0  0  0  0  0  0  0  0  0
    4.4123   -2.4899    2.1332 H   0  0  0  0  0  0  0  0  0  0  0  0
   -2.7594   -4.8883   -1.2016 C   0  0  0  0  0  0  0  0  0  0  0  0
   -2.7594   -4.8883    1.2015 C   0  0  0  0  0  0  0  0  0  0  0  0
   -4.8883    2.7594    1.2016 C   0  0  0  0  0  0  0  0  0  0  0  0
   -4.8883    2.7594   -1.2015 C   0  0  0  0  0  0  0  0  0  0  0  0
    6.6955   -3.7833    0.0000 C   0  0  0  0  0  0  0  0  0  0  0  0
    6.5600   -3.7064   -2.1355 H   0  0  0  0  0  0  0  0  0  0  0  0
    6.5600   -3.7064    2.1355 H   0  0  0  0  0  0  0  0  0  0  0  0
   -3.4414   -6.0923   -1.1989 C   0  0  0  0  0  0  0  0  0  0  0  0
   -2.4899   -4.4123   -2.1332 H   0  0  0  0  0  0  0  0  0  0  0  0
   -3.4414   -6.0923    1.1989 C   0  0  0  0  0  0  0  0  0  0  0  0
   -2.4899   -4.4123    2.1331 H   0  0  0  0  0  0  0  0  0  0  0  0
   -6.0923    3.4414    1.1989 C   0  0  0  0  0  0  0  0  0  0  0  0
   -4.4123    2.4899    2.1332 H   0  0  0  0  0  0  0  0  0  0  0  0
   -6.0923    3.4414   -1.1989 C   0  0  0  0  0  0  0  0  0  0  0  0
   -4.4123    2.4899   -2.1331 H   0  0  0  0  0  0  0  0  0  0  0  0
    7.6348   -4.3158    0.0000 H   0  0  0  0  0  0  0  0  0  0  0  0
   -3.7833   -6.6955   -0.0000 C   0  0  0  0  0  0  0  0  0  0  0  0
   -3.7064   -6.5600   -2.1355 H   0  0  0  0  0  0  0  0  0  0  0  0
   -3.7064   -6.5600    2.1355 H   0  0  0  0  0  0  0  0  0  0  0  0
   -6.6955    3.7833    0.0000 C   0  0  0  0  0  0  0  0  0  0  0  0
   -6.5600    3.7064    2.1355 H   0  0  0  0  0  0  0  0  0  0  0  0
   -6.5600    3.7064   -2.1355 H   0  0  0  0  0  0  0  0  0  0  0  0
   -4.3158   -7.6348   -0.0000 H   0  0  0  0  0  0  0  0  0  0  0  0
   -7.6348    4.3158    0.0000 H   0  0  0  0  0  0  0  0  0  0  0  0
  1  3  1  0  0  0  0
  1 19  1  0  0  0  0
  1  2  1  0  0  0  0
  3  7  1  0  0  0  0
  4  5  1  0  0  0  0
  4  3  2  0  0  0  0
  5  6  2  0  0  0  0
  6  7  1  0  0  0  0
  6 14  1  0  0  0  0
  7 22  2  0  0  0  0
  8 23  2  0  0  0  0
  8  4  1  0  0  0  0
  9  8  1  0  0  0  0
  9 10  1  0  0  0  0
 10 15  1  0  0  0  0
 11 10  2  0  0  0  0
 11 16  1  0  0  0  0
 12 11  1  0  0  0  0
 13  5  1  0  0  0  0
 17 12  1  0  0  0  0
 18  1  1  0  0  0  0
 19 27  2  0  0  0  0
 20  1  1  0  0  0  0
 20 28  1  0  0  0  0
 21  1  1  0  0  0  0
 21 29  1  0  0  0  0
 22 31  1  0  0  0  0
 23 32  1  0  0  0  0
 23 20  1  0  0  0  0
 24 25  1  0  0  0  0
 24  9  2  0  0  0  0
 25 12  2  0  0  0  0
 26 35  1  0  0  0  0
 26 19  1  0  0  0  0
 27 38  1  0  0  0  0
 28 38  2  0  0  0  0
 29 22  1  0  0  0  0
 30 41  2  0  0  0  0
 30 21  1  0  0  0  0
 31 43  1  0  0  0  0
 32 39  2  0  0  0  0
 33 24  1  0  0  0  0
 34 25  1  0  0  0  0
 35 37  2  0  0  0  0
 36 30  1  0  0  0  0
 36 26  2  0  0  0  0
 37 27  1  0  0  0  0
 37 47  1  0  0  0  0
 38 48  1  0  0  0  0
 39 28  1  0  0  0  0
 39 49  1  0  0  0  0
 40 29  2  0  0  0  0
 40 50  1  0  0  0  0
 41 40  1  0  0  0  0
 42 52  1  0  0  0  0
 42 31  2  0  0  0  0
 43 55  1  0  0  0  0
 44 32  1  0  0  0  0
 45 35  1  0  0  0  0
 46 36  1  0  0  0  0
 46 57  1  0  0  0  0
 48 58  1  0  0  0  0
 51 41  1  0  0  0  0
 52 60  2  0  0  0  0
 53 42  1  0  0  0  0
 54 43  2  0  0  0  0
 54 62  1  0  0  0  0
 56 63  1  0  0  0  0
 56 46  2  0  0  0  0
 57 66  1  0  0  0  0
 58 68  1  0  0  0  0
 59 69  1  0  0  0  0
 59 48  2  0  0  0  0
 60 71  1  0  0  0  0
 60 54  1  0  0  0  0
 61 52  1  0  0  0  0
 63 72  2  0  0  0  0
 64 56  1  0  0  0  0
 65 57  2  0  0  0  0
 65 74  1  0  0  0  0
 67 58  2  0  0  0  0
 67 76  1  0  0  0  0
 69 75  2  0  0  0  0
 70 59  1  0  0  0  0
 72 65  1  0  0  0  0
 73 63  1  0  0  0  0
 75 79  1  0  0  0  0
 75 67  1  0  0  0  0
 77 69  1  0  0  0  0
 78 72  1  0  0  0  0
M  END
$$$$
