CSD_code = BUBCEG | q = 1 | S = 0 | Stoichiometry = C21H23ClCuN4(1+) | MND = 5
 OpenBabel04212202013D

 50 55  0  0  1  0  0  0  0  0999 V2000
    2.7126    9.3069    4.7090 Cu  0  0  0  0  0  0  0  0  0  0  0  0
    3.2223   10.3368    6.6380 N   0  0  2  0  0  4  0  0  0  0  0  0
    2.6198    7.5956    5.5941 N   0  0  0  0  0  0  0  0  0  0  0  0
    2.4282   11.0573    3.8876 N   0  0  0  0  0  0  0  0  0  0  0  0
    4.7026    8.9930    4.0891 N   0  0  0  0  0  0  0  0  0  0  0  0
    0.7901    8.7496    3.5882 Cl  0  0  0  0  0  0  0  0  0  0  0  0
    2.6887    6.5526    4.7617 C   0  0  0  0  0  3  0  0  0  0  0  0
    1.7181    5.5832    4.6759 C   0  0  0  0  0  0  0  0  0  0  0  0
    0.5327    5.7414    5.4154 C   0  0  0  0  0  0  0  0  0  0  0  0
    0.4283    6.7890    6.2798 C   0  0  0  0  0  0  0  0  0  0  0  0
    1.5362    7.6749    6.4477 C   0  0  0  0  0  0  0  0  0  0  0  0
    1.5902    8.6206    7.4436 C   0  0  0  0  0  3  0  0  0  0  0  0
    2.8415    9.3840    7.7031 C   0  0  0  0  0  0  0  0  0  0  0  0
    2.8345   11.3408    2.6570 C   0  0  0  0  0  3  0  0  0  0  0  0
    2.3248   12.4015    1.9320 C   0  0  0  0  0  0  0  0  0  0  0  0
    1.3497   13.1934    2.5189 C   0  0  0  0  0  0  0  0  0  0  0  0
    0.9498   12.9065    3.8128 C   0  0  0  0  0  0  0  0  0  0  0  0
    1.5048   11.8187    4.4751 C   0  0  0  0  0  0  0  0  0  0  0  0
    1.1438   11.4890    5.8902 C   0  0  0  0  0  0  0  0  0  0  0  0
    2.4077   11.5515    6.7576 C   0  0  0  0  0  0  0  0  0  0  0  0
    4.8494    8.6913    2.8021 C   0  0  0  0  0  3  0  0  0  0  0  0
    6.0740    8.7202    2.1603 C   0  0  0  0  0  0  0  0  0  0  0  0
    7.1895    9.0947    2.8957 C   0  0  0  0  0  0  0  0  0  0  0  0
    7.0347    9.3848    4.2402 C   0  0  0  0  0  0  0  0  0  0  0  0
    5.7703    9.3104    4.8190 C   0  0  0  0  0  0  0  0  0  0  0  0
    5.5885    9.5046    6.2956 C   0  0  0  0  0  0  0  0  0  0  0  0
    4.6542   10.6552    6.6958 C   0  0  0  0  0  0  0  0  0  0  0  0
    3.5898    6.4943    4.1660 H   0  0  0  0  0  0  0  0  0  0  0  0
    1.8623    4.7226    4.0439 H   0  0  0  0  0  0  0  0  0  0  0  0
   -0.2773    5.0404    5.2899 H   0  0  0  0  0  0  0  0  0  0  0  0
   -0.4722    6.9755    6.8427 H   0  0  0  0  0  0  0  0  0  0  0  0
    0.7532    8.7426    8.1114 H   0  0  0  0  0  0  0  0  0  0  0  0
    3.6421    8.6428    7.7702 H   0  0  0  0  0  0  0  0  0  0  0  0
    2.7684    9.9057    8.6657 H   0  0  0  0  0  0  0  0  0  0  0  0
    3.5897   10.6939    2.2362 H   0  0  0  0  0  0  0  0  0  0  0  0
    2.6745   12.5898    0.9305 H   0  0  0  0  0  0  0  0  0  0  0  0
    0.9100   14.0179    1.9797 H   0  0  0  0  0  0  0  0  0  0  0  0
    0.2012   13.5066    4.3048 H   0  0  0  0  0  0  0  0  0  0  0  0
    0.4075   12.2022    6.2596 H   0  0  0  0  0  0  0  0  0  0  0  0
    0.7093   10.4873    5.9363 H   0  0  0  0  0  0  0  0  0  0  0  0
    2.9940   12.4194    6.4452 H   0  0  0  0  0  0  0  0  0  0  0  0
    2.1190   11.7157    7.8022 H   0  0  0  0  0  0  0  0  0  0  0  0
    3.9483    8.3960    2.2805 H   0  0  0  0  0  0  0  0  0  0  0  0
    6.1515    8.4562    1.1184 H   0  0  0  0  0  0  0  0  0  0  0  0
    8.1631    9.1435    2.4329 H   0  0  0  0  0  0  0  0  0  0  0  0
    7.8876    9.6547    4.8427 H   0  0  0  0  0  0  0  0  0  0  0  0
    6.5651    9.6984    6.7408 H   0  0  0  0  0  0  0  0  0  0  0  0
    5.2190    8.5607    6.6996 H   0  0  0  0  0  0  0  0  0  0  0  0
    4.8383   11.4918    6.0177 H   0  0  0  0  0  0  0  0  0  0  0  0
    4.9206   10.9794    7.7118 H   0  0  0  0  0  0  0  0  0  0  0  0
  1  3  1  0  0  0  0
  1  2  1  0  0  0  0
  2 27  1  1  0  0  0
  2 20  1  0  0  0  0
  2 13  1  0  0  0  0
  3 11  1  0  0  0  0
  4 18  1  0  0  0  0
  4  1  1  0  0  0  0
  5  1  1  0  0  0  0
  5 25  1  0  0  0  0
  6  1  1  0  0  0  0
  7  3  1  0  0  0  0
  8  7  1  0  0  0  0
  8  9  2  0  0  0  0
  9 10  1  0  0  0  0
 10 11  2  0  0  0  0
 10 31  1  0  0  0  0
 11 12  1  0  0  0  0
 12 13  1  0  0  0  0
 12 32  1  0  0  0  0
 13 33  1  0  0  0  0
 13 34  1  0  0  0  0
 14  4  1  0  0  0  0
 15 16  2  0  0  0  0
 15 14  1  0  0  0  0
 16 17  1  0  0  0  0
 17 38  1  0  0  0  0
 17 18  2  0  0  0  0
 18 19  1  0  0  0  0
 19 40  1  0  0  0  0
 19 39  1  0  0  0  0
 19 20  1  0  0  0  0
 20 42  1  0  0  0  0
 21  5  1  0  0  0  0
 22 21  1  0  0  0  0
 22 23  2  0  0  0  0
 23 24  1  0  0  0  0
 24 25  2  0  0  0  0
 24 46  1  0  0  0  0
 25 26  1  0  0  0  0
 26 27  1  0  0  0  0
 26 48  1  0  0  0  0
 26 47  1  0  0  0  0
 27 50  1  0  0  0  0
 28  7  1  0  0  0  0
 29  8  1  0  0  0  0
 30  9  1  0  0  0  0
 35 14  1  0  0  0  0
 36 15  1  0  0  0  0
 37 16  1  0  0  0  0
 41 20  1  0  0  0  0
 43 21  1  0  0  0  0
 44 22  1  0  0  0  0
 45 23  1  0  0  0  0
 49 27  1  0  0  0  0
M  END
$$$$
