CSD_code = BUBFUB | q = 0 | S = 0 | Stoichiometry = C20H18Cl2N2O4Zn | MND = 4
 OpenBabel04212202013D

 47 50  0  0  0  0  0  0  0  0999 V2000
    0.1711    5.8172    9.9826 Zn  0  0  0  0  0  0  0  0  0  0  0  0
   -1.9523    6.1983   10.5401 Cl  0  0  0  0  0  0  0  0  0  0  0  0
    1.2779    4.7514    8.3415 Cl  0  0  0  0  0  0  0  0  0  0  0  0
   -0.6325    3.4703   10.6902 O   0  0  0  0  0  0  0  0  0  0  0  0
   -0.0720    8.3131    9.1929 O   0  0  0  0  0  0  0  0  0  0  0  0
   -1.9354    8.4706    6.2287 O   0  0  0  0  0  0  0  0  0  0  0  0
   -0.9379    6.7569    7.2929 O   0  0  0  0  0  0  0  0  0  0  0  0
    1.2828    4.9774   11.7143 N   0  0  0  0  0  0  0  0  0  0  0  0
    1.9406    7.0616   10.2317 N   0  0  0  0  0  0  0  0  0  0  0  0
   -0.3357    3.2719   11.9894 C   0  0  0  0  0  0  0  0  0  0  0  0
   -1.0048    2.3558   12.7887 C   0  0  0  0  0  0  0  0  0  0  0  0
   -1.8414    1.8064   12.3804 H   0  0  0  0  0  0  0  0  0  0  0  0
   -0.6102    2.1572   14.0996 C   0  0  0  0  0  0  0  0  0  0  0  0
   -1.1427    1.4484   14.7147 H   0  0  0  0  0  0  0  0  0  0  0  0
    0.4576    2.8683   14.6270 C   0  0  0  0  0  0  0  0  0  0  0  0
    0.7548    2.7159   15.6529 H   0  0  0  0  0  0  0  0  0  0  0  0
    1.1307    3.7853   13.8457 C   0  0  0  0  0  0  0  0  0  0  0  0
    1.9309    4.3764   14.2655 H   0  0  0  0  0  0  0  0  0  0  0  0
    0.7416    4.0064   12.5236 C   0  0  0  0  0  0  0  0  0  0  0  0
    2.4978    5.3589   11.7421 C   0  0  0  0  0  3  0  0  0  0  0  0
    3.2576    4.8835   12.3647 H   0  0  0  0  0  0  0  0  0  0  0  0
    2.9126    6.4205   10.8501 C   0  0  0  0  0  0  0  0  0  0  0  0
    4.2710    6.7124   10.6003 C   0  0  0  0  0  0  0  0  0  0  0  0
    5.0373    6.1799   11.1424 H   0  0  0  0  0  0  0  0  0  0  0  0
    4.5867    7.6338    9.6402 C   0  0  0  0  0  0  0  0  0  0  0  0
    5.6164    7.8520    9.3966 H   0  0  0  0  0  0  0  0  0  0  0  0
    3.5577    8.2984    8.9377 C   0  0  0  0  0  0  0  0  0  0  0  0
    2.2236    7.9882    9.3138 C   0  0  0  0  0  0  0  0  0  0  0  0
    1.1268    8.6317    8.6679 C   0  0  0  0  0  0  0  0  0  0  0  0
    1.3773    9.4879    7.6208 C   0  0  0  0  0  0  0  0  0  0  0  0
    0.5701    9.9493    7.0741 H   0  0  0  0  0  0  0  0  0  0  0  0
    2.6991    9.7705    7.2448 C   0  0  0  0  0  0  0  0  0  0  0  0
    2.8622   10.4525    6.4239 H   0  0  0  0  0  0  0  0  0  0  0  0
    3.7703    9.2139    7.8915 C   0  0  0  0  0  3  0  0  0  0  0  0
    4.7809    9.4526    7.5977 H   0  0  0  0  0  0  0  0  0  0  0  0
   -1.2503    8.7116    8.5315 C   0  0  0  0  0  0  0  0  0  0  0  0
   -1.2964    9.7952    8.3804 H   0  0  0  0  0  0  0  0  0  0  0  0
   -2.0614    8.3915    9.1961 H   0  0  0  0  0  0  0  0  0  0  0  0
   -1.4197    7.9811    7.1995 C   0  0  0  0  0  0  0  0  0  0  0  0
   -0.9702    5.9361    6.1199 C   0  0  0  0  0  0  0  0  0  0  0  0
   -0.9775    4.9122    6.4944 H   0  0  0  0  0  0  0  0  0  0  0  0
   -1.8891    6.1542    5.5665 H   0  0  0  0  0  0  0  0  0  0  0  0
    0.2601    6.1840    5.2620 C   0  0  0  0  0  0  0  0  0  0  0  0
    0.2350    5.5301    4.3954 H   0  0  0  0  0  0  0  0  0  0  0  0
    1.1525    5.9681    5.8446 H   0  0  0  0  0  0  0  0  0  0  0  0
    0.2858    7.2183    4.9251 H   0  0  0  0  0  0  0  0  0  0  0  0
   -1.4816    3.0719   10.4582 H   0  0  0  0  0  0  0  0  0  0  0  0
  1  9  1  0  0  0  0
  1  2  1  0  0  0  0
  1  8  1  0  0  0  0
  3  1  1  0  0  0  0
  4 10  1  0  0  0  0
  6 39  2  0  0  0  0
  8 20  1  0  0  0  0
  8 19  1  0  0  0  0
  9 22  1  0  0  0  0
 10 19  2  0  0  0  0
 10 11  1  0  0  0  0
 11 13  2  0  0  0  0
 12 11  1  0  0  0  0
 13 15  1  0  0  0  0
 13 14  1  0  0  0  0
 15 16  1  0  0  0  0
 17 18  1  0  0  0  0
 17 15  2  0  0  0  0
 19 17  1  0  0  0  0
 20 21  1  0  0  0  0
 22 20  1  0  0  0  0
 23 22  2  0  0  0  0
 23 24  1  0  0  0  0
 25 23  1  0  0  0  0
 26 25  1  0  0  0  0
 27 28  1  0  0  0  0
 27 25  2  0  0  0  0
 28  9  1  0  0  0  0
 29  5  1  0  0  0  0
 29 28  2  0  0  0  0
 30 29  1  0  0  0  0
 31 30  1  0  0  0  0
 32 30  2  0  0  0  0
 32 34  1  0  0  0  0
 33 32  1  0  0  0  0
 34 27  1  0  0  0  0
 35 34  1  0  0  0  0
 36  5  1  0  0  0  0
 36 38  1  0  0  0  0
 37 36  1  0  0  0  0
 39  7  1  0  0  0  0
 39 36  1  0  0  0  0
 40 41  1  0  0  0  0
 40  7  1  0  0  0  0
 42 40  1  0  0  0  0
 43 45  1  0  0  0  0
 43 40  1  0  0  0  0
 44 43  1  0  0  0  0
 46 43  1  0  0  0  0
 47  4  1  0  0  0  0
M  END
$$$$
