CSD_code = BUBLEQ | q = 0 | S = 0 | Stoichiometry = C18H20Cl2NNiO2P | MND = 4
 OpenBabel04212202013D

 45 48  0  0  1  0  0  0  0  0999 V2000
    5.2731    1.9875    5.2003 Ni  0  0  0  0  0  0  0  0  0  0  0  0
    7.1576    2.8682    5.3292 P   0  0  0  0  0  4  0  0  0  0  0  0
    6.2683    0.3979    4.3248 Cl  0  0  0  0  0  0  0  0  0  0  0  0
    4.1822    3.6449    5.6418 Cl  0  0  0  0  0  0  0  0  0  0  0  0
    5.5913    1.1384    7.3339 N   0  0  1  0  0  0  0  0  0  0  0  0
    6.7278   -0.1822    8.7223 O   0  0  0  0  0  0  0  0  0  0  0  0
    8.1116    2.1772    6.4359 O   0  0  0  0  0  0  0  0  0  0  0  0
    4.5741    0.6891    8.2767 C   0  0  0  0  0  0  0  0  0  0  0  0
    3.4706   -0.0142    7.4915 C   0  0  0  0  0  0  0  0  0  0  0  0
    3.0803    0.6791    6.7457 H   0  0  0  0  0  0  0  0  0  0  0  0
    2.6613   -0.3173    8.1503 H   0  0  0  0  0  0  0  0  0  0  0  0
    3.8656   -0.8890    6.9781 H   0  0  0  0  0  0  0  0  0  0  0  0
    4.0253    1.9073    9.0171 C   0  0  0  0  0  0  0  0  0  0  0  0
    4.8072    2.3774    9.6099 H   0  0  0  0  0  0  0  0  0  0  0  0
    3.2083    1.6151    9.6714 H   0  0  0  0  0  0  0  0  0  0  0  0
    3.6643    2.6300    8.2886 H   0  0  0  0  0  0  0  0  0  0  0  0
    5.3809   -0.2697    9.1972 C   0  0  0  0  0  0  0  0  0  0  0  0
    5.3637    0.0356   10.2456 H   0  0  0  0  0  0  0  0  0  0  0  0
    5.0514   -1.3086    9.1147 H   0  0  0  0  0  0  0  0  0  0  0  0
    6.7051    0.6275    7.6548 C   0  0  1  0  0  3  0  0  0  0  0  0
    7.9959    0.8557    6.9299 C   0  0  0  0  0  0  0  0  0  0  0  0
    8.8294    0.7103    7.6227 H   0  0  0  0  0  0  0  0  0  0  0  0
    8.0606    0.1251    6.1130 H   0  0  0  0  0  0  0  0  0  0  0  0
    8.1179    2.9034    3.7894 C   0  0  0  0  0  0  0  0  0  0  0  0
    9.5045    2.8498    3.8029 C   0  0  0  0  0  0  0  0  0  0  0  0
   10.0241    2.7653    4.7463 H   0  0  0  0  0  0  0  0  0  0  0  0
   10.1992    2.9004    2.6071 C   0  0  0  0  0  0  0  0  0  0  0  0
   11.2779    2.8502    2.6092 H   0  0  0  0  0  0  0  0  0  0  0  0
    9.5132    3.0135    1.4082 C   0  0  0  0  0  0  0  0  0  0  0  0
   10.0601    3.0502    0.4776 H   0  0  0  0  0  0  0  0  0  0  0  0
    8.1283    3.0719    1.3970 C   0  0  0  0  0  0  0  0  0  0  0  0
    7.5971    3.1548    0.4605 H   0  0  0  0  0  0  0  0  0  0  0  0
    7.4294    3.0127    2.5881 C   0  0  0  0  0  0  0  0  0  0  0  0
    6.3446    3.0378    2.6043 H   0  0  0  0  0  0  0  0  0  0  0  0
    7.2874    4.5641    5.9674 C   0  0  0  0  0  0  0  0  0  0  0  0
    6.9192    4.7921    7.2883 C   0  0  0  0  0  0  0  0  0  0  0  0
    6.5915    3.9570    7.8907 H   0  0  0  0  0  0  0  0  0  0  0  0
    6.9567    6.0723    7.8047 C   0  0  0  0  0  0  0  0  0  0  0  0
    6.6694    6.2507    8.8303 H   0  0  0  0  0  0  0  0  0  0  0  0
    7.3489    7.1314    6.9998 C   0  0  0  0  0  0  0  0  0  0  0  0
    7.3709    8.1341    7.4002 H   0  0  0  0  0  0  0  0  0  0  0  0
    7.6996    6.9075    5.6797 C   0  0  0  0  0  0  0  0  0  0  0  0
    7.9961    7.7338    5.0506 H   0  0  0  0  0  0  0  0  0  0  0  0
    7.6640    5.6255    5.1573 C   0  0  0  0  0  0  0  0  0  0  0  0
    7.9286    5.4498    4.1245 H   0  0  0  0  0  0  0  0  0  0  0  0
  1  2  1  0  0  0  0
  1  4  1  0  0  0  0
  1  5  1  0  0  0  0
  2 35  1  0  0  0  0
  2  7  1  0  0  0  0
  3  1  1  0  0  0  0
  5 20  1  0  0  0  0
  5  8  1  6  0  0  0
  6 17  1  0  0  0  0
  7 21  1  0  0  0  0
  8 13  1  0  0  0  0
  8 17  1  0  0  0  0
  9 11  1  0  0  0  0
  9  8  1  0  0  0  0
 10  9  1  0  0  0  0
 12  9  1  0  0  0  0
 13 14  1  0  0  0  0
 13 15  1  0  0  0  0
 16 13  1  0  0  0  0
 17 18  1  0  0  0  0
 19 17  1  0  0  0  0
 20  6  1  6  0  0  0
 21 22  1  0  0  0  0
 21 20  1  0  0  0  0
 23 21  1  0  0  0  0
 24 25  1  0  0  0  0
 24  2  1  0  0  0  0
 25 26  1  0  0  0  0
 27 28  1  0  0  0  0
 27 25  2  0  0  0  0
 29 27  1  0  0  0  0
 30 29  1  0  0  0  0
 31 29  2  0  0  0  0
 31 33  1  0  0  0  0
 32 31  1  0  0  0  0
 33 34  1  0  0  0  0
 33 24  2  0  0  0  0
 35 36  1  0  0  0  0
 36 38  2  0  0  0  0
 36 37  1  0  0  0  0
 38 39  1  0  0  0  0
 40 41  1  0  0  0  0
 40 38  1  0  0  0  0
 42 40  2  0  0  0  0
 43 42  1  0  0  0  0
 44 42  1  0  0  0  0
 44 35  2  0  0  0  0
 45 44  1  0  0  0  0
M  END
$$$$
