CSD_code = BUCGAI | q = 0 | S = 0 | Stoichiometry = C27H30BrMnN4O2 | MND = 5
 OpenBabel04212202013D

 65 71  0  0  1  0  0  0  0  0999 V2000
   20.2218   -0.3626    8.2775 Br  0  0  0  0  0  0  0  0  0  0  0  0
   18.1581    0.8049    7.7504 Mn  0  0  0  0  0  0  0  0  0  0  0  0
   18.5658    2.1401    8.8739 O   0  0  0  0  0  0  0  0  0  0  0  0
   16.5819    0.3323    8.2714 O   0  0  0  0  0  0  0  0  0  0  0  0
   19.5595    1.4766    5.1819 N   0  0  0  0  0  0  0  0  0  0  0  0
   19.1508    3.2342    6.3783 N   0  0  0  0  0  0  0  0  0  0  0  0
   18.4954   -0.6232    5.1027 N   0  0  0  0  0  0  0  0  0  0  0  0
   16.6764   -1.2761    6.0627 N   0  0  0  0  0  0  0  0  0  0  0  0
   18.9817    1.8825    6.3516 C   0  0  2  0  0  3  0  0  0  0  0  0
   20.0690    2.5472    4.5023 C   0  0  0  0  0  0  0  0  0  0  0  0
   19.8171    3.6464    5.2489 C   0  0  0  0  0  0  0  0  0  0  0  0
   18.7594    4.0454    7.4544 C   0  0  0  0  0  0  0  0  0  0  0  0
   18.6540    5.4254    7.3147 C   0  0  0  0  0  0  0  0  0  0  0  0
   18.3006    6.2417    8.3739 C   0  0  0  0  0  0  0  0  0  0  0  0
   18.0728    5.6284    9.6100 C   0  0  0  0  0  0  0  0  0  0  0  0
   18.1715    4.2707    9.7755 C   0  0  0  0  0  0  0  0  0  0  0  0
   18.4914    3.4193    8.7003 C   0  0  0  0  0  0  0  0  0  0  0  0
   18.1492    7.7489    8.2439 C   0  0  0  0  0  0  0  0  0  0  0  0
   18.4262    8.2521    6.8243 C   0  0  0  0  0  0  0  0  0  0  0  0
   19.1376    8.4375    9.1954 C   0  0  0  0  0  0  0  0  0  0  0  0
   16.7118    8.1393    8.6169 C   0  0  0  0  0  0  0  0  0  0  0  0
   17.7761   -0.4888    6.2523 C   0  0  2  0  0  3  0  0  0  0  0  0
   17.8638   -1.4639    4.2261 C   0  0  0  0  0  0  0  0  0  0  0  0
   16.7281   -1.8768    4.8268 C   0  0  0  0  0  0  0  0  0  0  0  0
   15.6258   -1.4044    6.9897 C   0  0  0  0  0  0  0  0  0  0  0  0
   14.6147   -2.3382    6.8410 C   0  0  0  0  0  0  0  0  0  0  0  0
   13.5601   -2.4341    7.7453 C   0  0  0  0  0  0  0  0  0  0  0  0
   13.5503   -1.5566    8.8231 C   0  0  0  0  0  0  0  0  0  0  0  0
   14.5539   -0.6264    9.0020 C   0  0  0  0  0  0  0  0  0  0  0  0
   15.6165   -0.5284    8.1009 C   0  0  0  0  0  0  0  0  0  0  0  0
   12.4784   -3.4779    7.5139 C   0  0  0  0  0  0  0  0  0  0  0  0
   11.8059   -3.2126    6.1589 C   0  0  0  0  0  0  0  0  0  0  0  0
   13.1152   -4.8748    7.5150 C   0  0  0  0  0  0  0  0  0  0  0  0
   11.3961   -3.4475    8.5962 C   0  0  0  0  0  0  0  0  0  0  0  0
   19.7241    0.0834    4.8504 C   0  0  0  0  0  0  0  0  0  0  0  0
   20.5685    2.4490    3.5606 H   0  0  0  0  0  0  0  0  0  0  0  0
   20.0834    4.6661    5.0680 H   0  0  0  0  0  0  0  0  0  0  0  0
   18.8316    5.8504    6.3412 H   0  0  0  0  0  0  0  0  0  0  0  0
   17.8066    6.2279   10.4674 H   0  0  0  0  0  0  0  0  0  0  0  0
   17.9811    3.8134   10.7351 H   0  0  0  0  0  0  0  0  0  0  0  0
   18.2990    9.3323    6.7921 H   0  0  0  0  0  0  0  0  0  0  0  0
   19.4466    8.0269    6.5218 H   0  0  0  0  0  0  0  0  0  0  0  0
   17.7338    7.8126    6.1095 H   0  0  0  0  0  0  0  0  0  0  0  0
   18.9493    8.1620   10.2290 H   0  0  0  0  0  0  0  0  0  0  0  0
   20.1583    8.1529    8.9483 H   0  0  0  0  0  0  0  0  0  0  0  0
   19.0492    9.5186    9.1095 H   0  0  0  0  0  0  0  0  0  0  0  0
   16.5762    9.2139    8.5139 H   0  0  0  0  0  0  0  0  0  0  0  0
   16.0027    7.6371    7.9618 H   0  0  0  0  0  0  0  0  0  0  0  0
   16.4812    7.8645    9.6422 H   0  0  0  0  0  0  0  0  0  0  0  0
   18.2689   -1.7063    3.2656 H   0  0  0  0  0  0  0  0  0  0  0  0
   15.9665   -2.5309    4.4603 H   0  0  0  0  0  0  0  0  0  0  0  0
   14.6504   -3.0175    6.0052 H   0  0  0  0  0  0  0  0  0  0  0  0
   12.7570   -1.5869    9.5510 H   0  0  0  0  0  0  0  0  0  0  0  0
   14.5409    0.0427    9.8498 H   0  0  0  0  0  0  0  0  0  0  0  0
   11.3799   -2.2116    6.1402 H   0  0  0  0  0  0  0  0  0  0  0  0
   12.5129   -3.2975    5.3380 H   0  0  0  0  0  0  0  0  0  0  0  0
   11.0062   -3.9307    5.9923 H   0  0  0  0  0  0  0  0  0  0  0  0
   12.3487   -5.6344    7.3778 H   0  0  0  0  0  0  0  0  0  0  0  0
   13.8455   -4.9828    6.7178 H   0  0  0  0  0  0  0  0  0  0  0  0
   13.6171   -5.0575    8.4624 H   0  0  0  0  0  0  0  0  0  0  0  0
   10.8927   -2.4839    8.6200 H   0  0  0  0  0  0  0  0  0  0  0  0
   10.6499   -4.2102    8.3834 H   0  0  0  0  0  0  0  0  0  0  0  0
   11.8177   -3.6557    9.5766 H   0  0  0  0  0  0  0  0  0  0  0  0
   19.9888   -0.0126    3.7932 H   0  0  0  0  0  0  0  0  0  0  0  0
   20.5220   -0.3444    5.4812 H   0  0  0  0  0  0  0  0  0  0  0  0
  2  4  1  0  0  0  0
  2  1  1  0  0  0  0
  2  3  1  0  0  0  0
  6 12  1  0  0  0  0
  8 22  1  0  0  0  0
  8 25  1  0  0  0  0
  9  5  1  1  0  0  0
  9  6  1  0  0  0  0
  9  2  1  0  0  0  0
 10  5  1  0  0  0  0
 10 11  2  0  0  0  0
 11  6  1  0  0  0  0
 12 17  1  0  0  0  0
 13 12  2  0  0  0  0
 13 14  1  0  0  0  0
 14 15  2  0  0  0  0
 15 16  1  0  0  0  0
 15 39  1  0  0  0  0
 16 40  1  0  0  0  0
 17  3  1  0  0  0  0
 17 16  2  0  0  0  0
 18 14  1  0  0  0  0
 18 21  1  0  0  0  0
 18 20  1  0  0  0  0
 19 18  1  0  0  0  0
 20 44  1  0  0  0  0
 21 49  1  0  0  0  0
 22  7  1  6  0  0  0
 22  2  1  0  0  0  0
 23 24  2  0  0  0  0
 23  7  1  0  0  0  0
 24  8  1  0  0  0  0
 25 30  1  0  0  0  0
 26 25  2  0  0  0  0
 26 27  1  0  0  0  0
 27 28  2  0  0  0  0
 28 29  1  0  0  0  0
 28 53  1  0  0  0  0
 29 54  1  0  0  0  0
 30  4  1  0  0  0  0
 30 29  2  0  0  0  0
 31 33  1  0  0  0  0
 31 27  1  0  0  0  0
 31 34  1  0  0  0  0
 32 31  1  0  0  0  0
 33 60  1  0  0  0  0
 34 61  1  0  0  0  0
 34 63  1  0  0  0  0
 35  7  1  0  0  0  0
 35  5  1  0  0  0  0
 35 65  1  0  0  0  0
 36 10  1  0  0  0  0
 37 11  1  0  0  0  0
 38 13  1  0  0  0  0
 41 19  1  0  0  0  0
 42 19  1  0  0  0  0
 43 19  1  0  0  0  0
 45 20  1  0  0  0  0
 46 20  1  0  0  0  0
 47 21  1  0  0  0  0
 48 21  1  0  0  0  0
 50 23  1  0  0  0  0
 51 24  1  0  0  0  0
 52 26  1  0  0  0  0
 55 32  1  0  0  0  0
 56 32  1  0  0  0  0
 57 32  1  0  0  0  0
 58 33  1  0  0  0  0
 59 33  1  0  0  0  0
 62 34  1  0  0  0  0
 64 35  1  0  0  0  0
M  END
$$$$
