CSD_code = BUCGOX | q = 0 | S = 0 | Stoichiometry = C14H9Cl4FN2Pd | MND = 4
 OpenBabel04212202013D

 31 34  0  0  0  0  0  0  0  0999 V2000
    0.6074    0.2707    6.4100 Pd  0  0  0  0  0  0  0  0  0  0  0  0
    0.3176    2.4463    6.7220 Cl  0  0  0  0  0  0  0  0  0  0  0  0
    2.4639    0.5112    7.5965 Cl  0  0  0  0  0  0  0  0  0  0  0  0
   -5.6545   -1.0597    5.7741 Cl  0  0  0  0  0  0  0  0  0  0  0  0
   -0.2014   -5.9271    7.9791 Cl  0  0  0  0  0  0  0  0  0  0  0  0
   -2.7835   -4.9635    7.6337 F   0  0  0  0  0  0  0  0  0  0  0  0
   -1.2666   -0.0969    5.6127 N   0  0  0  0  0  0  0  0  0  0  0  0
    0.6194   -1.8041    6.3808 N   0  0  0  0  0  0  0  0  0  0  0  0
   -2.1507    0.7175    5.0527 C   0  0  0  0  0  0  0  0  0  0  0  0
   -3.5245    0.4326    5.0978 C   0  0  0  0  0  0  0  0  0  0  0  0
   -4.2232    1.1310    4.6661 H   0  0  0  0  0  0  0  0  0  0  0  0
   -3.9726   -0.7238    5.6922 C   0  0  0  0  0  0  0  0  0  0  0  0
   -3.0356   -1.6518    6.2009 C   0  0  0  0  0  0  0  0  0  0  0  0
   -3.3743   -2.9122    6.7474 C   0  0  0  0  0  0  0  0  0  0  0  0
   -4.4104   -3.1959    6.8382 H   0  0  0  0  0  0  0  0  0  0  0  0
   -2.4029   -3.7770    7.1412 C   0  0  0  0  0  0  0  0  0  0  0  0
   -1.0124   -3.4849    7.0292 C   0  0  0  0  0  0  0  0  0  0  0  0
    0.0595   -4.3587    7.3334 C   0  0  0  0  0  0  0  0  0  0  0  0
    1.3498   -3.9507    7.0718 C   0  0  0  0  0  0  0  0  0  0  0  0
    2.1723   -4.6222    7.2569 H   0  0  0  0  0  0  0  0  0  0  0  0
    1.6082   -2.6674    6.5741 C   0  0  0  0  0  0  0  0  0  0  0  0
   -0.6622   -2.1994    6.5495 C   0  0  0  0  0  0  0  0  0  0  0  0
   -1.6774   -1.2766    6.1337 C   0  0  0  0  0  0  0  0  0  0  0  0
   -1.6460    1.9261    4.3514 C   0  0  0  0  0  0  0  0  0  0  0  0
   -1.6517    2.7762    5.0357 H   0  0  0  0  0  0  0  0  0  0  0  0
   -2.2639    2.1619    3.4889 H   0  0  0  0  0  0  0  0  0  0  0  0
   -0.6073    1.7689    4.0501 H   0  0  0  0  0  0  0  0  0  0  0  0
    2.9874   -2.2427    6.2250 C   0  0  0  0  0  0  0  0  0  0  0  0
    2.9490   -1.4447    5.4791 H   0  0  0  0  0  0  0  0  0  0  0  0
    3.5735   -3.0822    5.8605 H   0  0  0  0  0  0  0  0  0  0  0  0
    3.4746   -1.8248    7.1081 H   0  0  0  0  0  0  0  0  0  0  0  0
  1  2  1  0  0  0  0
  1  3  1  0  0  0  0
  7 23  1  0  0  0  0
  7  1  1  0  0  0  0
  8  1  1  0  0  0  0
  8 22  1  0  0  0  0
  8 21  1  0  0  0  0
  9 10  2  0  0  0  0
  9  7  1  0  0  0  0
 10 12  1  0  0  0  0
 11 10  1  0  0  0  0
 12  4  1  0  0  0  0
 12 13  2  0  0  0  0
 13 14  1  0  0  0  0
 14 15  1  0  0  0  0
 14 16  2  0  0  0  0
 16  6  1  0  0  0  0
 17 16  1  0  0  0  0
 17 18  2  0  0  0  0
 18  5  1  0  0  0  0
 19 20  1  0  0  0  0
 19 18  1  0  0  0  0
 21 19  2  0  0  0  0
 22 17  1  0  0  0  0
 23 13  1  0  0  0  0
 23 22  2  0  0  0  0
 24 25  1  0  0  0  0
 24  9  1  0  0  0  0
 26 24  1  0  0  0  0
 27 24  1  0  0  0  0
 28 21  1  0  0  0  0
 28 31  1  0  0  0  0
 29 28  1  0  0  0  0
 30 28  1  0  0  0  0
M  END
$$$$
