CSD_code = BUCJUF | q = 1 | S = 0 | Stoichiometry = C36H34ClN5OPRuS(1+) | MND = 6
 OpenBabel04212202013D

 80 88  0  0  1  0  0  0  0  0999 V2000
    2.9900    4.0722    5.0505 Ru  0  0  0  0  0  0  0  0  0  0  0  0
    2.2818    4.7762    2.9403 P   0  0  0  0  0  4  0  0  0  0  0  0
    3.7710    3.4483    7.1301 S   0  0  0  0  0  0  0  0  0  0  0  0
    5.1909    3.5166    4.4769 Cl  0  0  0  0  0  0  0  0  0  0  0  0
    2.7008    3.5667    8.1141 O   0  0  0  0  0  1  0  0  0  0  0  0
    1.2720    4.3733    5.8099 N   0  0  0  0  0  0  0  0  0  0  0  0
    3.1805    6.0355    5.6010 N   0  0  0  0  0  0  0  0  0  0  0  0
    2.1645    7.8174    6.4721 N   0  0  0  0  0  0  0  0  0  0  0  0
    2.2238    2.2174    4.8346 N   0  0  0  0  0  0  0  0  0  0  0  0
    0.9834    2.1695    5.3709 N   0  0  2  0  0  0  0  0  0  0  0  0
    0.4604    3.3241    5.9442 C   0  0  1  0  0  3  0  0  0  0  0  0
   -0.7558    3.4186    6.6015 C   0  0  0  0  0  0  0  0  0  0  0  0
   -1.4035    2.5654    6.7073 H   0  0  0  0  0  0  0  0  0  0  0  0
   -1.1006    4.6513    7.1405 C   0  0  0  0  0  0  0  0  0  0  0  0
   -2.0355    4.7612    7.6652 H   0  0  0  0  0  0  0  0  0  0  0  0
   -0.2396    5.7319    7.0322 C   0  0  0  0  0  0  0  0  0  0  0  0
   -0.5015    6.6700    7.4870 H   0  0  0  0  0  0  0  0  0  0  0  0
    0.9671    5.5666    6.3566 C   0  0  0  0  0  0  0  0  0  0  0  0
    2.0549    6.4969    6.1581 C   0  0  2  0  0  3  0  0  0  0  0  0
    4.0662    7.0715    5.5668 C   0  0  0  0  0  0  0  0  0  0  0  0
    3.4314    8.2118    6.1101 C   0  0  0  0  0  0  0  0  0  0  0  0
    4.0995    9.4272    6.2012 C   0  0  0  0  0  0  0  0  0  0  0  0
    3.6326   10.3070    6.6149 H   0  0  0  0  0  0  0  0  0  0  0  0
    5.4009    9.4644    5.7478 C   0  0  0  0  0  0  0  0  0  0  0  0
    5.9493   10.3916    5.8040 H   0  0  0  0  0  0  0  0  0  0  0  0
    6.0380    8.3303    5.2298 C   0  0  0  0  0  0  0  0  0  0  0  0
    7.0635    8.4118    4.9063 H   0  0  0  0  0  0  0  0  0  0  0  0
    5.3906    7.1204    5.1341 C   0  0  0  0  0  0  0  0  0  0  0  0
    5.8741    6.2334    4.7581 H   0  0  0  0  0  0  0  0  0  0  0  0
    0.4799    0.9131    5.2792 C   0  0  0  0  0  3  0  0  0  0  0  0
   -0.4925    0.6559    5.6445 H   0  0  0  0  0  0  0  0  0  0  0  0
    1.4319    0.1404    4.6667 C   0  0  0  0  0  0  0  0  0  0  0  0
    1.3713   -0.9014    4.4319 H   0  0  0  0  0  0  0  0  0  0  0  0
    2.5081    1.0031    4.4094 C   0  0  0  0  0  0  0  0  0  0  0  0
    3.4521    0.7854    3.9476 H   0  0  0  0  0  0  0  0  0  0  0  0
    1.1618    8.6689    7.0506 C   0  0  0  0  0  0  0  0  0  0  0  0
    0.2274    8.5830    6.4948 H   0  0  0  0  0  0  0  0  0  0  0  0
    1.5071    9.6991    6.9975 H   0  0  0  0  0  0  0  0  0  0  0  0
    0.9913    8.4130    8.0986 H   0  0  0  0  0  0  0  0  0  0  0  0
    3.2478    5.9592    1.9564 C   0  0  0  0  0  0  0  0  0  0  0  0
    2.6243    6.7574    0.9991 C   0  0  0  0  0  0  0  0  0  0  0  0
    1.5511    6.7190    0.8735 H   0  0  0  0  0  0  0  0  0  0  0  0
    3.3856    7.5976    0.2091 C   0  0  0  0  0  0  0  0  0  0  0  0
    2.9035    8.2198   -0.5299 H   0  0  0  0  0  0  0  0  0  0  0  0
    4.7640    7.6367    0.3576 C   0  0  0  0  0  0  0  0  0  0  0  0
    5.3517    8.2961   -0.2628 H   0  0  0  0  0  0  0  0  0  0  0  0
    5.3856    6.8201    1.2870 C   0  0  0  0  0  0  0  0  0  0  0  0
    6.4600    6.8341    1.3883 H   0  0  0  0  0  0  0  0  0  0  0  0
    4.6318    5.9750    2.0826 C   0  0  0  0  0  0  0  0  0  0  0  0
    5.1069    5.3115    2.7901 H   0  0  0  0  0  0  0  0  0  0  0  0
    2.0267    3.4815    1.6931 C   0  0  0  0  0  0  0  0  0  0  0  0
    3.0401    2.5294    1.6021 C   0  0  0  0  0  0  0  0  0  0  0  0
    3.8787    2.5896    2.2855 H   0  0  0  0  0  0  0  0  0  0  0  0
    2.9758    1.5437    0.6353 C   0  0  0  0  0  0  0  0  0  0  0  0
    3.7611    0.8067    0.5620 H   0  0  0  0  0  0  0  0  0  0  0  0
    1.9063    1.5093   -0.2461 C   0  0  0  0  0  0  0  0  0  0  0  0
    1.8528    0.7390   -1.0001 H   0  0  0  0  0  0  0  0  0  0  0  0
    0.9120    2.4715   -0.1722 C   0  0  0  0  0  0  0  0  0  0  0  0
    0.0902    2.4537   -0.8722 H   0  0  0  0  0  0  0  0  0  0  0  0
    0.9703    3.4652    0.7893 C   0  0  0  0  0  0  0  0  0  0  0  0
    0.2010    4.2231    0.8313 H   0  0  0  0  0  0  0  0  0  0  0  0
    0.6776    5.5930    3.1926 C   0  0  0  0  0  0  0  0  0  0  0  0
    0.6257    6.9606    3.4510 C   0  0  0  0  0  0  0  0  0  0  0  0
    1.5247    7.5553    3.3534 H   0  0  0  0  0  0  0  0  0  0  0  0
   -0.5720    7.5558    3.8063 C   0  0  0  0  0  0  0  0  0  0  0  0
   -0.6124    8.6219    3.9764 H   0  0  0  0  0  0  0  0  0  0  0  0
   -1.7198    6.7902    3.9328 C   0  0  0  0  0  0  0  0  0  0  0  0
   -2.6535    7.2564    4.2074 H   0  0  0  0  0  0  0  0  0  0  0  0
   -1.6695    5.4244    3.7020 C   0  0  0  0  0  0  0  0  0  0  0  0
   -2.5633    4.8270    3.8021 H   0  0  0  0  0  0  0  0  0  0  0  0
   -0.4767    4.8261    3.3399 C   0  0  0  0  0  0  0  0  0  0  0  0
   -0.4339    3.7590    3.1599 H   0  0  0  0  0  0  0  0  0  0  0  0
    4.4813    1.7829    7.2839 C   0  0  0  0  0  0  0  0  0  0  0  0
    4.8590    1.6588    8.2919 H   0  0  0  0  0  0  0  0  0  0  0  0
    5.2736    1.6975    6.5474 H   0  0  0  0  0  0  0  0  0  0  0  0
    3.6975    1.0570    7.0898 H   0  0  0  0  0  0  0  0  0  0  0  0
    5.2016    4.3805    7.7437 C   0  0  0  0  0  0  0  0  0  0  0  0
    4.9280    5.4297    7.7965 H   0  0  0  0  0  0  0  0  0  0  0  0
    6.0105    4.2355    7.0356 H   0  0  0  0  0  0  0  0  0  0  0  0
    5.4589    4.0107    8.7294 H   0  0  0  0  0  0  0  0  0  0  0  0
  1  7  1  0  0  0  0
  1  6  1  0  0  0  0
  1  3  1  0  0  0  0
  2 62  1  0  0  0  0
  2  1  1  0  0  0  0
  3 73  1  0  0  0  0
  3 77  1  0  0  0  0
  3  5  1  0  0  0  0
  4  1  1  0  0  0  0
  6 11  1  0  0  0  0
  6 18  1  0  0  0  0
  7 19  1  0  0  0  0
  8 36  1  0  0  0  0
  9  1  1  0  0  0  0
  9 10  1  0  0  0  0
 10 30  1  1  0  0  0
 10 11  1  0  0  0  0
 11 12  1  1  0  0  0
 12 13  1  0  0  0  0
 12 14  2  0  0  0  0
 14 15  1  0  0  0  0
 16 14  1  0  0  0  0
 16 17  1  0  0  0  0
 18 16  2  0  0  0  0
 19 18  1  1  0  0  0
 19  8  1  0  0  0  0
 20  7  1  0  0  0  0
 20 21  1  0  0  0  0
 21 22  2  0  0  0  0
 21  8  1  0  0  0  0
 22 23  1  0  0  0  0
 24 25  1  0  0  0  0
 24 22  1  0  0  0  0
 26 24  2  0  0  0  0
 27 26  1  0  0  0  0
 28 26  1  0  0  0  0
 28 20  2  0  0  0  0
 29 28  1  0  0  0  0
 30 31  1  0  0  0  0
 32 30  1  0  0  0  0
 33 32  1  0  0  0  0
 34 32  2  0  0  0  0
 34  9  1  0  0  0  0
 35 34  1  0  0  0  0
 36 39  1  0  0  0  0
 37 36  1  0  0  0  0
 38 36  1  0  0  0  0
 40 49  1  0  0  0  0
 40  2  1  0  0  0  0
 41 40  2  0  0  0  0
 42 41  1  0  0  0  0
 43 45  2  0  0  0  0
 43 41  1  0  0  0  0
 44 43  1  0  0  0  0
 45 47  1  0  0  0  0
 46 45  1  0  0  0  0
 47 48  1  0  0  0  0
 47 49  2  0  0  0  0
 49 50  1  0  0  0  0
 51  2  1  0  0  0  0
 52 51  1  0  0  0  0
 52 53  1  0  0  0  0
 54 52  2  0  0  0  0
 55 54  1  0  0  0  0
 56 58  2  0  0  0  0
 56 54  1  0  0  0  0
 57 56  1  0  0  0  0
 58 60  1  0  0  0  0
 59 58  1  0  0  0  0
 60 61  1  0  0  0  0
 60 51  2  0  0  0  0
 62 71  2  0  0  0  0
 62 63  1  0  0  0  0
 63 65  2  0  0  0  0
 64 63  1  0  0  0  0
 65 67  1  0  0  0  0
 65 66  1  0  0  0  0
 67 68  1  0  0  0  0
 69 70  1  0  0  0  0
 69 67  2  0  0  0  0
 71 69  1  0  0  0  0
 72 71  1  0  0  0  0
 73 74  1  0  0  0  0
 75 73  1  0  0  0  0
 76 73  1  0  0  0  0
 77 78  1  0  0  0  0
 77 80  1  0  0  0  0
 79 77  1  0  0  0  0
M  END
$$$$
