CSD_code = BUCZAA | q = 0 | S = 0 | Stoichiometry = C10H24Cl2N2SiTi | MND = 4
 OpenBabel04212202013D

 40 40  0  0  0  0  0  0  0  0999 V2000
    4.7887    4.7888    0.0000 Ti  0  0  0  0  0  0  0  0  0  0  0  0
    2.9126    2.9126    0.0000 Si  0  0  0  0  0  0  0  0  0  0  0  0
    4.4149    6.8367    0.6048 Cl  0  0  0  0  0  0  0  0  0  0  0  0
    4.0316    3.5905    1.1638 N   0  0  0  0  0  0  0  0  0  0  0  0
    4.6333    3.0938    2.3676 C   0  0  0  0  0  0  0  0  0  0  0  0
    5.4128    4.2689    2.9940 C   0  0  0  0  0  0  0  0  0  0  0  0
    3.5628    2.5971    3.3484 C   0  0  0  0  0  0  0  0  0  0  0  0
    5.6156    1.9563    2.0307 C   0  0  0  0  0  0  0  0  0  0  0  0
    3.1760    1.0881   -0.5310 C   0  0  0  0  0  0  0  0  0  0  0  0
    5.8727    3.9737    3.9352 H   0  0  0  0  0  0  0  0  0  0  0  0
    6.2027    4.5965    2.3023 H   0  0  0  0  0  0  0  0  0  0  0  0
    4.7287    5.1020    3.1801 H   0  0  0  0  0  0  0  0  0  0  0  0
    4.0175    2.2758    4.2821 H   0  0  0  0  0  0  0  0  0  0  0  0
    2.8551    3.3978    3.5509 H   0  0  0  0  0  0  0  0  0  0  0  0
    3.0236    1.7615    2.9100 H   0  0  0  0  0  0  0  0  0  0  0  0
    6.2933    2.2897    1.2397 H   0  0  0  0  0  0  0  0  0  0  0  0
    6.1952    1.6740    2.9066 H   0  0  0  0  0  0  0  0  0  0  0  0
    5.0679    1.0878    1.6741 H   0  0  0  0  0  0  0  0  0  0  0  0
    2.9817    0.4052    0.2896 H   0  0  0  0  0  0  0  0  0  0  0  0
    2.5092    0.8153   -1.3424 H   0  0  0  0  0  0  0  0  0  0  0  0
    4.1965    0.9296   -0.8704 H   0  0  0  0  0  0  0  0  0  0  0  0
    6.8366    4.4152   -0.6046 Cl  0  0  0  0  0  0  0  0  0  0  0  0
    3.5905    4.0316   -1.1638 N   0  0  0  0  0  0  0  0  0  0  0  0
    1.0881    3.1761    0.5311 C   0  0  0  0  0  0  0  0  0  0  0  0
    3.0938    4.6333   -2.3676 C   0  0  0  0  0  0  0  0  0  0  0  0
    0.4051    2.9818   -0.2896 H   0  0  0  0  0  0  0  0  0  0  0  0
    0.8153    2.5093    1.3425 H   0  0  0  0  0  0  0  0  0  0  0  0
    0.9296    4.1966    0.8705 H   0  0  0  0  0  0  0  0  0  0  0  0
    4.2690    5.4128   -2.9940 C   0  0  0  0  0  0  0  0  0  0  0  0
    2.5972    3.5628   -3.3484 C   0  0  0  0  0  0  0  0  0  0  0  0
    1.9563    5.6156   -2.0308 C   0  0  0  0  0  0  0  0  0  0  0  0
    3.9738    5.8727   -3.9352 H   0  0  0  0  0  0  0  0  0  0  0  0
    4.5965    6.2027   -2.3023 H   0  0  0  0  0  0  0  0  0  0  0  0
    5.1021    4.7287   -3.1800 H   0  0  0  0  0  0  0  0  0  0  0  0
    2.2759    4.0174   -4.2821 H   0  0  0  0  0  0  0  0  0  0  0  0
    3.3979    2.8550   -3.5508 H   0  0  0  0  0  0  0  0  0  0  0  0
    1.7615    3.0235   -2.9101 H   0  0  0  0  0  0  0  0  0  0  0  0
    2.2897    6.2933   -1.2398 H   0  0  0  0  0  0  0  0  0  0  0  0
    1.6740    6.1951   -2.9067 H   0  0  0  0  0  0  0  0  0  0  0  0
    1.0878    5.0678   -1.6742 H   0  0  0  0  0  0  0  0  0  0  0  0
  1  3  1  0  0  0  0
  1  4  1  0  0  0  0
  2 24  1  0  0  0  0
  2  4  1  0  0  0  0
  4  5  1  0  0  0  0
  5  6  1  0  0  0  0
  5  7  1  0  0  0  0
  6 12  1  0  0  0  0
  6 10  1  0  0  0  0
  7 14  1  0  0  0  0
  7 13  1  0  0  0  0
  8  5  1  0  0  0  0
  8 17  1  0  0  0  0
  9  2  1  0  0  0  0
  9 19  1  0  0  0  0
 11  6  1  0  0  0  0
 15  7  1  0  0  0  0
 16  8  1  0  0  0  0
 18  8  1  0  0  0  0
 20  9  1  0  0  0  0
 21  9  1  0  0  0  0
 22  1  1  0  0  0  0
 23  2  1  0  0  0  0
 23  1  1  0  0  0  0
 24 28  1  0  0  0  0
 24 27  1  0  0  0  0
 25 31  1  0  0  0  0
 25 23  1  0  0  0  0
 26 24  1  0  0  0  0
 29 25  1  0  0  0  0
 29 33  1  0  0  0  0
 30 37  1  0  0  0  0
 30 25  1  0  0  0  0
 31 40  1  0  0  0  0
 31 38  1  0  0  0  0
 32 29  1  0  0  0  0
 34 29  1  0  0  0  0
 35 30  1  0  0  0  0
 36 30  1  0  0  0  0
 39 31  1  0  0  0  0
M  END
$$$$
