CSD_code = BUDCAF | q = 0 | S = 0 | Stoichiometry = C12H12Cl2N2Zn | MND = 4
 OpenBabel04212202013D

 29 31  0  0  1  0  0  0  0  0999 V2000
    4.8135   11.6605    5.7392 C   0  0  0  0  0  0  0  0  0  0  0  0
    4.1058   11.3276    6.4999 H   0  0  0  0  0  0  0  0  0  0  0  0
    4.8389   12.7463    5.7224 H   0  0  0  0  0  0  0  0  0  0  0  0
    5.7957   11.2790    6.0211 H   0  0  0  0  0  0  0  0  0  0  0  0
    4.4206   11.1038    4.4180 C   0  0  1  0  0  3  0  0  0  0  0  0
    4.1062   11.9177    3.3297 C   0  0  0  0  0  0  0  0  0  0  0  0
    4.1463   12.9909    3.4287 H   0  0  0  0  0  0  0  0  0  0  0  0
    3.7451   11.3265    2.1344 C   0  0  0  0  0  0  0  0  0  0  0  0
    3.4930   11.9330    1.2772 H   0  0  0  0  0  0  0  0  0  0  0  0
    3.7074    9.9440    2.0439 C   0  0  0  0  0  0  0  0  0  0  0  0
    3.4250    9.4777    1.1154 H   0  0  0  0  0  0  0  0  0  0  0  0
    4.0373    9.1874    3.1653 C   0  0  0  0  0  0  0  0  0  0  0  0
    4.3797    9.7818    4.3102 N   0  0  0  0  0  0  0  0  0  0  0  0
    6.9159    8.4495    6.3681 Cl  0  0  0  0  0  0  0  0  0  0  0  0
    2.9858    8.4495    7.2058 Cl  0  0  0  0  0  0  0  0  0  0  0  0
    4.7616    8.4495    5.8956 Zn  0  0  0  0  0  0  0  0  0  0  0  0
    4.8135    5.2385    5.7392 C   0  0  0  0  0  0  0  0  0  0  0  0
    4.1058    5.5714    6.4999 H   0  0  0  0  0  0  0  0  0  0  0  0
    4.8389    4.1527    5.7224 H   0  0  0  0  0  0  0  0  0  0  0  0
    5.7957    5.6200    6.0211 H   0  0  0  0  0  0  0  0  0  0  0  0
    4.4206    5.7952    4.4180 C   0  0  2  0  0  3  0  0  0  0  0  0
    4.1062    4.9813    3.3297 C   0  0  0  0  0  0  0  0  0  0  0  0
    4.1463    3.9081    3.4287 H   0  0  0  0  0  0  0  0  0  0  0  0
    3.7451    5.5725    2.1344 C   0  0  0  0  0  0  0  0  0  0  0  0
    3.4930    4.9660    1.2772 H   0  0  0  0  0  0  0  0  0  0  0  0
    3.7074    6.9550    2.0439 C   0  0  0  0  0  0  0  0  0  0  0  0
    3.4250    7.4213    1.1154 H   0  0  0  0  0  0  0  0  0  0  0  0
    4.0373    7.7116    3.1653 C   0  0  0  0  0  0  0  0  0  0  0  0
    4.3797    7.1172    4.3102 N   0  0  0  0  0  0  0  0  0  0  0  0
  1  4  1  0  0  0  0
  1  2  1  0  0  0  0
  3  1  1  0  0  0  0
  5  1  1  6  0  0  0
  6  7  1  0  0  0  0
  6  5  1  0  0  0  0
  8  6  2  0  0  0  0
  9  8  1  0  0  0  0
 10  8  1  0  0  0  0
 10 12  2  0  0  0  0
 11 10  1  0  0  0  0
 12 28  1  0  0  0  0
 12 13  1  0  0  0  0
 13  5  1  0  0  0  0
 13 16  1  0  0  0  0
 16 14  1  0  0  0  0
 16 15  1  0  0  0  0
 17 20  1  0  0  0  0
 17 18  1  0  0  0  0
 19 17  1  0  0  0  0
 21 17  1  6  0  0  0
 22 23  1  0  0  0  0
 22 21  1  0  0  0  0
 24 22  2  0  0  0  0
 25 24  1  0  0  0  0
 26 24  1  0  0  0  0
 26 28  2  0  0  0  0
 27 26  1  0  0  0  0
 28 29  1  0  0  0  0
 29 21  1  0  0  0  0
 29 16  1  0  0  0  0
M  END
$$$$
