CSD_code = BUDVAX | q = 0 | S = 0 | Stoichiometry = C15H24Cl2PTa | MND = 9
 OpenBabel04212202013D

 43 43  0  0  1  0  0  0  0  0999 V2000
    1.6587    3.8816    2.1323 Ta  0  0  0  0  0  0  0  0  0  0  0  0
    0.9675    1.8941    1.3262 Cl  0  0  0  0  0  0  0  0  0  0  0  0
   -0.2026    4.3035    3.4023 Cl  0  0  0  0  0  0  0  0  0  0  0  0
    2.0978    5.3119    0.1193 P   0  0  0  0  0  1  0  0  0  0  0  0
    1.9707    5.9144    1.6792 C   0  0  1  0  0  3  0  0  0  0  0  0
    1.9263    7.3255    2.1611 C   0  0  0  0  0  0  0  0  0  0  0  0
    2.8899    8.2305    1.3916 C   0  0  0  0  0  0  0  0  0  0  0  0
    3.9164    7.9078    1.5453 H   0  0  0  0  0  0  0  0  0  0  0  0
    2.7944    9.2598    1.7296 H   0  0  0  0  0  0  0  0  0  0  0  0
    2.6703    8.1877    0.3267 H   0  0  0  0  0  0  0  0  0  0  0  0
    0.4797    7.7952    1.9329 C   0  0  0  0  0  0  0  0  0  0  0  0
    0.2498    7.7978    0.8695 H   0  0  0  0  0  0  0  0  0  0  0  0
    0.3478    8.8008    2.3257 H   0  0  0  0  0  0  0  0  0  0  0  0
   -0.2134    7.1259    2.4384 H   0  0  0  0  0  0  0  0  0  0  0  0
    2.2397    7.3462    3.6603 C   0  0  0  0  0  0  0  0  0  0  0  0
    1.5833    6.6512    4.1828 H   0  0  0  0  0  0  0  0  0  0  0  0
    2.0970    8.3437    4.0694 H   0  0  0  0  0  0  0  0  0  0  0  0
    3.2675    7.0400    3.8301 H   0  0  0  0  0  0  0  0  0  0  0  0
    3.3666    2.5233    4.1385 C   0  0  0  0  0  0  0  0  0  0  0  0
    3.6896    3.3462    5.1757 C   0  0  0  0  0  0  0  0  0  0  0  0
    4.4165    4.4903    4.6659 C   0  0  0  0  0  0  0  0  0  0  0  0
    4.5118    4.3816    3.3108 C   0  0  0  0  0  0  0  0  0  0  0  0
    3.7798    3.1720    2.8750 C   0  0  2  0  0  0  0  0  0  0  0  0
    2.6965    1.1862    4.2414 C   0  0  0  0  0  0  0  0  0  0  0  0
    2.6160    0.7070    3.2685 H   0  0  0  0  0  0  0  0  0  0  0  0
    1.6927    1.2760    4.6624 H   0  0  0  0  0  0  0  0  0  0  0  0
    3.2714    0.5290    4.8947 H   0  0  0  0  0  0  0  0  0  0  0  0
    3.3860    3.1466    6.6221 C   0  0  0  0  0  0  0  0  0  0  0  0
    4.3061    3.1212    7.2061 H   0  0  0  0  0  0  0  0  0  0  0  0
    2.8475    2.2166    6.7816 H   0  0  0  0  0  0  0  0  0  0  0  0
    2.7775    3.9692    6.9983 H   0  0  0  0  0  0  0  0  0  0  0  0
    4.9641    5.5508    5.5609 C   0  0  0  0  0  0  0  0  0  0  0  0
    4.1640    6.0071    6.1436 H   0  0  0  0  0  0  0  0  0  0  0  0
    5.4717    6.3280    4.9959 H   0  0  0  0  0  0  0  0  0  0  0  0
    5.6779    5.1176    6.2616 H   0  0  0  0  0  0  0  0  0  0  0  0
    5.3095    5.2270    2.3687 C   0  0  0  0  0  0  0  0  0  0  0  0
    5.5515    6.1888    2.8138 H   0  0  0  0  0  0  0  0  0  0  0  0
    4.7676    5.4029    1.4379 H   0  0  0  0  0  0  0  0  0  0  0  0
    6.2482    4.7274    2.1226 H   0  0  0  0  0  0  0  0  0  0  0  0
    4.4152    2.3438    1.7719 C   0  0  0  0  0  0  0  0  0  0  0  0
    5.4010    2.0010    2.0917 H   0  0  0  0  0  0  0  0  0  0  0  0
    4.5379    2.9352    0.8633 H   0  0  0  0  0  0  0  0  0  0  0  0
    3.8143    1.4690    1.5296 H   0  0  0  0  0  0  0  0  0  0  0  0
  1 23  1  0  0  0  0
  1  3  1  0  0  0  0
  2  1  1  0  0  0  0
  5  4  1  6  0  0  0
  5  1  1  0  0  0  0
  5  6  1  0  0  0  0
  6 15  1  0  0  0  0
  7  8  1  0  0  0  0
  7  9  1  0  0  0  0
  7  6  1  0  0  0  0
 10  7  1  0  0  0  0
 11  6  1  0  0  0  0
 11 13  1  0  0  0  0
 11 14  1  0  0  0  0
 12 11  1  0  0  0  0
 15 18  1  0  0  0  0
 15 17  1  0  0  0  0
 15 16  1  0  0  0  0
 19 24  1  0  0  0  0
 19 20  2  0  0  0  0
 20 28  1  0  0  0  0
 21 20  1  0  0  0  0
 21 32  1  0  0  0  0
 22 21  2  0  0  0  0
 23 40  1  6  0  0  0
 23 22  1  0  0  0  0
 23 19  1  0  0  0  0
 24 26  1  0  0  0  0
 24 27  1  0  0  0  0
 25 24  1  0  0  0  0
 28 30  1  0  0  0  0
 28 31  1  0  0  0  0
 28 29  1  0  0  0  0
 32 33  1  0  0  0  0
 32 35  1  0  0  0  0
 34 32  1  0  0  0  0
 36 37  1  0  0  0  0
 36 22  1  0  0  0  0
 38 36  1  0  0  0  0
 39 36  1  0  0  0  0
 40 41  1  0  0  0  0
 42 40  1  0  0  0  0
 43 40  1  0  0  0  0
M  END
$$$$
