CSD_code = BUDVEB | q = 0 | S = 0 | Stoichiometry = C20H33Cl2P2Ta | MND = 11
 OpenBabel04212202013D

 58 58  0  0  1  0  0  0  0  0999 V2000
    5.4099   11.3758   -0.4029 Ta  0  0  0  0  0  0  0  0  0  0  0  0
    4.9284   12.0902   -2.4862 Cl  0  0  0  0  0  0  0  0  0  0  0  0
    5.2854    9.1740   -1.1260 Cl  0  0  0  0  0  0  0  0  0  0  0  0
    7.3578   13.0505   -0.0157 P   0  0  0  0  0  2  0  0  0  0  0  0
    7.8799   10.9550    0.2528 P   0  0  0  0  0  2  0  0  0  0  0  0
    8.2499   12.6434   -1.5683 C   0  0  0  0  0  0  0  0  0  0  0  0
    8.5252   13.7331   -2.5812 C   0  0  0  0  0  0  0  0  0  0  0  0
    7.5519   14.8869   -2.3132 C   0  0  0  0  0  0  0  0  0  0  0  0
    6.5228   14.5435   -2.4133 H   0  0  0  0  0  0  0  0  0  0  0  0
    7.7187   15.6970   -3.0200 H   0  0  0  0  0  0  0  0  0  0  0  0
    7.6930   15.2777   -1.3053 H   0  0  0  0  0  0  0  0  0  0  0  0
    8.3227   13.2886   -4.0318 C   0  0  0  0  0  0  0  0  0  0  0  0
    8.3950   14.1524   -4.6906 H   0  0  0  0  0  0  0  0  0  0  0  0
    7.3361   12.8472   -4.1542 H   0  0  0  0  0  0  0  0  0  0  0  0
    9.0742   12.5710   -4.3431 H   0  0  0  0  0  0  0  0  0  0  0  0
    9.9563   14.2456   -2.3700 C   0  0  0  0  0  0  0  0  0  0  0  0
   10.0765   14.5890   -1.3441 H   0  0  0  0  0  0  0  0  0  0  0  0
   10.1605   15.0763   -3.0427 H   0  0  0  0  0  0  0  0  0  0  0  0
   10.6844   13.4613   -2.5531 H   0  0  0  0  0  0  0  0  0  0  0  0
    8.5527   11.3274   -1.4131 C   0  0  0  0  0  0  0  0  0  0  0  0
    9.1864   10.2314   -2.2413 C   0  0  0  0  0  0  0  0  0  0  0  0
    9.3592    9.0026   -1.3424 C   0  0  0  0  0  0  0  0  0  0  0  0
    9.8225    8.1889   -1.8963 H   0  0  0  0  0  0  0  0  0  0  0  0
    8.3889    8.6618   -0.9806 H   0  0  0  0  0  0  0  0  0  0  0  0
    9.9872    9.2419   -0.4846 H   0  0  0  0  0  0  0  0  0  0  0  0
    8.2414    9.8417   -3.3864 C   0  0  0  0  0  0  0  0  0  0  0  0
    7.2562    9.6043   -2.9872 H   0  0  0  0  0  0  0  0  0  0  0  0
    8.6261    8.9639   -3.9020 H   0  0  0  0  0  0  0  0  0  0  0  0
    8.1322   10.6431   -4.1082 H   0  0  0  0  0  0  0  0  0  0  0  0
   10.5663   10.6250   -2.7771 C   0  0  0  0  0  0  0  0  0  0  0  0
   11.0243    9.7731   -3.2762 H   0  0  0  0  0  0  0  0  0  0  0  0
   11.2114   10.9323   -1.9563 H   0  0  0  0  0  0  0  0  0  0  0  0
   10.5043   11.4384   -3.4922 H   0  0  0  0  0  0  0  0  0  0  0  0
    3.9984   12.1669    1.4734 C   0  0  0  0  0  0  0  0  0  0  0  0
    4.0599   10.7168    1.5078 C   0  0  2  0  0  0  0  0  0  0  0  0
    5.2265   10.3565    2.2357 C   0  0  0  0  0  0  0  0  0  0  0  0
    5.8694   11.5380    2.6494 C   0  0  0  0  0  0  0  0  0  0  0  0
    5.1163   12.6499    2.1965 C   0  0  0  0  0  0  0  0  0  0  0  0
    2.7863   12.9681    1.0983 C   0  0  0  0  0  0  0  0  0  0  0  0
    3.0687   13.9573    0.7389 H   0  0  0  0  0  0  0  0  0  0  0  0
    2.1370   13.0981    1.9662 H   0  0  0  0  0  0  0  0  0  0  0  0
    2.2086   12.4722    0.3186 H   0  0  0  0  0  0  0  0  0  0  0  0
    2.9076    9.7979    1.2327 C   0  0  0  0  0  0  0  0  0  0  0  0
    2.2951    9.6847    2.1291 H   0  0  0  0  0  0  0  0  0  0  0  0
    3.2668    8.8123    0.9417 H   0  0  0  0  0  0  0  0  0  0  0  0
    2.2718   10.1811    0.4349 H   0  0  0  0  0  0  0  0  0  0  0  0
    5.6523    8.9511    2.5094 C   0  0  0  0  0  0  0  0  0  0  0  0
    5.5034    8.3377    1.6216 H   0  0  0  0  0  0  0  0  0  0  0  0
    5.0655    8.5216    3.3228 H   0  0  0  0  0  0  0  0  0  0  0  0
    6.7046    8.9101    2.7780 H   0  0  0  0  0  0  0  0  0  0  0  0
    7.1124   11.6500    3.4634 C   0  0  0  0  0  0  0  0  0  0  0  0
    7.9522   11.9564    2.8324 H   0  0  0  0  0  0  0  0  0  0  0  0
    7.3635   10.7008    3.9278 H   0  0  0  0  0  0  0  0  0  0  0  0
    6.9883   12.4016    4.2412 H   0  0  0  0  0  0  0  0  0  0  0  0
    5.4211   14.0727    2.5246 C   0  0  0  0  0  0  0  0  0  0  0  0
    5.1631   14.2800    3.5648 H   0  0  0  0  0  0  0  0  0  0  0  0
    4.8568   14.7525    1.8912 H   0  0  0  0  0  0  0  0  0  0  0  0
    6.4840   14.2770    2.3945 H   0  0  0  0  0  0  0  0  0  0  0  0
  2  1  1  0  0  0  0
  3  1  1  0  0  0  0
  4  5  1  0  0  0  0
  6 20  2  0  0  0  0
  6  4  1  0  0  0  0
  7 16  1  0  0  0  0
  7  8  1  0  0  0  0
  7  6  1  0  0  0  0
  8 11  1  0  0  0  0
  9  8  1  0  0  0  0
 10  8  1  0  0  0  0
 12  7  1  0  0  0  0
 13 12  1  0  0  0  0
 14 12  1  0  0  0  0
 15 12  1  0  0  0  0
 16 17  1  0  0  0  0
 18 16  1  0  0  0  0
 19 16  1  0  0  0  0
 20  5  1  0  0  0  0
 21 20  1  0  0  0  0
 21 22  1  0  0  0  0
 22 24  1  0  0  0  0
 22 25  1  0  0  0  0
 23 22  1  0  0  0  0
 26 27  1  0  0  0  0
 26 21  1  0  0  0  0
 28 26  1  0  0  0  0
 29 26  1  0  0  0  0
 30 21  1  0  0  0  0
 30 32  1  0  0  0  0
 31 30  1  0  0  0  0
 33 30  1  0  0  0  0
 34 35  1  0  0  0  0
 34 38  2  0  0  0  0
 35  1  1  6  0  0  0
 35 36  1  0  0  0  0
 36 47  1  0  0  0  0
 36 37  2  0  0  0  0
 37 51  1  0  0  0  0
 38 55  1  0  0  0  0
 38 37  1  0  0  0  0
 39 34  1  0  0  0  0
 39 41  1  0  0  0  0
 40 39  1  0  0  0  0
 42 39  1  0  0  0  0
 43 35  1  0  0  0  0
 43 44  1  0  0  0  0
 45 43  1  0  0  0  0
 46 43  1  0  0  0  0
 47 50  1  0  0  0  0
 47 49  1  0  0  0  0
 48 47  1  0  0  0  0
 51 53  1  0  0  0  0
 51 54  1  0  0  0  0
 52 51  1  0  0  0  0
 55 56  1  0  0  0  0
 57 55  1  0  0  0  0
 58 55  1  0  0  0  0
M  END
$$$$
