CSD_code = BUFMUM | q = 0 | S = 0 | Stoichiometry = C40H37ClN4O2Pt | MND = 4
 OpenBabel04212202013D

 85 93  0  0  1  0  0  0  0  0999 V2000
   14.7452   11.0027   15.7843 Pt  0  0  1  0  0  0  0  0  0  0  0  0
   15.9553   12.5149   17.0093 Cl  0  0  0  0  0  0  0  0  0  0  0  0
   13.1880    6.1067   14.9201 O   0  0  0  0  0  0  0  0  0  0  0  0
   13.0702    9.1827   11.1859 O   0  0  0  0  0  0  0  0  0  0  0  0
   14.5974    9.5151   17.1396 N   0  0  0  0  0  0  0  0  0  0  0  0
   13.7568    7.5207   17.6683 N   0  0  0  0  0  0  0  0  0  0  0  0
   14.5632   12.0324   14.0599 N   0  0  0  0  0  0  0  0  0  0  0  0
   13.6807   12.1574   12.0183 N   0  0  0  0  0  0  0  0  0  0  0  0
   13.8078    9.6826   14.7135 C   0  0  0  0  0  0  0  0  0  0  0  0
   13.5760    9.9768   13.3639 C   0  0  0  0  0  0  0  0  0  0  0  0
   13.1950    8.9258   12.5135 C   0  0  0  0  0  0  0  0  0  0  0  0
   13.0292    7.6534   13.0628 C   0  0  0  0  0  0  0  0  0  0  0  0
   12.7444    6.8476   12.4090 H   0  0  0  0  0  0  0  0  0  0  0  0
   13.2467    7.3637   14.4105 C   0  0  0  0  0  0  0  0  0  0  0  0
   13.6129    8.4122   15.2693 C   0  0  0  0  0  0  0  0  0  0  0  0
   13.9580    8.4316   16.6744 C   0  0  2  0  0  3  0  0  0  0  0  0
   14.8393    9.3078   18.4713 C   0  0  0  0  0  0  0  0  0  0  0  0
   14.3118    8.0483   18.8223 C   0  0  0  0  0  0  0  0  0  0  0  0
   14.3661    7.5803   20.1261 C   0  0  0  0  0  0  0  0  0  0  0  0
   13.9311    6.6328   20.4050 H   0  0  0  0  0  0  0  0  0  0  0  0
   14.9906    8.3860   21.0581 C   0  0  0  0  0  0  0  0  0  0  0  0
   15.0548    8.0515   22.0827 H   0  0  0  0  0  0  0  0  0  0  0  0
   15.5365    9.6231   20.7100 C   0  0  0  0  0  0  0  0  0  0  0  0
   16.0167   10.2156   21.4736 H   0  0  0  0  0  0  0  0  0  0  0  0
   15.4661   10.1081   19.4217 C   0  0  0  0  0  0  0  0  0  0  0  0
   15.8682   11.0686   19.1405 H   0  0  0  0  0  0  0  0  0  0  0  0
   12.9187    6.3906   17.6707 C   0  0  0  0  0  0  0  0  0  0  0  0
   13.3750    5.1930   18.2064 C   0  0  0  0  0  0  0  0  0  0  0  0
   14.3999    5.1103   18.5349 H   0  0  0  0  0  0  0  0  0  0  0  0
   12.5156    4.1133   18.3026 C   0  0  0  0  0  0  0  0  0  0  0  0
   12.8700    3.1826   18.7203 H   0  0  0  0  0  0  0  0  0  0  0  0
   11.2078    4.2215   17.8587 C   0  0  0  0  0  0  0  0  0  0  0  0
   10.5384    3.3776   17.9383 H   0  0  0  0  0  0  0  0  0  0  0  0
   10.7606    5.4122   17.3087 C   0  0  0  0  0  0  0  0  0  0  0  0
    9.7425    5.4968   16.9585 H   0  0  0  0  0  0  0  0  0  0  0  0
   11.6087    6.4996   17.2188 C   0  0  0  0  0  0  0  0  0  0  0  0
   11.2653    7.4368   16.8074 H   0  0  0  0  0  0  0  0  0  0  0  0
   13.0364    5.0078   14.0433 C   0  0  0  0  0  0  0  0  0  0  0  0
   13.7813    5.0624   13.2376 H   0  0  0  0  0  0  0  0  0  0  0  0
   12.0320    5.0140   13.5967 H   0  0  0  0  0  0  0  0  0  0  0  0
   13.2403    3.7308   14.8487 C   0  0  0  0  0  0  0  0  0  0  0  0
   14.2249    3.7699   15.3174 H   0  0  0  0  0  0  0  0  0  0  0  0
   12.4956    3.6976   15.6441 H   0  0  0  0  0  0  0  0  0  0  0  0
   13.1256    2.4833   13.9778 C   0  0  0  0  0  0  0  0  0  0  0  0
   13.8786    2.5187   13.1873 H   0  0  0  0  0  0  0  0  0  0  0  0
   12.1434    2.4650   13.4998 H   0  0  0  0  0  0  0  0  0  0  0  0
   13.3126    1.2157   14.8016 C   0  0  0  0  0  0  0  0  0  0  0  0
   13.2279    0.3338   14.1716 H   0  0  0  0  0  0  0  0  0  0  0  0
   12.5580    1.1558   15.5824 H   0  0  0  0  0  0  0  0  0  0  0  0
   14.2929    1.2095   15.2723 H   0  0  0  0  0  0  0  0  0  0  0  0
   12.8591    8.1083   10.2907 C   0  0  0  0  0  0  0  0  0  0  0  0
   13.6368    7.3444   10.4289 H   0  0  0  0  0  0  0  0  0  0  0  0
   11.8771    7.6496   10.4741 H   0  0  0  0  0  0  0  0  0  0  0  0
   12.9170    8.6538    8.8698 C   0  0  0  0  0  0  0  0  0  0  0  0
   13.8840    9.1363    8.7199 H   0  0  0  0  0  0  0  0  0  0  0  0
   12.1455    9.4156    8.7579 H   0  0  0  0  0  0  0  0  0  0  0  0
   12.7134    7.5549    7.8307 C   0  0  0  0  0  0  0  0  0  0  0  0
   13.5026    6.8062    7.9300 H   0  0  0  0  0  0  0  0  0  0  0  0
   11.7587    7.0566    8.0140 H   0  0  0  0  0  0  0  0  0  0  0  0
   12.7252    8.1225    6.4171 C   0  0  0  0  0  0  0  0  0  0  0  0
   12.5769    7.3317    5.6859 H   0  0  0  0  0  0  0  0  0  0  0  0
   13.6755    8.6087    6.2103 H   0  0  0  0  0  0  0  0  0  0  0  0
   11.9321    8.8567    6.2968 H   0  0  0  0  0  0  0  0  0  0  0  0
   13.9048   11.3620   13.1023 C   0  0  0  0  0  0  0  0  0  0  0  0
   14.7958   13.2972   13.5894 C   0  0  0  0  0  0  0  0  0  0  0  0
   14.2412   13.3930   12.2969 C   0  0  0  0  0  0  0  0  0  0  0  0
   14.2811   14.5785   11.5793 C   0  0  0  0  0  0  0  0  0  0  0  0
   13.8251   14.6647   10.6050 H   0  0  0  0  0  0  0  0  0  0  0  0
   14.9199   15.6508   12.1708 C   0  0  0  0  0  0  0  0  0  0  0  0
   14.9739   16.5888   11.6389 H   0  0  0  0  0  0  0  0  0  0  0  0
   15.4932   15.5532   13.4402 C   0  0  0  0  0  0  0  0  0  0  0  0
   15.9844   16.4180   13.8594 H   0  0  0  0  0  0  0  0  0  0  0  0
   15.4367   14.3866   14.1720 C   0  0  0  0  0  0  0  0  0  0  0  0
   15.8600   14.3014   15.1604 H   0  0  0  0  0  0  0  0  0  0  0  0
   12.8093   11.9449   10.9343 C   0  0  0  0  0  0  0  0  0  0  0  0
   13.2292   12.2358    9.6427 C   0  0  0  0  0  0  0  0  0  0  0  0
   14.2526   12.5309    9.4672 H   0  0  0  0  0  0  0  0  0  0  0  0
   12.3353   12.1352    8.5919 C   0  0  0  0  0  0  0  0  0  0  0  0
   12.6610   12.3637    7.5880 H   0  0  0  0  0  0  0  0  0  0  0  0
   11.0288   11.7375    8.8243 C   0  0  0  0  0  0  0  0  0  0  0  0
   10.3317   11.6650    8.0025 H   0  0  0  0  0  0  0  0  0  0  0  0
   10.6182   11.4288   10.1115 C   0  0  0  0  0  0  0  0  0  0  0  0
    9.6015   11.1136   10.2933 H   0  0  0  0  0  0  0  0  0  0  0  0
   11.5016   11.5364   11.1687 C   0  0  0  0  0  0  0  0  0  0  0  0
   11.1874   11.3155   12.1777 H   0  0  0  0  0  0  0  0  0  0  0  0
  1  2  1  6  0  0  0
  1  5  1  0  0  0  0
  4 11  1  0  0  0  0
  5 17  1  0  0  0  0
  6 27  1  0  0  0  0
  6 18  1  0  0  0  0
  7  1  1  0  0  0  0
  8 66  1  0  0  0  0
  8 64  1  0  0  0  0
  9 15  1  0  0  0  0
  9  1  2  0  0  0  0
 10  9  1  0  0  0  0
 11 12  2  0  0  0  0
 11 10  1  0  0  0  0
 12 14  1  0  0  0  0
 13 12  1  0  0  0  0
 14  3  1  0  0  0  0
 14 15  2  0  0  0  0
 16 15  1  6  0  0  0
 16  5  1  0  0  0  0
 16  6  1  0  0  0  0
 17 18  2  0  0  0  0
 17 25  1  0  0  0  0
 18 19  1  0  0  0  0
 19 20  1  0  0  0  0
 19 21  2  0  0  0  0
 21 22  1  0  0  0  0
 23 21  1  0  0  0  0
 23 24  1  0  0  0  0
 25 23  2  0  0  0  0
 26 25  1  0  0  0  0
 27 28  1  0  0  0  0
 28 30  2  0  0  0  0
 28 29  1  0  0  0  0
 30 31  1  0  0  0  0
 32 33  1  0  0  0  0
 32 30  1  0  0  0  0
 34 32  2  0  0  0  0
 35 34  1  0  0  0  0
 36 34  1  0  0  0  0
 36 27  2  0  0  0  0
 37 36  1  0  0  0  0
 38 41  1  0  0  0  0
 38  3  1  0  0  0  0
 39 38  1  0  0  0  0
 40 38  1  0  0  0  0
 41 42  1  0  0  0  0
 41 43  1  0  0  0  0
 44 47  1  0  0  0  0
 44 41  1  0  0  0  0
 45 44  1  0  0  0  0
 46 44  1  0  0  0  0
 47 50  1  0  0  0  0
 47 49  1  0  0  0  0
 48 47  1  0  0  0  0
 51 52  1  0  0  0  0
 51 53  1  0  0  0  0
 51  4  1  0  0  0  0
 54 51  1  0  0  0  0
 55 54  1  0  0  0  0
 56 54  1  0  0  0  0
 57 58  1  0  0  0  0
 57 59  1  0  0  0  0
 57 54  1  0  0  0  0
 60 57  1  0  0  0  0
 61 60  1  0  0  0  0
 62 60  1  0  0  0  0
 63 60  1  0  0  0  0
 64 10  2  0  0  0  0
 64  7  1  0  0  0  0
 65  7  1  0  0  0  0
 65 73  1  0  0  0  0
 66 65  2  0  0  0  0
 67 69  2  0  0  0  0
 67 66  1  0  0  0  0
 68 67  1  0  0  0  0
 69 71  1  0  0  0  0
 70 69  1  0  0  0  0
 71 72  1  0  0  0  0
 71 73  2  0  0  0  0
 73 74  1  0  0  0  0
 75 84  1  0  0  0  0
 75  8  1  0  0  0  0
 76 75  2  0  0  0  0
 77 76  1  0  0  0  0
 78 80  2  0  0  0  0
 78 76  1  0  0  0  0
 79 78  1  0  0  0  0
 80 82  1  0  0  0  0
 81 80  1  0  0  0  0
 82 83  1  0  0  0  0
 82 84  2  0  0  0  0
 84 85  1  0  0  0  0
M  END
$$$$
