CSD_code = BUFQEA | q = 0 | S = 0 | Stoichiometry = C8H11Cl2N3Pt | MND = 4
 OpenBabel04212202013D

 25 26  0  0  1  0  0  0  0  0999 V2000
    7.0173    2.2294   12.0707 Pt  0  0  0  0  0  0  0  0  0  0  0  0
    7.1525    3.0601    9.9723 Cl  0  0  0  0  0  0  0  0  0  0  0  0
    5.0758    3.2805   12.5183 Cl  0  0  0  0  0  0  0  0  0  0  0  0
    6.9286    1.4799   13.9519 N   0  0  0  0  0  0  0  0  0  0  0  0
    6.0378    0.5910   14.4057 C   0  0  1  0  0  3  0  0  0  0  0  0
    8.9370    1.3445   11.5605 N   0  0  0  0  0  4  0  0  0  0  0  0
    9.7180    1.7287   12.0847 H   0  0  0  0  0  0  0  0  0  0  0  0
    8.9772    1.6987   10.5977 H   0  0  0  0  0  0  0  0  0  0  0  0
    9.0049    0.3312   11.5537 H   0  0  0  0  0  0  0  0  0  0  0  0
    4.7911   -0.0332   12.3080 C   0  0  0  0  0  0  0  0  0  0  0  0
    4.0051    0.7079   12.1395 H   0  0  0  0  0  0  0  0  0  0  0  0
    4.4558   -1.0088   11.9582 H   0  0  0  0  0  0  0  0  0  0  0  0
    5.6749    0.2805   11.7342 H   0  0  0  0  0  0  0  0  0  0  0  0
    6.8062    0.7946   16.6978 C   0  0  0  0  0  0  0  0  0  0  0  0
    6.7630    0.5399   17.7452 H   0  0  0  0  0  0  0  0  0  0  0  0
    5.1124   -0.1149   13.7086 N   0  0  0  0  0  0  0  0  0  0  0  0
    5.9429    0.2077   15.7798 C   0  0  0  0  0  0  0  0  0  0  0  0
    7.7122    1.7176   16.2123 C   0  0  0  0  0  0  0  0  0  0  0  0
    8.4035    2.2137   16.8741 H   0  0  0  0  0  0  0  0  0  0  0  0
    4.4282   -0.9059   14.5901 C   0  0  0  0  0  0  0  0  0  0  0  0
    3.6361   -1.5386   14.2382 H   0  0  0  0  0  0  0  0  0  0  0  0
    7.7388    2.0264   14.8571 C   0  0  0  0  0  0  0  0  0  0  0  0
    8.4406    2.7617   14.4842 H   0  0  0  0  0  0  0  0  0  0  0  0
    4.9020   -0.7511   15.8570 C   0  0  0  0  0  0  0  0  0  0  0  0
    4.5593   -1.2487   16.7410 H   0  0  0  0  0  0  0  0  0  0  0  0
  1  3  1  0  0  0  0
  1  4  1  0  0  0  0
  2  1  1  0  0  0  0
  4  5  1  0  0  0  0
  4 22  1  0  0  0  0
  5 17  1  6  0  0  0
  6  1  1  0  0  0  0
  6  7  1  0  0  0  0
  8  6  1  0  0  0  0
  9  6  1  0  0  0  0
 10 16  1  0  0  0  0
 11 10  1  0  0  0  0
 12 10  1  0  0  0  0
 13 10  1  0  0  0  0
 14 15  1  0  0  0  0
 16  5  1  0  0  0  0
 16 20  1  0  0  0  0
 17 24  1  0  0  0  0
 17 14  2  0  0  0  0
 18 14  1  0  0  0  0
 18 19  1  0  0  0  0
 20 24  2  0  0  0  0
 21 20  1  0  0  0  0
 22 18  2  0  0  0  0
 23 22  1  0  0  0  0
 24 25  1  0  0  0  0
M  END
$$$$
