CSD_code = BUFVOP | q = 0 | S = 0 | Stoichiometry = C9H8Cl2N2Pd | MND = 4
 OpenBabel04212202013D

 22 24  0  0  0  0  0  0  0  0999 V2000
    5.0489   12.5722    3.9740 Pd  0  0  0  0  0  0  0  0  0  0  0  0
    5.7054   14.6764    4.0830 Cl  0  0  0  0  0  0  0  0  0  0  0  0
    6.5137   11.9563    5.5182 Cl  0  0  0  0  0  0  0  0  0  0  0  0
    3.5932   13.1017    2.4812 N   0  0  0  0  0  4  0  0  0  0  0  0
    4.2863   10.7413    3.6990 N   0  0  0  0  0  0  0  0  0  0  0  0
    2.9318   11.8904    2.0837 C   0  0  0  0  0  0  0  0  0  0  0  0
    1.9706   11.8611    1.1012 C   0  0  0  0  0  0  0  0  0  0  0  0
    1.6924   12.7735    0.5935 H   0  0  0  0  0  0  0  0  0  0  0  0
    1.3473   10.6564    0.7528 C   0  0  0  0  0  0  0  0  0  0  0  0
    0.5947   10.6588   -0.0204 H   0  0  0  0  0  0  0  0  0  0  0  0
    1.6845    9.4908    1.3854 C   0  0  0  0  0  3  0  0  0  0  0  0
    1.2043    8.5609    1.1215 H   0  0  0  0  0  0  0  0  0  0  0  0
    2.6709    9.4782    2.3916 C   0  0  0  0  0  0  0  0  0  0  0  0
    3.0689    8.3054    3.0695 C   0  0  0  0  0  0  0  0  0  0  0  0
    2.5977    7.3661    2.8222 H   0  0  0  0  0  0  0  0  0  0  0  0
    4.0479    8.3876    4.0245 C   0  0  0  0  0  0  0  0  0  0  0  0
    4.3790    7.5141    4.5625 H   0  0  0  0  0  0  0  0  0  0  0  0
    4.6363    9.6263    4.3096 C   0  0  0  0  0  0  0  0  0  0  0  0
    5.4184    9.7207    5.0552 H   0  0  0  0  0  0  0  0  0  0  0  0
    3.3092   10.6960    2.7452 C   0  0  0  0  0  0  0  0  0  0  0  0
    4.0131   13.5997    1.6927 H   0  0  0  0  0  0  0  0  0  0  0  0
    2.9609   13.7577    2.9493 H   0  0  0  0  0  0  0  0  0  0  0  0
  1  2  1  0  0  0  0
  1  3  1  0  0  0  0
  4 22  1  0  0  0  0
  4  1  1  0  0  0  0
  5  1  1  0  0  0  0
  5 18  1  0  0  0  0
  6  4  1  0  0  0  0
  6 20  2  0  0  0  0
  7  6  1  0  0  0  0
  8  7  1  0  0  0  0
  9  7  2  0  0  0  0
  9 11  1  0  0  0  0
 10  9  1  0  0  0  0
 11 13  1  0  0  0  0
 12 11  1  0  0  0  0
 13 20  1  0  0  0  0
 13 14  2  0  0  0  0
 14 16  1  0  0  0  0
 15 14  1  0  0  0  0
 16 18  2  0  0  0  0
 16 17  1  0  0  0  0
 18 19  1  0  0  0  0
 20  5  1  0  0  0  0
 21  4  1  0  0  0  0
M  END
$$$$
