CSD_code = BUGFOA | q = 0 | S = 0 | Stoichiometry = C40H34Cl2P2Pt | MND = 4
 OpenBabel04212202013D

 79 86  0  0  0  0  0  0  0  0999 V2000
    1.0776    6.3139   14.2596 Pt  0  0  0  0  0  0  0  0  0  0  0  0
    2.2818    8.2254   14.7678 Cl  0  0  0  0  0  0  0  0  0  0  0  0
    2.7283    4.8893   15.0456 Cl  0  0  0  0  0  0  0  0  0  0  0  0
   -0.3498    7.9300   13.5481 P   0  0  0  0  0  4  0  0  0  0  0  0
    0.1235    4.3465   13.6218 P   0  0  0  0  0  4  0  0  0  0  0  0
   -1.0674    8.9721   14.8495 C   0  0  0  0  0  0  0  0  0  0  0  0
   -0.6660    8.8079   16.1693 C   0  0  0  0  0  0  0  0  0  0  0  0
    0.0927    8.0704   16.4041 H   0  0  0  0  0  0  0  0  0  0  0  0
   -1.2231    9.5903   17.1647 C   0  0  0  0  0  0  0  0  0  0  0  0
   -0.9061    9.4649   18.1893 H   0  0  0  0  0  0  0  0  0  0  0  0
   -2.1855   10.5343   16.8465 C   0  0  0  0  0  0  0  0  0  0  0  0
   -2.6172   11.1490   17.6227 H   0  0  0  0  0  0  0  0  0  0  0  0
   -2.6013   10.6885   15.5330 C   0  0  0  0  0  0  0  0  0  0  0  0
   -3.3574   11.4201   15.2873 H   0  0  0  0  0  0  0  0  0  0  0  0
   -2.0507    9.9065   14.5347 C   0  0  0  0  0  0  0  0  0  0  0  0
   -2.3827   10.0126   13.5101 H   0  0  0  0  0  0  0  0  0  0  0  0
    0.4880    9.0646   12.4044 C   0  0  0  0  0  0  0  0  0  0  0  0
    0.4912   10.4458   12.5425 C   0  0  0  0  0  0  0  0  0  0  0  0
   -0.0460   10.9128   13.3547 H   0  0  0  0  0  0  0  0  0  0  0  0
    1.2110   11.2243   11.6521 C   0  0  0  0  0  0  0  0  0  0  0  0
    1.2176   12.2984   11.7677 H   0  0  0  0  0  0  0  0  0  0  0  0
    1.9306   10.6351   10.6269 C   0  0  0  0  0  0  0  0  0  0  0  0
    2.4956   11.2485    9.9405 H   0  0  0  0  0  0  0  0  0  0  0  0
    1.9426    9.2554   10.4937 C   0  0  0  0  0  0  0  0  0  0  0  0
    2.5184    8.7913    9.7060 H   0  0  0  0  0  0  0  0  0  0  0  0
    1.2290    8.4751   11.3818 C   0  0  0  0  0  0  0  0  0  0  0  0
    1.2486    7.3936   11.3040 H   0  0  0  0  0  0  0  0  0  0  0  0
   -1.8634    7.4715   12.6320 C   0  0  0  0  0  0  0  0  0  0  0  0
   -1.9150    7.5526   11.2470 C   0  0  0  0  0  0  0  0  0  0  0  0
   -1.0350    7.8518   10.6965 H   0  0  0  0  0  0  0  0  0  0  0  0
   -3.0493    7.1560   10.5501 C   0  0  0  0  0  0  0  0  0  0  0  0
   -4.2192    6.9754   11.2793 C   0  0  0  0  0  0  0  0  0  0  0  0
   -5.1543    6.8091   10.7648 H   0  0  0  0  0  0  0  0  0  0  0  0
   -4.1710    6.8718   12.6575 C   0  0  0  0  0  0  0  0  0  0  0  0
   -5.0667    6.6143   13.2038 H   0  0  0  0  0  0  0  0  0  0  0  0
   -2.9596    6.9476   13.3320 C   0  0  0  0  0  0  0  0  0  0  0  0
   -2.7823    6.2732   14.6623 C   0  0  0  0  0  0  0  0  0  0  0  0
   -3.4773    6.6586   15.4103 H   0  0  0  0  0  0  0  0  0  0  0  0
   -1.7613    6.4475   15.0179 H   0  0  0  0  0  0  0  0  0  0  0  0
   -2.9931    4.7304   14.5244 C   0  0  0  0  0  0  0  0  0  0  0  0
   -2.3690    4.2365   15.2689 H   0  0  0  0  0  0  0  0  0  0  0  0
   -4.0354    4.4871   14.7369 H   0  0  0  0  0  0  0  0  0  0  0  0
   -2.9564    6.7115    9.1187 C   0  0  0  0  0  0  0  0  0  0  0  0
   -2.3800    7.4183    8.5208 H   0  0  0  0  0  0  0  0  0  0  0  0
   -3.9595    6.6431    8.6967 H   0  0  0  0  0  0  0  0  0  0  0  0
   -2.2646    5.3046    9.0373 C   0  0  0  0  0  0  0  0  0  0  0  0
   -2.7552    4.7206    8.2575 H   0  0  0  0  0  0  0  0  0  0  0  0
   -1.2183    5.4351    8.7597 H   0  0  0  0  0  0  0  0  0  0  0  0
   -2.6724    4.2912   13.1245 C   0  0  0  0  0  0  0  0  0  0  0  0
   -3.7128    4.0229   12.2414 C   0  0  0  0  0  0  0  0  0  0  0  0
   -4.6954    3.8066   12.6362 H   0  0  0  0  0  0  0  0  0  0  0  0
   -3.5516    4.1607   10.8761 C   0  0  0  0  0  0  0  0  0  0  0  0
   -4.4002    4.0357   10.2201 H   0  0  0  0  0  0  0  0  0  0  0  0
   -2.3373    4.6062   10.3654 C   0  0  0  0  0  0  0  0  0  0  0  0
   -1.2384    4.5630   11.2138 C   0  0  0  0  0  0  0  0  0  0  0  0
   -0.2504    4.7556   10.8168 H   0  0  0  0  0  0  0  0  0  0  0  0
   -1.3813    4.3650   12.5835 C   0  0  0  0  0  0  0  0  0  0  0  0
    1.3245    3.5517   12.5042 C   0  0  0  0  0  0  0  0  0  0  0  0
    2.2056    4.3979   11.8344 C   0  0  0  0  0  0  0  0  0  0  0  0
    2.1716    5.4657   12.0414 H   0  0  0  0  0  0  0  0  0  0  0  0
    3.1450    3.8873   10.9604 C   0  0  0  0  0  0  0  0  0  0  0  0
    3.8289    4.5517   10.4529 H   0  0  0  0  0  0  0  0  0  0  0  0
    3.2194    2.5191   10.7519 C   0  0  0  0  0  0  0  0  0  0  0  0
    3.9582    2.1141   10.0763 H   0  0  0  0  0  0  0  0  0  0  0  0
    2.3591    1.6711   11.4278 C   0  0  0  0  0  0  0  0  0  0  0  0
    2.4295    0.6029   11.2823 H   0  0  0  0  0  0  0  0  0  0  0  0
    1.4130    2.1808   12.3008 C   0  0  0  0  0  0  0  0  0  0  0  0
    0.7651    1.5049   12.8378 H   0  0  0  0  0  0  0  0  0  0  0  0
   -0.2835    3.0696   14.8511 C   0  0  0  0  0  0  0  0  0  0  0  0
   -1.0105    1.9362   14.4892 C   0  0  0  0  0  0  0  0  0  0  0  0
   -1.3780    1.8279   13.4776 H   0  0  0  0  0  0  0  0  0  0  0  0
   -1.2893    0.9655   15.4331 C   0  0  0  0  0  0  0  0  0  0  0  0
   -1.8457    0.0844   15.1473 H   0  0  0  0  0  0  0  0  0  0  0  0
   -0.8605    1.1215   16.7421 C   0  0  0  0  0  0  0  0  0  0  0  0
   -1.0784    0.3580   17.4743 H   0  0  0  0  0  0  0  0  0  0  0  0
   -0.1637    2.2598   17.1112 C   0  0  0  0  0  0  0  0  0  0  0  0
    0.1580    2.3900   18.1336 H   0  0  0  0  0  0  0  0  0  0  0  0
    0.1230    3.2331   16.1703 C   0  0  0  0  0  0  0  0  0  0  0  0
    0.6725    4.1228   16.4466 H   0  0  0  0  0  0  0  0  0  0  0  0
  1  2  1  0  0  0  0
  1  3  1  0  0  0  0
  4  1  1  0  0  0  0
  4  6  1  0  0  0  0
  5  1  1  0  0  0  0
  5 69  1  0  0  0  0
  6  7  1  0  0  0  0
  7  8  1  0  0  0  0
  7  9  2  0  0  0  0
  9 10  1  0  0  0  0
 11  9  1  0  0  0  0
 11 12  1  0  0  0  0
 13 11  2  0  0  0  0
 14 13  1  0  0  0  0
 15  6  2  0  0  0  0
 15 13  1  0  0  0  0
 16 15  1  0  0  0  0
 17 18  1  0  0  0  0
 17  4  1  0  0  0  0
 18 19  1  0  0  0  0
 20 21  1  0  0  0  0
 20 18  2  0  0  0  0
 22 20  1  0  0  0  0
 23 22  1  0  0  0  0
 24 22  2  0  0  0  0
 24 26  1  0  0  0  0
 25 24  1  0  0  0  0
 26 17  2  0  0  0  0
 27 26  1  0  0  0  0
 28 36  1  0  0  0  0
 28  4  1  0  0  0  0
 29 28  2  0  0  0  0
 30 29  1  0  0  0  0
 31 29  1  0  0  0  0
 31 32  2  0  0  0  0
 32 34  1  0  0  0  0
 33 32  1  0  0  0  0
 34 35  1  0  0  0  0
 34 36  2  0  0  0  0
 36 37  1  0  0  0  0
 37 39  1  0  0  0  0
 37 38  1  0  0  0  0
 40 37  1  0  0  0  0
 40 42  1  0  0  0  0
 40 41  1  0  0  0  0
 43 31  1  0  0  0  0
 44 43  1  0  0  0  0
 45 43  1  0  0  0  0
 46 43  1  0  0  0  0
 46 54  1  0  0  0  0
 47 46  1  0  0  0  0
 48 46  1  0  0  0  0
 49 40  1  0  0  0  0
 50 51  1  0  0  0  0
 50 49  2  0  0  0  0
 52 50  1  0  0  0  0
 53 52  1  0  0  0  0
 54 52  2  0  0  0  0
 54 55  1  0  0  0  0
 55 57  2  0  0  0  0
 56 55  1  0  0  0  0
 57 49  1  0  0  0  0
 57  5  1  0  0  0  0
 58  5  1  0  0  0  0
 59 60  1  0  0  0  0
 59 58  2  0  0  0  0
 61 59  1  0  0  0  0
 62 61  1  0  0  0  0
 63 61  2  0  0  0  0
 63 65  1  0  0  0  0
 64 63  1  0  0  0  0
 65 67  2  0  0  0  0
 66 65  1  0  0  0  0
 67 58  1  0  0  0  0
 67 68  1  0  0  0  0
 69 78  1  0  0  0  0
 70 69  2  0  0  0  0
 70 72  1  0  0  0  0
 71 70  1  0  0  0  0
 72 74  2  0  0  0  0
 73 72  1  0  0  0  0
 74 76  1  0  0  0  0
 74 75  1  0  0  0  0
 76 77  1  0  0  0  0
 78 79  1  0  0  0  0
 78 76  2  0  0  0  0
M  END
$$$$
