CSD_code = BUHDUE | q = 0 | S = 0 | Stoichiometry = C13H11BrMnN3O3 | MND = 6
 OpenBabel04212202013D

 32 34  0  0  1  0  0  0  0  0999 V2000
    2.3464    2.0104    5.6638 Mn  0  0  0  0  0  0  0  0  0  0  0  0
    4.5555    2.3100    4.7367 Br  0  0  0  0  0  0  0  0  0  0  0  0
   -0.2452    1.5402    6.9305 O   0  0  0  0  0  1  0  0  0  0  0  0
    1.9017   -0.3639    4.0082 O   0  0  0  0  0  1  0  0  0  0  0  0
    1.0945    3.6289    3.5628 O   0  0  0  0  0  1  0  0  0  0  0  0
    2.8083    3.5874    6.9961 N   0  0  1  0  0  0  0  0  0  0  0  0
    2.8577    3.5242    8.3375 N   0  0  0  0  0  0  0  0  0  0  0  0
    3.4317    0.9280    7.3513 N   0  0  0  0  0  4  0  0  0  0  0  0
    3.6273   -0.0586    7.1756 H   0  0  0  0  0  0  0  0  0  0  0  0
    4.3227    1.4365    7.3016 H   0  0  0  0  0  0  0  0  0  0  0  0
    3.1631    4.8162    6.6590 C   0  0  0  0  0  3  0  0  0  0  0  0
    3.2182    5.1165    5.6290 H   0  0  0  0  0  0  0  0  0  0  0  0
    3.4545    5.5692    7.7994 C   0  0  0  0  0  0  0  0  0  0  0  0
    3.7774    6.5880    7.8389 H   0  0  0  0  0  0  0  0  0  0  0  0
    3.2431    4.7135    8.8513 C   0  0  0  0  0  0  0  0  0  0  0  0
    3.3730    4.8562    9.9046 H   0  0  0  0  0  0  0  0  0  0  0  0
    2.4910    2.3840    9.0784 C   0  0  0  0  0  0  0  0  0  0  0  0
    1.8168    2.5402   10.2815 C   0  0  0  0  0  0  0  0  0  0  0  0
    1.5741    3.5340   10.6267 H   0  0  0  0  0  0  0  0  0  0  0  0
    1.4224    1.4421   11.0336 C   0  0  0  0  0  0  0  0  0  0  0  0
    1.7038    0.1721   10.5474 C   0  0  0  0  0  0  0  0  0  0  0  0
    1.3958   -0.6970   11.1080 H   0  0  0  0  0  0  0  0  0  0  0  0
    2.3714    0.0039    9.3493 C   0  0  0  0  0  0  0  0  0  0  0  0
    2.5745   -0.9914    8.9805 H   0  0  0  0  0  0  0  0  0  0  0  0
    2.7810    1.0985    8.5999 C   0  0  0  0  0  0  0  0  0  0  0  0
    0.6889    1.6419   12.3222 C   0  0  0  0  0  0  0  0  0  0  0  0
    1.2406    2.3141   12.9772 H   0  0  0  0  0  0  0  0  0  0  0  0
    0.5410    0.6961   12.8355 H   0  0  0  0  0  0  0  0  0  0  0  0
   -0.2866    2.0883   12.1328 H   0  0  0  0  0  0  0  0  0  0  0  0
    0.7842    1.7375    6.4536 C   0  0  0  0  0  2  0  0  0  0  0  0
    2.0903    0.5597    4.6635 C   0  0  0  0  0  2  0  0  0  0  0  0
    1.5839    3.0133    4.4002 C   0  0  0  0  0  2  0  0  0  0  0  0
  1 30  1  0  0  0  0
  1  6  1  0  0  0  0
  1  8  1  0  0  0  0
  2  1  1  0  0  0  0
  4 31  1  0  0  0  0
  5 32  1  0  0  0  0
  6 11  1  6  0  0  0
  6  7  1  0  0  0  0
  7 15  1  0  0  0  0
  7 17  1  0  0  0  0
  8 25  1  0  0  0  0
  9  8  1  0  0  0  0
 10  8  1  0  0  0  0
 11 13  1  0  0  0  0
 12 11  1  0  0  0  0
 13 14  1  0  0  0  0
 13 15  2  0  0  0  0
 15 16  1  0  0  0  0
 17 18  1  0  0  0  0
 18 19  1  0  0  0  0
 18 20  2  0  0  0  0
 20 26  1  0  0  0  0
 21 20  1  0  0  0  0
 21 22  1  0  0  0  0
 23 21  2  0  0  0  0
 24 23  1  0  0  0  0
 25 17  2  0  0  0  0
 25 23  1  0  0  0  0
 26 28  1  0  0  0  0
 26 27  1  0  0  0  0
 29 26  1  0  0  0  0
 30  3  1  0  0  0  0
 31  1  1  0  0  0  0
 32  1  1  0  0  0  0
M  END
$$$$
