CSD_code = BUHWEI | q = 0 | S = 0 | Stoichiometry = C37H28Cl2NiOP2 | MND = 4
 OpenBabel04212202013D

 71 78  0  0  0  0  0  0  0  0999 V2000
    5.4596    8.3029    7.0762 Ni  0  0  0  0  0  0  0  0  0  0  0  0
    4.3273   10.0431    7.0299 Cl  0  0  0  0  0  0  0  0  0  0  0  0
    6.0427    6.2453    6.9391 Cl  0  0  0  0  0  0  0  0  0  0  0  0
    5.9728    8.3480    9.2298 P   0  0  0  0  0  4  0  0  0  0  0  0
    6.1463    8.6521    5.0459 P   0  0  0  0  0  4  0  0  0  0  0  0
    7.3739    9.2780    7.0722 O   0  0  0  0  0  0  0  0  0  0  0  0
    7.7276    7.8624    9.4973 C   0  0  0  0  0  0  0  0  0  0  0  0
    8.1085    7.4088   10.7551 C   0  0  0  0  0  0  0  0  0  0  0  0
    7.3559    7.2531   11.5137 H   0  0  0  0  0  0  0  0  0  0  0  0
    9.4365    7.1672   11.0558 C   0  0  0  0  0  0  0  0  0  0  0  0
    9.7093    6.8168   12.0400 H   0  0  0  0  0  0  0  0  0  0  0  0
   10.4143    7.4119   10.1062 C   0  0  0  0  0  0  0  0  0  0  0  0
   11.4575    7.2812   10.3523 H   0  0  0  0  0  0  0  0  0  0  0  0
   10.0533    7.8266    8.8385 C   0  0  0  0  0  0  0  0  0  0  0  0
   10.8223    8.0655    8.1198 H   0  0  0  0  0  0  0  0  0  0  0  0
    8.7141    8.0126    8.5032 C   0  0  0  0  0  0  0  0  0  0  0  0
    8.2678    8.4178    7.1558 C   0  0  0  0  0  3  0  0  0  0  0  0
    8.6530    7.7013    5.9347 C   0  0  0  0  0  0  0  0  0  0  0  0
    9.7666    6.8706    5.8138 C   0  0  0  0  0  0  0  0  0  0  0  0
   10.4283    6.7259    6.6506 H   0  0  0  0  0  0  0  0  0  0  0  0
   10.0294    6.2081    4.6312 C   0  0  0  0  0  0  0  0  0  0  0  0
   10.9028    5.5782    4.5533 H   0  0  0  0  0  0  0  0  0  0  0  0
    9.1642    6.3332    3.5563 C   0  0  0  0  0  0  0  0  0  0  0  0
    9.3640    5.8103    2.6330 H   0  0  0  0  0  0  0  0  0  0  0  0
    8.0195    7.0995    3.6795 C   0  0  0  0  0  0  0  0  0  0  0  0
    7.3192    7.1459    2.8589 H   0  0  0  0  0  0  0  0  0  0  0  0
    7.7499    7.7940    4.8508 C   0  0  0  0  0  0  0  0  0  0  0  0
    5.9783   10.0303    9.9209 C   0  0  0  0  0  0  0  0  0  0  0  0
    4.7356   10.6107   10.1689 C   0  0  0  0  0  0  0  0  0  0  0  0
    3.8366   10.0400    9.9784 H   0  0  0  0  0  0  0  0  0  0  0  0
    4.6554   11.9049   10.6429 C   0  0  0  0  0  0  0  0  0  0  0  0
    3.6898   12.3498   10.8327 H   0  0  0  0  0  0  0  0  0  0  0  0
    5.8133   12.6348   10.8624 C   0  0  0  0  0  0  0  0  0  0  0  0
    5.7516   13.6493   11.2283 H   0  0  0  0  0  0  0  0  0  0  0  0
    7.0485   12.0669   10.6022 C   0  0  0  0  0  0  0  0  0  0  0  0
    7.9515   12.6379   10.7642 H   0  0  0  0  0  0  0  0  0  0  0  0
    7.1356   10.7694   10.1279 C   0  0  0  0  0  0  0  0  0  0  0  0
    8.1033   10.3373    9.9171 H   0  0  0  0  0  0  0  0  0  0  0  0
    5.0995    7.3901   10.5129 C   0  0  0  0  0  0  0  0  0  0  0  0
    4.9022    7.8610   11.8085 C   0  0  0  0  0  0  0  0  0  0  0  0
    5.2799    8.8329   12.0947 H   0  0  0  0  0  0  0  0  0  0  0  0
    4.2214    7.0860   12.7295 C   0  0  0  0  0  0  0  0  0  0  0  0
    4.0725    7.4563   13.7336 H   0  0  0  0  0  0  0  0  0  0  0  0
    3.7311    5.8409   12.3694 C   0  0  0  0  0  0  0  0  0  0  0  0
    3.1979    5.2416   13.0928 H   0  0  0  0  0  0  0  0  0  0  0  0
    3.9212    5.3700   11.0811 C   0  0  0  0  0  0  0  0  0  0  0  0
    3.5365    4.4021   10.7954 H   0  0  0  0  0  0  0  0  0  0  0  0
    4.5991    6.1418   10.1549 C   0  0  0  0  0  0  0  0  0  0  0  0
    4.7458    5.7807    9.1465 H   0  0  0  0  0  0  0  0  0  0  0  0
    6.4842   10.3477    4.4981 C   0  0  0  0  0  0  0  0  0  0  0  0
    7.7760   10.8498    4.4089 C   0  0  0  0  0  0  0  0  0  0  0  0
    8.6185   10.2253    4.6721 H   0  0  0  0  0  0  0  0  0  0  0  0
    7.9811   12.1502    3.9832 C   0  0  0  0  0  0  0  0  0  0  0  0
    8.9868   12.5390    3.9129 H   0  0  0  0  0  0  0  0  0  0  0  0
    6.9025   12.9524    3.6505 C   0  0  0  0  0  0  0  0  0  0  0  0
    7.0672   13.9682    3.3219 H   0  0  0  0  0  0  0  0  0  0  0  0
    5.6125   12.4539    3.7435 C   0  0  0  0  0  0  0  0  0  0  0  0
    4.7703   13.0808    3.4905 H   0  0  0  0  0  0  0  0  0  0  0  0
    5.4010   11.1557    4.1660 C   0  0  0  0  0  0  0  0  0  0  0  0
    4.3981   10.7630    4.2559 H   0  0  0  0  0  0  0  0  0  0  0  0
    5.1140    8.0272    3.6779 C   0  0  0  0  0  0  0  0  0  0  0  0
    4.1174    7.1126    3.9967 C   0  0  0  0  0  0  0  0  0  0  0  0
    3.9981    6.8015    5.0289 H   0  0  0  0  0  0  0  0  0  0  0  0
    3.2864    6.6126    3.0104 C   0  0  0  0  0  0  0  0  0  0  0  0
    2.5143    5.9012    3.2631 H   0  0  0  0  0  0  0  0  0  0  0  0
    3.4439    7.0323    1.7003 C   0  0  0  0  0  0  0  0  0  0  0  0
    2.7958    6.6462    0.9272 H   0  0  0  0  0  0  0  0  0  0  0  0
    4.4265    7.9565    1.3786 C   0  0  0  0  0  0  0  0  0  0  0  0
    4.5411    8.2896    0.3571 H   0  0  0  0  0  0  0  0  0  0  0  0
    5.2587    8.4585    2.3617 C   0  0  0  0  0  0  0  0  0  0  0  0
    6.0172    9.1893    2.1141 H   0  0  0  0  0  0  0  0  0  0  0  0
  1  4  1  0  0  0  0
  2  1  1  0  0  0  0
  3  1  1  0  0  0  0
  4  7  1  0  0  0  0
  4 28  1  0  0  0  0
  4 39  1  0  0  0  0
  5  1  1  0  0  0  0
  6  1  1  0  0  0  0
  6 17  1  0  0  0  0
  7  8  1  0  0  0  0
  8 10  2  0  0  0  0
  8  9  1  0  0  0  0
 10 11  1  0  0  0  0
 12 13  1  0  0  0  0
 12 10  1  0  0  0  0
 14 12  2  0  0  0  0
 15 14  1  0  0  0  0
 16 14  1  0  0  0  0
 16  7  2  0  0  0  0
 17 16  1  0  0  0  0
 18 17  1  0  0  0  0
 19 18  1  0  0  0  0
 19 20  1  0  0  0  0
 21 19  2  0  0  0  0
 22 21  1  0  0  0  0
 23 25  2  0  0  0  0
 23 21  1  0  0  0  0
 24 23  1  0  0  0  0
 25 27  1  0  0  0  0
 26 25  1  0  0  0  0
 27  5  1  0  0  0  0
 27 18  2  0  0  0  0
 28 37  2  0  0  0  0
 28 29  1  0  0  0  0
 29 31  2  0  0  0  0
 30 29  1  0  0  0  0
 31 32  1  0  0  0  0
 31 33  1  0  0  0  0
 33 34  1  0  0  0  0
 35 36  1  0  0  0  0
 35 33  2  0  0  0  0
 37 35  1  0  0  0  0
 38 37  1  0  0  0  0
 39 40  1  0  0  0  0
 40 41  1  0  0  0  0
 40 42  2  0  0  0  0
 42 43  1  0  0  0  0
 44 42  1  0  0  0  0
 44 45  1  0  0  0  0
 46 44  2  0  0  0  0
 47 46  1  0  0  0  0
 48 39  2  0  0  0  0
 48 46  1  0  0  0  0
 49 48  1  0  0  0  0
 50  5  1  0  0  0  0
 51 50  1  0  0  0  0
 51 52  1  0  0  0  0
 53 51  2  0  0  0  0
 54 53  1  0  0  0  0
 55 57  2  0  0  0  0
 55 53  1  0  0  0  0
 56 55  1  0  0  0  0
 57 59  1  0  0  0  0
 58 57  1  0  0  0  0
 59 60  1  0  0  0  0
 59 50  2  0  0  0  0
 61 62  1  0  0  0  0
 61  5  1  0  0  0  0
 62 63  1  0  0  0  0
 64 65  1  0  0  0  0
 64 62  2  0  0  0  0
 66 64  1  0  0  0  0
 67 66  1  0  0  0  0
 68 66  2  0  0  0  0
 68 70  1  0  0  0  0
 69 68  1  0  0  0  0
 70 61  2  0  0  0  0
 71 70  1  0  0  0  0
M  END
$$$$
