CSD_code = BUHZUB | q = 0 | S = 0 | Stoichiometry = C27H39AuCl3N | MND = 4
 OpenBabel04212202013D

 71 75  0  0  1  0  0  0  0  0999 V2000
   12.3758   15.7673    3.3089 Au  0  0  0  0  0  0  0  0  0  0  0  0
   14.1058   17.2348    3.0107 Cl  0  0  0  0  0  0  0  0  0  0  0  0
   10.6925   14.3006    3.6380 Cl  0  0  0  0  0  0  0  0  0  0  0  0
   13.4972   14.1473    2.1719 Cl  0  0  0  0  0  0  0  0  0  0  0  0
   11.7421   17.5449    5.5067 N   0  0  0  0  0  0  0  0  0  0  0  0
    9.5229   17.7296    1.1398 C   0  0  1  0  0  0  0  0  0  0  0  0
    9.2000   16.9309    0.4652 H   0  0  0  0  0  0  0  0  0  0  0  0
   11.8939   16.5045    6.4991 C   0  0  0  0  0  0  0  0  0  0  0  0
   11.5688   17.3558    4.2376 C   0  0  0  0  0  0  0  0  0  0  0  0
   13.1595   16.0302    6.8801 C   0  0  0  0  0  0  0  0  0  0  0  0
   10.7350   15.9836    7.1093 C   0  0  0  0  0  0  0  0  0  0  0  0
   11.7313   18.9838    5.9036 C   0  0  0  0  0  0  0  0  0  0  0  0
   11.0532   18.6057    3.5625 C   0  0  2  0  0  0  0  0  0  0  0  0
   11.0440   17.8206    1.1331 C   0  0  0  0  0  0  0  0  0  0  0  0
   11.4738   16.8439    1.3765 H   0  0  0  0  0  0  0  0  0  0  0  0
   11.4015   18.0821    0.1348 H   0  0  0  0  0  0  0  0  0  0  0  0
    8.8956   19.8440    3.0319 C   0  0  0  0  0  0  0  0  0  0  0  0
    7.8085   19.7371    3.0148 H   0  0  0  0  0  0  0  0  0  0  0  0
    9.1250   20.6645    3.7136 H   0  0  0  0  0  0  0  0  0  0  0  0
   14.4609   16.3990    6.2071 C   0  0  0  0  0  0  0  0  0  0  0  0
   14.2793   17.1487    5.4385 H   0  0  0  0  0  0  0  0  0  0  0  0
    9.0431   17.4186    2.5560 C   0  0  0  0  0  0  0  0  0  0  0  0
    9.4210   16.4485    2.8784 H   0  0  0  0  0  0  0  0  0  0  0  0
    7.9519   17.3666    2.5714 H   0  0  0  0  0  0  0  0  0  0  0  0
   13.0690   19.3529    6.5371 C   0  0  0  0  0  0  0  0  0  0  0  0
   13.8955   19.1423    5.8655 H   0  0  0  0  0  0  0  0  0  0  0  0
   13.2113   18.8133    7.4695 H   0  0  0  0  0  0  0  0  0  0  0  0
   13.0707   20.4189    6.7529 H   0  0  0  0  0  0  0  0  0  0  0  0
   10.6322   19.3291    6.9011 C   0  0  0  0  0  0  0  0  0  0  0  0
   10.7285   20.3769    7.1761 H   0  0  0  0  0  0  0  0  0  0  0  0
   10.7465   18.7323    7.8015 H   0  0  0  0  0  0  0  0  0  0  0  0
    9.6382   19.1801    6.4933 H   0  0  0  0  0  0  0  0  0  0  0  0
    9.3135   16.3441    6.7383 C   0  0  0  0  0  0  0  0  0  0  0  0
    9.3298   17.1008    5.9551 H   0  0  0  0  0  0  0  0  0  0  0  0
   11.5531   19.6821    4.5494 C   0  0  0  0  0  0  0  0  0  0  0  0
   12.5189   20.0443    4.1949 H   0  0  0  0  0  0  0  0  0  0  0  0
   10.8779   20.5271    4.6371 H   0  0  0  0  0  0  0  0  0  0  0  0
    9.4978   18.5215    3.5117 C   0  0  1  0  0  0  0  0  0  0  0  0
    9.1121   18.3075    4.5120 H   0  0  0  0  0  0  0  0  0  0  0  0
    8.5259   16.8820    7.9416 C   0  0  0  0  0  0  0  0  0  0  0  0
    9.0821   17.6271    8.5035 H   0  0  0  0  0  0  0  0  0  0  0  0
    8.2695   16.0748    8.6222 H   0  0  0  0  0  0  0  0  0  0  0  0
    7.5972   17.3327    7.5984 H   0  0  0  0  0  0  0  0  0  0  0  0
   13.2427   15.0938    7.9055 C   0  0  0  0  0  0  0  0  0  0  0  0
   14.2129   14.7313    8.2031 H   0  0  0  0  0  0  0  0  0  0  0  0
    8.9463   19.0657    0.6730 C   0  0  0  0  0  0  0  0  0  0  0  0
    7.8553   19.0186    0.6542 H   0  0  0  0  0  0  0  0  0  0  0  0
    9.2890   19.2846   -0.3401 H   0  0  0  0  0  0  0  0  0  0  0  0
    8.5673   15.1307    6.1756 C   0  0  0  0  0  0  0  0  0  0  0  0
    9.0780   14.7312    5.3062 H   0  0  0  0  0  0  0  0  0  0  0  0
    7.5629   15.4282    5.8824 H   0  0  0  0  0  0  0  0  0  0  0  0
    8.4863   14.3420    6.9182 H   0  0  0  0  0  0  0  0  0  0  0  0
   12.1198   14.6110    8.5391 C   0  0  0  0  0  0  0  0  0  0  0  0
   12.2083   13.8878    9.3353 H   0  0  0  0  0  0  0  0  0  0  0  0
   11.5109   18.8918    2.1182 C   0  0  1  0  0  0  0  0  0  0  0  0
   12.6016   18.9493    2.1013 H   0  0  0  0  0  0  0  0  0  0  0  0
   10.8802   15.0458    8.1241 C   0  0  0  0  0  0  0  0  0  0  0  0
    9.9970   14.6462    8.5951 H   0  0  0  0  0  0  0  0  0  0  0  0
   10.9308   20.2323    1.6538 C   0  0  0  0  0  0  0  0  0  0  0  0
   11.2606   21.0437    2.3041 H   0  0  0  0  0  0  0  0  0  0  0  0
   11.3041   20.4453    0.6506 H   0  0  0  0  0  0  0  0  0  0  0  0
    9.4048   20.1640    1.6302 C   0  0  2  0  0  0  0  0  0  0  0  0
    9.0006   21.1288    1.3049 H   0  0  0  0  0  0  0  0  0  0  0  0
   15.5006   16.9522    7.1875 C   0  0  0  0  0  0  0  0  0  0  0  0
   15.1083   17.7814    7.7700 H   0  0  0  0  0  0  0  0  0  0  0  0
   16.3646   17.3044    6.6295 H   0  0  0  0  0  0  0  0  0  0  0  0
   15.8386   16.1843    7.8783 H   0  0  0  0  0  0  0  0  0  0  0  0
   15.0392   15.1578    5.5170 C   0  0  0  0  0  0  0  0  0  0  0  0
   14.2901   14.6708    4.8944 H   0  0  0  0  0  0  0  0  0  0  0  0
   15.3938   14.4301    6.2426 H   0  0  0  0  0  0  0  0  0  0  0  0
   15.8713   15.4463    4.8796 H   0  0  0  0  0  0  0  0  0  0  0  0
  1  3  1  0  0  0  0
  1  9  2  0  0  0  0
  2  1  1  0  0  0  0
  4  1  1  0  0  0  0
  5 12  1  0  0  0  0
  5  8  1  0  0  0  0
  6  7  1  6  0  0  0
  6 22  1  0  0  0  0
  8 10  2  0  0  0  0
  8 11  1  0  0  0  0
  9  5  1  0  0  0  0
 10 44  1  0  0  0  0
 11 57  2  0  0  0  0
 12 25  1  0  0  0  0
 12 29  1  0  0  0  0
 13  9  1  1  0  0  0
 13 35  1  0  0  0  0
 14  6  1  0  0  0  0
 14 15  1  0  0  0  0
 14 55  1  0  0  0  0
 16 14  1  0  0  0  0
 17 38  1  0  0  0  0
 17 19  1  0  0  0  0
 18 17  1  0  0  0  0
 20 10  1  0  0  0  0
 20 64  1  0  0  0  0
 21 20  1  0  0  0  0
 22 24  1  0  0  0  0
 22 23  1  0  0  0  0
 22 38  1  0  0  0  0
 25 28  1  0  0  0  0
 25 27  1  0  0  0  0
 26 25  1  0  0  0  0
 29 30  1  0  0  0  0
 29 31  1  0  0  0  0
 32 29  1  0  0  0  0
 33 11  1  0  0  0  0
 33 40  1  0  0  0  0
 34 33  1  0  0  0  0
 35 37  1  0  0  0  0
 35 12  1  0  0  0  0
 36 35  1  0  0  0  0
 38 13  1  0  0  0  0
 38 39  1  1  0  0  0
 40 41  1  0  0  0  0
 40 42  1  0  0  0  0
 43 40  1  0  0  0  0
 44 45  1  0  0  0  0
 44 53  2  0  0  0  0
 46  6  1  0  0  0  0
 46 62  1  0  0  0  0
 47 46  1  0  0  0  0
 48 46  1  0  0  0  0
 49 33  1  0  0  0  0
 49 52  1  0  0  0  0
 50 49  1  0  0  0  0
 51 49  1  0  0  0  0
 53 54  1  0  0  0  0
 55 56  1  6  0  0  0
 55 13  1  0  0  0  0
 57 53  1  0  0  0  0
 57 58  1  0  0  0  0
 59 55  1  0  0  0  0
 59 60  1  0  0  0  0
 61 59  1  0  0  0  0
 62 63  1  6  0  0  0
 62 59  1  0  0  0  0
 62 17  1  0  0  0  0
 64 65  1  0  0  0  0
 64 67  1  0  0  0  0
 66 64  1  0  0  0  0
 68 20  1  0  0  0  0
 68 70  1  0  0  0  0
 69 68  1  0  0  0  0
 71 68  1  0  0  0  0
M  END
$$$$
