CSD_code = BUJCEQ | q = 0 | S = 0 | Stoichiometry = C27H39AuI3N | MND = 2
 OpenBabel04212202013D

 71 74  0  0  1  0  0  0  0  0999 V2000
    2.8961    6.3379    4.9305 Au  0  0  0  0  0  0  0  0  0  0  0  0
   -3.0603    4.0339    4.7318 I   0  0  0  0  0  0  0  0  0  0  0  0
    2.3103    5.2644    7.2197 I   0  0  0  0  0  0  0  0  0  0  0  0
   -0.6720    4.6343    5.8963 I   0  0  0  0  0  0  0  0  0  0  0  0
    2.4608    7.6577    2.3754 N   0  0  0  0  0  0  0  0  0  0  0  0
    0.4793    6.2513    2.1513 C   0  0  0  0  0  0  0  0  0  0  0  0
    5.7783    6.5292    2.6197 C   0  0  2  0  0  0  0  0  0  0  0  0
    5.3671    5.6851    2.0519 H   0  0  0  0  0  0  0  0  0  0  0  0
    4.7463    7.6782    2.6166 C   0  0  2  0  0  0  0  0  0  0  0  0
    5.3592    8.8287    3.4564 C   0  0  2  0  0  0  0  0  0  0  0  0
    4.6449    9.6594    3.5043 H   0  0  0  0  0  0  0  0  0  0  0  0
    1.2799    5.1161    1.5532 C   0  0  0  0  0  0  0  0  0  0  0  0
    2.3131    5.4412    1.4005 H   0  0  0  0  0  0  0  0  0  0  0  0
    2.8886    8.3662    1.1456 C   0  0  0  0  0  0  0  0  0  0  0  0
    3.4029    7.2778    3.1765 C   0  0  1  0  0  3  0  0  0  0  0  0
    1.0751    7.4216    2.6435 C   0  0  0  0  0  0  0  0  0  0  0  0
    6.6647    9.3190    2.8243 C   0  0  0  0  0  0  0  0  0  0  0  0
    6.5020    9.7310    1.8272 H   0  0  0  0  0  0  0  0  0  0  0  0
    7.0699   10.1245    3.4410 H   0  0  0  0  0  0  0  0  0  0  0  0
    7.6674    8.1686    2.7588 C   0  0  2  0  0  0  0  0  0  0  0  0
    8.5847    8.5140    2.2693 H   0  0  0  0  0  0  0  0  0  0  0  0
    4.3977    8.1088    1.1689 C   0  0  0  0  0  0  0  0  0  0  0  0
    4.9415    8.9902    0.8449 H   0  0  0  0  0  0  0  0  0  0  0  0
    4.6375    7.2917    0.4864 H   0  0  0  0  0  0  0  0  0  0  0  0
    6.1234    6.0612    4.0324 C   0  0  0  0  0  0  0  0  0  0  0  0
    6.8589    5.2566    3.9689 H   0  0  0  0  0  0  0  0  0  0  0  0
    5.2401    5.6605    4.5331 H   0  0  0  0  0  0  0  0  0  0  0  0
    0.3356    8.3451    3.3946 C   0  0  0  0  0  0  0  0  0  0  0  0
    0.9672    9.4912    4.1525 C   0  0  0  0  0  0  0  0  0  0  0  0
    2.0299    9.5472    3.9031 H   0  0  0  0  0  0  0  0  0  0  0  0
    2.5552    9.8553    1.2367 C   0  0  0  0  0  0  0  0  0  0  0  0
    1.4796    9.9946    1.3010 H   0  0  0  0  0  0  0  0  0  0  0  0
    2.9110   10.3567    0.3397 H   0  0  0  0  0  0  0  0  0  0  0  0
    3.0266   10.3239    2.0959 H   0  0  0  0  0  0  0  0  0  0  0  0
    5.6844    8.3660    4.8783 C   0  0  0  0  0  0  0  0  0  0  0  0
    6.1017    9.2073    5.4363 H   0  0  0  0  0  0  0  0  0  0  0  0
    4.7801    8.0421    5.3968 H   0  0  0  0  0  0  0  0  0  0  0  0
    7.0721    7.0117    1.9559 C   0  0  0  0  0  0  0  0  0  0  0  0
    7.7840    6.1843    1.9241 H   0  0  0  0  0  0  0  0  0  0  0  0
    6.8912    7.3286    0.9274 H   0  0  0  0  0  0  0  0  0  0  0  0
    6.6955    7.2226    4.8388 C   0  0  2  0  0  0  0  0  0  0  0  0
    6.9025    6.8887    5.8601 H   0  0  0  0  0  0  0  0  0  0  0  0
   -0.8918    6.0959    2.3018 C   0  0  0  0  0  0  0  0  0  0  0  0
   -1.3719    5.2095    1.9191 H   0  0  0  0  0  0  0  0  0  0  0  0
    7.9866    7.7020    4.1775 C   0  0  0  0  0  0  0  0  0  0  0  0
    8.7163    6.8903    4.1503 H   0  0  0  0  0  0  0  0  0  0  0  0
    8.4208    8.5233    4.7514 H   0  0  0  0  0  0  0  0  0  0  0  0
   -1.6522    7.0529    2.9440 C   0  0  0  0  0  0  0  0  0  0  0  0
   -2.7201    6.9240    3.0332 H   0  0  0  0  0  0  0  0  0  0  0  0
    2.2189    7.8099   -0.1071 C   0  0  0  0  0  0  0  0  0  0  0  0
    2.5052    6.7793   -0.2917 H   0  0  0  0  0  0  0  0  0  0  0  0
    2.5281    8.4026   -0.9650 H   0  0  0  0  0  0  0  0  0  0  0  0
    1.1360    7.8687   -0.0220 H   0  0  0  0  0  0  0  0  0  0  0  0
    1.3157    3.9491    2.5448 C   0  0  0  0  0  0  0  0  0  0  0  0
    1.7648    4.2616    3.4869 H   0  0  0  0  0  0  0  0  0  0  0  0
    1.9049    3.1304    2.1376 H   0  0  0  0  0  0  0  0  0  0  0  0
    0.3126    3.5835    2.7461 H   0  0  0  0  0  0  0  0  0  0  0  0
   -1.0336    8.1436    3.5193 C   0  0  0  0  0  0  0  0  0  0  0  0
   -1.6228    8.8496    4.0825 H   0  0  0  0  0  0  0  0  0  0  0  0
    0.7060    4.6372    0.2164 C   0  0  0  0  0  0  0  0  0  0  0  0
    0.5084    5.4695   -0.4547 H   0  0  0  0  0  0  0  0  0  0  0  0
   -0.2238    4.0956    0.3668 H   0  0  0  0  0  0  0  0  0  0  0  0
    1.4089    3.9621   -0.2670 H   0  0  0  0  0  0  0  0  0  0  0  0
    0.8642    9.2191    5.6568 C   0  0  0  0  0  0  0  0  0  0  0  0
    1.3588    8.2838    5.9109 H   0  0  0  0  0  0  0  0  0  0  0  0
   -0.1738    9.1493    5.9706 H   0  0  0  0  0  0  0  0  0  0  0  0
    1.3421   10.0210    6.2147 H   0  0  0  0  0  0  0  0  0  0  0  0
    0.3125   10.8386    3.8348 C   0  0  0  0  0  0  0  0  0  0  0  0
    0.2432   11.0114    2.7635 H   0  0  0  0  0  0  0  0  0  0  0  0
    0.8969   11.6435    4.2748 H   0  0  0  0  0  0  0  0  0  0  0  0
   -0.6901   10.8885    4.2505 H   0  0  0  0  0  0  0  0  0  0  0  0
  1  3  1  0  0  0  0
  2  4  1  0  0  0  0
  5 16  1  0  0  0  0
  5 15  1  0  0  0  0
  6 43  2  0  0  0  0
  6 16  1  0  0  0  0
  7  8  1  6  0  0  0
  7 25  1  0  0  0  0
  9 22  1  6  0  0  0
  9  7  1  0  0  0  0
  9 15  1  0  0  0  0
  9 10  1  0  0  0  0
 10 11  1  1  0  0  0
 10 35  1  0  0  0  0
 12  6  1  0  0  0  0
 12 54  1  0  0  0  0
 13 12  1  0  0  0  0
 14 22  1  0  0  0  0
 14 31  1  0  0  0  0
 14  5  1  0  0  0  0
 15  1  1  1  0  0  0
 16 28  2  0  0  0  0
 17 19  1  0  0  0  0
 17 10  1  0  0  0  0
 18 17  1  0  0  0  0
 20 21  1  6  0  0  0
 20 17  1  0  0  0  0
 20 45  1  0  0  0  0
 23 22  1  0  0  0  0
 24 22  1  0  0  0  0
 25 27  1  0  0  0  0
 25 41  1  0  0  0  0
 26 25  1  0  0  0  0
 28 58  1  0  0  0  0
 28 29  1  0  0  0  0
 29 64  1  0  0  0  0
 30 29  1  0  0  0  0
 31 32  1  0  0  0  0
 31 34  1  0  0  0  0
 33 31  1  0  0  0  0
 35 37  1  0  0  0  0
 35 36  1  0  0  0  0
 38  7  1  0  0  0  0
 38 20  1  0  0  0  0
 39 38  1  0  0  0  0
 40 38  1  0  0  0  0
 41 35  1  0  0  0  0
 41 42  1  1  0  0  0
 43 48  1  0  0  0  0
 44 43  1  0  0  0  0
 45 47  1  0  0  0  0
 45 41  1  0  0  0  0
 46 45  1  0  0  0  0
 48 49  1  0  0  0  0
 48 58  2  0  0  0  0
 50 53  1  0  0  0  0
 50 14  1  0  0  0  0
 51 50  1  0  0  0  0
 52 50  1  0  0  0  0
 54 57  1  0  0  0  0
 54 55  1  0  0  0  0
 56 54  1  0  0  0  0
 58 59  1  0  0  0  0
 60 62  1  0  0  0  0
 60 12  1  0  0  0  0
 61 60  1  0  0  0  0
 63 60  1  0  0  0  0
 64 65  1  0  0  0  0
 64 66  1  0  0  0  0
 64 67  1  0  0  0  0
 68 29  1  0  0  0  0
 68 71  1  0  0  0  0
 68 70  1  0  0  0  0
 69 68  1  0  0  0  0
M  END
$$$$
