CSD_code = BUJDEQ | q = 0 | S = 0 | Stoichiometry = C32H50Cl2P2Pd | MND = 4
 OpenBabel04212202013D

 87 90  0  0  0  0  0  0  0  0999 V2000
   -0.0001    0.0001   12.4607 Pd  0  0  0  0  0  0  0  0  0  0  0  0
   -1.7111    1.4589   12.8286 Cl  0  0  0  0  0  0  0  0  0  0  0  0
    1.1399    1.1737   14.0460 P   0  0  0  0  0  4  0  0  0  0  0  0
    1.4132    2.8196   13.2645 C   0  0  0  0  0  0  0  0  0  0  0  0
    0.4288    3.2760   13.1208 H   0  0  0  0  0  0  0  0  0  0  0  0
    2.0278    3.4698   13.8926 H   0  0  0  0  0  0  0  0  0  0  0  0
    2.0654    2.5870   11.9035 C   0  0  0  0  0  0  0  0  0  0  0  0
    3.0946    2.2472   12.0068 H   0  0  0  0  0  0  0  0  0  0  0  0
    2.0696    3.5015   11.3144 H   0  0  0  0  0  0  0  0  0  0  0  0
    1.4974    1.8126   11.3582 H   0  0  0  0  0  0  0  0  0  0  0  0
    2.8699    0.6722   14.4660 C   0  0  0  0  0  0  0  0  0  0  0  0
    2.8493   -0.3670   14.7964 H   0  0  0  0  0  0  0  0  0  0  0  0
    3.4323    0.6810   13.5287 H   0  0  0  0  0  0  0  0  0  0  0  0
    3.5380    1.5560   15.5106 C   0  0  0  0  0  0  0  0  0  0  0  0
    3.6932    2.5654   15.1370 H   0  0  0  0  0  0  0  0  0  0  0  0
    4.5105    1.1451   15.7762 H   0  0  0  0  0  0  0  0  0  0  0  0
    2.9321    1.6186   16.4136 H   0  0  0  0  0  0  0  0  0  0  0  0
    0.3565    1.5111   15.6583 C   0  0  0  0  0  0  0  0  0  0  0  0
    0.0233    2.8167   16.0087 C   0  0  0  0  0  0  0  0  0  0  0  0
    0.2347    3.6299   15.3334 H   0  0  0  0  0  0  0  0  0  0  0  0
   -0.5890    3.0943   17.2159 C   0  0  0  0  0  0  0  0  0  0  0  0
   -0.8415    4.1131   17.4697 H   0  0  0  0  0  0  0  0  0  0  0  0
   -0.8758    2.0631   18.0922 C   0  0  0  0  0  0  0  0  0  0  0  0
   -1.3496    2.2702   19.0404 H   0  0  0  0  0  0  0  0  0  0  0  0
   -0.5586    0.7628   17.7474 C   0  0  0  0  0  0  0  0  0  0  0  0
   -0.7895   -0.0334   18.4390 H   0  0  0  0  0  0  0  0  0  0  0  0
    0.0455    0.4605   16.5328 C   0  0  0  0  0  0  0  0  0  0  0  0
    0.3945   -0.9656   16.1997 C   0  0  0  0  0  0  0  0  0  0  0  0
    0.6733   -1.0169   15.1305 H   0  0  0  0  0  0  0  0  0  0  0  0
   -0.7681   -1.9426   16.4012 C   0  0  0  0  0  0  0  0  0  0  0  0
   -1.6337   -1.6074   15.8259 H   0  0  0  0  0  0  0  0  0  0  0  0
   -1.0592   -1.9735   17.4527 H   0  0  0  0  0  0  0  0  0  0  0  0
   -0.3364   -3.3407   15.9651 C   0  0  0  0  0  0  0  0  0  0  0  0
   -1.1701   -4.0381   16.0735 H   0  0  0  0  0  0  0  0  0  0  0  0
   -0.0405   -3.3172   14.9141 H   0  0  0  0  0  0  0  0  0  0  0  0
    0.8534   -3.8160   16.7928 C   0  0  0  0  0  0  0  0  0  0  0  0
    1.1588   -4.8124   16.4674 H   0  0  0  0  0  0  0  0  0  0  0  0
    0.5673   -3.8810   17.8458 H   0  0  0  0  0  0  0  0  0  0  0  0
    2.0142   -2.8391   16.6386 C   0  0  0  0  0  0  0  0  0  0  0  0
    2.3376   -2.8271   15.5948 H   0  0  0  0  0  0  0  0  0  0  0  0
    2.8607   -3.1608   17.2493 H   0  0  0  0  0  0  0  0  0  0  0  0
    1.5806   -1.4368   17.0530 C   0  0  0  0  0  0  0  0  0  0  0  0
    2.4166   -0.7417   16.9621 H   0  0  0  0  0  0  0  0  0  0  0  0
    1.2775   -1.4454   18.1030 H   0  0  0  0  0  0  0  0  0  0  0  0
    1.7107   -1.4587   12.0921 Cl  0  0  0  0  0  0  0  0  0  0  0  0
   -1.1399   -1.1735   10.8751 P   0  0  0  0  0  4  0  0  0  0  0  0
   -1.4135   -2.8193   11.6567 C   0  0  0  0  0  0  0  0  0  0  0  0
   -0.4291   -3.2756   11.8007 H   0  0  0  0  0  0  0  0  0  0  0  0
   -2.0280   -3.4697   11.0288 H   0  0  0  0  0  0  0  0  0  0  0  0
   -2.0658   -2.5866   13.0177 C   0  0  0  0  0  0  0  0  0  0  0  0
   -3.0950   -2.2467   12.9143 H   0  0  0  0  0  0  0  0  0  0  0  0
   -2.0702   -3.5010   13.6069 H   0  0  0  0  0  0  0  0  0  0  0  0
   -1.4977   -1.8122   13.5630 H   0  0  0  0  0  0  0  0  0  0  0  0
   -2.8699   -0.6718   10.4551 C   0  0  0  0  0  0  0  0  0  0  0  0
   -2.8490    0.3674   10.1245 H   0  0  0  0  0  0  0  0  0  0  0  0
   -3.4323   -0.6804   11.3923 H   0  0  0  0  0  0  0  0  0  0  0  0
   -3.5381   -1.5555    9.4105 C   0  0  0  0  0  0  0  0  0  0  0  0
   -3.6935   -2.5649    9.7841 H   0  0  0  0  0  0  0  0  0  0  0  0
   -4.5106   -1.1445    9.1448 H   0  0  0  0  0  0  0  0  0  0  0  0
   -2.9322   -1.6182    8.5075 H   0  0  0  0  0  0  0  0  0  0  0  0
   -0.3566   -1.5112    9.2628 C   0  0  0  0  0  0  0  0  0  0  0  0
   -0.0233   -2.8168    8.9128 C   0  0  0  0  0  0  0  0  0  0  0  0
   -0.2346   -3.6299    9.5882 H   0  0  0  0  0  0  0  0  0  0  0  0
    0.5890   -3.0947    7.7056 C   0  0  0  0  0  0  0  0  0  0  0  0
    0.8416   -4.1135    7.4521 H   0  0  0  0  0  0  0  0  0  0  0  0
    0.8758   -2.0637    6.8292 C   0  0  0  0  0  0  0  0  0  0  0  0
    1.3496   -2.2709    5.8809 H   0  0  0  0  0  0  0  0  0  0  0  0
    0.5586   -0.7633    7.1737 C   0  0  0  0  0  0  0  0  0  0  0  0
    0.7896    0.0328    6.4820 H   0  0  0  0  0  0  0  0  0  0  0  0
   -0.0455   -0.4608    8.3882 C   0  0  0  0  0  0  0  0  0  0  0  0
   -0.3944    0.9655    8.7211 C   0  0  0  0  0  0  0  0  0  0  0  0
   -0.6734    1.0168    9.7902 H   0  0  0  0  0  0  0  0  0  0  0  0
    0.7682    1.9424    8.5197 C   0  0  0  0  0  0  0  0  0  0  0  0
    1.6337    1.6072    9.0953 H   0  0  0  0  0  0  0  0  0  0  0  0
    1.0596    1.9730    7.4682 H   0  0  0  0  0  0  0  0  0  0  0  0
    0.3365    3.3405    8.9555 C   0  0  0  0  0  0  0  0  0  0  0  0
    1.1703    4.0379    8.8471 H   0  0  0  0  0  0  0  0  0  0  0  0
    0.0403    3.3173   10.0063 H   0  0  0  0  0  0  0  0  0  0  0  0
   -0.8530    3.8158    8.1273 C   0  0  0  0  0  0  0  0  0  0  0  0
   -1.1584    4.8123    8.4524 H   0  0  0  0  0  0  0  0  0  0  0  0
   -0.5666    3.8805    7.0744 H   0  0  0  0  0  0  0  0  0  0  0  0
   -2.0140    2.8390    8.2815 C   0  0  0  0  0  0  0  0  0  0  0  0
   -2.3375    2.8274    9.3252 H   0  0  0  0  0  0  0  0  0  0  0  0
   -2.8603    3.1607    7.6706 H   0  0  0  0  0  0  0  0  0  0  0  0
   -1.5804    1.4367    7.8675 C   0  0  0  0  0  0  0  0  0  0  0  0
   -2.4164    0.7416    7.9583 H   0  0  0  0  0  0  0  0  0  0  0  0
   -1.2770    1.4450    6.8175 H   0  0  0  0  0  0  0  0  0  0  0  0
  1  2  1  0  0  0  0
  1  3  1  0  0  0  0
  3 11  1  0  0  0  0
  3 18  1  0  0  0  0
  4  6  1  0  0  0  0
  4  3  1  0  0  0  0
  5  4  1  0  0  0  0
  7  8  1  0  0  0  0
  7  4  1  0  0  0  0
  9  7  1  0  0  0  0
 10  7  1  0  0  0  0
 11 12  1  0  0  0  0
 11 14  1  0  0  0  0
 13 11  1  0  0  0  0
 14 16  1  0  0  0  0
 14 17  1  0  0  0  0
 15 14  1  0  0  0  0
 18 19  2  0  0  0  0
 18 27  1  0  0  0  0
 19 21  1  0  0  0  0
 20 19  1  0  0  0  0
 21 22  1  0  0  0  0
 21 23  2  0  0  0  0
 23 24  1  0  0  0  0
 25 23  1  0  0  0  0
 25 26  1  0  0  0  0
 27 25  2  0  0  0  0
 28 30  1  0  0  0  0
 28 27  1  0  0  0  0
 28 42  1  0  0  0  0
 29 28  1  0  0  0  0
 30 32  1  0  0  0  0
 31 30  1  0  0  0  0
 33 34  1  0  0  0  0
 33 30  1  0  0  0  0
 33 36  1  0  0  0  0
 35 33  1  0  0  0  0
 36 38  1  0  0  0  0
 37 36  1  0  0  0  0
 39 36  1  0  0  0  0
 39 42  1  0  0  0  0
 39 41  1  0  0  0  0
 40 39  1  0  0  0  0
 42 44  1  0  0  0  0
 43 42  1  0  0  0  0
 45  1  1  0  0  0  0
 46 47  1  0  0  0  0
 46  1  1  0  0  0  0
 47 48  1  0  0  0  0
 47 50  1  0  0  0  0
 49 47  1  0  0  0  0
 50 53  1  0  0  0  0
 50 52  1  0  0  0  0
 51 50  1  0  0  0  0
 54 46  1  0  0  0  0
 54 56  1  0  0  0  0
 55 54  1  0  0  0  0
 57 58  1  0  0  0  0
 57 54  1  0  0  0  0
 59 57  1  0  0  0  0
 60 57  1  0  0  0  0
 61 46  1  0  0  0  0
 62 61  1  0  0  0  0
 62 63  1  0  0  0  0
 64 62  2  0  0  0  0
 65 64  1  0  0  0  0
 66 68  2  0  0  0  0
 66 64  1  0  0  0  0
 67 66  1  0  0  0  0
 68 70  1  0  0  0  0
 69 68  1  0  0  0  0
 70 71  1  0  0  0  0
 70 61  2  0  0  0  0
 71 72  1  0  0  0  0
 73 71  1  0  0  0  0
 73 76  1  0  0  0  0
 73 74  1  0  0  0  0
 75 73  1  0  0  0  0
 76 78  1  0  0  0  0
 77 76  1  0  0  0  0
 79 82  1  0  0  0  0
 79 80  1  0  0  0  0
 79 76  1  0  0  0  0
 81 79  1  0  0  0  0
 82 83  1  0  0  0  0
 84 82  1  0  0  0  0
 85 86  1  0  0  0  0
 85 82  1  0  0  0  0
 85 71  1  0  0  0  0
 87 85  1  0  0  0  0
M  END
$$$$
