CSD_code = BUJJOF | q = 0 | S = 0 | Stoichiometry = C38H43Cl2CuN2O2 | MND = 5
 OpenBabel04212202013D

 88 93  0  0  1  0  0  0  0  0999 V2000
   -9.2803   -0.8578   -7.0965 Cu  0  0  0  0  0  0  0  0  0  0  0  0
  -10.3221    0.6914   -5.9290 Cl  0  0  0  0  0  0  0  0  0  0  0  0
   -7.5334   -0.3971   -6.1583 Cl  0  0  0  0  0  0  0  0  0  0  0  0
  -10.8829   -1.3760   -7.8021 O   0  0  0  0  0  0  0  0  0  0  0  0
  -10.4700   -2.4462   -5.9615 O   0  0  0  0  0  0  0  0  0  0  0  0
   -9.3133    0.6365   -9.0231 N   0  0  0  0  0  2  0  0  0  0  0  0
   -8.2971   -1.9384   -8.5407 N   0  0  0  0  0  0  0  0  0  0  0  0
   -9.0747   -0.1501   -9.9909 C   0  0  0  0  0  0  0  0  0  0  0  0
   -9.1142    0.0232  -11.4453 C   0  0  0  0  0  0  0  0  0  0  0  0
   -8.4930   -1.1183  -11.9970 C   0  0  0  0  0  0  0  0  0  0  0  0
   -8.0410   -2.0248  -11.0092 C   0  0  0  0  0  0  0  0  0  0  0  0
   -8.4302   -1.4603   -9.7229 C   0  0  0  0  0  0  0  0  0  0  0  0
   -9.5143    1.0313  -12.2870 C   0  0  0  0  0  0  0  0  0  0  0  0
   -9.9443    1.9460  -11.9088 H   0  0  0  0  0  0  0  0  0  0  0  0
   -9.3380    0.8531  -13.6731 C   0  0  0  0  0  0  0  0  0  0  0  0
   -9.6668    1.6428  -14.3326 H   0  0  0  0  0  0  0  0  0  0  0  0
   -8.7698   -0.2752  -14.2121 C   0  0  0  0  0  0  0  0  0  0  0  0
   -8.6601   -0.3724  -15.2820 H   0  0  0  0  0  0  0  0  0  0  0  0
   -8.3058   -1.3116  -13.3700 C   0  0  0  0  0  0  0  0  0  0  0  0
   -7.6591   -2.5098  -13.7449 C   0  0  0  0  0  0  0  0  0  0  0  0
   -7.4948   -2.7193  -14.7917 H   0  0  0  0  0  0  0  0  0  0  0  0
   -7.2309   -3.3993  -12.7875 C   0  0  0  0  0  0  0  0  0  0  0  0
   -6.7329   -4.3064  -13.0968 H   0  0  0  0  0  0  0  0  0  0  0  0
   -7.3989   -3.1750  -11.4094 C   0  0  0  0  0  0  0  0  0  0  0  0
   -7.0164   -3.8917  -10.6991 H   0  0  0  0  0  0  0  0  0  0  0  0
   -9.8742    1.8905   -9.0884 C   0  0  0  0  0  0  0  0  0  0  0  0
   -9.0700    2.9560   -8.6417 C   0  0  0  0  0  0  0  0  0  0  0  0
   -9.5879    4.2377   -8.6684 C   0  0  0  0  0  0  0  0  0  0  0  0
   -8.9775    5.0686   -8.3536 H   0  0  0  0  0  0  0  0  0  0  0  0
  -10.8882    4.4650   -9.0844 C   0  0  0  0  0  0  0  0  0  0  0  0
  -11.2843    5.4696   -9.0971 H   0  0  0  0  0  0  0  0  0  0  0  0
  -11.6893    3.4029   -9.4584 C   0  0  0  0  0  0  0  0  0  0  0  0
  -12.7154    3.5897   -9.7371 H   0  0  0  0  0  0  0  0  0  0  0  0
  -11.2086    2.1019   -9.4774 C   0  0  0  0  0  0  0  0  0  0  0  0
   -7.6485    2.6566   -8.2371 C   0  0  0  0  0  0  0  0  0  0  0  0
   -7.6345    1.6374   -7.8348 H   0  0  0  0  0  0  0  0  0  0  0  0
   -6.7358    2.6966   -9.4679 C   0  0  0  0  0  0  0  0  0  0  0  0
   -7.0689    1.9893  -10.2265 H   0  0  0  0  0  0  0  0  0  0  0  0
   -6.7354    3.6934   -9.9060 H   0  0  0  0  0  0  0  0  0  0  0  0
   -5.7177    2.4417   -9.1836 H   0  0  0  0  0  0  0  0  0  0  0  0
   -7.1275    3.5923   -7.1501 C   0  0  0  0  0  0  0  0  0  0  0  0
   -7.8430    3.6497   -6.3345 H   0  0  0  0  0  0  0  0  0  0  0  0
   -6.1938    3.1996   -6.7554 H   0  0  0  0  0  0  0  0  0  0  0  0
   -6.9415    4.5925   -7.5356 H   0  0  0  0  0  0  0  0  0  0  0  0
  -12.1499    0.9527   -9.7534 C   0  0  0  0  0  0  0  0  0  0  0  0
  -11.5844    0.0165   -9.7652 H   0  0  0  0  0  0  0  0  0  0  0  0
  -13.1553    0.8604   -8.6012 C   0  0  0  0  0  0  0  0  0  0  0  0
  -12.6233    0.7430   -7.6605 H   0  0  0  0  0  0  0  0  0  0  0  0
  -13.7659    1.7584   -8.5441 H   0  0  0  0  0  0  0  0  0  0  0  0
  -13.8087    0.0021   -8.7435 H   0  0  0  0  0  0  0  0  0  0  0  0
  -12.8773    1.0928  -11.0923 C   0  0  0  0  0  0  0  0  0  0  0  0
  -12.1729    1.1255  -11.9210 H   0  0  0  0  0  0  0  0  0  0  0  0
  -13.5362    0.2399  -11.2415 H   0  0  0  0  0  0  0  0  0  0  0  0
  -13.4826    1.9953  -11.1172 H   0  0  0  0  0  0  0  0  0  0  0  0
   -7.4256   -3.0022   -8.2611 C   0  0  0  0  0  0  0  0  0  0  0  0
   -6.0404   -2.7430   -8.2246 C   0  0  0  0  0  0  0  0  0  0  0  0
   -5.1968   -3.7947   -7.8969 C   0  0  0  0  0  0  0  0  0  0  0  0
   -4.1332   -3.6206   -7.8565 H   0  0  0  0  0  0  0  0  0  0  0  0
   -5.6834   -5.0594   -7.6296 C   0  0  0  0  0  0  0  0  0  0  0  0
   -5.0037   -5.8582   -7.3732 H   0  0  0  0  0  0  0  0  0  0  0  0
   -7.0401   -5.3046   -7.7127 C   0  0  0  0  0  0  0  0  0  0  0  0
   -7.4108   -6.3025   -7.5395 H   0  0  0  0  0  0  0  0  0  0  0  0
   -7.9310   -4.2885   -8.0249 C   0  0  0  0  0  0  0  0  0  0  0  0
   -5.4378   -1.4005   -8.5702 C   0  0  0  0  0  0  0  0  0  0  0  0
   -6.2337   -0.6607   -8.6868 H   0  0  0  0  0  0  0  0  0  0  0  0
   -4.6662   -1.4975   -9.8925 C   0  0  0  0  0  0  0  0  0  0  0  0
   -5.3097   -1.8263  -10.7061 H   0  0  0  0  0  0  0  0  0  0  0  0
   -4.2600   -0.5226  -10.1516 H   0  0  0  0  0  0  0  0  0  0  0  0
   -3.8407   -2.1999   -9.8046 H   0  0  0  0  0  0  0  0  0  0  0  0
   -4.5111   -0.8923   -7.4642 C   0  0  0  0  0  0  0  0  0  0  0  0
   -5.0677   -0.7998   -6.5366 H   0  0  0  0  0  0  0  0  0  0  0  0
   -3.6640   -1.5557   -7.3133 H   0  0  0  0  0  0  0  0  0  0  0  0
   -4.1315    0.0899   -7.7348 H   0  0  0  0  0  0  0  0  0  0  0  0
   -9.3970   -4.6031   -8.2088 C   0  0  0  0  0  0  0  0  0  0  0  0
   -9.9421   -3.6633   -8.3363 H   0  0  0  0  0  0  0  0  0  0  0  0
   -9.9723   -5.3300   -6.9931 C   0  0  0  0  0  0  0  0  0  0  0  0
   -9.8507   -4.7182   -6.1033 H   0  0  0  0  0  0  0  0  0  0  0  0
  -11.0343   -5.5124   -7.1438 H   0  0  0  0  0  0  0  0  0  0  0  0
   -9.4833   -6.2875   -6.8344 H   0  0  0  0  0  0  0  0  0  0  0  0
   -9.5977   -5.4390   -9.4784 C   0  0  0  0  0  0  0  0  0  0  0  0
   -9.2617   -4.8965  -10.3605 H   0  0  0  0  0  0  0  0  0  0  0  0
   -9.0438   -6.3729   -9.4145 H   0  0  0  0  0  0  0  0  0  0  0  0
  -10.6524   -5.6736   -9.6044 H   0  0  0  0  0  0  0  0  0  0  0  0
  -11.2576   -2.1649   -6.8649 C   0  0  1  0  0  3  0  0  0  0  0  0
  -12.6602   -2.7013   -6.9283 C   0  0  0  0  0  0  0  0  0  0  0  0
  -12.9339   -2.9138   -7.9584 H   0  0  0  0  0  0  0  0  0  0  0  0
  -12.7410   -3.5891   -6.3086 H   0  0  0  0  0  0  0  0  0  0  0  0
  -13.3273   -1.9319   -6.5427 H   0  0  0  0  0  0  0  0  0  0  0  0
  1  3  1  0  0  0  0
  1  5  1  0  0  0  0
  1  2  1  0  0  0  0
  4  1  1  0  0  0  0
  4 84  1  0  0  0  0
  7 55  1  0  0  0  0
  7  1  1  0  0  0  0
  8 12  2  0  0  0  0
  8  6  1  0  0  0  0
  9  8  1  0  0  0  0
 10  9  1  0  0  0  0
 10 11  2  0  0  0  0
 11 12  1  0  0  0  0
 12  7  1  0  0  0  0
 13 14  1  0  0  0  0
 13  9  2  0  0  0  0
 15 13  1  0  0  0  0
 16 15  1  0  0  0  0
 17 15  2  0  0  0  0
 17 19  1  0  0  0  0
 18 17  1  0  0  0  0
 19 10  1  0  0  0  0
 20 19  2  0  0  0  0
 20 22  1  0  0  0  0
 21 20  1  0  0  0  0
 22 24  2  0  0  0  0
 23 22  1  0  0  0  0
 24 11  1  0  0  0  0
 24 25  1  0  0  0  0
 26  6  1  0  0  0  0
 26 27  1  0  0  0  0
 27 35  1  0  0  0  0
 28 27  2  0  0  0  0
 28 29  1  0  0  0  0
 30 28  1  0  0  0  0
 31 30  1  0  0  0  0
 32 30  2  0  0  0  0
 33 32  1  0  0  0  0
 34 32  1  0  0  0  0
 34 26  2  0  0  0  0
 35 36  1  0  0  0  0
 35 41  1  0  0  0  0
 37 40  1  0  0  0  0
 37 35  1  0  0  0  0
 38 37  1  0  0  0  0
 39 37  1  0  0  0  0
 41 43  1  0  0  0  0
 41 42  1  0  0  0  0
 44 41  1  0  0  0  0
 45 34  1  0  0  0  0
 45 47  1  0  0  0  0
 46 45  1  0  0  0  0
 47 49  1  0  0  0  0
 47 48  1  0  0  0  0
 50 47  1  0  0  0  0
 51 45  1  0  0  0  0
 52 51  1  0  0  0  0
 53 51  1  0  0  0  0
 54 51  1  0  0  0  0
 55 56  2  0  0  0  0
 55 63  1  0  0  0  0
 56 57  1  0  0  0  0
 57 58  1  0  0  0  0
 57 59  2  0  0  0  0
 59 60  1  0  0  0  0
 61 59  1  0  0  0  0
 61 62  1  0  0  0  0
 63 61  2  0  0  0  0
 64 56  1  0  0  0  0
 64 70  1  0  0  0  0
 65 64  1  0  0  0  0
 66 69  1  0  0  0  0
 66 64  1  0  0  0  0
 67 66  1  0  0  0  0
 68 66  1  0  0  0  0
 70 72  1  0  0  0  0
 70 71  1  0  0  0  0
 73 70  1  0  0  0  0
 74 63  1  0  0  0  0
 74 76  1  0  0  0  0
 75 74  1  0  0  0  0
 76 79  1  0  0  0  0
 76 77  1  0  0  0  0
 78 76  1  0  0  0  0
 80 82  1  0  0  0  0
 80 74  1  0  0  0  0
 81 80  1  0  0  0  0
 83 80  1  0  0  0  0
 84 85  1  1  0  0  0
 84  5  1  0  0  0  0
 85 88  1  0  0  0  0
 85 87  1  0  0  0  0
 86 85  1  0  0  0  0
M  END
$$$$
