CSD_code = BUJKOH | q = 1 | S = 0 | Stoichiometry = C32H32ClN3PPd(1+) | MND = 4
 OpenBabel04212202013D

 70 76  0  0  1  0  0  0  0  0999 V2000
    7.2065   11.7603    0.4636 Pd  0  0  1  0  0  0  0  0  0  0  0  0
    8.0186   10.3142    1.9994 P   0  0  2  0  0  4  0  0  0  0  0  0
    6.7818   13.6106   -0.8348 Cl  0  0  0  0  0  0  0  0  0  0  0  0
    6.3301   10.2665    3.7793 N   0  0  0  0  0  0  0  0  0  0  0  0
    8.6326   10.9980   -0.7819 N   0  0  0  0  0  0  0  0  0  0  0  0
    5.7328   12.5748    1.6491 N   0  0  0  0  0  4  0  0  0  0  0  0
    5.8025   12.2633    2.6212 H   0  0  0  0  0  0  0  0  0  0  0  0
    5.8284   13.5950    1.6133 H   0  0  0  0  0  0  0  0  0  0  0  0
    9.3621    9.4868    0.9923 C   0  0  1  0  0  0  0  0  0  0  0  0
   10.2989    9.4888    1.5704 H   0  0  0  0  0  0  0  0  0  0  0  0
    8.9047    8.0372    0.8650 C   0  0  0  0  0  0  0  0  0  0  0  0
    9.3664    7.1525   -0.0247 C   0  0  0  0  0  0  0  0  0  0  0  0
   10.1125    7.4337   -0.7529 H   0  0  0  0  0  0  0  0  0  0  0  0
    8.8990    5.7356   -0.0610 C   0  0  0  0  0  0  0  0  0  0  0  0
    9.6397    5.1161    0.4573 H   0  0  0  0  0  0  0  0  0  0  0  0
    8.8597    5.3860   -1.0940 H   0  0  0  0  0  0  0  0  0  0  0  0
    7.5351    5.5839    0.6026 C   0  0  0  0  0  0  0  0  0  0  0  0
    6.7835    6.0695   -0.0220 H   0  0  0  0  0  0  0  0  0  0  0  0
    7.2754    4.5291    0.6925 H   0  0  0  0  0  0  0  0  0  0  0  0
    7.5300    6.2374    1.9848 C   0  0  0  0  0  0  0  0  0  0  0  0
    8.2488    5.7224    2.6306 H   0  0  0  0  0  0  0  0  0  0  0  0
    6.5419    6.1496    2.4368 H   0  0  0  0  0  0  0  0  0  0  0  0
    7.9250    7.6719    1.8736 C   0  0  0  0  0  0  0  0  0  0  0  0
    7.4725    8.7142    2.6100 C   0  0  0  0  0  0  0  0  0  0  0  0
    6.5273    8.9417    3.6713 C   0  0  0  0  0  0  0  0  0  0  0  0
    5.9229    8.0310    4.5329 C   0  0  0  0  0  0  0  0  0  0  0  0
    6.1194    6.9754    4.4453 H   0  0  0  0  0  0  0  0  0  0  0  0
    5.0838    8.5192    5.5194 C   0  0  0  0  0  0  0  0  0  0  0  0
    4.5970    7.8428    6.2051 H   0  0  0  0  0  0  0  0  0  0  0  0
    4.8877    9.8890    5.6288 C   0  0  0  0  0  0  0  0  0  0  0  0
    4.2542   10.3017    6.3969 H   0  0  0  0  0  0  0  0  0  0  0  0
    5.5399   10.7238    4.7344 C   0  0  0  0  0  0  0  0  0  0  0  0
    5.4339   11.7993    4.8098 H   0  0  0  0  0  0  0  0  0  0  0  0
    9.5818   10.1691   -0.3202 C   0  0  1  0  0  3  0  0  0  0  0  0
   10.7302    9.9107   -1.0632 C   0  0  0  0  0  0  0  0  0  0  0  0
   11.5110    9.3004   -0.6368 H   0  0  0  0  0  0  0  0  0  0  0  0
   10.8710   10.4504   -2.3294 C   0  0  0  0  0  0  0  0  0  0  0  0
   11.7602   10.2643   -2.9111 H   0  0  0  0  0  0  0  0  0  0  0  0
    9.8380   11.2252   -2.8308 C   0  0  0  0  0  0  0  0  0  0  0  0
    9.8811   11.6453   -3.8219 H   0  0  0  0  0  0  0  0  0  0  0  0
    8.7486   11.4864   -2.0194 C   0  0  0  0  0  0  0  0  0  0  0  0
    7.9486   12.1277   -2.3705 H   0  0  0  0  0  0  0  0  0  0  0  0
    8.9918   11.2359    3.2170 C   0  0  0  0  0  0  0  0  0  0  0  0
    9.2479   12.5746    2.9249 C   0  0  0  0  0  0  0  0  0  0  0  0
    8.8463   13.0195    2.0036 H   0  0  0  0  0  0  0  0  0  0  0  0
   10.0153   13.3326    3.7911 C   0  0  0  0  0  0  0  0  0  0  0  0
   10.2211   14.3683    3.5671 H   0  0  0  0  0  0  0  0  0  0  0  0
   10.5178   12.7597    4.9493 C   0  0  0  0  0  0  0  0  0  0  0  0
   11.1124   13.3519    5.6276 H   0  0  0  0  0  0  0  0  0  0  0  0
   10.2610   11.4287    5.2404 C   0  0  0  0  0  0  0  0  0  0  0  0
   10.6567   10.9886    6.1431 H   0  0  0  0  0  0  0  0  0  0  0  0
    9.5009   10.6617    4.3759 C   0  0  0  0  0  0  0  0  0  0  0  0
    9.2967    9.6226    4.5950 H   0  0  0  0  0  0  0  0  0  0  0  0
    4.4133   12.1901    1.0983 C   0  0  2  0  0  0  0  0  0  0  0  0
    4.3356   12.6578    0.1061 H   0  0  0  0  0  0  0  0  0  0  0  0
    3.2864   12.7215    1.9798 C   0  0  0  0  0  0  0  0  0  0  0  0
    3.2796   13.8092    1.9594 H   0  0  0  0  0  0  0  0  0  0  0  0
    3.4010   12.3988    3.0126 H   0  0  0  0  0  0  0  0  0  0  0  0
    2.3270   12.3709    1.6104 H   0  0  0  0  0  0  0  0  0  0  0  0
    4.4174   10.6817    0.9141 C   0  0  0  0  0  0  0  0  0  0  0  0
    5.0191   10.1565   -0.2373 C   0  0  0  0  0  0  0  0  0  0  0  0
    5.3389   10.8269   -1.0453 H   0  0  0  0  0  0  0  0  0  0  0  0
    5.0995    8.7843   -0.4172 C   0  0  0  0  0  0  0  0  0  0  0  0
    5.5504    8.3855   -1.3146 H   0  0  0  0  0  0  0  0  0  0  0  0
    4.5666    7.9256    0.5325 C   0  0  0  0  0  0  0  0  0  0  0  0
    4.6027    6.8576    0.3813 H   0  0  0  0  0  0  0  0  0  0  0  0
    3.9527    8.4403    1.6586 C   0  0  0  0  0  0  0  0  0  0  0  0
    3.5166    7.7762    2.3899 H   0  0  0  0  0  0  0  0  0  0  0  0
    3.8837    9.8107    1.8527 C   0  0  0  0  0  0  0  0  0  0  0  0
    3.3945   10.1892    2.7363 H   0  0  0  0  0  0  0  0  0  0  0  0
  1  3  1  1  0  0  0
  1  6  1  0  0  0  0
  1  2  1  0  0  0  0
  2 24  1  0  0  0  0
  2 43  1  1  0  0  0
  4 32  1  0  0  0  0
  5 34  1  0  0  0  0
  5  1  1  0  0  0  0
  6  7  1  0  0  0  0
  8  6  1  0  0  0  0
  9 10  1  1  0  0  0
  9  2  1  0  0  0  0
 11  9  1  0  0  0  0
 11 23  1  0  0  0  0
 12 11  2  0  0  0  0
 13 12  1  0  0  0  0
 14 12  1  0  0  0  0
 14 15  1  0  0  0  0
 14 17  1  0  0  0  0
 16 14  1  0  0  0  0
 17 19  1  0  0  0  0
 17 20  1  0  0  0  0
 18 17  1  0  0  0  0
 20 22  1  0  0  0  0
 20 21  1  0  0  0  0
 23 20  1  0  0  0  0
 23 24  2  0  0  0  0
 24 25  1  0  0  0  0
 25  4  2  0  0  0  0
 25 26  1  0  0  0  0
 26 28  2  0  0  0  0
 27 26  1  0  0  0  0
 28 30  1  0  0  0  0
 28 29  1  0  0  0  0
 30 31  1  0  0  0  0
 32 33  1  0  0  0  0
 32 30  2  0  0  0  0
 34 35  1  6  0  0  0
 34  9  1  0  0  0  0
 35 36  1  0  0  0  0
 37 35  2  0  0  0  0
 38 37  1  0  0  0  0
 39 37  1  0  0  0  0
 39 41  2  0  0  0  0
 40 39  1  0  0  0  0
 41  5  1  0  0  0  0
 42 41  1  0  0  0  0
 43 52  1  0  0  0  0
 44 43  2  0  0  0  0
 44 46  1  0  0  0  0
 45 44  1  0  0  0  0
 46 48  2  0  0  0  0
 47 46  1  0  0  0  0
 48 50  1  0  0  0  0
 48 49  1  0  0  0  0
 50 51  1  0  0  0  0
 52 53  1  0  0  0  0
 52 50  2  0  0  0  0
 54 55  1  6  0  0  0
 54  6  1  0  0  0  0
 54 56  1  0  0  0  0
 56 58  1  0  0  0  0
 57 56  1  0  0  0  0
 59 56  1  0  0  0  0
 60 54  1  0  0  0  0
 60 69  1  0  0  0  0
 61 60  2  0  0  0  0
 62 61  1  0  0  0  0
 63 61  1  0  0  0  0
 63 65  2  0  0  0  0
 64 63  1  0  0  0  0
 65 67  1  0  0  0  0
 66 65  1  0  0  0  0
 67 69  2  0  0  0  0
 67 68  1  0  0  0  0
 69 70  1  0  0  0  0
M  END
$$$$
