CSD_code = BUJLOJ | q = 0 | S = 0 | Stoichiometry = C26H20Cl2N2Zn | MND = 4
 OpenBabel04212202013D

 51 56  0  0  0  0  0  0  0  0999 V2000
    0.8905    4.8809    7.0469 Zn  0  0  0  0  0  0  0  0  0  0  0  0
   -0.0545    6.6799    7.9633 Cl  0  0  0  0  0  0  0  0  0  0  0  0
    0.4103    2.7557    7.1802 Cl  0  0  0  0  0  0  0  0  0  0  0  0
    6.0697    9.1178    5.0701 C   0  0  0  0  0  0  0  0  0  0  0  0
    6.7229    9.9021    4.7174 H   0  0  0  0  0  0  0  0  0  0  0  0
    3.3545    8.9038    2.4866 C   0  0  0  0  0  0  0  0  0  0  0  0
    3.0288    9.3739    1.5704 H   0  0  0  0  0  0  0  0  0  0  0  0
    2.9807    5.3524    7.2065 N   0  0  0  0  0  0  0  0  0  0  0  0
    1.3125    5.5745    5.0601 N   0  0  0  0  0  0  0  0  0  0  0  0
    4.9459    8.7510    4.2974 C   0  0  0  0  0  0  0  0  0  0  0  0
    5.4977    7.4724    6.7781 C   0  0  0  0  0  0  0  0  0  0  0  0
    5.7270    7.0367    7.7381 H   0  0  0  0  0  0  0  0  0  0  0  0
    4.5148    9.3318    3.0844 C   0  0  0  0  0  0  0  0  0  0  0  0
    5.0956   10.1272    2.6412 H   0  0  0  0  0  0  0  0  0  0  0  0
    6.3169    8.4956    6.2695 C   0  0  0  0  0  0  0  0  0  0  0  0
    7.1700    8.8023    6.8565 H   0  0  0  0  0  0  0  0  0  0  0  0
    3.7686    5.0008    8.2823 C   0  0  0  0  0  0  0  0  0  0  0  0
    3.3077    6.1309    6.2441 C   0  0  0  0  0  0  0  0  0  0  0  0
    2.5578    7.8768    3.0224 C   0  0  0  0  0  0  0  0  0  0  0  0
    1.6439    7.5972    2.5215 H   0  0  0  0  0  0  0  0  0  0  0  0
    2.3977    6.2537    5.0761 C   0  0  0  0  0  0  0  0  0  0  0  0
    4.1512    7.7184    4.8085 C   0  0  0  0  0  0  0  0  0  0  0  0
    0.8881    5.1955    2.7000 C   0  0  0  0  0  0  0  0  0  0  0  0
    1.9489    5.1205    2.5083 H   0  0  0  0  0  0  0  0  0  0  0  0
    4.4129    7.0648    6.0364 C   0  0  0  0  0  0  0  0  0  0  0  0
    5.1050    4.6231    8.1281 C   0  0  0  0  0  0  0  0  0  0  0  0
    5.5482    4.6264    7.1426 H   0  0  0  0  0  0  0  0  0  0  0  0
    2.9652    7.2632    4.1844 C   0  0  0  0  0  0  0  0  0  0  0  0
    5.8275    4.1790    9.2175 C   0  0  0  0  0  0  0  0  0  0  0  0
    6.8532    3.8683    9.0792 H   0  0  0  0  0  0  0  0  0  0  0  0
    0.4402    5.4467    3.9998 C   0  0  0  0  0  0  0  0  0  0  0  0
   -0.9328    5.4476    4.2578 C   0  0  0  0  0  0  0  0  0  0  0  0
   -1.2764    5.6259    5.2673 H   0  0  0  0  0  0  0  0  0  0  0  0
   -1.8289    5.2578    3.2293 C   0  0  0  0  0  0  0  0  0  0  0  0
   -2.8885    5.2798    3.4365 H   0  0  0  0  0  0  0  0  0  0  0  0
   -1.3914    5.0185    1.9280 C   0  0  0  0  0  0  0  0  0  0  0  0
   -0.0226    4.9742    1.6869 C   0  0  0  0  0  0  0  0  0  0  0  0
    0.3372    4.7592    0.6908 H   0  0  0  0  0  0  0  0  0  0  0  0
    5.2555    4.1192   10.4830 C   0  0  0  0  0  0  0  0  0  0  0  0
    3.1752    4.9020    9.5434 C   0  0  0  0  0  0  0  0  0  0  0  0
    2.1363    5.1789    9.6570 H   0  0  0  0  0  0  0  0  0  0  0  0
    6.0386    3.6545   11.6699 C   0  0  0  0  0  0  0  0  0  0  0  0
    7.0453    3.3597   11.3852 H   0  0  0  0  0  0  0  0  0  0  0  0
    5.5442    2.8047   12.1384 H   0  0  0  0  0  0  0  0  0  0  0  0
    6.1039    4.4487   12.4130 H   0  0  0  0  0  0  0  0  0  0  0  0
    3.9189    4.4882   10.6259 C   0  0  0  0  0  0  0  0  0  0  0  0
    3.4557    4.4324   11.5998 H   0  0  0  0  0  0  0  0  0  0  0  0
   -2.3783    4.7775    0.8303 C   0  0  0  0  0  0  0  0  0  0  0  0
   -2.7932    3.7734    0.9194 H   0  0  0  0  0  0  0  0  0  0  0  0
   -1.9088    4.8671   -0.1461 H   0  0  0  0  0  0  0  0  0  0  0  0
   -3.2040    5.4834    0.8940 H   0  0  0  0  0  0  0  0  0  0  0  0
  1  3  1  0  0  0  0
  1  8  1  0  0  0  0
  1  2  1  0  0  0  0
  4 15  1  0  0  0  0
  5  4  1  0  0  0  0
  6 19  1  0  0  0  0
  6 13  2  0  0  0  0
  7  6  1  0  0  0  0
  8 17  1  0  0  0  0
  9 21  1  0  0  0  0
  9  1  1  0  0  0  0
 10 22  1  0  0  0  0
 10  4  2  0  0  0  0
 11 12  1  0  0  0  0
 13 10  1  0  0  0  0
 14 13  1  0  0  0  0
 15 11  2  0  0  0  0
 15 16  1  0  0  0  0
 17 40  1  0  0  0  0
 18  8  1  0  0  0  0
 19 28  2  0  0  0  0
 20 19  1  0  0  0  0
 21 18  2  0  0  0  0
 22 25  2  0  0  0  0
 23 31  1  0  0  0  0
 24 23  1  0  0  0  0
 25 18  1  0  0  0  0
 25 11  1  0  0  0  0
 26 17  2  0  0  0  0
 26 29  1  0  0  0  0
 27 26  1  0  0  0  0
 28 22  1  0  0  0  0
 28 21  1  0  0  0  0
 29 39  2  0  0  0  0
 30 29  1  0  0  0  0
 31 32  2  0  0  0  0
 31  9  1  0  0  0  0
 32 33  1  0  0  0  0
 34 35  1  0  0  0  0
 34 32  1  0  0  0  0
 36 34  2  0  0  0  0
 37 36  1  0  0  0  0
 37 23  2  0  0  0  0
 38 37  1  0  0  0  0
 39 46  1  0  0  0  0
 39 42  1  0  0  0  0
 40 41  1  0  0  0  0
 40 46  2  0  0  0  0
 42 44  1  0  0  0  0
 42 45  1  0  0  0  0
 43 42  1  0  0  0  0
 46 47  1  0  0  0  0
 48 51  1  0  0  0  0
 48 49  1  0  0  0  0
 48 36  1  0  0  0  0
 50 48  1  0  0  0  0
M  END
$$$$
