CSD_code = BUJLUP | q = 0 | S = 0 | Stoichiometry = C28H24Cl2N2Zn | MND = 4
 OpenBabel04212202013D

 57 62  0  0  0  0  0  0  0  0999 V2000
    3.1725   10.5844    5.4054 C   0  0  0  0  0  0  0  0  0  0  0  0
    1.7652   10.2338    5.5894 C   0  0  0  0  0  0  0  0  0  0  0  0
    0.9253    9.2718    5.0777 C   0  0  0  0  0  0  0  0  0  0  0  0
    1.2497    8.5813    4.3147 H   0  0  0  0  0  0  0  0  0  0  0  0
   -0.3866    9.1874    5.5762 C   0  0  0  0  0  0  0  0  0  0  0  0
   -1.0395    8.4330    5.1627 H   0  0  0  0  0  0  0  0  0  0  0  0
   -0.8599   10.0152    6.5649 C   0  0  0  0  0  0  0  0  0  0  0  0
   -1.8739    9.9138    6.9225 H   0  0  0  0  0  0  0  0  0  0  0  0
   -0.0167   10.9921    7.1387 C   0  0  0  0  0  0  0  0  0  0  0  0
    1.2805   11.0747    6.6196 C   0  0  0  0  0  0  0  0  0  0  0  0
   -0.3246   11.8731    8.1987 C   0  0  0  0  0  0  0  0  0  0  0  0
   -1.3147   11.8589    8.6295 H   0  0  0  0  0  0  0  0  0  0  0  0
    0.6331   12.7274    8.6884 C   0  0  0  0  0  0  0  0  0  0  0  0
    0.3852   13.3818    9.5110 H   0  0  0  0  0  0  0  0  0  0  0  0
    1.9371   12.7869    8.1661 C   0  0  0  0  0  0  0  0  0  0  0  0
    2.6557   13.4612    8.6054 H   0  0  0  0  0  0  0  0  0  0  0  0
    2.2637   11.9659    7.1117 C   0  0  0  0  0  0  0  0  0  0  0  0
    3.4871   11.6745    6.3664 C   0  0  0  0  0  0  0  0  0  0  0  0
    3.9669    9.1963    3.6501 C   0  0  0  0  0  0  0  0  0  0  0  0
    2.9878    9.3531    2.6669 C   0  0  0  0  0  0  0  0  0  0  0  0
    2.3135   10.1961    2.7196 H   0  0  0  0  0  0  0  0  0  0  0  0
    2.9308    8.4776    1.5951 C   0  0  0  0  0  0  0  0  0  0  0  0
    3.8437    7.4316    1.5286 C   0  0  0  0  0  0  0  0  0  0  0  0
    3.7957    6.7423    0.6977 H   0  0  0  0  0  0  0  0  0  0  0  0
    4.8319    7.2659    2.4936 C   0  0  0  0  0  0  0  0  0  0  0  0
    4.8998    8.1660    3.5433 C   0  0  0  0  0  0  0  0  0  0  0  0
    5.6594    8.0672    4.3061 H   0  0  0  0  0  0  0  0  0  0  0  0
    1.9132    8.6637    0.5108 C   0  0  0  0  0  0  0  0  0  0  0  0
    1.5006    7.7061    0.2008 H   0  0  0  0  0  0  0  0  0  0  0  0
    2.3810    9.1229   -0.3597 H   0  0  0  0  0  0  0  0  0  0  0  0
    1.1028    9.3089    0.8405 H   0  0  0  0  0  0  0  0  0  0  0  0
    5.8028    6.1309    2.3981 C   0  0  0  0  0  0  0  0  0  0  0  0
    5.3250    5.2045    2.7175 H   0  0  0  0  0  0  0  0  0  0  0  0
    6.6653    6.3069    3.0347 H   0  0  0  0  0  0  0  0  0  0  0  0
    6.1396    5.9976    1.3724 H   0  0  0  0  0  0  0  0  0  0  0  0
    5.1193   13.1988    7.1721 C   0  0  0  0  0  0  0  0  0  0  0  0
    4.4440   14.4205    7.1257 C   0  0  0  0  0  0  0  0  0  0  0  0
    3.5537   14.5112    6.5196 H   0  0  0  0  0  0  0  0  0  0  0  0
    4.9524   15.5227    7.7924 C   0  0  0  0  0  0  0  0  0  0  0  0
    6.1274   15.3868    8.5227 C   0  0  0  0  0  0  0  0  0  0  0  0
    6.5221   16.2440    9.0494 H   0  0  0  0  0  0  0  0  0  0  0  0
    6.8202   14.1815    8.5693 C   0  0  0  0  0  0  0  0  0  0  0  0
    6.3187   13.0941    7.8745 C   0  0  0  0  0  0  0  0  0  0  0  0
    6.8357   12.1448    7.8876 H   0  0  0  0  0  0  0  0  0  0  0  0
    4.2584   16.8490    7.7186 C   0  0  0  0  0  0  0  0  0  0  0  0
    3.2543   16.7440    7.3163 H   0  0  0  0  0  0  0  0  0  0  0  0
    4.8172   17.5239    7.0713 H   0  0  0  0  0  0  0  0  0  0  0  0
    4.1988   17.3069    8.7039 H   0  0  0  0  0  0  0  0  0  0  0  0
    8.0865   14.0658    9.3588 C   0  0  0  0  0  0  0  0  0  0  0  0
    8.7258   14.9291    9.1871 H   0  0  0  0  0  0  0  0  0  0  0  0
    8.6287   13.1644    9.0880 H   0  0  0  0  0  0  0  0  0  0  0  0
    7.8597   14.0233   10.4243 H   0  0  0  0  0  0  0  0  0  0  0  0
    6.4294    9.2187    7.0365 Cl  0  0  0  0  0  0  0  0  0  0  0  0
    7.3242   11.6882    3.9996 Cl  0  0  0  0  0  0  0  0  0  0  0  0
    4.1106   10.1065    4.6793 N   0  0  0  0  0  0  0  0  0  0  0  0
    4.6881   12.1070    6.4443 N   0  0  0  0  0  0  0  0  0  0  0  0
    6.0111   10.7360    5.4585 Zn  0  0  0  0  0  0  0  0  0  0  0  0
  1  2  1  0  0  0  0
  1 18  2  0  0  0  0
  2 10  2  0  0  0  0
  3  5  2  0  0  0  0
  3  2  1  0  0  0  0
  4  3  1  0  0  0  0
  5  7  1  0  0  0  0
  6  5  1  0  0  0  0
  7  8  1  0  0  0  0
  7  9  2  0  0  0  0
  9 11  1  0  0  0  0
 10 17  1  0  0  0  0
 10  9  1  0  0  0  0
 11 12  1  0  0  0  0
 11 13  2  0  0  0  0
 13 14  1  0  0  0  0
 15 16  1  0  0  0  0
 15 13  1  0  0  0  0
 17 15  2  0  0  0  0
 18 56  1  0  0  0  0
 18 17  1  0  0  0  0
 19 55  1  0  0  0  0
 20 21  1  0  0  0  0
 20 19  2  0  0  0  0
 22 20  1  0  0  0  0
 23 22  2  0  0  0  0
 23 25  1  0  0  0  0
 24 23  1  0  0  0  0
 25 26  2  0  0  0  0
 26 19  1  0  0  0  0
 26 27  1  0  0  0  0
 28 31  1  0  0  0  0
 28 22  1  0  0  0  0
 29 28  1  0  0  0  0
 30 28  1  0  0  0  0
 32 25  1  0  0  0  0
 32 33  1  0  0  0  0
 32 34  1  0  0  0  0
 35 32  1  0  0  0  0
 36 43  1  0  0  0  0
 37 36  2  0  0  0  0
 37 39  1  0  0  0  0
 38 37  1  0  0  0  0
 39 40  2  0  0  0  0
 40 42  1  0  0  0  0
 40 41  1  0  0  0  0
 42 49  1  0  0  0  0
 43 44  1  0  0  0  0
 43 42  2  0  0  0  0
 45 39  1  0  0  0  0
 45 48  1  0  0  0  0
 46 45  1  0  0  0  0
 47 45  1  0  0  0  0
 49 52  1  0  0  0  0
 50 49  1  0  0  0  0
 51 49  1  0  0  0  0
 54 57  1  0  0  0  0
 55  1  1  0  0  0  0
 55 57  1  0  0  0  0
 56 36  1  0  0  0  0
 57 56  1  0  0  0  0
 57 53  1  0  0  0  0
M  END
$$$$
