CSD_code = BUJMAW | q = 0 | S = 0 | Stoichiometry = C30H28Cl2N2Zn | MND = 4
 OpenBabel04212202013D

 63 68  0  0  0  0  0  0  0  0999 V2000
    1.2093    9.7398    2.6011 C   0  0  0  0  0  0  0  0  0  0  0  0
    0.2196    9.2730    1.6329 C   0  0  0  0  0  0  0  0  0  0  0  0
   -0.6676    8.2235    1.5811 C   0  0  0  0  0  0  0  0  0  0  0  0
   -0.7227    7.4865    2.3673 H   0  0  0  0  0  0  0  0  0  0  0  0
   -1.5220    8.1244    0.4677 C   0  0  0  0  0  0  0  0  0  0  0  0
   -2.2120    7.2944    0.4295 H   0  0  0  0  0  0  0  0  0  0  0  0
   -1.5126    9.0351   -0.5612 C   0  0  0  0  0  0  0  0  0  0  0  0
   -2.1863    8.9186   -1.3972 H   0  0  0  0  0  0  0  0  0  0  0  0
   -0.6289   10.1372   -0.5307 C   0  0  0  0  0  0  0  0  0  0  0  0
    0.2199   10.2155    0.5783 C   0  0  0  0  0  0  0  0  0  0  0  0
   -0.5101   11.1772   -1.4797 C   0  0  0  0  0  0  0  0  0  0  0  0
   -1.1345   11.1648   -2.3608 H   0  0  0  0  0  0  0  0  0  0  0  0
    0.3850   12.2004   -1.2797 C   0  0  0  0  0  0  0  0  0  0  0  0
    0.4532   12.9906   -2.0127 H   0  0  0  0  0  0  0  0  0  0  0  0
    1.2245   12.2692   -0.1528 C   0  0  0  0  0  0  0  0  0  0  0  0
    1.9028   13.1006   -0.0386 H   0  0  0  0  0  0  0  0  0  0  0  0
    1.1493   11.2621    0.7805 C   0  0  0  0  0  0  0  0  0  0  0  0
    1.7961   10.9945    2.0631 C   0  0  0  0  0  0  0  0  0  0  0  0
    1.1221    8.0864    4.2775 C   0  0  0  0  0  0  0  0  0  0  0  0
    0.3535    8.1223    5.4480 C   0  0  0  0  0  0  0  0  0  0  0  0
   -0.0406    6.9257    6.0229 C   0  0  0  0  0  0  0  0  0  0  0  0
   -0.6441    6.9513    6.9187 H   0  0  0  0  0  0  0  0  0  0  0  0
    0.3326    5.7029    5.4838 C   0  0  0  0  0  0  0  0  0  0  0  0
    1.1134    5.6957    4.3352 C   0  0  0  0  0  0  0  0  0  0  0  0
    1.4265    4.7497    3.9170 H   0  0  0  0  0  0  0  0  0  0  0  0
    1.5150    6.8650    3.7098 C   0  0  0  0  0  0  0  0  0  0  0  0
   -0.0593    9.4376    6.0280 C   0  0  0  0  0  0  0  0  0  0  0  0
   -0.6433   10.0124    5.3085 H   0  0  0  0  0  0  0  0  0  0  0  0
    0.8202   10.0289    6.2852 H   0  0  0  0  0  0  0  0  0  0  0  0
   -0.6554    9.2918    6.9248 H   0  0  0  0  0  0  0  0  0  0  0  0
   -0.0999    4.4146    6.1132 C   0  0  0  0  0  0  0  0  0  0  0  0
   -0.9105    3.9683    5.5360 H   0  0  0  0  0  0  0  0  0  0  0  0
   -0.4530    4.5773    7.1282 H   0  0  0  0  0  0  0  0  0  0  0  0
    0.7232    3.7037    6.1357 H   0  0  0  0  0  0  0  0  0  0  0  0
    2.4008    6.8138    2.5026 C   0  0  0  0  0  0  0  0  0  0  0  0
    1.8635    7.1114    1.6014 H   0  0  0  0  0  0  0  0  0  0  0  0
    2.7740    5.8035    2.3569 H   0  0  0  0  0  0  0  0  0  0  0  0
    3.2532    7.4819    2.6243 H   0  0  0  0  0  0  0  0  0  0  0  0
    3.3179   12.7818    2.2602 C   0  0  0  0  0  0  0  0  0  0  0  0
    3.0903   13.9974    2.9167 C   0  0  0  0  0  0  0  0  0  0  0  0
    3.7771   15.1228    2.4914 C   0  0  0  0  0  0  0  0  0  0  0  0
    3.5927   16.0643    2.9882 H   0  0  0  0  0  0  0  0  0  0  0  0
    4.6984   15.0632    1.4565 C   0  0  0  0  0  0  0  0  0  0  0  0
    4.9217   13.8398    0.8370 C   0  0  0  0  0  0  0  0  0  0  0  0
    5.6513   13.7782    0.0422 H   0  0  0  0  0  0  0  0  0  0  0  0
    4.2447   12.6907    1.2107 C   0  0  0  0  0  0  0  0  0  0  0  0
    2.0885   14.0693    4.0250 C   0  0  0  0  0  0  0  0  0  0  0  0
    2.0284   15.0784    4.4235 H   0  0  0  0  0  0  0  0  0  0  0  0
    2.3693   13.3911    4.8315 H   0  0  0  0  0  0  0  0  0  0  0  0
    1.1001   13.7717    3.6737 H   0  0  0  0  0  0  0  0  0  0  0  0
    5.4513   16.2793    1.0122 C   0  0  0  0  0  0  0  0  0  0  0  0
    5.2855   16.4642   -0.0486 H   0  0  0  0  0  0  0  0  0  0  0  0
    6.5207   16.1338    1.1598 H   0  0  0  0  0  0  0  0  0  0  0  0
    5.1405   17.1569    1.5729 H   0  0  0  0  0  0  0  0  0  0  0  0
    4.5482   11.3809    0.5496 C   0  0  0  0  0  0  0  0  0  0  0  0
    3.7231   11.0550   -0.0846 H   0  0  0  0  0  0  0  0  0  0  0  0
    4.7266   10.6071    1.2959 H   0  0  0  0  0  0  0  0  0  0  0  0
    5.4365   11.4727   -0.0697 H   0  0  0  0  0  0  0  0  0  0  0  0
    3.1719   11.3416    6.3931 Cl  0  0  0  0  0  0  0  0  0  0  0  0
    4.9237    9.2622    3.5086 Cl  0  0  0  0  0  0  0  0  0  0  0  0
    1.5636    9.2997    3.7447 N   0  0  0  0  0  0  0  0  0  0  0  0
    2.6626   11.6438    2.7372 N   0  0  0  0  0  0  0  0  0  0  0  0
    3.2644   10.4317    4.4022 Zn  0  0  0  0  0  0  0  0  0  0  0  0
  1 61  1  0  0  0  0
  2  1  1  0  0  0  0
  3  2  2  0  0  0  0
  3  4  1  0  0  0  0
  5  3  1  0  0  0  0
  6  5  1  0  0  0  0
  7  9  1  0  0  0  0
  7  5  2  0  0  0  0
  8  7  1  0  0  0  0
  9 10  2  0  0  0  0
 10 17  1  0  0  0  0
 10  2  1  0  0  0  0
 11 13  2  0  0  0  0
 11  9  1  0  0  0  0
 12 11  1  0  0  0  0
 13 15  1  0  0  0  0
 14 13  1  0  0  0  0
 15 16  1  0  0  0  0
 15 17  2  0  0  0  0
 17 18  1  0  0  0  0
 18  1  2  0  0  0  0
 18 62  1  0  0  0  0
 19 20  1  0  0  0  0
 20 21  2  0  0  0  0
 20 27  1  0  0  0  0
 21 22  1  0  0  0  0
 23 21  1  0  0  0  0
 23 31  1  0  0  0  0
 24 23  2  0  0  0  0
 25 24  1  0  0  0  0
 26 19  2  0  0  0  0
 26 24  1  0  0  0  0
 27 29  1  0  0  0  0
 27 30  1  0  0  0  0
 28 27  1  0  0  0  0
 31 34  1  0  0  0  0
 31 33  1  0  0  0  0
 32 31  1  0  0  0  0
 35 38  1  0  0  0  0
 35 26  1  0  0  0  0
 36 35  1  0  0  0  0
 37 35  1  0  0  0  0
 39 62  1  0  0  0  0
 39 40  1  0  0  0  0
 40 47  1  0  0  0  0
 41 40  2  0  0  0  0
 41 42  1  0  0  0  0
 43 41  1  0  0  0  0
 44 46  1  0  0  0  0
 44 43  2  0  0  0  0
 45 44  1  0  0  0  0
 46 39  2  0  0  0  0
 47 48  1  0  0  0  0
 47 49  1  0  0  0  0
 50 47  1  0  0  0  0
 51 53  1  0  0  0  0
 51 43  1  0  0  0  0
 51 54  1  0  0  0  0
 52 51  1  0  0  0  0
 55 46  1  0  0  0  0
 55 57  1  0  0  0  0
 56 55  1  0  0  0  0
 58 55  1  0  0  0  0
 60 63  1  0  0  0  0
 61 19  1  0  0  0  0
 61 63  1  0  0  0  0
 62 63  1  0  0  0  0
 63 59  1  0  0  0  0
M  END
$$$$
