CSD_code = BUJNEB | q = 0 | S = 0 | Stoichiometry = C28H24Cl2N2Zn | MND = 4
 OpenBabel04212202013D

 57 62  0  0  0  0  0  0  0  0999 V2000
    5.5832   10.2372   16.5131 C   0  0  0  0  0  0  0  0  0  0  0  0
    4.7543    9.0547   16.7402 C   0  0  0  0  0  0  0  0  0  0  0  0
    4.7160    7.7779   16.2291 C   0  0  0  0  0  0  0  0  0  0  0  0
    5.3726    7.4642   15.4326 H   0  0  0  0  0  0  0  0  0  0  0  0
    3.8016    6.8599   16.7748 C   0  0  0  0  0  0  0  0  0  0  0  0
    3.7739    5.8630   16.3599 H   0  0  0  0  0  0  0  0  0  0  0  0
    2.9573    7.1790   17.8102 C   0  0  0  0  0  0  0  0  0  0  0  0
    2.2712    6.4426   18.2018 H   0  0  0  0  0  0  0  0  0  0  0  0
    2.9952    8.4675   18.3870 C   0  0  0  0  0  0  0  0  0  0  0  0
    3.8971    9.3754   17.8199 C   0  0  0  0  0  0  0  0  0  0  0  0
    2.2501    8.9323   19.4930 C   0  0  0  0  0  0  0  0  0  0  0  0
    1.5324    8.2759   19.9625 H   0  0  0  0  0  0  0  0  0  0  0  0
    2.4536   10.2003   19.9803 C   0  0  0  0  0  0  0  0  0  0  0  0
    1.8906   10.5314   20.8405 H   0  0  0  0  0  0  0  0  0  0  0  0
    3.3766   11.0944   19.4101 C   0  0  0  0  0  0  0  0  0  0  0  0
    3.5123   12.0705   19.8493 H   0  0  0  0  0  0  0  0  0  0  0  0
    4.0934   10.6894   18.3078 C   0  0  0  0  0  0  0  0  0  0  0  0
    5.1658   11.2675   17.5005 C   0  0  0  0  0  0  0  0  0  0  0  0
    6.9941    9.7215   14.6703 C   0  0  0  0  0  0  0  0  0  0  0  0
    8.3647    9.5871   14.4656 C   0  0  0  0  0  0  0  0  0  0  0  0
    9.0481   10.0256   15.1802 H   0  0  0  0  0  0  0  0  0  0  0  0
    8.8472    8.8755   13.3778 C   0  0  0  0  0  0  0  0  0  0  0  0
    7.9407    8.3315   12.4774 C   0  0  0  0  0  0  0  0  0  0  0  0
    8.3058    7.7872   11.6181 H   0  0  0  0  0  0  0  0  0  0  0  0
    6.5675    8.4909   12.6412 C   0  0  0  0  0  0  0  0  0  0  0  0
    6.0968    9.1788   13.7454 C   0  0  0  0  0  0  0  0  0  0  0  0
    5.0372    9.3501   13.8718 H   0  0  0  0  0  0  0  0  0  0  0  0
   10.3232    8.7368   13.1738 C   0  0  0  0  0  0  0  0  0  0  0  0
   10.5473    7.9869   12.4195 H   0  0  0  0  0  0  0  0  0  0  0  0
   10.8138    8.4633   14.1055 H   0  0  0  0  0  0  0  0  0  0  0  0
   10.7394    9.6898   12.8488 H   0  0  0  0  0  0  0  0  0  0  0  0
    5.6210    7.9255   11.6261 C   0  0  0  0  0  0  0  0  0  0  0  0
    5.8238    6.8681   11.4634 H   0  0  0  0  0  0  0  0  0  0  0  0
    5.7458    8.4377   10.6730 H   0  0  0  0  0  0  0  0  0  0  0  0
    4.5885    8.0400   11.9461 H   0  0  0  0  0  0  0  0  0  0  0  0
    5.4586   13.4899   18.2869 C   0  0  0  0  0  0  0  0  0  0  0  0
    6.4810   14.2021   18.9124 C   0  0  0  0  0  0  0  0  0  0  0  0
    7.4923   13.8235   18.8538 H   0  0  0  0  0  0  0  0  0  0  0  0
    6.1988   15.3566   19.6217 C   0  0  0  0  0  0  0  0  0  0  0  0
    4.8852   15.8126   19.6680 C   0  0  0  0  0  0  0  0  0  0  0  0
    4.6603   16.7214   20.2079 H   0  0  0  0  0  0  0  0  0  0  0  0
    3.8585   15.1401   19.0157 C   0  0  0  0  0  0  0  0  0  0  0  0
    4.1481   13.9706   18.3324 C   0  0  0  0  0  0  0  0  0  0  0  0
    3.3737   13.4530   17.7841 H   0  0  0  0  0  0  0  0  0  0  0  0
    7.2851   16.1092   20.3243 C   0  0  0  0  0  0  0  0  0  0  0  0
    7.1630   16.0244   21.4040 H   0  0  0  0  0  0  0  0  0  0  0  0
    7.2452   17.1656   20.0657 H   0  0  0  0  0  0  0  0  0  0  0  0
    8.2619   15.7178   20.0554 H   0  0  0  0  0  0  0  0  0  0  0  0
    2.4627   15.6856   19.0405 C   0  0  0  0  0  0  0  0  0  0  0  0
    2.3861   16.5380   18.3658 H   0  0  0  0  0  0  0  0  0  0  0  0
    2.2016   16.0279   20.0399 H   0  0  0  0  0  0  0  0  0  0  0  0
    1.7428   14.9349   18.7240 H   0  0  0  0  0  0  0  0  0  0  0  0
    8.8638   11.0935   18.1346 Cl  0  0  0  0  0  0  0  0  0  0  0  0
    8.2735   13.6960   15.1482 Cl  0  0  0  0  0  0  0  0  0  0  0  0
    6.5645   10.4916   15.7326 N   0  0  0  0  0  0  0  0  0  0  0  0
    5.7977   12.3793   17.5400 N   0  0  0  0  0  0  0  0  0  0  0  0
    7.6829   12.1298   16.5484 Zn  0  0  0  0  0  0  0  0  0  0  0  0
  1  2  1  0  0  0  0
  1 18  2  0  0  0  0
  2 10  2  0  0  0  0
  3  2  1  0  0  0  0
  3  5  2  0  0  0  0
  4  3  1  0  0  0  0
  5  7  1  0  0  0  0
  6  5  1  0  0  0  0
  7  8  1  0  0  0  0
  7  9  2  0  0  0  0
  9 11  1  0  0  0  0
 10 17  1  0  0  0  0
 10  9  1  0  0  0  0
 11 12  1  0  0  0  0
 11 13  2  0  0  0  0
 13 14  1  0  0  0  0
 15 16  1  0  0  0  0
 15 13  1  0  0  0  0
 17 15  2  0  0  0  0
 18 56  1  0  0  0  0
 18 17  1  0  0  0  0
 19 55  1  0  0  0  0
 20 19  1  0  0  0  0
 20 21  1  0  0  0  0
 22 20  2  0  0  0  0
 23 25  2  0  0  0  0
 23 22  1  0  0  0  0
 24 23  1  0  0  0  0
 25 26  1  0  0  0  0
 26 27  1  0  0  0  0
 26 19  2  0  0  0  0
 28 22  1  0  0  0  0
 28 30  1  0  0  0  0
 29 28  1  0  0  0  0
 31 28  1  0  0  0  0
 32 35  1  0  0  0  0
 32 25  1  0  0  0  0
 33 32  1  0  0  0  0
 34 32  1  0  0  0  0
 36 43  2  0  0  0  0
 36 37  1  0  0  0  0
 37 39  2  0  0  0  0
 38 37  1  0  0  0  0
 39 40  1  0  0  0  0
 39 45  1  0  0  0  0
 40 41  1  0  0  0  0
 42 49  1  0  0  0  0
 42 40  2  0  0  0  0
 43 42  1  0  0  0  0
 44 43  1  0  0  0  0
 45 46  1  0  0  0  0
 47 45  1  0  0  0  0
 48 45  1  0  0  0  0
 49 51  1  0  0  0  0
 50 49  1  0  0  0  0
 52 49  1  0  0  0  0
 54 57  1  0  0  0  0
 55  1  1  0  0  0  0
 55 57  1  0  0  0  0
 56 36  1  0  0  0  0
 57 56  1  0  0  0  0
 57 53  1  0  0  0  0
M  END
$$$$
