CSD_code = BUKCOA | q = 0 | S = 0 | Stoichiometry = C26H25ClNO3Rh | MND = 7
 OpenBabel04212202013D

 57 60  0  0  1  0  0  0  0  0999 V2000
    2.9887    8.1361    2.6618 Rh  0  0  0  0  0  0  0  0  0  0  0  0
    2.8389    8.0427    0.5328 N   0  0  0  0  0  4  0  0  0  0  0  0
    1.8110    8.0584    0.4372 H   0  0  0  0  0  0  0  0  0  0  0  0
    1.4941    7.1932   -1.7073 O   0  0  0  0  0  0  0  0  0  0  0  0
    3.0302    5.6208   -2.1546 O   0  0  0  0  0  0  0  0  0  0  0  0
    2.7695    8.1620    5.6188 O   0  0  0  0  0  1  0  0  0  0  0  0
    3.3526    9.2088   -0.2299 C   0  0  2  0  0  0  0  0  0  0  0  0
    3.1171    9.0634   -1.2947 H   0  0  0  0  0  0  0  0  0  0  0  0
    4.8488    9.3118   -0.0860 C   0  0  0  0  0  0  0  0  0  0  0  0
    5.4416    9.3792    1.1824 C   0  0  0  0  0  0  0  0  0  0  0  0
    4.6852    9.4773    2.4256 C   0  0  0  0  0  3  0  0  0  0  0  0
    5.3259    9.4422    3.3060 H   0  0  0  0  0  0  0  0  0  0  0  0
    3.4847   10.2169    2.5895 C   0  0  1  0  0  0  0  0  0  0  0  0
    3.3483   10.6761    3.5698 H   0  0  0  0  0  0  0  0  0  0  0  0
    2.7572   10.9256    1.5376 C   0  0  0  0  0  0  0  0  0  0  0  0
    2.6945   10.4917    0.2065 C   0  0  0  0  0  0  0  0  0  0  0  0
    2.0059   11.2470   -0.7323 C   0  0  0  0  0  0  0  0  0  0  0  0
    1.9574   10.9014   -1.7551 H   0  0  0  0  0  0  0  0  0  0  0  0
    1.3677   12.4203   -0.3769 C   0  0  0  0  0  0  0  0  0  0  0  0
    0.8304   12.9897   -1.1198 H   0  0  0  0  0  0  0  0  0  0  0  0
    1.4081   12.8478    0.9405 C   0  0  0  0  0  0  0  0  0  0  0  0
    0.9033   13.7565    1.2321 H   0  0  0  0  0  0  0  0  0  0  0  0
    2.0907   12.1064    1.8817 C   0  0  0  0  0  0  0  0  0  0  0  0
    2.1213   12.4422    2.9082 H   0  0  0  0  0  0  0  0  0  0  0  0
    6.8394    9.3697    1.2573 C   0  0  0  0  0  0  0  0  0  0  0  0
    7.3093    9.4046    2.2300 H   0  0  0  0  0  0  0  0  0  0  0  0
    7.6225    9.3345    0.1232 C   0  0  0  0  0  0  0  0  0  0  0  0
    8.6988    9.3333    0.2104 H   0  0  0  0  0  0  0  0  0  0  0  0
    7.0261    9.3054   -1.1279 C   0  0  0  0  0  0  0  0  0  0  0  0
    7.6306    9.2825   -2.0217 H   0  0  0  0  0  0  0  0  0  0  0  0
    5.6473    9.2862   -1.2216 C   0  0  0  0  0  0  0  0  0  0  0  0
    5.1775    9.2414   -2.1947 H   0  0  0  0  0  0  0  0  0  0  0  0
    2.4862    6.5823   -1.4087 C   0  0  0  0  0  0  0  0  0  0  0  0
    3.2726    6.7961   -0.1165 C   0  0  2  0  0  0  0  0  0  0  0  0
    4.3358    6.8713   -0.3713 H   0  0  0  0  0  0  0  0  0  0  0  0
    3.0399    5.5610    0.7690 C   0  0  0  0  0  0  0  0  0  0  0  0
    1.9711    5.4918    0.9915 H   0  0  0  0  0  0  0  0  0  0  0  0
    3.3302    4.6714    0.2010 H   0  0  0  0  0  0  0  0  0  0  0  0
    3.8024    5.5806    2.0730 C   0  0  0  0  0  0  0  0  0  0  0  0
    4.9958    6.1681    2.2397 C   0  0  0  0  0  0  0  0  0  0  0  0
    5.5087    6.6660    1.4269 H   0  0  0  0  0  0  0  0  0  0  0  0
    5.7867    6.0278    3.5086 C   0  0  0  0  0  0  0  0  0  0  0  0
    6.4938    5.1948    3.3932 H   0  0  0  0  0  0  0  0  0  0  0  0
    6.3835    6.9256    3.6836 H   0  0  0  0  0  0  0  0  0  0  0  0
    4.8881    5.7544    4.6763 C   0  0  0  0  0  0  0  0  0  0  0  0
    5.2447    6.0518    5.6512 H   0  0  0  0  0  0  0  0  0  0  0  0
    3.7178    5.1570    4.5195 C   0  0  0  0  0  0  0  0  0  0  0  0
    3.0758    4.9496    5.3623 H   0  0  0  0  0  0  0  0  0  0  0  0
    3.2134    4.7341    3.1737 C   0  0  0  0  0  0  0  0  0  0  0  0
    2.1239    4.8033    3.1538 H   0  0  0  0  0  0  0  0  0  0  0  0
    3.4789    3.6843    2.9946 H   0  0  0  0  0  0  0  0  0  0  0  0
    2.3445    5.2941   -3.3588 C   0  0  0  0  0  0  0  0  0  0  0  0
    2.8713    4.4459   -3.7871 H   0  0  0  0  0  0  0  0  0  0  0  0
    2.3617    6.1423   -4.0457 H   0  0  0  0  0  0  0  0  0  0  0  0
    1.3063    5.0359   -3.1435 H   0  0  0  0  0  0  0  0  0  0  0  0
    2.9126    8.1489    4.4833 C   0  0  0  0  0  2  0  0  0  0  0  0
    0.8850    7.1210    2.7033 Cl  0  0  0  0  0 15  0  0  0  0  0  0
  1 56  1  0  0  0  0
  2  1  1  0  0  0  0
  3  2  1  0  0  0  0
  4 33  2  0  0  0  0
  5 33  1  0  0  0  0
  7  8  1  6  0  0  0
  7  9  1  0  0  0  0
  7 16  1  0  0  0  0
  7  2  1  0  0  0  0
  9 10  1  0  0  0  0
 10 25  2  0  0  0  0
 10 11  1  0  0  0  0
 11 13  1  0  0  0  0
 11 12  1  0  0  0  0
 13  1  1  0  0  0  0
 13 14  1  1  0  0  0
 15 23  1  0  0  0  0
 15 13  1  0  0  0  0
 16 15  2  0  0  0  0
 17 19  2  0  0  0  0
 17 16  1  0  0  0  0
 18 17  1  0  0  0  0
 19 21  1  0  0  0  0
 20 19  1  0  0  0  0
 21 22  1  0  0  0  0
 21 23  2  0  0  0  0
 23 24  1  0  0  0  0
 25 26  1  0  0  0  0
 27 28  1  0  0  0  0
 27 25  1  0  0  0  0
 29 27  2  0  0  0  0
 30 29  1  0  0  0  0
 31 29  1  0  0  0  0
 31  9  2  0  0  0  0
 32 31  1  0  0  0  0
 33 34  1  0  0  0  0
 34 35  1  6  0  0  0
 34  2  1  0  0  0  0
 34 36  1  0  0  0  0
 36 37  1  0  0  0  0
 36 39  1  0  0  0  0
 38 36  1  0  0  0  0
 39 40  2  0  0  0  0
 39 49  1  0  0  0  0
 40 42  1  0  0  0  0
 41 40  1  0  0  0  0
 42 44  1  0  0  0  0
 42 45  1  0  0  0  0
 43 42  1  0  0  0  0
 45 46  1  0  0  0  0
 47 45  2  0  0  0  0
 47 48  1  0  0  0  0
 49 47  1  0  0  0  0
 50 49  1  0  0  0  0
 51 49  1  0  0  0  0
 52 55  1  0  0  0  0
 52  5  1  0  0  0  0
 53 52  1  0  0  0  0
 54 52  1  0  0  0  0
 56  6  1  0  0  0  0
M  END
$$$$
