CSD_code = BUKYIR | q = 0 | S = 0 | Stoichiometry = C11H7Br2Cl2HgN3O | MND = 3
 OpenBabel04212202013D

 27 27  0  0  0  0  0  0  0  0999 V2000
    3.3817    0.6209    3.7156 C   0  0  0  0  0  0  0  0  0  0  0  0
    3.3817   -0.4540    3.6056 H   0  0  0  0  0  0  0  0  0  0  0  0
    3.3817    1.4643    2.6108 C   0  0  0  0  0  0  0  0  0  0  0  0
    3.3817    1.0739    1.6025 H   0  0  0  0  0  0  0  0  0  0  0  0
    3.3817    3.2676    3.9974 C   0  0  0  0  0  0  0  0  0  0  0  0
    3.3817    4.3403    4.1420 H   0  0  0  0  0  0  0  0  0  0  0  0
    3.3817    2.4120    5.0989 C   0  0  0  0  0  0  0  0  0  0  0  0
    3.3817    2.9794    6.4924 C   0  0  0  0  0  0  0  0  0  0  0  0
    3.3817    2.1099    8.8149 C   0  0  0  0  0  0  0  0  0  0  0  0
    3.3817    3.3429    9.4611 C   0  0  0  0  0  0  0  0  0  0  0  0
    3.3817    4.2550    8.8874 H   0  0  0  0  0  0  0  0  0  0  0  0
    3.3817    3.3951   10.8452 C   0  0  0  0  0  0  0  0  0  0  0  0
    3.3817    2.2215   11.5964 C   0  0  0  0  0  0  0  0  0  0  0  0
    3.3817    0.9944   10.9479 C   0  0  0  0  0  0  0  0  0  0  0  0
    3.3817    0.0889   11.5330 H   0  0  0  0  0  0  0  0  0  0  0  0
    3.3817    0.9361    9.5696 C   0  0  0  0  0  0  0  0  0  0  0  0
    3.3817   -0.0227    9.0735 H   0  0  0  0  0  0  0  0  0  0  0  0
    3.3817    1.0904    4.9494 N   0  0  0  0  0  0  0  0  0  0  0  0
    3.3817    2.7900    2.7561 N   0  0  0  0  0  0  0  0  0  0  0  0
    3.3817    1.9973    7.4273 N   0  0  0  0  0  0  0  0  0  0  0  0
    3.3817    1.0545    7.0500 H   0  0  0  0  0  0  0  0  0  0  0  0
    3.3817    4.1738    6.6898 O   0  0  0  0  0  0  0  0  0  0  0  0
    3.3817    4.3357    0.7145 Hg  0  0  0  0  0  0  0  0  0  0  0  0
    3.3817    6.4563    1.8946 Br  0  0  0  0  0  0  0  0  0  0  0  0
    3.3817    2.5426   -0.9394 Br  0  0  0  0  0  0  0  0  0  0  0  0
    3.3817    4.9251   11.6293 Cl  0  0  0  0  0  0  0  0  0  0  0  0
    3.3817    2.2830   13.3157 Cl  0  0  0  0  0  0  0  0  0  0  0  0
  1 18  1  0  0  0  0
  2  1  1  0  0  0  0
  3 19  1  0  0  0  0
  3  1  2  0  0  0  0
  4  3  1  0  0  0  0
  5  6  1  0  0  0  0
  5  7  1  0  0  0  0
  7  8  1  0  0  0  0
  8 22  2  0  0  0  0
  8 20  1  0  0  0  0
  9 10  2  0  0  0  0
  9 16  1  0  0  0  0
 10 12  1  0  0  0  0
 11 10  1  0  0  0  0
 12 13  2  0  0  0  0
 12 26  1  0  0  0  0
 13 27  1  0  0  0  0
 14 15  1  0  0  0  0
 14 13  1  0  0  0  0
 16 14  2  0  0  0  0
 17 16  1  0  0  0  0
 18  7  2  0  0  0  0
 19  5  2  0  0  0  0
 20  9  1  0  0  0  0
 21 20  1  0  0  0  0
 23 24  1  0  0  0  0
 25 23  1  0  0  0  0
M  END
$$$$
