CSD_code = BUKYEN | q = 0 | S = 0 | Stoichiometry = C11H8Br2ClHgN3O | MND = 3
 OpenBabel04212202013D

 27 27  0  0  0  0  0  0  0  0999 V2000
   -0.4868    0.4940   13.6947 C   0  0  0  0  0  0  0  0  0  0  0  0
   -0.5690   -0.5828   13.7325 H   0  0  0  0  0  0  0  0  0  0  0  0
   -0.3647    1.2538   14.8517 C   0  0  0  0  0  0  0  0  0  0  0  0
   -0.3474    0.7941   15.8302 H   0  0  0  0  0  0  0  0  0  0  0  0
   -0.2870    3.1457   13.5909 C   0  0  0  0  0  0  0  0  0  0  0  0
   -0.2076    4.2227   13.5178 H   0  0  0  0  0  0  0  0  0  0  0  0
   -0.4099    2.3731   12.4357 C   0  0  0  0  0  0  0  0  0  0  0  0
   -0.4348    3.0385   11.0861 C   0  0  0  0  0  0  0  0  0  0  0  0
   -0.5875    2.3420    8.7099 C   0  0  0  0  0  0  0  0  0  0  0  0
   -0.5534    3.6143    8.1433 C   0  0  0  0  0  0  0  0  0  0  0  0
   -0.4833    4.4809    8.7792 H   0  0  0  0  0  0  0  0  0  0  0  0
   -0.6095    3.7605    6.7704 C   0  0  0  0  0  0  0  0  0  0  0  0
   -0.5836    4.7449    6.3310 H   0  0  0  0  0  0  0  0  0  0  0  0
   -0.6992    2.6410    5.9577 C   0  0  0  0  0  0  0  0  0  0  0  0
   -0.7332    1.3688    6.5104 C   0  0  0  0  0  0  0  0  0  0  0  0
   -0.8023    0.5033    5.8709 H   0  0  0  0  0  0  0  0  0  0  0  0
   -0.6778    1.2233    7.8816 C   0  0  0  0  0  0  0  0  0  0  0  0
   -0.7045    0.2349    8.3171 H   0  0  0  0  0  0  0  0  0  0  0  0
   -0.5080    1.0482   12.4966 N   0  0  0  0  0  0  0  0  0  0  0  0
   -0.2635    2.5828   14.7956 N   0  0  0  0  0  0  0  0  0  0  0  0
   -0.5353    2.1302   10.0872 N   0  0  0  0  0  0  0  0  0  0  0  0
   -0.5785    1.1639   10.3959 H   0  0  0  0  0  0  0  0  0  0  0  0
   -0.0190    3.9649   16.9271 Hg  0  0  0  0  0  0  0  0  0  0  0  0
   -0.7685    2.8270    4.2425 Cl  0  0  0  0  0  0  0  0  0  0  0  0
   -0.1017    2.0712   18.4634 Br  0  0  0  0  0  0  0  0  0  0  0  0
    0.1349    6.1623   15.9085 Br  0  0  0  0  0  0  0  0  0  0  0  0
   -0.3692    4.2434   10.9755 O   0  0  0  0  0  0  0  0  0  0  0  0
  1  2  1  0  0  0  0
  1  3  1  0  0  0  0
  3  4  1  0  0  0  0
  5 20  1  0  0  0  0
  6  5  1  0  0  0  0
  7 19  1  0  0  0  0
  7  5  2  0  0  0  0
  8  7  1  0  0  0  0
  9 21  1  0  0  0  0
 10  9  1  0  0  0  0
 10 11  1  0  0  0  0
 12 10  2  0  0  0  0
 13 12  1  0  0  0  0
 14 15  2  0  0  0  0
 14 12  1  0  0  0  0
 15 17  1  0  0  0  0
 16 15  1  0  0  0  0
 17 18  1  0  0  0  0
 17  9  2  0  0  0  0
 19  1  2  0  0  0  0
 20  3  2  0  0  0  0
 21 22  1  0  0  0  0
 21  8  1  0  0  0  0
 23 25  1  0  0  0  0
 24 14  1  0  0  0  0
 26 23  1  0  0  0  0
 27  8  2  0  0  0  0
M  END
$$$$
