CSD_code = BULXUC | q = 0 | S = 0 | Stoichiometry = C34H29Cl2N2OPRu | MND = 6
 OpenBabel04212202013D

 70 76  0  0  1  0  0  0  0  0999 V2000
    0.5264    1.3597    8.5449 C   0  0  0  0  0  0  0  0  0  0  0  0
   -0.1488    1.5753    7.3644 C   0  0  0  0  0  0  0  0  0  0  0  0
   -0.3396    2.5892    7.0445 H   0  0  0  0  0  0  0  0  0  0  0  0
   -0.5736    0.5181    6.5552 C   0  0  0  0  0  0  0  0  0  0  0  0
   -1.1238    0.7272    5.6503 H   0  0  0  0  0  0  0  0  0  0  0  0
   -0.2392   -0.7645    6.8875 C   0  0  0  0  0  3  0  0  0  0  0  0
   -0.4933   -1.5919    6.2415 H   0  0  0  0  0  0  0  0  0  0  0  0
    0.4860   -1.0312    8.0651 C   0  0  0  0  0  0  0  0  0  0  0  0
    0.7904    0.0292    8.9653 C   0  0  0  0  0  0  0  0  0  0  0  0
    0.9764   -2.3224    8.3525 C   0  0  0  0  0  0  0  0  0  0  0  0
    0.7408   -3.1394    7.6875 H   0  0  0  0  0  0  0  0  0  0  0  0
    1.7872   -2.4865    9.4421 C   0  0  0  0  0  0  0  0  0  0  0  0
    2.2619   -3.4294    9.6599 H   0  0  0  0  0  0  0  0  0  0  0  0
    1.9422   -1.4224   10.3349 C   0  0  0  0  0  0  0  0  0  0  0  0
    2.5073   -1.5664   11.2486 H   0  0  0  0  0  0  0  0  0  0  0  0
    1.0938    2.5462    9.2763 C   0  0  0  0  0  0  0  0  0  0  0  0
    2.1838    2.4208    9.3968 H   0  0  0  0  0  0  0  0  0  0  0  0
    0.8968    3.4607    8.6976 H   0  0  0  0  0  0  0  0  0  0  0  0
    0.9535    3.8030   11.2794 C   0  0  0  0  0  0  0  0  0  0  0  0
    0.4540    4.7087   10.9032 H   0  0  0  0  0  0  0  0  0  0  0  0
    2.0444    3.9041   11.1499 H   0  0  0  0  0  0  0  0  0  0  0  0
    0.6908    3.6060   12.7485 C   0  0  2  0  0  3  0  0  0  0  0  0
    0.4543    4.6845   13.5845 C   0  0  0  0  0  0  0  0  0  0  0  0
    0.4062    5.6791   13.1682 H   0  0  0  0  0  0  0  0  0  0  0  0
    0.2956    4.4721   14.9456 C   0  0  0  0  0  0  0  0  0  0  0  0
    0.1122    5.2994   15.6132 H   0  0  0  0  0  0  0  0  0  0  0  0
    0.3926    3.1733   15.4199 C   0  0  0  0  0  0  0  0  0  0  0  0
    0.2976    2.9525   16.4707 H   0  0  0  0  0  0  0  0  0  0  0  0
    0.6177    2.1462   14.5235 C   0  0  0  0  0  0  0  0  0  0  0  0
    0.7149    1.1225   14.8600 H   0  0  0  0  0  0  0  0  0  0  0  0
   -2.1284    1.4727   10.8271 C   0  0  0  0  0  0  0  0  0  0  0  0
   -2.4761    1.1761    9.5143 C   0  0  0  0  0  0  0  0  0  0  0  0
   -2.2719    0.1944    9.1101 H   0  0  0  0  0  0  0  0  0  0  0  0
   -3.0767    2.1370    8.7193 C   0  0  0  0  0  0  0  0  0  0  0  0
   -3.3547    1.8922    7.7045 H   0  0  0  0  0  0  0  0  0  0  0  0
   -3.3114    3.4078    9.2151 C   0  0  0  0  0  0  0  0  0  0  0  0
   -3.7783    4.1558    8.5910 H   0  0  0  0  0  0  0  0  0  0  0  0
   -2.9340    3.7231   10.5116 C   0  0  0  0  0  0  0  0  0  0  0  0
   -3.1004    4.7191   10.8972 H   0  0  0  0  0  0  0  0  0  0  0  0
   -2.3412    2.7645   11.3096 C   0  0  0  0  0  0  0  0  0  0  0  0
   -2.0327    3.0099   12.3194 H   0  0  0  0  0  0  0  0  0  0  0  0
   -2.0875    0.3294   13.4562 C   0  0  0  0  0  0  0  0  0  0  0  0
   -3.3499    0.8839   13.6323 C   0  0  0  0  0  0  0  0  0  0  0  0
   -3.8416    1.4000   12.8199 H   0  0  0  0  0  0  0  0  0  0  0  0
   -3.9865    0.7720   14.8562 C   0  0  0  0  0  0  0  0  0  0  0  0
   -4.9659    1.2090   14.9896 H   0  0  0  0  0  0  0  0  0  0  0  0
   -3.3794    0.0989   15.9029 C   0  0  0  0  0  0  0  0  0  0  0  0
   -3.8824    0.0178   16.8554 H   0  0  0  0  0  0  0  0  0  0  0  0
   -2.1335   -0.4795   15.7213 C   0  0  0  0  0  0  0  0  0  0  0  0
   -1.6632   -1.0192   16.5298 H   0  0  0  0  0  0  0  0  0  0  0  0
   -1.4908   -0.3714   14.5023 C   0  0  0  0  0  0  0  0  0  0  0  0
   -0.5209   -0.8273   14.3452 H   0  0  0  0  0  0  0  0  0  0  0  0
   -1.6826   -1.3384   11.3570 C   0  0  0  0  0  0  0  0  0  0  0  0
   -2.9544   -1.6138   10.8628 C   0  0  0  0  0  0  0  0  0  0  0  0
   -3.6757   -0.8175   10.7451 H   0  0  0  0  0  0  0  0  0  0  0  0
   -3.2987   -2.9118   10.5344 C   0  0  0  0  0  0  0  0  0  0  0  0
   -4.2836   -3.1216   10.1424 H   0  0  0  0  0  0  0  0  0  0  0  0
   -2.3907   -3.9431   10.7163 C   0  0  0  0  0  0  0  0  0  0  0  0
   -2.6653   -4.9543   10.4534 H   0  0  0  0  0  0  0  0  0  0  0  0
   -1.1441   -3.6789   11.2576 C   0  0  0  0  0  0  0  0  0  0  0  0
   -0.4466   -4.4846   11.4317 H   0  0  0  0  0  0  0  0  0  0  0  0
   -0.7913   -2.3818   11.5849 C   0  0  0  0  0  0  0  0  0  0  0  0
    0.1659   -2.1675   12.0415 H   0  0  0  0  0  0  0  0  0  0  0  0
    3.2903    1.7499   11.5910 Cl  0  0  0  0  0  0  0  0  0  0  0  0
    1.7421   -0.6503   13.3613 Cl  0  0  0  0  0  0  0  0  0  0  0  0
    1.3786   -0.2385   10.1724 N   0  0  0  0  0  0  0  0  0  0  0  0
    0.7511    2.3452   13.2114 N   0  0  0  0  0  0  0  0  0  0  0  0
    0.4959    2.6749   10.5537 O   0  0  0  0  0  0  0  0  0  0  0  0
   -1.1693    0.3349   11.8744 P   0  0  0  0  0  4  0  0  0  0  0  0
    1.0466    0.9831   11.7810 Ru  0  0  0  0  0  0  0  0  0  0  0  0
  1  9  2  0  0  0  0
  1 16  1  0  0  0  0
  2  1  1  0  0  0  0
  3  2  1  0  0  0  0
  4  6  1  0  0  0  0
  4  2  2  0  0  0  0
  5  4  1  0  0  0  0
  6  8  1  0  0  0  0
  7  6  1  0  0  0  0
  8 10  2  0  0  0  0
  8  9  1  0  0  0  0
  9 66  1  0  0  0  0
 10 12  1  0  0  0  0
 11 10  1  0  0  0  0
 12 13  1  0  0  0  0
 12 14  2  0  0  0  0
 14 15  1  0  0  0  0
 16 17  1  0  0  0  0
 16 68  1  0  0  0  0
 18 16  1  0  0  0  0
 19 22  1  0  0  0  0
 20 19  1  0  0  0  0
 21 19  1  0  0  0  0
 22 67  1  0  0  0  0
 22 23  1  1  0  0  0
 23 25  2  0  0  0  0
 24 23  1  0  0  0  0
 25 27  1  0  0  0  0
 25 26  1  0  0  0  0
 27 28  1  0  0  0  0
 29 30  1  0  0  0  0
 29 27  2  0  0  0  0
 31 40  1  0  0  0  0
 31 69  1  0  0  0  0
 32 31  2  0  0  0  0
 33 32  1  0  0  0  0
 34 36  2  0  0  0  0
 34 32  1  0  0  0  0
 35 34  1  0  0  0  0
 36 38  1  0  0  0  0
 37 36  1  0  0  0  0
 38 39  1  0  0  0  0
 38 40  2  0  0  0  0
 40 41  1  0  0  0  0
 42 43  2  0  0  0  0
 42 51  1  0  0  0  0
 43 45  1  0  0  0  0
 44 43  1  0  0  0  0
 45 46  1  0  0  0  0
 45 47  2  0  0  0  0
 47 48  1  0  0  0  0
 49 47  1  0  0  0  0
 49 50  1  0  0  0  0
 51 49  2  0  0  0  0
 52 51  1  0  0  0  0
 53 62  1  0  0  0  0
 53 69  1  0  0  0  0
 54 53  2  0  0  0  0
 55 54  1  0  0  0  0
 56 58  2  0  0  0  0
 56 54  1  0  0  0  0
 57 56  1  0  0  0  0
 58 60  1  0  0  0  0
 59 58  1  0  0  0  0
 60 61  1  0  0  0  0
 60 62  2  0  0  0  0
 62 63  1  0  0  0  0
 64 70  1  0  0  0  0
 66 14  1  0  0  0  0
 66 70  1  0  0  0  0
 67 29  1  0  0  0  0
 68 19  1  0  0  0  0
 69 42  1  0  0  0  0
 70 69  1  0  0  0  0
 70 67  1  0  0  0  0
 70 65  1  0  0  0  0
M  END
$$$$
