CSD_code = BULXOW | q = 1 | S = 0 | Stoichiometry = C51H42ClN2OP2Ru(1+) | MND = 6
 OpenBabel04212202013D

100109  0  0  1  0  0  0  0  0999 V2000
   11.1532    8.8009   14.9144 C   0  0  0  0  0  0  0  0  0  0  0  0
   11.9779    8.4152   15.5303 H   0  0  0  0  0  0  0  0  0  0  0  0
   10.2082    8.3873   15.2848 H   0  0  0  0  0  0  0  0  0  0  0  0
   11.1351   10.3072   14.9662 C   0  0  1  0  0  3  0  0  0  0  0  0
   10.3456   11.0049   15.8650 C   0  0  0  0  0  0  0  0  0  0  0  0
    9.7229   10.4665   16.5618 H   0  0  0  0  0  0  0  0  0  0  0  0
   10.3784   12.3905   15.8556 C   0  0  0  0  0  0  0  0  0  0  0  0
    9.7821   12.9571   16.5525 H   0  0  0  0  0  0  0  0  0  0  0  0
   11.1836   13.0244   14.9224 C   0  0  0  0  0  0  0  0  0  0  0  0
   11.2314   14.0991   14.8645 H   0  0  0  0  0  0  0  0  0  0  0  0
   11.9413   12.2572   14.0574 C   0  0  0  0  0  0  0  0  0  0  0  0
   12.5921   12.7121   13.3202 H   0  0  0  0  0  0  0  0  0  0  0  0
   10.3099    8.4074   12.7430 C   0  0  0  0  0  0  0  0  0  0  0  0
    9.2347    7.5681   12.9155 C   0  0  0  0  0  0  0  0  0  0  0  0
    9.2336    6.8530   13.7247 H   0  0  0  0  0  0  0  0  0  0  0  0
    8.1509    7.6280   12.0318 C   0  0  0  0  0  0  0  0  0  0  0  0
    7.3223    6.9526   12.1744 H   0  0  0  0  0  0  0  0  0  0  0  0
    8.1373    8.5348   11.0062 C   0  0  0  0  0  3  0  0  0  0  0  0
    7.2949    8.5940   10.3349 H   0  0  0  0  0  0  0  0  0  0  0  0
    9.2170    9.4177   10.8117 C   0  0  0  0  0  0  0  0  0  0  0  0
   10.3364    9.3397   11.6800 C   0  0  0  0  0  0  0  0  0  0  0  0
   11.3895   11.0833   10.6096 C   0  0  0  0  0  0  0  0  0  0  0  0
   12.2540   11.7332   10.5520 H   0  0  0  0  0  0  0  0  0  0  0  0
   10.3132   11.2516    9.7298 C   0  0  0  0  0  0  0  0  0  0  0  0
   10.3590   12.0379    8.9945 H   0  0  0  0  0  0  0  0  0  0  0  0
    9.2415   10.4037    9.8014 C   0  0  0  0  0  0  0  0  0  0  0  0
    8.4122   10.4807    9.1160 H   0  0  0  0  0  0  0  0  0  0  0  0
   12.9672    8.5471    9.5564 C   0  0  0  0  0  0  0  0  0  0  0  0
   12.0050    7.6790    9.0581 C   0  0  0  0  0  0  0  0  0  0  0  0
   11.7792    6.7534    9.5663 H   0  0  0  0  0  0  0  0  0  0  0  0
   11.3452    7.9806    7.8775 C   0  0  0  0  0  0  0  0  0  0  0  0
   10.6032    7.2955    7.4946 H   0  0  0  0  0  0  0  0  0  0  0  0
   11.6407    9.1413    7.1847 C   0  0  0  0  0  0  0  0  0  0  0  0
   11.1275    9.3654    6.2621 H   0  0  0  0  0  0  0  0  0  0  0  0
   12.6070   10.0073    7.6724 C   0  0  0  0  0  0  0  0  0  0  0  0
   12.8519   10.9081    7.1301 H   0  0  0  0  0  0  0  0  0  0  0  0
   13.2616    9.7164    8.8532 C   0  0  0  0  0  0  0  0  0  0  0  0
   14.0196   10.3868    9.2384 H   0  0  0  0  0  0  0  0  0  0  0  0
   15.5608    8.4870   10.3608 C   0  0  0  0  0  0  0  0  0  0  0  0
   15.8520    7.6360    9.2925 C   0  0  0  0  0  0  0  0  0  0  0  0
   15.1194    6.9073    8.9706 H   0  0  0  0  0  0  0  0  0  0  0  0
   17.0674    7.7261    8.6450 C   0  0  0  0  0  0  0  0  0  0  0  0
   17.2872    7.0621    7.8223 H   0  0  0  0  0  0  0  0  0  0  0  0
   17.9995    8.6733    9.0439 C   0  0  0  0  0  0  0  0  0  0  0  0
   18.9474    8.7443    8.5325 H   0  0  0  0  0  0  0  0  0  0  0  0
   17.7052    9.5332   10.0860 C   0  0  0  0  0  0  0  0  0  0  0  0
   18.4189   10.2833   10.3908 H   0  0  0  0  0  0  0  0  0  0  0  0
   16.4897    9.4432   10.7448 C   0  0  0  0  0  0  0  0  0  0  0  0
   16.2620   10.1316   11.5426 H   0  0  0  0  0  0  0  0  0  0  0  0
   13.7929    6.5476   11.4773 C   0  0  0  0  0  0  0  0  0  0  0  0
   12.5417    6.0131   11.7815 C   0  0  0  0  0  0  0  0  0  0  0  0
   11.6674    6.6500   11.7541 H   0  0  0  0  0  0  0  0  0  0  0  0
   12.4051    4.6797   12.1204 C   0  0  0  0  0  0  0  0  0  0  0  0
   11.4261    4.2775   12.3380 H   0  0  0  0  0  0  0  0  0  0  0  0
   13.5233    3.8647   12.1852 C   0  0  0  0  0  0  0  0  0  0  0  0
   13.4205    2.8243   12.4534 H   0  0  0  0  0  0  0  0  0  0  0  0
   14.7731    4.3913   11.9068 C   0  0  0  0  0  0  0  0  0  0  0  0
   15.6483    3.7617   11.9620 H   0  0  0  0  0  0  0  0  0  0  0  0
   14.9107    5.7224   11.5541 C   0  0  0  0  0  0  0  0  0  0  0  0
   15.8910    6.1151   11.3276 H   0  0  0  0  0  0  0  0  0  0  0  0
   14.3789   10.5987   15.7356 C   0  0  0  0  0  0  0  0  0  0  0  0
   14.6165   11.9297   15.3908 C   0  0  0  0  0  0  0  0  0  0  0  0
   14.9470   12.1690   14.3885 H   0  0  0  0  0  0  0  0  0  0  0  0
   14.4065   12.9373   16.3139 C   0  0  0  0  0  0  0  0  0  0  0  0
   14.6085   13.9628   16.0433 H   0  0  0  0  0  0  0  0  0  0  0  0
   13.9313   12.6329   17.5794 C   0  0  0  0  0  0  0  0  0  0  0  0
   13.7673   13.4191   18.3003 H   0  0  0  0  0  0  0  0  0  0  0  0
   13.6592   11.3174   17.9152 C   0  0  0  0  0  0  0  0  0  0  0  0
   13.2772   11.0770   18.8962 H   0  0  0  0  0  0  0  0  0  0  0  0
   13.8777   10.3027   16.9995 C   0  0  0  0  0  0  0  0  0  0  0  0
   13.6654    9.2793   17.2780 H   0  0  0  0  0  0  0  0  0  0  0  0
   14.5934    7.7661   15.3648 C   0  0  0  0  0  0  0  0  0  0  0  0
   15.4680    7.6123   16.4392 C   0  0  0  0  0  0  0  0  0  0  0  0
   16.0988    8.4387   16.7370 H   0  0  0  0  0  0  0  0  0  0  0  0
   15.5301    6.4081   17.1128 C   0  0  0  0  0  0  0  0  0  0  0  0
   16.2053    6.2948   17.9475 H   0  0  0  0  0  0  0  0  0  0  0  0
   14.7362    5.3428   16.7129 C   0  0  0  0  0  0  0  0  0  0  0  0
   14.7936    4.4016   17.2380 H   0  0  0  0  0  0  0  0  0  0  0  0
   13.8801    5.4845   15.6350 C   0  0  0  0  0  0  0  0  0  0  0  0
   13.2720    4.6540   15.3086 H   0  0  0  0  0  0  0  0  0  0  0  0
   13.8080    6.6935   14.9634 C   0  0  0  0  0  0  0  0  0  0  0  0
   13.1540    6.7997   14.1084 H   0  0  0  0  0  0  0  0  0  0  0  0
   16.3775    9.3463   14.0732 C   0  0  0  0  0  0  0  0  0  0  0  0
   17.2619   10.3699   14.3844 C   0  0  0  0  0  0  0  0  0  0  0  0
   16.9192   11.2644   14.8812 H   0  0  0  0  0  0  0  0  0  0  0  0
   18.6036   10.2376   14.0645 C   0  0  0  0  0  0  0  0  0  0  0  0
   19.2876   11.0369   14.3075 H   0  0  0  0  0  0  0  0  0  0  0  0
   19.0701    9.0918   13.4447 C   0  0  0  0  0  0  0  0  0  0  0  0
   20.1173    8.9965   13.2017 H   0  0  0  0  0  0  0  0  0  0  0  0
   18.1914    8.0630   13.1424 C   0  0  0  0  0  0  0  0  0  0  0  0
   18.5519    7.1642   12.6646 H   0  0  0  0  0  0  0  0  0  0  0  0
   16.8531    8.1912   13.4527 C   0  0  0  0  0  0  0  0  0  0  0  0
   16.1557    7.3950   13.2236 H   0  0  0  0  0  0  0  0  0  0  0  0
   14.2591   11.5256   11.9716 Cl  0  0  0  0  0  0  0  0  0  0  0  0
   11.9336   10.9258   14.0869 N   0  0  0  0  0  0  0  0  0  0  0  0
   11.4243   10.1454   11.5321 N   0  0  0  0  0  0  0  0  0  0  0  0
   11.4160    8.3399   13.5913 O   0  0  0  0  0  0  0  0  0  0  0  0
   13.9051    8.3344   11.1173 P   0  0  0  0  0  4  0  0  0  0  0  0
   14.5871    9.3382   14.4338 P   0  0  0  0  0  4  0  0  0  0  0  0
   12.9646    9.7223   12.7831 Ru  0  0  0  0  0  0  0  0  0  0  0  0
  1  4  1  0  0  0  0
  1  3  1  0  0  0  0
  1  2  1  0  0  0  0
  4  5  1  1  0  0  0
  5  6  1  0  0  0  0
  7  5  2  0  0  0  0
  7  8  1  0  0  0  0
  9  7  1  0  0  0  0
 10  9  1  0  0  0  0
 11 95  1  0  0  0  0
 11  9  2  0  0  0  0
 12 11  1  0  0  0  0
 13 14  1  0  0  0  0
 13 97  1  0  0  0  0
 14 15  1  0  0  0  0
 16 17  1  0  0  0  0
 16 14  2  0  0  0  0
 18 16  1  0  0  0  0
 19 18  1  0  0  0  0
 20 18  1  0  0  0  0
 20 21  1  0  0  0  0
 21 13  2  0  0  0  0
 22 96  1  0  0  0  0
 23 22  1  0  0  0  0
 24 26  1  0  0  0  0
 24 22  2  0  0  0  0
 25 24  1  0  0  0  0
 26 20  2  0  0  0  0
 27 26  1  0  0  0  0
 28 98  1  0  0  0  0
 29 28  1  0  0  0  0
 29 30  1  0  0  0  0
 31 29  2  0  0  0  0
 32 31  1  0  0  0  0
 33 35  2  0  0  0  0
 33 31  1  0  0  0  0
 34 33  1  0  0  0  0
 35 37  1  0  0  0  0
 36 35  1  0  0  0  0
 37 38  1  0  0  0  0
 37 28  2  0  0  0  0
 39 48  1  0  0  0  0
 39 98  1  0  0  0  0
 40 39  2  0  0  0  0
 41 40  1  0  0  0  0
 42 44  2  0  0  0  0
 42 40  1  0  0  0  0
 43 42  1  0  0  0  0
 44 46  1  0  0  0  0
 45 44  1  0  0  0  0
 46 47  1  0  0  0  0
 46 48  2  0  0  0  0
 48 49  1  0  0  0  0
 50 59  2  0  0  0  0
 50 51  1  0  0  0  0
 51 53  2  0  0  0  0
 52 51  1  0  0  0  0
 53 55  1  0  0  0  0
 53 54  1  0  0  0  0
 55 56  1  0  0  0  0
 57 58  1  0  0  0  0
 57 55  2  0  0  0  0
 59 57  1  0  0  0  0
 60 59  1  0  0  0  0
 61 70  1  0  0  0  0
 62 61  2  0  0  0  0
 62 64  1  0  0  0  0
 63 62  1  0  0  0  0
 64 66  2  0  0  0  0
 65 64  1  0  0  0  0
 66 68  1  0  0  0  0
 66 67  1  0  0  0  0
 68 69  1  0  0  0  0
 70 71  1  0  0  0  0
 70 68  2  0  0  0  0
 72 73  1  0  0  0  0
 73 74  1  0  0  0  0
 73 75  2  0  0  0  0
 75 76  1  0  0  0  0
 77 75  1  0  0  0  0
 77 78  1  0  0  0  0
 79 77  2  0  0  0  0
 80 79  1  0  0  0  0
 81 72  2  0  0  0  0
 81 79  1  0  0  0  0
 82 81  1  0  0  0  0
 83 84  1  0  0  0  0
 83 99  1  0  0  0  0
 84 85  1  0  0  0  0
 86 87  1  0  0  0  0
 86 84  2  0  0  0  0
 88 86  1  0  0  0  0
 89 88  1  0  0  0  0
 90 88  2  0  0  0  0
 90 92  1  0  0  0  0
 91 90  1  0  0  0  0
 92 83  2  0  0  0  0
 93 92  1  0  0  0  0
 94100  1  0  0  0  0
 95  4  1  0  0  0  0
 96 21  1  0  0  0  0
 96100  1  0  0  0  0
 97  1  1  0  0  0  0
 98 50  1  0  0  0  0
 98100  1  0  0  0  0
 99 72  1  0  0  0  0
 99 61  1  0  0  0  0
100 95  1  0  0  0  0
100 99  1  0  0  0  0
M  END
$$$$
