CSD_code = BUNCAQ | q = 0 | S = 0 | Stoichiometry = C25H41Cl2N3Ti | MND = 8
 OpenBabel04212202013D

 72 75  0  0  1  0  0  0  0  0999 V2000
    4.2775    0.8544    5.2317 Ti  0  0  0  0  0  0  0  0  0  0  0  0
    4.2522   -0.4612    3.4661 Cl  0  0  0  0  0  0  0  0  0  0  0  0
    5.8568   -0.2471    6.2987 Cl  0  0  0  0  0  0  0  0  0  0  0  0
    5.1653    2.2485    4.6475 N   0  0  0  0  0  2  0  0  0  0  0  0
    7.0257    3.5403    5.2598 N   0  0  2  0  0  0  0  0  0  0  0  0
    6.6385    3.2003    3.0866 N   0  0  1  0  0  0  0  0  0  0  0  0
    3.1422    1.1683    7.2131 C   0  0  0  0  0  0  0  0  0  0  0  0
    2.8689    2.2732    6.3599 C   0  0  0  0  0  0  0  0  0  0  0  0
    2.2017    1.7709    5.2041 C   0  0  2  0  0  0  0  0  0  0  0  0
    2.0201    0.3679    5.3699 C   0  0  0  0  0  0  0  0  0  0  0  0
    2.6191   -0.0044    6.5968 C   0  0  0  0  0  0  0  0  0  0  0  0
    3.7226    1.1992    8.5977 C   0  0  0  0  0  0  0  0  0  0  0  0
    3.0880    3.7329    6.6451 C   0  0  0  0  0  0  0  0  0  0  0  0
    1.6618    2.6037    4.0770 C   0  0  0  0  0  0  0  0  0  0  0  0
    1.2025   -0.5121    4.4712 C   0  0  0  0  0  0  0  0  0  0  0  0
    2.6199   -1.3690    7.2213 C   0  0  0  0  0  0  0  0  0  0  0  0
    6.2105    2.9079    4.3603 C   0  0  2  0  0  3  0  0  0  0  0  0
    8.1250    4.2096    4.6035 C   0  0  0  0  0  0  0  0  0  0  0  0
    7.9292    3.8570    3.1193 C   0  0  0  0  0  0  0  0  0  0  0  0
    6.9709    3.2619    6.6754 C   0  0  0  0  0  0  0  0  0  0  0  0
    8.1062    2.3410    7.1357 C   0  0  0  0  0  0  0  0  0  0  0  0
    7.9161    1.9963    8.6088 C   0  0  0  0  0  0  0  0  0  0  0  0
    7.8896    3.2641    9.4573 C   0  0  0  0  0  0  0  0  0  0  0  0
    6.7902    4.2097    8.9825 C   0  0  0  0  0  0  0  0  0  0  0  0
    6.9683    4.5471    7.5048 C   0  0  0  0  0  0  0  0  0  0  0  0
    6.2360    2.3326    1.9956 C   0  0  0  0  0  0  0  0  0  0  0  0
    7.0583    1.0382    1.9507 C   0  0  0  0  0  0  0  0  0  0  0  0
    6.5455    0.1342    0.8341 C   0  0  0  0  0  0  0  0  0  0  0  0
    6.5915    0.8570   -0.5084 C   0  0  0  0  0  0  0  0  0  0  0  0
    5.7764    2.1454   -0.4499 C   0  0  0  0  0  0  0  0  0  0  0  0
    6.3025    3.0581    0.6545 C   0  0  0  0  0  0  0  0  0  0  0  0
    4.0277    2.2063    8.8755 H   0  0  0  0  0  0  0  0  0  0  0  0
    4.5911    0.5411    8.6715 H   0  0  0  0  0  0  0  0  0  0  0  0
    2.9790    0.8572    9.3212 H   0  0  0  0  0  0  0  0  0  0  0  0
    2.1275    4.2514    6.6837 H   0  0  0  0  0  0  0  0  0  0  0  0
    3.6959    4.1954    5.8648 H   0  0  0  0  0  0  0  0  0  0  0  0
    3.5897    3.8764    7.5996 H   0  0  0  0  0  0  0  0  0  0  0  0
    2.2541    3.5108    3.9557 H   0  0  0  0  0  0  0  0  0  0  0  0
    0.6253    2.8911    4.2735 H   0  0  0  0  0  0  0  0  0  0  0  0
    1.6876    2.0473    3.1392 H   0  0  0  0  0  0  0  0  0  0  0  0
    0.1470   -0.4485    4.7497 H   0  0  0  0  0  0  0  0  0  0  0  0
    1.5124   -1.5534    4.5472 H   0  0  0  0  0  0  0  0  0  0  0  0
    1.2997   -0.2079    3.4293 H   0  0  0  0  0  0  0  0  0  0  0  0
    1.8055   -1.4562    7.9460 H   0  0  0  0  0  0  0  0  0  0  0  0
    3.5593   -1.5546    7.7444 H   0  0  0  0  0  0  0  0  0  0  0  0
    2.4870   -2.1456    6.4685 H   0  0  0  0  0  0  0  0  0  0  0  0
    9.0901    3.8588    4.9814 H   0  0  0  0  0  0  0  0  0  0  0  0
    8.0621    5.2923    4.7680 H   0  0  0  0  0  0  0  0  0  0  0  0
    7.9128    4.7516    2.4896 H   0  0  0  0  0  0  0  0  0  0  0  0
    8.7238    3.1937    2.7577 H   0  0  0  0  0  0  0  0  0  0  0  0
    6.0167    2.7263    6.8200 H   0  0  0  0  0  0  0  0  0  0  0  0
    9.0704    2.8374    7.0013 H   0  0  0  0  0  0  0  0  0  0  0  0
    8.0910    1.4286    6.5365 H   0  0  0  0  0  0  0  0  0  0  0  0
    6.9781    1.4502    8.7222 H   0  0  0  0  0  0  0  0  0  0  0  0
    8.7249    1.3434    8.9413 H   0  0  0  0  0  0  0  0  0  0  0  0
    7.7267    3.0064   10.5056 H   0  0  0  0  0  0  0  0  0  0  0  0
    8.8561    3.7690    9.3848 H   0  0  0  0  0  0  0  0  0  0  0  0
    6.8046    5.1267    9.5757 H   0  0  0  0  0  0  0  0  0  0  0  0
    5.8195    3.7317    9.1283 H   0  0  0  0  0  0  0  0  0  0  0  0
    6.1631    5.2019    7.1659 H   0  0  0  0  0  0  0  0  0  0  0  0
    7.9160    5.0724    7.3650 H   0  0  0  0  0  0  0  0  0  0  0  0
    5.1910    2.0632    2.2159 H   0  0  0  0  0  0  0  0  0  0  0  0
    6.9680    0.5290    2.9175 H   0  0  0  0  0  0  0  0  0  0  0  0
    8.1122    1.2712    1.7750 H   0  0  0  0  0  0  0  0  0  0  0  0
    7.1506   -0.7732    0.7910 H   0  0  0  0  0  0  0  0  0  0  0  0
    5.5197   -0.1590    1.0620 H   0  0  0  0  0  0  0  0  0  0  0  0
    7.6280    1.0955   -0.7609 H   0  0  0  0  0  0  0  0  0  0  0  0
    6.1987    0.2064   -1.2919 H   0  0  0  0  0  0  0  0  0  0  0  0
    4.7316    1.9015   -0.2481 H   0  0  0  0  0  0  0  0  0  0  0  0
    5.8241    2.6630   -1.4104 H   0  0  0  0  0  0  0  0  0  0  0  0
    7.3375    3.3307    0.4346 H   0  0  0  0  0  0  0  0  0  0  0  0
    5.7115    3.9747    0.7040 H   0  0  0  0  0  0  0  0  0  0  0  0
  1  3  1  0  0  0  0
  2  1  1  0  0  0  0
  4  1  1  0  0  0  0
  5 20  1  1  0  0  0
  6 26  1  6  0  0  0
  6 19  1  0  0  0  0
  6 17  1  0  0  0  0
  7 12  1  0  0  0  0
  8 13  1  0  0  0  0
  8  7  2  0  0  0  0
  9 14  1  6  0  0  0
  9  1  1  0  0  0  0
  9 10  1  0  0  0  0
  9  8  1  0  0  0  0
 10 11  2  0  0  0  0
 11  7  1  0  0  0  0
 11 16  1  0  0  0  0
 12 33  1  0  0  0  0
 12 32  1  0  0  0  0
 12 34  1  0  0  0  0
 13 35  1  0  0  0  0
 13 37  1  0  0  0  0
 14 39  1  0  0  0  0
 15 42  1  0  0  0  0
 15 41  1  0  0  0  0
 15 10  1  0  0  0  0
 16 45  1  0  0  0  0
 16 44  1  0  0  0  0
 17  4  1  6  0  0  0
 17  5  1  0  0  0  0
 18 48  1  0  0  0  0
 18 47  1  0  0  0  0
 18  5  1  0  0  0  0
 19 18  1  0  0  0  0
 20 51  1  0  0  0  0
 20 21  1  0  0  0  0
 20 25  1  0  0  0  0
 21 22  1  0  0  0  0
 22 54  1  0  0  0  0
 22 55  1  0  0  0  0
 22 23  1  0  0  0  0
 23 56  1  0  0  0  0
 24 59  1  0  0  0  0
 24 23  1  0  0  0  0
 24 58  1  0  0  0  0
 25 24  1  0  0  0  0
 26 62  1  0  0  0  0
 27 26  1  0  0  0  0
 27 63  1  0  0  0  0
 28 66  1  0  0  0  0
 28 27  1  0  0  0  0
 29 30  1  0  0  0  0
 29 28  1  0  0  0  0
 30 69  1  0  0  0  0
 30 31  1  0  0  0  0
 31 72  1  0  0  0  0
 31 26  1  0  0  0  0
 36 13  1  0  0  0  0
 38 14  1  0  0  0  0
 40 14  1  0  0  0  0
 43 15  1  0  0  0  0
 46 16  1  0  0  0  0
 49 19  1  0  0  0  0
 50 19  1  0  0  0  0
 52 21  1  0  0  0  0
 53 21  1  0  0  0  0
 57 23  1  0  0  0  0
 60 25  1  0  0  0  0
 61 25  1  0  0  0  0
 64 27  1  0  0  0  0
 65 28  1  0  0  0  0
 67 29  1  0  0  0  0
 68 29  1  0  0  0  0
 70 30  1  0  0  0  0
 71 31  1  0  0  0  0
M  END
$$$$
