CSD_code = BUNCEU | q = 0 | S = 0 | Stoichiometry = C25H29Cl2N3Ti | MND = 8
 OpenBabel04212202013D

 60 63  0  0  1  0  0  0  0  0999 V2000
    0.2176    2.6425   31.4488 Ti  0  0  0  0  0  0  0  0  0  0  0  0
    2.1230    2.4602   32.5216 Cl  0  0  0  0  0  0  0  0  0  0  0  0
    0.9478    1.5257   29.7047 Cl  0  0  0  0  0  0  0  0  0  0  0  0
   -0.8292    1.4827   32.2867 N   0  0  0  0  0  2  0  0  0  0  0  0
   -2.9361    0.4248   32.2321 N   0  0  0  0  0  0  0  0  0  0  0  0
   -2.0998    1.0003   34.2219 N   0  0  0  0  0  0  0  0  0  0  0  0
    0.2946    4.5673   30.2061 C   0  0  0  0  0  0  0  0  0  0  0  0
   -1.0271    4.0406   30.1257 C   0  0  2  0  0  0  0  0  0  0  0  0
   -1.5993    4.0831   31.4297 C   0  0  0  0  0  0  0  0  0  0  0  0
   -0.6156    4.6024   32.3196 C   0  0  0  0  0  0  0  0  0  0  0  0
    0.5460    4.9174   31.5567 C   0  0  0  0  0  0  0  0  0  0  0  0
    1.2079    4.8229   29.0430 C   0  0  0  0  0  0  0  0  0  0  0  0
   -1.7282    3.6374   28.8610 C   0  0  0  0  0  0  0  0  0  0  0  0
   -3.0426    3.8286   31.7594 C   0  0  0  0  0  0  0  0  0  0  0  0
   -0.7820    4.9098   33.7802 C   0  0  0  0  0  0  0  0  0  0  0  0
    1.7445    5.6494   32.0845 C   0  0  0  0  0  0  0  0  0  0  0  0
   -1.8420    1.0033   32.8551 C   0  0  0  0  0  3  0  0  0  0  0  0
   -3.9474    0.0195   33.1834 C   0  0  0  0  0  0  0  0  0  0  0  0
   -3.4819    0.6701   34.4893 C   0  0  0  0  0  0  0  0  0  0  0  0
   -3.0537    0.2756   30.8480 C   0  0  0  0  0  0  0  0  0  0  0  0
   -1.9251   -0.0216   30.0839 C   0  0  0  0  0  0  0  0  0  0  0  0
   -2.0200   -0.1065   28.7072 C   0  0  0  0  0  0  0  0  0  0  0  0
   -3.2387    0.0778   28.0749 C   0  0  0  0  0  0  0  0  0  0  0  0
   -4.3683    0.3364   28.8326 C   0  0  0  0  0  0  0  0  0  0  0  0
   -4.2824    0.4396   30.2092 C   0  0  0  0  0  0  0  0  0  0  0  0
   -1.2578    1.5666   35.1774 C   0  0  0  0  0  0  0  0  0  0  0  0
    0.1259    1.5040   35.0068 C   0  0  0  0  0  0  0  0  0  0  0  0
    0.9674    2.0906   35.9325 C   0  0  0  0  0  0  0  0  0  0  0  0
    0.4505    2.7227   37.0522 C   0  0  0  0  0  0  0  0  0  0  0  0
   -0.9193    2.7490   37.2465 C   0  0  0  0  0  0  0  0  0  0  0  0
   -1.7731    2.1782   36.3197 C   0  0  0  0  0  0  0  0  0  0  0  0
    2.2534    4.7352   29.3392 H   0  0  0  0  0  0  0  0  0  0  0  0
    1.0483    5.8314   28.6527 H   0  0  0  0  0  0  0  0  0  0  0  0
    1.0215    4.1122   28.2392 H   0  0  0  0  0  0  0  0  0  0  0  0
   -2.5865    3.0011   29.0742 H   0  0  0  0  0  0  0  0  0  0  0  0
   -1.0535    3.0837   28.2071 H   0  0  0  0  0  0  0  0  0  0  0  0
   -2.0790    4.5220   28.3225 H   0  0  0  0  0  0  0  0  0  0  0  0
   -3.1609    3.5253   32.7989 H   0  0  0  0  0  0  0  0  0  0  0  0
   -3.4613    3.0526   31.1200 H   0  0  0  0  0  0  0  0  0  0  0  0
   -3.6218    4.7435   31.6065 H   0  0  0  0  0  0  0  0  0  0  0  0
   -1.6904    4.4609   34.1776 H   0  0  0  0  0  0  0  0  0  0  0  0
   -0.8377    5.9900   33.9355 H   0  0  0  0  0  0  0  0  0  0  0  0
    0.0635    4.5266   34.3550 H   0  0  0  0  0  0  0  0  0  0  0  0
    1.9794    5.3301   33.0995 H   0  0  0  0  0  0  0  0  0  0  0  0
    1.5456    6.7246   32.1004 H   0  0  0  0  0  0  0  0  0  0  0  0
    2.6198    5.4743   31.4610 H   0  0  0  0  0  0  0  0  0  0  0  0
   -3.9727   -1.0754   33.2595 H   0  0  0  0  0  0  0  0  0  0  0  0
   -4.9420    0.3665   32.8952 H   0  0  0  0  0  0  0  0  0  0  0  0
   -4.0708    1.5737   34.7023 H   0  0  0  0  0  0  0  0  0  0  0  0
   -3.5577   -0.0047   35.3458 H   0  0  0  0  0  0  0  0  0  0  0  0
   -0.9790   -0.2031   30.5754 H   0  0  0  0  0  0  0  0  0  0  0  0
   -1.1328   -0.3233   28.1326 H   0  0  0  0  0  0  0  0  0  0  0  0
   -3.3114    0.0115   27.0001 H   0  0  0  0  0  0  0  0  0  0  0  0
   -5.3260    0.4688   28.3505 H   0  0  0  0  0  0  0  0  0  0  0  0
   -5.1737    0.6574   30.7786 H   0  0  0  0  0  0  0  0  0  0  0  0
    0.5373    0.9809   34.1546 H   0  0  0  0  0  0  0  0  0  0  0  0
    2.0341    2.0443   35.7743 H   0  0  0  0  0  0  0  0  0  0  0  0
    1.1098    3.1799   37.7743 H   0  0  0  0  0  0  0  0  0  0  0  0
   -1.3330    3.2225   38.1250 H   0  0  0  0  0  0  0  0  0  0  0  0
   -2.8381    2.2163   36.4913 H   0  0  0  0  0  0  0  0  0  0  0  0
  1  4  1  0  0  0  0
  1  2  1  0  0  0  0
  3  1  1  0  0  0  0
  4 17  1  0  0  0  0
  5 17  1  0  0  0  0
  5 18  1  0  0  0  0
  6 19  1  0  0  0  0
  6 26  1  0  0  0  0
  7 11  2  0  0  0  0
  8 13  1  6  0  0  0
  8  7  1  0  0  0  0
  8  9  1  0  0  0  0
  8  1  1  0  0  0  0
  9 14  1  0  0  0  0
  9 10  2  0  0  0  0
 10 15  1  0  0  0  0
 11 16  1  0  0  0  0
 11 10  1  0  0  0  0
 12 32  1  0  0  0  0
 12  7  1  0  0  0  0
 13 35  1  0  0  0  0
 14 38  1  0  0  0  0
 15 42  1  0  0  0  0
 15 41  1  0  0  0  0
 15 43  1  0  0  0  0
 16 45  1  0  0  0  0
 16 44  1  0  0  0  0
 17  6  1  0  0  0  0
 18 47  1  0  0  0  0
 18 19  1  0  0  0  0
 19 49  1  0  0  0  0
 19 50  1  0  0  0  0
 20  5  1  0  0  0  0
 21 51  1  0  0  0  0
 21 20  2  0  0  0  0
 22 21  1  0  0  0  0
 23 22  2  0  0  0  0
 23 24  1  0  0  0  0
 24 25  2  0  0  0  0
 25 55  1  0  0  0  0
 25 20  1  0  0  0  0
 26 31  1  0  0  0  0
 27 26  2  0  0  0  0
 27 28  1  0  0  0  0
 28 29  2  0  0  0  0
 29 30  1  0  0  0  0
 29 58  1  0  0  0  0
 30 59  1  0  0  0  0
 31 60  1  0  0  0  0
 31 30  2  0  0  0  0
 33 12  1  0  0  0  0
 34 12  1  0  0  0  0
 36 13  1  0  0  0  0
 37 13  1  0  0  0  0
 39 14  1  0  0  0  0
 40 14  1  0  0  0  0
 46 16  1  0  0  0  0
 48 18  1  0  0  0  0
 52 22  1  0  0  0  0
 53 23  1  0  0  0  0
 54 24  1  0  0  0  0
 56 27  1  0  0  0  0
 57 28  1  0  0  0  0
M  END
$$$$
