CSD_code = BUNNAB | q = 0 | S = 0 | Stoichiometry = C14H21Cl2N5Zn | MND = 4
 OpenBabel04212202013D

 43 46  0  0  1  0  0  0  0  0999 V2000
   14.8166    6.1007    3.6824 Zn  0  0  0  0  0  0  0  0  0  0  0  0
   14.5684    7.4492    5.4536 Cl  0  0  0  0  0  0  0  0  0  0  0  0
   16.2071    6.1398    2.0153 Cl  0  0  0  0  0  0  0  0  0  0  0  0
   11.7114    5.9700    3.4738 N   0  0  1  0  0  0  0  0  0  0  0  0
   12.8926    5.9570    2.8571 N   0  0  0  0  0  0  0  0  0  0  0  0
   14.0813    3.6520    5.4251 N   0  0  0  0  0  0  0  0  0  0  0  0
   14.8142    4.1451    4.4274 N   0  0  1  0  0  0  0  0  0  0  0  0
   11.8802    4.6753    5.5389 N   0  0  2  0  0  0  0  0  0  0  0  0
   11.5846    5.9279    4.9268 C   0  0  0  0  0  0  0  0  0  0  0  0
   12.2683    6.6807    5.3353 H   0  0  0  0  0  0  0  0  0  0  0  0
   10.5514    6.2184    5.1442 H   0  0  0  0  0  0  0  0  0  0  0  0
   15.5309    3.1461    3.9365 C   0  0  0  0  0  3  0  0  0  0  0  0
   16.1998    3.3141    3.1157 H   0  0  0  0  0  0  0  0  0  0  0  0
   10.7147    6.0305    2.5757 C   0  0  0  0  0  3  0  0  0  0  0  0
    9.6858    6.0671    2.8735 H   0  0  0  0  0  0  0  0  0  0  0  0
   12.6550    6.0003    1.5550 C   0  0  0  0  0  0  0  0  0  0  0  0
   13.4690    5.9947    0.8573 H   0  0  0  0  0  0  0  0  0  0  0  0
   13.1402    4.4706    6.1773 C   0  0  0  0  0  0  0  0  0  0  0  0
   12.9903    3.9531    7.1339 H   0  0  0  0  0  0  0  0  0  0  0  0
   13.6138    5.4420    6.3535 H   0  0  0  0  0  0  0  0  0  0  0  0
   11.2816    6.0499    1.3203 C   0  0  0  0  0  0  0  0  0  0  0  0
   10.7806    6.0983    0.3762 H   0  0  0  0  0  0  0  0  0  0  0  0
   14.3240    2.3405    5.5816 C   0  0  0  0  0  0  0  0  0  0  0  0
   13.8378    1.7623    6.3414 H   0  0  0  0  0  0  0  0  0  0  0  0
   15.2577    1.9723    4.6380 C   0  0  0  0  0  0  0  0  0  0  0  0
   15.6821    1.0029    4.4808 H   0  0  0  0  0  0  0  0  0  0  0  0
   11.2316    2.8682    3.9064 C   0  0  0  0  0  0  0  0  0  0  0  0
   10.8367    3.5349    3.1389 H   0  0  0  0  0  0  0  0  0  0  0  0
   12.2888    2.7023    3.6919 H   0  0  0  0  0  0  0  0  0  0  0  0
   11.0570    3.5009    5.2957 C   0  0  0  0  0  0  0  0  0  0  0  0
   11.3787    2.7607    6.0386 H   0  0  0  0  0  0  0  0  0  0  0  0
    8.7976    2.4501    5.4880 C   0  0  0  0  0  0  0  0  0  0  0  0
    9.1516    1.7876    6.2809 H   0  0  0  0  0  0  0  0  0  0  0  0
    7.7365    2.6385    5.6613 H   0  0  0  0  0  0  0  0  0  0  0  0
    8.9897    1.7714    4.1346 C   0  0  0  0  0  0  0  0  0  0  0  0
    8.4594    0.8177    4.1204 H   0  0  0  0  0  0  0  0  0  0  0  0
    8.5641    2.4011    3.3499 H   0  0  0  0  0  0  0  0  0  0  0  0
    9.5690    3.7672    5.5419 C   0  0  0  0  0  0  0  0  0  0  0  0
    9.1733    4.4347    4.7756 H   0  0  0  0  0  0  0  0  0  0  0  0
    9.4387    4.2432    6.5153 H   0  0  0  0  0  0  0  0  0  0  0  0
   10.4717    1.5455    3.8493 C   0  0  0  0  0  0  0  0  0  0  0  0
   10.5960    1.0920    2.8644 H   0  0  0  0  0  0  0  0  0  0  0  0
   10.8845    0.8548    4.5884 H   0  0  0  0  0  0  0  0  0  0  0  0
  1  7  1  0  0  0  0
  1  2  1  0  0  0  0
  3  1  1  0  0  0  0
  4 14  1  1  0  0  0
  4  9  1  0  0  0  0
  5  4  1  0  0  0  0
  5  1  1  0  0  0  0
  6 23  1  0  0  0  0
  6 18  1  0  0  0  0
  7 12  1  6  0  0  0
  7  6  1  0  0  0  0
  8 30  1  6  0  0  0
  8 18  1  0  0  0  0
  9 11  1  0  0  0  0
  9 10  1  0  0  0  0
  9  8  1  0  0  0  0
 12 25  1  0  0  0  0
 13 12  1  0  0  0  0
 14 15  1  0  0  0  0
 16  5  1  0  0  0  0
 17 16  1  0  0  0  0
 18 20  1  0  0  0  0
 18 19  1  0  0  0  0
 21 16  2  0  0  0  0
 21 14  1  0  0  0  0
 22 21  1  0  0  0  0
 23 24  1  0  0  0  0
 25 23  2  0  0  0  0
 26 25  1  0  0  0  0
 27 30  1  0  0  0  0
 28 27  1  0  0  0  0
 29 27  1  0  0  0  0
 30 38  1  0  0  0  0
 30 31  1  0  0  0  0
 32 38  1  0  0  0  0
 32 34  1  0  0  0  0
 32 33  1  0  0  0  0
 35 32  1  0  0  0  0
 36 35  1  0  0  0  0
 37 35  1  0  0  0  0
 38 40  1  0  0  0  0
 39 38  1  0  0  0  0
 41 27  1  0  0  0  0
 41 35  1  0  0  0  0
 41 43  1  0  0  0  0
 42 41  1  0  0  0  0
M  END
$$$$
