CSD_code = BUPBIY | q = 0 | S = 0 | Stoichiometry = C32H35Cl3N4OSiZr | MND = 7
 OpenBabel04212202013D

 77 81  0  0  1  0  0  0  0  0999 V2000
   -1.1799    2.1361   10.1763 Zr  0  0  0  0  0  0  0  0  0  0  0  0
    0.2662    4.0289   10.3081 Cl  0  0  0  0  0  0  0  0  0  0  0  0
   -2.4606    0.1350   10.0623 Cl  0  0  0  0  0  0  0  0  0  0  0  0
   -3.1864    3.5001   10.3196 Cl  0  0  0  0  0 15  0  0  0  0  0  0
    0.8461    0.6455   12.5946 Si  0  0  0  0  0  0  0  0  0  0  0  0
    0.3341    1.1977    8.7870 N   0  0  0  0  0  0  0  0  0  0  0  0
    0.4474    0.9770   10.9765 N   0  0  2  0  0  0  0  0  0  0  0  0
   -0.7957    0.3063   13.2532 N   0  0  0  0  0  0  0  0  0  0  0  0
   -1.5009    2.3034   12.3783 N   0  0  0  0  0  0  0  0  0  0  0  0
   -2.2466    2.9989   12.4953 H   0  0  0  0  0  0  0  0  0  0  0  0
    0.8306    1.4468    7.5071 C   0  0  0  0  0  0  0  0  0  0  0  0
    0.2784    0.7620    6.4228 C   0  0  0  0  0  0  0  0  0  0  0  0
   -0.4752    0.0095    6.6135 H   0  0  0  0  0  0  0  0  0  0  0  0
    0.7031    1.0403    5.1379 C   0  0  0  0  0  0  0  0  0  0  0  0
    0.2778    0.5010    4.3034 H   0  0  0  0  0  0  0  0  0  0  0  0
    1.6712    2.0074    4.9154 C   0  0  0  0  0  0  0  0  0  0  0  0
    1.9984    2.2247    3.9096 H   0  0  0  0  0  0  0  0  0  0  0  0
    2.2129    2.6985    5.9879 C   0  0  0  0  0  0  0  0  0  0  0  0
    2.9606    3.4592    5.8169 H   0  0  0  0  0  0  0  0  0  0  0  0
    1.8013    2.4252    7.2784 C   0  0  0  0  0  0  0  0  0  0  0  0
    2.1988    2.9787    8.1183 H   0  0  0  0  0  0  0  0  0  0  0  0
    1.0994    0.9580    9.8273 C   0  0  1  0  0  3  0  0  0  0  0  0
    2.5479    0.6744    9.7283 C   0  0  0  0  0  0  0  0  0  0  0  0
    3.0214   -0.3177    8.8769 C   0  0  0  0  0  0  0  0  0  0  0  0
    2.3224   -0.8943    8.2890 H   0  0  0  0  0  0  0  0  0  0  0  0
    4.3796   -0.5683    8.7988 C   0  0  0  0  0  0  0  0  0  0  0  0
    4.7447   -1.3446    8.1430 H   0  0  0  0  0  0  0  0  0  0  0  0
    5.2697    0.1773    9.5540 C   0  0  0  0  0  0  0  0  0  0  0  0
    6.3299   -0.0166    9.4856 H   0  0  0  0  0  0  0  0  0  0  0  0
    4.8005    1.1766   10.3916 C   0  0  0  0  0  0  0  0  0  0  0  0
    5.4949    1.7667   10.9711 H   0  0  0  0  0  0  0  0  0  0  0  0
    3.4432    1.4238   10.4841 C   0  0  0  0  0  0  0  0  0  0  0  0
    3.0629    2.2124   11.1153 H   0  0  0  0  0  0  0  0  0  0  0  0
    1.8957   -0.9230   12.8368 C   0  0  0  0  0  0  0  0  0  0  0  0
    1.3582   -1.8147   12.5299 H   0  0  0  0  0  0  0  0  0  0  0  0
    2.1991   -1.0559   13.8682 H   0  0  0  0  0  0  0  0  0  0  0  0
    2.7963   -0.8548   12.2358 H   0  0  0  0  0  0  0  0  0  0  0  0
    1.4971    2.1592   13.5681 C   0  0  0  0  0  0  0  0  0  0  0  0
    1.1989    3.0805   13.0701 H   0  0  0  0  0  0  0  0  0  0  0  0
    2.5806    2.1526   13.6394 H   0  0  0  0  0  0  0  0  0  0  0  0
    1.1026    2.1904   14.5798 H   0  0  0  0  0  0  0  0  0  0  0  0
   -1.1410   -0.9500   13.7986 C   0  0  0  0  0  0  0  0  0  0  0  0
   -0.4957   -1.4112   14.9383 C   0  0  0  0  0  0  0  0  0  0  0  0
    0.2533   -0.7923   15.4090 H   0  0  0  0  0  0  0  0  0  0  0  0
   -0.8282   -2.6450   15.4674 C   0  0  0  0  0  0  0  0  0  0  0  0
   -0.3277   -2.9987   16.3568 H   0  0  0  0  0  0  0  0  0  0  0  0
   -1.8035   -3.4210   14.8638 C   0  0  0  0  0  0  0  0  0  0  0  0
   -2.0637   -4.3820   15.2815 H   0  0  0  0  0  0  0  0  0  0  0  0
   -2.4405   -2.9632   13.7222 C   0  0  0  0  0  0  0  0  0  0  0  0
   -3.1950   -3.5686   13.2433 H   0  0  0  0  0  0  0  0  0  0  0  0
   -2.1118   -1.7324   13.1839 C   0  0  0  0  0  0  0  0  0  0  0  0
   -2.5871   -1.3757   12.2818 H   0  0  0  0  0  0  0  0  0  0  0  0
   -1.7473    1.2306   13.0780 C   0  0  2  0  0  3  0  0  0  0  0  0
   -3.0546    1.0706   13.7614 C   0  0  0  0  0  0  0  0  0  0  0  0
   -3.1344    0.8157   15.1270 C   0  0  0  0  0  0  0  0  0  0  0  0
   -2.2302    0.7118   15.7079 H   0  0  0  0  0  0  0  0  0  0  0  0
   -4.3700    0.7155   15.7389 C   0  0  0  0  0  0  0  0  0  0  0  0
   -4.4274    0.5237   16.8001 H   0  0  0  0  0  0  0  0  0  0  0  0
   -5.5292    0.8593   14.9942 C   0  0  0  0  0  0  0  0  0  0  0  0
   -6.4922    0.7732   15.4753 H   0  0  0  0  0  0  0  0  0  0  0  0
   -5.4529    1.1168   13.6354 C   0  0  0  0  0  0  0  0  0  0  0  0
   -6.3544    1.2321   13.0535 H   0  0  0  0  0  0  0  0  0  0  0  0
   -4.2212    1.2333   13.0171 C   0  0  0  0  0  0  0  0  0  0  0  0
   -4.1583    1.4231   11.9522 H   0  0  0  0  0  0  0  0  0  0  0  0
   -2.8758    2.1158    7.4251 C   0  0  0  0  0  0  0  0  0  0  0  0
   -3.7755    2.5112    7.9207 H   0  0  0  0  0  0  0  0  0  0  0  0
   -2.8575    1.0256    7.5191 H   0  0  0  0  0  0  0  0  0  0  0  0
   -2.7792    2.6162    5.9750 C   0  0  0  0  0  0  0  0  0  0  0  0
   -2.3900    1.8388    5.3201 H   0  0  0  0  0  0  0  0  0  0  0  0
   -3.7558    2.9213    5.6054 H   0  0  0  0  0  0  0  0  0  0  0  0
   -1.7971    3.7983    6.0553 C   0  0  0  0  0  0  0  0  0  0  0  0
   -0.8650    3.5560    5.5458 H   0  0  0  0  0  0  0  0  0  0  0  0
   -2.2049    4.7088    5.6229 H   0  0  0  0  0  0  0  0  0  0  0  0
   -1.5482    3.9532    7.5582 C   0  0  0  0  0  0  0  0  0  0  0  0
   -0.5386    4.2951    7.8055 H   0  0  0  0  0  0  0  0  0  0  0  0
   -2.2923    4.6223    8.0176 H   0  0  0  0  0  0  0  0  0  0  0  0
   -1.7133    2.6324    8.0805 O   0  0  0  0  0  0  0  0  0  0  0  0
  1  2  1  0  0  0  0
  1  7  1  0  0  0  0
  1  9  1  0  0  0  0
  3  1  1  0  0  0  0
  5 34  1  0  0  0  0
  5  8  1  0  0  0  0
  5 38  1  0  0  0  0
  6 22  1  0  0  0  0
  6  1  1  0  0  0  0
  7  5  1  1  0  0  0
  8 42  1  0  0  0  0
  9 10  1  0  0  0  0
  9 53  1  0  0  0  0
 11  6  1  0  0  0  0
 12 13  1  0  0  0  0
 12 11  2  0  0  0  0
 14 12  1  0  0  0  0
 15 14  1  0  0  0  0
 16 14  2  0  0  0  0
 16 18  1  0  0  0  0
 17 16  1  0  0  0  0
 18 20  2  0  0  0  0
 19 18  1  0  0  0  0
 20 11  1  0  0  0  0
 20 21  1  0  0  0  0
 22 23  1  6  0  0  0
 22  7  1  0  0  0  0
 23 32  1  0  0  0  0
 24 23  2  0  0  0  0
 25 24  1  0  0  0  0
 26 24  1  0  0  0  0
 26 28  2  0  0  0  0
 27 26  1  0  0  0  0
 28 30  1  0  0  0  0
 29 28  1  0  0  0  0
 30 32  2  0  0  0  0
 30 31  1  0  0  0  0
 32 33  1  0  0  0  0
 34 36  1  0  0  0  0
 35 34  1  0  0  0  0
 37 34  1  0  0  0  0
 38 40  1  0  0  0  0
 38 41  1  0  0  0  0
 39 38  1  0  0  0  0
 42 43  1  0  0  0  0
 43 44  1  0  0  0  0
 43 45  2  0  0  0  0
 45 46  1  0  0  0  0
 47 48  1  0  0  0  0
 47 45  1  0  0  0  0
 49 47  2  0  0  0  0
 50 49  1  0  0  0  0
 51 49  1  0  0  0  0
 51 42  2  0  0  0  0
 52 51  1  0  0  0  0
 53  8  1  0  0  0  0
 53 54  1  1  0  0  0
 54 55  1  0  0  0  0
 55 56  1  0  0  0  0
 55 57  2  0  0  0  0
 57 58  1  0  0  0  0
 59 60  1  0  0  0  0
 59 57  1  0  0  0  0
 61 59  2  0  0  0  0
 62 61  1  0  0  0  0
 63 61  1  0  0  0  0
 63 54  2  0  0  0  0
 64 63  1  0  0  0  0
 65 67  1  0  0  0  0
 65 66  1  0  0  0  0
 65 77  1  0  0  0  0
 68 71  1  0  0  0  0
 68 65  1  0  0  0  0
 69 68  1  0  0  0  0
 70 68  1  0  0  0  0
 71 74  1  0  0  0  0
 72 71  1  0  0  0  0
 73 71  1  0  0  0  0
 74 75  1  0  0  0  0
 74 76  1  0  0  0  0
 74 77  1  0  0  0  0
M  END
$$$$
