CSD_code = BUPKII | q = 0 | S = 0 | Stoichiometry = C20H35ClN4Pt | MND = 4
 OpenBabel04212202013D

 61 63  0  0  1  0  0  0  0  0999 V2000
    7.5354    5.5311   10.0939 Pt  0  0  1  0  0  0  0  0  0  0  0  0
    7.3963    3.5591    8.8890 Cl  0  0  0  0  0  0  0  0  0  0  0  0
    8.4221    4.4533   11.7148 C   0  0  2  0  0  3  0  0  0  0  0  0
    9.3419    3.5175   11.9999 N   0  0  0  0  0  0  0  0  0  0  0  0
    9.1385    3.0263   13.2649 C   0  0  0  0  0  0  0  0  0  0  0  0
    9.7373    2.2544   13.6993 H   0  0  0  0  0  0  0  0  0  0  0  0
    8.0875    3.6907   13.7966 C   0  0  0  0  0  0  0  0  0  0  0  0
    7.6151    3.6064   14.7539 H   0  0  0  0  0  0  0  0  0  0  0  0
    7.6578    4.5588   12.8287 N   0  0  0  0  0  0  0  0  0  0  0  0
    7.6606    7.0827   11.3421 C   0  0  0  0  0  0  0  0  0  0  0  0
    8.2939    8.2730   11.4450 N   0  0  0  0  0  0  0  0  0  0  0  0
    8.1463    8.7706   12.7187 C   0  0  0  0  0  0  0  0  0  0  0  0
    8.5349    9.7164   13.0286 H   0  0  0  0  0  0  0  0  0  0  0  0
    7.4496    7.8671   13.4387 C   0  0  0  0  0  0  0  0  0  0  0  0
    7.1355    7.8796   14.4622 H   0  0  0  0  0  0  0  0  0  0  0  0
    7.1497    6.8386   12.5831 N   0  0  0  0  0  0  0  0  0  0  0  0
    6.6157    5.5525   12.9433 C   0  0  0  0  0  0  0  0  0  0  0  0
    5.7920    5.3000   12.2564 H   0  0  0  0  0  0  0  0  0  0  0  0
    6.2469    5.5800   13.9728 H   0  0  0  0  0  0  0  0  0  0  0  0
   10.4065    3.0614   11.1024 C   0  0  0  0  0  0  0  0  0  0  0  0
    9.9229    1.7983   10.3888 C   0  0  0  0  0  0  0  0  0  0  0  0
    9.6562    1.0268   11.1090 H   0  0  0  0  0  0  0  0  0  0  0  0
   10.7043    1.4147    9.7392 H   0  0  0  0  0  0  0  0  0  0  0  0
    9.0488    2.0372    9.7846 H   0  0  0  0  0  0  0  0  0  0  0  0
   11.6676    2.7678   11.9237 C   0  0  0  0  0  0  0  0  0  0  0  0
   11.9009    3.5996   12.5865 H   0  0  0  0  0  0  0  0  0  0  0  0
   12.5060    2.6244   11.2475 H   0  0  0  0  0  0  0  0  0  0  0  0
   11.5638    1.8621   12.5162 H   0  0  0  0  0  0  0  0  0  0  0  0
   10.7151    4.1619   10.0889 C   0  0  0  0  0  0  0  0  0  0  0  0
    9.8244    4.4104    9.5099 H   0  0  0  0  0  0  0  0  0  0  0  0
   11.4818    3.8188    9.4004 H   0  0  0  0  0  0  0  0  0  0  0  0
   11.0726    5.0553   10.5968 H   0  0  0  0  0  0  0  0  0  0  0  0
    9.0128    8.9749   10.3765 C   0  0  0  0  0  0  0  0  0  0  0  0
    8.0007    9.8057    9.5843 C   0  0  0  0  0  0  0  0  0  0  0  0
    7.2657    9.1522    9.1254 H   0  0  0  0  0  0  0  0  0  0  0  0
    8.5063   10.3692    8.8054 H   0  0  0  0  0  0  0  0  0  0  0  0
    7.4841   10.5035   10.2408 H   0  0  0  0  0  0  0  0  0  0  0  0
   10.0726    9.9020   10.9834 C   0  0  0  0  0  0  0  0  0  0  0  0
    9.6285   10.7741   11.4569 H   0  0  0  0  0  0  0  0  0  0  0  0
   10.7242   10.2554   10.1888 H   0  0  0  0  0  0  0  0  0  0  0  0
   10.6823    9.3706   11.7112 H   0  0  0  0  0  0  0  0  0  0  0  0
    9.7215    7.9601    9.4783 C   0  0  0  0  0  0  0  0  0  0  0  0
   10.5331    7.4834   10.0226 H   0  0  0  0  0  0  0  0  0  0  0  0
   10.1352    8.4654    8.6107 H   0  0  0  0  0  0  0  0  0  0  0  0
    9.0301    7.1840    9.1338 H   0  0  0  0  0  0  0  0  0  0  0  0
    6.4036    6.4281    8.5821 C   0  0  0  0  0  0  0  0  0  0  0  0
    6.7464    7.4303    8.2888 H   0  0  0  0  0  0  0  0  0  0  0  0
    6.5156    5.8110    7.6805 H   0  0  0  0  0  0  0  0  0  0  0  0
    4.8969    6.5252    8.8724 C   0  0  0  0  0  0  0  0  0  0  0  0
    4.1534    6.9155    7.5863 C   0  0  0  0  0  0  0  0  0  0  0  0
    4.3123    6.1670    6.8135 H   0  0  0  0  0  0  0  0  0  0  0  0
    4.5110    7.8734    7.2124 H   0  0  0  0  0  0  0  0  0  0  0  0
    3.0828    6.9967    7.7704 H   0  0  0  0  0  0  0  0  0  0  0  0
    4.3642    5.1722    9.3512 C   0  0  0  0  0  0  0  0  0  0  0  0
    3.3077    5.2334    9.6119 H   0  0  0  0  0  0  0  0  0  0  0  0
    4.9249    4.8323   10.2259 H   0  0  0  0  0  0  0  0  0  0  0  0
    4.4882    4.4244    8.5721 H   0  0  0  0  0  0  0  0  0  0  0  0
    4.6002    7.5929    9.9317 C   0  0  0  0  0  0  0  0  0  0  0  0
    4.9060    8.5762    9.5798 H   0  0  0  0  0  0  0  0  0  0  0  0
    5.1340    7.3817   10.8560 H   0  0  0  0  0  0  0  0  0  0  0  0
    3.5335    7.6276   10.1496 H   0  0  0  0  0  0  0  0  0  0  0  0
  1  2  1  6  0  0  0
  1 10  2  0  0  0  0
  1  3  1  0  0  0  0
  3  4  1  6  0  0  0
  3  9  1  0  0  0  0
  4  5  1  0  0  0  0
  5  6  1  0  0  0  0
  5  7  2  0  0  0  0
  7  8  1  0  0  0  0
  9 17  1  0  0  0  0
  9  7  1  0  0  0  0
 10 11  1  0  0  0  0
 10 16  1  0  0  0  0
 11 12  1  0  0  0  0
 12 13  1  0  0  0  0
 12 14  2  0  0  0  0
 14 15  1  0  0  0  0
 16 17  1  0  0  0  0
 16 14  1  0  0  0  0
 17 19  1  0  0  0  0
 18 17  1  0  0  0  0
 20 25  1  0  0  0  0
 20  4  1  0  0  0  0
 21 20  1  0  0  0  0
 21 22  1  0  0  0  0
 23 21  1  0  0  0  0
 24 21  1  0  0  0  0
 25 28  1  0  0  0  0
 25 26  1  0  0  0  0
 27 25  1  0  0  0  0
 29 32  1  0  0  0  0
 29 20  1  0  0  0  0
 30 29  1  0  0  0  0
 31 29  1  0  0  0  0
 33 38  1  0  0  0  0
 33 11  1  0  0  0  0
 34 37  1  0  0  0  0
 34 33  1  0  0  0  0
 35 34  1  0  0  0  0
 36 34  1  0  0  0  0
 38 39  1  0  0  0  0
 38 41  1  0  0  0  0
 40 38  1  0  0  0  0
 42 43  1  0  0  0  0
 42 33  1  0  0  0  0
 44 42  1  0  0  0  0
 45 42  1  0  0  0  0
 46 49  1  0  0  0  0
 46  1  1  0  0  0  0
 47 46  1  0  0  0  0
 48 46  1  0  0  0  0
 49 54  1  0  0  0  0
 49 58  1  0  0  0  0
 50 53  1  0  0  0  0
 50 49  1  0  0  0  0
 51 50  1  0  0  0  0
 52 50  1  0  0  0  0
 54 55  1  0  0  0  0
 54 56  1  0  0  0  0
 57 54  1  0  0  0  0
 58 61  1  0  0  0  0
 58 60  1  0  0  0  0
 59 58  1  0  0  0  0
M  END
$$$$
