CSD_code = BUPMIK | q = 0 | S = 0 | Stoichiometry = C34H30Br2NO8PPd | MND = 4
 OpenBabel04212202013D

 77 82  0  0  1  0  0  0  0  0999 V2000
    0.7202    4.1632    2.3438 Pd  0  0  1  0  0  0  0  0  0  0  0  0
   -1.2393    2.9323    1.5886 Br  0  0  0  0  0  0  0  0  0  0  0  0
   -0.4179    4.8793    3.9687 N   0  0  0  0  0  0  0  0  0  0  0  0
   -1.4234    5.6960    3.7190 C   0  0  0  0  0  0  0  0  0  0  0  0
   -2.4887    5.8357    4.6314 C   0  0  0  0  0  0  0  0  0  0  0  0
   -3.3013    6.5013    4.3872 H   0  0  0  0  0  0  0  0  0  0  0  0
   -2.4923    5.1052    5.7852 C   0  0  0  0  0  0  0  0  0  0  0  0
   -3.3157    5.1628    6.4817 H   0  0  0  0  0  0  0  0  0  0  0  0
   -1.3964    4.2672    6.0837 C   0  0  0  0  0  0  0  0  0  0  0  0
   -0.3461    4.2054    5.1318 C   0  0  2  0  0  3  0  0  0  0  0  0
    0.8144    3.4493    5.4243 C   0  0  0  0  0  0  0  0  0  0  0  0
    0.8816    2.7430    6.6028 C   0  0  0  0  0  0  0  0  0  0  0  0
    1.7694    2.1807    6.8488 H   0  0  0  0  0  0  0  0  0  0  0  0
   -0.1873    2.7500    7.5078 C   0  0  0  0  0  0  0  0  0  0  0  0
   -0.1101    2.1675    8.4131 H   0  0  0  0  0  0  0  0  0  0  0  0
   -1.2999    3.5078    7.2645 C   0  0  0  0  0  0  0  0  0  0  0  0
   -2.1130    3.5451    7.9740 H   0  0  0  0  0  0  0  0  0  0  0  0
   -1.3935    6.4412    2.4295 C   0  0  0  0  0  0  0  0  0  0  0  0
   -0.3698    6.7674    2.1990 H   0  0  0  0  0  0  0  0  0  0  0  0
   -2.0534    7.3040    2.4557 H   0  0  0  0  0  0  0  0  0  0  0  0
   -1.7266    5.7817    1.6183 H   0  0  0  0  0  0  0  0  0  0  0  0
    2.2861    3.4923    4.3343 P   0  0  0  0  0  4  0  0  0  0  0  0
    2.3106    1.9037    3.4491 C   0  0  0  0  0  0  0  0  0  0  0  0
    3.5098    1.4407    2.9129 C   0  0  0  0  0  0  0  0  0  0  0  0
    4.4109    2.0298    3.0242 H   0  0  0  0  0  0  0  0  0  0  0  0
    3.5417    0.2243    2.2568 C   0  0  0  0  0  0  0  0  0  0  0  0
    4.4718   -0.1344    1.8413 H   0  0  0  0  0  0  0  0  0  0  0  0
    2.3878   -0.5336    2.1416 C   0  0  0  0  0  0  0  0  0  0  0  0
    2.4224   -1.4914    1.6430 H   0  0  0  0  0  0  0  0  0  0  0  0
    1.1921   -0.0728    2.6690 C   0  0  0  0  0  0  0  0  0  0  0  0
    0.2894   -0.6557    2.5670 H   0  0  0  0  0  0  0  0  0  0  0  0
    1.1473    1.1448    3.3240 C   0  0  0  0  0  0  0  0  0  0  0  0
    0.2146    1.4967    3.7552 H   0  0  0  0  0  0  0  0  0  0  0  0
    3.7048    3.3059    5.4702 C   0  0  0  0  0  0  0  0  0  0  0  0
    4.4890    4.3683    5.9010 C   0  0  0  0  0  0  0  0  0  0  0  0
    4.2798    5.3713    5.5752 H   0  0  0  0  0  0  0  0  0  0  0  0
    5.5601    4.1430    6.7486 C   0  0  0  0  0  0  0  0  0  0  0  0
    6.1669    4.9766    7.0678 H   0  0  0  0  0  0  0  0  0  0  0  0
    5.8563    2.8628    7.1815 C   0  0  0  0  0  0  0  0  0  0  0  0
    6.6932    2.6915    7.8420 H   0  0  0  0  0  0  0  0  0  0  0  0
    5.0762    1.7981    6.7600 C   0  0  0  0  0  0  0  0  0  0  0  0
    5.3002    0.7944    7.0903 H   0  0  0  0  0  0  0  0  0  0  0  0
    4.0107    2.0152    5.9074 C   0  0  0  0  0  0  0  0  0  0  0  0
    3.4209    1.1729    5.5700 H   0  0  0  0  0  0  0  0  0  0  0  0
    2.5696    4.8127    3.1127 C   0  0  1  0  0  0  0  0  0  0  0  0
    3.5695    4.5905    2.0782 C   0  0  1  0  0  3  0  0  0  0  0  0
    3.1879    3.8543    0.9848 C   0  0  1  0  0  3  0  0  0  0  0  0
    1.7710    3.8430    0.6648 C   0  0  1  0  0  0  0  0  0  0  0  0
    2.4496    5.9977    3.9273 C   0  0  0  0  0  0  0  0  0  0  0  0
    2.0673    5.8637    5.0942 O   0  0  0  0  0  0  0  0  0  0  0  0
    2.6857    7.1613    3.3423 O   0  0  0  0  0  0  0  0  0  0  0  0
    2.5249    8.3203    4.1468 C   0  0  0  0  0  0  0  0  0  0  0  0
    2.4432    9.1578    3.4581 H   0  0  0  0  0  0  0  0  0  0  0  0
    3.3937    8.4459    4.7966 H   0  0  0  0  0  0  0  0  0  0  0  0
    1.6272    8.2331    4.7625 H   0  0  0  0  0  0  0  0  0  0  0  0
    4.8871    5.2266    2.2544 C   0  0  0  0  0  0  0  0  0  0  0  0
    5.3471    5.5406    3.3297 O   0  0  0  0  0  0  0  0  0  0  0  0
    5.4882    5.4723    1.0877 O   0  0  0  0  0  0  0  0  0  0  0  0
    6.7578    6.1004    1.1589 C   0  0  0  0  0  0  0  0  0  0  0  0
    6.6949    7.0125    1.7563 H   0  0  0  0  0  0  0  0  0  0  0  0
    7.0393    6.3320    0.1349 H   0  0  0  0  0  0  0  0  0  0  0  0
    7.4874    5.4283    1.6166 H   0  0  0  0  0  0  0  0  0  0  0  0
    4.1221    3.1634    0.0717 C   0  0  0  0  0  0  0  0  0  0  0  0
    3.8978    2.9301   -1.0889 O   0  0  0  0  0  0  0  0  0  0  0  0
    5.2455    2.7769    0.7012 O   0  0  0  0  0  0  0  0  0  0  0  0
    6.2057    2.1256   -0.1155 C   0  0  0  0  0  0  0  0  0  0  0  0
    5.7509    1.2744   -0.6271 H   0  0  0  0  0  0  0  0  0  0  0  0
    7.0005    1.7969    0.5498 H   0  0  0  0  0  0  0  0  0  0  0  0
    6.5945    2.8173   -0.8658 H   0  0  0  0  0  0  0  0  0  0  0  0
    1.2813    2.8584   -0.3287 C   0  0  0  0  0  0  0  0  0  0  0  0
    0.6659    3.1165   -1.3264 O   0  0  0  0  0  0  0  0  0  0  0  0
    1.6035    1.6104    0.0620 O   0  0  0  0  0  0  0  0  0  0  0  0
    1.1437    0.6000   -0.8231 C   0  0  0  0  0  0  0  0  0  0  0  0
    0.0516    0.5816   -0.8251 H   0  0  0  0  0  0  0  0  0  0  0  0
    1.5455   -0.3380   -0.4506 H   0  0  0  0  0  0  0  0  0  0  0  0
    1.5006    0.8041   -1.8345 H   0  0  0  0  0  0  0  0  0  0  0  0
    1.2206    5.6308   -0.0051 Br  0  0  0  0  0  0  0  0  0  0  0  0
  1  2  1  1  0  0  0
  1 45  1  0  0  0  0
  1  3  1  0  0  0  0
  3 10  1  0  0  0  0
  4  3  1  0  0  0  0
  4  5  2  0  0  0  0
  5  7  1  0  0  0  0
  6  5  1  0  0  0  0
  7  9  2  0  0  0  0
  7  8  1  0  0  0  0
  9 16  1  0  0  0  0
 10 11  1  1  0  0  0
 10  9  1  0  0  0  0
 11 12  2  0  0  0  0
 12 13  1  0  0  0  0
 12 14  1  0  0  0  0
 14 15  1  0  0  0  0
 16 14  2  0  0  0  0
 16 17  1  0  0  0  0
 18 20  1  0  0  0  0
 18  4  1  0  0  0  0
 19 18  1  0  0  0  0
 21 18  1  0  0  0  0
 22 11  1  0  0  0  0
 22 34  1  0  0  0  0
 23 22  1  0  0  0  0
 24 25  1  0  0  0  0
 24 23  2  0  0  0  0
 26 24  1  0  0  0  0
 27 26  1  0  0  0  0
 28 26  2  0  0  0  0
 28 30  1  0  0  0  0
 29 28  1  0  0  0  0
 30 32  2  0  0  0  0
 31 30  1  0  0  0  0
 32 23  1  0  0  0  0
 32 33  1  0  0  0  0
 34 35  2  0  0  0  0
 34 43  1  0  0  0  0
 35 37  1  0  0  0  0
 36 35  1  0  0  0  0
 37 38  1  0  0  0  0
 37 39  2  0  0  0  0
 39 40  1  0  0  0  0
 41 42  1  0  0  0  0
 41 39  1  0  0  0  0
 43 41  2  0  0  0  0
 44 43  1  0  0  0  0
 45 49  1  1  0  0  0
 45 22  1  0  0  0  0
 46 56  1  6  0  0  0
 46 45  1  0  0  0  0
 47 63  1  6  0  0  0
 47 46  1  0  0  0  0
 48 77  1  6  0  0  0
 48 47  1  0  0  0  0
 48  1  1  0  0  0  0
 49 50  2  0  0  0  0
 51 49  1  0  0  0  0
 51 52  1  0  0  0  0
 52 55  1  0  0  0  0
 52 54  1  0  0  0  0
 53 52  1  0  0  0  0
 56 57  2  0  0  0  0
 58 59  1  0  0  0  0
 58 56  1  0  0  0  0
 59 62  1  0  0  0  0
 59 60  1  0  0  0  0
 61 59  1  0  0  0  0
 63 65  1  0  0  0  0
 64 63  2  0  0  0  0
 66 68  1  0  0  0  0
 66 65  1  0  0  0  0
 67 66  1  0  0  0  0
 69 66  1  0  0  0  0
 70 72  1  0  0  0  0
 70 48  1  0  0  0  0
 71 70  2  0  0  0  0
 73 75  1  0  0  0  0
 73 72  1  0  0  0  0
 74 73  1  0  0  0  0
 76 73  1  0  0  0  0
M  END
$$$$
