CSD_code = BUPMOQ | q = 0 | S = 0 | Stoichiometry = C34H30I2NO8PPd | MND = 4
 OpenBabel04212202013D

 77 82  0  0  1  0  0  0  0  0999 V2000
    0.7303    4.2851    2.2771 Pd  0  0  1  0  0  0  0  0  0  0  0  0
   -1.3991    3.0143    1.4563 I   0  0  0  0  0  0  0  0  0  0  0  0
   -0.4112    5.0495    3.9197 N   0  0  0  0  0  0  0  0  0  0  0  0
   -1.3869    5.9103    3.7011 C   0  0  0  0  0  0  0  0  0  0  0  0
   -2.4644    6.0387    4.6010 C   0  0  0  0  0  0  0  0  0  0  0  0
   -3.2502    6.7418    4.3750 H   0  0  0  0  0  0  0  0  0  0  0  0
   -2.5150    5.2502    5.7138 C   0  0  0  0  0  0  0  0  0  0  0  0
   -3.3510    5.2952    6.3958 H   0  0  0  0  0  0  0  0  0  0  0  0
   -1.4491    4.3668    5.9882 C   0  0  0  0  0  0  0  0  0  0  0  0
   -0.3821    4.3210    5.0536 C   0  0  2  0  0  3  0  0  0  0  0  0
    0.7477    3.5168    5.3371 C   0  0  0  0  0  0  0  0  0  0  0  0
    0.7691    2.7514    6.4807 C   0  0  0  0  0  0  0  0  0  0  0  0
    1.6357    2.1515    6.7141 H   0  0  0  0  0  0  0  0  0  0  0  0
   -0.3182    2.7451    7.3620 C   0  0  0  0  0  0  0  0  0  0  0  0
   -0.2791    2.1163    8.2384 H   0  0  0  0  0  0  0  0  0  0  0  0
   -1.4016    3.5479    7.1313 C   0  0  0  0  0  0  0  0  0  0  0  0
   -2.2300    3.5758    7.8233 H   0  0  0  0  0  0  0  0  0  0  0  0
   -1.3199    6.7239    2.4566 C   0  0  0  0  0  0  0  0  0  0  0  0
   -0.2863    7.0352    2.2604 H   0  0  0  0  0  0  0  0  0  0  0  0
   -1.9566    7.6018    2.5235 H   0  0  0  0  0  0  0  0  0  0  0  0
   -1.6584    6.1240    1.6032 H   0  0  0  0  0  0  0  0  0  0  0  0
    2.2457    3.5534    4.2904 P   0  0  0  0  0  4  0  0  0  0  0  0
    2.2836    1.9678    3.4051 C   0  0  0  0  0  0  0  0  0  0  0  0
    3.4912    1.5063    2.8846 C   0  0  0  0  0  0  0  0  0  0  0  0
    4.3903    2.0966    3.0071 H   0  0  0  0  0  0  0  0  0  0  0  0
    3.5338    0.2882    2.2332 C   0  0  0  0  0  0  0  0  0  0  0  0
    4.4700   -0.0695    1.8306 H   0  0  0  0  0  0  0  0  0  0  0  0
    2.3833   -0.4741    2.1076 C   0  0  0  0  0  0  0  0  0  0  0  0
    2.4266   -1.4330    1.6120 H   0  0  0  0  0  0  0  0  0  0  0  0
    1.1815   -0.0173    2.6237 C   0  0  0  0  0  0  0  0  0  0  0  0
    0.2822   -0.6048    2.5174 H   0  0  0  0  0  0  0  0  0  0  0  0
    1.1267    1.2018    3.2753 C   0  0  0  0  0  0  0  0  0  0  0  0
    0.1916    1.5475    3.7046 H   0  0  0  0  0  0  0  0  0  0  0  0
    3.6404    3.3616    5.4544 C   0  0  0  0  0  0  0  0  0  0  0  0
    4.4107    4.4252    5.9084 C   0  0  0  0  0  0  0  0  0  0  0  0
    4.2034    5.4303    5.5874 H   0  0  0  0  0  0  0  0  0  0  0  0
    5.4665    4.1992    6.7747 C   0  0  0  0  0  0  0  0  0  0  0  0
    6.0618    5.0344    7.1112 H   0  0  0  0  0  0  0  0  0  0  0  0
    5.7615    2.9175    7.2036 C   0  0  0  0  0  0  0  0  0  0  0  0
    6.5865    2.7458    7.8789 H   0  0  0  0  0  0  0  0  0  0  0  0
    4.9958    1.8520    6.7586 C   0  0  0  0  0  0  0  0  0  0  0  0
    5.2193    0.8467    7.0850 H   0  0  0  0  0  0  0  0  0  0  0  0
    3.9459    2.0691    5.8871 C   0  0  0  0  0  0  0  0  0  0  0  0
    3.3703    1.2243    5.5314 H   0  0  0  0  0  0  0  0  0  0  0  0
    2.5586    4.8778    3.0849 C   0  0  1  0  0  0  0  0  0  0  0  0
    3.5948    4.6543    2.0915 C   0  0  1  0  0  3  0  0  0  0  0  0
    3.2370    3.9075    0.9932 C   0  0  1  0  0  3  0  0  0  0  0  0
    1.8343    3.8951    0.6482 C   0  0  1  0  0  0  0  0  0  0  0  0
    2.4109    6.0680    3.8931 C   0  0  0  0  0  0  0  0  0  0  0  0
    2.0325    5.9397    5.0597 O   0  0  0  0  0  0  0  0  0  0  0  0
    2.6149    7.2265    3.2876 O   0  0  0  0  0  0  0  0  0  0  0  0
    2.4403    8.3953    4.0745 C   0  0  0  0  0  0  0  0  0  0  0  0
    2.3338    9.2192    3.3729 H   0  0  0  0  0  0  0  0  0  0  0  0
    3.3150    8.5474    4.7104 H   0  0  0  0  0  0  0  0  0  0  0  0
    1.5523    8.3006    4.7034 H   0  0  0  0  0  0  0  0  0  0  0  0
    4.8876    5.3260    2.2927 C   0  0  0  0  0  0  0  0  0  0  0  0
    5.2877    5.7038    3.3723 O   0  0  0  0  0  0  0  0  0  0  0  0
    5.5380    5.5291    1.1441 O   0  0  0  0  0  0  0  0  0  0  0  0
    6.7871    6.1935    1.2421 C   0  0  0  0  0  0  0  0  0  0  0  0
    6.6776    7.1224    1.8058 H   0  0  0  0  0  0  0  0  0  0  0  0
    7.1017    6.3993    0.2222 H   0  0  0  0  0  0  0  0  0  0  0  0
    7.5158    5.5563    1.7489 H   0  0  0  0  0  0  0  0  0  0  0  0
    4.1831    3.2097    0.0991 C   0  0  0  0  0  0  0  0  0  0  0  0
    3.9644    2.9615   -1.0600 O   0  0  0  0  0  0  0  0  0  0  0  0
    5.3048    2.8391    0.7385 O   0  0  0  0  0  0  0  0  0  0  0  0
    6.2769    2.1908   -0.0665 C   0  0  0  0  0  0  0  0  0  0  0  0
    5.8296    1.3424   -0.5893 H   0  0  0  0  0  0  0  0  0  0  0  0
    7.0615    1.8586    0.6091 H   0  0  0  0  0  0  0  0  0  0  0  0
    6.6774    2.8863   -0.8070 H   0  0  0  0  0  0  0  0  0  0  0  0
    1.3727    2.9188   -0.3646 C   0  0  0  0  0  0  0  0  0  0  0  0
    0.8114    3.1953   -1.3902 O   0  0  0  0  0  0  0  0  0  0  0  0
    1.6486    1.6671    0.0316 O   0  0  0  0  0  0  0  0  0  0  0  0
    1.2231    0.6734   -0.8898 C   0  0  0  0  0  0  0  0  0  0  0  0
    0.1344    0.6930   -0.9771 H   0  0  0  0  0  0  0  0  0  0  0  0
    1.5617   -0.2781   -0.4897 H   0  0  0  0  0  0  0  0  0  0  0  0
    1.6647    0.8663   -1.8694 H   0  0  0  0  0  0  0  0  0  0  0  0
    1.2416    5.8613   -0.1402 I   0  0  0  0  0  0  0  0  0  0  0  0
  1  2  1  1  0  0  0
  1 45  1  0  0  0  0
  1  3  1  0  0  0  0
  3 10  1  0  0  0  0
  4  3  1  0  0  0  0
  4  5  2  0  0  0  0
  5  7  1  0  0  0  0
  6  5  1  0  0  0  0
  7  9  2  0  0  0  0
  7  8  1  0  0  0  0
  9 16  1  0  0  0  0
 10 11  1  1  0  0  0
 10  9  1  0  0  0  0
 11 12  2  0  0  0  0
 12 13  1  0  0  0  0
 12 14  1  0  0  0  0
 14 15  1  0  0  0  0
 16 14  2  0  0  0  0
 16 17  1  0  0  0  0
 18 20  1  0  0  0  0
 18  4  1  0  0  0  0
 19 18  1  0  0  0  0
 21 18  1  0  0  0  0
 22 11  1  0  0  0  0
 22 34  1  0  0  0  0
 23 22  1  0  0  0  0
 24 25  1  0  0  0  0
 24 23  2  0  0  0  0
 26 24  1  0  0  0  0
 27 26  1  0  0  0  0
 28 26  2  0  0  0  0
 28 30  1  0  0  0  0
 29 28  1  0  0  0  0
 30 32  2  0  0  0  0
 31 30  1  0  0  0  0
 32 23  1  0  0  0  0
 32 33  1  0  0  0  0
 34 43  2  0  0  0  0
 34 35  1  0  0  0  0
 35 37  2  0  0  0  0
 36 35  1  0  0  0  0
 37 38  1  0  0  0  0
 37 39  1  0  0  0  0
 39 40  1  0  0  0  0
 41 42  1  0  0  0  0
 41 39  2  0  0  0  0
 43 41  1  0  0  0  0
 44 43  1  0  0  0  0
 45 49  1  1  0  0  0
 45 22  1  0  0  0  0
 46 56  1  6  0  0  0
 46 45  1  0  0  0  0
 47 63  1  6  0  0  0
 47 46  1  0  0  0  0
 48 77  1  6  0  0  0
 48 47  1  0  0  0  0
 48  1  1  0  0  0  0
 49 50  2  0  0  0  0
 51 49  1  0  0  0  0
 51 52  1  0  0  0  0
 52 55  1  0  0  0  0
 52 54  1  0  0  0  0
 53 52  1  0  0  0  0
 56 57  2  0  0  0  0
 58 59  1  0  0  0  0
 58 56  1  0  0  0  0
 59 62  1  0  0  0  0
 59 60  1  0  0  0  0
 61 59  1  0  0  0  0
 63 65  1  0  0  0  0
 64 63  2  0  0  0  0
 66 68  1  0  0  0  0
 66 65  1  0  0  0  0
 67 66  1  0  0  0  0
 69 66  1  0  0  0  0
 70 72  1  0  0  0  0
 70 48  1  0  0  0  0
 71 70  2  0  0  0  0
 73 75  1  0  0  0  0
 73 72  1  0  0  0  0
 74 73  1  0  0  0  0
 76 73  1  0  0  0  0
M  END
$$$$
