CSD_code = BUQCAS | q = 1 | S = 0 | Stoichiometry = C12H27BrNPdS2(1+) | MND = 4
 OpenBabel04212202013D

 44 45  0  0  1  0  0  0  0  0999 V2000
    7.0647   14.0209   10.3012 Pd  0  0  1  0  0  0  0  0  0  0  0  0
    8.4354   14.1126   12.2090 Br  0  0  0  0  0  0  0  0  0  0  0  0
    7.0018   11.7197   10.3474 S   0  0  2  0  0  3  0  0  0  0  0  0
    6.9621   16.3165   10.1543 S   0  0  1  0  0  3  0  0  0  0  0  0
    5.7734   13.9374    8.5790 N   0  0  1  0  0  4  0  0  0  0  0  0
    6.3769   13.9089    7.7495 H   0  0  0  0  0  0  0  0  0  0  0  0
    4.9889   12.6975    8.6413 C   0  0  0  0  0  0  0  0  0  0  0  0
    4.4201   12.5385    7.7137 H   0  0  0  0  0  0  0  0  0  0  0  0
    4.2683   12.7878    9.4634 H   0  0  0  0  0  0  0  0  0  0  0  0
    5.9049   11.5053    8.8822 C   0  0  0  0  0  0  0  0  0  0  0  0
    6.5937   11.3644    8.0469 H   0  0  0  0  0  0  0  0  0  0  0  0
    5.3316   10.5894    9.0173 H   0  0  0  0  0  0  0  0  0  0  0  0
    4.9665   15.1637    8.5403 C   0  0  0  0  0  0  0  0  0  0  0  0
    4.2488   15.1290    9.3693 H   0  0  0  0  0  0  0  0  0  0  0  0
    4.3935   15.2347    7.6044 H   0  0  0  0  0  0  0  0  0  0  0  0
    5.8609   16.3882    8.6786 C   0  0  0  0  0  0  0  0  0  0  0  0
    5.2713   17.3017    8.7378 H   0  0  0  0  0  0  0  0  0  0  0  0
    6.5465   16.4710    7.8329 H   0  0  0  0  0  0  0  0  0  0  0  0
    5.8337   11.6480   11.7544 C   0  0  0  0  0  0  0  0  0  0  0  0
    6.4524   11.9119   12.6171 H   0  0  0  0  0  0  0  0  0  0  0  0
    5.0632   12.4184   11.6222 H   0  0  0  0  0  0  0  0  0  0  0  0
    5.2201   10.2659   11.9658 C   0  0  0  0  0  0  0  0  0  0  0  0
    4.6247    9.9902   11.0874 H   0  0  0  0  0  0  0  0  0  0  0  0
    6.3129    9.2230   12.1765 C   0  0  0  0  0  0  0  0  0  0  0  0
    6.9707    9.1567   11.3121 H   0  0  0  0  0  0  0  0  0  0  0  0
    5.8699    8.2448   12.3400 H   0  0  0  0  0  0  0  0  0  0  0  0
    6.9136    9.4750   13.0470 H   0  0  0  0  0  0  0  0  0  0  0  0
    4.2887   10.3270   13.1760 C   0  0  0  0  0  0  0  0  0  0  0  0
    4.8453   10.5948   14.0701 H   0  0  0  0  0  0  0  0  0  0  0  0
    3.8291    9.3565   13.3385 H   0  0  0  0  0  0  0  0  0  0  0  0
    3.4966   11.0578   13.0281 H   0  0  0  0  0  0  0  0  0  0  0  0
    5.7942   16.4850   11.5533 C   0  0  0  0  0  0  0  0  0  0  0  0
    5.0412   15.6887   11.4915 H   0  0  0  0  0  0  0  0  0  0  0  0
    6.4198   16.3114   12.4336 H   0  0  0  0  0  0  0  0  0  0  0  0
    5.1500   17.8663   11.6452 C   0  0  0  0  0  0  0  0  0  0  0  0
    4.5491   18.0517   10.7470 H   0  0  0  0  0  0  0  0  0  0  0  0
    6.2187   18.9481   11.7642 C   0  0  0  0  0  0  0  0  0  0  0  0
    6.8208   18.7887   12.6552 H   0  0  0  0  0  0  0  0  0  0  0  0
    5.7539   19.9271   11.8376 H   0  0  0  0  0  0  0  0  0  0  0  0
    6.8786   18.9504   10.8990 H   0  0  0  0  0  0  0  0  0  0  0  0
    4.2190   17.8894   12.8570 C   0  0  0  0  0  0  0  0  0  0  0  0
    3.4429   17.1318   12.7730 H   0  0  0  0  0  0  0  0  0  0  0  0
    3.7386   18.8603   12.9362 H   0  0  0  0  0  0  0  0  0  0  0  0
    4.7803   17.7110   13.7706 H   0  0  0  0  0  0  0  0  0  0  0  0
  1  3  1  0  0  0  0
  1  2  1  6  0  0  0
  3 19  1  1  0  0  0
  4  1  1  0  0  0  0
  4 32  1  1  0  0  0
  5  6  1  6  0  0  0
  5  7  1  0  0  0  0
  5  1  1  0  0  0  0
  7 10  1  0  0  0  0
  7  9  1  0  0  0  0
  8  7  1  0  0  0  0
 10 12  1  0  0  0  0
 10  3  1  0  0  0  0
 11 10  1  0  0  0  0
 13  5  1  0  0  0  0
 13 16  1  0  0  0  0
 13 14  1  0  0  0  0
 15 13  1  0  0  0  0
 16 17  1  0  0  0  0
 16  4  1  0  0  0  0
 18 16  1  0  0  0  0
 19 22  1  0  0  0  0
 19 20  1  0  0  0  0
 21 19  1  0  0  0  0
 22 24  1  0  0  0  0
 22 28  1  0  0  0  0
 23 22  1  0  0  0  0
 24 26  1  0  0  0  0
 24 27  1  0  0  0  0
 25 24  1  0  0  0  0
 28 30  1  0  0  0  0
 28 29  1  0  0  0  0
 31 28  1  0  0  0  0
 32 35  1  0  0  0  0
 32 34  1  0  0  0  0
 33 32  1  0  0  0  0
 35 37  1  0  0  0  0
 35 41  1  0  0  0  0
 36 35  1  0  0  0  0
 37 39  1  0  0  0  0
 37 38  1  0  0  0  0
 40 37  1  0  0  0  0
 41 43  1  0  0  0  0
 41 44  1  0  0  0  0
 42 41  1  0  0  0  0
M  END
$$$$
