CSD_code = BUQFEY | q = 0 | S = 0 | Stoichiometry = C26H34ClN2Ta | MND = 9
 OpenBabel04212202013D

 64 65  0  0  1  0  0  0  0  0999 V2000
    8.7062    8.0292    2.1590 Ta  0  0  0  0  0  0  0  0  0  0  0  0
    7.5300    7.7718    0.2662 Cl  0  0  0  0  0 15  0  0  0  0  0  0
    7.6468    7.2787    3.7990 N   0  0  0  0  0  0  0  0  0  0  0  0
    9.5600    9.0193    3.5463 N   0  0  0  0  0  0  0  0  0  0  0  0
    7.5367    7.7528    5.0868 C   0  0  0  0  0  0  0  0  0  0  0  0
    6.4702    7.4100    5.9187 C   0  0  0  0  0  0  0  0  0  0  0  0
    5.6347    6.8624    5.5270 H   0  0  0  0  0  0  0  0  0  0  0  0
    6.4263    7.7350    7.2716 C   0  0  0  0  0  0  0  0  0  0  0  0
    5.5746    7.4142    7.8544 H   0  0  0  0  0  0  0  0  0  0  0  0
    7.4403    8.4396    7.8543 C   0  0  0  0  0  0  0  0  0  0  0  0
    7.4262    8.6776    8.9071 H   0  0  0  0  0  0  0  0  0  0  0  0
    8.4992    8.9141    7.0560 C   0  0  0  0  0  0  0  0  0  0  0  0
    8.5461    8.6037    5.6688 C   0  0  0  0  0  0  0  0  0  0  0  0
    9.5661    9.2329    4.9005 C   0  0  0  0  0  0  0  0  0  0  0  0
   10.4966   10.0685    5.4960 C   0  0  0  0  0  0  0  0  0  0  0  0
   11.2584   10.5219    4.8807 H   0  0  0  0  0  0  0  0  0  0  0  0
   10.4707   10.3051    6.8683 C   0  0  0  0  0  0  0  0  0  0  0  0
   11.2185   10.9441    7.3148 H   0  0  0  0  0  0  0  0  0  0  0  0
    9.4886    9.7396    7.6324 C   0  0  0  0  0  0  0  0  0  0  0  0
    9.4374    9.9321    8.6940 H   0  0  0  0  0  0  0  0  0  0  0  0
    6.8030    6.1599    3.3695 C   0  0  0  0  0  0  0  0  0  0  0  0
    7.3114    5.7651    2.4784 H   0  0  0  0  0  0  0  0  0  0  0  0
    5.4125    6.6173    2.8969 C   0  0  0  0  0  0  0  0  0  0  0  0
    5.5160    7.3539    2.1002 H   0  0  0  0  0  0  0  0  0  0  0  0
    4.8302    7.0671    3.6962 H   0  0  0  0  0  0  0  0  0  0  0  0
    4.8651    5.7621    2.5059 H   0  0  0  0  0  0  0  0  0  0  0  0
    6.7202    4.9755    4.3528 C   0  0  0  0  0  0  0  0  0  0  0  0
    7.4948    5.0547    5.1097 H   0  0  0  0  0  0  0  0  0  0  0  0
    6.8651    4.0462    3.8088 H   0  0  0  0  0  0  0  0  0  0  0  0
    5.7556    4.9174    4.8495 H   0  0  0  0  0  0  0  0  0  0  0  0
    9.5435   10.0337    2.5750 C   0  0  0  0  0  3  0  0  0  0  0  0
   10.8693   10.5289    2.0141 C   0  0  0  0  0  0  0  0  0  0  0  0
   11.2263   11.3927    2.5771 H   0  0  0  0  0  0  0  0  0  0  0  0
   10.7471   10.8416    0.9767 H   0  0  0  0  0  0  0  0  0  0  0  0
   11.6236    9.7483    2.0650 H   0  0  0  0  0  0  0  0  0  0  0  0
    8.6004   11.1860    2.8955 C   0  0  0  0  0  0  0  0  0  0  0  0
    9.0464   11.8601    3.6295 H   0  0  0  0  0  0  0  0  0  0  0  0
    7.6651   10.8055    3.3096 H   0  0  0  0  0  0  0  0  0  0  0  0
    8.3851   11.7575    1.9936 H   0  0  0  0  0  0  0  0  0  0  0  0
   10.0942    5.2905    2.5553 C   0  0  0  0  0  0  0  0  0  0  0  0
    9.5883    4.3716    1.6918 C   0  0  0  0  0  0  0  0  0  0  0  0
    9.7185    4.8775    0.3317 C   0  0  0  0  0  0  0  0  0  0  0  0
   10.3105    6.0982    0.3712 C   0  0  0  0  0  0  0  0  0  0  0  0
   10.5358    6.4721    1.7848 C   0  0  2  0  0  3  0  0  0  0  0  0
   10.3186    5.1798    4.0297 C   0  0  0  0  0  0  0  0  0  0  0  0
   11.3756    4.9979    4.2326 H   0  0  0  0  0  0  0  0  0  0  0  0
    9.7514    4.3558    4.4533 H   0  0  0  0  0  0  0  0  0  0  0  0
   10.0323    6.1030    4.5333 H   0  0  0  0  0  0  0  0  0  0  0  0
    9.0096    3.0288    1.9904 C   0  0  0  0  0  0  0  0  0  0  0  0
    9.5965    2.2489    1.5044 H   0  0  0  0  0  0  0  0  0  0  0  0
    7.9898    2.9572    1.6093 H   0  0  0  0  0  0  0  0  0  0  0  0
    8.9993    2.8331    3.0593 H   0  0  0  0  0  0  0  0  0  0  0  0
    9.2559    4.1121   -0.8621 C   0  0  0  0  0  0  0  0  0  0  0  0
    9.7777    3.1573   -0.9291 H   0  0  0  0  0  0  0  0  0  0  0  0
    9.4377    4.6681   -1.7779 H   0  0  0  0  0  0  0  0  0  0  0  0
    8.1879    3.9029   -0.7896 H   0  0  0  0  0  0  0  0  0  0  0  0
   10.7277    6.9680   -0.7740 C   0  0  0  0  0  0  0  0  0  0  0  0
   11.7490    6.7307   -1.0797 H   0  0  0  0  0  0  0  0  0  0  0  0
   10.6902    8.0229   -0.4963 H   0  0  0  0  0  0  0  0  0  0  0  0
   10.0785    6.8200   -1.6346 H   0  0  0  0  0  0  0  0  0  0  0  0
   11.8969    7.0312    2.1462 C   0  0  0  0  0  0  0  0  0  0  0  0
   12.6336    6.2267    2.1025 H   0  0  0  0  0  0  0  0  0  0  0  0
   11.8983    7.4401    3.1554 H   0  0  0  0  0  0  0  0  0  0  0  0
   12.2069    7.7987    1.4399 H   0  0  0  0  0  0  0  0  0  0  0  0
  1  4  1  0  0  0  0
  1  3  1  0  0  0  0
  3  5  1  0  0  0  0
  4 14  1  0  0  0  0
  5 13  2  0  0  0  0
  5  6  1  0  0  0  0
  6  8  2  0  0  0  0
  7  6  1  0  0  0  0
  8 10  1  0  0  0  0
  8  9  1  0  0  0  0
 10 11  1  0  0  0  0
 12 19  1  0  0  0  0
 12 10  2  0  0  0  0
 13 12  1  0  0  0  0
 14 15  2  0  0  0  0
 14 13  1  0  0  0  0
 15 17  1  0  0  0  0
 16 15  1  0  0  0  0
 17 18  1  0  0  0  0
 17 19  2  0  0  0  0
 19 20  1  0  0  0  0
 21  3  1  0  0  0  0
 21 27  1  0  0  0  0
 22 21  1  0  0  0  0
 23 21  1  0  0  0  0
 23 25  1  0  0  0  0
 24 23  1  0  0  0  0
 26 23  1  0  0  0  0
 27 30  1  0  0  0  0
 27 28  1  0  0  0  0
 29 27  1  0  0  0  0
 31 36  1  0  0  0  0
 31  4  1  0  0  0  0
 32 35  1  0  0  0  0
 32 31  1  0  0  0  0
 32 33  1  0  0  0  0
 34 32  1  0  0  0  0
 36 38  1  0  0  0  0
 36 37  1  0  0  0  0
 39 36  1  0  0  0  0
 40 45  1  0  0  0  0
 41 49  1  0  0  0  0
 41 40  2  0  0  0  0
 42 43  2  0  0  0  0
 42 41  1  0  0  0  0
 43 44  1  0  0  0  0
 44 61  1  6  0  0  0
 44 40  1  0  0  0  0
 45 46  1  0  0  0  0
 45 47  1  0  0  0  0
 45 48  1  0  0  0  0
 49 52  1  0  0  0  0
 50 49  1  0  0  0  0
 51 49  1  0  0  0  0
 53 56  1  0  0  0  0
 53 42  1  0  0  0  0
 54 53  1  0  0  0  0
 55 53  1  0  0  0  0
 57 59  1  0  0  0  0
 57 43  1  0  0  0  0
 58 57  1  0  0  0  0
 60 57  1  0  0  0  0
 61 63  1  0  0  0  0
 62 61  1  0  0  0  0
 64 61  1  0  0  0  0
M  END
$$$$
