CSD_code = BUQJUT | q = -1 | S = 0 | Stoichiometry = C4H12Cl4IrO2S2(1-) | MND = 6
 OpenBabel04212202013D

 25 24  0  0  0  0  0  0  0  0999 V2000
    7.6958    0.0225   10.0626 Ir  0  0  0  0  0  0  0  0  0  0  0  0
    9.1246    1.4548   11.2193 Cl  0  0  0  0  0  0  0  0  0  0  0  0
    8.1834   -1.6838   11.5784 Cl  0  0  0  0  0  0  0  0  0  0  0  0
    6.2677   -1.4116    8.9072 Cl  0  0  0  0  0  0  0  0  0  0  0  0
    7.2112    1.7306    8.5490 Cl  0  0  0  0  0  0  0  0  0  0  0  0
    9.4894   -0.8367    8.9070 S   0  0  0  0  0  0  0  0  0  0  0  0
    5.9011    0.8810   11.2175 S   0  0  0  0  0  0  0  0  0  0  0  0
    9.9024   -0.2397    7.6509 O   0  0  0  0  0  1  0  0  0  0  0  0
    5.4827    0.2810   12.4704 O   0  0  0  0  0  1  0  0  0  0  0  0
   10.9758   -0.9229    9.9483 C   0  0  0  0  0  0  0  0  0  0  0  0
   11.7628   -1.4001    9.3762 H   0  0  0  0  0  0  0  0  0  0  0  0
   10.7081   -1.4796   10.8385 H   0  0  0  0  0  0  0  0  0  0  0  0
   11.2471    0.0938   10.2117 H   0  0  0  0  0  0  0  0  0  0  0  0
    9.2905   -2.6147    8.5899 C   0  0  0  0  0  0  0  0  0  0  0  0
    8.4429   -2.7329    7.9237 H   0  0  0  0  0  0  0  0  0  0  0  0
    9.0842   -3.0861    9.5436 H   0  0  0  0  0  0  0  0  0  0  0  0
   10.2011   -2.9808    8.1304 H   0  0  0  0  0  0  0  0  0  0  0  0
    6.1026    2.6577   11.5406 C   0  0  0  0  0  0  0  0  0  0  0  0
    5.1946    3.0223   12.0064 H   0  0  0  0  0  0  0  0  0  0  0  0
    6.3044    3.1326   10.5878 H   0  0  0  0  0  0  0  0  0  0  0  0
    6.9538    2.7731   12.2029 H   0  0  0  0  0  0  0  0  0  0  0  0
    4.4184    0.9737   10.1714 C   0  0  0  0  0  0  0  0  0  0  0  0
    4.1451   -0.0415    9.9048 H   0  0  0  0  0  0  0  0  0  0  0  0
    4.6911    1.5317    9.2834 H   0  0  0  0  0  0  0  0  0  0  0  0
    3.6310    1.4521   10.7418 H   0  0  0  0  0  0  0  0  0  0  0  0
  1  7  1  0  0  0  0
  1  2  1  0  0  0  0
  1  3  1  0  0  0  0
  4  1  1  0  0  0  0
  5  1  1  0  0  0  0
  6 10  1  0  0  0  0
  6  1  1  0  0  0  0
  7 18  1  0  0  0  0
  7  9  1  0  0  0  0
  8  6  1  0  0  0  0
 10 13  1  0  0  0  0
 10 12  1  0  0  0  0
 11 10  1  0  0  0  0
 14  6  1  0  0  0  0
 14 16  1  0  0  0  0
 15 14  1  0  0  0  0
 17 14  1  0  0  0  0
 18 19  1  0  0  0  0
 18 21  1  0  0  0  0
 20 18  1  0  0  0  0
 22 25  1  0  0  0  0
 22  7  1  0  0  0  0
 23 22  1  0  0  0  0
 24 22  1  0  0  0  0
M  END
$$$$
