CSD_code = BURYEU | q = 0 | S = 0 | Stoichiometry = C13H28ClCuN4S | MND = 3
 OpenBabel04212202013D

 48 49  0  0  1  0  0  0  0  0999 V2000
    7.8252    8.8558    4.1441 Cu  0  0  0  0  0  0  0  0  0  0  0  0
    9.9479    8.4473    4.1355 Cl  0  0  0  0  0  0  0  0  0  0  0  0
    9.2982    8.1110    8.8186 S   0  0  0  0  0  0  0  0  0  0  0  0
    6.0365    9.0221    3.2187 N   0  0  2  0  0  0  0  0  0  0  0  0
    4.9140    9.6757    1.1785 N   0  0  0  0  0  0  0  0  0  0  0  0
    6.6122    8.2182    1.1198 N   0  0  0  0  0  0  0  0  0  0  0  0
    6.7649    9.4133    5.9150 N   0  0  0  0  0  4  0  0  0  0  0  0
    6.9001   10.4178    6.0183 H   0  0  0  0  0  0  0  0  0  0  0  0
    5.8650    9.0072    1.9393 C   0  0  0  0  0  3  0  0  0  0  0  0
    4.4926   11.0370    1.4332 C   0  0  0  0  0  0  0  0  0  0  0  0
    3.9861   11.1230    2.3891 H   0  0  0  0  0  0  0  0  0  0  0  0
    3.7858   11.3150    0.6521 H   0  0  0  0  0  0  0  0  0  0  0  0
    5.3347   11.7388    1.4083 H   0  0  0  0  0  0  0  0  0  0  0  0
    5.1539    9.3964   -0.2322 C   0  0  0  0  0  0  0  0  0  0  0  0
    5.6679   10.2427   -0.7071 H   0  0  0  0  0  0  0  0  0  0  0  0
    4.2046    9.2296   -0.7465 H   0  0  0  0  0  0  0  0  0  0  0  0
    6.0450    8.1606   -0.2077 C   0  0  0  0  0  0  0  0  0  0  0  0
    5.4629    7.2378   -0.3419 H   0  0  0  0  0  0  0  0  0  0  0  0
    6.8327    8.1880   -0.9646 H   0  0  0  0  0  0  0  0  0  0  0  0
    7.4492    7.1371    1.5598 C   0  0  0  0  0  0  0  0  0  0  0  0
    8.0041    7.4553    2.4495 H   0  0  0  0  0  0  0  0  0  0  0  0
    8.1578    6.9012    0.7678 H   0  0  0  0  0  0  0  0  0  0  0  0
    6.8679    6.2432    1.8067 H   0  0  0  0  0  0  0  0  0  0  0  0
    5.1276    9.6770    4.1308 C   0  0  0  0  0  0  0  0  0  0  0  0
    4.0856    9.4711    3.8593 H   0  0  0  0  0  0  0  0  0  0  0  0
    5.2873   10.7649    4.1443 H   0  0  0  0  0  0  0  0  0  0  0  0
    5.3859    9.1403    5.5420 C   0  0  0  0  0  0  0  0  0  0  0  0
    4.6650    9.5837    6.2449 H   0  0  0  0  0  0  0  0  0  0  0  0
    5.2500    8.0562    5.5396 H   0  0  0  0  0  0  0  0  0  0  0  0
    7.2069    8.7476    7.1361 C   0  0  0  0  0  0  0  0  0  0  0  0
    7.1081    7.6700    6.9850 H   0  0  0  0  0  0  0  0  0  0  0  0
    6.5838    9.0296    7.9989 H   0  0  0  0  0  0  0  0  0  0  0  0
    8.6626    9.0890    7.4218 C   0  0  0  0  0  0  0  0  0  0  0  0
    8.7661   10.1369    7.7069 H   0  0  0  0  0  0  0  0  0  0  0  0
    9.2817    8.8938    6.5472 H   0  0  0  0  0  0  0  0  0  0  0  0
   10.3508    6.7999    8.0184 C   0  0  0  0  0  0  0  0  0  0  0  0
   10.7852    5.9164    9.1848 C   0  0  0  0  0  0  0  0  0  0  0  0
   11.4207    5.1099    8.8240 H   0  0  0  0  0  0  0  0  0  0  0  0
    9.9181    5.4852    9.6806 H   0  0  0  0  0  0  0  0  0  0  0  0
   11.3410    6.5002    9.9150 H   0  0  0  0  0  0  0  0  0  0  0  0
   11.5565    7.4456    7.3528 C   0  0  0  0  0  0  0  0  0  0  0  0
   12.2652    6.6730    7.0595 H   0  0  0  0  0  0  0  0  0  0  0  0
   12.0521    8.1293    8.0389 H   0  0  0  0  0  0  0  0  0  0  0  0
   11.2715    7.9861    6.4532 H   0  0  0  0  0  0  0  0  0  0  0  0
    9.5297    6.0042    7.0154 C   0  0  0  0  0  0  0  0  0  0  0  0
   10.1099    5.1475    6.6760 H   0  0  0  0  0  0  0  0  0  0  0  0
    9.2912    6.6059    6.1414 H   0  0  0  0  0  0  0  0  0  0  0  0
    8.6102    5.6394    7.4706 H   0  0  0  0  0  0  0  0  0  0  0  0
  1  7  1  0  0  0  0
  2  1  1  0  0  0  0
  4  9  1  6  0  0  0
  4 24  1  0  0  0  0
  4  1  1  0  0  0  0
  5 10  1  0  0  0  0
  5  9  1  0  0  0  0
  6 20  1  0  0  0  0
  6  9  1  0  0  0  0
  7  8  1  0  0  0  0
  7 30  1  0  0  0  0
 10 11  1  0  0  0  0
 12 10  1  0  0  0  0
 13 10  1  0  0  0  0
 14 17  1  0  0  0  0
 14  5  1  0  0  0  0
 15 14  1  0  0  0  0
 16 14  1  0  0  0  0
 17  6  1  0  0  0  0
 18 17  1  0  0  0  0
 19 17  1  0  0  0  0
 20 23  1  0  0  0  0
 20 21  1  0  0  0  0
 22 20  1  0  0  0  0
 24 26  1  0  0  0  0
 24 27  1  0  0  0  0
 25 24  1  0  0  0  0
 27  7  1  0  0  0  0
 27 28  1  0  0  0  0
 29 27  1  0  0  0  0
 30 33  1  0  0  0  0
 30 32  1  0  0  0  0
 31 30  1  0  0  0  0
 33 34  1  0  0  0  0
 33  3  1  0  0  0  0
 35 33  1  0  0  0  0
 36  3  1  0  0  0  0
 36 37  1  0  0  0  0
 37 39  1  0  0  0  0
 37 40  1  0  0  0  0
 38 37  1  0  0  0  0
 41 36  1  0  0  0  0
 41 43  1  0  0  0  0
 42 41  1  0  0  0  0
 44 41  1  0  0  0  0
 45 48  1  0  0  0  0
 45 36  1  0  0  0  0
 46 45  1  0  0  0  0
 47 45  1  0  0  0  0
M  END
$$$$
