CSD_code = BUSHEC | q = 0 | S = 0 | Stoichiometry = C19H36ClPPd | MND = 7
 OpenBabel04212202013D

 58 56  0  0  1  0  0  0  0  0999 V2000
    0.8737    0.1175    2.2543 Pd  0  0  0  0  0  0  0  0  0  0  0  0
   -0.8650   -1.0929    3.1366 Cl  0  0  0  0  0 15  0  0  0  0  0  0
    1.1246    1.2933    4.1583 P   0  0  0  0  0  0  0  0  0  0  0  0
    2.1490   -0.6636    0.6432 C   0  0  2  0  0  3  0  0  0  0  0  0
    2.3007    0.7496    0.6853 C   0  0  2  0  0  3  0  0  0  0  0  0
    1.1180    1.3466    0.0267 C   0  0  0  0  0  0  0  0  0  0  0  0
    0.2044    0.3414   -0.1764 C   0  0  0  0  0  0  0  0  0  0  0  0
    0.7904   -0.9105    0.3282 C   0  0  2  0  0  0  0  0  0  0  0  0
    3.1871   -1.6998    0.9758 C   0  0  0  0  0  0  0  0  0  0  0  0
    3.6183    1.4591    0.7991 C   0  0  0  0  0  0  0  0  0  0  0  0
    1.0040    2.7663   -0.4421 C   0  0  0  0  0  0  0  0  0  0  0  0
   -1.1374    0.4271   -0.8313 C   0  0  0  0  0  0  0  0  0  0  0  0
    0.1748   -2.2533    0.0741 C   0  0  0  0  0  0  0  0  0  0  0  0
   -0.5498    1.9088    4.6916 C   0  0  0  0  0  0  0  0  0  0  0  0
    1.7743    0.1820    5.5091 C   0  0  0  0  0  0  0  0  0  0  0  0
    2.3682    2.6962    4.1243 C   0  0  0  0  0  0  0  0  0  0  0  0
   -1.2860    2.4629    3.4687 C   0  0  0  0  0  0  0  0  0  0  0  0
   -0.5979    2.8647    5.8766 C   0  0  0  0  0  0  0  0  0  0  0  0
    0.6840   -0.6378    6.1895 C   0  0  0  0  0  0  0  0  0  0  0  0
    2.7730   -0.7424    4.8073 C   0  0  0  0  0  0  0  0  0  0  0  0
    2.8171    3.3035    5.4497 C   0  0  0  0  0  0  0  0  0  0  0  0
    1.8479    3.7728    3.1747 C   0  0  0  0  0  0  0  0  0  0  0  0
    3.9890   -1.2797    1.5823 H   0  0  0  0  0  0  0  0  0  0  0  0
    3.6284   -2.0862    0.0535 H   0  0  0  0  0  0  0  0  0  0  0  0
    2.7494   -2.5419    1.5154 H   0  0  0  0  0  0  0  0  0  0  0  0
    3.4964    2.4835    1.1437 H   0  0  0  0  0  0  0  0  0  0  0  0
    4.2869    0.9423    1.4859 H   0  0  0  0  0  0  0  0  0  0  0  0
    4.0993    1.4887   -0.1817 H   0  0  0  0  0  0  0  0  0  0  0  0
    1.0259    2.7934   -1.5333 H   0  0  0  0  0  0  0  0  0  0  0  0
    1.8295    3.3715   -0.0765 H   0  0  0  0  0  0  0  0  0  0  0  0
    0.0679    3.2214   -0.1166 H   0  0  0  0  0  0  0  0  0  0  0  0
   -1.1354   -0.1354   -1.7669 H   0  0  0  0  0  0  0  0  0  0  0  0
   -1.3958    1.4611   -1.0474 H   0  0  0  0  0  0  0  0  0  0  0  0
   -1.9080    0.0016   -0.1875 H   0  0  0  0  0  0  0  0  0  0  0  0
    0.6468   -3.0256    0.6802 H   0  0  0  0  0  0  0  0  0  0  0  0
    0.2940   -2.5189   -0.9794 H   0  0  0  0  0  0  0  0  0  0  0  0
   -0.8896   -2.2418    0.3045 H   0  0  0  0  0  0  0  0  0  0  0  0
   -1.0510    0.9708    4.9632 H   0  0  0  0  0  0  0  0  0  0  0  0
    2.2935    0.7844    6.2621 H   0  0  0  0  0  0  0  0  0  0  0  0
    3.2452    2.2268    3.6560 H   0  0  0  0  0  0  0  0  0  0  0  0
   -1.1120    1.8075    2.5995 H   0  0  0  0  0  0  0  0  0  0  0  0
   -0.9594    3.4702    3.2215 H   0  0  0  0  0  0  0  0  0  0  0  0
   -2.3571    2.4891    3.6603 H   0  0  0  0  0  0  0  0  0  0  0  0
   -0.2328    3.8519    5.6025 H   0  0  0  0  0  0  0  0  0  0  0  0
   -0.0082    2.4878    6.7096 H   0  0  0  0  0  0  0  0  0  0  0  0
   -1.6280    2.9746    6.2130 H   0  0  0  0  0  0  0  0  0  0  0  0
    0.0802   -1.1536    5.4445 H   0  0  0  0  0  0  0  0  0  0  0  0
    1.1407   -1.3828    6.8394 H   0  0  0  0  0  0  0  0  0  0  0  0
    0.0358   -0.0118    6.7978 H   0  0  0  0  0  0  0  0  0  0  0  0
    3.5739   -0.1674    4.3386 H   0  0  0  0  0  0  0  0  0  0  0  0
    2.2436   -1.3153    4.0294 H   0  0  0  0  0  0  0  0  0  0  0  0
    3.2178   -1.4435    5.5115 H   0  0  0  0  0  0  0  0  0  0  0  0
    3.3409    2.5795    6.0683 H   0  0  0  0  0  0  0  0  0  0  0  0
    3.5084    4.1207    5.2449 H   0  0  0  0  0  0  0  0  0  0  0  0
    1.9819    3.7043    6.0144 H   0  0  0  0  0  0  0  0  0  0  0  0
    1.1194    4.4067    3.6745 H   0  0  0  0  0  0  0  0  0  0  0  0
    1.3720    3.3063    2.3104 H   0  0  0  0  0  0  0  0  0  0  0  0
    2.6615    4.4097    2.8286 H   0  0  0  0  0  0  0  0  0  0  0  0
  3 14  1  0  0  0  0
  3 15  1  0  0  0  0
  4  5  1  0  0  0  0
  4  9  1  1  0  0  0
  5 10  1  6  0  0  0
  6  5  1  0  0  0  0
  7  6  2  0  0  0  0
  7  8  1  0  0  0  0
  8  4  1  0  0  0  0
  8  1  1  1  0  0  0
  9 25  1  0  0  0  0
  9 23  1  0  0  0  0
 10 26  1  0  0  0  0
 10 27  1  0  0  0  0
 11 31  1  0  0  0  0
 11 30  1  0  0  0  0
 11  6  1  0  0  0  0
 12 34  1  0  0  0  0
 12  7  1  0  0  0  0
 13 37  1  0  0  0  0
 13  8  1  0  0  0  0
 13 35  1  0  0  0  0
 14 38  1  0  0  0  0
 14 18  1  0  0  0  0
 15 19  1  0  0  0  0
 15 39  1  0  0  0  0
 16  3  1  0  0  0  0
 16 21  1  0  0  0  0
 17 43  1  0  0  0  0
 17 14  1  0  0  0  0
 18 46  1  0  0  0  0
 18 45  1  0  0  0  0
 19 49  1  0  0  0  0
 19 48  1  0  0  0  0
 20 15  1  0  0  0  0
 20 52  1  0  0  0  0
 21 55  1  0  0  0  0
 21 53  1  0  0  0  0
 22 56  1  0  0  0  0
 22 16  1  0  0  0  0
 24  9  1  0  0  0  0
 28 10  1  0  0  0  0
 29 11  1  0  0  0  0
 32 12  1  0  0  0  0
 33 12  1  0  0  0  0
 36 13  1  0  0  0  0
 40 16  1  0  0  0  0
 41 17  1  0  0  0  0
 42 17  1  0  0  0  0
 44 18  1  0  0  0  0
 47 19  1  0  0  0  0
 50 20  1  0  0  0  0
 51 20  1  0  0  0  0
 54 21  1  0  0  0  0
 57 22  1  0  0  0  0
 58 22  1  0  0  0  0
M  END
$$$$
