CSD_code = BUSMIM | q = 0 | S = 0 | Stoichiometry = C14H24Cl2N4O2Zn | MND = 4
 OpenBabel04212202013D

 47 48  0  0  1  0  0  0  0  0999 V2000
   -0.0000    3.6197    0.0271 Zn  0  0  0  0  0  0  0  0  0  0  0  0
    0.7440    1.8378    1.1216 Cl  0  0  0  0  0  0  0  0  0  0  0  0
   -4.3495    1.0125    1.1536 O   0  0  0  0  0  0  0  0  0  0  0  0
   -4.4389    0.0565    1.2349 H   0  0  0  0  0  0  0  0  0  0  0  0
   -2.4541    2.0629   -1.1223 N   0  0  0  0  0  0  0  0  0  0  0  0
   -1.6099    3.1039   -1.2004 N   0  0  0  0  0  0  0  0  0  0  0  0
   -2.0912    3.9339   -2.1232 C   0  0  1  0  0  3  0  0  0  0  0  0
   -3.2711    3.4042   -2.6482 C   0  0  0  0  0  0  0  0  0  0  0  0
   -3.8925    3.8357   -3.4055 H   0  0  0  0  0  0  0  0  0  0  0  0
   -3.4810    2.2126   -1.9785 C   0  0  0  0  0  0  0  0  0  0  0  0
   -1.4174    5.2099   -2.4667 C   0  0  0  0  0  0  0  0  0  0  0  0
   -1.2810    5.8024   -1.5637 H   0  0  0  0  0  0  0  0  0  0  0  0
   -2.0203    5.7697   -3.1760 H   0  0  0  0  0  0  0  0  0  0  0  0
   -0.4370    5.0224   -2.9021 H   0  0  0  0  0  0  0  0  0  0  0  0
   -4.5884    1.2333   -2.0990 C   0  0  0  0  0  0  0  0  0  0  0  0
   -4.2109    0.2506   -2.3821 H   0  0  0  0  0  0  0  0  0  0  0  0
   -5.2904    1.5683   -2.8568 H   0  0  0  0  0  0  0  0  0  0  0  0
   -5.1096    1.1446   -1.1470 H   0  0  0  0  0  0  0  0  0  0  0  0
   -2.2613    1.0265   -0.1444 C   0  0  0  0  0  0  0  0  0  0  0  0
   -1.1904    0.9459    0.0560 H   0  0  0  0  0  0  0  0  0  0  0  0
   -2.6293    0.0816   -0.5524 H   0  0  0  0  0  0  0  0  0  0  0  0
   -2.9823    1.3491    1.1778 C   0  0  0  0  0  0  0  0  0  0  0  0
   -2.4644    0.8387    1.9963 H   0  0  0  0  0  0  0  0  0  0  0  0
   -2.9358    2.4256    1.3613 H   0  0  0  0  0  0  0  0  0  0  0  0
   -0.7432    5.4021    1.1212 Cl  0  0  0  0  0  0  0  0  0  0  0  0
    4.3495    6.2269    1.1536 O   0  0  0  0  0  0  0  0  0  0  0  0
    4.4390    7.1828    1.2349 H   0  0  0  0  0  0  0  0  0  0  0  0
    2.4541    5.1766   -1.1222 N   0  0  0  0  0  0  0  0  0  0  0  0
    1.6099    4.1355   -1.2003 N   0  0  0  0  0  0  0  0  0  0  0  0
    2.0912    3.3056   -2.1232 C   0  0  1  0  0  3  0  0  0  0  0  0
    3.2711    3.8353   -2.6481 C   0  0  0  0  0  0  0  0  0  0  0  0
    3.8925    3.4038   -3.4055 H   0  0  0  0  0  0  0  0  0  0  0  0
    3.4810    5.0269   -1.9785 C   0  0  0  0  0  0  0  0  0  0  0  0
    1.4174    2.0296   -2.4667 C   0  0  0  0  0  0  0  0  0  0  0  0
    1.2809    1.4371   -1.5637 H   0  0  0  0  0  0  0  0  0  0  0  0
    2.0203    1.4698   -3.1760 H   0  0  0  0  0  0  0  0  0  0  0  0
    0.4370    2.2171   -2.9022 H   0  0  0  0  0  0  0  0  0  0  0  0
    4.5883    6.0062   -2.0990 C   0  0  0  0  0  0  0  0  0  0  0  0
    4.2108    6.9890   -2.3823 H   0  0  0  0  0  0  0  0  0  0  0  0
    5.2903    5.6711   -2.8567 H   0  0  0  0  0  0  0  0  0  0  0  0
    5.1095    6.0950   -1.1470 H   0  0  0  0  0  0  0  0  0  0  0  0
    2.2611    6.2129   -0.1443 C   0  0  0  0  0  0  0  0  0  0  0  0
    1.1903    6.2935    0.0561 H   0  0  0  0  0  0  0  0  0  0  0  0
    2.6291    7.1578   -0.5524 H   0  0  0  0  0  0  0  0  0  0  0  0
    2.9823    5.8905    1.1779 C   0  0  0  0  0  0  0  0  0  0  0  0
    2.4645    6.4009    1.9964 H   0  0  0  0  0  0  0  0  0  0  0  0
    2.9357    4.8140    1.3614 H   0  0  0  0  0  0  0  0  0  0  0  0
  1 25  1  0  0  0  0
  1  2  1  0  0  0  0
  3 22  1  0  0  0  0
  3  4  1  0  0  0  0
  5 19  1  0  0  0  0
  6  5  1  0  0  0  0
  6  1  1  0  0  0  0
  7 11  1  1  0  0  0
  7  6  1  0  0  0  0
  8  7  1  0  0  0  0
  8 10  2  0  0  0  0
  9  8  1  0  0  0  0
 10  5  1  0  0  0  0
 11 12  1  0  0  0  0
 13 11  1  0  0  0  0
 14 11  1  0  0  0  0
 15 10  1  0  0  0  0
 15 18  1  0  0  0  0
 16 15  1  0  0  0  0
 17 15  1  0  0  0  0
 19 20  1  0  0  0  0
 19 22  1  0  0  0  0
 21 19  1  0  0  0  0
 22 24  1  0  0  0  0
 22 23  1  0  0  0  0
 26 45  1  0  0  0  0
 26 27  1  0  0  0  0
 28 42  1  0  0  0  0
 29 28  1  0  0  0  0
 29  1  1  0  0  0  0
 30 34  1  1  0  0  0
 30 29  1  0  0  0  0
 31 30  1  0  0  0  0
 31 33  2  0  0  0  0
 32 31  1  0  0  0  0
 33 28  1  0  0  0  0
 34 35  1  0  0  0  0
 36 34  1  0  0  0  0
 37 34  1  0  0  0  0
 38 33  1  0  0  0  0
 38 41  1  0  0  0  0
 39 38  1  0  0  0  0
 40 38  1  0  0  0  0
 42 43  1  0  0  0  0
 42 45  1  0  0  0  0
 44 42  1  0  0  0  0
 45 47  1  0  0  0  0
 45 46  1  0  0  0  0
M  END
$$$$
