CSD_code = BUSWOB | q = 0 | S = 0 | Stoichiometry = C12H12ClN7O4Pt | MND = 6
 OpenBabel04212202013D

 37 40  0  0  0  0  0  0  0  0999 V2000
    2.3946   -1.7826    1.3626 Cl  0  0  0  0  0  0  0  0  0  0  0  0
    2.0521   -0.6112    4.3524 N   0  0  0  0  0  0  0  0  0  0  0  0
    0.8855   -1.4446    4.4796 C   0  0  0  0  0  0  0  0  0  0  0  0
   -0.2804   -0.6160    3.9390 C   0  0  0  0  0  0  0  0  0  0  0  0
    0.2023    0.0848    2.7524 N   0  0  0  0  0  0  0  0  0  0  0  0
    2.7385   -0.2367    5.3118 N   0  0  0  0  0  0  0  0  0  0  0  0
   -0.5281    0.4980    1.8132 N   0  0  0  0  0  0  0  0  0  0  0  0
   -1.7599    0.3483    1.8187 O   0  0  0  0  0  0  0  0  0  0  0  0
    3.6242    0.6045    5.1444 O   0  0  0  0  0  0  0  0  0  0  0  0
    4.2140    0.5379    2.1352 N   0  0  0  0  0  0  0  0  0  0  0  0
    4.5808    1.3396    1.1237 C   0  0  0  0  0  0  0  0  0  0  0  0
    5.9251    1.4892    0.7884 C   0  0  0  0  0  0  0  0  0  0  0  0
    6.8871    0.8008    1.5055 C   0  0  0  0  0  0  0  0  0  0  0  0
    6.4818   -0.0542    2.5172 C   0  0  0  0  0  0  0  0  0  0  0  0
    5.1289   -0.1595    2.7926 C   0  0  0  0  0  0  0  0  0  0  0  0
    2.2655    1.4832    0.5708 N   0  0  0  0  0  0  0  0  0  0  0  0
    3.4969    1.9676    0.3540 C   0  0  0  0  0  0  0  0  0  0  0  0
    3.7049    2.9744   -0.5867 C   0  0  0  0  0  0  0  0  0  0  0  0
    2.6311    3.4463   -1.3218 C   0  0  0  0  0  0  0  0  0  0  0  0
    1.3765    2.8960   -1.1123 C   0  0  0  0  0  0  0  0  0  0  0  0
    1.2381    1.9204   -0.1376 C   0  0  0  0  0  0  0  0  0  0  0  0
    2.0629    2.0999    3.4084 N   0  0  0  0  0  0  0  0  0  0  0  0
    1.2639    2.2327    4.2964 O   0  0  0  0  0  0  0  0  0  0  0  0
    2.7873    2.9533    2.9489 O   0  0  0  0  0  0  0  0  0  0  0  0
    2.1618    0.3578    2.4875 Pt  0  0  0  0  0  0  0  0  0  0  0  0
    1.0326   -2.3350    3.8582 H   0  0  0  0  0  0  0  0  0  0  0  0
    0.7389   -1.7294    5.5232 H   0  0  0  0  0  0  0  0  0  0  0  0
   -0.6024    0.1310    4.6744 H   0  0  0  0  0  0  0  0  0  0  0  0
   -1.1412   -1.2258    3.6431 H   0  0  0  0  0  0  0  0  0  0  0  0
    6.2149    2.1235   -0.0326 H   0  0  0  0  0  0  0  0  0  0  0  0
    7.9326    0.9165    1.2645 H   0  0  0  0  0  0  0  0  0  0  0  0
    7.1932   -0.6300    3.0856 H   0  0  0  0  0  0  0  0  0  0  0  0
    4.7787   -0.8273    3.5663 H   0  0  0  0  0  0  0  0  0  0  0  0
    4.6846    3.3987   -0.7286 H   0  0  0  0  0  0  0  0  0  0  0  0
    2.7743    4.2318   -2.0481 H   0  0  0  0  0  0  0  0  0  0  0  0
    0.5174    3.2227   -1.6746 H   0  0  0  0  0  0  0  0  0  0  0  0
    0.2801    1.4720    0.1033 H   0  0  0  0  0  0  0  0  0  0  0  0
  1 25  1  0  0  0  0
  2  3  1  0  0  0  0
  2  6  1  0  0  0  0
  3 27  1  0  0  0  0
  4  3  1  0  0  0  0
  4 28  1  0  0  0  0
  5  4  1  0  0  0  0
  7  8  2  0  0  0  0
  7  5  1  0  0  0  0
  9  6  2  0  0  0  0
 10 25  1  0  0  0  0
 10 15  1  0  0  0  0
 11 10  1  0  0  0  0
 12 11  1  0  0  0  0
 12 13  2  0  0  0  0
 13 14  1  0  0  0  0
 14 15  2  0  0  0  0
 14 32  1  0  0  0  0
 15 33  1  0  0  0  0
 16 25  1  0  0  0  0
 17 16  1  0  0  0  0
 17 11  2  0  0  0  0
 18 17  1  0  0  0  0
 19 20  1  0  0  0  0
 19 18  2  0  0  0  0
 20 21  2  0  0  0  0
 21 37  1  0  0  0  0
 21 16  1  0  0  0  0
 22 23  2  0  0  0  0
 24 22  2  0  0  0  0
 25  5  1  0  0  0  0
 25 22  1  0  0  0  0
 25  2  1  0  0  0  0
 26  3  1  0  0  0  0
 29  4  1  0  0  0  0
 30 12  1  0  0  0  0
 31 13  1  0  0  0  0
 34 18  1  0  0  0  0
 35 19  1  0  0  0  0
 36 20  1  0  0  0  0
M  END
$$$$
