CSD_code = BUTWUK | q = 0 | S = 0 | Stoichiometry = C14H26ClNNiOP2 | MND = 4
 OpenBabel04212202013D

 46 46  0  0  0  0  0  0  0  0999 V2000
    3.1845    4.1885    2.2206 Ni  0  0  0  0  0  0  0  0  0  0  0  0
    3.4004    2.0711    2.3722 Cl  0  0  0  0  0  0  0  0  0  0  0  0
    5.1682    4.2911    1.3802 P   0  0  0  0  0  4  0  0  0  0  0  0
    1.1615    3.9946    2.9430 P   0  0  0  0  0  4  0  0  0  0  0  0
    4.5661    6.9788    6.2434 O   0  0  0  0  0  0  0  0  0  0  0  0
    3.9496    5.6887    4.4695 N   0  0  0  0  0  0  0  0  0  0  0  0
    6.4801    3.5588    2.4284 C   0  0  0  0  0  0  0  0  0  0  0  0
    7.4105    3.5016    1.8651 H   0  0  0  0  0  0  0  0  0  0  0  0
    6.1752    2.5614    2.7400 H   0  0  0  0  0  0  0  0  0  0  0  0
    6.6306    4.1820    3.3090 H   0  0  0  0  0  0  0  0  0  0  0  0
    5.9592    5.8757    0.9035 C   0  0  0  0  0  0  0  0  0  0  0  0
    6.9535    5.6927    0.4988 H   0  0  0  0  0  0  0  0  0  0  0  0
    6.0333    6.5236    1.7748 H   0  0  0  0  0  0  0  0  0  0  0  0
    5.3483    6.3788    0.1571 H   0  0  0  0  0  0  0  0  0  0  0  0
    5.3409    3.3260   -0.1641 C   0  0  0  0  0  0  0  0  0  0  0  0
    4.6817    3.7426   -0.9244 H   0  0  0  0  0  0  0  0  0  0  0  0
    5.0487    2.2955    0.0291 H   0  0  0  0  0  0  0  0  0  0  0  0
    6.3719    3.3625   -0.5146 H   0  0  0  0  0  0  0  0  0  0  0  0
    1.0110    3.1733    4.5737 C   0  0  0  0  0  0  0  0  0  0  0  0
   -0.0366    2.9590    4.7807 H   0  0  0  0  0  0  0  0  0  0  0  0
    1.4041    3.8289    5.3494 H   0  0  0  0  0  0  0  0  0  0  0  0
    1.5809    2.2460    4.5611 H   0  0  0  0  0  0  0  0  0  0  0  0
    0.1191    2.9209    1.8914 C   0  0  0  0  0  0  0  0  0  0  0  0
    0.5949    1.9461    1.8018 H   0  0  0  0  0  0  0  0  0  0  0  0
    0.0303    3.3624    0.8999 H   0  0  0  0  0  0  0  0  0  0  0  0
   -0.8708    2.8138    2.3339 H   0  0  0  0  0  0  0  0  0  0  0  0
    0.0608    5.4412    3.1851 C   0  0  0  0  0  0  0  0  0  0  0  0
   -0.0565    5.9704    2.2420 H   0  0  0  0  0  0  0  0  0  0  0  0
    0.5089    6.1244    3.9038 H   0  0  0  0  0  0  0  0  0  0  0  0
   -0.9140    5.1178    3.5466 H   0  0  0  0  0  0  0  0  0  0  0  0
    3.0728    6.0756    2.2870 C   0  0  0  0  0  0  0  0  0  0  0  0
    3.5121    6.6169    3.5059 C   0  0  0  0  0  0  0  0  0  0  0  0
    3.5012    7.9891    3.7156 C   0  0  0  0  0  0  0  0  0  0  0  0
    3.0517    8.8269    2.7085 C   0  0  0  0  0  0  0  0  0  0  0  0
    2.6156    8.3067    1.5045 C   0  0  0  0  0  0  0  0  0  0  0  0
    2.6266    6.9331    1.2957 C   0  0  0  0  0  0  0  0  0  0  0  0
    4.4289    5.8925    5.7238 C   0  0  0  0  0  0  0  0  0  0  0  0
    4.7837    4.5899    6.4181 C   0  0  0  0  0  0  0  0  0  0  0  0
    3.8417    8.3871    4.6572 H   0  0  0  0  0  0  0  0  0  0  0  0
    3.0433    9.8945    2.8711 H   0  0  0  0  0  0  0  0  0  0  0  0
    2.2844    6.5367    0.3469 H   0  0  0  0  0  0  0  0  0  0  0  0
    2.2650    8.9644    0.7218 H   0  0  0  0  0  0  0  0  0  0  0  0
    3.8828    4.7156    4.1450 H   0  0  0  0  0  0  0  0  0  0  0  0
    3.9078    3.9482    6.4876 H   0  0  0  0  0  0  0  0  0  0  0  0
    5.5521    4.0614    5.8574 H   0  0  0  0  0  0  0  0  0  0  0  0
    5.1521    4.8041    7.4169 H   0  0  0  0  0  0  0  0  0  0  0  0
  1 31  1  0  0  0  0
  1  2  1  0  0  0  0
  1  4  1  0  0  0  0
  3  1  1  0  0  0  0
  3  7  1  0  0  0  0
  4 27  1  0  0  0  0
  4 19  1  0  0  0  0
  6 37  1  0  0  0  0
  7  9  1  0  0  0  0
  7 10  1  0  0  0  0
  8  7  1  0  0  0  0
 11  3  1  0  0  0  0
 11 13  1  0  0  0  0
 12 11  1  0  0  0  0
 14 11  1  0  0  0  0
 15 17  1  0  0  0  0
 15  3  1  0  0  0  0
 16 15  1  0  0  0  0
 18 15  1  0  0  0  0
 19 20  1  0  0  0  0
 19 21  1  0  0  0  0
 22 19  1  0  0  0  0
 23 26  1  0  0  0  0
 23  4  1  0  0  0  0
 24 23  1  0  0  0  0
 25 23  1  0  0  0  0
 27 30  1  0  0  0  0
 27 29  1  0  0  0  0
 28 27  1  0  0  0  0
 31 32  1  0  0  0  0
 32 33  2  0  0  0  0
 32  6  1  0  0  0  0
 33 39  1  0  0  0  0
 34 40  1  0  0  0  0
 34 33  1  0  0  0  0
 35 34  2  0  0  0  0
 36 35  1  0  0  0  0
 36 31  2  0  0  0  0
 37  5  2  0  0  0  0
 37 38  1  0  0  0  0
 38 44  1  0  0  0  0
 38 46  1  0  0  0  0
 41 36  1  0  0  0  0
 42 35  1  0  0  0  0
 43  6  1  0  0  0  0
 45 38  1  0  0  0  0
M  END
$$$$
