CSD_code = BUTWES | q = 0 | S = 0 | Stoichiometry = C29H28Br2NiP2 | MND = 4
 OpenBabel04212202013D

 62 67  0  0  1  0  0  0  0  0999 V2000
    1.1741    3.6997    9.8634 Ni  0  0  0  0  0  0  0  0  0  0  0  0
    1.7143    2.2858   11.5264 Br  0  0  0  0  0  0  0  0  0  0  0  0
    1.9205    2.4630    8.1396 Br  0  0  0  0  0  0  0  0  0  0  0  0
    0.4560    5.0212   11.4036 P   0  0  0  0  0  4  0  0  0  0  0  0
    0.5232    5.1220    8.3822 P   0  0  0  0  0  4  0  0  0  0  0  0
    0.1490    6.6636   10.5970 C   0  0  1  0  0  0  0  0  0  0  0  0
   -0.5309    6.3721    9.2586 C   0  0  1  0  0  0  0  0  0  0  0  0
   -0.8046    7.7685    8.7139 C   0  0  0  0  0  0  0  0  0  0  0  0
   -1.1617    8.5911    9.9727 C   0  0  0  0  0  0  0  0  0  0  0  0
   -0.7494    7.7393   11.1942 C   0  0  0  0  0  0  0  0  0  0  0  0
    1.1988    5.4093   13.0068 C   0  0  0  0  0  0  0  0  0  0  0  0
    2.0284    6.5144   13.1684 C   0  0  0  0  0  0  0  0  0  0  0  0
    2.6129    6.7639   14.3967 C   0  0  0  0  0  0  0  0  0  0  0  0
    2.3871    5.9077   15.4618 C   0  0  0  0  0  0  0  0  0  0  0  0
    1.5817    4.7923   15.2966 C   0  0  0  0  0  0  0  0  0  0  0  0
    0.9923    4.5368   14.0734 C   0  0  0  0  0  0  0  0  0  0  0  0
   -1.2186    4.4437   11.8006 C   0  0  0  0  0  0  0  0  0  0  0  0
   -1.7723    3.4606   10.9854 C   0  0  0  0  0  0  0  0  0  0  0  0
   -3.0645    3.0202   11.2006 C   0  0  0  0  0  0  0  0  0  0  0  0
   -3.8084    3.5613   12.2364 C   0  0  0  0  0  0  0  0  0  0  0  0
   -3.2575    4.5314   13.0598 C   0  0  0  0  0  0  0  0  0  0  0  0
   -1.9651    4.9750   12.8482 C   0  0  0  0  0  0  0  0  0  0  0  0
    1.9881    6.0829    7.9103 C   0  0  0  0  0  0  0  0  0  0  0  0
    1.9740    7.0034    6.8665 C   0  0  0  0  0  0  0  0  0  0  0  0
    3.1096    7.7436    6.5938 C   0  0  0  0  0  0  0  0  0  0  0  0
    4.2568    7.5703    7.3531 C   0  0  0  0  0  0  0  0  0  0  0  0
    4.2782    6.6475    8.3861 C   0  0  0  0  0  0  0  0  0  0  0  0
    3.1455    5.9054    8.6626 C   0  0  0  0  0  0  0  0  0  0  0  0
   -0.3370    4.7884    6.8255 C   0  0  0  0  0  0  0  0  0  0  0  0
    0.4094    4.4208    5.7077 C   0  0  0  0  0  0  0  0  0  0  0  0
   -0.2304    4.1107    4.5231 C   0  0  0  0  0  0  0  0  0  0  0  0
   -1.6132    4.1538    4.4462 C   0  0  0  0  0  0  0  0  0  0  0  0
   -2.3587    4.4988    5.5613 C   0  0  0  0  0  0  0  0  0  0  0  0
   -1.7264    4.8075    6.7518 C   0  0  0  0  0  0  0  0  0  0  0  0
    1.1429    7.0905   10.3870 H   0  0  0  0  0  0  0  0  0  0  0  0
   -1.4876    5.8691    9.4708 H   0  0  0  0  0  0  0  0  0  0  0  0
    0.0969    8.1709    8.2475 H   0  0  0  0  0  0  0  0  0  0  0  0
   -1.6036    7.7782    7.9735 H   0  0  0  0  0  0  0  0  0  0  0  0
   -0.6308    9.5428    9.9665 H   0  0  0  0  0  0  0  0  0  0  0  0
   -2.2286    8.8102   10.0051 H   0  0  0  0  0  0  0  0  0  0  0  0
   -0.2462    8.3301   11.9586 H   0  0  0  0  0  0  0  0  0  0  0  0
   -1.6316    7.2796   11.6443 H   0  0  0  0  0  0  0  0  0  0  0  0
    2.2258    7.1781   12.3380 H   0  0  0  0  0  0  0  0  0  0  0  0
    3.2527    7.6256   14.5199 H   0  0  0  0  0  0  0  0  0  0  0  0
    2.8486    6.1048   16.4179 H   0  0  0  0  0  0  0  0  0  0  0  0
    1.4181    4.1140   16.1200 H   0  0  0  0  0  0  0  0  0  0  0  0
    0.3826    3.6552   13.9359 H   0  0  0  0  0  0  0  0  0  0  0  0
   -1.1745    3.0176   10.1839 H   0  0  0  0  0  0  0  0  0  0  0  0
   -3.4861    2.2535   10.5680 H   0  0  0  0  0  0  0  0  0  0  0  0
   -4.8173    3.2183   12.4107 H   0  0  0  0  0  0  0  0  0  0  0  0
   -3.8372    4.9413   13.8739 H   0  0  0  0  0  0  0  0  0  0  0  0
   -1.5260    5.7164   13.5018 H   0  0  0  0  0  0  0  0  0  0  0  0
    1.0839    7.1217    6.2637 H   0  0  0  0  0  0  0  0  0  0  0  0
    3.1013    8.4566    5.7824 H   0  0  0  0  0  0  0  0  0  0  0  0
    5.1403    8.1500    7.1311 H   0  0  0  0  0  0  0  0  0  0  0  0
    5.1756    6.5011    8.9683 H   0  0  0  0  0  0  0  0  0  0  0  0
    3.1655    5.1583    9.4604 H   0  0  0  0  0  0  0  0  0  0  0  0
    1.4865    4.3644    5.7760 H   0  0  0  0  0  0  0  0  0  0  0  0
    0.3526    3.8260    3.6605 H   0  0  0  0  0  0  0  0  0  0  0  0
   -2.1117    3.9084    3.5204 H   0  0  0  0  0  0  0  0  0  0  0  0
   -3.4375    4.5193    5.5076 H   0  0  0  0  0  0  0  0  0  0  0  0
   -2.3195    5.0553    7.6213 H   0  0  0  0  0  0  0  0  0  0  0  0
  1  4  1  0  0  0  0
  1  2  1  0  0  0  0
  3  1  1  0  0  0  0
  4 17  1  0  0  0  0
  4 11  1  0  0  0  0
  5  7  1  0  0  0  0
  5  1  1  0  0  0  0
  6 35  1  6  0  0  0
  6 10  1  0  0  0  0
  6  4  1  0  0  0  0
  7 36  1  1  0  0  0
  7  6  1  0  0  0  0
  8  7  1  0  0  0  0
  8  9  1  0  0  0  0
  9 40  1  0  0  0  0
  9 10  1  0  0  0  0
 10 42  1  0  0  0  0
 10 41  1  0  0  0  0
 11 12  2  0  0  0  0
 11 16  1  0  0  0  0
 12 13  1  0  0  0  0
 13 44  1  0  0  0  0
 13 14  2  0  0  0  0
 14 45  1  0  0  0  0
 15 14  1  0  0  0  0
 15 46  1  0  0  0  0
 16 15  2  0  0  0  0
 17 22  1  0  0  0  0
 18 19  1  0  0  0  0
 18 17  2  0  0  0  0
 19 20  2  0  0  0  0
 20 50  1  0  0  0  0
 20 21  1  0  0  0  0
 21 51  1  0  0  0  0
 22 21  2  0  0  0  0
 22 52  1  0  0  0  0
 23  5  1  0  0  0  0
 23 28  1  0  0  0  0
 24 23  2  0  0  0  0
 25 24  1  0  0  0  0
 25 26  2  0  0  0  0
 26 27  1  0  0  0  0
 27 28  2  0  0  0  0
 27 56  1  0  0  0  0
 28 57  1  0  0  0  0
 29  5  1  0  0  0  0
 30 58  1  0  0  0  0
 30 29  2  0  0  0  0
 31 30  1  0  0  0  0
 32 31  2  0  0  0  0
 32 33  1  0  0  0  0
 33 34  2  0  0  0  0
 34 29  1  0  0  0  0
 34 62  1  0  0  0  0
 37  8  1  0  0  0  0
 38  8  1  0  0  0  0
 39  9  1  0  0  0  0
 43 12  1  0  0  0  0
 47 16  1  0  0  0  0
 48 18  1  0  0  0  0
 49 19  1  0  0  0  0
 53 24  1  0  0  0  0
 54 25  1  0  0  0  0
 55 26  1  0  0  0  0
 59 31  1  0  0  0  0
 60 32  1  0  0  0  0
 61 33  1  0  0  0  0
M  END
$$$$
