CSD_code = BUVBUQ | q = 0 | S = 0 | Stoichiometry = C8H6AuClN4 | MND = 2
 OpenBabel04212202013D

 20 21  0  0  0  0  0  0  0  0999 V2000
    1.4989    4.2822   -0.0700 Au  0  0  0  0  0  0  0  0  0  0  0  0
    1.7456    2.1673    0.4693 Cl  0  0  0  0  0  0  0  0  0  0  0  0
    1.2973    6.0553   -0.5924 C   0  0  0  0  0  0  0  0  0  0  0  0
    1.2060    7.1442   -0.9881 N   0  0  0  0  0  2  0  0  0  0  0  0
    1.0222    8.3878   -1.6099 C   0  0  0  0  0  0  0  0  0  0  0  0
    0.6154    9.0999   -0.8818 H   0  0  0  0  0  0  0  0  0  0  0  0
    2.0004    8.7340   -1.9730 H   0  0  0  0  0  0  0  0  0  0  0  0
    0.0851    8.2844   -2.6821 N   0  0  0  0  0  0  0  0  0  0  0  0
   -1.1211    8.8917   -2.6247 N   0  0  0  0  0  0  0  0  0  0  0  0
   -1.7900    8.6383   -3.6585 N   0  0  0  0  0  0  0  0  0  0  0  0
   -1.0671    7.8197   -4.4794 C   0  0  0  0  0  0  0  0  0  0  0  0
   -1.3541    7.2524   -5.7198 C   0  0  0  0  0  0  0  0  0  0  0  0
   -2.2984    7.4396   -6.2032 H   0  0  0  0  0  0  0  0  0  0  0  0
   -0.3848    6.4530   -6.2792 C   0  0  0  0  0  0  0  0  0  0  0  0
   -0.5651    5.9906   -7.2375 H   0  0  0  0  0  0  0  0  0  0  0  0
    0.8401    6.2124   -5.6410 C   0  0  0  0  0  0  0  0  0  0  0  0
    1.5622    5.5733   -6.1257 H   0  0  0  0  0  0  0  0  0  0  0  0
    1.1477    6.7629   -4.4163 C   0  0  0  0  0  0  0  0  0  0  0  0
    2.0896    6.5700   -3.9258 H   0  0  0  0  0  0  0  0  0  0  0  0
    0.1749    7.5720   -3.8466 C   0  0  0  0  0  0  0  0  0  0  0  0
  1  2  1  0  0  0  0
  3  1  3  0  0  0  0
  4  3  1  0  0  0  0
  5  4  1  0  0  0  0
  5  6  1  0  0  0  0
  7  5  1  0  0  0  0
  8  9  1  0  0  0  0
  8  5  1  0  0  0  0
 10  9  2  0  0  0  0
 11 20  1  0  0  0  0
 11 10  1  0  0  0  0
 12 11  2  0  0  0  0
 13 12  1  0  0  0  0
 14 12  1  0  0  0  0
 14 16  2  0  0  0  0
 15 14  1  0  0  0  0
 16 18  1  0  0  0  0
 17 16  1  0  0  0  0
 18 19  1  0  0  0  0
 18 20  2  0  0  0  0
 20  8  1  0  0  0  0
M  END
$$$$
