CSD_code = BUVCOL | q = 0 | S = 0 | Stoichiometry = C11H24AuClN2 | MND = 2
 OpenBabel04212202013D

 39 38  0  0  1  0  0  0  0  0999 V2000
    1.2911    5.3880    8.3457 Au  0  0  0  0  0  0  0  0  0  0  0  0
   -0.3361    5.0109    6.8290 Cl  0  0  0  0  0  0  0  0  0  0  0  0
    2.7594    5.6999    9.7271 C   0  0  1  0  0  3  0  0  0  0  0  0
    2.8871    6.7850   10.4775 N   0  0  0  0  0  0  0  0  0  0  0  0
    3.6523    6.8159   11.1487 H   0  0  0  0  0  0  0  0  0  0  0  0
    3.6699    4.7661    9.9504 N   0  0  0  0  0  0  0  0  0  0  0  0
    4.3954    4.9293   10.6464 H   0  0  0  0  0  0  0  0  0  0  0  0
    3.7840    3.4911    9.2742 C   0  0  1  0  0  0  0  0  0  0  0  0
    3.0408    3.5040    8.4687 H   0  0  0  0  0  0  0  0  0  0  0  0
    5.1767    3.4036    8.6509 C   0  0  0  0  0  0  0  0  0  0  0  0
    5.3256    4.2547    7.9897 H   0  0  0  0  0  0  0  0  0  0  0  0
    5.2788    2.4983    8.0629 H   0  0  0  0  0  0  0  0  0  0  0  0
    5.9545    3.4193    9.4110 H   0  0  0  0  0  0  0  0  0  0  0  0
    3.4156    2.3165   10.2214 C   0  0  0  0  0  0  0  0  0  0  0  0
    4.3884    2.1959   11.3979 C   0  0  0  0  0  0  0  0  0  0  0  0
    5.4009    1.9969   11.0565 H   0  0  0  0  0  0  0  0  0  0  0  0
    4.0843    1.3696   12.0360 H   0  0  0  0  0  0  0  0  0  0  0  0
    4.3913    3.0985   12.0058 H   0  0  0  0  0  0  0  0  0  0  0  0
    2.0019    2.5547   10.7624 C   0  0  0  0  0  0  0  0  0  0  0  0
    1.9567    3.4585   11.3658 H   0  0  0  0  0  0  0  0  0  0  0  0
    1.6927    1.7171   11.3827 H   0  0  0  0  0  0  0  0  0  0  0  0
    1.2918    2.6579    9.9454 H   0  0  0  0  0  0  0  0  0  0  0  0
    3.4178    1.0079    9.4274 C   0  0  0  0  0  0  0  0  0  0  0  0
    2.7935    1.0980    8.5420 H   0  0  0  0  0  0  0  0  0  0  0  0
    3.0220    0.2026   10.0415 H   0  0  0  0  0  0  0  0  0  0  0  0
    4.4225    0.7308    9.1206 H   0  0  0  0  0  0  0  0  0  0  0  0
    2.0587    7.9936   10.4789 C   0  0  0  0  0  0  0  0  0  0  0  0
    2.6700    8.9362   11.5188 C   0  0  0  0  0  0  0  0  0  0  0  0
    2.6630    8.4787   12.5068 H   0  0  0  0  0  0  0  0  0  0  0  0
    2.0952    9.8563   11.5692 H   0  0  0  0  0  0  0  0  0  0  0  0
    3.6946    9.1912   11.2534 H   0  0  0  0  0  0  0  0  0  0  0  0
    0.6232    7.6490   10.8810 C   0  0  0  0  0  0  0  0  0  0  0  0
    0.1728    6.9846   10.1474 H   0  0  0  0  0  0  0  0  0  0  0  0
    0.0277    8.5552   10.9397 H   0  0  0  0  0  0  0  0  0  0  0  0
    0.6072    7.1566   11.8511 H   0  0  0  0  0  0  0  0  0  0  0  0
    2.0917    8.6613    9.1029 C   0  0  0  0  0  0  0  0  0  0  0  0
    3.1172    8.8727    8.8075 H   0  0  0  0  0  0  0  0  0  0  0  0
    1.5370    9.5944    9.1318 H   0  0  0  0  0  0  0  0  0  0  0  0
    1.6419    8.0133    8.3547 H   0  0  0  0  0  0  0  0  0  0  0  0
  2  1  1  0  0  0  0
  3  1  1  1  0  0  0
  3  6  1  0  0  0  0
  3  4  1  0  0  0  0
  4 27  1  0  0  0  0
  4  5  1  0  0  0  0
  6  7  1  0  0  0  0
  8  9  1  6  0  0  0
  8  6  1  0  0  0  0
  8 14  1  0  0  0  0
 10  8  1  0  0  0  0
 10 13  1  0  0  0  0
 11 10  1  0  0  0  0
 12 10  1  0  0  0  0
 14 19  1  0  0  0  0
 14 15  1  0  0  0  0
 15 18  1  0  0  0  0
 15 17  1  0  0  0  0
 16 15  1  0  0  0  0
 19 20  1  0  0  0  0
 19 21  1  0  0  0  0
 22 19  1  0  0  0  0
 23 25  1  0  0  0  0
 23 14  1  0  0  0  0
 24 23  1  0  0  0  0
 26 23  1  0  0  0  0
 27 32  1  0  0  0  0
 27 28  1  0  0  0  0
 28 30  1  0  0  0  0
 28 29  1  0  0  0  0
 31 28  1  0  0  0  0
 32 34  1  0  0  0  0
 32 35  1  0  0  0  0
 33 32  1  0  0  0  0
 36 38  1  0  0  0  0
 36 27  1  0  0  0  0
 37 36  1  0  0  0  0
 39 36  1  0  0  0  0
M  END
$$$$
