CSD_code = BUWGUW | q = 1 | S = 0 | Stoichiometry = C15H24BrCuN3(1+) | MND = 5
 OpenBabel04212202013D

 44 48  0  0  1  0  0  0  0  0999 V2000
    7.8940   10.2425   10.2450 Br  0  0  0  0  0  0  0  0  0  0  0  0
    6.0865   11.5739    9.5993 Cu  0  0  0  0  0  0  0  0  0  0  0  0
    5.5401    9.8064    9.1526 C   0  0  0  0  0  0  0  0  0  0  0  0
    5.6775    9.4439    7.8299 C   0  0  0  0  0  0  0  0  0  0  0  0
    6.5551   11.6533    7.4372 N   0  0  2  0  0  4  0  0  0  0  0  0
    5.7854   12.1123    6.9521 H   0  0  0  0  0  0  0  0  0  0  0  0
    4.9184    8.3671    7.3837 C   0  0  0  0  0  0  0  0  0  0  0  0
    5.0025    8.0535    6.3548 H   0  0  0  0  0  0  0  0  0  0  0  0
    6.5400   13.4524   10.0194 N   0  0  1  0  0  4  0  0  0  0  0  0
    4.0732    7.7041    8.2573 C   0  0  0  0  0  0  0  0  0  0  0  0
    3.5017    6.8596    7.9058 H   0  0  0  0  0  0  0  0  0  0  0  0
    4.8156   11.1978   11.3726 N   0  0  2  0  0  4  0  0  0  0  0  0
    3.9038   11.6265   11.2197 H   0  0  0  0  0  0  0  0  0  0  0  0
    3.9433    8.1154    9.5731 C   0  0  0  0  0  0  0  0  0  0  0  0
    3.2698    7.6061   10.2447 H   0  0  0  0  0  0  0  0  0  0  0  0
    4.6911    9.1889   10.0457 C   0  0  0  0  0  0  0  0  0  0  0  0
    6.6255   10.2459    6.9919 C   0  0  0  0  0  0  0  0  0  0  0  0
    7.6425    9.8856    7.1819 H   0  0  0  0  0  0  0  0  0  0  0  0
    6.4217   10.1371    5.9225 H   0  0  0  0  0  0  0  0  0  0  0  0
    7.7934   12.3952    7.1930 C   0  0  0  0  0  0  0  0  0  0  0  0
    8.0063   12.4564    6.1184 H   0  0  0  0  0  0  0  0  0  0  0  0
    8.6081   11.8422    7.6687 H   0  0  0  0  0  0  0  0  0  0  0  0
    7.7389   13.8057    7.7726 C   0  0  0  0  0  0  0  0  0  0  0  0
    8.6344   14.3282    7.4322 H   0  0  0  0  0  0  0  0  0  0  0  0
    6.8849   14.3467    7.3633 H   0  0  0  0  0  0  0  0  0  0  0  0
    7.7646   13.8728    9.3015 C   0  0  0  0  0  0  0  0  0  0  0  0
    8.5836   13.2427    9.6586 H   0  0  0  0  0  0  0  0  0  0  0  0
    7.9904   14.9095    9.5841 H   0  0  0  0  0  0  0  0  0  0  0  0
    5.4040   14.2864    9.6212 C   0  0  0  0  0  0  0  0  0  0  0  0
    5.6006   15.3422    9.8324 H   0  0  0  0  0  0  0  0  0  0  0  0
    4.5062   13.9855   10.1544 H   0  0  0  0  0  0  0  0  0  0  0  0
    5.2044   14.1747    8.5588 H   0  0  0  0  0  0  0  0  0  0  0  0
    6.8182   13.6153   11.4644 C   0  0  0  0  0  0  0  0  0  0  0  0
    7.0929   14.6627   11.6462 H   0  0  0  0  0  0  0  0  0  0  0  0
    7.6875   12.9956   11.7002 H   0  0  0  0  0  0  0  0  0  0  0  0
    5.6943   13.2569   12.4396 C   0  0  0  0  0  0  0  0  0  0  0  0
    6.0170   13.6180   13.4176 H   0  0  0  0  0  0  0  0  0  0  0  0
    4.7720   13.7864   12.1980 H   0  0  0  0  0  0  0  0  0  0  0  0
    5.4205   11.7624   12.5805 C   0  0  0  0  0  0  0  0  0  0  0  0
    6.3650   11.2385   12.7517 H   0  0  0  0  0  0  0  0  0  0  0  0
    4.7767   11.5965   13.4534 H   0  0  0  0  0  0  0  0  0  0  0  0
    4.6459    9.7313   11.4415 C   0  0  0  0  0  0  0  0  0  0  0  0
    5.4964    9.3217   11.9974 H   0  0  0  0  0  0  0  0  0  0  0  0
    3.7291    9.4428   11.9643 H   0  0  0  0  0  0  0  0  0  0  0  0
  2  9  1  0  0  0  0
  2  1  1  0  0  0  0
  2 12  1  0  0  0  0
  3  2  1  0  0  0  0
  3 16  1  0  0  0  0
  4  3  2  0  0  0  0
  5  6  1  6  0  0  0
  5  2  1  0  0  0  0
  7  4  1  0  0  0  0
  7 10  2  0  0  0  0
  8  7  1  0  0  0  0
  9 29  1  6  0  0  0
  9 33  1  0  0  0  0
 10 14  1  0  0  0  0
 11 10  1  0  0  0  0
 12 13  1  6  0  0  0
 12 42  1  0  0  0  0
 12 39  1  0  0  0  0
 14 16  2  0  0  0  0
 14 15  1  0  0  0  0
 16 42  1  0  0  0  0
 17 18  1  0  0  0  0
 17  5  1  0  0  0  0
 17  4  1  0  0  0  0
 19 17  1  0  0  0  0
 20  5  1  0  0  0  0
 20 22  1  0  0  0  0
 20 23  1  0  0  0  0
 21 20  1  0  0  0  0
 23 26  1  0  0  0  0
 24 23  1  0  0  0  0
 25 23  1  0  0  0  0
 26 28  1  0  0  0  0
 26 27  1  0  0  0  0
 26  9  1  0  0  0  0
 29 30  1  0  0  0  0
 29 31  1  0  0  0  0
 32 29  1  0  0  0  0
 33 34  1  0  0  0  0
 33 35  1  0  0  0  0
 33 36  1  0  0  0  0
 36 39  1  0  0  0  0
 36 37  1  0  0  0  0
 38 36  1  0  0  0  0
 39 40  1  0  0  0  0
 39 41  1  0  0  0  0
 42 44  1  0  0  0  0
 42 43  1  0  0  0  0
M  END
$$$$
