CSD_code = BUWHIL | q = 1 | S = 0 | Stoichiometry = C14H22CuIN3(1+) | MND = 5
 OpenBabel04212202013D

 41 45  0  0  1  0  0  0  0  0999 V2000
   16.6160   15.9176    5.4309 Cu  0  0  0  0  0  0  0  0  0  0  0  0
   18.6839   16.0493    4.7339 N   0  0  2  0  0  4  0  0  0  0  0  0
   19.0497   15.0985    4.6968 H   0  0  0  0  0  0  0  0  0  0  0  0
   17.4448   16.1709    7.1181 C   0  0  0  0  0  0  0  0  0  0  0  0
   15.8389   15.4289    3.6888 N   0  0  2  0  0  4  0  0  0  0  0  0
   16.1029   14.4498    3.5540 H   0  0  0  0  0  0  0  0  0  0  0  0
   18.8022   16.4043    7.1024 C   0  0  0  0  0  0  0  0  0  0  0  0
   15.1482   14.8542    6.6526 N   0  0  2  0  0  4  0  0  0  0  0  0
   15.4284   13.8742    6.6721 H   0  0  0  0  0  0  0  0  0  0  0  0
   19.4924   16.2291    8.2973 C   0  0  0  0  0  0  0  0  0  0  0  0
   20.5556   16.4099    8.3243 H   0  0  0  0  0  0  0  0  0  0  0  0
   16.0193   18.3365    5.8340 I   0  0  0  0  0  0  0  0  0  0  0  0
   18.8143   15.8291    9.4365 C   0  0  0  0  0  0  0  0  0  0  0  0
   19.3544   15.7134   10.3629 H   0  0  0  0  0  0  0  0  0  0  0  0
   17.4583   15.5500    9.3988 C   0  0  0  0  0  0  0  0  0  0  0  0
   16.9424   15.2041   10.2809 H   0  0  0  0  0  0  0  0  0  0  0  0
   16.7468   15.7170    8.2154 C   0  0  0  0  0  0  0  0  0  0  0  0
   19.4053   16.7922    5.7877 C   0  0  0  0  0  0  0  0  0  0  0  0
   20.4846   16.6137    5.7574 H   0  0  0  0  0  0  0  0  0  0  0  0
   19.2324   17.8610    5.6214 H   0  0  0  0  0  0  0  0  0  0  0  0
   18.7965   16.6614    3.4097 C   0  0  0  0  0  0  0  0  0  0  0  0
   18.4854   17.7058    3.4987 H   0  0  0  0  0  0  0  0  0  0  0  0
   19.8365   16.6470    3.0610 H   0  0  0  0  0  0  0  0  0  0  0  0
   17.9108   15.9594    2.3824 C   0  0  0  0  0  0  0  0  0  0  0  0
   18.1807   16.3436    1.3984 H   0  0  0  0  0  0  0  0  0  0  0  0
   18.1199   14.8858    2.3811 H   0  0  0  0  0  0  0  0  0  0  0  0
   16.4134   16.1980    2.5729 C   0  0  0  0  0  0  0  0  0  0  0  0
   15.8995   15.9240    1.6431 H   0  0  0  0  0  0  0  0  0  0  0  0
   16.2219   17.2582    2.7581 H   0  0  0  0  0  0  0  0  0  0  0  0
   14.3684   15.4942    3.6809 C   0  0  0  0  0  0  0  0  0  0  0  0
   14.0023   15.2655    2.6721 H   0  0  0  0  0  0  0  0  0  0  0  0
   14.0737   16.5202    3.9165 H   0  0  0  0  0  0  0  0  0  0  0  0
   13.7147   14.5211    4.6614 C   0  0  0  0  0  0  0  0  0  0  0  0
   14.1528   13.5255    4.5463 H   0  0  0  0  0  0  0  0  0  0  0  0
   12.6607   14.4445    4.3931 H   0  0  0  0  0  0  0  0  0  0  0  0
   13.7880   14.9565    6.1235 C   0  0  0  0  0  0  0  0  0  0  0  0
   13.4777   16.0018    6.2035 H   0  0  0  0  0  0  0  0  0  0  0  0
   13.0923   14.3509    6.7172 H   0  0  0  0  0  0  0  0  0  0  0  0
   15.2944   15.4140    8.0119 C   0  0  0  0  0  0  0  0  0  0  0  0
   14.8975   14.7453    8.7820 H   0  0  0  0  0  0  0  0  0  0  0  0
   14.7286   16.3511    8.0503 H   0  0  0  0  0  0  0  0  0  0  0  0
  1 12  1  0  0  0  0
  1  8  1  0  0  0  0
  1  4  1  0  0  0  0
  2  3  1  6  0  0  0
  2  1  1  0  0  0  0
  2 18  1  0  0  0  0
  4 17  1  0  0  0  0
  5  6  1  6  0  0  0
  5  1  1  0  0  0  0
  7  4  2  0  0  0  0
  7 10  1  0  0  0  0
  8  9  1  1  0  0  0
  8 39  1  0  0  0  0
 10 11  1  0  0  0  0
 10 13  2  0  0  0  0
 13 14  1  0  0  0  0
 15 13  1  0  0  0  0
 15 16  1  0  0  0  0
 17 15  2  0  0  0  0
 18  7  1  0  0  0  0
 19 18  1  0  0  0  0
 20 18  1  0  0  0  0
 21 22  1  0  0  0  0
 21  2  1  0  0  0  0
 23 21  1  0  0  0  0
 24 27  1  0  0  0  0
 24 21  1  0  0  0  0
 25 24  1  0  0  0  0
 26 24  1  0  0  0  0
 27 29  1  0  0  0  0
 27  5  1  0  0  0  0
 28 27  1  0  0  0  0
 30  5  1  0  0  0  0
 30 32  1  0  0  0  0
 30 33  1  0  0  0  0
 31 30  1  0  0  0  0
 33 36  1  0  0  0  0
 34 33  1  0  0  0  0
 35 33  1  0  0  0  0
 36 37  1  0  0  0  0
 36  8  1  0  0  0  0
 36 38  1  0  0  0  0
 39 41  1  0  0  0  0
 39 17  1  0  0  0  0
 39 40  1  0  0  0  0
M  END
$$$$
