CSD_code = BUWQAM | q = 0 | S = 0 | Stoichiometry = C39H36AgClN2S4 | MND = 2
 OpenBabel04212202013D

 83 89  0  0  1  0  0  0  0  0999 V2000
   -1.0945    2.5834    9.1620 Ag  0  0  0  0  0  0  0  0  0  0  0  0
   -2.0469    3.3265   11.0439 Cl  0  0  0  0  0  0  0  0  0  0  0  0
   -1.2170    2.6401    3.0214 S   0  0  0  0  0  0  0  0  0  0  0  0
   -1.9923    1.3597   -1.0980 S   0  0  0  0  0  0  0  0  0  0  0  0
    3.1031    0.6540    3.7856 S   0  0  0  0  0  0  0  0  0  0  0  0
    7.3657    1.1591    2.8905 S   0  0  0  0  0  0  0  0  0  0  0  0
   -0.7416    1.8602    6.1363 N   0  0  0  0  0  0  0  0  0  0  0  0
    1.1703    1.8952    7.1018 N   0  0  0  0  0  0  0  0  0  0  0  0
   -0.1530    2.0336    7.3359 C   0  0  1  0  0  3  0  0  0  0  0  0
    0.1887    1.5961    5.1498 C   0  0  0  0  0  0  0  0  0  0  0  0
    1.4216    1.6314    5.7660 C   0  0  0  0  0  0  0  0  0  0  0  0
   -2.1365    1.8724    5.9269 C   0  0  0  0  0  0  0  0  0  0  0  0
   -2.8974    2.9550    6.3507 C   0  0  0  0  0  0  0  0  0  0  0  0
   -2.4163    3.7939    6.8391 H   0  0  0  0  0  0  0  0  0  0  0  0
   -4.2572    2.9703    6.1025 C   0  0  0  0  0  0  0  0  0  0  0  0
   -4.8449    3.8158    6.4269 H   0  0  0  0  0  0  0  0  0  0  0  0
   -4.8753    1.9209    5.4323 C   0  0  0  0  0  0  0  0  0  0  0  0
   -4.1043    0.8335    5.0394 C   0  0  0  0  0  0  0  0  0  0  0  0
   -4.5707    0.0014    4.5331 H   0  0  0  0  0  0  0  0  0  0  0  0
   -2.7460    0.8013    5.2853 C   0  0  0  0  0  0  0  0  0  0  0  0
   -2.1549   -0.0492    4.9784 H   0  0  0  0  0  0  0  0  0  0  0  0
   -6.3326    1.9950    5.0879 C   0  0  0  0  0  0  0  0  0  0  0  0
   -6.7199    0.9943    4.8881 H   0  0  0  0  0  0  0  0  0  0  0  0
   -6.8873    2.4162    5.9286 H   0  0  0  0  0  0  0  0  0  0  0  0
   -6.5585    2.8791    3.8526 C   0  0  0  0  0  0  0  0  0  0  0  0
   -7.6328    2.9688    3.6774 H   0  0  0  0  0  0  0  0  0  0  0  0
   -6.1671    3.8792    4.0511 H   0  0  0  0  0  0  0  0  0  0  0  0
   -5.8915    2.3192    2.5984 C   0  0  0  0  0  0  0  0  0  0  0  0
   -6.2497    1.3023    2.4219 H   0  0  0  0  0  0  0  0  0  0  0  0
   -4.8108    2.2693    2.7516 H   0  0  0  0  0  0  0  0  0  0  0  0
   -6.1892    3.1759    1.3742 C   0  0  0  0  0  0  0  0  0  0  0  0
   -7.2601    3.2150    1.1860 H   0  0  0  0  0  0  0  0  0  0  0  0
   -5.6995    2.7675    0.4931 H   0  0  0  0  0  0  0  0  0  0  0  0
   -5.8319    4.1923    1.5248 H   0  0  0  0  0  0  0  0  0  0  0  0
    2.1266    1.8894    8.1401 C   0  0  0  0  0  0  0  0  0  0  0  0
    2.1724    2.9412    9.0478 C   0  0  0  0  0  0  0  0  0  0  0  0
    1.5122    3.7916    8.9230 H   0  0  0  0  0  0  0  0  0  0  0  0
    3.0901    2.9119   10.0822 C   0  0  0  0  0  0  0  0  0  0  0  0
    3.1203    3.7304   10.7854 H   0  0  0  0  0  0  0  0  0  0  0  0
    3.9701    1.8463   10.2281 C   0  0  0  0  0  0  0  0  0  0  0  0
    3.9108    0.8020    9.3122 C   0  0  0  0  0  0  0  0  0  0  0  0
    4.5829   -0.0371    9.4156 H   0  0  0  0  0  0  0  0  0  0  0  0
    2.9943    0.8130    8.2793 C   0  0  0  0  0  0  0  0  0  0  0  0
    2.9445   -0.0113    7.5834 H   0  0  0  0  0  0  0  0  0  0  0  0
    5.0024    1.8508   11.3151 C   0  0  0  0  0  0  0  0  0  0  0  0
    5.2472    0.8261   11.6013 H   0  0  0  0  0  0  0  0  0  0  0  0
    4.6154    2.3689   12.1942 H   0  0  0  0  0  0  0  0  0  0  0  0
    6.2769    2.5569   10.8341 C   0  0  0  0  0  0  0  0  0  0  0  0
    6.0336    3.5858   10.5589 H   0  0  0  0  0  0  0  0  0  0  0  0
    6.6481    2.0542    9.9375 H   0  0  0  0  0  0  0  0  0  0  0  0
    7.3665    2.5604   11.9028 C   0  0  0  0  0  0  0  0  0  0  0  0
    6.9887    3.0527   12.8017 H   0  0  0  0  0  0  0  0  0  0  0  0
    7.6144    1.5303   12.1691 H   0  0  0  0  0  0  0  0  0  0  0  0
    8.6230    3.2766   11.4226 C   0  0  0  0  0  0  0  0  0  0  0  0
    9.0232    2.7923   10.5342 H   0  0  0  0  0  0  0  0  0  0  0  0
    9.3891    3.2642   12.1943 H   0  0  0  0  0  0  0  0  0  0  0  0
    8.4013    4.3128   11.1761 H   0  0  0  0  0  0  0  0  0  0  0  0
   -0.1880    1.4445    3.7674 C   0  0  0  0  0  0  0  0  0  0  0  0
    0.1135    0.4394    2.8892 C   0  0  0  0  0  0  0  0  0  0  0  0
    0.7049   -0.4168    3.1578 H   0  0  0  0  0  0  0  0  0  0  0  0
   -0.4691    0.6136    1.6253 C   0  0  0  0  0  0  0  0  0  0  0  0
   -0.3508   -0.0773    0.8098 H   0  0  0  0  0  0  0  0  0  0  0  0
   -1.2244    1.7542    1.5256 C   0  0  0  0  0  0  0  0  0  0  0  0
   -1.9593    2.2409    0.4036 C   0  0  0  0  0  0  0  0  0  0  0  0
   -2.7034    3.3889    0.3118 C   0  0  0  0  0  0  0  0  0  0  0  0
   -2.8151    4.0763    1.1314 H   0  0  0  0  0  0  0  0  0  0  0  0
   -3.2946    3.5630   -0.9529 C   0  0  0  0  0  0  0  0  0  0  0  0
   -3.9114    4.4045   -1.2127 H   0  0  0  0  0  0  0  0  0  0  0  0
   -3.0017    2.5521   -1.8127 C   0  0  0  0  0  0  0  0  0  0  0  0
   -3.3155    2.4296   -2.8302 H   0  0  0  0  0  0  0  0  0  0  0  0
    2.7439    1.5831    5.2123 C   0  0  0  0  0  0  0  0  0  0  0  0
    3.8660    2.2366    5.6629 C   0  0  0  0  0  0  0  0  0  0  0  0
    3.8667    2.8871    6.5188 H   0  0  0  0  0  0  0  0  0  0  0  0
    5.0011    1.9967    4.8810 C   0  0  0  0  0  0  0  0  0  0  0  0
    5.9670    2.4264    5.0781 H   0  0  0  0  0  0  0  0  0  0  0  0
    4.7680    1.1552    3.8214 C   0  0  0  0  0  0  0  0  0  0  0  0
    5.6867    0.6985    2.8311 C   0  0  0  0  0  0  0  0  0  0  0  0
    5.4423   -0.1143    1.7536 C   0  0  0  0  0  0  0  0  0  0  0  0
    4.4664   -0.5095    1.5328 H   0  0  0  0  0  0  0  0  0  0  0  0
    6.5906   -0.3658    0.9811 C   0  0  0  0  0  0  0  0  0  0  0  0
    6.5931   -0.9801    0.0986 H   0  0  0  0  0  0  0  0  0  0  0  0
    7.6981    0.2512    1.4707 C   0  0  0  0  0  0  0  0  0  0  0  0
    8.6981    0.2317    1.0854 H   0  0  0  0  0  0  0  0  0  0  0  0
  1  2  1  0  0  0  0
  3 58  1  0  0  0  0
  4 64  1  0  0  0  0
  5 76  1  0  0  0  0
  5 71  1  0  0  0  0
  7  9  1  0  0  0  0
  8  9  1  0  0  0  0
  8 35  1  0  0  0  0
  9  1  1  6  0  0  0
 10 11  2  0  0  0  0
 10  7  1  0  0  0  0
 11  8  1  0  0  0  0
 12  7  1  0  0  0  0
 12 13  1  0  0  0  0
 13 14  1  0  0  0  0
 15 13  2  0  0  0  0
 15 16  1  0  0  0  0
 17 15  1  0  0  0  0
 18 20  1  0  0  0  0
 18 17  2  0  0  0  0
 19 18  1  0  0  0  0
 20 12  2  0  0  0  0
 21 20  1  0  0  0  0
 22 17  1  0  0  0  0
 22 24  1  0  0  0  0
 23 22  1  0  0  0  0
 25 27  1  0  0  0  0
 25 22  1  0  0  0  0
 26 25  1  0  0  0  0
 28 30  1  0  0  0  0
 28 25  1  0  0  0  0
 29 28  1  0  0  0  0
 31 34  1  0  0  0  0
 31 28  1  0  0  0  0
 32 31  1  0  0  0  0
 33 31  1  0  0  0  0
 35 43  2  0  0  0  0
 35 36  1  0  0  0  0
 36 38  2  0  0  0  0
 37 36  1  0  0  0  0
 38 40  1  0  0  0  0
 38 39  1  0  0  0  0
 40 45  1  0  0  0  0
 41 42  1  0  0  0  0
 41 40  2  0  0  0  0
 43 41  1  0  0  0  0
 44 43  1  0  0  0  0
 45 46  1  0  0  0  0
 45 47  1  0  0  0  0
 48 45  1  0  0  0  0
 48 51  1  0  0  0  0
 49 48  1  0  0  0  0
 50 48  1  0  0  0  0
 51 53  1  0  0  0  0
 51 52  1  0  0  0  0
 54 51  1  0  0  0  0
 54 56  1  0  0  0  0
 55 54  1  0  0  0  0
 57 54  1  0  0  0  0
 58 10  1  0  0  0  0
 59 60  1  0  0  0  0
 59 58  2  0  0  0  0
 61 59  1  0  0  0  0
 62 61  1  0  0  0  0
 63 61  2  0  0  0  0
 63  3  1  0  0  0  0
 64 63  1  0  0  0  0
 65 64  2  0  0  0  0
 65 66  1  0  0  0  0
 67 65  1  0  0  0  0
 68 67  1  0  0  0  0
 69  4  1  0  0  0  0
 69 67  2  0  0  0  0
 70 69  1  0  0  0  0
 71 72  2  0  0  0  0
 71 11  1  0  0  0  0
 72 73  1  0  0  0  0
 74 75  1  0  0  0  0
 74 72  1  0  0  0  0
 76 74  2  0  0  0  0
 77  6  1  0  0  0  0
 77 76  1  0  0  0  0
 78 77  2  0  0  0  0
 79 78  1  0  0  0  0
 80 82  2  0  0  0  0
 80 78  1  0  0  0  0
 81 80  1  0  0  0  0
 82  6  1  0  0  0  0
 83 82  1  0  0  0  0
M  END
$$$$
