CSD_code = BUWSUI | q = 0 | S = 0 | Stoichiometry = C17H18Cl2O2PtS2 | MND = 4
 OpenBabel04212202013D

 42 45  0  0  0  0  0  0  0  0999 V2000
    2.6685   11.6353   10.0640 Pt  0  0  0  0  0  0  0  0  0  0  0  0
    3.2289   13.5149    8.9746 Cl  0  0  0  0  0  0  0  0  0  0  0  0
    0.9472   11.2908    8.6653 Cl  0  0  0  0  0  0  0  0  0  0  0  0
    4.4118   11.6796   11.6428 S   0  0  1  0  0  0  0  0  0  0  0  0
    2.2697    9.7746   11.4438 S   0  0  1  0  0  0  0  0  0  0  0  0
    4.8874   12.6031   12.6575 O   0  0  0  0  0  1  0  0  0  0  0  0
    2.3301    8.3337   11.2699 O   0  0  0  0  0  1  0  0  0  0  0  0
    3.6807   10.2431   12.5159 C   0  0  0  0  0  0  0  0  0  0  0  0
    4.4886    9.2133   13.2353 C   0  0  0  0  0  0  0  0  0  0  0  0
    4.1409    8.1925   13.1482 H   0  0  0  0  0  0  0  0  0  0  0  0
    5.5650    9.3138   13.2354 H   0  0  0  0  0  0  0  0  0  0  0  0
    3.6622   10.1893   14.0086 C   0  0  0  0  0  0  0  0  0  0  0  0
    4.1663   11.0030   14.5137 H   0  0  0  0  0  0  0  0  0  0  0  0
    2.7629    9.8497   14.5034 H   0  0  0  0  0  0  0  0  0  0  0  0
    5.8218   10.8438   10.9187 C   0  0  0  0  0  0  0  0  0  0  0  0
    5.6140   10.1444    9.7424 C   0  0  0  0  0  0  0  0  0  0  0  0
    4.6302   10.1373    9.2778 H   0  0  0  0  0  0  0  0  0  0  0  0
    6.6718    9.4732    9.1625 C   0  0  0  0  0  0  0  0  0  0  0  0
    6.5213    8.9252    8.2449 H   0  0  0  0  0  0  0  0  0  0  0  0
    7.9377    9.5046    9.7456 C   0  0  0  0  0  0  0  0  0  0  0  0
    8.1239   10.2283   10.9183 C   0  0  0  0  0  0  0  0  0  0  0  0
    9.1029   10.2690   11.3722 H   0  0  0  0  0  0  0  0  0  0  0  0
    7.0693   10.9027   11.5087 C   0  0  0  0  0  0  0  0  0  0  0  0
    7.1985   11.4839   12.4092 H   0  0  0  0  0  0  0  0  0  0  0  0
    9.0783    8.7902    9.0927 C   0  0  0  0  0  0  0  0  0  0  0  0
    9.9301    8.7150    9.7632 H   0  0  0  0  0  0  0  0  0  0  0  0
    9.3908    9.3320    8.2003 H   0  0  0  0  0  0  0  0  0  0  0  0
    8.7790    7.7905    8.7849 H   0  0  0  0  0  0  0  0  0  0  0  0
    0.9244   10.1676   12.5591 C   0  0  0  0  0  0  0  0  0  0  0  0
    0.2857    9.1896   13.2960 C   0  0  0  0  0  0  0  0  0  0  0  0
    0.5997    8.1622   13.1913 H   0  0  0  0  0  0  0  0  0  0  0  0
   -0.7525    9.5541   14.1356 C   0  0  0  0  0  0  0  0  0  0  0  0
   -1.2601    8.7965   14.7142 H   0  0  0  0  0  0  0  0  0  0  0  0
   -1.1546   10.8817   14.2350 C   0  0  0  0  0  0  0  0  0  0  0  0
   -0.4998   11.8476   13.4720 C   0  0  0  0  0  0  0  0  0  0  0  0
   -0.8145   12.8783   13.5332 H   0  0  0  0  0  0  0  0  0  0  0  0
    0.5356   11.4943   12.6303 C   0  0  0  0  0  0  0  0  0  0  0  0
    1.0339   12.2401   12.0141 H   0  0  0  0  0  0  0  0  0  0  0  0
   -2.2710   11.2807   15.1472 C   0  0  0  0  0  0  0  0  0  0  0  0
   -2.8428   10.4147   15.4693 H   0  0  0  0  0  0  0  0  0  0  0  0
   -2.9386   11.9810   14.6501 H   0  0  0  0  0  0  0  0  0  0  0  0
   -1.8695   11.7757   16.0316 H   0  0  0  0  0  0  0  0  0  0  0  0
  1  5  1  0  0  0  0
  1  4  1  0  0  0  0
  2  1  1  0  0  0  0
  3  1  1  0  0  0  0
  4  8  1  0  0  0  0
  4  6  1  1  0  0  0
  5  7  1  6  0  0  0
  5  8  1  0  0  0  0
  5 29  1  0  0  0  0
  8  9  1  0  0  0  0
  8 12  1  0  0  0  0
  9 11  1  0  0  0  0
  9 12  1  0  0  0  0
 10  9  1  0  0  0  0
 12 14  1  0  0  0  0
 12 13  1  0  0  0  0
 15 23  1  0  0  0  0
 15  4  1  0  0  0  0
 16 15  2  0  0  0  0
 17 16  1  0  0  0  0
 18 16  1  0  0  0  0
 18 20  2  0  0  0  0
 19 18  1  0  0  0  0
 20 21  1  0  0  0  0
 21 22  1  0  0  0  0
 21 23  2  0  0  0  0
 23 24  1  0  0  0  0
 25 20  1  0  0  0  0
 25 26  1  0  0  0  0
 27 25  1  0  0  0  0
 28 25  1  0  0  0  0
 29 37  2  0  0  0  0
 29 30  1  0  0  0  0
 30 32  2  0  0  0  0
 31 30  1  0  0  0  0
 32 34  1  0  0  0  0
 32 33  1  0  0  0  0
 34 39  1  0  0  0  0
 35 36  1  0  0  0  0
 35 34  2  0  0  0  0
 37 35  1  0  0  0  0
 38 37  1  0  0  0  0
 39 40  1  0  0  0  0
 39 42  1  0  0  0  0
 41 39  1  0  0  0  0
M  END
$$$$
