CSD_code = BUWXIC | q = 1 | S = 0 | Stoichiometry = C28H29ClNNiP2(1+) | MND = 4
 OpenBabel04212202013D

 62 67  0  0  1  0  0  0  0  0999 V2000
    3.5542    0.4082   10.4231 Ni  0  0  2  0  0  0  0  0  0  0  0  0
    5.1886    1.1124    9.4068 Cl  0  0  0  0  0  0  0  0  0  0  0  0
    4.0000    1.4380   12.2858 P   0  0  0  0  0  4  0  0  0  0  0  0
    3.1404   -0.8941    8.7700 P   0  0  0  0  0  4  0  0  0  0  0  0
    1.9086   -0.3275   11.3433 N   0  0  2  0  0  4  0  0  0  0  0  0
    1.5494   -1.6925    9.3340 C   0  0  0  0  0  0  0  0  0  0  0  0
    1.9310   -0.2322   12.8121 C   0  0  0  0  0  0  0  0  0  0  0  0
    1.9854    0.9378    4.7475 C   0  0  0  0  0  0  0  0  0  0  0  0
    6.3411   -2.8633    7.2909 C   0  0  0  0  0  0  0  0  0  0  0  0
    2.7199   -0.1884    7.1611 C   0  0  0  0  0  0  0  0  0  0  0  0
    4.6038    3.0822   12.7154 C   0  0  0  0  0  0  0  0  0  0  0  0
    3.8804    3.9972   13.4726 C   0  0  0  0  0  0  0  0  0  0  0  0
    5.6804    0.5991   14.3801 C   0  0  0  0  0  0  0  0  0  0  0  0
    6.5255   -0.3104   14.9896 C   0  0  0  0  0  0  0  0  0  0  0  0
    1.5258   -1.6641   10.8605 C   0  0  0  0  0  0  0  0  0  0  0  0
    5.3874   -1.9055    7.5765 C   0  0  0  0  0  0  0  0  0  0  0  0
    6.3296   -1.7862   13.1000 C   0  0  0  0  0  0  0  0  0  0  0  0
    5.1852   -4.4389    8.6882 C   0  0  0  0  0  0  0  0  0  0  0  0
    4.2261   -3.4857    8.9819 C   0  0  0  0  0  0  0  0  0  0  0  0
    2.5426   -1.0030    6.0467 C   0  0  0  0  0  0  0  0  0  0  0  0
    2.1613    1.7478    5.8579 C   0  0  0  0  0  0  0  0  0  0  0  0
    4.3149   -2.2197    8.4113 C   0  0  0  0  0  0  0  0  0  0  0  0
    4.4339    5.2330   13.7592 C   0  0  0  0  0  0  0  0  0  0  0  0
    2.5274    1.1856    7.0672 C   0  0  0  0  0  0  0  0  0  0  0  0
    5.1554    0.3119   13.1249 C   0  0  0  0  0  0  0  0  0  0  0  0
    2.4320    1.1447   13.2400 C   0  0  0  0  0  0  0  0  0  0  0  0
    5.4857   -0.8799   12.4860 C   0  0  0  0  0  0  0  0  0  0  0  0
    5.8669    3.4189   12.2276 C   0  0  0  0  0  0  0  0  0  0  0  0
    6.4091    4.6558   12.5174 C   0  0  0  0  0  0  0  0  0  0  0  0
    2.1748   -0.4331    4.8422 C   0  0  0  0  0  0  0  0  0  0  0  0
    6.8473   -1.5000   14.3536 C   0  0  0  0  0  0  0  0  0  0  0  0
    5.6936    5.5623   13.2856 C   0  0  0  0  0  0  0  0  0  0  0  0
    6.2391   -4.1312    7.8431 C   0  0  0  0  0  0  0  0  0  0  0  0
    2.6153   -1.0002   13.1883 H   0  0  0  0  0  0  0  0  0  0  0  0
    0.9334   -0.4279   13.2270 H   0  0  0  0  0  0  0  0  0  0  0  0
    1.7051    1.9156   12.9688 H   0  0  0  0  0  0  0  0  0  0  0  0
    2.6065    1.1815   14.3168 H   0  0  0  0  0  0  0  0  0  0  0  0
    0.7332   -1.0848    8.9309 H   0  0  0  0  0  0  0  0  0  0  0  0
    5.4346    1.5325   14.8668 H   0  0  0  0  0  0  0  0  0  0  0  0
    6.9837   -4.8791    7.6187 H   0  0  0  0  0  0  0  0  0  0  0  0
    3.4124   -3.7365    9.6472 H   0  0  0  0  0  0  0  0  0  0  0  0
    2.6864    1.8062    7.9437 H   0  0  0  0  0  0  0  0  0  0  0  0
    2.8967    3.7521   13.8445 H   0  0  0  0  0  0  0  0  0  0  0  0
    5.4637   -0.9101    7.1615 H   0  0  0  0  0  0  0  0  0  0  0  0
    2.0386   -1.0584    3.9732 H   0  0  0  0  0  0  0  0  0  0  0  0
    2.2495   -2.3795   11.2638 H   0  0  0  0  0  0  0  0  0  0  0  0
    1.7041    1.3755    3.8022 H   0  0  0  0  0  0  0  0  0  0  0  0
    1.4396   -2.7061    8.9473 H   0  0  0  0  0  0  0  0  0  0  0  0
    5.0888   -1.0812   11.4854 H   0  0  0  0  0  0  0  0  0  0  0  0
    2.7002   -2.0695    6.1259 H   0  0  0  0  0  0  0  0  0  0  0  0
    7.5104   -2.2027   14.8339 H   0  0  0  0  0  0  0  0  0  0  0  0
    1.2061    0.3385   11.0006 H   0  0  0  0  0  0  0  0  0  0  0  0
    5.1095   -5.4244    9.1223 H   0  0  0  0  0  0  0  0  0  0  0  0
    2.0186    2.8145    5.7793 H   0  0  0  0  0  0  0  0  0  0  0  0
    6.4084    2.7050   11.6210 H   0  0  0  0  0  0  0  0  0  0  0  0
    6.5896   -2.7077   12.6016 H   0  0  0  0  0  0  0  0  0  0  0  0
    6.9382   -0.0903   15.9621 H   0  0  0  0  0  0  0  0  0  0  0  0
    3.8775    5.9416   14.3538 H   0  0  0  0  0  0  0  0  0  0  0  0
    7.1663   -2.6211    6.6394 H   0  0  0  0  0  0  0  0  0  0  0  0
    7.3874    4.9155   12.1435 H   0  0  0  0  0  0  0  0  0  0  0  0
    6.1161    6.5291   13.5117 H   0  0  0  0  0  0  0  0  0  0  0  0
    0.5299   -1.9390   11.2334 H   0  0  0  0  0  0  0  0  0  0  0  0
  1  2  1  6  0  0  0
  1  5  1  0  0  0  0
  1  3  1  0  0  0  0
  3 11  1  0  0  0  0
  3 25  1  0  0  0  0
  3 26  1  0  0  0  0
  4  6  1  0  0  0  0
  4  1  1  0  0  0  0
  5 52  1  6  0  0  0
  5  7  1  0  0  0  0
  6 15  1  0  0  0  0
  7 34  1  0  0  0  0
  7 35  1  0  0  0  0
  7 26  1  0  0  0  0
  8 30  2  0  0  0  0
  8 21  1  0  0  0  0
  9 16  2  0  0  0  0
  9 33  1  0  0  0  0
 10  4  1  0  0  0  0
 11 12  1  0  0  0  0
 12 23  2  0  0  0  0
 12 43  1  0  0  0  0
 13 39  1  0  0  0  0
 13 14  1  0  0  0  0
 14 57  1  0  0  0  0
 15 62  1  0  0  0  0
 15 46  1  0  0  0  0
 15  5  1  0  0  0  0
 16 22  1  0  0  0  0
 17 31  1  0  0  0  0
 18 19  1  0  0  0  0
 18 53  1  0  0  0  0
 19 41  1  0  0  0  0
 20 50  1  0  0  0  0
 20 10  2  0  0  0  0
 21 24  2  0  0  0  0
 22  4  1  0  0  0  0
 22 19  2  0  0  0  0
 23 58  1  0  0  0  0
 24 10  1  0  0  0  0
 24 42  1  0  0  0  0
 25 13  2  0  0  0  0
 26 37  1  0  0  0  0
 27 17  2  0  0  0  0
 27 25  1  0  0  0  0
 28 29  1  0  0  0  0
 28 11  2  0  0  0  0
 29 32  2  0  0  0  0
 30 20  1  0  0  0  0
 31 51  1  0  0  0  0
 31 14  2  0  0  0  0
 32 61  1  0  0  0  0
 32 23  1  0  0  0  0
 33 18  2  0  0  0  0
 36 26  1  0  0  0  0
 38  6  1  0  0  0  0
 40 33  1  0  0  0  0
 44 16  1  0  0  0  0
 45 30  1  0  0  0  0
 47  8  1  0  0  0  0
 48  6  1  0  0  0  0
 49 27  1  0  0  0  0
 54 21  1  0  0  0  0
 55 28  1  0  0  0  0
 56 17  1  0  0  0  0
 59  9  1  0  0  0  0
 60 29  1  0  0  0  0
M  END
$$$$
