CSD_code = BUXCUU | q = 1 | S = 0 | Stoichiometry = C21H47ClNNiP2(1+) | MND = 4
 OpenBabel04212202013D

 73 74  0  0  1  0  0  0  0  0999 V2000
    3.6674    4.0056   12.3445 Ni  0  0  2  0  0  0  0  0  0  0  0  0
    5.1152    2.3414   12.5150 P   0  0  0  0  0  4  0  0  0  0  0  0
    2.2530    5.6869   12.5980 P   0  0  0  0  0  4  0  0  0  0  0  0
    2.1609    2.7306   11.7857 Cl  0  0  0  0  0  0  0  0  0  0  0  0
    5.2081    5.3153   12.6095 N   0  0  2  0  0  4  0  0  0  0  0  0
    2.2687    5.5578   15.3410 C   0  0  0  0  0  0  0  0  0  0  0  0
    3.0079    4.7817   15.1264 H   0  0  0  0  0  0  0  0  0  0  0  0
    1.7643    5.2847   16.2656 H   0  0  0  0  0  0  0  0  0  0  0  0
    2.7716    6.5072   15.5086 H   0  0  0  0  0  0  0  0  0  0  0  0
    6.3636    4.7008   13.2916 C   0  0  0  0  0  0  0  0  0  0  0  0
    6.1261    4.6274   14.3542 H   0  0  0  0  0  0  0  0  0  0  0  0
    7.2403    5.3564   13.1913 H   0  0  0  0  0  0  0  0  0  0  0  0
    4.7979    6.5273   13.3448 C   0  0  0  0  0  0  0  0  0  0  0  0
    5.5784    7.2958   13.2504 H   0  0  0  0  0  0  0  0  0  0  0  0
    4.7171    6.2670   14.4016 H   0  0  0  0  0  0  0  0  0  0  0  0
    5.1050    2.2880   15.2660 C   0  0  0  0  0  0  0  0  0  0  0  0
    6.1317    2.6203   15.4008 H   0  0  0  0  0  0  0  0  0  0  0  0
    4.7934    1.8007   16.1878 H   0  0  0  0  0  0  0  0  0  0  0  0
    4.4550    3.1529   15.1144 H   0  0  0  0  0  0  0  0  0  0  0  0
    6.6920    3.3125   12.7444 C   0  0  0  0  0  0  0  0  0  0  0  0
    7.3793    2.7994   13.4178 H   0  0  0  0  0  0  0  0  0  0  0  0
    7.1842    3.3995   11.7756 H   0  0  0  0  0  0  0  0  0  0  0  0
   -0.0365    5.3942   11.0009 C   0  0  0  0  0  0  0  0  0  0  0  0
    0.1992    4.3336   11.0552 H   0  0  0  0  0  0  0  0  0  0  0  0
   -0.5167    5.5835   10.0426 H   0  0  0  0  0  0  0  0  0  0  0  0
   -0.7521    5.6465   11.7782 H   0  0  0  0  0  0  0  0  0  0  0  0
    5.6083    5.6975   11.2488 C   0  0  0  0  0  0  0  0  0  0  0  0
    5.9185    4.8238   10.6816 H   0  0  0  0  0  0  0  0  0  0  0  0
    6.4424    6.4079   11.2815 H   0  0  0  0  0  0  0  0  0  0  0  0
    4.7784    6.1608   10.7219 H   0  0  0  0  0  0  0  0  0  0  0  0
    3.4633    7.0847   12.8520 C   0  0  0  0  0  0  0  0  0  0  0  0
    3.6007    7.5945   11.8983 H   0  0  0  0  0  0  0  0  0  0  0  0
    3.0797    7.8164   13.5636 H   0  0  0  0  0  0  0  0  0  0  0  0
    4.9632    1.3105   14.0957 C   0  0  0  0  0  0  0  0  0  0  0  0
    5.4586    1.2854   10.9843 C   0  0  0  0  0  0  0  0  0  0  0  0
    2.1128    5.9594    9.8873 C   0  0  0  0  0  0  0  0  0  0  0  0
    2.9135    6.6907    9.7898 H   0  0  0  0  0  0  0  0  0  0  0  0
    1.5171    6.0112    8.9789 H   0  0  0  0  0  0  0  0  0  0  0  0
    2.5424    4.9547    9.9457 H   0  0  0  0  0  0  0  0  0  0  0  0
    5.2858    2.2400    9.7956 C   0  0  0  0  0  0  0  0  0  0  0  0
    4.3677    2.8263    9.8994 H   0  0  0  0  0  0  0  0  0  0  0  0
    5.2111    1.6713    8.8715 H   0  0  0  0  0  0  0  0  0  0  0  0
    6.1357    2.9127    9.6924 H   0  0  0  0  0  0  0  0  0  0  0  0
    1.2295    6.2442   11.1089 C   0  0  0  0  0  0  0  0  0  0  0  0
    4.4127    0.1761   10.8714 C   0  0  0  0  0  0  0  0  0  0  0  0
    4.5597   -0.5882   11.6293 H   0  0  0  0  0  0  0  0  0  0  0  0
    4.5037   -0.3068    9.9002 H   0  0  0  0  0  0  0  0  0  0  0  0
    3.4057    0.5788   10.9543 H   0  0  0  0  0  0  0  0  0  0  0  0
    1.2479    5.6383   14.2019 C   0  0  0  0  0  0  0  0  0  0  0  0
    6.0202    0.2177   14.2102 C   0  0  0  0  0  0  0  0  0  0  0  0
    5.8289   -0.5952   13.5161 H   0  0  0  0  0  0  0  0  0  0  0  0
    5.9891   -0.1979   15.2163 H   0  0  0  0  0  0  0  0  0  0  0  0
    7.0246    0.6017   14.0421 H   0  0  0  0  0  0  0  0  0  0  0  0
    0.4150    4.3565   14.2358 C   0  0  0  0  0  0  0  0  0  0  0  0
   -0.3188    4.3199   13.4384 H   0  0  0  0  0  0  0  0  0  0  0  0
   -0.1153    4.2940   15.1841 H   0  0  0  0  0  0  0  0  0  0  0  0
    1.0569    3.4819   14.1462 H   0  0  0  0  0  0  0  0  0  0  0  0
    3.5594    0.7083   14.1624 C   0  0  0  0  0  0  0  0  0  0  0  0
    2.8067    1.4948   14.1389 H   0  0  0  0  0  0  0  0  0  0  0  0
    3.4449    0.1548   15.0923 H   0  0  0  0  0  0  0  0  0  0  0  0
    3.3628    0.0287   13.3403 H   0  0  0  0  0  0  0  0  0  0  0  0
    0.3551    6.8587   14.3955 C   0  0  0  0  0  0  0  0  0  0  0  0
    0.8995    7.7909   14.2574 H   0  0  0  0  0  0  0  0  0  0  0  0
   -0.0349    6.8512   15.4123 H   0  0  0  0  0  0  0  0  0  0  0  0
   -0.4955    6.8401   13.7205 H   0  0  0  0  0  0  0  0  0  0  0  0
    0.8536    7.7250   11.1294 C   0  0  0  0  0  0  0  0  0  0  0  0
    0.1756    7.9623   11.9419 H   0  0  0  0  0  0  0  0  0  0  0  0
    0.3444    7.9605   10.1963 H   0  0  0  0  0  0  0  0  0  0  0  0
    1.7205    8.3770   11.2008 H   0  0  0  0  0  0  0  0  0  0  0  0
    6.8595    0.6764   10.9452 C   0  0  0  0  0  0  0  0  0  0  0  0
    7.6445    1.4220   11.0432 H   0  0  0  0  0  0  0  0  0  0  0  0
    6.9920    0.1873    9.9815 H   0  0  0  0  0  0  0  0  0  0  0  0
    6.9990   -0.0745   11.7153 H   0  0  0  0  0  0  0  0  0  0  0  0
  1  4  1  6  0  0  0
  1  2  1  0  0  0  0
  1  3  1  0  0  0  0
  1  5  1  0  0  0  0
  2 20  1  0  0  0  0
  2 34  1  0  0  0  0
  3 31  1  0  0  0  0
  3 49  1  0  0  0  0
  5 27  1  6  0  0  0
  5 10  1  0  0  0  0
  5 13  1  0  0  0  0
  6  9  1  0  0  0  0
  6  8  1  0  0  0  0
  7  6  1  0  0  0  0
 10 11  1  0  0  0  0
 12 10  1  0  0  0  0
 13 15  1  0  0  0  0
 14 13  1  0  0  0  0
 16 17  1  0  0  0  0
 16 18  1  0  0  0  0
 19 16  1  0  0  0  0
 20 10  1  0  0  0  0
 20 21  1  0  0  0  0
 22 20  1  0  0  0  0
 23 24  1  0  0  0  0
 23 44  1  0  0  0  0
 23 26  1  0  0  0  0
 25 23  1  0  0  0  0
 27 29  1  0  0  0  0
 28 27  1  0  0  0  0
 30 27  1  0  0  0  0
 31 13  1  0  0  0  0
 31 33  1  0  0  0  0
 32 31  1  0  0  0  0
 34 58  1  0  0  0  0
 34 50  1  0  0  0  0
 34 16  1  0  0  0  0
 35  2  1  0  0  0  0
 36 39  1  0  0  0  0
 36 44  1  0  0  0  0
 37 36  1  0  0  0  0
 38 36  1  0  0  0  0
 40 41  1  0  0  0  0
 40 35  1  0  0  0  0
 42 40  1  0  0  0  0
 43 40  1  0  0  0  0
 44 66  1  0  0  0  0
 44  3  1  0  0  0  0
 45 48  1  0  0  0  0
 45 35  1  0  0  0  0
 45 46  1  0  0  0  0
 47 45  1  0  0  0  0
 49 54  1  0  0  0  0
 49 62  1  0  0  0  0
 49  6  1  0  0  0  0
 50 52  1  0  0  0  0
 51 50  1  0  0  0  0
 53 50  1  0  0  0  0
 54 56  1  0  0  0  0
 55 54  1  0  0  0  0
 57 54  1  0  0  0  0
 58 60  1  0  0  0  0
 59 58  1  0  0  0  0
 61 58  1  0  0  0  0
 62 64  1  0  0  0  0
 63 62  1  0  0  0  0
 65 62  1  0  0  0  0
 66 69  1  0  0  0  0
 66 67  1  0  0  0  0
 68 66  1  0  0  0  0
 70 35  1  0  0  0  0
 70 71  1  0  0  0  0
 70 73  1  0  0  0  0
 72 70  1  0  0  0  0
M  END
$$$$
