CSD_code = BUXGUY | q = 0 | S = 0 | Stoichiometry = C46H39ClOP2Pd | MND = 4
 OpenBabel04212202013D

 90 96  0  0  0  0  0  0  0  0999 V2000
    2.6996    7.2843    3.5525 Pd  0  0  0  0  0  0  0  0  0  0  0  0
    3.3313    5.4411    2.2427 Cl  0  0  0  0  0  0  0  0  0  0  0  0
    1.8051    5.8888    5.0810 P   0  0  0  0  0  4  0  0  0  0  0  0
    3.6042    8.5743    1.9552 P   0  0  0  0  0  4  0  0  0  0  0  0
   -3.0303   10.3646    5.4120 O   0  0  0  0  0  0  0  0  0  0  0  0
    2.3261    8.8473    4.7481 C   0  0  0  0  0  0  0  0  0  0  0  0
    3.4276    9.2019    5.3158 C   0  0  0  0  0  0  0  0  0  0  0  0
    4.6169    9.5134    5.7679 C   0  0  0  0  0  0  0  0  0  0  0  0
    0.9651    9.2975    4.9323 C   0  0  0  0  0  0  0  0  0  0  0  0
   -0.0477    8.7980    4.1051 C   0  0  0  0  0  0  0  0  0  0  0  0
   -1.3579    9.1783    4.2852 C   0  0  0  0  0  0  0  0  0  0  0  0
   -1.7003   10.0688    5.3042 C   0  0  0  0  0  0  0  0  0  0  0  0
   -0.6999   10.5813    6.1237 C   0  0  0  0  0  0  0  0  0  0  0  0
    0.6146   10.2007    5.9334 C   0  0  0  0  0  0  0  0  0  0  0  0
   -3.4379   11.2581    6.4165 C   0  0  0  0  0  0  0  0  0  0  0  0
    1.2118    6.5821    6.6557 C   0  0  0  0  0  0  0  0  0  0  0  0
   -0.1313    6.9192    6.7966 C   0  0  0  0  0  0  0  0  0  0  0  0
   -0.5679    7.5775    7.9300 C   0  0  0  0  0  0  0  0  0  0  0  0
    0.3328    7.9182    8.9257 C   0  0  0  0  0  0  0  0  0  0  0  0
    1.6722    7.5950    8.7858 C   0  0  0  0  0  0  0  0  0  0  0  0
    2.1131    6.9341    7.6543 C   0  0  0  0  0  0  0  0  0  0  0  0
    3.2175    4.8524    5.5758 C   0  0  0  0  0  0  0  0  0  0  0  0
    3.1271    3.5270    5.9784 C   0  0  0  0  0  0  0  0  0  0  0  0
    4.2781    2.8261    6.2962 C   0  0  0  0  0  0  0  0  0  0  0  0
    5.5167    3.4391    6.2136 C   0  0  0  0  0  0  0  0  0  0  0  0
    5.6121    4.7604    5.8053 C   0  0  0  0  0  0  0  0  0  0  0  0
    4.4678    5.4637    5.4829 C   0  0  0  0  0  0  0  0  0  0  0  0
    0.4834    4.7343    4.6229 C   0  0  0  0  0  0  0  0  0  0  0  0
   -0.1916    3.9724    5.5739 C   0  0  0  0  0  0  0  0  0  0  0  0
   -1.1856    3.0989    5.1741 C   0  0  0  0  0  0  0  0  0  0  0  0
   -1.5161    2.9852    3.8323 C   0  0  0  0  0  0  0  0  0  0  0  0
   -0.8541    3.7493    2.8861 C   0  0  0  0  0  0  0  0  0  0  0  0
    0.1425    4.6243    3.2799 C   0  0  0  0  0  0  0  0  0  0  0  0
    2.5899    8.6275    0.4543 C   0  0  0  0  0  0  0  0  0  0  0  0
    2.8822    9.4753   -0.6101 C   0  0  0  0  0  0  0  0  0  0  0  0
    2.0663    9.4783   -1.7264 C   0  0  0  0  0  0  0  0  0  0  0  0
    0.9571    8.6480   -1.7814 C   0  0  0  0  0  0  0  0  0  0  0  0
    0.6547    7.8156   -0.7161 C   0  0  0  0  0  0  0  0  0  0  0  0
    1.4682    7.8073    0.4021 C   0  0  0  0  0  0  0  0  0  0  0  0
    3.9323   10.3417    2.2357 C   0  0  0  0  0  0  0  0  0  0  0  0
    5.2030   10.9010    2.2404 C   0  0  0  0  0  0  0  0  0  0  0  0
    5.3616   12.2482    2.5185 C   0  0  0  0  0  0  0  0  0  0  0  0
    4.2591   13.0372    2.7981 C   0  0  0  0  0  0  0  0  0  0  0  0
    2.9886   12.4811    2.7956 C   0  0  0  0  0  0  0  0  0  0  0  0
    2.8259   11.1390    2.5178 C   0  0  0  0  0  0  0  0  0  0  0  0
    5.2211    7.9033    1.4845 C   0  0  0  0  0  0  0  0  0  0  0  0
    6.0433    7.5722    2.5606 C   0  0  0  0  0  0  0  0  0  0  0  0
    7.2803    7.0019    2.3391 C   0  0  0  0  0  0  0  0  0  0  0  0
    7.6983    6.7509    1.0406 C   0  0  0  0  0  0  0  0  0  0  0  0
    6.8781    7.0682   -0.0284 C   0  0  0  0  0  0  0  0  0  0  0  0
    5.6365    7.6431    0.1871 C   0  0  0  0  0  0  0  0  0  0  0  0
    5.2247   10.2649    5.2843 H   0  0  0  0  0  0  0  0  0  0  0  0
    5.0310    9.0551    6.6539 H   0  0  0  0  0  0  0  0  0  0  0  0
    0.2122    8.0949    3.3051 H   0  0  0  0  0  0  0  0  0  0  0  0
   -2.1453    8.7951    3.6543 H   0  0  0  0  0  0  0  0  0  0  0  0
   -0.9329   11.2744    6.9172 H   0  0  0  0  0  0  0  0  0  0  0  0
    1.3877   10.5954    6.5766 H   0  0  0  0  0  0  0  0  0  0  0  0
   -2.9844   12.2465    6.2863 H   0  0  0  0  0  0  0  0  0  0  0  0
   -3.1978   10.8793    7.4159 H   0  0  0  0  0  0  0  0  0  0  0  0
   -4.5190   11.3437    6.3155 H   0  0  0  0  0  0  0  0  0  0  0  0
   -0.8324    6.6671    6.0127 H   0  0  0  0  0  0  0  0  0  0  0  0
   -1.6128    7.8316    8.0321 H   0  0  0  0  0  0  0  0  0  0  0  0
   -0.0078    8.4384    9.8090 H   0  0  0  0  0  0  0  0  0  0  0  0
    2.3766    7.8639    9.5596 H   0  0  0  0  0  0  0  0  0  0  0  0
    3.1604    6.6877    7.5411 H   0  0  0  0  0  0  0  0  0  0  0  0
    2.1655    3.0365    6.0239 H   0  0  0  0  0  0  0  0  0  0  0  0
    4.2072    1.7919    6.6010 H   0  0  0  0  0  0  0  0  0  0  0  0
    6.4107    2.8829    6.4552 H   0  0  0  0  0  0  0  0  0  0  0  0
    6.5801    5.2342    5.7275 H   0  0  0  0  0  0  0  0  0  0  0  0
    4.5294    6.5021    5.1399 H   0  0  0  0  0  0  0  0  0  0  0  0
    0.0538    4.0765    6.6227 H   0  0  0  0  0  0  0  0  0  0  0  0
   -1.7064    2.5046    5.9112 H   0  0  0  0  0  0  0  0  0  0  0  0
   -2.2937    2.3001    3.5272 H   0  0  0  0  0  0  0  0  0  0  0  0
   -1.1134    3.6615    1.8413 H   0  0  0  0  0  0  0  0  0  0  0  0
    0.6859    5.2124    2.5483 H   0  0  0  0  0  0  0  0  0  0  0  0
    3.7406   10.1320   -0.5543 H   0  0  0  0  0  0  0  0  0  0  0  0
    2.2935   10.1311   -2.5569 H   0  0  0  0  0  0  0  0  0  0  0  0
    0.3251    8.6548   -2.6574 H   0  0  0  0  0  0  0  0  0  0  0  0
   -0.2140    7.1752   -0.7599 H   0  0  0  0  0  0  0  0  0  0  0  0
    1.2560    7.1517    1.2474 H   0  0  0  0  0  0  0  0  0  0  0  0
    6.0658   10.2846    2.0267 H   0  0  0  0  0  0  0  0  0  0  0  0
    6.3514   12.6819    2.5205 H   0  0  0  0  0  0  0  0  0  0  0  0
    4.3892   14.0860    3.0213 H   0  0  0  0  0  0  0  0  0  0  0  0
    2.1278   13.0945    3.0177 H   0  0  0  0  0  0  0  0  0  0  0  0
    1.8394   10.6909    2.5221 H   0  0  0  0  0  0  0  0  0  0  0  0
    5.6861    7.7666    3.5712 H   0  0  0  0  0  0  0  0  0  0  0  0
    7.9167    6.7403    3.1723 H   0  0  0  0  0  0  0  0  0  0  0  0
    8.6611    6.2940    0.8638 H   0  0  0  0  0  0  0  0  0  0  0  0
    7.2013    6.8569   -1.0374 H   0  0  0  0  0  0  0  0  0  0  0  0
    4.9874    7.8683   -0.6472 H   0  0  0  0  0  0  0  0  0  0  0  0
  1  6  1  0  0  0  0
  1  3  1  0  0  0  0
  2  1  1  0  0  0  0
  3 22  1  0  0  0  0
  3 16  1  0  0  0  0
  4 40  1  0  0  0  0
  4  1  1  0  0  0  0
  5 15  1  0  0  0  0
  6  9  1  0  0  0  0
  6  7  2  0  0  0  0
  7  8  2  0  0  0  0
  8 53  1  0  0  0  0
  9 14  1  0  0  0  0
 10 11  1  0  0  0  0
 10  9  2  0  0  0  0
 11 12  2  0  0  0  0
 12  5  1  0  0  0  0
 12 13  1  0  0  0  0
 13 56  1  0  0  0  0
 14 13  2  0  0  0  0
 14 57  1  0  0  0  0
 15 59  1  0  0  0  0
 16 17  2  0  0  0  0
 16 21  1  0  0  0  0
 17 18  1  0  0  0  0
 18 62  1  0  0  0  0
 18 19  2  0  0  0  0
 19 63  1  0  0  0  0
 20 19  1  0  0  0  0
 20 64  1  0  0  0  0
 21 20  2  0  0  0  0
 22 23  1  0  0  0  0
 23 66  1  0  0  0  0
 23 24  2  0  0  0  0
 24 67  1  0  0  0  0
 25 24  1  0  0  0  0
 25 68  1  0  0  0  0
 26 25  2  0  0  0  0
 27 22  2  0  0  0  0
 27 26  1  0  0  0  0
 28  3  1  0  0  0  0
 28 29  1  0  0  0  0
 29 71  1  0  0  0  0
 30 29  2  0  0  0  0
 30 72  1  0  0  0  0
 31 30  1  0  0  0  0
 32 33  1  0  0  0  0
 32 31  2  0  0  0  0
 33 28  2  0  0  0  0
 34  4  1  0  0  0  0
 35 76  1  0  0  0  0
 35 34  2  0  0  0  0
 36 35  1  0  0  0  0
 37 36  2  0  0  0  0
 37 38  1  0  0  0  0
 38 39  2  0  0  0  0
 39 34  1  0  0  0  0
 39 80  1  0  0  0  0
 40 41  2  0  0  0  0
 40 45  1  0  0  0  0
 41 42  1  0  0  0  0
 42 82  1  0  0  0  0
 42 43  2  0  0  0  0
 43 83  1  0  0  0  0
 44 43  1  0  0  0  0
 44 84  1  0  0  0  0
 45 85  1  0  0  0  0
 45 44  2  0  0  0  0
 46  4  1  0  0  0  0
 46 47  1  0  0  0  0
 47 86  1  0  0  0  0
 48 47  2  0  0  0  0
 48 87  1  0  0  0  0
 49 48  1  0  0  0  0
 50 51  1  0  0  0  0
 50 49  2  0  0  0  0
 51 46  2  0  0  0  0
 52  8  1  0  0  0  0
 54 10  1  0  0  0  0
 55 11  1  0  0  0  0
 58 15  1  0  0  0  0
 60 15  1  0  0  0  0
 61 17  1  0  0  0  0
 65 21  1  0  0  0  0
 69 26  1  0  0  0  0
 70 27  1  0  0  0  0
 73 31  1  0  0  0  0
 74 32  1  0  0  0  0
 75 33  1  0  0  0  0
 77 36  1  0  0  0  0
 78 37  1  0  0  0  0
 79 38  1  0  0  0  0
 81 41  1  0  0  0  0
 88 49  1  0  0  0  0
 89 50  1  0  0  0  0
 90 51  1  0  0  0  0
M  END
$$$$
