CSD_code = BUXJIO | q = 0 | S = 0 | Stoichiometry = C26H20Cl2N2O3PRe | MND = 6
 OpenBabel04212202013D

 55 60  0  0  0  0  0  0  0  0999 V2000
   13.0468    0.2456    6.2350 Re  0  0  0  0  0  0  0  0  0  0  0  0
   13.8983   -0.1224    3.9742 P   0  0  0  0  0  4  0  0  0  0  0  0
   12.2406   -0.5457    8.2023 Cl  0  0  0  0  0  0  0  0  0  0  0  0
   10.9881   -0.0419    5.3605 Cl  0  0  0  0  0  0  0  0  0  0  0  0
   13.1609    1.9061    6.2668 O   0  0  0  0  0  1  0  0  0  0  0  0
   15.6735   -0.4472    4.0985 C   0  0  0  0  0  0  0  0  0  0  0  0
   16.2171   -1.7072    3.8822 C   0  0  0  0  0  0  0  0  0  0  0  0
   15.5906   -2.5115    3.5248 H   0  0  0  0  0  0  0  0  0  0  0  0
   17.5574   -1.9295    4.1505 C   0  0  0  0  0  0  0  0  0  0  0  0
   17.9748   -2.9126    3.9972 H   0  0  0  0  0  0  0  0  0  0  0  0
   18.3516   -0.9043    4.6347 C   0  0  0  0  0  0  0  0  0  0  0  0
   19.3917   -1.0869    4.8591 H   0  0  0  0  0  0  0  0  0  0  0  0
   17.8137    0.3581    4.8420 C   0  0  0  0  0  0  0  0  0  0  0  0
   18.4362    1.1556    5.2207 H   0  0  0  0  0  0  0  0  0  0  0  0
   16.4774    0.5867    4.5806 C   0  0  0  0  0  0  0  0  0  0  0  0
   16.0307    1.5582    4.7559 H   0  0  0  0  0  0  0  0  0  0  0  0
   13.7641    1.3521    2.9173 C   0  0  0  0  0  0  0  0  0  0  0  0
   14.7760    1.7308    2.0403 C   0  0  0  0  0  0  0  0  0  0  0  0
   15.6979    1.1667    1.9967 H   0  0  0  0  0  0  0  0  0  0  0  0
   14.6057    2.8405    1.2316 C   0  0  0  0  0  0  0  0  0  0  0  0
   15.3933    3.1337    0.5530 H   0  0  0  0  0  0  0  0  0  0  0  0
   13.4319    3.5736    1.2926 C   0  0  0  0  0  0  0  0  0  0  0  0
   13.3052    4.4393    0.6597 H   0  0  0  0  0  0  0  0  0  0  0  0
   12.4255    3.2006    2.1693 C   0  0  0  0  0  0  0  0  0  0  0  0
   11.5135    3.7755    2.2225 H   0  0  0  0  0  0  0  0  0  0  0  0
   12.5886    2.0942    2.9826 C   0  0  0  0  0  0  0  0  0  0  0  0
   11.8149    1.8021    3.6799 H   0  0  0  0  0  0  0  0  0  0  0  0
   13.2039   -1.4517    2.9535 C   0  0  0  0  0  0  0  0  0  0  0  0
   13.5976   -1.4931    1.6164 C   0  0  0  0  0  0  0  0  0  0  0  0
   14.2680   -0.7399    1.2263 H   0  0  0  0  0  0  0  0  0  0  0  0
   13.1291   -2.4975    0.7913 C   0  0  0  0  0  0  0  0  0  0  0  0
   13.4381   -2.5292   -0.2432 H   0  0  0  0  0  0  0  0  0  0  0  0
   12.2651   -3.4600    1.2905 C   0  0  0  0  0  0  0  0  0  0  0  0
   11.9001   -4.2432    0.6429 H   0  0  0  0  0  0  0  0  0  0  0  0
   11.8718   -3.4164    2.6171 C   0  0  0  0  0  0  0  0  0  0  0  0
   11.1992   -4.1651    3.0071 H   0  0  0  0  0  0  0  0  0  0  0  0
   12.3374   -2.4157    3.4527 C   0  0  0  0  0  0  0  0  0  0  0  0
   12.0341   -2.3911    4.4872 H   0  0  0  0  0  0  0  0  0  0  0  0
   14.9795    0.1017    7.1691 N   0  0  0  0  0  0  0  0  0  0  0  0
   15.7607    1.0058    7.7641 N   0  0  0  0  0  0  0  0  0  0  0  0
   15.4436    1.9586    7.8641 H   0  0  0  0  0  0  0  0  0  0  0  0
   15.5682   -1.0764    7.2022 C   0  0  0  0  0  0  0  0  0  0  0  0
   16.8279   -0.9501    7.8404 C   0  0  0  0  0  0  0  0  0  0  0  0
   16.9107    0.4199    8.1964 C   0  0  0  0  0  0  0  0  0  0  0  0
   18.0290    0.9347    8.8454 C   0  0  0  0  0  0  0  0  0  0  0  0
   18.0886    1.9764    9.1187 H   0  0  0  0  0  0  0  0  0  0  0  0
   19.0497    0.0532    9.1217 C   0  0  0  0  0  0  0  0  0  0  0  0
   19.9348    0.4124    9.6248 H   0  0  0  0  0  0  0  0  0  0  0  0
   18.9764   -1.3028    8.7707 C   0  0  0  0  0  0  0  0  0  0  0  0
   19.8084   -1.9459    9.0140 H   0  0  0  0  0  0  0  0  0  0  0  0
   17.8763   -1.8236    8.1333 C   0  0  0  0  0  3  0  0  0  0  0  0
   17.8006   -2.8625    7.8574 H   0  0  0  0  0  0  0  0  0  0  0  0
   14.8528   -2.2007    6.5092 C   0  0  0  0  0  0  0  0  0  0  0  0
   13.7440   -1.8014    5.9865 O   0  0  0  0  0  0  0  0  0  0  0  0
   15.3202   -3.3154    6.4346 O   0  0  0  0  0  0  0  0  0  0  0  0
  1  5  1  0  0  0  0
  1 39  1  0  0  0  0
  1  3  1  0  0  0  0
  2  6  1  0  0  0  0
  2  1  1  0  0  0  0
  4  1  1  0  0  0  0
  6 15  1  0  0  0  0
  7  6  2  0  0  0  0
  7  9  1  0  0  0  0
  8  7  1  0  0  0  0
  9 11  2  0  0  0  0
 10  9  1  0  0  0  0
 11 13  1  0  0  0  0
 11 12  1  0  0  0  0
 13 14  1  0  0  0  0
 15 16  1  0  0  0  0
 15 13  2  0  0  0  0
 17 26  1  0  0  0  0
 17  2  1  0  0  0  0
 18 17  2  0  0  0  0
 19 18  1  0  0  0  0
 20 22  2  0  0  0  0
 20 18  1  0  0  0  0
 21 20  1  0  0  0  0
 22 24  1  0  0  0  0
 23 22  1  0  0  0  0
 24 25  1  0  0  0  0
 24 26  2  0  0  0  0
 26 27  1  0  0  0  0
 28 37  1  0  0  0  0
 28  2  1  0  0  0  0
 29 28  2  0  0  0  0
 30 29  1  0  0  0  0
 31 33  2  0  0  0  0
 31 29  1  0  0  0  0
 32 31  1  0  0  0  0
 33 35  1  0  0  0  0
 34 33  1  0  0  0  0
 35 36  1  0  0  0  0
 35 37  2  0  0  0  0
 37 38  1  0  0  0  0
 39 42  1  0  0  0  0
 39 40  1  0  0  0  0
 40 41  1  0  0  0  0
 40 44  1  0  0  0  0
 42 43  2  0  0  0  0
 43 51  1  0  0  0  0
 43 44  1  0  0  0  0
 44 45  2  0  0  0  0
 45 46  1  0  0  0  0
 45 47  1  0  0  0  0
 47 48  1  0  0  0  0
 49 50  1  0  0  0  0
 49 47  2  0  0  0  0
 51 49  1  0  0  0  0
 52 51  1  0  0  0  0
 53 42  1  0  0  0  0
 54  1  1  0  0  0  0
 54 53  1  0  0  0  0
 55 53  2  0  0  0  0
M  END
$$$$
