CSD_code = BUXMUC | q = 0 | S = 0 | Stoichiometry = C23H26Cl2O2P2RuS | MND = 6
 OpenBabel04212202013D

 57 60  0  0  0  0  0  0  0  0999 V2000
    2.4472    1.8643    2.3064 Ru  0  0  0  0  0  0  0  0  0  0  0  0
    2.8816    3.4988    1.5925 C   0  0  0  0  0  2  0  0  0  0  0  0
    3.1497    4.5198    1.1459 O   0  0  0  0  0  1  0  0  0  0  0  0
    2.7045    0.8223    0.1914 Cl  0  0  0  0  0  0  0  0  0  0  0  0
    0.2401    2.1635    1.8014 S   0  0  0  0  0  0  0  0  0  0  0  0
   -0.3237    3.2530    2.5888 O   0  0  0  0  0  1  0  0  0  0  0  0
   -0.8542    0.7283    2.0022 C   0  0  0  0  0  0  0  0  0  0  0  0
   -0.1355    2.5264    0.0617 C   0  0  0  0  0  0  0  0  0  0  0  0
    5.6689    0.8472    6.8774 C   0  0  0  0  0  0  0  0  0  0  0  0
    5.6661    0.7734    5.4954 C   0  0  0  0  0  0  0  0  0  0  0  0
    4.5963    1.2909    4.7738 C   0  0  0  0  0  0  0  0  0  0  0  0
    4.5424    1.2620    2.9553 P   0  0  1  0  0  4  0  0  0  0  0  0
    5.1752   -0.3682    2.4533 C   0  0  0  0  0  0  0  0  0  0  0  0
    5.8607    2.3920    2.4282 C   0  0  0  0  0  0  0  0  0  0  0  0
    6.6548    3.1389    3.2877 C   0  0  0  0  0  0  0  0  0  0  0  0
    7.5995    4.0068    2.7656 C   0  0  0  0  0  0  0  0  0  0  0  0
    7.7482    4.1347    1.3951 C   0  0  0  0  0  0  0  0  0  0  0  0
    6.9462    3.3991    0.5354 C   0  0  0  0  0  0  0  0  0  0  0  0
    6.0004    2.5335    1.0487 C   0  0  0  0  0  0  0  0  0  0  0  0
    1.9760   -0.2281    3.3046 Cl  0  0  0  0  0  0  0  0  0  0  0  0
    4.6093    1.4417    7.5459 C   0  0  0  0  0  0  0  0  0  0  0  0
    3.5392    1.9555    6.8349 C   0  0  0  0  0  0  0  0  0  0  0  0
    3.5240    1.8793    5.4472 C   0  0  0  0  0  0  0  0  0  0  0  0
    2.1296    2.5399    4.4702 P   0  0  1  0  0  4  0  0  0  0  0  0
    2.2709    4.3330    4.7879 C   0  0  0  0  0  0  0  0  0  0  0  0
    0.6803    2.0377    5.4356 C   0  0  0  0  0  0  0  0  0  0  0  0
   -0.4307    2.8722    5.5203 C   0  0  0  0  0  0  0  0  0  0  0  0
   -1.5538    2.4559    6.2122 C   0  0  0  0  0  0  0  0  0  0  0  0
   -1.5793    1.2109    6.8193 C   0  0  0  0  0  0  0  0  0  0  0  0
   -0.4756    0.3776    6.7346 C   0  0  0  0  0  0  0  0  0  0  0  0
    0.6514    0.7846    6.0450 C   0  0  0  0  0  0  0  0  0  0  0  0
    6.4984    0.4396    7.4361 H   0  0  0  0  0  0  0  0  0  0  0  0
    6.4937    0.3141    4.9736 H   0  0  0  0  0  0  0  0  0  0  0  0
    6.5338    3.0456    4.3580 H   0  0  0  0  0  0  0  0  0  0  0  0
    8.2182    4.5888    3.4331 H   0  0  0  0  0  0  0  0  0  0  0  0
    8.4848    4.8159    0.9953 H   0  0  0  0  0  0  0  0  0  0  0  0
    7.0543    3.5090   -0.5332 H   0  0  0  0  0  0  0  0  0  0  0  0
    5.3463    1.9705    0.3933 H   0  0  0  0  0  0  0  0  0  0  0  0
    4.6153    1.4980    8.6243 H   0  0  0  0  0  0  0  0  0  0  0  0
    2.7037    2.4050    7.3545 H   0  0  0  0  0  0  0  0  0  0  0  0
   -0.4278    3.8289    5.0221 H   0  0  0  0  0  0  0  0  0  0  0  0
   -2.4153    3.1047    6.2723 H   0  0  0  0  0  0  0  0  0  0  0  0
   -2.4606    0.8878    7.3540 H   0  0  0  0  0  0  0  0  0  0  0  0
   -0.4938   -0.5961    7.2013 H   0  0  0  0  0  0  0  0  0  0  0  0
    1.5049    0.1273    5.9635 H   0  0  0  0  0  0  0  0  0  0  0  0
    4.9990   -0.4600    1.3791 H   0  0  0  0  0  0  0  0  0  0  0  0
    6.2404   -0.4538    2.6690 H   0  0  0  0  0  0  0  0  0  0  0  0
    4.6020   -1.1369    2.9724 H   0  0  0  0  0  0  0  0  0  0  0  0
    1.5059    4.8408    4.2011 H   0  0  0  0  0  0  0  0  0  0  0  0
    2.1480    4.5577    5.8473 H   0  0  0  0  0  0  0  0  0  0  0  0
    3.2539    4.6580    4.4431 H   0  0  0  0  0  0  0  0  0  0  0  0
   -0.8093    0.4208    3.0433 H   0  0  0  0  0  0  0  0  0  0  0  0
   -1.8628    1.0203    1.7341 H   0  0  0  0  0  0  0  0  0  0  0  0
   -0.4750   -0.0618    1.3621 H   0  0  0  0  0  0  0  0  0  0  0  0
   -1.2084    2.6203   -0.0592 H   0  0  0  0  0  0  0  0  0  0  0  0
    0.3581    3.4620   -0.1835 H   0  0  0  0  0  0  0  0  0  0  0  0
    0.2731    1.7211   -0.5399 H   0  0  0  0  0  0  0  0  0  0  0  0
  1 12  1  0  0  0  0
  1 20  1  0  0  0  0
  1 24  1  0  0  0  0
  2  1  1  0  0  0  0
  3  2  1  0  0  0  0
  4  1  1  0  0  0  0
  5  7  1  0  0  0  0
  5  1  1  0  0  0  0
  5  6  1  0  0  0  0
  7 52  1  0  0  0  0
  8  5  1  0  0  0  0
  9 32  1  0  0  0  0
  9 21  1  0  0  0  0
 10  9  2  0  0  0  0
 11 23  2  0  0  0  0
 11 10  1  0  0  0  0
 12 13  1  6  0  0  0
 12 11  1  0  0  0  0
 13 47  1  0  0  0  0
 13 48  1  0  0  0  0
 14 12  1  0  0  0  0
 14 15  1  0  0  0  0
 15 34  1  0  0  0  0
 16 15  2  0  0  0  0
 16 35  1  0  0  0  0
 17 16  1  0  0  0  0
 18 19  1  0  0  0  0
 18 17  2  0  0  0  0
 19 14  2  0  0  0  0
 21 39  1  0  0  0  0
 22 40  1  0  0  0  0
 22 21  2  0  0  0  0
 23 22  1  0  0  0  0
 24 25  1  1  0  0  0
 24 26  1  0  0  0  0
 24 23  1  0  0  0  0
 25 50  1  0  0  0  0
 26 27  2  0  0  0  0
 26 31  1  0  0  0  0
 27 28  1  0  0  0  0
 28 42  1  0  0  0  0
 28 29  2  0  0  0  0
 29 43  1  0  0  0  0
 30 29  1  0  0  0  0
 30 44  1  0  0  0  0
 31 30  2  0  0  0  0
 33 10  1  0  0  0  0
 36 17  1  0  0  0  0
 37 18  1  0  0  0  0
 38 19  1  0  0  0  0
 41 27  1  0  0  0  0
 45 31  1  0  0  0  0
 46 13  1  0  0  0  0
 49 25  1  0  0  0  0
 51 25  1  0  0  0  0
 53  7  1  0  0  0  0
 54  7  1  0  0  0  0
 55  8  1  0  0  0  0
 56  8  1  0  0  0  0
 57  8  1  0  0  0  0
M  END
$$$$
