CSD_code = BUYCAZ | q = 0 | S = 0 | Stoichiometry = C12H36Cl2MoP4 | MND = 6
 OpenBabel04212202013D

 55 54  0  0  0  0  0  0  0  0999 V2000
    4.8374    4.8374    6.1555 Mo  0  0  0  0  0  0  0  0  0  0  0  0
    3.1683    3.1683    5.7412 P   0  0  0  0  0  4  0  0  0  0  0  0
    4.8377    4.8377    3.6965 Cl  0  0  0  0  0  0  0  0  0  0  0  0
    2.2853    2.2853    7.0832 C   0  0  0  0  0  0  0  0  0  0  0  0
    1.7621    3.6928    4.6894 C   0  0  0  0  0  0  0  0  0  0  0  0
    1.5717    1.5717    6.6691 H   0  0  0  0  0  0  0  0  0  0  0  0
    3.0100    1.7650    7.7067 H   0  0  0  0  0  0  0  0  0  0  0  0
    2.1821    4.1120    3.7740 H   0  0  0  0  0  0  0  0  0  0  0  0
    1.1628    4.4525    5.1863 H   0  0  0  0  0  0  0  0  0  0  0  0
    1.1313    2.8364    4.4465 H   0  0  0  0  0  0  0  0  0  0  0  0
    6.5066    3.1684    6.5697 P   0  0  0  0  0  4  0  0  0  0  0  0
    6.5065    6.5065    5.7413 P   0  0  0  0  0  4  0  0  0  0  0  0
    3.1684    6.5066    6.5697 P   0  0  0  0  0  4  0  0  0  0  0  0
    4.8375    4.8375    8.6146 Cl  0  0  0  0  0  0  0  0  0  0  0  0
    3.6928    1.7621    4.6894 C   0  0  0  0  0  0  0  0  0  0  0  0
    1.7650    3.0100    7.7067 H   0  0  0  0  0  0  0  0  0  0  0  0
    7.3897    2.2853    5.2278 C   0  0  0  0  0  0  0  0  0  0  0  0
    5.9822    1.7622    7.6216 C   0  0  0  0  0  0  0  0  0  0  0  0
    7.9129    3.6928    7.6216 C   0  0  0  0  0  0  0  0  0  0  0  0
    7.3897    7.3897    7.0831 C   0  0  0  0  0  0  0  0  0  0  0  0
    7.9128    5.9822    4.6894 C   0  0  0  0  0  0  0  0  0  0  0  0
    5.9822    7.9128    4.6894 C   0  0  0  0  0  0  0  0  0  0  0  0
    2.2853    7.3897    5.2278 C   0  0  0  0  0  0  0  0  0  0  0  0
    3.6928    7.9129    7.6216 C   0  0  0  0  0  0  0  0  0  0  0  0
    1.7622    5.9822    7.6216 C   0  0  0  0  0  0  0  0  0  0  0  0
    4.1120    2.1821    3.7740 H   0  0  0  0  0  0  0  0  0  0  0  0
    4.4525    1.1628    5.1863 H   0  0  0  0  0  0  0  0  0  0  0  0
    2.8364    1.1313    4.4465 H   0  0  0  0  0  0  0  0  0  0  0  0
    8.1032    1.5718    5.6419 H   0  0  0  0  0  0  0  0  0  0  0  0
    7.9100    3.0100    4.6043 H   0  0  0  0  0  0  0  0  0  0  0  0
    6.6650    1.7650    4.6043 H   0  0  0  0  0  0  0  0  0  0  0  0
    5.5630    2.1821    8.5370 H   0  0  0  0  0  0  0  0  0  0  0  0
    5.2226    1.1629    7.1247 H   0  0  0  0  0  0  0  0  0  0  0  0
    6.8387    1.1314    7.8645 H   0  0  0  0  0  0  0  0  0  0  0  0
    7.4929    4.1120    8.5370 H   0  0  0  0  0  0  0  0  0  0  0  0
    8.5122    4.4524    7.1247 H   0  0  0  0  0  0  0  0  0  0  0  0
    8.5436    2.8363    7.8645 H   0  0  0  0  0  0  0  0  0  0  0  0
    8.1031    8.1031    6.6690 H   0  0  0  0  0  0  0  0  0  0  0  0
    6.6650    7.9100    7.7066 H   0  0  0  0  0  0  0  0  0  0  0  0
    7.9100    6.6650    7.7066 H   0  0  0  0  0  0  0  0  0  0  0  0
    7.4929    5.5630    3.7740 H   0  0  0  0  0  0  0  0  0  0  0  0
    8.5122    5.2226    5.1863 H   0  0  0  0  0  0  0  0  0  0  0  0
    8.5435    6.8388    4.4466 H   0  0  0  0  0  0  0  0  0  0  0  0
    5.5630    7.4929    3.7740 H   0  0  0  0  0  0  0  0  0  0  0  0
    5.2226    8.5122    5.1863 H   0  0  0  0  0  0  0  0  0  0  0  0
    6.8388    8.5435    4.4466 H   0  0  0  0  0  0  0  0  0  0  0  0
    1.5718    8.1032    5.6419 H   0  0  0  0  0  0  0  0  0  0  0  0
    1.7650    6.6650    4.6043 H   0  0  0  0  0  0  0  0  0  0  0  0
    3.0100    7.9100    4.6043 H   0  0  0  0  0  0  0  0  0  0  0  0
    4.1120    7.4929    8.5370 H   0  0  0  0  0  0  0  0  0  0  0  0
    4.4524    8.5122    7.1247 H   0  0  0  0  0  0  0  0  0  0  0  0
    2.8363    8.5436    7.8645 H   0  0  0  0  0  0  0  0  0  0  0  0
    2.1821    5.5630    8.5370 H   0  0  0  0  0  0  0  0  0  0  0  0
    1.1629    5.2226    7.1247 H   0  0  0  0  0  0  0  0  0  0  0  0
    1.1314    6.8387    7.8645 H   0  0  0  0  0  0  0  0  0  0  0  0
  1 13  1  0  0  0  0
  1 11  1  0  0  0  0
  1 14  1  0  0  0  0
  2  1  1  0  0  0  0
  2  4  1  0  0  0  0
  3  1  1  0  0  0  0
  4 16  1  0  0  0  0
  4  7  1  0  0  0  0
  5  9  1  0  0  0  0
  5  2  1  0  0  0  0
  6  4  1  0  0  0  0
  8  5  1  0  0  0  0
 10  5  1  0  0  0  0
 11 18  1  0  0  0  0
 11 19  1  0  0  0  0
 12  1  1  0  0  0  0
 12 20  1  0  0  0  0
 13 25  1  0  0  0  0
 13 24  1  0  0  0  0
 15 27  1  0  0  0  0
 15  2  1  0  0  0  0
 17 29  1  0  0  0  0
 17 11  1  0  0  0  0
 18 34  1  0  0  0  0
 18 32  1  0  0  0  0
 19 37  1  0  0  0  0
 19 35  1  0  0  0  0
 20 39  1  0  0  0  0
 20 40  1  0  0  0  0
 21 42  1  0  0  0  0
 21 12  1  0  0  0  0
 22 45  1  0  0  0  0
 22 12  1  0  0  0  0
 23 47  1  0  0  0  0
 23 13  1  0  0  0  0
 24 52  1  0  0  0  0
 24 50  1  0  0  0  0
 25 55  1  0  0  0  0
 25 53  1  0  0  0  0
 26 15  1  0  0  0  0
 28 15  1  0  0  0  0
 30 17  1  0  0  0  0
 31 17  1  0  0  0  0
 33 18  1  0  0  0  0
 36 19  1  0  0  0  0
 38 20  1  0  0  0  0
 41 21  1  0  0  0  0
 43 21  1  0  0  0  0
 44 22  1  0  0  0  0
 46 22  1  0  0  0  0
 48 23  1  0  0  0  0
 49 23  1  0  0  0  0
 51 24  1  0  0  0  0
 54 25  1  0  0  0  0
M  END
$$$$
