CSD_code = BUYKIP | q = 0 | S = 0 | Stoichiometry = C36H30ClP6Rh | MND = 5
 OpenBabel04212202013D

 74 83  0  0  0  0  0  0  0  0999 V2000
    1.8412    3.9273    4.8919 Rh  0  0  0  0  0  0  0  0  0  0  0  0
    1.7133    3.3697    2.6309 Cl  0  0  0  0  0  0  0  0  0  0  0  0
    1.6736    1.6764    5.0998 P   0  0  0  0  0  4  0  0  0  0  0  0
    2.0087    6.0157    4.0261 P   0  0  0  0  0  4  0  0  0  0  0  0
    0.7262    4.4785    6.8609 P   0  0  1  0  0  4  0  0  0  0  0  0
    3.1389    4.3253    6.7834 P   0  0  2  0  0  4  0  0  0  0  0  0
    2.0589    5.8080    7.9714 P   0  0  2  0  0  0  0  0  0  0  0  0
    1.9410    3.6878    8.4969 P   0  0  1  0  0  0  0  0  0  0  0  0
    0.6696    0.9426    7.5534 C   0  0  0  0  0  0  0  0  0  0  0  0
    0.7051    0.4250    8.8339 C   0  0  0  0  0  0  0  0  0  0  0  0
    1.8740   -0.1405    9.3180 C   0  0  0  0  0  0  0  0  0  0  0  0
    3.0026   -0.1886    8.5175 C   0  0  0  0  0  0  0  0  0  0  0  0
    2.9700    0.3226    7.2315 C   0  0  0  0  0  0  0  0  0  0  0  0
    1.7982    0.8812    6.7367 C   0  0  0  0  0  0  0  0  0  0  0  0
    4.2887    1.4229    4.3615 C   0  0  0  0  0  0  0  0  0  0  0  0
    5.3686    0.9407    3.6484 C   0  0  0  0  0  0  0  0  0  0  0  0
    5.1803   -0.0575    2.7051 C   0  0  0  0  0  0  0  0  0  0  0  0
    3.9117   -0.5610    2.4737 C   0  0  0  0  0  0  0  0  0  0  0  0
    2.8261   -0.0838    3.1884 C   0  0  0  0  0  0  0  0  0  0  0  0
    3.0134    0.9017    4.1474 C   0  0  0  0  0  0  0  0  0  0  0  0
   -0.8818    1.7578    4.0198 C   0  0  0  0  0  0  0  0  0  0  0  0
   -2.0837    1.2091    3.6088 C   0  0  0  0  0  0  0  0  0  0  0  0
   -2.2903   -0.1565    3.7073 C   0  0  0  0  0  0  0  0  0  0  0  0
   -1.3003   -0.9752    4.2300 C   0  0  0  0  0  0  0  0  0  0  0  0
   -0.0995   -0.4324    4.6457 C   0  0  0  0  0  0  0  0  0  0  0  0
    0.1194    0.9380    4.5248 C   0  0  0  0  0  0  0  0  0  0  0  0
    0.8653    8.1948    5.4246 C   0  0  0  0  0  0  0  0  0  0  0  0
    0.9205    9.2312    6.3402 C   0  0  0  0  0  0  0  0  0  0  0  0
    2.1150    9.5497    6.9639 C   0  0  0  0  0  0  0  0  0  0  0  0
    3.2612    8.8262    6.6752 C   0  0  0  0  0  0  0  0  0  0  0  0
    3.2096    7.7860    5.7671 C   0  0  0  0  0  0  0  0  0  0  0  0
    2.0138    7.4733    5.1219 C   0  0  0  0  0  0  0  0  0  0  0  0
    3.7783    7.5994    2.5490 C   0  0  0  0  0  0  0  0  0  0  0  0
    4.9446    7.8246    1.8428 C   0  0  0  0  0  0  0  0  0  0  0  0
    5.8589    6.7975    1.6622 C   0  0  0  0  0  0  0  0  0  0  0  0
    5.6123    5.5449    2.1983 C   0  0  0  0  0  0  0  0  0  0  0  0
    4.4450    5.3127    2.9037 C   0  0  0  0  0  0  0  0  0  0  0  0
    3.5167    6.3334    3.0683 C   0  0  0  0  0  0  0  0  0  0  0  0
   -0.6505    5.9670    3.4204 C   0  0  0  0  0  0  0  0  0  0  0  0
   -1.7839    6.1294    2.6484 C   0  0  0  0  0  0  0  0  0  0  0  0
   -1.6749    6.6439    1.3658 C   0  0  0  0  0  0  0  0  0  0  0  0
   -0.4321    6.9834    0.8593 C   0  0  0  0  0  0  0  0  0  0  0  0
    0.7071    6.8262    1.6305 C   0  0  0  0  0  0  0  0  0  0  0  0
    0.5998    6.3295    2.9217 C   0  0  0  0  0  0  0  0  0  0  0  0
   -0.2384    1.3931    7.1692 H   0  0  0  0  0  0  0  0  0  0  0  0
   -0.1756    0.4690    9.4575 H   0  0  0  0  0  0  0  0  0  0  0  0
    1.9057   -0.5402   10.3208 H   0  0  0  0  0  0  0  0  0  0  0  0
    3.9156   -0.6250    8.8960 H   0  0  0  0  0  0  0  0  0  0  0  0
    3.8531    0.2779    6.6096 H   0  0  0  0  0  0  0  0  0  0  0  0
    4.4211    2.2233    5.0858 H   0  0  0  0  0  0  0  0  0  0  0  0
    6.3549    1.3483    3.8186 H   0  0  0  0  0  0  0  0  0  0  0  0
    6.0214   -0.4315    2.1398 H   0  0  0  0  0  0  0  0  0  0  0  0
    3.7628   -1.3246    1.7240 H   0  0  0  0  0  0  0  0  0  0  0  0
    1.8352   -0.4620    2.9837 H   0  0  0  0  0  0  0  0  0  0  0  0
   -0.7079    2.8259    3.9443 H   0  0  0  0  0  0  0  0  0  0  0  0
   -2.8595    1.8472    3.2117 H   0  0  0  0  0  0  0  0  0  0  0  0
   -3.2269   -0.5863    3.3831 H   0  0  0  0  0  0  0  0  0  0  0  0
   -1.4684   -2.0391    4.3165 H   0  0  0  0  0  0  0  0  0  0  0  0
    0.6687   -1.0631    5.0746 H   0  0  0  0  0  0  0  0  0  0  0  0
   -0.0692    7.9522    4.9380 H   0  0  0  0  0  0  0  0  0  0  0  0
    0.0250    9.7906    6.5691 H   0  0  0  0  0  0  0  0  0  0  0  0
    2.1523   10.3585    7.6785 H   0  0  0  0  0  0  0  0  0  0  0  0
    4.1932    9.0680    7.1646 H   0  0  0  0  0  0  0  0  0  0  0  0
    4.0997    7.2098    5.5435 H   0  0  0  0  0  0  0  0  0  0  0  0
    3.0727    8.4038    2.7125 H   0  0  0  0  0  0  0  0  0  0  0  0
    5.1452    8.8046    1.4342 H   0  0  0  0  0  0  0  0  0  0  0  0
    6.7683    6.9790    1.1081 H   0  0  0  0  0  0  0  0  0  0  0  0
    6.3294    4.7478    2.0670 H   0  0  0  0  0  0  0  0  0  0  0  0
    4.2421    4.3340    3.3258 H   0  0  0  0  0  0  0  0  0  0  0  0
   -0.7205    5.5407    4.4186 H   0  0  0  0  0  0  0  0  0  0  0  0
   -2.7507    5.8468    3.0398 H   0  0  0  0  0  0  0  0  0  0  0  0
   -2.5583    6.7655    0.7563 H   0  0  0  0  0  0  0  0  0  0  0  0
   -0.3461    7.3656   -0.1476 H   0  0  0  0  0  0  0  0  0  0  0  0
    1.6760    7.0692    1.2194 H   0  0  0  0  0  0  0  0  0  0  0  0
  1  3  1  0  0  0  0
  2  1  1  0  0  0  0
  3 14  1  0  0  0  0
  4  1  1  0  0  0  0
  4 32  1  0  0  0  0
  5  1  1  6  0  0  0
  5  7  1  0  0  0  0
  5  8  1  0  0  0  0
  6  1  1  6  0  0  0
  6  5  1  0  0  0  0
  6  7  1  0  0  0  0
  6  8  1  0  0  0  0
  7  8  1  0  0  0  0
  9 10  1  0  0  0  0
 10 11  2  0  0  0  0
 10 46  1  0  0  0  0
 11 47  1  0  0  0  0
 12 48  1  0  0  0  0
 12 11  1  0  0  0  0
 13 12  2  0  0  0  0
 14 13  1  0  0  0  0
 14  9  2  0  0  0  0
 15 50  1  0  0  0  0
 16 51  1  0  0  0  0
 16 15  2  0  0  0  0
 17 16  1  0  0  0  0
 18 17  2  0  0  0  0
 18 19  1  0  0  0  0
 19 20  2  0  0  0  0
 20 15  1  0  0  0  0
 20  3  1  0  0  0  0
 21 26  1  0  0  0  0
 22 23  1  0  0  0  0
 22 21  2  0  0  0  0
 23 24  2  0  0  0  0
 24 58  1  0  0  0  0
 24 25  1  0  0  0  0
 25 59  1  0  0  0  0
 26 25  2  0  0  0  0
 26  3  1  0  0  0  0
 27 28  1  0  0  0  0
 28 61  1  0  0  0  0
 28 29  2  0  0  0  0
 29 62  1  0  0  0  0
 30 29  1  0  0  0  0
 30 63  1  0  0  0  0
 31 30  2  0  0  0  0
 32 27  2  0  0  0  0
 32 31  1  0  0  0  0
 33 65  1  0  0  0  0
 33 38  1  0  0  0  0
 34 33  2  0  0  0  0
 35 34  1  0  0  0  0
 35 36  2  0  0  0  0
 36 37  1  0  0  0  0
 37 38  2  0  0  0  0
 37 69  1  0  0  0  0
 38  4  1  0  0  0  0
 39 70  1  0  0  0  0
 40 71  1  0  0  0  0
 40 39  2  0  0  0  0
 41 40  1  0  0  0  0
 42 41  2  0  0  0  0
 42 43  1  0  0  0  0
 43 44  2  0  0  0  0
 44 39  1  0  0  0  0
 44  4  1  0  0  0  0
 45  9  1  0  0  0  0
 49 13  1  0  0  0  0
 52 17  1  0  0  0  0
 53 18  1  0  0  0  0
 54 19  1  0  0  0  0
 55 21  1  0  0  0  0
 56 22  1  0  0  0  0
 57 23  1  0  0  0  0
 60 27  1  0  0  0  0
 64 31  1  0  0  0  0
 66 34  1  0  0  0  0
 67 35  1  0  0  0  0
 68 36  1  0  0  0  0
 72 41  1  0  0  0  0
 73 42  1  0  0  0  0
 74 43  1  0  0  0  0
M  END
$$$$
