CSD_code = BUYSUK | q = 0 | S = 0 | Stoichiometry = C12H9Cl2FN2Pt | MND = 4
 OpenBabel04212202013D

 27 29  0  0  0  0  0  0  0  0999 V2000
    3.5038    8.3202    4.4080 Pt  0  0  0  0  0  0  0  0  0  0  0  0
    4.1358   10.0160    5.7035 Cl  0  0  0  0  0  0  0  0  0  0  0  0
    4.3325    6.9248    5.9466 Cl  0  0  0  0  0  0  0  0  0  0  0  0
    3.0519    1.5286    4.2336 F   0  0  0  0  0  0  0  0  0  0  0  0
    2.8617    9.4882    2.9074 N   0  0  0  0  0  0  0  0  0  0  0  0
    2.9072    6.9083    3.1443 N   0  0  0  0  0  0  0  0  0  0  0  0
    2.8166   10.8177    2.8654 C   0  0  0  0  0  0  0  0  0  0  0  0
    3.1060   11.3280    3.7751 H   0  0  0  0  0  0  0  0  0  0  0  0
    2.4330   11.5077    1.7314 C   0  0  0  0  0  0  0  0  0  0  0  0
    2.4113   12.5850    1.7418 H   0  0  0  0  0  0  0  0  0  0  0  0
    2.0809   10.7961    0.5862 C   0  0  0  0  0  0  0  0  0  0  0  0
    1.7813   11.3138   -0.3117 H   0  0  0  0  0  0  0  0  0  0  0  0
    2.1227    9.4187    0.6218 C   0  0  0  0  0  0  0  0  0  0  0  0
    1.8605    8.8246   -0.2394 H   0  0  0  0  0  0  0  0  0  0  0  0
    2.5167    8.7788    1.8020 C   0  0  0  0  0  0  0  0  0  0  0  0
    2.5574    7.3611    1.9747 C   0  0  0  0  0  0  0  0  0  0  0  0
    2.2474    6.6961    1.1748 H   0  0  0  0  0  0  0  0  0  0  0  0
    2.9329    5.5361    3.3959 C   0  0  0  0  0  0  0  0  0  0  0  0
    2.3739    5.0537    4.5814 C   0  0  0  0  0  0  0  0  0  0  0  0
    1.9035    5.7456    5.2634 H   0  0  0  0  0  0  0  0  0  0  0  0
    2.4083    3.7035    4.8640 C   0  0  0  0  0  0  0  0  0  0  0  0
    1.9840    3.3140    5.7750 H   0  0  0  0  0  0  0  0  0  0  0  0
    3.0130    2.8450    3.9615 C   0  0  0  0  0  0  0  0  0  0  0  0
    3.5760    3.3000    2.7812 C   0  0  0  0  0  0  0  0  0  0  0  0
    4.0488    2.6031    2.1077 H   0  0  0  0  0  0  0  0  0  0  0  0
    3.5280    4.6501    2.4967 C   0  0  0  0  0  0  0  0  0  0  0  0
    3.9926    5.0287    1.5984 H   0  0  0  0  0  0  0  0  0  0  0  0
  1  2  1  0  0  0  0
  1  3  1  0  0  0  0
  5  1  1  0  0  0  0
  6 18  1  0  0  0  0
  6  1  1  0  0  0  0
  7  5  1  0  0  0  0
  7  8  1  0  0  0  0
  9 10  1  0  0  0  0
  9  7  2  0  0  0  0
 11 13  2  0  0  0  0
 11  9  1  0  0  0  0
 12 11  1  0  0  0  0
 13 15  1  0  0  0  0
 14 13  1  0  0  0  0
 15 16  2  0  0  0  0
 15  5  1  0  0  0  0
 16  6  1  0  0  0  0
 17 16  1  0  0  0  0
 18 19  1  0  0  0  0
 19 21  2  0  0  0  0
 19 20  1  0  0  0  0
 21 22  1  0  0  0  0
 23  4  1  0  0  0  0
 23 21  1  0  0  0  0
 24 23  2  0  0  0  0
 25 24  1  0  0  0  0
 26 24  1  0  0  0  0
 26 18  2  0  0  0  0
 27 26  1  0  0  0  0
M  END
$$$$
