CSD_code = BUYWEZ | q = 0 | S = 0 | Stoichiometry = C17H13CdI2N3O2 | MND = 5
 OpenBabel04212202013D

 38 41  0  0  1  0  0  0  0  0999 V2000
    8.1539    0.4623   10.1184 Cd  0  0  0  0  0  0  0  0  0  0  0  0
    5.7023    1.5025   10.4866 I   0  0  0  0  0  0  0  0  0  0  0  0
   10.8132    0.5805   10.3952 I   0  0  0  0  0  0  0  0  0  0  0  0
    7.5019   -1.9786    9.6783 N   0  0  0  0  0  0  0  0  0  0  0  0
    7.5347   -3.0334   10.3894 C   0  0  0  0  0  3  0  0  0  0  0  0
    6.9615   -3.9191   10.0836 H   0  0  0  0  0  0  0  0  0  0  0  0
    7.6160   -0.0180    7.8414 O   0  0  0  0  0  0  0  0  0  0  0  0
    6.7206   -1.9546    8.5791 N   0  0  0  0  0  0  0  0  0  0  0  0
    6.0653   -2.7196    8.4192 H   0  0  0  0  0  0  0  0  0  0  0  0
    8.0366   -0.9338   12.3336 N   0  0  0  0  0  0  0  0  0  0  0  0
    5.8410   -0.9392    6.5724 C   0  0  0  0  0  0  0  0  0  0  0  0
    9.0585   -0.1704   14.3641 C   0  0  0  0  0  0  0  0  0  0  0  0
    9.1892    0.6456   15.0567 H   0  0  0  0  0  0  0  0  0  0  0  0
    9.7279   -4.6958   12.9012 C   0  0  0  0  0  0  0  0  0  0  0  0
   10.1421   -5.6833   13.0350 H   0  0  0  0  0  0  0  0  0  0  0  0
    4.4173   -2.0499    4.9832 C   0  0  0  0  0  0  0  0  0  0  0  0
    4.0175   -2.9628    4.5624 H   0  0  0  0  0  0  0  0  0  0  0  0
    5.4668    0.2910    6.0236 C   0  0  0  0  0  0  0  0  0  0  0  0
    5.8845    1.1934    6.4426 H   0  0  0  0  0  0  0  0  0  0  0  0
    4.0317   -0.8191    4.4546 C   0  0  0  0  0  0  0  0  0  0  0  0
    8.2293   -0.0094   13.2438 C   0  0  0  0  0  0  0  0  0  0  0  0
    7.6955    0.9258   13.1017 H   0  0  0  0  0  0  0  0  0  0  0  0
    8.8809   -4.4496   11.8180 C   0  0  0  0  0  0  0  0  0  0  0  0
    8.6568   -5.2561   11.1345 H   0  0  0  0  0  0  0  0  0  0  0  0
    6.8011   -0.9147    7.6886 C   0  0  1  0  0  3  0  0  0  0  0  0
    4.5676    0.3550    4.9856 C   0  0  0  0  0  0  0  0  0  0  0  0
    4.2627    1.2991    4.5650 H   0  0  0  0  0  0  0  0  0  0  0  0
    9.6877   -1.3709   14.5401 C   0  0  0  0  0  0  0  0  0  0  0  0
   10.3419   -1.5476   15.3814 H   0  0  0  0  0  0  0  0  0  0  0  0
    8.6260   -2.1383   12.4948 C   0  0  0  0  0  0  0  0  0  0  0  0
   10.0243   -3.6915   13.7811 C   0  0  0  0  0  0  0  0  0  0  0  0
   10.6783   -3.8649   14.6227 H   0  0  0  0  0  0  0  0  0  0  0  0
    5.3087   -2.1097    6.0346 C   0  0  0  0  0  0  0  0  0  0  0  0
    5.6123   -3.0807    6.3993 H   0  0  0  0  0  0  0  0  0  0  0  0
    8.3566   -3.1941   11.5736 C   0  0  0  0  0  0  0  0  0  0  0  0
    9.4618   -2.4108   13.6143 C   0  0  0  0  0  0  0  0  0  0  0  0
    3.1585   -0.7170    3.4329 O   0  0  0  0  0  0  0  0  0  0  0  0
    2.8549   -1.5894    3.1513 H   0  0  0  0  0  0  0  0  0  0  0  0
  1  3  1  0  0  0  0
  1  2  1  0  0  0  0
  4  1  1  0  0  0  0
  4  5  1  0  0  0  0
  5 35  1  0  0  0  0
  6  5  1  0  0  0  0
  7  1  1  0  0  0  0
  8  4  1  0  0  0  0
  9  8  1  0  0  0  0
 10 30  2  0  0  0  0
 10 21  1  0  0  0  0
 12 28  1  0  0  0  0
 12 13  1  0  0  0  0
 14 15  1  0  0  0  0
 14 31  2  0  0  0  0
 16 33  2  0  0  0  0
 17 16  1  0  0  0  0
 18 19  1  0  0  0  0
 18 11  2  0  0  0  0
 20 16  1  0  0  0  0
 20 26  2  0  0  0  0
 21 12  2  0  0  0  0
 22 21  1  0  0  0  0
 23 14  1  0  0  0  0
 24 23  1  0  0  0  0
 25 11  1  1  0  0  0
 25  7  1  0  0  0  0
 25  8  1  0  0  0  0
 26 18  1  0  0  0  0
 27 26  1  0  0  0  0
 28 29  1  0  0  0  0
 30 36  1  0  0  0  0
 31 32  1  0  0  0  0
 33 34  1  0  0  0  0
 33 11  1  0  0  0  0
 35 23  2  0  0  0  0
 35 30  1  0  0  0  0
 36 31  1  0  0  0  0
 36 28  2  0  0  0  0
 37 20  1  0  0  0  0
 38 37  1  0  0  0  0
M  END
$$$$
