CSD_code = BUZCEE | q = 0 | S = 0 | Stoichiometry = C8H8INOPt | MND = 4
 OpenBabel04212202013D

 20 21  0  0  0  0  0  0  0  0999 V2000
    0.1654    3.5803   -0.0000 Pt  0  0  1  0  0  0  0  0  0  0  0  0
    1.7371    1.4728   -0.0001 I   0  0  0  0  0  0  0  0  0  0  0  0
   -1.4933    2.3359    0.0000 N   0  0  0  0  0  4  0  0  0  0  0  0
    2.5479    5.3840   -0.0002 O   0  0  0  0  0  1  0  0  0  0  0  0
    1.6158    4.7287    0.0003 C   0  0  0  0  0  2  0  0  0  0  0  0
   -2.7999    3.0370    0.0000 C   0  0  0  0  0  0  0  0  0  0  0  0
   -2.5770    4.5288   -0.0000 C   0  0  0  0  0  0  0  0  0  0  0  0
   -3.6620    5.3948   -0.0000 C   0  0  0  0  0  0  0  0  0  0  0  0
   -3.4610    6.7616   -0.0000 C   0  0  0  0  0  0  0  0  0  0  0  0
   -2.1699    7.2604    0.0000 C   0  0  0  0  0  0  0  0  0  0  0  0
   -1.0870    6.3971   -0.0000 C   0  0  0  0  0  0  0  0  0  0  0  0
   -1.2637    5.0146   -0.0001 C   0  0  0  0  0  0  0  0  0  0  0  0
   -1.4163    1.7210   -0.8158 H   0  0  0  0  0  0  0  0  0  0  0  0
   -3.3815    2.7492   -0.8830 H   0  0  0  0  0  0  0  0  0  0  0  0
   -4.6649    4.9904   -0.0001 H   0  0  0  0  0  0  0  0  0  0  0  0
   -4.3064    7.4331    0.0000 H   0  0  0  0  0  0  0  0  0  0  0  0
   -2.0019    8.3270    0.0001 H   0  0  0  0  0  0  0  0  0  0  0  0
   -0.0916    6.8187    0.0000 H   0  0  0  0  0  0  0  0  0  0  0  0
   -1.4163    1.7210    0.8159 H   0  0  0  0  0  0  0  0  0  0  0  0
   -3.3816    2.7493    0.8830 H   0  0  0  0  0  0  0  0  0  0  0  0
  1  2  1  6  0  0  0
  1  3  1  0  0  0  0
  1  5  1  0  0  0  0
  3 19  1  0  0  0  0
  4  5  1  0  0  0  0
  6  3  1  0  0  0  0
  6 20  1  0  0  0  0
  7  6  1  0  0  0  0
  8  7  1  0  0  0  0
  8  9  2  0  0  0  0
  9 16  1  0  0  0  0
  9 10  1  0  0  0  0
 10 17  1  0  0  0  0
 11 18  1  0  0  0  0
 11 10  2  0  0  0  0
 12  7  2  0  0  0  0
 12  1  1  0  0  0  0
 12 11  1  0  0  0  0
 13  3  1  0  0  0  0
 14  6  1  0  0  0  0
 15  8  1  0  0  0  0
M  END
$$$$
