CSD_code = BUZHAH | q = 0 | S = 0 | Stoichiometry = C29H52BBr3NPPt | MND = 4
 OpenBabel04212202013D

 88 89  0  0  1  0  0  0  0  0999 V2000
    0.0374    5.4062    4.0520 Pt  0  0  1  0  0  0  0  0  0  0  0  0
    1.4479    6.4752    3.1119 C   0  0  1  0  0  3  0  0  0  0  0  0
    2.1157    7.5444    3.4782 N   0  0  0  0  0  0  0  0  0  0  0  0
   -1.4201    3.6930    4.8515 P   0  0  0  0  0  4  0  0  0  0  0  0
    1.9609    4.0763    5.1588 Br  0  0  0  0  0  0  0  0  0  0  0  0
   -1.4495    6.6422    3.5062 B   0  0  0  0  0  0  0  0  0  0  0  0
   -2.0220    8.0478    4.6857 Br  0  0  0  0  0  0  0  0  0  0  0  0
    2.0892    5.9072    1.8503 C   0  0  0  0  0  0  0  0  0  0  0  0
   -2.5207    6.5604    1.9051 Br  0  0  0  0  0  0  0  0  0  0  0  0
    3.3551    6.7683    1.6475 C   0  0  0  0  0  0  0  0  0  0  0  0
    4.2296    6.1479    1.4652 H   0  0  0  0  0  0  0  0  0  0  0  0
    3.2313    7.4358    0.7930 H   0  0  0  0  0  0  0  0  0  0  0  0
    4.4118    6.8326    3.9329 C   0  0  0  0  0  0  0  0  0  0  0  0
    5.3905    6.6813    3.4835 H   0  0  0  0  0  0  0  0  0  0  0  0
    4.0032    5.8591    4.1924 H   0  0  0  0  0  0  0  0  0  0  0  0
    4.5428    7.4124    4.8424 H   0  0  0  0  0  0  0  0  0  0  0  0
    1.0841    6.1415    0.7078 C   0  0  0  0  0  0  0  0  0  0  0  0
    1.5477    5.8713   -0.2388 H   0  0  0  0  0  0  0  0  0  0  0  0
    0.7706    7.1812    0.6518 H   0  0  0  0  0  0  0  0  0  0  0  0
    0.1964    5.5267    0.8388 H   0  0  0  0  0  0  0  0  0  0  0  0
    2.4188    4.4155    1.8795 C   0  0  0  0  0  0  0  0  0  0  0  0
    2.7684    4.1036    0.8970 H   0  0  0  0  0  0  0  0  0  0  0  0
    1.5306    3.8346    2.1240 H   0  0  0  0  0  0  0  0  0  0  0  0
    3.1909    4.1922    2.6100 H   0  0  0  0  0  0  0  0  0  0  0  0
    3.5058    7.5741    2.9422 C   0  0  0  0  0  0  0  0  0  0  0  0
    1.5861    8.6349    4.2469 C   0  0  0  0  0  0  0  0  0  0  0  0
    4.0704    8.9726    2.7380 C   0  0  0  0  0  0  0  0  0  0  0  0
    5.1417    8.8935    2.5682 H   0  0  0  0  0  0  0  0  0  0  0  0
    3.9097    9.5849    3.6229 H   0  0  0  0  0  0  0  0  0  0  0  0
    3.6341    9.4702    1.8792 H   0  0  0  0  0  0  0  0  0  0  0  0
    0.5498   10.7942    5.6663 C   0  0  0  0  0  0  0  0  0  0  0  0
    0.1407   11.6281    6.2155 H   0  0  0  0  0  0  0  0  0  0  0  0
    0.5206   10.7894    4.2873 C   0  0  0  0  0  0  0  0  0  0  0  0
    0.0822   11.6256    3.7668 H   0  0  0  0  0  0  0  0  0  0  0  0
    1.0389    9.7304    3.5547 C   0  0  0  0  0  0  0  0  0  0  0  0
    0.9671    9.8330    2.0461 C   0  0  0  0  0  0  0  0  0  0  0  0
    1.5232    9.0050    1.6006 H   0  0  0  0  0  0  0  0  0  0  0  0
    1.6152    8.6305    5.6438 C   0  0  0  0  0  0  0  0  0  0  0  0
    1.0958    9.7202    6.3330 C   0  0  0  0  0  0  0  0  0  0  0  0
    1.1122    9.7175    7.4110 H   0  0  0  0  0  0  0  0  0  0  0  0
    2.1255    7.4639    6.4470 C   0  0  0  0  0  0  0  0  0  0  0  0
    2.5691    6.7246    5.7819 H   0  0  0  0  0  0  0  0  0  0  0  0
   -0.4805    9.7361    1.5616 C   0  0  0  0  0  0  0  0  0  0  0  0
   -0.5286    9.8964    0.4864 H   0  0  0  0  0  0  0  0  0  0  0  0
   -1.1071   10.4768    2.0515 H   0  0  0  0  0  0  0  0  0  0  0  0
   -0.8876    8.7540    1.7711 H   0  0  0  0  0  0  0  0  0  0  0  0
    1.5728   11.1520    1.5478 C   0  0  0  0  0  0  0  0  0  0  0  0
    1.7633   11.0911    0.4779 H   0  0  0  0  0  0  0  0  0  0  0  0
    2.5059   11.3827    2.0563 H   0  0  0  0  0  0  0  0  0  0  0  0
    0.8864   11.9775    1.7153 H   0  0  0  0  0  0  0  0  0  0  0  0
    3.1925    7.8832    7.4592 C   0  0  0  0  0  0  0  0  0  0  0  0
    3.6457    6.9971    7.8971 H   0  0  0  0  0  0  0  0  0  0  0  0
    2.7671    8.4794    8.2623 H   0  0  0  0  0  0  0  0  0  0  0  0
    3.9744    8.4688    6.9783 H   0  0  0  0  0  0  0  0  0  0  0  0
   -1.4597    2.3757    3.5240 C   0  0  0  0  0  0  0  0  0  0  0  0
   -2.3085    1.7151    3.7307 H   0  0  0  0  0  0  0  0  0  0  0  0
   -0.1870    1.5316    3.4929 C   0  0  0  0  0  0  0  0  0  0  0  0
   -0.1782    0.9177    2.5931 H   0  0  0  0  0  0  0  0  0  0  0  0
   -0.1240    0.8654    4.3497 H   0  0  0  0  0  0  0  0  0  0  0  0
    0.7042    2.1545    3.4812 H   0  0  0  0  0  0  0  0  0  0  0  0
   -1.6757    3.0551    2.1741 C   0  0  0  0  0  0  0  0  0  0  0  0
   -1.6501    2.3234    1.3681 H   0  0  0  0  0  0  0  0  0  0  0  0
   -0.8841    3.7862    1.9938 H   0  0  0  0  0  0  0  0  0  0  0  0
   -2.6329    3.5699    2.1303 H   0  0  0  0  0  0  0  0  0  0  0  0
   -0.9952    2.6754    6.3647 C   0  0  0  0  0  0  0  0  0  0  0  0
   -0.0291    2.2384    6.0829 H   0  0  0  0  0  0  0  0  0  0  0  0
   -1.9587    1.5395    6.6914 C   0  0  0  0  0  0  0  0  0  0  0  0
   -1.4905    0.8825    7.4239 H   0  0  0  0  0  0  0  0  0  0  0  0
   -2.2065    0.9405    5.8186 H   0  0  0  0  0  0  0  0  0  0  0  0
   -2.8760    1.9205    7.1344 H   0  0  0  0  0  0  0  0  0  0  0  0
   -0.7413    3.5254    7.6058 C   0  0  0  0  0  0  0  0  0  0  0  0
   -0.2739    2.9104    8.3735 H   0  0  0  0  0  0  0  0  0  0  0  0
   -1.6574    3.9395    8.0168 H   0  0  0  0  0  0  0  0  0  0  0  0
   -0.0635    4.3400    7.3752 H   0  0  0  0  0  0  0  0  0  0  0  0
   -3.2316    4.2010    4.9524 C   0  0  0  0  0  0  0  0  0  0  0  0
   -3.3389    4.9041    4.1161 H   0  0  0  0  0  0  0  0  0  0  0  0
   -4.3055    3.1347    4.7578 C   0  0  0  0  0  0  0  0  0  0  0  0
   -5.2817    3.6095    4.8541 H   0  0  0  0  0  0  0  0  0  0  0  0
   -4.2441    2.3471    5.5016 H   0  0  0  0  0  0  0  0  0  0  0  0
   -4.2566    2.6891    3.7674 H   0  0  0  0  0  0  0  0  0  0  0  0
   -3.4772    4.9848    6.2412 C   0  0  0  0  0  0  0  0  0  0  0  0
   -4.3675    5.6045    6.1432 H   0  0  0  0  0  0  0  0  0  0  0  0
   -2.6366    5.6402    6.4709 H   0  0  0  0  0  0  0  0  0  0  0  0
   -3.6309    4.3096    7.0795 H   0  0  0  0  0  0  0  0  0  0  0  0
    0.9389    6.8000    7.1451 C   0  0  0  0  0  0  0  0  0  0  0  0
    1.2947    5.9721    7.7534 H   0  0  0  0  0  0  0  0  0  0  0  0
    0.2401    6.4203    6.3880 H   0  0  0  0  0  0  0  0  0  0  0  0
    0.4003    7.5003    7.7785 H   0  0  0  0  0  0  0  0  0  0  0  0
  1  4  1  0  0  0  0
  1  5  1  1  0  0  0
  2  3  1  0  0  0  0
  2  1  1  1  0  0  0
  3 26  1  0  0  0  0
  4 75  1  0  0  0  0
  4 65  1  0  0  0  0
  6  1  2  0  0  0  0
  6  7  1  0  0  0  0
  8 21  1  0  0  0  0
  8  2  1  0  0  0  0
  9  6  1  0  0  0  0
 10  8  1  0  0  0  0
 10 25  1  0  0  0  0
 11 10  1  0  0  0  0
 12 10  1  0  0  0  0
 13 15  1  0  0  0  0
 13 16  1  0  0  0  0
 14 13  1  0  0  0  0
 17 20  1  0  0  0  0
 17  8  1  0  0  0  0
 18 17  1  0  0  0  0
 19 17  1  0  0  0  0
 21 23  1  0  0  0  0
 21 24  1  0  0  0  0
 22 21  1  0  0  0  0
 25  3  1  0  0  0  0
 25 13  1  0  0  0  0
 26 38  1  0  0  0  0
 27 25  1  0  0  0  0
 27 29  1  0  0  0  0
 28 27  1  0  0  0  0
 30 27  1  0  0  0  0
 31 32  1  0  0  0  0
 31 39  1  0  0  0  0
 33 31  2  0  0  0  0
 34 33  1  0  0  0  0
 35 26  2  0  0  0  0
 35 33  1  0  0  0  0
 36 35  1  0  0  0  0
 37 36  1  0  0  0  0
 38 39  2  0  0  0  0
 38 41  1  0  0  0  0
 39 40  1  0  0  0  0
 41 85  1  0  0  0  0
 41 51  1  0  0  0  0
 42 41  1  0  0  0  0
 43 46  1  0  0  0  0
 43 36  1  0  0  0  0
 43 45  1  0  0  0  0
 44 43  1  0  0  0  0
 47 50  1  0  0  0  0
 47 36  1  0  0  0  0
 47 49  1  0  0  0  0
 48 47  1  0  0  0  0
 51 52  1  0  0  0  0
 51 53  1  0  0  0  0
 54 51  1  0  0  0  0
 55 56  1  0  0  0  0
 55  4  1  0  0  0  0
 57 55  1  0  0  0  0
 57 59  1  0  0  0  0
 58 57  1  0  0  0  0
 60 57  1  0  0  0  0
 61 55  1  0  0  0  0
 62 61  1  0  0  0  0
 63 61  1  0  0  0  0
 64 61  1  0  0  0  0
 65 67  1  0  0  0  0
 65 71  1  0  0  0  0
 66 65  1  0  0  0  0
 67 70  1  0  0  0  0
 67 68  1  0  0  0  0
 69 67  1  0  0  0  0
 71 73  1  0  0  0  0
 71 72  1  0  0  0  0
 74 71  1  0  0  0  0
 75 81  1  0  0  0  0
 76 75  1  0  0  0  0
 77 78  1  0  0  0  0
 77 75  1  0  0  0  0
 77 79  1  0  0  0  0
 80 77  1  0  0  0  0
 81 83  1  0  0  0  0
 81 84  1  0  0  0  0
 82 81  1  0  0  0  0
 85 86  1  0  0  0  0
 85 88  1  0  0  0  0
 87 85  1  0  0  0  0
M  END
$$$$
