CSD_code = BUZHEL | q = 0 | S = 0 | Stoichiometry = C35H57BBr2NPPt | MND = 4
 OpenBabel04212202013D

 98100  0  0  1  0  0  0  0  0999 V2000
    9.0440   10.3628   12.0020 Pt  0  0  2  0  0  0  0  0  0  0  0  0
    8.7266   10.9645   14.5143 Br  0  0  0  0  0  0  0  0  0  0  0  0
   11.1511   11.4160   12.0785 P   0  0  0  0  0  4  0  0  0  0  0  0
    6.1727    9.5467   12.3548 N   0  0  0  0  0  0  0  0  0  0  0  0
    8.5734   11.5730    9.2471 C   0  0  0  0  0  0  0  0  0  0  0  0
    9.0692   10.2855    9.9868 B   0  0  0  0  0  0  0  0  0  0  0  0
    9.7462    8.8821    8.8786 Br  0  0  0  0  0  0  0  0  0  0  0  0
    7.7855   12.4981    9.9455 C   0  0  0  0  0  0  0  0  0  0  0  0
    7.5307   12.2813   10.9782 H   0  0  0  0  0  0  0  0  0  0  0  0
    7.3176   13.6534    9.3546 C   0  0  0  0  0  0  0  0  0  0  0  0
    6.7001   14.3364    9.9195 H   0  0  0  0  0  0  0  0  0  0  0  0
    7.6477   13.9348    8.0382 C   0  0  0  0  0  0  0  0  0  0  0  0
    7.2893   14.8397    7.5695 H   0  0  0  0  0  0  0  0  0  0  0  0
    8.4429   13.0512    7.3271 C   0  0  0  0  0  0  0  0  0  0  0  0
    8.7083   13.2680    6.3022 H   0  0  0  0  0  0  0  0  0  0  0  0
    8.8923   11.8864    7.9201 C   0  0  0  0  0  0  0  0  0  0  0  0
    9.5018   11.2054    7.3409 H   0  0  0  0  0  0  0  0  0  0  0  0
   11.9148   11.9280   10.4314 C   0  0  0  0  0  0  0  0  0  0  0  0
   11.5246   11.1772    9.7317 H   0  0  0  0  0  0  0  0  0  0  0  0
   11.3725   13.2852    9.9865 C   0  0  0  0  0  0  0  0  0  0  0  0
   11.5197   13.4140    8.9146 H   0  0  0  0  0  0  0  0  0  0  0  0
   11.8918   14.0947   10.4934 H   0  0  0  0  0  0  0  0  0  0  0  0
   10.3063   13.3680   10.1895 H   0  0  0  0  0  0  0  0  0  0  0  0
   13.4367   11.9045   10.3096 C   0  0  0  0  0  0  0  0  0  0  0  0
   13.7103   12.2799    9.3237 H   0  0  0  0  0  0  0  0  0  0  0  0
   13.8342   10.8965   10.3952 H   0  0  0  0  0  0  0  0  0  0  0  0
   13.9166   12.5364   11.0508 H   0  0  0  0  0  0  0  0  0  0  0  0
   12.3730   10.1319   12.6694 C   0  0  0  0  0  0  0  0  0  0  0  0
   13.3867   10.5096   12.5004 H   0  0  0  0  0  0  0  0  0  0  0  0
   12.1493    8.8737   11.8319 C   0  0  0  0  0  0  0  0  0  0  0  0
   12.8104    8.0710   12.1554 H   0  0  0  0  0  0  0  0  0  0  0  0
   12.3274    9.0542   10.7733 H   0  0  0  0  0  0  0  0  0  0  0  0
   11.1172    8.5336   11.9493 H   0  0  0  0  0  0  0  0  0  0  0  0
   12.2200    9.8101   14.1538 C   0  0  0  0  0  0  0  0  0  0  0  0
   12.8333    8.9456   14.4061 H   0  0  0  0  0  0  0  0  0  0  0  0
   11.1887    9.5722   14.4033 H   0  0  0  0  0  0  0  0  0  0  0  0
   12.5387   10.6396   14.7806 H   0  0  0  0  0  0  0  0  0  0  0  0
   11.3839   12.8136   13.2961 C   0  0  0  0  0  0  0  0  0  0  0  0
   11.1601   12.3260   14.2529 H   0  0  0  0  0  0  0  0  0  0  0  0
   10.3268   13.8991   13.0999 C   0  0  0  0  0  0  0  0  0  0  0  0
   10.2233   14.4844   14.0120 H   0  0  0  0  0  0  0  0  0  0  0  0
    9.3594   13.4488   12.8817 H   0  0  0  0  0  0  0  0  0  0  0  0
   10.5801   14.5756   12.2886 H   0  0  0  0  0  0  0  0  0  0  0  0
   12.7827   13.4106   13.3884 C   0  0  0  0  0  0  0  0  0  0  0  0
   12.8300   14.0703   14.2546 H   0  0  0  0  0  0  0  0  0  0  0  0
   13.0204   14.0051   12.5094 H   0  0  0  0  0  0  0  0  0  0  0  0
   13.5423   12.6418   13.5125 H   0  0  0  0  0  0  0  0  0  0  0  0
    7.4406    9.2119   12.2460 C   0  0  2  0  0  3  0  0  0  0  0  0
    7.6150    7.7659   12.7060 C   0  0  0  0  0  0  0  0  0  0  0  0
    6.1744    7.3074   13.0127 C   0  0  0  0  0  0  0  0  0  0  0  0
    5.7773    6.7379   12.1708 H   0  0  0  0  0  0  0  0  0  0  0  0
    6.1329    6.6758   13.8967 H   0  0  0  0  0  0  0  0  0  0  0  0
    5.3810    8.6050   13.1988 C   0  0  0  0  0  0  0  0  0  0  0  0
    8.2128    6.9278   11.5658 C   0  0  0  0  0  0  0  0  0  0  0  0
    8.2640    5.8866   11.8785 H   0  0  0  0  0  0  0  0  0  0  0  0
    9.2195    7.2592   11.3239 H   0  0  0  0  0  0  0  0  0  0  0  0
    7.6091    6.9782   10.6629 H   0  0  0  0  0  0  0  0  0  0  0  0
    8.5445    7.6126   13.9140 C   0  0  0  0  0  0  0  0  0  0  0  0
    8.6841    6.5560   14.1352 H   0  0  0  0  0  0  0  0  0  0  0  0
    8.1478    8.1020   14.7976 H   0  0  0  0  0  0  0  0  0  0  0  0
    9.5192    8.0449   13.6903 H   0  0  0  0  0  0  0  0  0  0  0  0
    5.4302    9.0312   14.6727 C   0  0  0  0  0  0  0  0  0  0  0  0
    5.1631    8.1823   15.2980 H   0  0  0  0  0  0  0  0  0  0  0  0
    4.7238    9.8273   14.8780 H   0  0  0  0  0  0  0  0  0  0  0  0
    6.4219    9.3682   14.9592 H   0  0  0  0  0  0  0  0  0  0  0  0
    3.9206    8.5165   12.7772 C   0  0  0  0  0  0  0  0  0  0  0  0
    3.4247    7.7665   13.3893 H   0  0  0  0  0  0  0  0  0  0  0  0
    3.8057    8.2436   11.7345 H   0  0  0  0  0  0  0  0  0  0  0  0
    3.4212    9.4705   12.9304 H   0  0  0  0  0  0  0  0  0  0  0  0
    5.4966   10.5445   11.5813 C   0  0  0  0  0  0  0  0  0  0  0  0
    5.0351   11.7337   12.1595 C   0  0  0  0  0  0  0  0  0  0  0  0
    4.2329   12.5817   11.4042 C   0  0  0  0  0  0  0  0  0  0  0  0
    3.8736   13.4979   11.8456 H   0  0  0  0  0  0  0  0  0  0  0  0
    3.8753   12.2652   10.1125 C   0  0  0  0  0  0  0  0  0  0  0  0
    3.2235   12.9164    9.5495 H   0  0  0  0  0  0  0  0  0  0  0  0
    4.3817   11.1204    9.5317 C   0  0  0  0  0  0  0  0  0  0  0  0
    4.1242   10.8940    8.5099 H   0  0  0  0  0  0  0  0  0  0  0  0
    5.2159   10.2572   10.2290 C   0  0  0  0  0  0  0  0  0  0  0  0
    5.4009   12.1748   13.5559 C   0  0  0  0  0  0  0  0  0  0  0  0
    6.0258   11.4155   14.0217 H   0  0  0  0  0  0  0  0  0  0  0  0
    4.1546   12.3955   14.4183 C   0  0  0  0  0  0  0  0  0  0  0  0
    4.4451   12.5166   15.4591 H   0  0  0  0  0  0  0  0  0  0  0  0
    3.4638   11.5572   14.3450 H   0  0  0  0  0  0  0  0  0  0  0  0
    3.6215   13.2919   14.1098 H   0  0  0  0  0  0  0  0  0  0  0  0
    6.2278   13.4619   13.5103 C   0  0  0  0  0  0  0  0  0  0  0  0
    6.5360   13.7288   14.5179 H   0  0  0  0  0  0  0  0  0  0  0  0
    5.6642   14.2887   13.0844 H   0  0  0  0  0  0  0  0  0  0  0  0
    7.1235   13.3154   12.9134 H   0  0  0  0  0  0  0  0  0  0  0  0
    5.8137    9.0914    9.4653 C   0  0  0  0  0  0  0  0  0  0  0  0
    6.7185    8.7750    9.9928 H   0  0  0  0  0  0  0  0  0  0  0  0
    4.8684    7.8907    9.3419 C   0  0  0  0  0  0  0  0  0  0  0  0
    5.2537    7.2047    8.5900 H   0  0  0  0  0  0  0  0  0  0  0  0
    3.8772    8.2174    9.0330 H   0  0  0  0  0  0  0  0  0  0  0  0
    4.7801    7.3384   10.2727 H   0  0  0  0  0  0  0  0  0  0  0  0
    6.2214    9.5047    8.0449 C   0  0  0  0  0  0  0  0  0  0  0  0
    6.9361    8.7874    7.6469 H   0  0  0  0  0  0  0  0  0  0  0  0
    6.6762   10.4907    8.0346 H   0  0  0  0  0  0  0  0  0  0  0  0
    5.3611    9.5157    7.3799 H   0  0  0  0  0  0  0  0  0  0  0  0
  1  3  1  0  0  0  0
  1  2  1  1  0  0  0
  3 28  1  0  0  0  0
  3 38  1  0  0  0  0
  4 53  1  0  0  0  0
  5  8  1  0  0  0  0
  5  6  1  0  0  0  0
  6  1  2  0  0  0  0
  7  6  1  0  0  0  0
  8  9  1  0  0  0  0
 10 11  1  0  0  0  0
 10  8  2  0  0  0  0
 12 10  1  0  0  0  0
 13 12  1  0  0  0  0
 14 16  1  0  0  0  0
 14 12  2  0  0  0  0
 15 14  1  0  0  0  0
 16  5  2  0  0  0  0
 17 16  1  0  0  0  0
 18  3  1  0  0  0  0
 19 18  1  0  0  0  0
 20 23  1  0  0  0  0
 20 18  1  0  0  0  0
 20 22  1  0  0  0  0
 21 20  1  0  0  0  0
 24 26  1  0  0  0  0
 24 18  1  0  0  0  0
 24 27  1  0  0  0  0
 25 24  1  0  0  0  0
 28 34  1  0  0  0  0
 29 28  1  0  0  0  0
 30 33  1  0  0  0  0
 30 31  1  0  0  0  0
 30 28  1  0  0  0  0
 32 30  1  0  0  0  0
 34 36  1  0  0  0  0
 34 35  1  0  0  0  0
 34 37  1  0  0  0  0
 38 44  1  0  0  0  0
 38 39  1  0  0  0  0
 40 38  1  0  0  0  0
 40 41  1  0  0  0  0
 42 40  1  0  0  0  0
 43 40  1  0  0  0  0
 44 47  1  0  0  0  0
 44 45  1  0  0  0  0
 46 44  1  0  0  0  0
 48  1  1  1  0  0  0
 48  4  1  0  0  0  0
 48 49  1  0  0  0  0
 49 50  1  0  0  0  0
 49 58  1  0  0  0  0
 50 53  1  0  0  0  0
 50 52  1  0  0  0  0
 51 50  1  0  0  0  0
 53 62  1  0  0  0  0
 54 55  1  0  0  0  0
 54 49  1  0  0  0  0
 56 54  1  0  0  0  0
 57 54  1  0  0  0  0
 58 59  1  0  0  0  0
 58 60  1  0  0  0  0
 61 58  1  0  0  0  0
 62 64  1  0  0  0  0
 62 65  1  0  0  0  0
 62 63  1  0  0  0  0
 66 69  1  0  0  0  0
 66 53  1  0  0  0  0
 66 67  1  0  0  0  0
 68 66  1  0  0  0  0
 70 71  1  0  0  0  0
 70  4  1  0  0  0  0
 71 79  1  0  0  0  0
 72 73  1  0  0  0  0
 72 71  2  0  0  0  0
 74 72  1  0  0  0  0
 75 74  1  0  0  0  0
 76 74  2  0  0  0  0
 76 78  1  0  0  0  0
 77 76  1  0  0  0  0
 78 70  2  0  0  0  0
 79 80  1  0  0  0  0
 79 81  1  0  0  0  0
 81 82  1  0  0  0  0
 83 81  1  0  0  0  0
 84 81  1  0  0  0  0
 85 79  1  0  0  0  0
 85 86  1  0  0  0  0
 87 85  1  0  0  0  0
 88 85  1  0  0  0  0
 89 90  1  0  0  0  0
 89 78  1  0  0  0  0
 91 89  1  0  0  0  0
 91 94  1  0  0  0  0
 92 91  1  0  0  0  0
 93 91  1  0  0  0  0
 95 89  1  0  0  0  0
 96 95  1  0  0  0  0
 97 95  1  0  0  0  0
 98 95  1  0  0  0  0
M  END
$$$$
