CSD_code = BUZYAX | q = 1 | S = 0 | Stoichiometry = C39H36ClN2OP2Ru(1+) | MND = 6
 OpenBabel04212202013D

 82 89  0  0  1  0  0  0  0  0999 V2000
   -3.0448   -3.6046   -5.8388 Ru  0  0  0  0  0  0  0  0  0  0  0  0
   -1.8922   -4.4055   -7.7477 Cl  0  0  0  0  0  0  0  0  0  0  0  0
   -1.5455   -1.7687   -5.9795 P   0  0  0  0  0  4  0  0  0  0  0  0
   -4.6840   -2.3245   -6.9972 P   0  0  0  0  0  4  0  0  0  0  0  0
   -4.4102   -3.3452   -3.2069 O   0  0  0  0  0  1  0  0  0  0  0  0
   -1.7591   -4.8655   -4.8447 N   0  0  0  0  0  0  0  0  0  0  0  0
   -4.0130   -5.4036   -6.0391 N   0  0  0  0  0  0  0  0  0  0  0  0
   -3.9007   -3.2913   -4.2313 C   0  0  0  0  0  2  0  0  0  0  0  0
   -0.7737   -4.5554   -4.0119 C   0  0  0  0  0  3  0  0  0  0  0  0
   -0.7414   -3.5333   -3.6569 H   0  0  0  0  0  0  0  0  0  0  0  0
    0.1789   -5.4711   -3.6025 C   0  0  0  0  0  0  0  0  0  0  0  0
    0.9652   -5.1652   -2.9326 H   0  0  0  0  0  0  0  0  0  0  0  0
    0.1044   -6.7681   -4.0884 C   0  0  0  0  0  0  0  0  0  0  0  0
    0.8479   -7.5024   -3.8219 H   0  0  0  0  0  0  0  0  0  0  0  0
   -0.9615   -7.1134   -4.8988 C   0  0  0  0  0  0  0  0  0  0  0  0
   -1.0640   -8.1248   -5.2548 H   0  0  0  0  0  0  0  0  0  0  0  0
   -1.8983   -6.1425   -5.2508 C   0  0  0  0  0  0  0  0  0  0  0  0
   -3.1472   -6.4342   -5.9627 C   0  0  1  0  0  3  0  0  0  0  0  0
   -3.4895   -7.6952   -6.4492 C   0  0  0  0  0  0  0  0  0  0  0  0
   -2.7774   -8.5027   -6.4187 H   0  0  0  0  0  0  0  0  0  0  0  0
   -4.7438   -7.8968   -6.9957 C   0  0  0  0  0  0  0  0  0  0  0  0
   -5.0164   -8.8608   -7.3952 H   0  0  0  0  0  0  0  0  0  0  0  0
   -5.6438   -6.8412   -7.0074 C   0  0  0  0  0  0  0  0  0  0  0  0
   -6.6404   -6.9574   -7.4002 H   0  0  0  0  0  0  0  0  0  0  0  0
   -5.2295   -5.6130   -6.5229 C   0  0  0  0  0  0  0  0  0  0  0  0
   -5.8986   -4.7612   -6.5196 H   0  0  0  0  0  0  0  0  0  0  0  0
    0.1920   -2.0877   -5.5008 C   0  0  0  0  0  0  0  0  0  0  0  0
    0.8626   -1.3225   -4.5512 C   0  0  0  0  0  0  0  0  0  0  0  0
    0.3622   -0.5041   -4.0551 H   0  0  0  0  0  0  0  0  0  0  0  0
    2.1826   -1.6022   -4.2409 C   0  0  0  0  0  0  0  0  0  0  0  0
    2.6959   -0.9970   -3.5091 H   0  0  0  0  0  0  0  0  0  0  0  0
    2.8435   -2.6458   -4.8658 C   0  0  0  0  0  0  0  0  0  0  0  0
    3.8729   -2.8582   -4.6211 H   0  0  0  0  0  0  0  0  0  0  0  0
    2.1808   -3.4132   -5.8107 C   0  0  0  0  0  0  0  0  0  0  0  0
    2.6917   -4.2258   -6.3050 H   0  0  0  0  0  0  0  0  0  0  0  0
    0.8643   -3.1376   -6.1266 C   0  0  0  0  0  0  0  0  0  0  0  0
    0.3534   -3.7424   -6.8634 H   0  0  0  0  0  0  0  0  0  0  0  0
   -1.9280   -0.3311   -4.9160 C   0  0  0  0  0  0  0  0  0  0  0  0
   -1.8491    1.0012   -5.3088 C   0  0  0  0  0  0  0  0  0  0  0  0
   -1.5662    1.2669   -6.3161 H   0  0  0  0  0  0  0  0  0  0  0  0
   -2.1407    2.0108   -4.4069 C   0  0  0  0  0  0  0  0  0  0  0  0
   -2.0794    3.0408   -4.7239 H   0  0  0  0  0  0  0  0  0  0  0  0
   -2.5060    1.7068   -3.1063 C   0  0  0  0  0  0  0  0  0  0  0  0
   -2.7326    2.4983   -2.4091 H   0  0  0  0  0  0  0  0  0  0  0  0
   -2.5760    0.3827   -2.7024 C   0  0  0  0  0  0  0  0  0  0  0  0
   -2.8538    0.1371   -1.6887 H   0  0  0  0  0  0  0  0  0  0  0  0
   -2.2899   -0.6260   -3.6026 C   0  0  0  0  0  0  0  0  0  0  0  0
   -2.3390   -1.6628   -3.2916 H   0  0  0  0  0  0  0  0  0  0  0  0
   -1.2206   -1.1365   -7.6867 C   0  0  0  0  0  0  0  0  0  0  0  0
   -0.8267   -0.1193   -7.6011 H   0  0  0  0  0  0  0  0  0  0  0  0
   -0.4014   -1.7726   -8.0402 H   0  0  0  0  0  0  0  0  0  0  0  0
   -2.3341   -1.2164   -8.7277 C   0  0  0  0  0  0  0  0  0  0  0  0
   -1.8789   -1.0277   -9.7034 H   0  0  0  0  0  0  0  0  0  0  0  0
   -2.7265   -2.2384   -8.7495 H   0  0  0  0  0  0  0  0  0  0  0  0
   -6.1374   -2.1061   -5.9125 C   0  0  0  0  0  0  0  0  0  0  0  0
   -5.9807   -1.3068   -4.7808 C   0  0  0  0  0  0  0  0  0  0  0  0
   -5.0244   -0.8383   -4.5830 H   0  0  0  0  0  0  0  0  0  0  0  0
   -7.0352   -1.1134   -3.9098 C   0  0  0  0  0  0  0  0  0  0  0  0
   -6.9038   -0.4896   -3.0388 H   0  0  0  0  0  0  0  0  0  0  0  0
   -8.2577   -1.7199   -4.1536 C   0  0  0  0  0  0  0  0  0  0  0  0
   -9.0806   -1.5709   -3.4721 H   0  0  0  0  0  0  0  0  0  0  0  0
   -8.4212   -2.5146   -5.2748 C   0  0  0  0  0  0  0  0  0  0  0  0
   -9.3727   -2.9848   -5.4716 H   0  0  0  0  0  0  0  0  0  0  0  0
   -7.3680   -2.7085   -6.1529 C   0  0  0  0  0  0  0  0  0  0  0  0
   -7.5186   -3.3134   -7.0374 H   0  0  0  0  0  0  0  0  0  0  0  0
   -5.4269   -2.8225   -8.5831 C   0  0  0  0  0  0  0  0  0  0  0  0
   -4.9788   -3.9458   -9.2685 C   0  0  0  0  0  0  0  0  0  0  0  0
   -4.1677   -4.5371   -8.8675 H   0  0  0  0  0  0  0  0  0  0  0  0
   -5.5529   -4.2975  -10.4779 C   0  0  0  0  0  0  0  0  0  0  0  0
   -5.1967   -5.1691  -11.0059 H   0  0  0  0  0  0  0  0  0  0  0  0
   -6.5747   -3.5304  -11.0104 C   0  0  0  0  0  0  0  0  0  0  0  0
   -7.0213   -3.8039  -11.9540 H   0  0  0  0  0  0  0  0  0  0  0  0
   -7.0231   -2.4066  -10.3326 C   0  0  0  0  0  0  0  0  0  0  0  0
   -7.8181   -1.8059  -10.7479 H   0  0  0  0  0  0  0  0  0  0  0  0
   -6.4549   -2.0508   -9.1246 C   0  0  0  0  0  0  0  0  0  0  0  0
   -6.8151   -1.1802   -8.5949 H   0  0  0  0  0  0  0  0  0  0  0  0
   -4.3134   -0.5340   -7.2880 C   0  0  0  0  0  0  0  0  0  0  0  0
   -5.2675    0.0015   -7.3288 H   0  0  0  0  0  0  0  0  0  0  0  0
   -3.7767   -0.1825   -6.4023 H   0  0  0  0  0  0  0  0  0  0  0  0
   -3.5017   -0.2570   -8.5486 C   0  0  0  0  0  0  0  0  0  0  0  0
   -4.1509   -0.3585   -9.4218 H   0  0  0  0  0  0  0  0  0  0  0  0
   -3.1454    0.7760   -8.5227 H   0  0  0  0  0  0  0  0  0  0  0  0
  1  6  1  0  0  0  0
  1  8  1  0  0  0  0
  2  1  1  0  0  0  0
  3  1  1  0  0  0  0
  3 27  1  0  0  0  0
  3 38  1  0  0  0  0
  4 55  1  0  0  0  0
  4  1  1  0  0  0  0
  6  9  1  0  0  0  0
  7 18  1  0  0  0  0
  7  1  1  0  0  0  0
  8  5  1  0  0  0  0
  9 10  1  0  0  0  0
  9 11  1  0  0  0  0
 11 12  1  0  0  0  0
 13 14  1  0  0  0  0
 13 11  2  0  0  0  0
 15 13  1  0  0  0  0
 16 15  1  0  0  0  0
 17 15  2  0  0  0  0
 17  6  1  0  0  0  0
 18 19  1  1  0  0  0
 18 17  1  0  0  0  0
 19 20  1  0  0  0  0
 21 19  2  0  0  0  0
 22 21  1  0  0  0  0
 23 21  1  0  0  0  0
 23 25  2  0  0  0  0
 24 23  1  0  0  0  0
 25 26  1  0  0  0  0
 25  7  1  0  0  0  0
 27 28  1  0  0  0  0
 28 30  2  0  0  0  0
 28 29  1  0  0  0  0
 30 31  1  0  0  0  0
 32 33  1  0  0  0  0
 32 30  1  0  0  0  0
 34 32  2  0  0  0  0
 35 34  1  0  0  0  0
 36 34  1  0  0  0  0
 36 27  2  0  0  0  0
 37 36  1  0  0  0  0
 38 47  1  0  0  0  0
 39 38  2  0  0  0  0
 39 41  1  0  0  0  0
 40 39  1  0  0  0  0
 41 43  2  0  0  0  0
 42 41  1  0  0  0  0
 43 45  1  0  0  0  0
 43 44  1  0  0  0  0
 45 46  1  0  0  0  0
 47 48  1  0  0  0  0
 47 45  2  0  0  0  0
 49 50  1  0  0  0  0
 49  3  1  0  0  0  0
 51 49  1  0  0  0  0
 52 80  1  0  0  0  0
 52 49  1  0  0  0  0
 53 52  1  0  0  0  0
 54 52  1  0  0  0  0
 55 56  1  0  0  0  0
 56 57  1  0  0  0  0
 56 58  2  0  0  0  0
 58 59  1  0  0  0  0
 60 58  1  0  0  0  0
 60 61  1  0  0  0  0
 62 60  2  0  0  0  0
 63 62  1  0  0  0  0
 64 55  2  0  0  0  0
 64 62  1  0  0  0  0
 65 64  1  0  0  0  0
 66  4  1  0  0  0  0
 67 68  1  0  0  0  0
 67 66  2  0  0  0  0
 69 67  1  0  0  0  0
 70 69  1  0  0  0  0
 71 69  2  0  0  0  0
 71 73  1  0  0  0  0
 72 71  1  0  0  0  0
 73 75  2  0  0  0  0
 74 73  1  0  0  0  0
 75 76  1  0  0  0  0
 75 66  1  0  0  0  0
 77  4  1  0  0  0  0
 77 79  1  0  0  0  0
 78 77  1  0  0  0  0
 80 82  1  0  0  0  0
 80 77  1  0  0  0  0
 81 80  1  0  0  0  0
M  END
$$$$
