CSD_code = BUZYIF | q = 1 | S = 0 | Stoichiometry = C43H41ClN3P2Ru(1+) | MND = 6
 OpenBabel04212202013D

 91 99  0  0  1  0  0  0  0  0999 V2000
    7.1400   -0.2811    1.9572 C   0  0  0  0  0  0  0  0  0  0  0  0
    7.0337   -1.2103    2.5267 H   0  0  0  0  0  0  0  0  0  0  0  0
    6.1639   -0.0365    1.5336 H   0  0  0  0  0  0  0  0  0  0  0  0
    4.1649    3.1256    4.4261 C   0  0  0  0  0  3  0  0  0  0  0  0
    3.7595    3.0378    3.4267 H   0  0  0  0  0  0  0  0  0  0  0  0
    3.3097    3.1270    5.5138 C   0  0  0  0  0  0  0  0  0  0  0  0
    2.2461    3.0602    5.3523 H   0  0  0  0  0  0  0  0  0  0  0  0
    8.1689   -0.4874    0.8439 C   0  0  0  0  0  0  0  0  0  0  0  0
    9.0361   -1.0166    1.2468 H   0  0  0  0  0  0  0  0  0  0  0  0
    7.7181   -1.1279    0.0818 H   0  0  0  0  0  0  0  0  0  0  0  0
    8.6712    0.8008    0.1955 C   0  0  0  0  0  0  0  0  0  0  0  0
    9.3625    0.5333   -0.6058 H   0  0  0  0  0  0  0  0  0  0  0  0
    9.2490    1.3553    0.9423 H   0  0  0  0  0  0  0  0  0  0  0  0
    3.8400    3.2089    6.7897 C   0  0  0  0  0  0  0  0  0  0  0  0
    3.2036    3.2072    7.6604 H   0  0  0  0  0  0  0  0  0  0  0  0
    7.5638    1.7072   -0.3572 C   0  0  0  0  0  0  0  0  0  0  0  0
    6.5857    1.2336   -0.2683 H   0  0  0  0  0  0  0  0  0  0  0  0
    7.7269    1.9390   -1.4131 H   0  0  0  0  0  0  0  0  0  0  0  0
    5.2174    3.2919    6.9121 C   0  0  0  0  0  0  0  0  0  0  0  0
    5.6900    3.3586    7.8787 H   0  0  0  0  0  0  0  0  0  0  0  0
    5.9974    3.2795    5.7708 C   0  0  0  0  0  0  0  0  0  0  0  0
    7.0739    3.3348    5.8636 H   0  0  0  0  0  0  0  0  0  0  0  0
    8.9596    3.9459    4.5146 C   0  0  0  0  0  3  0  0  0  0  0  0
    9.0483    2.8731    4.6320 H   0  0  0  0  0  0  0  0  0  0  0  0
    9.8418    4.7925    5.1517 C   0  0  0  0  0  0  0  0  0  0  0  0
   10.6238    4.3844    5.7709 H   0  0  0  0  0  0  0  0  0  0  0  0
    9.7052    6.1651    4.9717 C   0  0  0  0  0  0  0  0  0  0  0  0
   10.3879    6.8574    5.4363 H   0  0  0  0  0  0  0  0  0  0  0  0
    8.6554    6.6187    4.1968 C   0  0  0  0  0  0  0  0  0  0  0  0
    8.5006    7.6764    4.0647 H   0  0  0  0  0  0  0  0  0  0  0  0
    7.7923    5.7078    3.5896 C   0  0  0  0  0  0  0  0  0  0  0  0
    6.6067    6.0895    2.8331 C   0  0  2  0  0  3  0  0  0  0  0  0
    6.2173    7.4044    2.5811 C   0  0  0  0  0  0  0  0  0  0  0  0
    6.8375    8.2256    2.9000 H   0  0  0  0  0  0  0  0  0  0  0  0
    5.0312    7.6478    1.9149 C   0  0  0  0  0  0  0  0  0  0  0  0
    4.7169    8.6584    1.7086 H   0  0  0  0  0  0  0  0  0  0  0  0
    4.2570    6.5658    1.5212 C   0  0  0  0  0  0  0  0  0  0  0  0
    3.3216    6.7033    1.0049 H   0  0  0  0  0  0  0  0  0  0  0  0
    4.7124    5.2887    1.7891 C   0  0  0  0  0  0  0  0  0  0  0  0
    4.1440    4.4268    1.4637 H   0  0  0  0  0  0  0  0  0  0  0  0
    9.2701    0.5345    3.5476 C   0  0  0  0  0  0  0  0  0  0  0  0
   10.3683    1.3082    3.1900 C   0  0  0  0  0  0  0  0  0  0  0  0
   10.2201    2.2734    2.7251 H   0  0  0  0  0  0  0  0  0  0  0  0
   11.6551    0.8489    3.4107 C   0  0  0  0  0  0  0  0  0  0  0  0
   12.4978    1.4607    3.1256 H   0  0  0  0  0  0  0  0  0  0  0  0
   11.8584   -0.3925    3.9884 C   0  0  0  0  0  0  0  0  0  0  0  0
   12.8609   -0.7522    4.1609 H   0  0  0  0  0  0  0  0  0  0  0  0
   10.7695   -1.1757    4.3379 C   0  0  0  0  0  0  0  0  0  0  0  0
   10.9226   -2.1483    4.7804 H   0  0  0  0  0  0  0  0  0  0  0  0
    9.4838   -0.7192    4.1165 C   0  0  0  0  0  0  0  0  0  0  0  0
    8.6408   -1.3376    4.3907 H   0  0  0  0  0  0  0  0  0  0  0  0
    6.6659    0.4489    4.6497 C   0  0  0  0  0  0  0  0  0  0  0  0
    7.2485    0.4788    5.9140 C   0  0  0  0  0  0  0  0  0  0  0  0
    8.2792    0.7881    6.0288 H   0  0  0  0  0  0  0  0  0  0  0  0
    6.5225    0.0904    7.0255 C   0  0  0  0  0  0  0  0  0  0  0  0
    6.9879    0.1004    7.9999 H   0  0  0  0  0  0  0  0  0  0  0  0
    5.2038   -0.3107    6.8899 C   0  0  0  0  0  0  0  0  0  0  0  0
    4.6397   -0.6149    7.7583 H   0  0  0  0  0  0  0  0  0  0  0  0
    4.6110   -0.3208    5.6376 C   0  0  0  0  0  0  0  0  0  0  0  0
    3.5817   -0.6285    5.5291 H   0  0  0  0  0  0  0  0  0  0  0  0
    5.3342    0.0605    4.5224 C   0  0  0  0  0  0  0  0  0  0  0  0
    4.8634    0.0669    3.5493 H   0  0  0  0  0  0  0  0  0  0  0  0
    9.1799    3.9643    0.1308 C   0  0  0  0  0  0  0  0  0  0  0  0
    9.5490    4.0541   -1.2097 C   0  0  0  0  0  0  0  0  0  0  0  0
    8.8559    3.7520   -1.9820 H   0  0  0  0  0  0  0  0  0  0  0  0
   10.7906    4.5472   -1.5605 C   0  0  0  0  0  0  0  0  0  0  0  0
   11.0675    4.6098   -2.6020 H   0  0  0  0  0  0  0  0  0  0  0  0
   11.6786    4.9653   -0.5810 C   0  0  0  0  0  0  0  0  0  0  0  0
   12.6486    5.3483   -0.8582 H   0  0  0  0  0  0  0  0  0  0  0  0
   11.3125    4.8996    0.7513 C   0  0  0  0  0  0  0  0  0  0  0  0
   11.9928    5.2358    1.5201 H   0  0  0  0  0  0  0  0  0  0  0  0
   10.0680    4.4043    1.1024 C   0  0  0  0  0  0  0  0  0  0  0  0
    9.7826    4.3670    2.1429 H   0  0  0  0  0  0  0  0  0  0  0  0
    6.5168    4.3878   -0.4963 C   0  0  0  0  0  0  0  0  0  0  0  0
    6.8349    5.7443   -0.5474 C   0  0  0  0  0  0  0  0  0  0  0  0
    7.6914    6.1144    0.0036 H   0  0  0  0  0  0  0  0  0  0  0  0
    6.0699    6.6127   -1.3018 C   0  0  0  0  0  0  0  0  0  0  0  0
    6.3278    7.6607   -1.3408 H   0  0  0  0  0  0  0  0  0  0  0  0
    4.9771    6.1372   -2.0096 C   0  0  0  0  0  0  0  0  0  0  0  0
    4.3818    6.8153   -2.6018 H   0  0  0  0  0  0  0  0  0  0  0  0
    4.6533    4.7920   -1.9585 C   0  0  0  0  0  0  0  0  0  0  0  0
    3.8029    4.4195   -2.5094 H   0  0  0  0  0  0  0  0  0  0  0  0
    5.4157    3.9172   -1.2037 C   0  0  0  0  0  0  0  0  0  0  0  0
    5.1445    2.8738   -1.1552 H   0  0  0  0  0  0  0  0  0  0  0  0
    4.9337    2.1094    1.5626 Cl  0  0  0  0  0  0  0  0  0  0  0  0
    7.5520    1.0568    3.1757 P   0  0  0  0  0  4  0  0  0  0  0  0
    7.5281    3.3040    0.5636 P   0  0  0  0  0  4  0  0  0  0  0  0
    6.6721    3.2303    2.7537 Ru  0  0  0  0  0  0  0  0  0  0  0  0
    7.9735    4.3681    3.7139 N   0  0  0  0  0  0  0  0  0  0  0  0
    5.8571    5.0465    2.4197 N   0  0  0  0  0  0  0  0  0  0  0  0
    5.4918    3.1953    4.5391 N   0  0  0  0  0  0  0  0  0  0  0  0
  1  2  1  0  0  0  0
  1 86  1  0  0  0  0
  3  1  1  0  0  0  0
  4 91  1  0  0  0  0
  4  6  1  0  0  0  0
  5  4  1  0  0  0  0
  6 14  2  0  0  0  0
  7  6  1  0  0  0  0
  8  9  1  0  0  0  0
  8  1  1  0  0  0  0
 10  8  1  0  0  0  0
 11  8  1  0  0  0  0
 11 13  1  0  0  0  0
 12 11  1  0  0  0  0
 14 19  1  0  0  0  0
 14 15  1  0  0  0  0
 16 17  1  0  0  0  0
 16 11  1  0  0  0  0
 16 87  1  0  0  0  0
 18 16  1  0  0  0  0
 19 20  1  0  0  0  0
 21 22  1  0  0  0  0
 21 19  2  0  0  0  0
 23 24  1  0  0  0  0
 23 25  1  0  0  0  0
 25 26  1  0  0  0  0
 27 25  2  0  0  0  0
 27 28  1  0  0  0  0
 29 27  1  0  0  0  0
 30 29  1  0  0  0  0
 31 89  1  0  0  0  0
 31 29  2  0  0  0  0
 32 33  1  1  0  0  0
 32 31  1  0  0  0  0
 33 34  1  0  0  0  0
 35 33  2  0  0  0  0
 36 35  1  0  0  0  0
 37 39  2  0  0  0  0
 37 35  1  0  0  0  0
 38 37  1  0  0  0  0
 39 90  1  0  0  0  0
 40 39  1  0  0  0  0
 41 50  1  0  0  0  0
 42 44  1  0  0  0  0
 42 41  2  0  0  0  0
 43 42  1  0  0  0  0
 44 46  2  0  0  0  0
 45 44  1  0  0  0  0
 46 47  1  0  0  0  0
 46 48  1  0  0  0  0
 48 49  1  0  0  0  0
 50 48  2  0  0  0  0
 50 51  1  0  0  0  0
 52 53  1  0  0  0  0
 53 54  1  0  0  0  0
 53 55  2  0  0  0  0
 55 56  1  0  0  0  0
 57 55  1  0  0  0  0
 57 58  1  0  0  0  0
 59 57  2  0  0  0  0
 60 59  1  0  0  0  0
 61 52  2  0  0  0  0
 61 59  1  0  0  0  0
 62 61  1  0  0  0  0
 63 87  1  0  0  0  0
 63 72  1  0  0  0  0
 64 63  2  0  0  0  0
 65 64  1  0  0  0  0
 66 64  1  0  0  0  0
 66 68  2  0  0  0  0
 67 66  1  0  0  0  0
 68 70  1  0  0  0  0
 69 68  1  0  0  0  0
 70 72  2  0  0  0  0
 70 71  1  0  0  0  0
 72 73  1  0  0  0  0
 74 87  1  0  0  0  0
 75 74  1  0  0  0  0
 75 76  1  0  0  0  0
 77 75  2  0  0  0  0
 78 77  1  0  0  0  0
 79 81  2  0  0  0  0
 79 77  1  0  0  0  0
 80 79  1  0  0  0  0
 81 83  1  0  0  0  0
 82 81  1  0  0  0  0
 83 84  1  0  0  0  0
 83 74  2  0  0  0  0
 85 88  1  0  0  0  0
 86 41  1  0  0  0  0
 86 52  1  0  0  0  0
 87 88  1  0  0  0  0
 88 86  1  0  0  0  0
 88 89  1  0  0  0  0
 88 91  1  0  0  0  0
 89 23  1  0  0  0  0
 90 88  1  0  0  0  0
 90 32  1  0  0  0  0
 91 21  1  0  0  0  0
M  END
$$$$
