CSD_code = BYVHGC | q = 0 | S = 0 | Stoichiometry = C9H7ClHgO | MND = 2
 OpenBabel04212202013D

 19 19  0  0  0  0  0  0  0  0999 V2000
    2.6821    1.6007   -6.5638 Cl  0  0  0  0  0  0  0  0  0  0  0  0
    1.2702   -0.9646   -3.1118 C   0  0  0  0  0  0  0  0  0  0  0  0
    0.7482   -2.1655   -3.3533 C   0  0  0  0  0  0  0  0  0  0  0  0
    0.6013   -2.6977   -4.7316 C   0  0  0  0  0  0  0  0  0  0  0  0
    0.1351   -4.0907   -4.8795 C   0  0  0  0  0  0  0  0  0  0  0  0
   -0.5676   -4.4305   -6.0376 C   0  0  0  0  0  0  0  0  0  0  0  0
   -1.0218   -5.7206   -6.2269 C   0  0  0  0  0  0  0  0  0  0  0  0
   -0.7604   -6.6927   -5.2738 C   0  0  0  0  0  0  0  0  0  0  0  0
   -0.0409   -6.3707   -4.1335 C   0  0  0  0  0  0  0  0  0  0  0  0
    0.4009   -5.0769   -3.9292 C   0  0  0  0  0  0  0  0  0  0  0  0
    1.9204    0.2348   -4.8560 Hg  0  0  0  0  0  0  0  0  0  0  0  0
    1.3332   -0.6151   -2.0871 H   0  0  0  0  0  0  0  0  0  0  0  0
    0.3763   -2.8029   -2.5596 H   0  0  0  0  0  0  0  0  0  0  0  0
   -0.7547   -3.6610   -6.7713 H   0  0  0  0  0  0  0  0  0  0  0  0
   -1.5751   -5.9721   -7.1191 H   0  0  0  0  0  0  0  0  0  0  0  0
   -1.1109   -7.7032   -5.4219 H   0  0  0  0  0  0  0  0  0  0  0  0
    0.1772   -7.1333   -3.4007 H   0  0  0  0  0  0  0  0  0  0  0  0
    0.9840   -4.8462   -3.0504 H   0  0  0  0  0  0  0  0  0  0  0  0
    0.8250   -2.0109   -5.7208 O   0  0  0  0  0  0  0  0  0  0  0  0
  1 11  1  0  0  0  0
  2 12  1  0  0  0  0
  3  2  2  0  0  0  0
  3 13  1  0  0  0  0
  4  3  1  0  0  0  0
  5  4  1  0  0  0  0
  5 10  1  0  0  0  0
  6  5  2  0  0  0  0
  7  6  1  0  0  0  0
  7  8  2  0  0  0  0
  8  9  1  0  0  0  0
  9 10  2  0  0  0  0
  9 17  1  0  0  0  0
 10 18  1  0  0  0  0
 11  2  1  0  0  0  0
 14  6  1  0  0  0  0
 15  7  1  0  0  0  0
 16  8  1  0  0  0  0
 19  4  2  0  0  0  0
M  END
$$$$
