CSD_code = CABKIA | q = 0 | S = 0 | Stoichiometry = C34H39BrO7P3Re | MND = 6
 OpenBabel04212202013D

 85 89  0  0  0  0  0  0  0  0999 V2000
    6.3972   15.0074   18.7799 Re  0  0  0  0  0  0  0  0  0  0  0  0
    8.6036   16.2213   19.1354 Br  0  0  0  0  0  0  0  0  0  0  0  0
    4.9228   16.8969   18.9363 P   0  0  0  0  0  4  0  0  0  0  0  0
    6.6591   15.6065   16.4482 P   0  0  0  0  0  4  0  0  0  0  0  0
    7.6816   13.0375   18.4568 P   0  0  0  0  0  4  0  0  0  0  0  0
    6.9808   17.1529   16.0779 O   0  0  0  0  0  0  0  0  0  0  0  0
    6.8901   11.9232   19.3158 O   0  0  0  0  0  0  0  0  0  0  0  0
    7.9554   14.9249   15.3558 C   0  0  0  0  0  0  0  0  0  0  0  0
    6.1348   18.1514   21.1393 C   0  0  0  0  0  0  0  0  0  0  0  0
    6.8526   17.3444   21.1168 H   0  0  0  0  0  0  0  0  0  0  0  0
    4.5746   17.7438   17.5958 O   0  0  0  0  0  0  0  0  0  0  0  0
    6.1782   14.4442   21.8065 O   0  0  0  0  0  1  0  0  0  0  0  0
    5.1503   15.2548   15.4875 C   0  0  0  0  0  0  0  0  0  0  0  0
    7.6813   12.5473   16.9365 O   0  0  0  0  0  0  0  0  0  0  0  0
    9.2292   12.7799   18.8062 O   0  0  0  0  0  0  0  0  0  0  0  0
    8.7004   13.6944   13.4333 C   0  0  0  0  0  0  0  0  0  0  0  0
    8.4723   13.1099   12.5530 H   0  0  0  0  0  0  0  0  0  0  0  0
    6.2577   14.6629   20.6770 C   0  0  0  0  0  2  0  0  0  0  0  0
    5.1081   18.1921   20.2075 C   0  0  0  0  0  0  0  0  0  0  0  0
    6.2346   19.1494   22.0937 C   0  0  0  0  0  0  0  0  0  0  0  0
    7.0347   19.1187   22.8176 H   0  0  0  0  0  0  0  0  0  0  0  0
    2.3378   16.1045   18.2068 C   0  0  0  0  0  0  0  0  0  0  0  0
    2.6128   16.3768   17.1984 H   0  0  0  0  0  0  0  0  0  0  0  0
    3.2373   16.3070   19.2450 C   0  0  0  0  0  0  0  0  0  0  0  0
    5.4224   18.7469   17.0748 C   0  0  0  0  0  0  0  0  0  0  0  0
    5.4128   19.6292   17.7270 H   0  0  0  0  0  0  0  0  0  0  0  0
    4.9982   19.0121   16.1014 H   0  0  0  0  0  0  0  0  0  0  0  0
    9.2796   15.2012   15.6802 C   0  0  0  0  0  0  0  0  0  0  0  0
    9.5138   15.7955   16.5523 H   0  0  0  0  0  0  0  0  0  0  0  0
   10.3057   14.7233   14.8858 C   0  0  0  0  0  0  0  0  0  0  0  0
   11.3309   14.9412   15.1472 H   0  0  0  0  0  0  0  0  0  0  0  0
    0.7632   15.1829   19.7653 C   0  0  0  0  0  0  0  0  0  0  0  0
   -0.2023   14.7425   19.9672 H   0  0  0  0  0  0  0  0  0  0  0  0
    8.5421   11.5673   16.3518 C   0  0  0  0  0  0  0  0  0  0  0  0
    9.0731   11.0117   17.1278 H   0  0  0  0  0  0  0  0  0  0  0  0
    9.2769   12.1004   15.7409 H   0  0  0  0  0  0  0  0  0  0  0  0
    7.2937   10.5722   19.5184 C   0  0  0  0  0  0  0  0  0  0  0  0
    8.3631   10.4576   19.3067 H   0  0  0  0  0  0  0  0  0  0  0  0
    6.7309    9.9376   18.8245 H   0  0  0  0  0  0  0  0  0  0  0  0
    3.3060   15.8895   14.0899 C   0  0  0  0  0  0  0  0  0  0  0  0
    2.7901   16.6390   13.5064 H   0  0  0  0  0  0  0  0  0  0  0  0
    4.4920   16.2101   14.7279 C   0  0  0  0  0  0  0  0  0  0  0  0
    4.9125   17.2002   14.6311 H   0  0  0  0  0  0  0  0  0  0  0  0
    1.1002   15.5468   18.4723 C   0  0  0  0  0  0  0  0  0  0  0  0
    0.4004   15.3868   17.6648 H   0  0  0  0  0  0  0  0  0  0  0  0
    6.8600   18.2692   16.9325 C   0  0  0  0  0  0  0  0  0  0  0  0
    7.4722   19.0578   16.4850 H   0  0  0  0  0  0  0  0  0  0  0  0
    7.2529   18.0520   17.9345 H   0  0  0  0  0  0  0  0  0  0  0  0
    7.6709   14.1654   14.2290 C   0  0  0  0  0  0  0  0  0  0  0  0
    6.6459   13.9444   13.9675 H   0  0  0  0  0  0  0  0  0  0  0  0
   10.0183   13.9700   13.7594 C   0  0  0  0  0  0  0  0  0  0  0  0
   10.8186   13.5981   13.1358 H   0  0  0  0  0  0  0  0  0  0  0  0
    4.1780   19.2278   20.2337 C   0  0  0  0  0  0  0  0  0  0  0  0
    3.3734   19.2371   19.5097 H   0  0  0  0  0  0  0  0  0  0  0  0
    2.9057   15.9256   20.5402 C   0  0  0  0  0  0  0  0  0  0  0  0
    3.6282   16.0639   21.3338 H   0  0  0  0  0  0  0  0  0  0  0  0
    4.2843   20.2217   21.1867 C   0  0  0  0  0  0  0  0  0  0  0  0
    3.5636   21.0264   21.2100 H   0  0  0  0  0  0  0  0  0  0  0  0
    5.3136   20.1826   22.1161 C   0  0  0  0  0  0  0  0  0  0  0  0
    5.3935   20.9614   22.8604 H   0  0  0  0  0  0  0  0  0  0  0  0
    3.4495   13.6472   14.9343 C   0  0  0  0  0  0  0  0  0  0  0  0
    3.0465   12.6480   15.0114 H   0  0  0  0  0  0  0  0  0  0  0  0
    6.9883   10.1848   20.9562 C   0  0  0  0  0  0  0  0  0  0  0  0
    7.5472   10.8165   21.6423 H   0  0  0  0  0  0  0  0  0  0  0  0
    7.2545    9.1447   21.1263 H   0  0  0  0  0  0  0  0  0  0  0  0
    5.9288   10.3227   21.1533 H   0  0  0  0  0  0  0  0  0  0  0  0
    4.6287   13.9676   15.5779 C   0  0  0  0  0  0  0  0  0  0  0  0
    5.1649   13.2234   16.1541 H   0  0  0  0  0  0  0  0  0  0  0  0
    2.7798   14.6136   14.1994 C   0  0  0  0  0  0  0  0  0  0  0  0
    1.8494   14.3692   13.7076 H   0  0  0  0  0  0  0  0  0  0  0  0
    1.6670   15.3711   20.7992 C   0  0  0  0  0  0  0  0  0  0  0  0
    1.4076   15.0775   21.8056 H   0  0  0  0  0  0  0  0  0  0  0  0
    9.7643   13.1605   20.0798 C   0  0  0  0  0  0  0  0  0  0  0  0
   10.3428   14.0772   19.9361 H   0  0  0  0  0  0  0  0  0  0  0  0
    8.9484   13.3665   20.7810 H   0  0  0  0  0  0  0  0  0  0  0  0
   10.6577   12.0508   20.6053 C   0  0  0  0  0  0  0  0  0  0  0  0
   10.0839   11.1503   20.8125 H   0  0  0  0  0  0  0  0  0  0  0  0
   11.1342   12.3821   21.5235 H   0  0  0  0  0  0  0  0  0  0  0  0
   11.4265   11.8166   19.8729 H   0  0  0  0  0  0  0  0  0  0  0  0
    7.7062   10.6352   15.4923 C   0  0  0  0  0  0  0  0  0  0  0  0
    7.1911   11.2073   14.7251 H   0  0  0  0  0  0  0  0  0  0  0  0
    6.9642   10.1229   16.1003 H   0  0  0  0  0  0  0  0  0  0  0  0
    8.3487    9.8988   15.0171 H   0  0  0  0  0  0  0  0  0  0  0  0
    4.8109   13.9224   18.5847 C   0  0  0  0  0  2  0  0  0  0  0  0
    3.8872   13.2376   18.5856 O   0  0  0  0  0  1  0  0  0  0  0  0
  1  3  1  0  0  0  0
  1  2  1  0  0  0  0
  1 18  1  0  0  0  0
  3 24  1  0  0  0  0
  3 19  1  0  0  0  0
  4  1  1  0  0  0  0
  5  1  1  0  0  0  0
  5 15  1  0  0  0  0
  5  7  1  0  0  0  0
  6  4  1  0  0  0  0
  6 46  1  0  0  0  0
  7 37  1  0  0  0  0
  8 28  1  0  0  0  0
  8  4  1  0  0  0  0
  9 20  1  0  0  0  0
 10  9  1  0  0  0  0
 11  3  1  0  0  0  0
 13 67  1  0  0  0  0
 13  4  1  0  0  0  0
 14  5  1  0  0  0  0
 15 73  1  0  0  0  0
 16 51  2  0  0  0  0
 16 49  1  0  0  0  0
 17 16  1  0  0  0  0
 18 12  1  0  0  0  0
 19 53  1  0  0  0  0
 19  9  2  0  0  0  0
 20 59  2  0  0  0  0
 20 21  1  0  0  0  0
 22 44  2  0  0  0  0
 22 24  1  0  0  0  0
 23 22  1  0  0  0  0
 24 55  2  0  0  0  0
 25 11  1  0  0  0  0
 25 26  1  0  0  0  0
 27 25  1  0  0  0  0
 28 29  1  0  0  0  0
 30 31  1  0  0  0  0
 30 28  2  0  0  0  0
 32 33  1  0  0  0  0
 32 71  2  0  0  0  0
 34 14  1  0  0  0  0
 34 35  1  0  0  0  0
 36 34  1  0  0  0  0
 37 63  1  0  0  0  0
 38 37  1  0  0  0  0
 39 37  1  0  0  0  0
 40 69  2  0  0  0  0
 40 42  1  0  0  0  0
 41 40  1  0  0  0  0
 42 13  2  0  0  0  0
 43 42  1  0  0  0  0
 44 32  1  0  0  0  0
 45 44  1  0  0  0  0
 46 25  1  0  0  0  0
 46 48  1  0  0  0  0
 47 46  1  0  0  0  0
 49  8  2  0  0  0  0
 50 49  1  0  0  0  0
 51 30  1  0  0  0  0
 52 51  1  0  0  0  0
 53 57  2  0  0  0  0
 54 53  1  0  0  0  0
 55 71  1  0  0  0  0
 55 56  1  0  0  0  0
 57 58  1  0  0  0  0
 57 59  1  0  0  0  0
 59 60  1  0  0  0  0
 61 62  1  0  0  0  0
 61 67  2  0  0  0  0
 63 65  1  0  0  0  0
 63 66  1  0  0  0  0
 63 64  1  0  0  0  0
 67 68  1  0  0  0  0
 69 61  1  0  0  0  0
 70 69  1  0  0  0  0
 71 72  1  0  0  0  0
 73 76  1  0  0  0  0
 73 75  1  0  0  0  0
 74 73  1  0  0  0  0
 76 77  1  0  0  0  0
 76 78  1  0  0  0  0
 79 76  1  0  0  0  0
 80 82  1  0  0  0  0
 80 34  1  0  0  0  0
 81 80  1  0  0  0  0
 83 80  1  0  0  0  0
 84 85  1  0  0  0  0
 84  1  1  0  0  0  0
M  END
$$$$
