CSD_code = CABKEW | q = 0 | S = 0 | Stoichiometry = C31H33BrO7P3Re | MND = 6
 OpenBabel04212202013D

 76 80  0  0  0  0  0  0  0  0999 V2000
    0.6544    8.4877    9.7767 Re  0  0  0  0  0  0  0  0  0  0  0  0
   -1.0814    6.6887   10.2595 Br  0  0  0  0  0  0  0  0  0  0  0  0
    1.9409    9.8352    9.2915 C   0  0  0  0  0  2  0  0  0  0  0  0
    2.7379   10.5981    8.9450 O   0  0  0  0  0  1  0  0  0  0  0  0
    0.8836    7.6700    8.0351 C   0  0  0  0  0  2  0  0  0  0  0  0
    1.0136    7.1709    7.0051 O   0  0  0  0  0  1  0  0  0  0  0  0
   -1.3066    9.6695    8.9731 P   0  0  0  0  0  4  0  0  0  0  0  0
    0.2601    9.5094   11.9337 P   0  0  0  0  0  4  0  0  0  0  0  0
   -2.7592    9.3920    9.6186 O   0  0  0  0  0  0  0  0  0  0  0  0
   -3.2319    9.9153   10.8406 C   0  0  0  0  0  0  0  0  0  0  0  0
   -4.2560    9.5437   10.9360 H   0  0  0  0  0  0  0  0  0  0  0  0
   -3.2383   11.0128   10.8015 H   0  0  0  0  0  0  0  0  0  0  0  0
   -2.4155    9.4683   12.0480 C   0  0  0  0  0  0  0  0  0  0  0  0
   -2.9731    9.6927   12.9636 H   0  0  0  0  0  0  0  0  0  0  0  0
   -2.2432    8.3886   11.9963 H   0  0  0  0  0  0  0  0  0  0  0  0
   -1.2054   10.2075   12.0991 O   0  0  0  0  0  0  0  0  0  0  0  0
    0.4075    8.6442   13.5456 C   0  0  0  0  0  0  0  0  0  0  0  0
    0.6267    9.3832   14.7031 C   0  0  0  0  0  0  0  0  0  0  0  0
    0.7446   10.4562   14.6410 H   0  0  0  0  0  0  0  0  0  0  0  0
    0.6966    8.7464   15.9278 C   0  0  0  0  0  0  0  0  0  0  0  0
    0.8713    9.3245   16.8240 H   0  0  0  0  0  0  0  0  0  0  0  0
    0.5451    7.3708   16.0069 C   0  0  0  0  0  0  0  0  0  0  0  0
    0.6032    6.8759   16.9655 H   0  0  0  0  0  0  0  0  0  0  0  0
    0.3158    6.6343   14.8576 C   0  0  0  0  0  0  0  0  0  0  0  0
    0.1887    5.5631   14.9129 H   0  0  0  0  0  0  0  0  0  0  0  0
    0.2448    7.2680   13.6290 C   0  0  0  0  0  0  0  0  0  0  0  0
    0.0649    6.6777   12.7425 H   0  0  0  0  0  0  0  0  0  0  0  0
   -1.6976    9.1186    7.2942 C   0  0  0  0  0  0  0  0  0  0  0  0
   -2.6502    8.1406    7.0456 C   0  0  0  0  0  0  0  0  0  0  0  0
   -3.2248    7.7315    7.8632 H   0  0  0  0  0  0  0  0  0  0  0  0
   -2.8384    7.6878    5.7511 C   0  0  0  0  0  0  0  0  0  0  0  0
   -3.5752    6.9231    5.5535 H   0  0  0  0  0  0  0  0  0  0  0  0
   -2.0768    8.2016    4.7153 C   0  0  0  0  0  0  0  0  0  0  0  0
   -2.2242    7.8416    3.7075 H   0  0  0  0  0  0  0  0  0  0  0  0
   -1.1134    9.1663    4.9687 C   0  0  0  0  0  0  0  0  0  0  0  0
   -0.5106    9.5559    4.1615 H   0  0  0  0  0  0  0  0  0  0  0  0
   -0.9162    9.6195    6.2582 C   0  0  0  0  0  0  0  0  0  0  0  0
   -0.1530   10.3553    6.4804 H   0  0  0  0  0  0  0  0  0  0  0  0
   -1.3296   11.4894    8.8046 C   0  0  0  0  0  0  0  0  0  0  0  0
   -0.2983   12.2769    9.2885 C   0  0  0  0  0  0  0  0  0  0  0  0
    0.5606   11.8060    9.7445 H   0  0  0  0  0  0  0  0  0  0  0  0
   -0.3733   13.6553    9.1862 C   0  0  0  0  0  0  0  0  0  0  0  0
    0.4337   14.2645    9.5658 H   0  0  0  0  0  0  0  0  0  0  0  0
   -1.4804   14.2452    8.6005 C   0  0  0  0  0  0  0  0  0  0  0  0
   -1.5402   15.3207    8.5196 H   0  0  0  0  0  0  0  0  0  0  0  0
   -2.5152   13.4585    8.1158 C   0  0  0  0  0  0  0  0  0  0  0  0
   -3.3773   13.9209    7.6573 H   0  0  0  0  0  0  0  0  0  0  0  0
   -2.4431   12.0826    8.2181 C   0  0  0  0  0  0  0  0  0  0  0  0
   -3.2421   11.4566    7.8424 H   0  0  0  0  0  0  0  0  0  0  0  0
    1.2269   11.0197   12.2350 C   0  0  0  0  0  0  0  0  0  0  0  0
    2.6123   10.9226   12.1595 C   0  0  0  0  0  0  0  0  0  0  0  0
    3.0604    9.9601   11.9592 H   0  0  0  0  0  0  0  0  0  0  0  0
    3.4009   12.0440   12.3336 C   0  0  0  0  0  0  0  0  0  0  0  0
    4.4763   11.9620   12.2726 H   0  0  0  0  0  0  0  0  0  0  0  0
    2.8111   13.2744   12.5756 C   0  0  0  0  0  0  0  0  0  0  0  0
    3.4262   14.1530   12.7043 H   0  0  0  0  0  0  0  0  0  0  0  0
    1.4320   13.3765   12.6465 C   0  0  0  0  0  0  0  0  0  0  0  0
    0.9689   14.3352   12.8320 H   0  0  0  0  0  0  0  0  0  0  0  0
    0.6388   12.2555   12.4768 C   0  0  0  0  0  0  0  0  0  0  0  0
   -0.4360   12.3394   12.5230 H   0  0  0  0  0  0  0  0  0  0  0  0
    2.2815    7.0287   10.7515 P   0  0  0  0  0  4  0  0  0  0  0  0
    1.9912    5.5518   11.2675 O   0  0  0  0  0  0  0  0  0  0  0  0
    1.6730    4.4743   10.3928 C   0  0  0  0  0  0  0  0  0  0  0  0
    1.8245    3.5642   10.9717 H   0  0  0  0  0  0  0  0  0  0  0  0
    2.3295    4.4742    9.5227 H   0  0  0  0  0  0  0  0  0  0  0  0
    0.6312    4.5358   10.0739 H   0  0  0  0  0  0  0  0  0  0  0  0
    2.8176    7.6816   12.1169 O   0  0  0  0  0  0  0  0  0  0  0  0
    3.7340    6.9967   12.9617 C   0  0  0  0  0  0  0  0  0  0  0  0
    4.2713    7.7597   13.5252 H   0  0  0  0  0  0  0  0  0  0  0  0
    4.4338    6.4030   12.3720 H   0  0  0  0  0  0  0  0  0  0  0  0
    3.1904    6.3462   13.6475 H   0  0  0  0  0  0  0  0  0  0  0  0
    3.6254    6.6675    9.9123 O   0  0  0  0  0  0  0  0  0  0  0  0
    4.2604    7.5675    9.0254 C   0  0  0  0  0  0  0  0  0  0  0  0
    5.0394    6.9996    8.5171 H   0  0  0  0  0  0  0  0  0  0  0  0
    4.7067    8.4034    9.5673 H   0  0  0  0  0  0  0  0  0  0  0  0
    3.5501    7.9569    8.2920 H   0  0  0  0  0  0  0  0  0  0  0  0
  1  2  1  0  0  0  0
  1 61  1  0  0  0  0
  1  8  1  0  0  0  0
  3  1  1  0  0  0  0
  4  3  1  0  0  0  0
  5  1  1  0  0  0  0
  6  5  1  0  0  0  0
  7  9  1  0  0  0  0
  7  1  1  0  0  0  0
  8 16  1  0  0  0  0
  8 50  1  0  0  0  0
  8 17  1  0  0  0  0
  9 10  1  0  0  0  0
 10 11  1  0  0  0  0
 10 13  1  0  0  0  0
 12 10  1  0  0  0  0
 13 16  1  0  0  0  0
 13 14  1  0  0  0  0
 15 13  1  0  0  0  0
 17 26  2  0  0  0  0
 17 18  1  0  0  0  0
 18 20  2  0  0  0  0
 19 18  1  0  0  0  0
 20 22  1  0  0  0  0
 20 21  1  0  0  0  0
 22 23  1  0  0  0  0
 24 25  1  0  0  0  0
 24 22  2  0  0  0  0
 26 24  1  0  0  0  0
 27 26  1  0  0  0  0
 28  7  1  0  0  0  0
 29 28  1  0  0  0  0
 29 30  1  0  0  0  0
 31 29  2  0  0  0  0
 32 31  1  0  0  0  0
 33 35  2  0  0  0  0
 33 31  1  0  0  0  0
 34 33  1  0  0  0  0
 35 37  1  0  0  0  0
 36 35  1  0  0  0  0
 37 38  1  0  0  0  0
 37 28  2  0  0  0  0
 39  7  1  0  0  0  0
 39 40  1  0  0  0  0
 40 41  1  0  0  0  0
 42 40  2  0  0  0  0
 42 43  1  0  0  0  0
 44 42  1  0  0  0  0
 45 44  1  0  0  0  0
 46 48  1  0  0  0  0
 46 44  2  0  0  0  0
 47 46  1  0  0  0  0
 48 39  2  0  0  0  0
 49 48  1  0  0  0  0
 50 59  1  0  0  0  0
 51 50  2  0  0  0  0
 51 53  1  0  0  0  0
 52 51  1  0  0  0  0
 53 55  2  0  0  0  0
 54 53  1  0  0  0  0
 55 57  1  0  0  0  0
 55 56  1  0  0  0  0
 57 58  1  0  0  0  0
 59 60  1  0  0  0  0
 59 57  2  0  0  0  0
 61 62  1  0  0  0  0
 61 67  1  0  0  0  0
 63 64  1  0  0  0  0
 63 62  1  0  0  0  0
 65 63  1  0  0  0  0
 66 63  1  0  0  0  0
 67 68  1  0  0  0  0
 68 69  1  0  0  0  0
 68 71  1  0  0  0  0
 70 68  1  0  0  0  0
 72 61  1  0  0  0  0
 73 75  1  0  0  0  0
 73 72  1  0  0  0  0
 74 73  1  0  0  0  0
 76 73  1  0  0  0  0
M  END
$$$$
