CSD_code = CABLIC | q = 0 | S = 0 | Stoichiometry = C7H8I2Pt | MND = 6
 OpenBabel04212202013D

 18 17  0  0  1  0  0  0  0  0999 V2000
    0.8630    2.0083    0.8120 Pt  0  0  0  0  0  0  0  0  0  0  0  0
    2.6152    2.0083   -1.0637 I   0  0  0  0  0 15  0  0  0  0  0  0
   -1.1310    2.0083   -0.8044 I   0  0  0  0  0 15  0  0  0  0  0  0
    2.1567    1.3156    2.4022 C   0  0  0  0  0  0  0  0  0  0  0  0
    2.9645    0.6659    2.0918 H   0  0  0  0  0  0  0  0  0  0  0  0
   -0.1990    1.3156    2.5653 C   0  0  0  0  0  3  0  0  0  0  0  0
   -1.0420    0.6659    2.3697 H   0  0  0  0  0  0  0  0  0  0  0  0
    1.0389    0.8865    3.3509 C   0  0  2  0  0  0  0  0  0  0  0  0
    1.0632   -0.1419    3.7004 H   0  0  0  0  0  0  0  0  0  0  0  0
    1.1114    2.0083    4.4004 C   0  0  0  0  0  0  0  0  0  0  0  0
    2.0447    2.0083    4.9636 H   0  0  0  0  0  0  0  0  0  0  0  0
    0.2644    2.0083    5.0864 H   0  0  0  0  0  0  0  0  0  0  0  0
    2.1567    2.7010    2.4022 C   0  0  0  0  0  0  0  0  0  0  0  0
    2.9645    3.3507    2.0918 H   0  0  0  0  0  0  0  0  0  0  0  0
   -0.1990    2.7010    2.5653 C   0  0  1  0  0  0  0  0  0  0  0  0
   -1.0420    3.3507    2.3697 H   0  0  0  0  0  0  0  0  0  0  0  0
    1.0389    3.1301    3.3509 C   0  0  1  0  0  0  0  0  0  0  0  0
    1.0632    4.1585    3.7004 H   0  0  0  0  0  0  0  0  0  0  0  0
  1 15  1  0  0  0  0
  4 13  2  0  0  0  0
  4  8  1  0  0  0  0
  5  4  1  0  0  0  0
  6 15  1  0  0  0  0
  6  8  1  0  0  0  0
  7  6  1  0  0  0  0
  8  9  1  1  0  0  0
  8 10  1  0  0  0  0
 10 11  1  0  0  0  0
 10 12  1  0  0  0  0
 13 17  1  0  0  0  0
 14 13  1  0  0  0  0
 15 16  1  6  0  0  0
 15 17  1  0  0  0  0
 17 18  1  1  0  0  0
 17 10  1  0  0  0  0
M  END
$$$$
