CSD_code = CACMIC | q = 0 | S = 0 | Stoichiometry = C14H21ClNOPPt | MND = 4
 OpenBabel04212202013D

 40 41  0  0  0  0  0  0  0  0999 V2000
    2.2227    1.4335    3.4128 Pt  0  0  1  0  0  0  0  0  0  0  0  0
    1.6332    0.6101    5.4748 Cl  0  0  0  0  0  0  0  0  0  0  0  0
    3.4807   -0.3995    3.0874 P   0  0  0  0  0  4  0  0  0  0  0  0
    1.0275    3.0912    3.7138 O   0  0  0  0  0  0  0  0  0  0  0  0
    1.0506    3.9326    2.7008 N   0  0  0  0  0  0  0  0  0  0  0  0
    3.3929    2.0388    0.5135 C   0  0  0  0  0  0  0  0  0  0  0  0
    2.5330    2.4059    1.6828 C   0  0  0  0  0  0  0  0  0  0  0  0
    1.8403    3.5615    1.6143 C   0  0  0  0  0  0  0  0  0  0  0  0
    0.3470    5.0250    2.7937 C   0  0  0  0  0  3  0  0  0  0  0  0
   -0.4247    5.2205    4.0512 C   0  0  0  0  0  0  0  0  0  0  0  0
    0.3174    6.0325    1.6949 C   0  0  0  0  0  0  0  0  0  0  0  0
    3.4737   -1.7142    4.3575 C   0  0  0  0  0  0  0  0  0  0  0  0
    5.2840   -0.1622    2.8415 C   0  0  0  0  0  0  0  0  0  0  0  0
    2.9096   -1.3299    1.6297 C   0  0  0  0  0  0  0  0  0  0  0  0
    1.5731   -1.1602    1.2815 C   0  0  0  0  0  0  0  0  0  0  0  0
    1.0332   -1.8535    0.2149 C   0  0  0  0  0  0  0  0  0  0  0  0
    1.8304   -2.7207   -0.5161 C   0  0  0  0  0  0  0  0  0  0  0  0
    3.1621   -2.8921   -0.1759 C   0  0  0  0  0  0  0  0  0  0  0  0
    3.7023   -2.2026    0.8962 C   0  0  0  0  0  0  0  0  0  0  0  0
    3.2468    0.9951    0.2411 H   0  0  0  0  0  0  0  0  0  0  0  0
    4.4407    2.1714    0.7815 H   0  0  0  0  0  0  0  0  0  0  0  0
    3.1811    2.6655   -0.3546 H   0  0  0  0  0  0  0  0  0  0  0  0
    1.8471    4.2402    0.7729 H   0  0  0  0  0  0  0  0  0  0  0  0
   -0.9549    6.1671    4.0546 H   0  0  0  0  0  0  0  0  0  0  0  0
    0.2495    5.1711    4.9082 H   0  0  0  0  0  0  0  0  0  0  0  0
   -1.1338    4.4009    4.1816 H   0  0  0  0  0  0  0  0  0  0  0  0
   -0.3189    6.8664    1.9758 H   0  0  0  0  0  0  0  0  0  0  0  0
   -0.0737    5.6001    0.7730 H   0  0  0  0  0  0  0  0  0  0  0  0
    1.3160    6.4192    1.4876 H   0  0  0  0  0  0  0  0  0  0  0  0
    3.9000   -1.3161    5.2763 H   0  0  0  0  0  0  0  0  0  0  0  0
    4.0449   -2.5747    4.0083 H   0  0  0  0  0  0  0  0  0  0  0  0
    2.4440   -2.0009    4.5602 H   0  0  0  0  0  0  0  0  0  0  0  0
    5.6490    0.4605    3.6574 H   0  0  0  0  0  0  0  0  0  0  0  0
    5.4687    0.3478    1.9000 H   0  0  0  0  0  0  0  0  0  0  0  0
    5.8107   -1.1146    2.8582 H   0  0  0  0  0  0  0  0  0  0  0  0
    0.9735   -0.4640    1.8650 H   0  0  0  0  0  0  0  0  0  0  0  0
   -0.0049   -1.7195   -0.0510 H   0  0  0  0  0  0  0  0  0  0  0  0
    1.4144   -3.2625   -1.3526 H   0  0  0  0  0  0  0  0  0  0  0  0
    3.7824   -3.5670   -0.7479 H   0  0  0  0  0  0  0  0  0  0  0  0
    4.7418   -2.3428    1.1540 H   0  0  0  0  0  0  0  0  0  0  0  0
  1  4  1  0  0  0  0
  1  2  1  1  0  0  0
  3  1  1  0  0  0  0
  3 12  1  0  0  0  0
  5  9  1  0  0  0  0
  5  4  1  0  0  0  0
  6 21  1  0  0  0  0
  6  7  1  0  0  0  0
  7  1  1  0  0  0  0
  8  7  2  0  0  0  0
  8  5  1  0  0  0  0
  9 10  1  0  0  0  0
 10 24  1  0  0  0  0
 10 26  1  0  0  0  0
 10 25  1  0  0  0  0
 11 27  1  0  0  0  0
 11  9  1  0  0  0  0
 12 32  1  0  0  0  0
 12 30  1  0  0  0  0
 13 35  1  0  0  0  0
 13  3  1  0  0  0  0
 13 33  1  0  0  0  0
 14  3  1  0  0  0  0
 15 14  1  0  0  0  0
 15 36  1  0  0  0  0
 16 15  2  0  0  0  0
 17 18  2  0  0  0  0
 17 16  1  0  0  0  0
 18 19  1  0  0  0  0
 19 40  1  0  0  0  0
 19 14  2  0  0  0  0
 20  6  1  0  0  0  0
 22  6  1  0  0  0  0
 23  8  1  0  0  0  0
 28 11  1  0  0  0  0
 29 11  1  0  0  0  0
 31 12  1  0  0  0  0
 34 13  1  0  0  0  0
 37 16  1  0  0  0  0
 38 17  1  0  0  0  0
 39 18  1  0  0  0  0
M  END
$$$$
