CSD_code = CACZOY | q = 0 | S = 0 | Stoichiometry = C33H28BrClNRh | MND = 8
 OpenBabel04212202013D

 65 71  0  0  1  0  0  0  0  0999 V2000
    0.1498    2.7929    5.7781 Rh  0  0  1  0  0  0  0  0  0  0  0  0
    4.2466   -0.2034   10.9704 Br  0  0  0  0  0  0  0  0  0  0  0  0
    1.6718    4.4927    5.4371 Cl  0  0  0  0  0 15  0  0  0  0  0  0
    1.6436    1.4546    5.7519 N   0  0  0  0  0  0  0  0  0  0  0  0
    0.3389    2.4529    3.8204 C   0  0  0  0  0  0  0  0  0  0  0  0
   -0.3449    3.1160    2.8214 C   0  0  0  0  0  0  0  0  0  0  0  0
   -1.0473    3.9031    3.0625 H   0  0  0  0  0  0  0  0  0  0  0  0
   -0.1352    2.8068    1.4733 C   0  0  0  0  0  0  0  0  0  0  0  0
   -0.8555    3.4715    0.4398 C   0  0  0  0  0  0  0  0  0  0  0  0
   -1.5703    4.2297    0.7267 H   0  0  0  0  0  0  0  0  0  0  0  0
   -0.6558    3.1715   -0.8650 C   0  0  0  0  0  0  0  0  0  0  0  0
   -1.2080    3.6837   -1.6403 H   0  0  0  0  0  0  0  0  0  0  0  0
    0.2884    2.1779   -1.2576 C   0  0  0  0  0  0  0  0  0  0  0  0
    0.5132    1.8552   -2.5959 C   0  0  0  0  0  0  0  0  0  0  0  0
   -0.0471    2.3702   -3.3631 H   0  0  0  0  0  0  0  0  0  0  0  0
    1.4424    0.8904   -2.9456 C   0  0  0  0  0  0  0  0  0  0  0  0
    1.6030    0.6549   -3.9876 H   0  0  0  0  0  0  0  0  0  0  0  0
    2.1670    0.2296   -1.9730 C   0  0  0  0  0  0  0  0  0  0  0  0
    2.8942   -0.5196   -2.2515 H   0  0  0  0  0  0  0  0  0  0  0  0
    1.9746    0.5210   -0.6192 C   0  0  0  0  0  0  0  0  0  0  0  0
    2.7063   -0.1323    0.4097 C   0  0  0  0  0  0  0  0  0  0  0  0
    3.4310   -0.8817    0.1239 H   0  0  0  0  0  0  0  0  0  0  0  0
    2.5103    0.1701    1.7178 C   0  0  0  0  0  0  0  0  0  0  0  0
    3.0831   -0.3443    2.4741 H   0  0  0  0  0  0  0  0  0  0  0  0
    1.5585    1.1469    2.1170 C   0  0  0  0  0  0  0  0  0  0  0  0
    1.3161    1.4877    3.4698 C   0  0  0  0  0  0  0  0  0  0  0  0
    0.8134    1.8116    1.1153 C   0  0  0  0  0  0  0  0  0  0  0  0
    1.0235    1.5034   -0.2508 C   0  0  0  0  0  0  0  0  0  0  0  0
    2.0181    0.9906    4.5963 C   0  0  0  0  0  3  0  0  0  0  0  0
    2.8645    0.3141    4.5289 H   0  0  0  0  0  0  0  0  0  0  0  0
    2.2683    1.0581    6.9327 C   0  0  0  0  0  0  0  0  0  0  0  0
    2.6460    2.0291    7.8641 C   0  0  0  0  0  0  0  0  0  0  0  0
    2.4806    3.0723    7.6279 H   0  0  0  0  0  0  0  0  0  0  0  0
    3.2422    1.6590    9.0514 C   0  0  0  0  0  0  0  0  0  0  0  0
    3.5449    2.4064    9.7685 H   0  0  0  0  0  0  0  0  0  0  0  0
    3.4501    0.3139    9.3175 C   0  0  0  0  0  0  0  0  0  0  0  0
    3.0818   -0.6632    8.4079 C   0  0  0  0  0  0  0  0  0  0  0  0
    3.2483   -1.7056    8.6326 H   0  0  0  0  0  0  0  0  0  0  0  0
    2.4982   -0.2902    7.2124 C   0  0  0  0  0  0  0  0  0  0  0  0
    2.1920   -1.0449    6.5024 H   0  0  0  0  0  0  0  0  0  0  0  0
   -1.5208    1.7756    6.7631 C   0  0  1  0  0  0  0  0  0  0  0  0
   -0.8457    2.4478    7.8598 C   0  0  0  0  0  0  0  0  0  0  0  0
   -0.8513    3.8183    7.5876 C   0  0  0  0  0  0  0  0  0  0  0  0
   -1.5527    4.0305    6.3265 C   0  0  2  0  0  0  0  0  0  0  0  0
   -2.0666    2.7743    5.8954 C   0  0  2  0  0  3  0  0  0  0  0  0
   -1.9094    0.3294    6.7641 C   0  0  0  0  0  0  0  0  0  0  0  0
   -1.1292   -0.2886    7.2046 H   0  0  0  0  0  0  0  0  0  0  0  0
   -2.1029   -0.0235    5.7534 H   0  0  0  0  0  0  0  0  0  0  0  0
   -2.8192    0.1950    7.3532 H   0  0  0  0  0  0  0  0  0  0  0  0
   -0.3980    1.7688    9.1167 C   0  0  0  0  0  0  0  0  0  0  0  0
    0.0449    0.7961    8.9098 H   0  0  0  0  0  0  0  0  0  0  0  0
   -1.2603    1.6131    9.7684 H   0  0  0  0  0  0  0  0  0  0  0  0
    0.3323    2.3683    9.6544 H   0  0  0  0  0  0  0  0  0  0  0  0
   -0.3421    4.9333    8.4432 C   0  0  0  0  0  0  0  0  0  0  0  0
    0.3468    5.5615    7.8789 H   0  0  0  0  0  0  0  0  0  0  0  0
    0.1739    4.5528    9.3210 H   0  0  0  0  0  0  0  0  0  0  0  0
   -1.1758    5.5559    8.7708 H   0  0  0  0  0  0  0  0  0  0  0  0
   -1.9431    5.3897    5.8310 C   0  0  0  0  0  0  0  0  0  0  0  0
   -1.0754    6.0457    5.7933 H   0  0  0  0  0  0  0  0  0  0  0  0
   -2.6768    5.8313    6.5081 H   0  0  0  0  0  0  0  0  0  0  0  0
   -2.3801    5.3398    4.8366 H   0  0  0  0  0  0  0  0  0  0  0  0
   -3.0855    2.5195    4.8275 C   0  0  0  0  0  0  0  0  0  0  0  0
   -3.2336    3.3974    4.2048 H   0  0  0  0  0  0  0  0  0  0  0  0
   -4.0384    2.2724    5.2993 H   0  0  0  0  0  0  0  0  0  0  0  0
   -2.7987    1.6877    4.1866 H   0  0  0  0  0  0  0  0  0  0  0  0
  1  5  1  6  0  0  0
  1 44  1  0  0  0  0
  1 41  1  0  0  0  0
  4  1  1  0  0  0  0
  4 31  1  0  0  0  0
  6  7  1  0  0  0  0
  6  5  2  0  0  0  0
  8  6  1  0  0  0  0
  9 10  1  0  0  0  0
  9  8  2  0  0  0  0
 11  9  1  0  0  0  0
 12 11  1  0  0  0  0
 13 11  2  0  0  0  0
 13 28  1  0  0  0  0
 14 13  1  0  0  0  0
 15 14  1  0  0  0  0
 16 14  2  0  0  0  0
 16 18  1  0  0  0  0
 17 16  1  0  0  0  0
 18 20  2  0  0  0  0
 19 18  1  0  0  0  0
 20 28  1  0  0  0  0
 20 21  1  0  0  0  0
 21 23  2  0  0  0  0
 22 21  1  0  0  0  0
 23 25  1  0  0  0  0
 23 24  1  0  0  0  0
 25 26  2  0  0  0  0
 26  5  1  0  0  0  0
 26 29  1  0  0  0  0
 27  8  1  0  0  0  0
 27 25  1  0  0  0  0
 28 27  2  0  0  0  0
 29  4  1  0  0  0  0
 30 29  1  0  0  0  0
 31 39  2  0  0  0  0
 31 32  1  0  0  0  0
 32 34  2  0  0  0  0
 33 32  1  0  0  0  0
 34 36  1  0  0  0  0
 34 35  1  0  0  0  0
 36  2  1  0  0  0  0
 37 38  1  0  0  0  0
 37 36  2  0  0  0  0
 39 37  1  0  0  0  0
 40 39  1  0  0  0  0
 41 46  1  6  0  0  0
 41 42  1  0  0  0  0
 42 50  1  0  0  0  0
 43 42  2  0  0  0  0
 43 54  1  0  0  0  0
 44 58  1  6  0  0  0
 44 43  1  0  0  0  0
 45 62  1  1  0  0  0
 45 44  1  0  0  0  0
 45 41  1  0  0  0  0
 46 47  1  0  0  0  0
 46 49  1  0  0  0  0
 48 46  1  0  0  0  0
 50 53  1  0  0  0  0
 50 52  1  0  0  0  0
 51 50  1  0  0  0  0
 54 57  1  0  0  0  0
 54 56  1  0  0  0  0
 55 54  1  0  0  0  0
 58 60  1  0  0  0  0
 59 58  1  0  0  0  0
 61 58  1  0  0  0  0
 62 64  1  0  0  0  0
 63 62  1  0  0  0  0
 65 62  1  0  0  0  0
M  END
$$$$
