CSD_code = CADCIW | q = 0 | S = 0 | Stoichiometry = C16H18ClN3O4Zn | MND = 6
 OpenBabel04212202013D

 43 46  0  0  1  0  0  0  0  0999 V2000
    2.7683    5.4289    9.0357 Zn  0  0  0  0  0  0  0  0  0  0  0  0
    0.8635    5.7457   10.2153 Cl  0  0  0  0  0  0  0  0  0  0  0  0
    2.7253    3.8510    7.8471 O   0  0  0  0  0  0  0  0  0  0  0  0
    1.8870    3.0940    5.9427 O   0  0  0  0  0  0  0  0  0  0  0  0
    2.3055    6.1826    4.6494 O   0  0  0  0  0  0  0  0  0  0  0  0
    2.3486    6.0618    3.6977 H   0  0  0  0  0  0  0  0  0  0  0  0
    4.8831    5.4700    7.9435 O   0  0  0  0  0  0  0  0  0  0  0  0
    4.4965    4.7470    7.4298 H   0  0  0  0  0  0  0  0  0  0  0  0
    5.5389    5.0583    8.5092 H   0  0  0  0  0  0  0  0  0  0  0  0
    2.0351    6.3834    7.2943 N   0  0  0  0  0  4  0  0  0  0  0  0
    2.7518    6.6877    6.6335 H   0  0  0  0  0  0  0  0  0  0  0  0
    1.4182    7.1733    7.4660 H   0  0  0  0  0  0  0  0  0  0  0  0
    3.6894    6.9608   10.2570 N   0  0  0  0  0  0  0  0  0  0  0  0
    3.5760    4.2987   10.6438 N   0  0  0  0  0  0  0  0  0  0  0  0
    2.0251    3.9531    6.7902 C   0  0  0  0  0  0  0  0  0  0  0  0
    1.2832    5.3229    6.6142 C   0  0  2  0  0  0  0  0  0  0  0  0
    0.3152    5.1954    7.1094 H   0  0  0  0  0  0  0  0  0  0  0  0
    1.0807    5.6318    5.1242 C   0  0  1  0  0  0  0  0  0  0  0  0
    0.8775    4.6758    4.6246 H   0  0  0  0  0  0  0  0  0  0  0  0
   -0.0776    6.6001    4.8788 C   0  0  0  0  0  0  0  0  0  0  0  0
   -0.1942    6.7864    3.8128 H   0  0  0  0  0  0  0  0  0  0  0  0
    0.1107    7.5516    5.3725 H   0  0  0  0  0  0  0  0  0  0  0  0
   -1.0026    6.1784    5.2606 H   0  0  0  0  0  0  0  0  0  0  0  0
    3.7314    8.2554   10.0501 C   0  0  0  0  0  0  0  0  0  0  0  0
    3.6661    8.5745    9.0202 H   0  0  0  0  0  0  0  0  0  0  0  0
    3.8566    9.1891   11.0832 C   0  0  0  0  0  0  0  0  0  0  0  0
    3.8807   10.2429   10.8546 H   0  0  0  0  0  0  0  0  0  0  0  0
    3.9359    8.7408   12.3791 C   0  0  0  0  0  0  0  0  0  0  0  0
    4.0209    9.4301   13.2068 H   0  0  0  0  0  0  0  0  0  0  0  0
    3.8969    7.3590   12.6283 C   0  0  0  0  0  0  0  0  0  0  0  0
    3.7745    6.5018   11.5133 C   0  0  0  0  0  0  0  0  0  0  0  0
    3.9555    6.8028   13.9386 C   0  0  0  0  0  0  0  0  0  0  0  0
    4.0490    7.4803   14.7747 H   0  0  0  0  0  0  0  0  0  0  0  0
    3.8775    5.4648   14.1342 C   0  0  0  0  0  0  0  0  0  0  0  0
    3.9053    5.0477   15.1301 H   0  0  0  0  0  0  0  0  0  0  0  0
    3.7416    4.5697   13.0344 C   0  0  0  0  0  0  0  0  0  0  0  0
    3.7047    5.0853   11.7217 C   0  0  0  0  0  0  0  0  0  0  0  0
    3.6208    3.1774   13.1835 C   0  0  0  0  0  0  0  0  0  0  0  0
    3.6331    2.7452   14.1739 H   0  0  0  0  0  0  0  0  0  0  0  0
    3.4749    2.3928   12.0654 C   0  0  0  0  0  0  0  0  0  0  0  0
    3.3660    1.3228   12.1446 H   0  0  0  0  0  0  0  0  0  0  0  0
    3.4584    3.0006   10.8054 C   0  0  0  0  0  0  0  0  0  0  0  0
    3.3344    2.4246    9.8993 H   0  0  0  0  0  0  0  0  0  0  0  0
  1  2  1  0  0  0  0
  1 13  1  0  0  0  0
  1 14  1  0  0  0  0
  3  1  1  0  0  0  0
  4 15  2  0  0  0  0
  5 18  1  0  0  0  0
  6  5  1  0  0  0  0
  7  9  1  0  0  0  0
  8  7  1  0  0  0  0
 10 12  1  0  0  0  0
 10  1  1  0  0  0  0
 11 10  1  0  0  0  0
 13 31  1  0  0  0  0
 14 42  1  0  0  0  0
 14 37  1  0  0  0  0
 15  3  1  0  0  0  0
 16 15  1  0  0  0  0
 16 17  1  1  0  0  0
 16 10  1  0  0  0  0
 18 19  1  6  0  0  0
 18 16  1  0  0  0  0
 20 18  1  0  0  0  0
 20 23  1  0  0  0  0
 20 22  1  0  0  0  0
 21 20  1  0  0  0  0
 24 13  1  0  0  0  0
 24 26  2  0  0  0  0
 25 24  1  0  0  0  0
 26 28  1  0  0  0  0
 27 26  1  0  0  0  0
 28 30  2  0  0  0  0
 28 29  1  0  0  0  0
 30 32  1  0  0  0  0
 31 37  2  0  0  0  0
 31 30  1  0  0  0  0
 32 34  2  0  0  0  0
 32 33  1  0  0  0  0
 34 35  1  0  0  0  0
 36 38  2  0  0  0  0
 36 34  1  0  0  0  0
 37 36  1  0  0  0  0
 38 39  1  0  0  0  0
 40 41  1  0  0  0  0
 40 38  1  0  0  0  0
 42 40  2  0  0  0  0
 43 42  1  0  0  0  0
M  END
$$$$
