CSD_code = CADNIF | q = 0 | S = 0 | Stoichiometry = C32H27BrCuN2P | MND = 4
 OpenBabel04212202013D

 64 70  0  0  0  0  0  0  0  0999 V2000
    5.8222   -1.4083    3.4350 Br  0  0  0  0  0  0  0  0  0  0  0  0
    4.2248    0.1235    2.9336 Cu  0  0  1  0  0  0  0  0  0  0  0  0
    2.0641   -0.5277    3.2023 P   0  0  0  0  0  4  0  0  0  0  0  0
    3.9504    1.9620    3.8069 N   0  0  0  0  0  0  0  0  0  0  0  0
    4.0656    1.2154    1.2230 N   0  0  0  0  0  0  0  0  0  0  0  0
    3.8578    2.2610    5.0904 C   0  0  0  0  0  0  0  0  0  0  0  0
    3.3881    3.5142    5.5088 C   0  0  0  0  0  0  0  0  0  0  0  0
    3.0226    4.4555    4.5762 C   0  0  0  0  0  0  0  0  0  0  0  0
    3.1100    4.1443    3.2103 C   0  0  0  0  0  0  0  0  0  0  0  0
    2.7437    5.0436    2.1718 C   0  0  0  0  0  0  0  0  0  0  0  0
    2.8303    4.6794    0.8693 C   0  0  0  0  0  0  0  0  0  0  0  0
    3.2794    3.3820    0.4983 C   0  0  0  0  0  0  0  0  0  0  0  0
    3.3539    2.9369   -0.8309 C   0  0  0  0  0  0  0  0  0  0  0  0
    3.7782    1.6555   -1.0906 C   0  0  0  0  0  0  0  0  0  0  0  0
    4.1326    0.8059   -0.0320 C   0  0  0  0  0  0  0  0  0  0  0  0
    4.5838   -0.5921   -0.2875 C   0  0  0  0  0  0  0  0  0  0  0  0
    4.2557    1.2071    6.0673 C   0  0  0  0  0  0  0  0  0  0  0  0
    3.5824    2.8585    2.8751 C   0  0  0  0  0  0  0  0  0  0  0  0
    3.6558    2.4670    1.5041 C   0  0  0  0  0  0  0  0  0  0  0  0
    1.5239   -1.4457    4.6836 C   0  0  0  0  0  0  0  0  0  0  0  0
    0.1839   -1.5489    5.0460 C   0  0  0  0  0  0  0  0  0  0  0  0
   -0.1693   -2.2924    6.1557 C   0  0  0  0  0  0  0  0  0  0  0  0
    0.8045   -2.9428    6.8992 C   0  0  0  0  0  0  0  0  0  0  0  0
    2.1362   -2.8530    6.5313 C   0  0  0  0  0  0  0  0  0  0  0  0
    2.4990   -2.1059    5.4240 C   0  0  0  0  0  0  0  0  0  0  0  0
    1.4086   -1.6565    1.9312 C   0  0  0  0  0  0  0  0  0  0  0  0
    0.1258   -1.5903    1.4000 C   0  0  0  0  0  0  0  0  0  0  0  0
   -0.2722   -2.5194    0.4556 C   0  0  0  0  0  0  0  0  0  0  0  0
    0.5963   -3.5186    0.0458 C   0  0  0  0  0  0  0  0  0  0  0  0
    1.8709   -3.5951    0.5843 C   0  0  0  0  0  0  0  0  0  0  0  0
    2.2781   -2.6659    1.5234 C   0  0  0  0  0  0  0  0  0  0  0  0
    0.9857    0.9237    3.1504 C   0  0  0  0  0  0  0  0  0  0  0  0
    0.7407    1.5416    1.9236 C   0  0  0  0  0  0  0  0  0  0  0  0
    0.1122    2.7705    1.8732 C   0  0  0  0  0  0  0  0  0  0  0  0
   -0.2526    3.4129    3.0454 C   0  0  0  0  0  0  0  0  0  0  0  0
    0.0131    2.8200    4.2695 C   0  0  0  0  0  0  0  0  0  0  0  0
    0.6358    1.5882    4.3250 C   0  0  0  0  0  0  0  0  0  0  0  0
    3.3275    3.7300    6.5645 H   0  0  0  0  0  0  0  0  0  0  0  0
    2.6690    5.4306    4.8791 H   0  0  0  0  0  0  0  0  0  0  0  0
    2.3885    6.0253    2.4502 H   0  0  0  0  0  0  0  0  0  0  0  0
    2.5484    5.3642    0.0824 H   0  0  0  0  0  0  0  0  0  0  0  0
    3.0777    3.6047   -1.6344 H   0  0  0  0  0  0  0  0  0  0  0  0
    3.8466    1.2900   -2.1037 H   0  0  0  0  0  0  0  0  0  0  0  0
    5.1922   -0.9499    0.5403 H   0  0  0  0  0  0  0  0  0  0  0  0
    5.1551   -0.6526   -1.2105 H   0  0  0  0  0  0  0  0  0  0  0  0
    3.7172   -1.2494   -0.3767 H   0  0  0  0  0  0  0  0  0  0  0  0
    3.4163    0.5296    6.2378 H   0  0  0  0  0  0  0  0  0  0  0  0
    4.5487    1.6410    7.0194 H   0  0  0  0  0  0  0  0  0  0  0  0
    5.0758    0.6140    5.6668 H   0  0  0  0  0  0  0  0  0  0  0  0
   -0.5746   -1.0465    4.4611 H   0  0  0  0  0  0  0  0  0  0  0  0
   -1.2089   -2.3704    6.4401 H   0  0  0  0  0  0  0  0  0  0  0  0
    0.5199   -3.5241    7.7639 H   0  0  0  0  0  0  0  0  0  0  0  0
    2.8955   -3.3645    7.1033 H   0  0  0  0  0  0  0  0  0  0  0  0
    3.5377   -2.0393    5.1292 H   0  0  0  0  0  0  0  0  0  0  0  0
   -0.5583   -0.8160    1.7192 H   0  0  0  0  0  0  0  0  0  0  0  0
   -1.2683   -2.4657    0.0400 H   0  0  0  0  0  0  0  0  0  0  0  0
    0.2766   -4.2396   -0.6921 H   0  0  0  0  0  0  0  0  0  0  0  0
    2.5482   -4.3756    0.2709 H   0  0  0  0  0  0  0  0  0  0  0  0
    3.2721   -2.7150    1.9498 H   0  0  0  0  0  0  0  0  0  0  0  0
    1.0421    1.0467    1.0083 H   0  0  0  0  0  0  0  0  0  0  0  0
   -0.0840    3.2352    0.9175 H   0  0  0  0  0  0  0  0  0  0  0  0
   -0.7371    4.3771    3.0048 H   0  0  0  0  0  0  0  0  0  0  0  0
   -0.2608    3.3241    5.1852 H   0  0  0  0  0  0  0  0  0  0  0  0
    0.8524    1.1316    5.2819 H   0  0  0  0  0  0  0  0  0  0  0  0
  2  3  1  0  0  0  0
  2  1  1  1  0  0  0
  2  4  1  0  0  0  0
  3 20  1  0  0  0  0
  4  6  1  0  0  0  0
  5 19  1  0  0  0  0
  5  2  1  0  0  0  0
  6  7  2  0  0  0  0
  6 17  1  0  0  0  0
  7 38  1  0  0  0  0
  8 39  1  0  0  0  0
  8  7  1  0  0  0  0
  9  8  2  0  0  0  0
 10 40  1  0  0  0  0
 10  9  1  0  0  0  0
 11 10  2  0  0  0  0
 12 11  1  0  0  0  0
 12 19  1  0  0  0  0
 13 12  2  0  0  0  0
 14 13  1  0  0  0  0
 14 15  2  0  0  0  0
 15  5  1  0  0  0  0
 16 15  1  0  0  0  0
 16 44  1  0  0  0  0
 17 47  1  0  0  0  0
 17 48  1  0  0  0  0
 18  9  1  0  0  0  0
 18  4  1  0  0  0  0
 19 18  2  0  0  0  0
 20 21  2  0  0  0  0
 20 25  1  0  0  0  0
 21 22  1  0  0  0  0
 22 51  1  0  0  0  0
 22 23  2  0  0  0  0
 23 52  1  0  0  0  0
 24 23  1  0  0  0  0
 24 53  1  0  0  0  0
 25 24  2  0  0  0  0
 26  3  1  0  0  0  0
 27 55  1  0  0  0  0
 27 26  2  0  0  0  0
 28 27  1  0  0  0  0
 29 28  2  0  0  0  0
 29 30  1  0  0  0  0
 30 31  2  0  0  0  0
 31 26  1  0  0  0  0
 31 59  1  0  0  0  0
 32  3  1  0  0  0  0
 32 37  1  0  0  0  0
 33 32  2  0  0  0  0
 34 33  1  0  0  0  0
 34 35  2  0  0  0  0
 35 36  1  0  0  0  0
 36 37  2  0  0  0  0
 36 63  1  0  0  0  0
 37 64  1  0  0  0  0
 41 11  1  0  0  0  0
 42 13  1  0  0  0  0
 43 14  1  0  0  0  0
 45 16  1  0  0  0  0
 46 16  1  0  0  0  0
 49 17  1  0  0  0  0
 50 21  1  0  0  0  0
 54 25  1  0  0  0  0
 56 28  1  0  0  0  0
 57 29  1  0  0  0  0
 58 30  1  0  0  0  0
 60 33  1  0  0  0  0
 61 34  1  0  0  0  0
 62 35  1  0  0  0  0
M  END
$$$$
