CSD_code = CADSAB | q = 0 | S = 0 | Stoichiometry = C48H42ClP2Rh | MND = 5
 OpenBabel04212202013D

 94 98  0  0  1  0  0  0  0  0999 V2000
    3.8067    2.3933    3.9999 Rh  0  0  0  0  0  0  0  0  0  0  0  0
    5.7260    3.0288    5.1610 Cl  0  0  0  0  0 15  0  0  0  0  0  0
    2.7249    3.2196    5.8319 P   0  0  0  0  0  0  0  0  0  0  0  0
    5.1821    1.4871    2.4230 P   0  0  0  0  0  0  0  0  0  0  0  0
    0.9384    3.5681    5.6920 C   0  0  0  0  0  0  0  0  0  0  0  0
    0.0515    2.4937    5.6652 C   0  0  0  0  0  0  0  0  0  0  0  0
   -1.3104    2.7144    5.5952 C   0  0  0  0  0  0  0  0  0  0  0  0
   -1.8017    4.0099    5.5310 C   0  0  0  0  0  0  0  0  0  0  0  0
   -0.9228    5.0795    5.5170 C   0  0  0  0  0  0  0  0  0  0  0  0
    0.4426    4.8625    5.5955 C   0  0  0  0  0  0  0  0  0  0  0  0
    2.7457    2.1301    7.3000 C   0  0  0  0  0  0  0  0  0  0  0  0
    3.8331    1.2814    7.4757 C   0  0  0  0  0  0  0  0  0  0  0  0
    3.9026    0.4479    8.5772 C   0  0  0  0  0  0  0  0  0  0  0  0
    2.8862    0.4564    9.5174 C   0  0  0  0  0  0  0  0  0  0  0  0
    1.8073    1.3111    9.3577 C   0  0  0  0  0  0  0  0  0  0  0  0
    1.7345    2.1468    8.2581 C   0  0  0  0  0  0  0  0  0  0  0  0
    3.3613    4.7911    6.5060 C   0  0  0  0  0  0  0  0  0  0  0  0
    3.7904    5.7624    5.6059 C   0  0  0  0  0  0  0  0  0  0  0  0
    4.2645    6.9759    6.0672 C   0  0  0  0  0  0  0  0  0  0  0  0
    4.3171    7.2289    7.4284 C   0  0  0  0  0  0  0  0  0  0  0  0
    3.8965    6.2625    8.3260 C   0  0  0  0  0  0  0  0  0  0  0  0
    3.4192    5.0457    7.8711 C   0  0  0  0  0  0  0  0  0  0  0  0
    4.4417    1.2687    0.7780 C   0  0  0  0  0  0  0  0  0  0  0  0
    4.7384    2.1418   -0.2614 C   0  0  0  0  0  0  0  0  0  0  0  0
    4.0907    2.0152   -1.4777 C   0  0  0  0  0  0  0  0  0  0  0  0
    3.1385    1.0279   -1.6604 C   0  0  0  0  0  0  0  0  0  0  0  0
    2.8261    0.1667   -0.6207 C   0  0  0  0  0  0  0  0  0  0  0  0
    3.4701    0.2872    0.5948 C   0  0  0  0  0  0  0  0  0  0  0  0
    6.7408    2.3510    2.0424 C   0  0  0  0  0  0  0  0  0  0  0  0
    7.8558    1.6453    1.6018 C   0  0  0  0  0  0  0  0  0  0  0  0
    9.0216    2.3211    1.2905 C   0  0  0  0  0  0  0  0  0  0  0  0
    9.0839    3.6991    1.4158 C   0  0  0  0  0  0  0  0  0  0  0  0
    7.9735    4.4041    1.8499 C   0  0  0  0  0  0  0  0  0  0  0  0
    6.8042    3.7351    2.1615 C   0  0  0  0  0  0  0  0  0  0  0  0
    5.7883   -0.1812    2.8563 C   0  0  0  0  0  0  0  0  0  0  0  0
    6.2122   -0.3699    4.1695 C   0  0  0  0  0  0  0  0  0  0  0  0
    6.6954   -1.5981    4.5799 C   0  0  0  0  0  0  0  0  0  0  0  0
    6.7599   -2.6512    3.6818 C   0  0  0  0  0  0  0  0  0  0  0  0
    6.3558   -2.4647    2.3702 C   0  0  0  0  0  0  0  0  0  0  0  0
    5.8753   -1.2354    1.9532 C   0  0  0  0  0  0  0  0  0  0  0  0
    0.7209   -0.9686    3.6700 C   0  0  0  0  0  0  0  0  0  0  0  0
    2.7836   -1.0997    5.1672 C   0  0  0  0  0  0  0  0  0  0  0  0
    1.9848   -0.3253    4.1676 C   0  0  0  0  0  0  0  0  0  0  0  0
    2.3375    0.8757    3.7111 C   0  0  0  0  0  3  0  0  0  0  0  0
    2.1185    1.9016    2.9112 C   0  0  0  0  0  0  0  0  0  0  0  0
    1.7705    2.7264    1.8910 C   0  0  2  0  0  0  0  0  0  0  0  0
    2.6174    3.9372    1.7885 C   0  0  0  0  0  0  0  0  0  0  0  0
    0.1666    2.8012    1.4905 C   0  0  1  0  0  3  0  0  0  0  0  0
   -0.9727    3.3734    2.2023 C   0  0  0  0  0  0  0  0  0  0  0  0
    0.9476    2.2638    0.6363 C   0  0  0  0  0  2  0  0  0  0  0  0
    2.3442    4.9227    0.6954 C   0  0  0  0  0  0  0  0  0  0  0  0
    3.5587    4.0471    2.7134 C   0  0  0  0  0  3  0  0  0  0  0  0
    0.4398    1.4853    5.7156 H   0  0  0  0  0  0  0  0  0  0  0  0
   -1.9932    1.8763    5.5950 H   0  0  0  0  0  0  0  0  0  0  0  0
   -2.8668    4.1827    5.4830 H   0  0  0  0  0  0  0  0  0  0  0  0
   -1.3020    6.0893    5.4528 H   0  0  0  0  0  0  0  0  0  0  0  0
    1.1260    5.6999    5.5931 H   0  0  0  0  0  0  0  0  0  0  0  0
    4.6340    1.2938    6.7488 H   0  0  0  0  0  0  0  0  0  0  0  0
    4.7511   -0.2089    8.7022 H   0  0  0  0  0  0  0  0  0  0  0  0
    2.9349   -0.1964   10.3768 H   0  0  0  0  0  0  0  0  0  0  0  0
    1.0181    1.3300   10.0958 H   0  0  0  0  0  0  0  0  0  0  0  0
    0.8907    2.8136    8.1468 H   0  0  0  0  0  0  0  0  0  0  0  0
    3.7661    5.5430    4.5448 H   0  0  0  0  0  0  0  0  0  0  0  0
    4.6010    7.7237    5.3639 H   0  0  0  0  0  0  0  0  0  0  0  0
    4.6936    8.1747    7.7902 H   0  0  0  0  0  0  0  0  0  0  0  0
    3.9449    6.4529    9.3886 H   0  0  0  0  0  0  0  0  0  0  0  0
    3.1044    4.2952    8.5818 H   0  0  0  0  0  0  0  0  0  0  0  0
    5.4717    2.9222   -0.1133 H   0  0  0  0  0  0  0  0  0  0  0  0
    4.3263    2.6966   -2.2827 H   0  0  0  0  0  0  0  0  0  0  0  0
    2.6279    0.9370   -2.6075 H   0  0  0  0  0  0  0  0  0  0  0  0
    2.0702   -0.5924   -0.7556 H   0  0  0  0  0  0  0  0  0  0  0  0
    3.2153   -0.3719    1.4143 H   0  0  0  0  0  0  0  0  0  0  0  0
    7.8156    0.5691    1.5068 H   0  0  0  0  0  0  0  0  0  0  0  0
    9.8864    1.7683    0.9523 H   0  0  0  0  0  0  0  0  0  0  0  0
    9.9992    4.2215    1.1779 H   0  0  0  0  0  0  0  0  0  0  0  0
    8.0204    5.4786    1.9513 H   0  0  0  0  0  0  0  0  0  0  0  0
    5.9318    4.2746    2.5068 H   0  0  0  0  0  0  0  0  0  0  0  0
    6.1750    0.4642    4.8588 H   0  0  0  0  0  0  0  0  0  0  0  0
    7.0225   -1.7356    5.6003 H   0  0  0  0  0  0  0  0  0  0  0  0
    7.1311   -3.6142    4.0007 H   0  0  0  0  0  0  0  0  0  0  0  0
    6.4186   -3.2804    1.6641 H   0  0  0  0  0  0  0  0  0  0  0  0
    5.5738   -1.0964    0.9247 H   0  0  0  0  0  0  0  0  0  0  0  0
    0.9481   -1.9302    3.2079 H   0  0  0  0  0  0  0  0  0  0  0  0
    0.0394   -1.1554    4.5016 H   0  0  0  0  0  0  0  0  0  0  0  0
    0.2247   -0.3356    2.9382 H   0  0  0  0  0  0  0  0  0  0  0  0
    2.2369   -1.1920    6.1081 H   0  0  0  0  0  0  0  0  0  0  0  0
    2.9785   -2.1068    4.7962 H   0  0  0  0  0  0  0  0  0  0  0  0
    3.7344   -0.6099    5.3658 H   0  0  0  0  0  0  0  0  0  0  0  0
   -1.7701    3.5781    1.4872 H   0  0  0  0  0  0  0  0  0  0  0  0
   -1.3468    2.6874    2.9640 H   0  0  0  0  0  0  0  0  0  0  0  0
   -0.6884    4.3060    2.6922 H   0  0  0  0  0  0  0  0  0  0  0  0
    3.1072    5.6973    0.6845 H   0  0  0  0  0  0  0  0  0  0  0  0
    1.3671    5.3871    0.8351 H   0  0  0  0  0  0  0  0  0  0  0  0
    2.3381    4.4019   -0.2620 H   0  0  0  0  0  0  0  0  0  0  0  0
  3 17  1  0  0  0  0
  3 11  1  0  0  0  0
  4 35  1  0  0  0  0
  5  3  1  0  0  0  0
  6  5  1  0  0  0  0
  6 53  1  0  0  0  0
  7  6  2  0  0  0  0
  8  7  1  0  0  0  0
  9  8  2  0  0  0  0
  9 10  1  0  0  0  0
 10  5  2  0  0  0  0
 11 12  2  0  0  0  0
 11 16  1  0  0  0  0
 12 13  1  0  0  0  0
 13 59  1  0  0  0  0
 13 14  2  0  0  0  0
 14 60  1  0  0  0  0
 15 14  1  0  0  0  0
 15 61  1  0  0  0  0
 16 15  2  0  0  0  0
 17 22  1  0  0  0  0
 18 19  1  0  0  0  0
 18 17  2  0  0  0  0
 19 20  2  0  0  0  0
 20 65  1  0  0  0  0
 20 21  1  0  0  0  0
 21 66  1  0  0  0  0
 22 21  2  0  0  0  0
 22 67  1  0  0  0  0
 23  4  1  0  0  0  0
 24 68  1  0  0  0  0
 24 23  2  0  0  0  0
 25 24  1  0  0  0  0
 26 25  2  0  0  0  0
 26 27  1  0  0  0  0
 27 28  2  0  0  0  0
 28 23  1  0  0  0  0
 28 72  1  0  0  0  0
 29 34  1  0  0  0  0
 29  4  1  0  0  0  0
 30 29  2  0  0  0  0
 31 32  2  0  0  0  0
 31 30  1  0  0  0  0
 32 33  1  0  0  0  0
 33 76  1  0  0  0  0
 33 34  2  0  0  0  0
 34 77  1  0  0  0  0
 35 36  1  0  0  0  0
 36 37  2  0  0  0  0
 36 78  1  0  0  0  0
 37 79  1  0  0  0  0
 38 80  1  0  0  0  0
 38 37  1  0  0  0  0
 39 38  2  0  0  0  0
 40 39  1  0  0  0  0
 40 35  2  0  0  0  0
 41 43  1  0  0  0  0
 41 84  1  0  0  0  0
 42 88  1  0  0  0  0
 42 86  1  0  0  0  0
 43 42  1  0  0  0  0
 44 43  2  0  0  0  0
 45 44  1  0  0  0  0
 45  1  2  3  0  0  0
 46 50  1  6  0  0  0
 46 45  1  0  0  0  0
 47 46  1  0  0  0  0
 47 52  2  0  0  0  0
 48 46  1  0  0  0  0
 48 49  1  6  0  0  0
 49 91  1  0  0  0  0
 49 90  1  0  0  0  0
 50 48  1  0  0  0  0
 51 93  1  0  0  0  0
 51 47  1  0  0  0  0
 52  1  1  0  0  0  0
 54  7  1  0  0  0  0
 55  8  1  0  0  0  0
 56  9  1  0  0  0  0
 57 10  1  0  0  0  0
 58 12  1  0  0  0  0
 62 16  1  0  0  0  0
 63 18  1  0  0  0  0
 64 19  1  0  0  0  0
 69 25  1  0  0  0  0
 70 26  1  0  0  0  0
 71 27  1  0  0  0  0
 73 30  1  0  0  0  0
 74 31  1  0  0  0  0
 75 32  1  0  0  0  0
 81 39  1  0  0  0  0
 82 40  1  0  0  0  0
 83 41  1  0  0  0  0
 85 41  1  0  0  0  0
 87 42  1  0  0  0  0
 89 49  1  0  0  0  0
 92 51  1  0  0  0  0
 94 51  1  0  0  0  0
M  END
$$$$
