CSD_code = CAFHOI | q = 1 | S = 0 | Stoichiometry = C23H18ClN6ORu(1+) | MND = 6
 OpenBabel04212202013D

 50 55  0  0  0  0  0  0  0  0999 V2000
    3.1556    0.7870    3.9012 Ru  0  0  0  0  0  0  0  0  0  0  0  0
    3.6792   -1.3480    4.7312 Cl  0  0  0  0  0  0  0  0  0  0  0  0
    6.1441    0.9340    3.5088 O   0  0  0  0  0  1  0  0  0  0  0  0
    2.8017   -0.1280    2.1282 N   0  0  0  0  0  0  0  0  0  0  0  0
    0.6331   -0.0119    2.9367 N   0  0  0  0  0  2  0  0  0  0  0  0
    1.2127    0.4231    3.9822 N   0  0  0  0  0  0  0  0  0  0  0  0
    3.3184    1.7142    5.7260 N   0  0  0  0  0  0  0  0  0  0  0  0
    2.4098    3.4443    4.4861 N   0  0  0  0  0  2  0  0  0  0  0  0
    2.5663    2.6384    3.5116 N   0  0  0  0  0  0  0  0  0  0  0  0
    5.0207    0.9718    3.6625 C   0  0  0  0  0  2  0  0  0  0  0  0
    3.6581   -0.5744    1.2095 C   0  0  0  0  0  3  0  0  0  0  0  0
    3.2521   -1.2652    0.0829 C   0  0  0  0  0  0  0  0  0  0  0  0
    1.8962   -1.5080   -0.1232 C   0  0  0  0  0  0  0  0  0  0  0  0
    0.9969   -1.0687    0.8240 C   0  0  0  0  0  0  0  0  0  0  0  0
    1.4838   -0.3964    1.9491 C   0  0  0  0  0  0  0  0  0  0  0  0
    0.3673    0.8286    5.0134 C   0  0  0  0  0  0  0  0  0  0  0  0
   -0.7906    1.5616    4.7406 C   0  0  0  0  0  0  0  0  0  0  0  0
   -1.5819    1.9935    5.7858 C   0  0  0  0  0  0  0  0  0  0  0  0
   -1.2463    1.6749    7.0941 C   0  0  0  0  0  0  0  0  0  0  0  0
   -0.1217    0.9066    7.3601 C   0  0  0  0  0  0  0  0  0  0  0  0
    0.6922    0.4843    6.3280 C   0  0  0  0  0  0  0  0  0  0  0  0
    3.7822    1.2359    6.8750 C   0  0  0  0  0  3  0  0  0  0  0  0
    3.8013    1.9918    8.0348 C   0  0  0  0  0  0  0  0  0  0  0  0
    3.3178    3.2967    8.0069 C   0  0  0  0  0  0  0  0  0  0  0  0
    2.8423    3.8082    6.8169 C   0  0  0  0  0  0  0  0  0  0  0  0
    2.8607    2.9888    5.6842 C   0  0  0  0  0  0  0  0  0  0  0  0
    2.0298    3.0445    2.2930 C   0  0  0  0  0  0  0  0  0  0  0  0
    0.8494    3.7941    2.2493 C   0  0  0  0  0  0  0  0  0  0  0  0
    0.3066    4.1398    1.0284 C   0  0  0  0  0  0  0  0  0  0  0  0
    0.9400    3.7679   -0.1490 C   0  0  0  0  0  0  0  0  0  0  0  0
    2.1323    3.0580   -0.1063 C   0  0  0  0  0  0  0  0  0  0  0  0
    2.6793    2.6917    1.1069 C   0  0  0  0  0  0  0  0  0  0  0  0
    4.7087   -0.3778    1.3826 H   0  0  0  0  0  0  0  0  0  0  0  0
    3.9896   -1.6122   -0.6221 H   0  0  0  0  0  0  0  0  0  0  0  0
    1.5600   -2.0414   -0.9977 H   0  0  0  0  0  0  0  0  0  0  0  0
   -0.0633   -1.2434    0.7477 H   0  0  0  0  0  0  0  0  0  0  0  0
   -1.0305    1.7974    3.7142 H   0  0  0  0  0  0  0  0  0  0  0  0
   -2.4667    2.5758    5.5814 H   0  0  0  0  0  0  0  0  0  0  0  0
   -1.8707    2.0125    7.9064 H   0  0  0  0  0  0  0  0  0  0  0  0
    0.1143    0.6258    8.3748 H   0  0  0  0  0  0  0  0  0  0  0  0
    1.5374   -0.1640    6.5119 H   0  0  0  0  0  0  0  0  0  0  0  0
    4.1464    0.2153    6.8553 H   0  0  0  0  0  0  0  0  0  0  0  0
    4.1912    1.5641    8.9438 H   0  0  0  0  0  0  0  0  0  0  0  0
    3.3213    3.9014    8.8998 H   0  0  0  0  0  0  0  0  0  0  0  0
    2.4677    4.8137    6.7244 H   0  0  0  0  0  0  0  0  0  0  0  0
    0.3739    4.0704    3.1784 H   0  0  0  0  0  0  0  0  0  0  0  0
   -0.6119    4.7044    0.9923 H   0  0  0  0  0  0  0  0  0  0  0  0
    0.5122    4.0421   -1.1004 H   0  0  0  0  0  0  0  0  0  0  0  0
    2.6403    2.7992   -1.0222 H   0  0  0  0  0  0  0  0  0  0  0  0
    3.6332    2.1837    1.1563 H   0  0  0  0  0  0  0  0  0  0  0  0
  1  6  1  0  0  0  0
  1  2  1  0  0  0  0
  1  7  1  0  0  0  0
  3 10  1  0  0  0  0
  4  1  1  0  0  0  0
  5  6  1  0  0  0  0
  6 16  1  0  0  0  0
  7 22  1  0  0  0  0
  8 26  1  0  0  0  0
  9  1  1  0  0  0  0
  9  8  1  0  0  0  0
 10  1  1  0  0  0  0
 11 33  1  0  0  0  0
 11  4  1  0  0  0  0
 12 11  1  0  0  0  0
 13 12  2  0  0  0  0
 13 14  1  0  0  0  0
 14 15  2  0  0  0  0
 15  4  1  0  0  0  0
 15  5  1  0  0  0  0
 16 21  1  0  0  0  0
 17 16  2  0  0  0  0
 17 18  1  0  0  0  0
 18 19  2  0  0  0  0
 19 20  1  0  0  0  0
 19 39  1  0  0  0  0
 20 40  1  0  0  0  0
 21 41  1  0  0  0  0
 21 20  2  0  0  0  0
 22 23  1  0  0  0  0
 23 43  1  0  0  0  0
 24 23  2  0  0  0  0
 24 44  1  0  0  0  0
 25 24  1  0  0  0  0
 26  7  1  0  0  0  0
 26 25  2  0  0  0  0
 27  9  1  0  0  0  0
 28 27  1  0  0  0  0
 28 46  1  0  0  0  0
 29 28  2  0  0  0  0
 30 31  2  0  0  0  0
 30 29  1  0  0  0  0
 31 32  1  0  0  0  0
 32 50  1  0  0  0  0
 32 27  2  0  0  0  0
 34 12  1  0  0  0  0
 35 13  1  0  0  0  0
 36 14  1  0  0  0  0
 37 17  1  0  0  0  0
 38 18  1  0  0  0  0
 42 22  1  0  0  0  0
 45 25  1  0  0  0  0
 47 29  1  0  0  0  0
 48 30  1  0  0  0  0
 49 31  1  0  0  0  0
M  END
$$$$
