CSD_code = CAFPII | q = 1 | S = 0 | Stoichiometry = C12H28Cl2CoN4(1+) | MND = 6
 OpenBabel04212202013D

 47 50  0  0  1  0  0  0  0  0999 V2000
   13.3236    0.4246    4.8594 Co  0  0  0  0  0  0  0  0  0  0  0  0
   14.5929   -1.1990    4.1716 Cl  0  0  0  0  0  0  0  0  0  0  0  0
   11.8554   -1.0962    5.3645 Cl  0  0  0  0  0  0  0  0  0  0  0  0
   11.9606    1.8381    5.5789 N   0  0  2  0  0  4  0  0  0  0  0  0
   12.6689    0.6596    3.0087 N   0  0  1  0  0  4  0  0  0  0  0  0
   14.8375    1.7222    4.3358 N   0  0  2  0  0  4  0  0  0  0  0  0
   14.0075    0.3324    6.7108 N   0  0  2  0  0  4  0  0  0  0  0  0
   14.8615    1.7058    2.8653 C   0  0  0  0  0  0  0  0  0  0  0  0
   11.2090    0.7416    2.7853 C   0  0  1  0  0  0  0  0  0  0  0  0
   13.3781    1.3911    7.5145 C   0  0  0  0  0  0  0  0  0  0  0  0
   13.4321    1.7339    2.3493 C   0  0  0  0  0  0  0  0  0  0  0  0
   15.4548    0.2436    6.9611 C   0  0  0  0  0  0  0  0  0  0  0  0
   11.9528    1.6121    7.0352 C   0  0  0  0  0  0  0  0  0  0  0  0
   10.5845    1.8305    5.0314 C   0  0  2  0  0  0  0  0  0  0  0  0
   16.1876    1.4558    4.8577 C   0  0  0  0  0  0  0  0  0  0  0  0
   16.2429    1.4153    6.3791 C   0  0  0  0  0  0  0  0  0  0  0  0
   10.5852    1.9382    3.5047 C   0  0  0  0  0  0  0  0  0  0  0  0
    9.7442    2.9699    5.6115 C   0  0  0  0  0  0  0  0  0  0  0  0
   10.8689    0.7645    1.2946 C   0  0  0  0  0  0  0  0  0  0  0  0
   13.6000   -0.5581    7.0128 H   0  0  0  0  0  0  0  0  0  0  0  0
   14.5833    2.6658    4.6332 H   0  0  0  0  0  0  0  0  0  0  0  0
   12.9739   -0.2220    2.5838 H   0  0  0  0  0  0  0  0  0  0  0  0
   15.8181   -0.6802    6.5082 H   0  0  0  0  0  0  0  0  0  0  0  0
   15.6311    0.1931    8.0416 H   0  0  0  0  0  0  0  0  0  0  0  0
   17.2853    1.2878    6.6713 H   0  0  0  0  0  0  0  0  0  0  0  0
   15.9093    2.3665    6.7979 H   0  0  0  0  0  0  0  0  0  0  0  0
   16.8793    2.2224    4.4892 H   0  0  0  0  0  0  0  0  0  0  0  0
   16.5027    0.4874    4.4666 H   0  0  0  0  0  0  0  0  0  0  0  0
   15.3423    0.7758    2.5558 H   0  0  0  0  0  0  0  0  0  0  0  0
   15.4357    2.5483    2.4639 H   0  0  0  0  0  0  0  0  0  0  0  0
   12.9741    2.6964    2.5861 H   0  0  0  0  0  0  0  0  0  0  0  0
   13.4311    1.6097    1.2632 H   0  0  0  0  0  0  0  0  0  0  0  0
   11.3559    0.7183    7.2255 H   0  0  0  0  0  0  0  0  0  0  0  0
   11.5153    2.4556    7.5765 H   0  0  0  0  0  0  0  0  0  0  0  0
   13.9492    2.3146    7.3949 H   0  0  0  0  0  0  0  0  0  0  0  0
   13.3805    1.1269    8.5774 H   0  0  0  0  0  0  0  0  0  0  0  0
   10.7864   -0.1696    3.2189 H   0  0  0  0  0  0  0  0  0  0  0  0
   10.1431    0.8705    5.3106 H   0  0  0  0  0  0  0  0  0  0  0  0
    9.8073    0.5770    1.1635 H   0  0  0  0  0  0  0  0  0  0  0  0
   11.4095   -0.0155    0.7633 H   0  0  0  0  0  0  0  0  0  0  0  0
   11.0975    1.7262    0.8424 H   0  0  0  0  0  0  0  0  0  0  0  0
    9.5447    1.9908    3.1849 H   0  0  0  0  0  0  0  0  0  0  0  0
   11.0549    2.8743    3.1967 H   0  0  0  0  0  0  0  0  0  0  0  0
    8.7720    2.9874    5.1285 H   0  0  0  0  0  0  0  0  0  0  0  0
   10.2215    3.9337    5.4395 H   0  0  0  0  0  0  0  0  0  0  0  0
    9.5720    2.8464    6.6759 H   0  0  0  0  0  0  0  0  0  0  0  0
   12.3287    2.7778    5.4162 H   0  0  0  0  0  0  0  0  0  0  0  0
  1  3  1  0  0  0  0
  1  4  1  0  0  0  0
  1  7  1  0  0  0  0
  2  1  1  0  0  0  0
  4 47  1  6  0  0  0
  4 13  1  0  0  0  0
  5 22  1  6  0  0  0
  5  1  1  0  0  0  0
  6 21  1  1  0  0  0
  6 15  1  0  0  0  0
  6  1  1  0  0  0  0
  7 12  1  0  0  0  0
  7 20  1  1  0  0  0
  7 10  1  0  0  0  0
  8  6  1  0  0  0  0
  9  5  1  0  0  0  0
  9 37  1  1  0  0  0
  9 17  1  0  0  0  0
 10 36  1  0  0  0  0
 11 31  1  0  0  0  0
 11  8  1  0  0  0  0
 11  5  1  0  0  0  0
 12 24  1  0  0  0  0
 13 33  1  0  0  0  0
 13 10  1  0  0  0  0
 13 34  1  0  0  0  0
 14 38  1  1  0  0  0
 14  4  1  0  0  0  0
 14 18  1  0  0  0  0
 15 16  1  0  0  0  0
 16 25  1  0  0  0  0
 16 26  1  0  0  0  0
 16 12  1  0  0  0  0
 17 14  1  0  0  0  0
 18 46  1  0  0  0  0
 19  9  1  0  0  0  0
 23 12  1  0  0  0  0
 27 15  1  0  0  0  0
 28 15  1  0  0  0  0
 29  8  1  0  0  0  0
 30  8  1  0  0  0  0
 32 11  1  0  0  0  0
 35 10  1  0  0  0  0
 39 19  1  0  0  0  0
 40 19  1  0  0  0  0
 41 19  1  0  0  0  0
 42 17  1  0  0  0  0
 43 17  1  0  0  0  0
 44 18  1  0  0  0  0
 45 18  1  0  0  0  0
M  END
$$$$
