CSD_code = CAFRIM | q = 1 | S = 0 | Stoichiometry = C17H21ClN5S2Zn(1+) | MND = 4
 OpenBabel04212202013D

 47 51  0  0  1  0  0  0  0  0999 V2000
    1.8098   18.6815    2.5975 Zn  0  0  1  0  0  0  0  0  0  0  0  0
    2.1483   19.7254    0.4323 S   0  0  0  0  0  0  0  0  0  0  0  0
    3.2775   17.4140    3.5426 Cl  0  0  0  0  0  0  0  0  0  0  0  0
   -0.2135   19.4199    3.7167 S   0  0  0  0  0  0  0  0  0  0  0  0
    2.1912   17.0437   -0.1787 N   0  0  0  0  0  0  0  0  0  0  0  0
   -0.5365   16.6900    3.6220 N   0  0  0  0  0  0  0  0  0  0  0  0
   -0.8397   17.6015    5.5887 N   0  0  0  0  0  0  0  0  0  0  0  0
    0.7154   16.9825    1.6520 N   0  0  0  0  0  0  0  0  0  0  0  0
    0.1727   15.7519   -0.3246 C   0  0  0  0  0  0  0  0  0  0  0  0
    0.4107   15.5055   -1.3460 H   0  0  0  0  0  0  0  0  0  0  0  0
   -1.0852   16.2611    5.7145 C   0  0  0  0  0  0  0  0  0  0  0  0
   -1.3606   15.8141    6.6468 H   0  0  0  0  0  0  0  0  0  0  0  0
    0.9928   16.6113    0.4027 C   0  0  2  0  0  3  0  0  0  0  0  0
   -0.9186   18.5823    6.6629 C   0  0  0  0  0  0  0  0  0  0  0  0
   -0.5688   19.5256    6.2315 H   0  0  0  0  0  0  0  0  0  0  0  0
   -0.4899   17.8661    4.3186 C   0  0  2  0  0  3  0  0  0  0  0  0
    3.8665   18.2113   -0.9667 N   0  0  0  0  0  0  0  0  0  0  0  0
    2.9894   16.1970   -0.9308 C   0  0  0  0  0  0  0  0  0  0  0  0
    2.7779   15.1526   -1.0232 H   0  0  0  0  0  0  0  0  0  0  0  0
   -0.0009   18.1702    7.8084 C   0  0  0  0  0  0  0  0  0  0  0  0
   -0.3673   17.2782    8.3099 H   0  0  0  0  0  0  0  0  0  0  0  0
    0.0445   18.9742    8.5369 H   0  0  0  0  0  0  0  0  0  0  0  0
    1.0065   17.9817    7.4444 H   0  0  0  0  0  0  0  0  0  0  0  0
   -1.2144   15.5719    1.6084 C   0  0  0  0  0  0  0  0  0  0  0  0
   -2.0777   15.1825    2.1220 H   0  0  0  0  0  0  0  0  0  0  0  0
    2.7604   18.2870   -0.2074 C   0  0  1  0  0  3  0  0  0  0  0  0
   -0.3389   16.4385    2.2585 C   0  0  0  0  0  0  0  0  0  0  0  0
   -0.9609   15.2462    0.2874 C   0  0  0  0  0  0  0  0  0  0  0  0
   -1.6315   14.5982   -0.2541 H   0  0  0  0  0  0  0  0  0  0  0  0
   -0.9109   15.6909    4.5058 C   0  0  0  0  0  0  0  0  0  0  0  0
   -0.9734   14.6654    4.2081 H   0  0  0  0  0  0  0  0  0  0  0  0
    4.0221   16.9234   -1.4024 C   0  0  0  0  0  0  0  0  0  0  0  0
    4.8500   16.6196   -2.0082 H   0  0  0  0  0  0  0  0  0  0  0  0
   -2.3689   18.7375    7.1074 C   0  0  0  0  0  0  0  0  0  0  0  0
   -2.9958   19.0317    6.2692 H   0  0  0  0  0  0  0  0  0  0  0  0
   -2.4314   19.5091    7.8686 H   0  0  0  0  0  0  0  0  0  0  0  0
   -2.7514   17.8099    7.5262 H   0  0  0  0  0  0  0  0  0  0  0  0
    4.7692   19.3181   -1.2538 C   0  0  0  0  0  0  0  0  0  0  0  0
    4.3872   20.1699   -0.6824 H   0  0  0  0  0  0  0  0  0  0  0  0
    4.7198   19.6455   -2.7421 C   0  0  0  0  0  0  0  0  0  0  0  0
    5.0847   18.8135   -3.3393 H   0  0  0  0  0  0  0  0  0  0  0  0
    5.3452   20.5101   -2.9415 H   0  0  0  0  0  0  0  0  0  0  0  0
    3.7035   19.8806   -3.0482 H   0  0  0  0  0  0  0  0  0  0  0  0
    6.1770   18.9727   -0.7816 C   0  0  0  0  0  0  0  0  0  0  0  0
    6.1659   18.6583    0.2596 H   0  0  0  0  0  0  0  0  0  0  0  0
    6.8088   19.8520   -0.8660 H   0  0  0  0  0  0  0  0  0  0  0  0
    6.6149   18.1808   -1.3843 H   0  0  0  0  0  0  0  0  0  0  0  0
  1  3  1  1  0  0  0
  1  4  1  0  0  0  0
  2  1  1  0  0  0  0
  5 13  1  0  0  0  0
  6 16  1  0  0  0  0
  6 30  1  0  0  0  0
  7 11  1  0  0  0  0
  7 14  1  0  0  0  0
  8 27  1  0  0  0  0
  8  1  1  0  0  0  0
  9 28  2  0  0  0  0
 10  9  1  0  0  0  0
 11 12  1  0  0  0  0
 13  9  1  1  0  0  0
 13  8  1  0  0  0  0
 14 34  1  0  0  0  0
 14 20  1  0  0  0  0
 15 14  1  0  0  0  0
 16  4  1  6  0  0  0
 16  7  1  0  0  0  0
 17 26  1  0  0  0  0
 18  5  1  0  0  0  0
 19 18  1  0  0  0  0
 20 21  1  0  0  0  0
 20 22  1  0  0  0  0
 23 20  1  0  0  0  0
 24 25  1  0  0  0  0
 24 27  2  0  0  0  0
 26  5  1  0  0  0  0
 26  2  1  6  0  0  0
 27  6  1  0  0  0  0
 28 24  1  0  0  0  0
 29 28  1  0  0  0  0
 30 11  2  0  0  0  0
 31 30  1  0  0  0  0
 32 17  1  0  0  0  0
 32 18  2  0  0  0  0
 33 32  1  0  0  0  0
 34 37  1  0  0  0  0
 34 36  1  0  0  0  0
 35 34  1  0  0  0  0
 38 17  1  0  0  0  0
 38 44  1  0  0  0  0
 38 39  1  0  0  0  0
 40 38  1  0  0  0  0
 41 40  1  0  0  0  0
 42 40  1  0  0  0  0
 43 40  1  0  0  0  0
 44 45  1  0  0  0  0
 46 44  1  0  0  0  0
 47 44  1  0  0  0  0
M  END
$$$$
