CSD_code = CAFWIQ | q = 1 | S = 0 | Stoichiometry = C17H20ClN2PtS(1+) | MND = 4
 OpenBabel04212202013D

 42 45  0  0  1  0  0  0  0  0999 V2000
   11.9783    1.4786   10.0598 Pt  0  0  2  0  0  0  0  0  0  0  0  0
   10.5375    2.6928   11.2447 Cl  0  0  0  0  0  0  0  0  0  0  0  0
   10.6077   -0.4965    9.6437 S   0  0  0  0  0  3  0  0  0  0  0  0
   10.1778   -0.5191   11.3961 C   0  0  0  0  0  0  0  0  0  0  0  0
   11.2477   -0.6937   12.2672 C   0  0  0  0  0  0  0  0  0  0  0  0
   11.0130   -0.7230   13.6293 C   0  0  0  0  0  0  0  0  0  0  0  0
    8.8841   -0.3873   11.8645 C   0  0  0  0  0  0  0  0  0  0  0  0
    8.6647   -0.4152   13.2330 C   0  0  0  0  0  0  0  0  0  0  0  0
    9.7210   -0.5795   14.1125 C   0  0  0  0  0  0  0  0  0  0  0  0
    9.1485    0.1553    8.8323 C   0  0  0  0  0  0  0  0  0  0  0  0
    8.0527   -0.6796    8.6652 C   0  0  0  0  0  0  0  0  0  0  0  0
    6.9275   -0.1913    8.0227 C   0  0  0  0  0  0  0  0  0  0  0  0
    6.9101    1.1067    7.5377 C   0  0  0  0  0  0  0  0  0  0  0  0
    8.0211    1.9221    7.6854 C   0  0  0  0  0  0  0  0  0  0  0  0
    9.1492    1.4472    8.3313 C   0  0  0  0  0  0  0  0  0  0  0  0
   13.4087    2.8367   10.1523 N   0  0  1  0  0  0  0  0  0  0  0  0
   13.4252    0.6525    9.0310 N   0  0  2  0  0  0  0  0  0  0  0  0
   14.5720    2.1858   10.5551 C   0  0  0  0  0  0  0  0  0  0  0  0
   14.5878    0.7097    9.7944 C   0  0  0  0  0  0  0  0  0  0  0  0
   13.5385    1.2297    7.7084 C   0  0  0  0  0  0  0  0  0  0  0  0
   14.1049    2.6656    7.7670 C   0  0  0  0  0  0  0  0  0  0  0  0
   13.5007    3.5401    8.8897 C   0  0  0  0  0  0  0  0  0  0  0  0
   12.2501   -0.8234   11.8734 H   0  0  0  0  0  0  0  0  0  0  0  0
   11.8379   -0.8531   14.3122 H   0  0  0  0  0  0  0  0  0  0  0  0
    8.0575   -0.2461   11.1854 H   0  0  0  0  0  0  0  0  0  0  0  0
    7.6589   -0.3044   13.6065 H   0  0  0  0  0  0  0  0  0  0  0  0
    9.5395   -0.5934   15.1755 H   0  0  0  0  0  0  0  0  0  0  0  0
    8.0808   -1.6940    9.0332 H   0  0  0  0  0  0  0  0  0  0  0  0
    6.0670   -0.8298    7.8990 H   0  0  0  0  0  0  0  0  0  0  0  0
    6.0309    1.4821    7.0383 H   0  0  0  0  0  0  0  0  0  0  0  0
    8.0107    2.9295    7.3001 H   0  0  0  0  0  0  0  0  0  0  0  0
   10.0250    2.0805    8.4535 H   0  0  0  0  0  0  0  0  0  0  0  0
   14.5517    1.9844   11.6264 H   0  0  0  0  0  0  0  0  0  0  0  0
   15.4840    2.7216   10.2823 H   0  0  0  0  0  0  0  0  0  0  0  0
   15.5057    0.6221    9.2079 H   0  0  0  0  0  0  0  0  0  0  0  0
   14.5755   -0.0371   10.5876 H   0  0  0  0  0  0  0  0  0  0  0  0
   12.5435    1.2227    7.2511 H   0  0  0  0  0  0  0  0  0  0  0  0
   14.1976    0.6103    7.0893 H   0  0  0  0  0  0  0  0  0  0  0  0
   15.1876    2.6234    7.8850 H   0  0  0  0  0  0  0  0  0  0  0  0
   13.8950    3.1503    6.8152 H   0  0  0  0  0  0  0  0  0  0  0  0
   12.4936    3.8805    8.6228 H   0  0  0  0  0  0  0  0  0  0  0  0
   14.1262    4.4302    9.0232 H   0  0  0  0  0  0  0  0  0  0  0  0
  1 16  1  0  0  0  0
  1  2  1  6  0  0  0
  3  1  1  0  0  0  0
  3  4  1  0  0  0  0
  4  7  2  0  0  0  0
  4  5  1  0  0  0  0
  5  6  2  0  0  0  0
  6  9  1  0  0  0  0
  6 24  1  0  0  0  0
  7  8  1  0  0  0  0
  8 26  1  0  0  0  0
  8  9  2  0  0  0  0
  9 27  1  0  0  0  0
 10  3  1  0  0  0  0
 11 10  1  0  0  0  0
 11 28  1  0  0  0  0
 12 11  2  0  0  0  0
 13 14  2  0  0  0  0
 13 12  1  0  0  0  0
 14 15  1  0  0  0  0
 15 32  1  0  0  0  0
 15 10  2  0  0  0  0
 16 22  1  6  0  0  0
 16 18  1  0  0  0  0
 17 20  1  6  0  0  0
 17 19  1  0  0  0  0
 17  1  1  0  0  0  0
 18 33  1  0  0  0  0
 19 18  1  0  0  0  0
 19 36  1  0  0  0  0
 20 21  1  0  0  0  0
 21 39  1  0  0  0  0
 21 22  1  0  0  0  0
 22 42  1  0  0  0  0
 23  5  1  0  0  0  0
 25  7  1  0  0  0  0
 29 12  1  0  0  0  0
 30 13  1  0  0  0  0
 31 14  1  0  0  0  0
 34 18  1  0  0  0  0
 35 19  1  0  0  0  0
 37 20  1  0  0  0  0
 38 20  1  0  0  0  0
 40 21  1  0  0  0  0
 41 22  1  0  0  0  0
M  END
$$$$
