CSD_code = CAGPUW | q = 0 | S = 0 | Stoichiometry = C36H40Cl2N2O4P2Ru | MND = 6
 OpenBabel04212202013D

 87 92  0  0  0  0  0  0  0  0999 V2000
   -0.5592    2.2536   22.4297 Ru  0  0  0  0  0  0  0  0  0  0  0  0
   -0.2596    0.5935   20.8054 P   0  0  0  0  0  4  0  0  0  0  0  0
   -0.0740    3.6408   24.2544 P   0  0  0  0  0  4  0  0  0  0  0  0
    1.2940    3.3225   21.3925 Cl  0  0  0  0  0  0  0  0  0  0  0  0
    0.9073    0.7814   23.5988 Cl  0  0  0  0  0  0  0  0  0  0  0  0
   -1.7577    3.3463   21.5476 C   0  0  0  0  0  2  0  0  0  0  0  0
   -2.5508    3.9935   21.0346 O   0  0  0  0  0  1  0  0  0  0  0  0
   -1.9105    1.3450   23.3063 C   0  0  0  0  0  2  0  0  0  0  0  0
   -2.6990    0.7498   23.8798 O   0  0  0  0  0  1  0  0  0  0  0  0
   -0.8432    0.9208   19.1186 C   0  0  0  0  0  0  0  0  0  0  0  0
   -0.7889    2.2249   18.6398 C   0  0  0  0  0  0  0  0  0  0  0  0
   -0.4315    3.0171   19.2867 H   0  0  0  0  0  0  0  0  0  0  0  0
   -1.1709    2.5031   17.3397 C   0  0  0  0  0  0  0  0  0  0  0  0
   -1.1271    3.5172   16.9710 H   0  0  0  0  0  0  0  0  0  0  0  0
   -1.6090    1.4811   16.5139 C   0  0  0  0  0  0  0  0  0  0  0  0
   -1.9118    1.6979   15.5001 H   0  0  0  0  0  0  0  0  0  0  0  0
   -1.6569    0.1791   16.9865 C   0  0  0  0  0  0  0  0  0  0  0  0
   -1.9952   -0.6175   16.3393 H   0  0  0  0  0  0  0  0  0  0  0  0
   -1.2705   -0.1059   18.2834 C   0  0  0  0  0  0  0  0  0  0  0  0
   -1.3012   -1.1203   18.6532 H   0  0  0  0  0  0  0  0  0  0  0  0
   -1.1437   -0.9093   21.2965 C   0  0  0  0  0  0  0  0  0  0  0  0
   -0.5500   -1.9376   22.0182 C   0  0  0  0  0  0  0  0  0  0  0  0
    0.4997   -1.8938   22.2680 H   0  0  0  0  0  0  0  0  0  0  0  0
   -1.3150   -3.0058   22.4552 C   0  0  0  0  0  0  0  0  0  0  0  0
   -0.8486   -3.8032   23.0151 H   0  0  0  0  0  0  0  0  0  0  0  0
   -2.6725   -3.0484   22.1888 C   0  0  0  0  0  0  0  0  0  0  0  0
   -3.2650   -3.8834   22.5322 H   0  0  0  0  0  0  0  0  0  0  0  0
   -3.2763   -2.0075   21.4994 C   0  0  0  0  0  0  0  0  0  0  0  0
   -4.3397   -2.0265   21.3116 H   0  0  0  0  0  0  0  0  0  0  0  0
   -2.5188   -0.9386   21.0637 C   0  0  0  0  0  0  0  0  0  0  0  0
   -2.9843   -0.1095   20.5433 H   0  0  0  0  0  0  0  0  0  0  0  0
    1.4961    0.0972   20.4670 C   0  0  0  0  0  0  0  0  0  0  0  0
    2.0796    1.0239   20.3952 H   0  0  0  0  0  0  0  0  0  0  0  0
    1.8783   -0.4698   21.3217 H   0  0  0  0  0  0  0  0  0  0  0  0
    1.5109   -0.6543   19.2321 N   0  0  0  0  0  0  0  0  0  0  0  0
    1.9694   -2.0254   19.3621 C   0  0  0  0  0  0  0  0  0  0  0  0
    1.3791   -2.5301   20.1286 H   0  0  0  0  0  0  0  0  0  0  0  0
    3.0373   -2.0707   19.6373 H   0  0  0  0  0  0  0  0  0  0  0  0
    1.7671   -2.7383   18.0237 C   0  0  0  0  0  0  0  0  0  0  0  0
    2.1569   -3.7568   18.0672 H   0  0  0  0  0  0  0  0  0  0  0  0
    0.6912   -2.7667   17.7925 H   0  0  0  0  0  0  0  0  0  0  0  0
    2.4609   -2.0930   16.9843 O   0  0  0  0  0  0  0  0  0  0  0  0
    2.0346   -0.7565   16.8611 C   0  0  0  0  0  0  0  0  0  0  0  0
    0.9695   -0.7262   16.5864 H   0  0  0  0  0  0  0  0  0  0  0  0
    2.6299   -0.3170   16.0593 H   0  0  0  0  0  0  0  0  0  0  0  0
    2.2338    0.0164   18.1643 C   0  0  0  0  0  0  0  0  0  0  0  0
    3.3123    0.0745   18.3898 H   0  0  0  0  0  0  0  0  0  0  0  0
    1.8391    1.0274   18.0492 H   0  0  0  0  0  0  0  0  0  0  0  0
   -0.9574    3.0432   25.7188 C   0  0  0  0  0  0  0  0  0  0  0  0
   -0.4215    2.0873   26.5742 C   0  0  0  0  0  0  0  0  0  0  0  0
    0.5810    1.7164   26.4176 H   0  0  0  0  0  0  0  0  0  0  0  0
   -1.1884    1.5773   27.6079 C   0  0  0  0  0  0  0  0  0  0  0  0
   -0.7667    0.8356   28.2705 H   0  0  0  0  0  0  0  0  0  0  0  0
   -2.4932    2.0037   27.7858 C   0  0  0  0  0  0  0  0  0  0  0  0
   -3.0878    1.6026   28.5931 H   0  0  0  0  0  0  0  0  0  0  0  0
   -3.0443    2.9294   26.9128 C   0  0  0  0  0  0  0  0  0  0  0  0
   -4.0700    3.2454   27.0343 H   0  0  0  0  0  0  0  0  0  0  0  0
   -2.2852    3.4391   25.8779 C   0  0  0  0  0  0  0  0  0  0  0  0
   -2.7145    4.1453   25.1773 H   0  0  0  0  0  0  0  0  0  0  0  0
   -0.4891    5.4039   24.1593 C   0  0  0  0  0  0  0  0  0  0  0  0
   -0.4524    6.0339   22.9206 C   0  0  0  0  0  0  0  0  0  0  0  0
   -0.2145    5.4588   22.0342 H   0  0  0  0  0  0  0  0  0  0  0  0
   -0.6985    7.3920   22.8259 C   0  0  0  0  0  0  0  0  0  0  0  0
   -0.6674    7.8782   21.8622 H   0  0  0  0  0  0  0  0  0  0  0  0
   -0.9832    8.1251   23.9659 C   0  0  0  0  0  0  0  0  0  0  0  0
   -1.1787    9.1848   23.8924 H   0  0  0  0  0  0  0  0  0  0  0  0
   -1.0157    7.5001   25.2026 C   0  0  0  0  0  0  0  0  0  0  0  0
   -1.2359    8.0743   26.0913 H   0  0  0  0  0  0  0  0  0  0  0  0
   -0.7646    6.1442   25.3045 C   0  0  0  0  0  0  0  0  0  0  0  0
   -0.7842    5.6547   26.2672 H   0  0  0  0  0  0  0  0  0  0  0  0
    1.7193    3.7412   24.7196 C   0  0  0  0  0  0  0  0  0  0  0  0
    2.0397    2.7781   25.1299 H   0  0  0  0  0  0  0  0  0  0  0  0
    2.2743    3.9071   23.7877 H   0  0  0  0  0  0  0  0  0  0  0  0
    1.8749    4.8391   25.6463 N   0  0  0  0  0  0  0  0  0  0  0  0
    2.7235    5.9038   25.1379 C   0  0  0  0  0  0  0  0  0  0  0  0
    2.3501    6.2183   24.1616 H   0  0  0  0  0  0  0  0  0  0  0  0
    3.7681    5.5645   25.0322 H   0  0  0  0  0  0  0  0  0  0  0  0
    2.6755    7.0877   26.1031 C   0  0  0  0  0  0  0  0  0  0  0  0
    3.3656    7.8707   25.7848 H   0  0  0  0  0  0  0  0  0  0  0  0
    1.6510    7.4886   26.1265 H   0  0  0  0  0  0  0  0  0  0  0  0
    3.0741    6.7121   27.4004 O   0  0  0  0  0  0  0  0  0  0  0  0
    2.2555    5.6775   27.8882 C   0  0  0  0  0  0  0  0  0  0  0  0
    1.2153    6.0297   27.9643 H   0  0  0  0  0  0  0  0  0  0  0  0
    2.6298    5.4327   28.8836 H   0  0  0  0  0  0  0  0  0  0  0  0
    2.3004    4.4488   26.9780 C   0  0  0  0  0  0  0  0  0  0  0  0
    3.3264    4.0416   26.9716 H   0  0  0  0  0  0  0  0  0  0  0  0
    1.6162    3.6917   27.3649 H   0  0  0  0  0  0  0  0  0  0  0  0
  1  8  1  0  0  0  0
  1  5  1  0  0  0  0
  1  3  1  0  0  0  0
  2 21  1  0  0  0  0
  2  1  1  0  0  0  0
  3 71  1  0  0  0  0
  3 49  1  0  0  0  0
  4  1  1  0  0  0  0
  6  1  1  0  0  0  0
  7  6  1  0  0  0  0
  8  9  1  0  0  0  0
 10  2  1  0  0  0  0
 11 10  1  0  0  0  0
 11 12  1  0  0  0  0
 13 11  2  0  0  0  0
 14 13  1  0  0  0  0
 15 17  2  0  0  0  0
 15 13  1  0  0  0  0
 16 15  1  0  0  0  0
 17 19  1  0  0  0  0
 18 17  1  0  0  0  0
 19 20  1  0  0  0  0
 19 10  2  0  0  0  0
 21 22  1  0  0  0  0
 22 23  1  0  0  0  0
 22 24  2  0  0  0  0
 24 25  1  0  0  0  0
 26 24  1  0  0  0  0
 26 27  1  0  0  0  0
 28 26  2  0  0  0  0
 29 28  1  0  0  0  0
 30 21  2  0  0  0  0
 30 28  1  0  0  0  0
 31 30  1  0  0  0  0
 32  2  1  0  0  0  0
 32 34  1  0  0  0  0
 33 32  1  0  0  0  0
 35 36  1  0  0  0  0
 35 32  1  0  0  0  0
 36 38  1  0  0  0  0
 36 37  1  0  0  0  0
 39 40  1  0  0  0  0
 39 36  1  0  0  0  0
 41 39  1  0  0  0  0
 42 39  1  0  0  0  0
 43 42  1  0  0  0  0
 43 46  1  0  0  0  0
 44 43  1  0  0  0  0
 45 43  1  0  0  0  0
 46 47  1  0  0  0  0
 46 35  1  0  0  0  0
 48 46  1  0  0  0  0
 49 58  2  0  0  0  0
 49 50  1  0  0  0  0
 50 52  2  0  0  0  0
 51 50  1  0  0  0  0
 52 54  1  0  0  0  0
 52 53  1  0  0  0  0
 54 55  1  0  0  0  0
 56 57  1  0  0  0  0
 56 54  2  0  0  0  0
 58 56  1  0  0  0  0
 59 58  1  0  0  0  0
 60  3  1  0  0  0  0
 60 69  1  0  0  0  0
 61 60  2  0  0  0  0
 62 61  1  0  0  0  0
 63 61  1  0  0  0  0
 63 65  2  0  0  0  0
 64 63  1  0  0  0  0
 65 67  1  0  0  0  0
 66 65  1  0  0  0  0
 67 69  2  0  0  0  0
 67 68  1  0  0  0  0
 69 70  1  0  0  0  0
 71 72  1  0  0  0  0
 71 74  1  0  0  0  0
 73 71  1  0  0  0  0
 74 85  1  0  0  0  0
 75 74  1  0  0  0  0
 75 78  1  0  0  0  0
 76 75  1  0  0  0  0
 77 75  1  0  0  0  0
 78 80  1  0  0  0  0
 78 81  1  0  0  0  0
 79 78  1  0  0  0  0
 81 82  1  0  0  0  0
 82 83  1  0  0  0  0
 82 84  1  0  0  0  0
 85 87  1  0  0  0  0
 85 82  1  0  0  0  0
 86 85  1  0  0  0  0
M  END
$$$$
