CSD_code = CAHBIW | q = 0 | S = 0 | Stoichiometry = C28H27ClOP2Pt | MND = 4
 OpenBabel04212202013D

 60 64  0  0  0  0  0  0  0  0999 V2000
    0.4195    3.7246    3.7724 Pt  0  0  0  0  0  0  0  0  0  0  0  0
    2.0310    3.7151    5.3803 P   0  0  0  0  0  4  0  0  0  0  0  0
   -0.0465    5.9397    4.6589 P   0  0  0  0  0  4  0  0  0  0  0  0
   -1.3114    3.7224    2.2492 Cl  0  0  0  0  0  0  0  0  0  0  0  0
    0.7585    0.9430    3.7322 O   0  0  0  0  0  0  0  0  0  0  0  0
    0.9788    6.1272    6.2000 C   0  0  0  0  0  0  0  0  0  0  0  0
    2.3231    5.4380    5.9926 C   0  0  0  0  0  0  0  0  0  0  0  0
    0.9321    1.9315    3.0693 C   0  0  0  0  0  0  0  0  0  0  0  0
    1.5391    1.9133    1.6876 C   0  0  0  0  0  0  0  0  0  0  0  0
   -1.5071    6.9723    4.9655 C   0  0  0  0  0  0  0  0  0  0  0  0
   -2.2805    7.2651    3.8423 C   0  0  0  0  0  0  0  0  0  0  0  0
   -3.4398    8.0035    3.9689 C   0  0  0  0  0  0  0  0  0  0  0  0
   -3.8463    8.4435    5.2197 C   0  0  0  0  0  0  0  0  0  0  0  0
   -3.0960    8.1315    6.3408 C   0  0  0  0  0  0  0  0  0  0  0  0
   -1.9325    7.3914    6.2207 C   0  0  0  0  0  0  0  0  0  0  0  0
    0.9002    7.0214    3.5374 C   0  0  0  0  0  0  0  0  0  0  0  0
    1.5905    6.4381    2.4807 C   0  0  0  0  0  0  0  0  0  0  0  0
    2.3436    7.2198    1.6235 C   0  0  0  0  0  0  0  0  0  0  0  0
    2.4084    8.5898    1.8177 C   0  0  0  0  0  0  0  0  0  0  0  0
    1.7154    9.1774    2.8650 C   0  0  0  0  0  0  0  0  0  0  0  0
    0.9621    8.3990    3.7237 C   0  0  0  0  0  0  0  0  0  0  0  0
    1.3016    2.9253    6.8415 C   0  0  0  0  0  0  0  0  0  0  0  0
   -0.0391    2.5606    6.7786 C   0  0  0  0  0  0  0  0  0  0  0  0
   -0.6497    1.9812    7.8759 C   0  0  0  0  0  0  0  0  0  0  0  0
    0.0774    1.7646    9.0352 C   0  0  0  0  0  0  0  0  0  0  0  0
    1.4155    2.1232    9.0988 C   0  0  0  0  0  0  0  0  0  0  0  0
    2.0310    2.7031    8.0051 C   0  0  0  0  0  0  0  0  0  0  0  0
    3.6758    2.9571    5.2871 C   0  0  0  0  0  0  0  0  0  0  0  0
    3.7208    1.5633    5.2770 C   0  0  0  0  0  0  0  0  0  0  0  0
    4.9319    0.9096    5.1619 C   0  0  0  0  0  0  0  0  0  0  0  0
    6.1058    1.6387    5.0468 C   0  0  0  0  0  0  0  0  0  0  0  0
    6.0634    3.0225    5.0384 C   0  0  0  0  0  0  0  0  0  0  0  0
    4.8530    3.6845    5.1521 C   0  0  0  0  0  0  0  0  0  0  0  0
    1.1151    7.1865    6.4378 H   0  0  0  0  0  0  0  0  0  0  0  0
    0.4415    5.6440    7.0229 H   0  0  0  0  0  0  0  0  0  0  0  0
    2.9051    5.4100    6.9198 H   0  0  0  0  0  0  0  0  0  0  0  0
    2.8958    5.9762    5.2299 H   0  0  0  0  0  0  0  0  0  0  0  0
    2.3934    2.5899    1.6489 H   0  0  0  0  0  0  0  0  0  0  0  0
    0.7901    2.2655    0.9785 H   0  0  0  0  0  0  0  0  0  0  0  0
    1.8511    0.9033    1.4234 H   0  0  0  0  0  0  0  0  0  0  0  0
   -1.9614    6.8983    2.8753 H   0  0  0  0  0  0  0  0  0  0  0  0
   -4.0321    8.2324    3.0954 H   0  0  0  0  0  0  0  0  0  0  0  0
   -4.7531    9.0212    5.3215 H   0  0  0  0  0  0  0  0  0  0  0  0
   -3.4195    8.4640    7.3168 H   0  0  0  0  0  0  0  0  0  0  0  0
   -1.3606    7.1471    7.1042 H   0  0  0  0  0  0  0  0  0  0  0  0
    1.5109    5.3590    2.3280 H   0  0  0  0  0  0  0  0  0  0  0  0
    2.8746    6.7635    0.8012 H   0  0  0  0  0  0  0  0  0  0  0  0
    2.9934    9.2034    1.1485 H   0  0  0  0  0  0  0  0  0  0  0  0
    1.7607   10.2472    3.0091 H   0  0  0  0  0  0  0  0  0  0  0  0
    0.4103    8.8580    4.5331 H   0  0  0  0  0  0  0  0  0  0  0  0
   -0.5912    2.7220    5.8522 H   0  0  0  0  0  0  0  0  0  0  0  0
   -1.6890    1.6933    7.8260 H   0  0  0  0  0  0  0  0  0  0  0  0
   -0.3965    1.3088    9.8920 H   0  0  0  0  0  0  0  0  0  0  0  0
    1.9799    1.9462   10.0028 H   0  0  0  0  0  0  0  0  0  0  0  0
    3.0780    2.9737    8.0445 H   0  0  0  0  0  0  0  0  0  0  0  0
    2.7975    1.0051    5.3539 H   0  0  0  0  0  0  0  0  0  0  0  0
    4.9622   -0.1697    5.1587 H   0  0  0  0  0  0  0  0  0  0  0  0
    7.0530    1.1279    4.9575 H   0  0  0  0  0  0  0  0  0  0  0  0
    6.9770    3.5909    4.9407 H   0  0  0  0  0  0  0  0  0  0  0  0
    4.8299    4.7645    5.1363 H   0  0  0  0  0  0  0  0  0  0  0  0
  1  3  1  0  0  0  0
  1  2  1  0  0  0  0
  2  7  1  0  0  0  0
  2 22  1  0  0  0  0
  3 10  1  0  0  0  0
  3  6  1  0  0  0  0
  4  1  1  0  0  0  0
  6 34  1  0  0  0  0
  6 35  1  0  0  0  0
  7  6  1  0  0  0  0
  7 36  1  0  0  0  0
  8  5  2  0  0  0  0
  8  1  1  0  0  0  0
  9  8  1  0  0  0  0
 10 15  1  0  0  0  0
 11 12  1  0  0  0  0
 11 10  2  0  0  0  0
 12 13  2  0  0  0  0
 13 43  1  0  0  0  0
 13 14  1  0  0  0  0
 14 44  1  0  0  0  0
 15 14  2  0  0  0  0
 15 45  1  0  0  0  0
 16 21  1  0  0  0  0
 16  3  1  0  0  0  0
 17 16  2  0  0  0  0
 18 19  2  0  0  0  0
 18 17  1  0  0  0  0
 19 20  1  0  0  0  0
 20 49  1  0  0  0  0
 20 21  2  0  0  0  0
 21 50  1  0  0  0  0
 22 27  1  0  0  0  0
 23 22  2  0  0  0  0
 23 24  1  0  0  0  0
 24 25  2  0  0  0  0
 25 26  1  0  0  0  0
 25 53  1  0  0  0  0
 26 54  1  0  0  0  0
 27 55  1  0  0  0  0
 27 26  2  0  0  0  0
 28  2  1  0  0  0  0
 29 28  1  0  0  0  0
 29 56  1  0  0  0  0
 30 29  2  0  0  0  0
 31 30  1  0  0  0  0
 32 31  2  0  0  0  0
 32 33  1  0  0  0  0
 33 28  2  0  0  0  0
 37  7  1  0  0  0  0
 38  9  1  0  0  0  0
 39  9  1  0  0  0  0
 40  9  1  0  0  0  0
 41 11  1  0  0  0  0
 42 12  1  0  0  0  0
 46 17  1  0  0  0  0
 47 18  1  0  0  0  0
 48 19  1  0  0  0  0
 51 23  1  0  0  0  0
 52 24  1  0  0  0  0
 57 30  1  0  0  0  0
 58 31  1  0  0  0  0
 59 32  1  0  0  0  0
 60 33  1  0  0  0  0
M  END
$$$$
