CSD_code = CAHGEX | q = 0 | S = 0 | Stoichiometry = C5H14Cl2N2Zn | MND = 4
 OpenBabel04212202013D

 24 24  0  0  0  0  0  0  0  0999 V2000
   -1.2302    1.9310    0.2672 Zn  0  0  0  0  0  0  0  0  0  0  0  0
   -3.2972    1.9310   -0.5343 Cl  0  0  0  0  0  0  0  0  0  0  0  0
    0.8240    1.9310   -0.4659 Cl  0  0  0  0  0  0  0  0  0  0  0  0
   -1.4441    0.3616    1.7471 N   0  0  0  0  0  4  0  0  0  0  0  0
   -1.0527    0.6563    3.1303 C   0  0  0  0  0  0  0  0  0  0  0  0
   -1.6958    1.9310    3.7093 C   0  0  0  0  0  0  0  0  0  0  0  0
   -3.2100    1.9310    3.4858 C   0  0  0  0  0  0  0  0  0  0  0  0
   -1.4101    1.9310    5.2176 C   0  0  0  0  0  0  0  0  0  0  0  0
   -0.9294   -0.4599    1.4381 H   0  0  0  0  0  0  0  0  0  0  0  0
   -2.4314    0.1138    1.7225 H   0  0  0  0  0  0  0  0  0  0  0  0
    0.0337    0.7701    3.1485 H   0  0  0  0  0  0  0  0  0  0  0  0
   -1.3174   -0.1866    3.7833 H   0  0  0  0  0  0  0  0  0  0  0  0
   -3.4662    1.9310    2.4295 H   0  0  0  0  0  0  0  0  0  0  0  0
   -3.6540    2.8100    3.9478 H   0  0  0  0  0  0  0  0  0  0  0  0
   -0.3392    1.9310    5.4058 H   0  0  0  0  0  0  0  0  0  0  0  0
   -1.8413    1.0517    5.6887 H   0  0  0  0  0  0  0  0  0  0  0  0
   -1.4441    3.5004    1.7471 N   0  0  0  0  0  4  0  0  0  0  0  0
   -1.0527    3.2057    3.1303 C   0  0  0  0  0  0  0  0  0  0  0  0
   -3.6540    1.0520    3.9478 H   0  0  0  0  0  0  0  0  0  0  0  0
   -1.8413    2.8103    5.6887 H   0  0  0  0  0  0  0  0  0  0  0  0
   -0.9294    4.3219    1.4381 H   0  0  0  0  0  0  0  0  0  0  0  0
   -2.4314    3.7482    1.7225 H   0  0  0  0  0  0  0  0  0  0  0  0
    0.0337    3.0919    3.1485 H   0  0  0  0  0  0  0  0  0  0  0  0
   -1.3174    4.0486    3.7833 H   0  0  0  0  0  0  0  0  0  0  0  0
  1 17  1  0  0  0  0
  1  4  1  0  0  0  0
  2  1  1  0  0  0  0
  3  1  1  0  0  0  0
  4  5  1  0  0  0  0
  5 11  1  0  0  0  0
  5  6  1  0  0  0  0
  5 12  1  0  0  0  0
  6  8  1  0  0  0  0
  7  6  1  0  0  0  0
  7 14  1  0  0  0  0
  7 19  1  0  0  0  0
  8 15  1  0  0  0  0
  8 20  1  0  0  0  0
  8 16  1  0  0  0  0
  9  4  1  0  0  0  0
 10  4  1  0  0  0  0
 13  7  1  0  0  0  0
 17 18  1  0  0  0  0
 18 23  1  0  0  0  0
 18  6  1  0  0  0  0
 18 24  1  0  0  0  0
 21 17  1  0  0  0  0
 22 17  1  0  0  0  0
M  END
$$$$
