CSD_code = CAHPEI | q = 0 | S = 0 | Stoichiometry = C25H26Cl2FeN4 | MND = 5
 OpenBabel04212202013D

 58 63  0  0  1  0  0  0  0  0999 V2000
    0.4625    0.2714    6.1300 Fe  0  0  0  0  0  0  0  0  0  0  0  0
    1.3268    1.6356    7.4795 Cl  0  0  0  0  0  0  0  0  0  0  0  0
    1.8581   -0.4914    4.8303 Cl  0  0  0  0  0  0  0  0  0  0  0  0
   -1.1579    0.3828    6.8535 N   0  0  0  0  0  0  0  0  0  0  0  0
   -0.3307    1.5761    4.8897 N   0  0  0  0  0  0  0  0  0  0  0  0
   -2.0588    1.2889    6.3691 C   0  0  0  0  0  0  0  0  0  0  0  0
    0.6537   -1.2221    7.4908 N   0  0  0  0  0  0  0  0  0  0  0  0
   -0.4156   -1.2342    8.2854 C   0  0  2  0  0  3  0  0  0  0  0  0
    0.2833    2.0353    3.7063 C   0  0  0  0  0  0  0  0  0  0  0  0
   -0.2647   -2.1075    9.3185 N   0  0  0  0  0  0  0  0  0  0  0  0
   -0.9191   -2.2638   10.0648 H   0  0  0  0  0  0  0  0  0  0  0  0
   -1.4993   -0.3713    7.9410 C   0  0  0  0  0  0  0  0  0  0  0  0
    1.0138    3.2331    3.6966 C   0  0  0  0  0  0  0  0  0  0  0  0
    0.9832   -2.6714    9.1926 C   0  0  0  0  0  0  0  0  0  0  0  0
   -1.5329    1.9649    5.2229 C   0  0  0  0  0  0  0  0  0  0  0  0
    1.6550   -3.6120    9.9678 C   0  0  0  0  0  0  0  0  0  0  0  0
    1.6465    3.6063    2.5210 C   0  0  0  0  0  0  0  0  0  0  0  0
    2.2159    4.5206    2.4860 H   0  0  0  0  0  0  0  0  0  0  0  0
   -3.6516    0.6698    8.0553 C   0  0  0  0  0  0  0  0  0  0  0  0
   -4.6165    0.7820    8.5234 H   0  0  0  0  0  0  0  0  0  0  0  0
   -2.7365   -0.2510    8.5540 C   0  0  0  0  0  0  0  0  0  0  0  0
   -2.9784   -0.8609    9.4104 H   0  0  0  0  0  0  0  0  0  0  0  0
   -2.3349    2.9836    4.4739 C   0  0  0  0  0  0  0  0  0  0  0  0
   -1.8161    3.2854    3.5672 H   0  0  0  0  0  0  0  0  0  0  0  0
   -2.4933    3.8613    5.1003 H   0  0  0  0  0  0  0  0  0  0  0  0
   -3.3116    2.5794    4.2111 H   0  0  0  0  0  0  0  0  0  0  0  0
   -3.3100    1.4449    6.9591 C   0  0  0  0  0  0  0  0  0  0  0  0
   -4.0013    2.1711    6.5631 H   0  0  0  0  0  0  0  0  0  0  0  0
    1.0734    4.0575    4.9534 C   0  0  0  0  0  0  0  0  0  0  0  0
    1.3388    3.3964    5.7821 H   0  0  0  0  0  0  0  0  0  0  0  0
    0.0708    4.4409    5.1694 H   0  0  0  0  0  0  0  0  0  0  0  0
    2.9212   -3.9568    9.5286 C   0  0  0  0  0  0  0  0  0  0  0  0
    3.4878   -4.6816   10.0947 H   0  0  0  0  0  0  0  0  0  0  0  0
    1.5652    2.8200    1.3848 C   0  0  0  0  0  0  0  0  0  0  0  0
    2.0721    3.1263    0.4816 H   0  0  0  0  0  0  0  0  0  0  0  0
    0.8420    1.6446    1.4082 C   0  0  0  0  0  0  0  0  0  0  0  0
    0.7829    1.0253    0.5251 H   0  0  0  0  0  0  0  0  0  0  0  0
   -0.6126   -0.0367    2.5473 C   0  0  0  0  0  0  0  0  0  0  0  0
   -0.7651   -0.4010    3.5686 H   0  0  0  0  0  0  0  0  0  0  0  0
   -0.0506   -0.7987    2.0040 H   0  0  0  0  0  0  0  0  0  0  0  0
    0.1919    1.2345    2.5634 C   0  0  0  0  0  0  0  0  0  0  0  0
    1.5516   -2.1033    8.0311 C   0  0  0  0  0  0  0  0  0  0  0  0
    3.4927   -3.4006    8.3814 C   0  0  0  0  0  0  0  0  0  0  0  0
    4.4854   -3.7124    8.0946 H   0  0  0  0  0  0  0  0  0  0  0  0
    1.0298   -4.1950   11.1985 C   0  0  0  0  0  0  0  0  0  0  0  0
    0.8314   -3.4140   11.9329 H   0  0  0  0  0  0  0  0  0  0  0  0
    1.6903   -4.9302   11.6494 H   0  0  0  0  0  0  0  0  0  0  0  0
    0.0847   -4.6816   10.9566 H   0  0  0  0  0  0  0  0  0  0  0  0
    2.8267   -2.4705    7.6135 C   0  0  0  0  0  0  0  0  0  0  0  0
    3.2544   -2.0345    6.7263 H   0  0  0  0  0  0  0  0  0  0  0  0
   -1.9681    0.1692    1.8698 C   0  0  0  0  0  0  0  0  0  0  0  0
   -2.5189   -0.7683    1.8326 H   0  0  0  0  0  0  0  0  0  0  0  0
   -1.8335    0.5318    0.8531 H   0  0  0  0  0  0  0  0  0  0  0  0
   -2.5637    0.8973    2.4156 H   0  0  0  0  0  0  0  0  0  0  0  0
    2.0500    5.2257    4.9231 C   0  0  0  0  0  0  0  0  0  0  0  0
    2.0660    5.7038    5.8998 H   0  0  0  0  0  0  0  0  0  0  0  0
    1.7589    5.9713    4.1853 H   0  0  0  0  0  0  0  0  0  0  0  0
    3.0560    4.8791    4.7000 H   0  0  0  0  0  0  0  0  0  0  0  0
  1  4  1  0  0  0  0
  1  2  1  0  0  0  0
  1  7  1  0  0  0  0
  3  1  1  0  0  0  0
  4 12  1  0  0  0  0
  5 15  1  0  0  0  0
  5  1  1  0  0  0  0
  6  4  1  0  0  0  0
  6 27  1  0  0  0  0
  7 42  1  0  0  0  0
  7  8  1  0  0  0  0
  8 12  1  6  0  0  0
  8 10  1  0  0  0  0
  9  5  1  0  0  0  0
 10 11  1  0  0  0  0
 12 21  2  0  0  0  0
 13  9  1  0  0  0  0
 13 29  1  0  0  0  0
 14 10  1  0  0  0  0
 14 16  1  0  0  0  0
 15  6  2  0  0  0  0
 16 45  1  0  0  0  0
 17 13  2  0  0  0  0
 18 17  1  0  0  0  0
 19 20  1  0  0  0  0
 19 21  1  0  0  0  0
 21 22  1  0  0  0  0
 23 25  1  0  0  0  0
 23 15  1  0  0  0  0
 24 23  1  0  0  0  0
 26 23  1  0  0  0  0
 27 19  2  0  0  0  0
 28 27  1  0  0  0  0
 29 31  1  0  0  0  0
 29 30  1  0  0  0  0
 32 16  2  0  0  0  0
 32 33  1  0  0  0  0
 34 36  2  0  0  0  0
 34 17  1  0  0  0  0
 35 34  1  0  0  0  0
 36 41  1  0  0  0  0
 37 36  1  0  0  0  0
 38 41  1  0  0  0  0
 38 39  1  0  0  0  0
 40 38  1  0  0  0  0
 41  9  2  0  0  0  0
 42 14  2  0  0  0  0
 43 32  1  0  0  0  0
 44 43  1  0  0  0  0
 45 47  1  0  0  0  0
 45 46  1  0  0  0  0
 48 45  1  0  0  0  0
 49 42  1  0  0  0  0
 49 43  2  0  0  0  0
 50 49  1  0  0  0  0
 51 54  1  0  0  0  0
 51 38  1  0  0  0  0
 52 51  1  0  0  0  0
 53 51  1  0  0  0  0
 55 29  1  0  0  0  0
 55 56  1  0  0  0  0
 57 55  1  0  0  0  0
 58 55  1  0  0  0  0
M  END
$$$$
