CSD_code = CAHPOR | q = 0 | S = 0 | Stoichiometry = C14H23Cl4ReS | MND = 10
 OpenBabel04212202013D

 43 43  0  0  1  0  0  0  0  0999 V2000
    7.3262    8.5211   11.1639 Re  0  0  0  0  0  0  0  0  0  0  0  0
    9.3130    9.5149   10.7495 Cl  0  0  0  0  0  0  0  0  0  0  0  0
    8.4454    7.0909   12.6799 Cl  0  0  0  0  0  0  0  0  0  0  0  0
    7.3361   10.3144   13.1432 S   0  0  0  0  0  0  0  0  0  0  0  0
    6.2374   10.1070    9.8876 Cl  0  0  0  0  0  0  0  0  0  0  0  0
    5.3881    7.9573   12.1770 Cl  0  0  0  0  0  0  0  0  0  0  0  0
    6.6594    6.7815    9.6578 C   0  0  1  0  0  0  0  0  0  0  0  0
    6.9478    5.5188   10.3286 C   0  0  0  0  0  0  0  0  0  0  0  0
    5.1793    6.1065    7.7706 C   0  0  0  0  0  0  0  0  0  0  0  0
    8.3158    5.2456   10.2339 C   0  0  0  0  0  0  0  0  0  0  0  0
    5.9309    4.7717   11.0891 C   0  0  0  0  0  0  0  0  0  0  0  0
    5.3259    7.0085    8.9982 C   0  0  0  0  0  0  0  0  0  0  0  0
    7.9209    7.2814    9.1777 C   0  0  1  0  0  3  0  0  0  0  0  0
    8.9312    6.3100    9.5694 C   0  0  1  0  0  3  0  0  0  0  0  0
    6.9736    9.4264   14.7041 C   0  0  0  0  0  0  0  0  0  0  0  0
   10.3702    6.5494    9.3625 C   0  0  0  0  0  0  0  0  0  0  0  0
    8.9662   10.2279   13.9753 C   0  0  0  0  0  0  0  0  0  0  0  0
    8.1256    8.1551    7.9765 C   0  0  0  0  0  0  0  0  0  0  0  0
    8.3339    9.7931   15.2970 C   0  0  0  0  0  0  0  0  0  0  0  0
    9.0074    4.0785   10.8526 C   0  0  0  0  0  0  0  0  0  0  0  0
    4.2030    6.2577    7.3173 H   0  0  0  0  0  0  0  0  0  0  0  0
    5.2781    5.0581    8.0417 H   0  0  0  0  0  0  0  0  0  0  0  0
    5.9420    6.3408    7.0334 H   0  0  0  0  0  0  0  0  0  0  0  0
    5.0896    4.4906   10.4565 H   0  0  0  0  0  0  0  0  0  0  0  0
    5.5326    5.4424   11.8597 H   0  0  0  0  0  0  0  0  0  0  0  0
    6.3449    3.8885   11.5648 H   0  0  0  0  0  0  0  0  0  0  0  0
    5.2317    8.0503    8.6931 H   0  0  0  0  0  0  0  0  0  0  0  0
    4.5266    6.7922    9.7089 H   0  0  0  0  0  0  0  0  0  0  0  0
    6.0941    9.8218   15.2054 H   0  0  0  0  0  0  0  0  0  0  0  0
    6.8558    8.3629   14.5076 H   0  0  0  0  0  0  0  0  0  0  0  0
   10.5923    6.7021    8.3064 H   0  0  0  0  0  0  0  0  0  0  0  0
   10.9819    5.7431    9.7540 H   0  0  0  0  0  0  0  0  0  0  0  0
   10.6300    7.4810    9.8782 H   0  0  0  0  0  0  0  0  0  0  0  0
    9.5804    9.4589   13.5119 H   0  0  0  0  0  0  0  0  0  0  0  0
    9.4814   11.1848   13.9663 H   0  0  0  0  0  0  0  0  0  0  0  0
    8.2642    7.5261    7.0963 H   0  0  0  0  0  0  0  0  0  0  0  0
    9.0138    8.7725    8.0963 H   0  0  0  0  0  0  0  0  0  0  0  0
    7.2706    8.8048    7.8173 H   0  0  0  0  0  0  0  0  0  0  0  0
    8.8446    8.9604   15.7777 H   0  0  0  0  0  0  0  0  0  0  0  0
    8.2592   10.6203   16.0021 H   0  0  0  0  0  0  0  0  0  0  0  0
    8.3815    3.1907   10.8053 H   0  0  0  0  0  0  0  0  0  0  0  0
    9.2217    4.2947   11.8994 H   0  0  0  0  0  0  0  0  0  0  0  0
    9.9452    3.8698   10.3452 H   0  0  0  0  0  0  0  0  0  0  0  0
  1  6  1  0  0  0  0
  1  3  1  0  0  0  0
  2  1  1  0  0  0  0
  4 17  1  0  0  0  0
  4 15  1  0  0  0  0
  5  1  1  0  0  0  0
  7 12  1  6  0  0  0
  7  8  1  0  0  0  0
  7  1  1  0  0  0  0
  8 11  1  0  0  0  0
  9 22  1  0  0  0  0
  9 12  1  0  0  0  0
 10  8  2  0  0  0  0
 10 20  1  0  0  0  0
 11 26  1  0  0  0  0
 11 25  1  0  0  0  0
 12 28  1  0  0  0  0
 13 18  1  6  0  0  0
 13 14  1  0  0  0  0
 13  7  1  0  0  0  0
 14 16  1  1  0  0  0
 14 10  1  0  0  0  0
 15 29  1  0  0  0  0
 15 19  1  0  0  0  0
 16 32  1  0  0  0  0
 16 33  1  0  0  0  0
 17 19  1  0  0  0  0
 18 37  1  0  0  0  0
 19 39  1  0  0  0  0
 19 40  1  0  0  0  0
 20 42  1  0  0  0  0
 21  9  1  0  0  0  0
 23  9  1  0  0  0  0
 24 11  1  0  0  0  0
 27 12  1  0  0  0  0
 30 15  1  0  0  0  0
 31 16  1  0  0  0  0
 34 17  1  0  0  0  0
 35 17  1  0  0  0  0
 36 18  1  0  0  0  0
 38 18  1  0  0  0  0
 41 20  1  0  0  0  0
 43 20  1  0  0  0  0
M  END
$$$$
