CSD_code = CAHWAJ | q = -1 | S = 0 | Stoichiometry = C8H14Cl2IrN4O4(1-) | MND = 6
 OpenBabel04212202013D

 33 34  0  0  0  0  0  0  0  0999 V2000
    0.0000    3.7324   -0.0000 Ir  0  0  0  0  0  0  0  0  0  0  0  0
   -2.1645    4.2724    0.7792 Cl  0  0  0  0  0  0  0  0  0  0  0  0
   -0.3070    1.0734    0.9876 O   0  0  0  0  0  1  0  0  0  0  0  0
    1.1120    5.9985    1.5137 O   0  0  0  0  0  0  0  0  0  0  0  0
    0.0981    2.2470    1.3004 N   0  0  0  0  0  0  0  0  0  0  0  0
    0.7899    4.6720    1.5408 N   0  0  0  0  0  0  0  0  0  0  0  0
    0.7548    1.5755    3.5789 C   0  0  0  0  0  0  0  0  0  0  0  0
    0.5985    2.5661    2.4652 C   0  0  0  0  0  0  0  0  0  0  0  0
    0.9900    3.9496    2.5948 C   0  0  0  0  0  0  0  0  0  0  0  0
    1.5829    4.4862    3.8585 C   0  0  0  0  0  0  0  0  0  0  0  0
    0.3948    0.6128    3.2217 H   0  0  0  0  0  0  0  0  0  0  0  0
    0.1726    1.8735    4.4506 H   0  0  0  0  0  0  0  0  0  0  0  0
    1.7999    1.4807    3.8725 H   0  0  0  0  0  0  0  0  0  0  0  0
    0.9058    4.3148    4.6937 H   0  0  0  0  0  0  0  0  0  0  0  0
    2.5263    3.9850    4.0708 H   0  0  0  0  0  0  0  0  0  0  0  0
    1.7592    5.5527    3.7471 H   0  0  0  0  0  0  0  0  0  0  0  0
    0.8482    6.3017    0.5736 H   0  0  0  0  0  0  0  0  0  0  0  0
    2.1645    3.1927   -0.7792 Cl  0  0  0  0  0  0  0  0  0  0  0  0
   -0.0977    5.2177   -1.3006 N   0  0  0  0  0  0  0  0  0  0  0  0
    0.3067    6.3915   -0.9875 O   0  0  0  0  0  1  0  0  0  0  0  0
   -0.5983    4.8987   -2.4653 C   0  0  0  0  0  0  0  0  0  0  0  0
   -0.7551    5.8895   -3.5788 C   0  0  0  0  0  0  0  0  0  0  0  0
   -0.3954    6.8522   -3.2214 H   0  0  0  0  0  0  0  0  0  0  0  0
   -0.1728    5.5919   -4.4506 H   0  0  0  0  0  0  0  0  0  0  0  0
   -1.8002    5.9840   -3.8724 H   0  0  0  0  0  0  0  0  0  0  0  0
   -0.9900    3.5153   -2.5948 C   0  0  0  0  0  0  0  0  0  0  0  0
   -0.7898    2.7928   -1.5409 N   0  0  0  0  0  0  0  0  0  0  0  0
   -1.1119    1.4664   -1.5137 O   0  0  0  0  0  0  0  0  0  0  0  0
   -0.8473    1.1630   -0.5739 H   0  0  0  0  0  0  0  0  0  0  0  0
   -1.5829    2.9787   -3.8585 C   0  0  0  0  0  0  0  0  0  0  0  0
   -0.9058    3.1499   -4.6937 H   0  0  0  0  0  0  0  0  0  0  0  0
   -2.5263    3.4800   -4.0708 H   0  0  0  0  0  0  0  0  0  0  0  0
   -1.7593    1.9121   -3.7469 H   0  0  0  0  0  0  0  0  0  0  0  0
  1  2  1  0  0  0  0
  1  5  1  0  0  0  0
  1  6  1  0  0  0  0
  3  5  1  0  0  0  0
  4  6  1  0  0  0  0
  5  8  1  0  0  0  0
  6  9  1  0  0  0  0
  7 13  1  0  0  0  0
  7 12  1  0  0  0  0
  8  9  2  0  0  0  0
  8  7  1  0  0  0  0
  9 10  1  0  0  0  0
 10 15  1  0  0  0  0
 10 14  1  0  0  0  0
 11  7  1  0  0  0  0
 16 10  1  0  0  0  0
 17  4  1  0  0  0  0
 18  1  1  0  0  0  0
 19 20  1  0  0  0  0
 19  1  1  0  0  0  0
 21 19  1  0  0  0  0
 22 23  1  0  0  0  0
 22 21  1  0  0  0  0
 24 22  1  0  0  0  0
 25 22  1  0  0  0  0
 26 21  2  0  0  0  0
 26 27  1  0  0  0  0
 27 28  1  0  0  0  0
 27  1  1  0  0  0  0
 28 29  1  0  0  0  0
 30 33  1  0  0  0  0
 30 26  1  0  0  0  0
 31 30  1  0  0  0  0
 32 30  1  0  0  0  0
M  END
$$$$
