CSD_code = CAJFUP | q = 0 | S = 0 | Stoichiometry = C25H27ClN3Rh | MND = 4
 OpenBabel04212202013D

 57 61  0  0  1  0  0  0  0  0999 V2000
    3.1225    0.6542    3.9983 Rh  0  0  1  0  0  0  0  0  0  0  0  0
    5.2642    0.3173    3.6297 Cl  0  0  0  0  0  0  0  0  0  0  0  0
    1.3387    0.9186    4.3253 N   0  0  0  0  0  0  0  0  0  0  0  0
    3.2548    2.1947    5.2450 N   0  0  0  0  0  0  0  0  0  0  0  0
    2.3747   -0.7877    2.8552 N   0  0  0  0  0  0  0  0  0  0  0  0
    0.9567    1.9149    5.1674 C   0  0  0  0  0  0  0  0  0  0  0  0
   -0.3921    2.1227    5.4370 C   0  0  0  0  0  0  0  0  0  0  0  0
   -1.3349    1.2980    4.8365 C   0  0  0  0  0  0  0  0  0  0  0  0
   -0.9320    0.2815    3.9797 C   0  0  0  0  0  0  0  0  0  0  0  0
    0.4254    0.1049    3.7323 C   0  0  0  0  0  0  0  0  0  0  0  0
    2.1023    2.6321    5.6737 C   0  0  2  0  0  3  0  0  0  0  0  0
    1.9451    3.7860    6.6144 C   0  0  0  0  0  0  0  0  0  0  0  0
    4.4696    2.7766    5.6465 C   0  0  0  0  0  0  0  0  0  0  0  0
    5.1253    2.2797    6.7766 C   0  0  0  0  0  0  0  0  0  0  0  0
    6.3421    2.8368    7.1348 C   0  0  0  0  0  0  0  0  0  0  0  0
    6.9013    3.8557    6.3841 C   0  0  0  0  0  0  0  0  0  0  0  0
    6.2612    4.3108    5.2450 C   0  0  0  0  0  0  0  0  0  0  0  0
    5.0431    3.7770    4.8566 C   0  0  0  0  0  0  0  0  0  0  0  0
    4.5164    1.1370    7.5294 C   0  0  0  0  0  0  0  0  0  0  0  0
    4.3458    4.2035    3.6019 C   0  0  0  0  0  0  0  0  0  0  0  0
    1.0722   -0.8667    2.8835 C   0  0  0  0  0  0  0  0  0  0  0  0
    0.2799   -1.8687    2.1027 C   0  0  0  0  0  0  0  0  0  0  0  0
    3.1572   -1.6456    2.0631 C   0  0  0  0  0  0  0  0  0  0  0  0
    3.6435   -2.8351    2.6125 C   0  0  0  0  0  0  0  0  0  0  0  0
    4.4482   -3.6462    1.8287 C   0  0  0  0  0  0  0  0  0  0  0  0
    4.7720   -3.2814    0.5339 C   0  0  0  0  0  0  0  0  0  0  0  0
    4.3164   -2.0821    0.0157 C   0  0  0  0  0  0  0  0  0  0  0  0
    3.5097   -1.2462    0.7705 C   0  0  0  0  0  0  0  0  0  0  0  0
    3.3171   -3.1678    4.0357 C   0  0  0  0  0  0  0  0  0  0  0  0
    3.0428    0.0845    0.2664 C   0  0  0  0  0  0  0  0  0  0  0  0
   -0.6996    2.9121    6.1041 H   0  0  0  0  0  0  0  0  0  0  0  0
   -2.3846    1.4470    5.0371 H   0  0  0  0  0  0  0  0  0  0  0  0
   -1.6597   -0.3628    3.5129 H   0  0  0  0  0  0  0  0  0  0  0  0
    2.9158    4.2020    6.8737 H   0  0  0  0  0  0  0  0  0  0  0  0
    1.4424    3.4632    7.5257 H   0  0  0  0  0  0  0  0  0  0  0  0
    1.3364    4.5642    6.1549 H   0  0  0  0  0  0  0  0  0  0  0  0
    6.8599    2.4599    8.0049 H   0  0  0  0  0  0  0  0  0  0  0  0
    7.8500    4.2811    6.6754 H   0  0  0  0  0  0  0  0  0  0  0  0
    6.7159    5.0832    4.6419 H   0  0  0  0  0  0  0  0  0  0  0  0
    3.6123    1.4473    8.0552 H   0  0  0  0  0  0  0  0  0  0  0  0
    5.2189    0.7322    8.2527 H   0  0  0  0  0  0  0  0  0  0  0  0
    4.2393    0.3483    6.8206 H   0  0  0  0  0  0  0  0  0  0  0  0
    4.0720    3.3122    3.0245 H   0  0  0  0  0  0  0  0  0  0  0  0
    4.9905    4.8340    2.9959 H   0  0  0  0  0  0  0  0  0  0  0  0
    3.4296    4.7514    3.8264 H   0  0  0  0  0  0  0  0  0  0  0  0
   -0.4126   -1.3605    1.4323 H   0  0  0  0  0  0  0  0  0  0  0  0
   -0.3057   -2.4925    2.7775 H   0  0  0  0  0  0  0  0  0  0  0  0
    0.9397   -2.5037    1.5162 H   0  0  0  0  0  0  0  0  0  0  0  0
    4.8323   -4.5672    2.2425 H   0  0  0  0  0  0  0  0  0  0  0  0
    5.3998   -3.9234   -0.0657 H   0  0  0  0  0  0  0  0  0  0  0  0
    4.5976   -1.7836   -0.9837 H   0  0  0  0  0  0  0  0  0  0  0  0
    3.9126   -4.0076    4.3830 H   0  0  0  0  0  0  0  0  0  0  0  0
    2.2610   -3.4156    4.1508 H   0  0  0  0  0  0  0  0  0  0  0  0
    3.5286   -2.2956    4.6645 H   0  0  0  0  0  0  0  0  0  0  0  0
    1.9659    0.0845    0.0914 H   0  0  0  0  0  0  0  0  0  0  0  0
    3.5471    0.3463   -0.6597 H   0  0  0  0  0  0  0  0  0  0  0  0
    3.2608    0.8498    1.0211 H   0  0  0  0  0  0  0  0  0  0  0  0
  1  2  1  1  0  0  0
  1  3  1  0  0  0  0
  1  4  1  0  0  0  0
  3  6  1  0  0  0  0
  4 13  1  0  0  0  0
  4 11  1  0  0  0  0
  5 21  1  0  0  0  0
  5  1  1  0  0  0  0
  6  7  2  0  0  0  0
  6 11  1  0  0  0  0
  7 31  1  0  0  0  0
  8 32  1  0  0  0  0
  8  7  1  0  0  0  0
  9  8  2  0  0  0  0
 10  9  1  0  0  0  0
 10  3  1  0  0  0  0
 11 12  1  6  0  0  0
 12 34  1  0  0  0  0
 12 35  1  0  0  0  0
 13 14  1  0  0  0  0
 14 15  2  0  0  0  0
 14 19  1  0  0  0  0
 15 37  1  0  0  0  0
 16 38  1  0  0  0  0
 16 15  1  0  0  0  0
 17 16  2  0  0  0  0
 18 17  1  0  0  0  0
 18 13  2  0  0  0  0
 19 40  1  0  0  0  0
 19 41  1  0  0  0  0
 20 45  1  0  0  0  0
 20 18  1  0  0  0  0
 21 10  2  0  0  0  0
 22 47  1  0  0  0  0
 22 21  1  0  0  0  0
 23 24  1  0  0  0  0
 23  5  1  0  0  0  0
 24 29  1  0  0  0  0
 25 49  1  0  0  0  0
 25 24  2  0  0  0  0
 26 25  1  0  0  0  0
 27 26  2  0  0  0  0
 27 28  1  0  0  0  0
 28 23  2  0  0  0  0
 29 53  1  0  0  0  0
 29 52  1  0  0  0  0
 29 54  1  0  0  0  0
 30 28  1  0  0  0  0
 30 57  1  0  0  0  0
 33  9  1  0  0  0  0
 36 12  1  0  0  0  0
 39 17  1  0  0  0  0
 42 19  1  0  0  0  0
 43 20  1  0  0  0  0
 44 20  1  0  0  0  0
 46 22  1  0  0  0  0
 48 22  1  0  0  0  0
 50 26  1  0  0  0  0
 51 27  1  0  0  0  0
 55 30  1  0  0  0  0
 56 30  1  0  0  0  0
M  END
$$$$
