CSD_code = CAJGAW | q = 0 | S = 0 | Stoichiometry = C31H38ClF3N3O3RhS | MND = 6
 OpenBabel04212202013D

 81 85  0  0  1  0  0  0  0  0999 V2000
    4.7001    8.2608    3.3052 Rh  0  0  0  0  0  0  0  0  0  0  0  0
    5.1752    9.3296    5.2108 Cl  0  0  0  0  0  0  0  0  0  0  0  0
    6.6116    5.4824    2.7841 S   0  0  0  0  0  0  0  0  0  0  0  0
    8.3044    3.4781    3.2197 F   0  0  0  0  0  0  0  0  0  0  0  0
    7.0082    3.9276    4.8841 F   0  0  0  0  0  0  0  0  0  0  0  0
    8.6839    5.2126    4.4431 F   0  0  0  0  0  0  0  0  0  0  0  0
    5.6585    4.5227    2.2938 O   0  0  0  0  0  1  0  0  0  0  0  0
    7.4975    6.0494    1.7998 O   0  0  0  0  0  1  0  0  0  0  0  0
    6.0688    6.4390    3.7393 O   0  0  0  0  0  0  0  0  0  0  0  0
    4.3994    7.2496    1.7541 N   0  0  0  0  0  0  0  0  0  0  0  0
    3.1322    7.1363    3.9418 N   0  0  0  0  0  0  0  0  0  0  0  0
    6.1714    9.0234    2.1231 N   0  0  0  0  0  0  0  0  0  0  0  0
    3.5117    6.2482    1.8119 C   0  0  0  0  0  0  0  0  0  0  0  0
    3.4303    5.3214    0.7792 C   0  0  0  0  0  0  0  0  0  0  0  0
    4.3198    5.3969   -0.2894 C   0  0  0  0  0  0  0  0  0  0  0  0
    5.2694    6.4205   -0.2792 C   0  0  0  0  0  0  0  0  0  0  0  0
    5.2973    7.3330    0.7639 C   0  0  0  0  0  0  0  0  0  0  0  0
    4.3719    4.3497   -1.3841 C   0  0  0  0  0  0  0  0  0  0  0  0
    3.2402    3.3257   -1.2689 C   0  0  0  0  0  0  0  0  0  0  0  0
    5.7131    3.6154   -1.2309 C   0  0  0  0  0  0  0  0  0  0  0  0
    4.2788    5.0208   -2.7612 C   0  0  0  0  0  0  0  0  0  0  0  0
    2.7925    6.2316    3.0786 C   0  0  0  0  0  0  0  0  0  0  0  0
    1.7760    5.1695    3.3392 C   0  0  0  0  0  0  0  0  0  0  0  0
    2.4535    7.2672    5.1744 C   0  0  0  0  0  0  0  0  0  0  0  0
    1.1939    7.8773    5.2109 C   0  0  0  0  0  0  0  0  0  0  0  0
    0.5878    8.0787    6.4445 C   0  0  0  0  0  0  0  0  0  0  0  0
    1.1981    7.6706    7.6137 C   0  0  0  0  0  0  0  0  0  0  0  0
    2.4201    7.0254    7.5599 C   0  0  0  0  0  0  0  0  0  0  0  0
    3.0627    6.8077    6.3511 C   0  0  0  0  0  0  0  0  0  0  0  0
    0.4560    8.2983    3.9715 C   0  0  0  0  0  0  0  0  0  0  0  0
    4.3603    6.0726    6.2964 C   0  0  0  0  0  0  0  0  0  0  0  0
    6.2858    8.3813    1.0065 C   0  0  2  0  0  3  0  0  0  0  0  0
    7.3787    8.6066    0.0195 C   0  0  0  0  0  0  0  0  0  0  0  0
    7.0249   10.1062    2.4386 C   0  0  0  0  0  0  0  0  0  0  0  0
    6.7991   11.3588    1.8564 C   0  0  0  0  0  0  0  0  0  0  0  0
    7.5968   12.4271    2.2466 C   0  0  0  0  0  0  0  0  0  0  0  0
    8.6065   12.2607    3.1735 C   0  0  0  0  0  0  0  0  0  0  0  0
    8.8487   11.0077    3.7060 C   0  0  0  0  0  0  0  0  0  0  0  0
    8.0739    9.9149    3.3485 C   0  0  0  0  0  0  0  0  0  0  0  0
    5.7524   11.5916    0.8033 C   0  0  0  0  0  0  0  0  0  0  0  0
    8.3584    8.5599    3.9045 C   0  0  0  0  0  0  0  0  0  0  0  0
    3.4606    9.8401    2.8721 C   0  0  0  0  0  0  0  0  0  0  0  0
    7.7202    4.4720    3.8944 C   0  0  0  0  0  0  0  0  0  0  0  0
    2.7175    4.5197    0.8510 H   0  0  0  0  0  0  0  0  0  0  0  0
    6.0225    6.4781   -1.0461 H   0  0  0  0  0  0  0  0  0  0  0  0
    2.2654    3.8074   -1.3131 H   0  0  0  0  0  0  0  0  0  0  0  0
    3.3248    2.7597   -0.3450 H   0  0  0  0  0  0  0  0  0  0  0  0
    3.3047    2.6235   -2.0970 H   0  0  0  0  0  0  0  0  0  0  0  0
    5.8382    3.2917   -0.1998 H   0  0  0  0  0  0  0  0  0  0  0  0
    6.5493    4.2624   -1.4799 H   0  0  0  0  0  0  0  0  0  0  0  0
    5.7420    2.7469   -1.8848 H   0  0  0  0  0  0  0  0  0  0  0  0
    4.3317    4.2659   -3.5420 H   0  0  0  0  0  0  0  0  0  0  0  0
    5.0885    5.7267   -2.9210 H   0  0  0  0  0  0  0  0  0  0  0  0
    3.3345    5.5526   -2.8612 H   0  0  0  0  0  0  0  0  0  0  0  0
    1.3536    5.2706    4.3355 H   0  0  0  0  0  0  0  0  0  0  0  0
    2.2595    4.1969    3.2536 H   0  0  0  0  0  0  0  0  0  0  0  0
    0.9758    5.2184    2.6019 H   0  0  0  0  0  0  0  0  0  0  0  0
   -0.3781    8.5611    6.4761 H   0  0  0  0  0  0  0  0  0  0  0  0
    0.7168    7.8428    8.5643 H   0  0  0  0  0  0  0  0  0  0  0  0
    2.8890    6.6830    8.4698 H   0  0  0  0  0  0  0  0  0  0  0  0
   -0.4284    7.6731    3.8423 H   0  0  0  0  0  0  0  0  0  0  0  0
    1.0683    8.2188    3.0784 H   0  0  0  0  0  0  0  0  0  0  0  0
    0.1186    9.3284    4.0709 H   0  0  0  0  0  0  0  0  0  0  0  0
    4.2976    5.2062    5.6376 H   0  0  0  0  0  0  0  0  0  0  0  0
    4.6575    5.7416    7.2875 H   0  0  0  0  0  0  0  0  0  0  0  0
    5.1405    6.7194    5.8958 H   0  0  0  0  0  0  0  0  0  0  0  0
    7.9854    9.4649    0.2940 H   0  0  0  0  0  0  0  0  0  0  0  0
    6.9751    8.7452   -0.9817 H   0  0  0  0  0  0  0  0  0  0  0  0
    8.0032    7.7125    0.0277 H   0  0  0  0  0  0  0  0  0  0  0  0
    7.4173   13.3974    1.8072 H   0  0  0  0  0  0  0  0  0  0  0  0
    9.2123   13.1032    3.4709 H   0  0  0  0  0  0  0  0  0  0  0  0
    9.6525   10.8685    4.4129 H   0  0  0  0  0  0  0  0  0  0  0  0
    6.2344   11.8438   -0.1420 H   0  0  0  0  0  0  0  0  0  0  0  0
    5.1205   12.4321    1.0848 H   0  0  0  0  0  0  0  0  0  0  0  0
    5.1227   10.7208    0.6472 H   0  0  0  0  0  0  0  0  0  0  0  0
    9.3000    8.5539    4.4466 H   0  0  0  0  0  0  0  0  0  0  0  0
    8.3932    7.8066    3.1180 H   0  0  0  0  0  0  0  0  0  0  0  0
    7.5628    8.2705    4.5919 H   0  0  0  0  0  0  0  0  0  0  0  0
    2.9566    9.7164    1.9097 H   0  0  0  0  0  0  0  0  0  0  0  0
    4.0399   10.7618    2.8561 H   0  0  0  0  0  0  0  0  0  0  0  0
    2.7132    9.9425    3.6572 H   0  0  0  0  0  0  0  0  0  0  0  0
  1  9  1  0  0  0  0
  1 11  1  0  0  0  0
  1  2  1  0  0  0  0
  3  9  1  0  0  0  0
  3 43  1  0  0  0  0
  4 43  1  0  0  0  0
  7  3  1  0  0  0  0
  8  3  1  0  0  0  0
 10 13  1  0  0  0  0
 10  1  1  0  0  0  0
 11 24  1  0  0  0  0
 12 34  1  0  0  0  0
 12  1  1  0  0  0  0
 13 22  2  0  0  0  0
 14 44  1  0  0  0  0
 14 13  1  0  0  0  0
 15 16  1  0  0  0  0
 15 14  2  0  0  0  0
 16 17  2  0  0  0  0
 17 32  1  0  0  0  0
 17 10  1  0  0  0  0
 18 19  1  0  0  0  0
 18 20  1  0  0  0  0
 18 15  1  0  0  0  0
 19 47  1  0  0  0  0
 20 49  1  0  0  0  0
 21 18  1  0  0  0  0
 22 23  1  0  0  0  0
 22 11  1  0  0  0  0
 23 55  1  0  0  0  0
 24 25  2  0  0  0  0
 24 29  1  0  0  0  0
 25 26  1  0  0  0  0
 26 58  1  0  0  0  0
 26 27  2  0  0  0  0
 27 59  1  0  0  0  0
 28 27  1  0  0  0  0
 28 60  1  0  0  0  0
 29 28  2  0  0  0  0
 30 63  1  0  0  0  0
 30 25  1  0  0  0  0
 31 29  1  0  0  0  0
 31 65  1  0  0  0  0
 32 33  1  1  0  0  0
 32 12  1  0  0  0  0
 33 69  1  0  0  0  0
 33 67  1  0  0  0  0
 34 39  1  0  0  0  0
 35 36  1  0  0  0  0
 35 34  2  0  0  0  0
 36 37  2  0  0  0  0
 37 71  1  0  0  0  0
 37 38  1  0  0  0  0
 38 72  1  0  0  0  0
 39 38  2  0  0  0  0
 39 41  1  0  0  0  0
 40 74  1  0  0  0  0
 40 35  1  0  0  0  0
 41 76  1  0  0  0  0
 41 78  1  0  0  0  0
 42  1  1  0  0  0  0
 42 81  1  0  0  0  0
 43  6  1  0  0  0  0
 43  5  1  0  0  0  0
 45 16  1  0  0  0  0
 46 19  1  0  0  0  0
 48 19  1  0  0  0  0
 50 20  1  0  0  0  0
 51 20  1  0  0  0  0
 52 21  1  0  0  0  0
 53 21  1  0  0  0  0
 54 21  1  0  0  0  0
 56 23  1  0  0  0  0
 57 23  1  0  0  0  0
 61 30  1  0  0  0  0
 62 30  1  0  0  0  0
 64 31  1  0  0  0  0
 66 31  1  0  0  0  0
 68 33  1  0  0  0  0
 70 36  1  0  0  0  0
 73 40  1  0  0  0  0
 75 40  1  0  0  0  0
 77 41  1  0  0  0  0
 79 42  1  0  0  0  0
 80 42  1  0  0  0  0
M  END
$$$$
