CSD_code = CAJHIF | q = 0 | S = 0 | Stoichiometry = C41H41Cl2NP2Ru | MND = 5
 OpenBabel04212202013D

 88 94  0  0  0  0  0  0  0  0999 V2000
    1.0401    3.3041    3.5304 Ru  0  0  0  0  0  0  0  0  0  0  0  0
    1.8996    4.7293    5.2481 Cl  0  0  0  0  0  0  0  0  0  0  0  0
   -0.2545    2.1171    1.9485 Cl  0  0  0  0  0  0  0  0  0  0  0  0
    1.6110    1.2453    4.4236 P   0  0  0  0  0  4  0  0  0  0  0  0
    2.7643    3.5284    2.1017 P   0  0  0  0  0  4  0  0  0  0  0  0
    0.0840    0.6992    5.2663 C   0  0  0  0  0  0  0  0  0  0  0  0
   -0.4160   -0.5964    5.3015 C   0  0  0  0  0  0  0  0  0  0  0  0
   -1.5689   -0.8668    6.0178 C   0  0  0  0  0  0  0  0  0  0  0  0
   -2.2192    0.1405    6.7116 C   0  0  0  0  0  0  0  0  0  0  0  0
   -1.7049    1.4270    6.7091 C   0  0  0  0  0  0  0  0  0  0  0  0
   -0.5549    1.7017    5.9939 C   0  0  0  0  0  0  0  0  0  0  0  0
    2.7130    0.8668    5.8400 C   0  0  0  0  0  0  0  0  0  0  0  0
    3.0501   -0.4523    6.1315 C   0  0  0  0  0  0  0  0  0  0  0  0
    3.8080   -0.7452    7.2488 C   0  0  0  0  0  0  0  0  0  0  0  0
    4.2240    0.2695    8.0963 C   0  0  0  0  0  0  0  0  0  0  0  0
    3.8629    1.5782    7.8291 C   0  0  0  0  0  0  0  0  0  0  0  0
    3.1048    1.8758    6.7100 C   0  0  0  0  0  0  0  0  0  0  0  0
    2.0383   -0.0897    3.2637 C   0  0  0  0  0  0  0  0  0  0  0  0
    3.3808   -0.4060    3.0604 C   0  0  0  0  0  0  0  0  0  0  0  0
    3.7420   -1.3393    2.1071 C   0  0  0  0  0  0  0  0  0  0  0  0
    2.7698   -1.9659    1.3439 C   0  0  0  0  0  0  0  0  0  0  0  0
    1.4346   -1.6508    1.5349 C   0  0  0  0  0  0  0  0  0  0  0  0
    1.0663   -0.7125    2.4835 C   0  0  0  0  0  0  0  0  0  0  0  0
    4.3313    2.7391    2.5789 C   0  0  0  0  0  0  0  0  0  0  0  0
    4.6854    2.8422    3.9227 C   0  0  0  0  0  0  0  0  0  0  0  0
    5.8428    2.2472    4.3875 C   0  0  0  0  0  0  0  0  0  0  0  0
    6.6561    1.5450    3.5108 C   0  0  0  0  0  0  0  0  0  0  0  0
    6.3151    1.4531    2.1710 C   0  0  0  0  0  0  0  0  0  0  0  0
    5.1560    2.0457    1.6997 C   0  0  0  0  0  0  0  0  0  0  0  0
    2.5988    3.0407    0.3522 C   0  0  0  0  0  0  0  0  0  0  0  0
    2.7439    3.9279   -0.7085 C   0  0  0  0  0  0  0  0  0  0  0  0
    2.5966    3.4764   -2.0089 C   0  0  0  0  0  0  0  0  0  0  0  0
    2.3038    2.1462   -2.2586 C   0  0  0  0  0  0  0  0  0  0  0  0
    2.1660    1.2579   -1.2036 C   0  0  0  0  0  0  0  0  0  0  0  0
    2.3130    1.7025    0.0957 C   0  0  0  0  0  0  0  0  0  0  0  0
    3.1939    5.2954    1.9840 C   0  0  0  0  0  0  0  0  0  0  0  0
    4.4871    5.7584    2.1960 C   0  0  0  0  0  0  0  0  0  0  0  0
    4.7605    7.1142    2.1548 C   0  0  0  0  0  0  0  0  0  0  0  0
    3.7427    8.0184    1.9087 C   0  0  0  0  0  0  0  0  0  0  0  0
    2.1606    6.2078    1.7353 C   0  0  0  0  0  0  0  0  0  0  0  0
    2.4508    7.5635    1.7035 C   0  0  0  0  0  0  0  0  0  0  0  0
    0.7435    5.7322    1.5561 C   0  0  0  0  0  0  0  0  0  0  0  0
    0.2222    5.2449    2.8431 N   0  0  0  0  0  4  0  0  0  0  0  0
   -1.2344    5.4244    3.0561 C   0  0  0  0  0  0  0  0  0  0  0  0
   -1.5966    4.5457    4.2589 C   0  0  0  0  0  0  0  0  0  0  0  0
   -2.0428    4.9836    1.8364 C   0  0  0  0  0  0  0  0  0  0  0  0
   -1.5321    6.8914    3.3942 C   0  0  0  0  0  0  0  0  0  0  0  0
    0.0886   -1.3917    4.7725 H   0  0  0  0  0  0  0  0  0  0  0  0
   -1.9621   -1.8731    6.0355 H   0  0  0  0  0  0  0  0  0  0  0  0
   -3.1220   -0.0795    7.2622 H   0  0  0  0  0  0  0  0  0  0  0  0
   -2.1987    2.2109    7.2650 H   0  0  0  0  0  0  0  0  0  0  0  0
   -0.1181    2.6992    6.0140 H   0  0  0  0  0  0  0  0  0  0  0  0
    2.7220   -1.2517    5.4823 H   0  0  0  0  0  0  0  0  0  0  0  0
    4.0714   -1.7712    7.4631 H   0  0  0  0  0  0  0  0  0  0  0  0
    4.8191    0.0361    8.9673 H   0  0  0  0  0  0  0  0  0  0  0  0
    4.1688    2.3723    8.4946 H   0  0  0  0  0  0  0  0  0  0  0  0
    2.8152    2.8972    6.5147 H   0  0  0  0  0  0  0  0  0  0  0  0
    4.1396    0.0783    3.6587 H   0  0  0  0  0  0  0  0  0  0  0  0
    4.7858   -1.5753    1.9587 H   0  0  0  0  0  0  0  0  0  0  0  0
    3.0534   -2.6954    0.5992 H   0  0  0  0  0  0  0  0  0  0  0  0
    0.6735   -2.1302    0.9366 H   0  0  0  0  0  0  0  0  0  0  0  0
    0.0273   -0.4426    2.5986 H   0  0  0  0  0  0  0  0  0  0  0  0
    4.0454    3.4044    4.5881 H   0  0  0  0  0  0  0  0  0  0  0  0
    6.1065    2.3231    5.4322 H   0  0  0  0  0  0  0  0  0  0  0  0
    7.5570    1.0705    3.8718 H   0  0  0  0  0  0  0  0  0  0  0  0
    6.9544    0.9131    1.4875 H   0  0  0  0  0  0  0  0  0  0  0  0
    4.8940    1.9672    0.6545 H   0  0  0  0  0  0  0  0  0  0  0  0
    2.9766    4.9675   -0.5221 H   0  0  0  0  0  0  0  0  0  0  0  0
    2.7086    4.1693   -2.8304 H   0  0  0  0  0  0  0  0  0  0  0  0
    2.1827    1.8025   -3.2755 H   0  0  0  0  0  0  0  0  0  0  0  0
    1.9381    0.2192   -1.3916 H   0  0  0  0  0  0  0  0  0  0  0  0
    2.1997    1.0224    0.9260 H   0  0  0  0  0  0  0  0  0  0  0  0
    5.2807    5.0529    2.3939 H   0  0  0  0  0  0  0  0  0  0  0  0
    5.7687    7.4638    2.3198 H   0  0  0  0  0  0  0  0  0  0  0  0
    3.9503    9.0776    1.8822 H   0  0  0  0  0  0  0  0  0  0  0  0
    1.6576    8.2747    1.5168 H   0  0  0  0  0  0  0  0  0  0  0  0
    0.1417    6.5690    1.1820 H   0  0  0  0  0  0  0  0  0  0  0  0
    0.6905    4.9136    0.8262 H   0  0  0  0  0  0  0  0  0  0  0  0
    0.6733    5.8124    3.5748 H   0  0  0  0  0  0  0  0  0  0  0  0
   -1.0173    4.8455    5.1370 H   0  0  0  0  0  0  0  0  0  0  0  0
   -1.4103    3.4881    4.0178 H   0  0  0  0  0  0  0  0  0  0  0  0
   -2.6523    4.6418    4.5034 H   0  0  0  0  0  0  0  0  0  0  0  0
   -1.9177    5.6673    1.0004 H   0  0  0  0  0  0  0  0  0  0  0  0
   -3.0988    4.9562    2.0938 H   0  0  0  0  0  0  0  0  0  0  0  0
   -1.7387    3.9867    1.5246 H   0  0  0  0  0  0  0  0  0  0  0  0
   -0.9905    7.1978    4.2885 H   0  0  0  0  0  0  0  0  0  0  0  0
   -2.5957    7.0219    3.5777 H   0  0  0  0  0  0  0  0  0  0  0  0
   -1.2505    7.5528    2.5771 H   0  0  0  0  0  0  0  0  0  0  0  0
  1  4  1  0  0  0  0
  1  2  1  0  0  0  0
  3  1  1  0  0  0  0
  4  6  1  0  0  0  0
  4 12  1  0  0  0  0
  5 24  1  0  0  0  0
  5  1  1  0  0  0  0
  6  7  2  0  0  0  0
  6 11  1  0  0  0  0
  7  8  1  0  0  0  0
  8 49  1  0  0  0  0
  8  9  2  0  0  0  0
  9 50  1  0  0  0  0
 10  9  1  0  0  0  0
 10 51  1  0  0  0  0
 11 52  1  0  0  0  0
 11 10  2  0  0  0  0
 12 13  2  0  0  0  0
 12 17  1  0  0  0  0
 13 14  1  0  0  0  0
 14 54  1  0  0  0  0
 14 15  2  0  0  0  0
 15 55  1  0  0  0  0
 16 15  1  0  0  0  0
 16 56  1  0  0  0  0
 17 16  2  0  0  0  0
 18  4  1  0  0  0  0
 19 18  1  0  0  0  0
 19 58  1  0  0  0  0
 20 19  2  0  0  0  0
 21 22  2  0  0  0  0
 21 20  1  0  0  0  0
 22 23  1  0  0  0  0
 23 62  1  0  0  0  0
 23 18  2  0  0  0  0
 24 25  1  0  0  0  0
 25 26  2  0  0  0  0
 25 63  1  0  0  0  0
 26 64  1  0  0  0  0
 27 65  1  0  0  0  0
 27 26  1  0  0  0  0
 28 27  2  0  0  0  0
 29 28  1  0  0  0  0
 29 24  2  0  0  0  0
 30  5  1  0  0  0  0
 31 68  1  0  0  0  0
 31 30  2  0  0  0  0
 32 31  1  0  0  0  0
 33 32  2  0  0  0  0
 33 34  1  0  0  0  0
 34 35  2  0  0  0  0
 35 30  1  0  0  0  0
 35 72  1  0  0  0  0
 36  5  1  0  0  0  0
 36 37  1  0  0  0  0
 37 73  1  0  0  0  0
 38 37  2  0  0  0  0
 38 74  1  0  0  0  0
 39 38  1  0  0  0  0
 40 36  2  0  0  0  0
 41 40  1  0  0  0  0
 41 39  2  0  0  0  0
 42 40  1  0  0  0  0
 42 43  1  0  0  0  0
 43 44  1  0  0  0  0
 43  1  1  0  0  0  0
 43 79  1  0  0  0  0
 44 47  1  0  0  0  0
 44 45  1  0  0  0  0
 45 82  1  0  0  0  0
 45 80  1  0  0  0  0
 46 84  1  0  0  0  0
 46 44  1  0  0  0  0
 47 87  1  0  0  0  0
 47 86  1  0  0  0  0
 48  7  1  0  0  0  0
 53 13  1  0  0  0  0
 57 17  1  0  0  0  0
 59 20  1  0  0  0  0
 60 21  1  0  0  0  0
 61 22  1  0  0  0  0
 66 28  1  0  0  0  0
 67 29  1  0  0  0  0
 69 32  1  0  0  0  0
 70 33  1  0  0  0  0
 71 34  1  0  0  0  0
 75 39  1  0  0  0  0
 76 41  1  0  0  0  0
 77 42  1  0  0  0  0
 78 42  1  0  0  0  0
 81 45  1  0  0  0  0
 83 46  1  0  0  0  0
 85 46  1  0  0  0  0
 88 47  1  0  0  0  0
M  END
$$$$
