CSD_code = CAJJEC | q = 0 | S = 0 | Stoichiometry = C22H34Cl2Ti | MND = 12
 OpenBabel04212202013D

 59 60  0  0  1  0  0  0  0  0999 V2000
    6.7392    0.6956   13.3842 Ti  0  0  0  0  0  0  0  0  0  0  0  0
    8.2588   -0.9363   13.6049 Cl  0  0  0  0  0  0  0  0  0  0  0  0
    5.2885    1.4570   15.1700 C   0  0  0  0  0  0  0  0  0  0  0  0
    6.1763    0.4827   15.6964 C   0  0  0  0  0  0  0  0  0  0  0  0
    7.4938    0.9798   15.6159 C   0  0  0  0  0  0  0  0  0  0  0  0
    7.4458    2.2405   14.9908 C   0  0  2  0  0  0  0  0  0  0  0  0
    6.0867    2.5351   14.7238 C   0  0  0  0  0  0  0  0  0  0  0  0
    3.7782    1.4957   15.2947 C   0  0  0  0  0  0  0  0  0  0  0  0
    3.2333    0.1438   15.7623 C   0  0  0  0  0  0  0  0  0  0  0  0
    3.1677    1.8152   13.9204 C   0  0  0  0  0  0  0  0  0  0  0  0
    3.4384    2.6368   16.3041 C   0  0  0  0  0  0  0  0  0  0  0  0
    4.1516    2.4603   17.6455 C   0  0  0  0  0  0  0  0  0  0  0  0
    1.9398    2.7987   16.5555 C   0  0  0  0  0  0  0  0  0  0  0  0
    5.8952   -0.4448   16.1764 H   0  0  0  0  0  0  0  0  0  0  0  0
    8.3725    0.5111   16.0411 H   0  0  0  0  0  0  0  0  0  0  0  0
    8.2727    2.9329   14.9079 H   0  0  0  0  0  0  0  0  0  0  0  0
    5.7201    3.4948   14.3861 H   0  0  0  0  0  0  0  0  0  0  0  0
    3.5891   -0.1048   16.7579 H   0  0  0  0  0  0  0  0  0  0  0  0
    3.5483   -0.6356   15.0734 H   0  0  0  0  0  0  0  0  0  0  0  0
    2.1471    0.1601   15.7772 H   0  0  0  0  0  0  0  0  0  0  0  0
    2.0864    1.7115   13.9487 H   0  0  0  0  0  0  0  0  0  0  0  0
    3.5531    1.1138   13.1793 H   0  0  0  0  0  0  0  0  0  0  0  0
    3.4046    2.8322   13.6122 H   0  0  0  0  0  0  0  0  0  0  0  0
    3.8021    3.5701   15.8583 H   0  0  0  0  0  0  0  0  0  0  0  0
    3.7711    1.5920   18.1770 H   0  0  0  0  0  0  0  0  0  0  0  0
    5.2239    2.3427   17.5097 H   0  0  0  0  0  0  0  0  0  0  0  0
    3.9802    3.3351   18.2694 H   0  0  0  0  0  0  0  0  0  0  0  0
    1.3934    2.9695   15.6326 H   0  0  0  0  0  0  0  0  0  0  0  0
    1.5300    1.9222   17.0497 H   0  0  0  0  0  0  0  0  0  0  0  0
    1.7748    3.6560   17.2051 H   0  0  0  0  0  0  0  0  0  0  0  0
    5.2196   -0.9363   13.1637 Cl  0  0  0  0  0  0  0  0  0  0  0  0
    8.1898    1.4570   11.5985 C   0  0  0  0  0  0  0  0  0  0  0  0
    7.3021    0.4827   11.0721 C   0  0  0  0  0  0  0  0  0  0  0  0
    5.9846    0.9798   11.1526 C   0  0  0  0  0  0  0  0  0  0  0  0
    7.5831   -0.4448   10.5921 H   0  0  0  0  0  0  0  0  0  0  0  0
    6.0326    2.2405   11.7776 C   0  0  2  0  0  0  0  0  0  0  0  0
    7.3917    2.5351   12.0446 C   0  0  0  0  0  0  0  0  0  0  0  0
    9.7002    1.4956   11.4738 C   0  0  0  0  0  0  0  0  0  0  0  0
   10.2451    0.1437   11.0061 C   0  0  0  0  0  0  0  0  0  0  0  0
    9.8892   -0.1048   10.0105 H   0  0  0  0  0  0  0  0  0  0  0  0
    9.9302   -0.6356   11.6950 H   0  0  0  0  0  0  0  0  0  0  0  0
   11.3313    0.1601   10.9912 H   0  0  0  0  0  0  0  0  0  0  0  0
   10.3107    1.8152   12.8481 C   0  0  0  0  0  0  0  0  0  0  0  0
   11.3920    1.7115   12.8197 H   0  0  0  0  0  0  0  0  0  0  0  0
    9.9253    1.1137   13.5891 H   0  0  0  0  0  0  0  0  0  0  0  0
   10.0739    2.8321   13.1562 H   0  0  0  0  0  0  0  0  0  0  0  0
   10.0399    2.6368   10.4644 C   0  0  0  0  0  0  0  0  0  0  0  0
    9.3266    2.4603    9.1230 C   0  0  0  0  0  0  0  0  0  0  0  0
    9.7071    1.5920    8.5915 H   0  0  0  0  0  0  0  0  0  0  0  0
    8.2543    2.3427    9.2588 H   0  0  0  0  0  0  0  0  0  0  0  0
    9.4980    3.3351    8.4991 H   0  0  0  0  0  0  0  0  0  0  0  0
   11.5385    2.7986   10.2128 C   0  0  0  0  0  0  0  0  0  0  0  0
   12.0849    2.9694   11.1358 H   0  0  0  0  0  0  0  0  0  0  0  0
   11.9483    1.9222    9.7186 H   0  0  0  0  0  0  0  0  0  0  0  0
   11.7034    3.6560    9.5632 H   0  0  0  0  0  0  0  0  0  0  0  0
    9.6762    3.5701   10.9101 H   0  0  0  0  0  0  0  0  0  0  0  0
    5.2057    2.9329   11.8606 H   0  0  0  0  0  0  0  0  0  0  0  0
    7.7583    3.4948   12.3823 H   0  0  0  0  0  0  0  0  0  0  0  0
    5.1059    0.5112   10.7273 H   0  0  0  0  0  0  0  0  0  0  0  0
  1  2  1  0  0  0  0
  1  6  1  0  0  0  0
  3  8  1  0  0  0  0
  3  4  1  0  0  0  0
  4 14  1  0  0  0  0
  5  4  2  0  0  0  0
  5 15  1  0  0  0  0
  6 16  1  6  0  0  0
  6  5  1  0  0  0  0
  7  6  1  0  0  0  0
  7  3  2  0  0  0  0
  8  9  1  0  0  0  0
  8 11  1  0  0  0  0
  9 20  1  0  0  0  0
  9 18  1  0  0  0  0
 10 21  1  0  0  0  0
 10  8  1  0  0  0  0
 11 13  1  0  0  0  0
 11 12  1  0  0  0  0
 12 25  1  0  0  0  0
 12 27  1  0  0  0  0
 13 29  1  0  0  0  0
 13 30  1  0  0  0  0
 17  7  1  0  0  0  0
 19  9  1  0  0  0  0
 22 10  1  0  0  0  0
 23 10  1  0  0  0  0
 24 11  1  0  0  0  0
 26 12  1  0  0  0  0
 28 13  1  0  0  0  0
 31  1  1  0  0  0  0
 32 37  2  0  0  0  0
 33 34  2  0  0  0  0
 33 32  1  0  0  0  0
 34 36  1  0  0  0  0
 35 33  1  0  0  0  0
 36 57  1  1  0  0  0
 36 37  1  0  0  0  0
 36  1  1  0  0  0  0
 37 58  1  0  0  0  0
 38 32  1  0  0  0  0
 38 43  1  0  0  0  0
 39 38  1  0  0  0  0
 39 41  1  0  0  0  0
 40 39  1  0  0  0  0
 42 39  1  0  0  0  0
 43 46  1  0  0  0  0
 43 45  1  0  0  0  0
 44 43  1  0  0  0  0
 47 56  1  0  0  0  0
 47 38  1  0  0  0  0
 48 50  1  0  0  0  0
 48 47  1  0  0  0  0
 49 48  1  0  0  0  0
 51 48  1  0  0  0  0
 52 47  1  0  0  0  0
 52 53  1  0  0  0  0
 54 52  1  0  0  0  0
 55 52  1  0  0  0  0
 59 34  1  0  0  0  0
M  END
$$$$
