CSD_code = CAJPUY | q = 0 | S = 0 | Stoichiometry = C29H42ClN2PSi2Zr | MND = 5
 OpenBabel04212202013D

 78 81  0  0  0  0  0  0  0  0999 V2000
   10.0786    4.1891    7.3806 Zr  0  0  2  0  0  0  0  0  0  0  0  0
    8.1187    3.2344    8.2857 Cl  0  0  0  0  0  0  0  0  0  0  0  0
   12.3365    5.4739    6.2339 P   0  0  1  0  0  0  0  0  0  0  0  0
   12.2898    2.6097    5.4334 Si  0  0  0  0  0  0  0  0  0  0  0  0
   12.3858    6.0391    9.2297 Si  0  0  0  0  0  0  0  0  0  0  0  0
   10.9560    2.5462    6.4795 N   0  0  0  0  0  0  0  0  0  0  0  0
   10.8646    5.3422    8.9328 N   0  0  0  0  0  0  0  0  0  0  0  0
    8.8589    5.0939    5.7407 C   0  0  0  0  0  0  0  0  0  0  0  0
    8.0846    5.7387    6.1901 H   0  0  0  0  0  0  0  0  0  0  0  0
    8.3213    4.2818    5.2235 H   0  0  0  0  0  0  0  0  0  0  0  0
    9.3804    5.6819    4.9687 H   0  0  0  0  0  0  0  0  0  0  0  0
   10.2951    1.3996    6.9246 C   0  0  0  0  0  0  0  0  0  0  0  0
    9.4335    0.6594    6.1019 C   0  0  0  0  0  0  0  0  0  0  0  0
    8.7904   -0.4540    6.6217 C   0  0  0  0  0  0  0  0  0  0  0  0
    8.1215   -1.0180    5.9870 H   0  0  0  0  0  0  0  0  0  0  0  0
    8.9815   -0.8441    7.9345 C   0  0  0  0  0  0  0  0  0  0  0  0
    8.4668   -1.7095    8.3233 H   0  0  0  0  0  0  0  0  0  0  0  0
    9.8279   -0.1134    8.7514 C   0  0  0  0  0  0  0  0  0  0  0  0
    9.9753   -0.4122    9.7799 H   0  0  0  0  0  0  0  0  0  0  0  0
   10.4867    1.0005    8.2616 C   0  0  0  0  0  0  0  0  0  0  0  0
    9.6553    5.8588    9.4335 C   0  0  0  0  0  0  0  0  0  0  0  0
    9.0471    5.2645   10.5561 C   0  0  0  0  0  0  0  0  0  0  0  0
    7.8320    5.7456   11.0160 C   0  0  0  0  0  0  0  0  0  0  0  0
    7.3716    5.2751   11.8726 H   0  0  0  0  0  0  0  0  0  0  0  0
    7.2021    6.8067   10.3919 C   0  0  0  0  0  0  0  0  0  0  0  0
    6.2506    7.1651   10.7540 H   0  0  0  0  0  0  0  0  0  0  0  0
    7.8058    7.4104    9.3048 C   0  0  0  0  0  0  0  0  0  0  0  0
    7.3277    8.2528    8.8240 H   0  0  0  0  0  0  0  0  0  0  0  0
    9.0268    6.9612    8.8203 C   0  0  0  0  0  0  0  0  0  0  0  0
   12.9158    6.3490    4.7244 C   0  0  0  0  0  0  0  0  0  0  0  0
   12.0884    7.3823    4.2878 C   0  0  0  0  0  0  0  0  0  0  0  0
   11.1720    7.5858    4.8294 H   0  0  0  0  0  0  0  0  0  0  0  0
   12.4191    8.1397    3.1805 C   0  0  0  0  0  0  0  0  0  0  0  0
   11.7671    8.9373    2.8553 H   0  0  0  0  0  0  0  0  0  0  0  0
   13.5853    7.8682    2.4838 C   0  0  0  0  0  0  0  0  0  0  0  0
   13.8470    8.4526    1.6143 H   0  0  0  0  0  0  0  0  0  0  0  0
   14.4123    6.8413    2.9053 C   0  0  0  0  0  0  0  0  0  0  0  0
   15.3224    6.6258    2.3641 H   0  0  0  0  0  0  0  0  0  0  0  0
   14.0818    6.0860    4.0171 C   0  0  0  0  0  0  0  0  0  0  0  0
   14.7436    5.2905    4.3244 H   0  0  0  0  0  0  0  0  0  0  0  0
   13.3566    3.9574    6.3119 C   0  0  0  0  0  0  0  0  0  0  0  0
   13.4554    3.7105    7.3715 H   0  0  0  0  0  0  0  0  0  0  0  0
   14.3546    4.1098    5.9059 H   0  0  0  0  0  0  0  0  0  0  0  0
   11.8936    3.2997    3.6839 C   0  0  0  0  0  0  0  0  0  0  0  0
   11.1681    4.1092    3.7636 H   0  0  0  0  0  0  0  0  0  0  0  0
   11.4779    2.5474    3.0217 H   0  0  0  0  0  0  0  0  0  0  0  0
   12.7799    3.7009    3.2020 H   0  0  0  0  0  0  0  0  0  0  0  0
   13.2776    0.9802    5.2764 C   0  0  0  0  0  0  0  0  0  0  0  0
   12.5989    0.1670    5.0463 H   0  0  0  0  0  0  0  0  0  0  0  0
   13.7876    0.7228    6.1988 H   0  0  0  0  0  0  0  0  0  0  0  0
   14.0189    1.0268    4.4867 H   0  0  0  0  0  0  0  0  0  0  0  0
    9.2100    1.0911    4.6837 C   0  0  0  0  0  0  0  0  0  0  0  0
    9.1564    2.1804    4.6344 H   0  0  0  0  0  0  0  0  0  0  0  0
    8.2905    0.6623    4.2930 H   0  0  0  0  0  0  0  0  0  0  0  0
   10.0390    0.7680    4.0535 H   0  0  0  0  0  0  0  0  0  0  0  0
   11.4330    1.8046    9.1144 C   0  0  0  0  0  0  0  0  0  0  0  0
   11.1683    2.8808    9.0689 H   0  0  0  0  0  0  0  0  0  0  0  0
   12.4532    1.6817    8.7359 H   0  0  0  0  0  0  0  0  0  0  0  0
   11.4021    1.4614   10.1475 H   0  0  0  0  0  0  0  0  0  0  0  0
   13.1527    6.5199    7.5140 C   0  0  0  0  0  0  0  0  0  0  0  0
   12.9532    7.5661    7.2773 H   0  0  0  0  0  0  0  0  0  0  0  0
   14.2324    6.3706    7.4658 H   0  0  0  0  0  0  0  0  0  0  0  0
   12.3388    7.5955   10.3389 C   0  0  0  0  0  0  0  0  0  0  0  0
   12.0701    8.4929    9.7924 H   0  0  0  0  0  0  0  0  0  0  0  0
   13.2973    7.7730   10.8135 H   0  0  0  0  0  0  0  0  0  0  0  0
   11.6014    7.4603   11.1227 H   0  0  0  0  0  0  0  0  0  0  0  0
   13.5978    4.8023   10.0705 C   0  0  0  0  0  0  0  0  0  0  0  0
   13.5301    3.7966    9.6655 H   0  0  0  0  0  0  0  0  0  0  0  0
   13.4056    4.7362   11.1368 H   0  0  0  0  0  0  0  0  0  0  0  0
   14.6238    5.1355    9.9506 H   0  0  0  0  0  0  0  0  0  0  0  0
    9.7006    4.0967   11.2355 C   0  0  0  0  0  0  0  0  0  0  0  0
   10.7860    4.1850   11.1880 H   0  0  0  0  0  0  0  0  0  0  0  0
    9.3892    3.1727   10.7410 H   0  0  0  0  0  0  0  0  0  0  0  0
    9.3902    4.0439   12.2770 H   0  0  0  0  0  0  0  0  0  0  0  0
    9.6897    7.7056    7.6914 C   0  0  0  0  0  0  0  0  0  0  0  0
    8.9411    8.1783    7.0571 H   0  0  0  0  0  0  0  0  0  0  0  0
   10.3110    7.0354    7.0882 H   0  0  0  0  0  0  0  0  0  0  0  0
   10.3282    8.4923    8.0981 H   0  0  0  0  0  0  0  0  0  0  0  0
  1  2  1  1  0  0  0
  1  7  1  0  0  0  0
  3 30  1  6  0  0  0
  3 41  1  0  0  0  0
  3 60  1  0  0  0  0
  4 41  1  0  0  0  0
  4  6  1  0  0  0  0
  5 67  1  0  0  0  0
  5 63  1  0  0  0  0
  6 12  1  0  0  0  0
  6  1  1  0  0  0  0
  7  5  1  0  0  0  0
  7 21  1  0  0  0  0
  8  9  1  0  0  0  0
  8  1  1  0  0  0  0
 10  8  1  0  0  0  0
 11  8  1  0  0  0  0
 12 20  1  0  0  0  0
 13 14  1  0  0  0  0
 13 12  2  0  0  0  0
 14 16  2  0  0  0  0
 15 14  1  0  0  0  0
 16 17  1  0  0  0  0
 16 18  1  0  0  0  0
 18 19  1  0  0  0  0
 20 18  2  0  0  0  0
 20 56  1  0  0  0  0
 21 22  1  0  0  0  0
 22 23  2  0  0  0  0
 22 71  1  0  0  0  0
 23 24  1  0  0  0  0
 25 26  1  0  0  0  0
 25 23  1  0  0  0  0
 27 25  2  0  0  0  0
 28 27  1  0  0  0  0
 29 27  1  0  0  0  0
 29 21  2  0  0  0  0
 31 30  1  0  0  0  0
 31 32  1  0  0  0  0
 33 31  2  0  0  0  0
 34 33  1  0  0  0  0
 35 37  2  0  0  0  0
 35 33  1  0  0  0  0
 36 35  1  0  0  0  0
 37 39  1  0  0  0  0
 38 37  1  0  0  0  0
 39 40  1  0  0  0  0
 39 30  2  0  0  0  0
 41 42  1  0  0  0  0
 43 41  1  0  0  0  0
 44 45  1  0  0  0  0
 44  4  1  0  0  0  0
 46 44  1  0  0  0  0
 47 44  1  0  0  0  0
 48  4  1  0  0  0  0
 48 50  1  0  0  0  0
 49 48  1  0  0  0  0
 51 48  1  0  0  0  0
 52 13  1  0  0  0  0
 53 52  1  0  0  0  0
 54 52  1  0  0  0  0
 55 52  1  0  0  0  0
 56 59  1  0  0  0  0
 57 56  1  0  0  0  0
 58 56  1  0  0  0  0
 60  5  1  0  0  0  0
 61 60  1  0  0  0  0
 62 60  1  0  0  0  0
 63 65  1  0  0  0  0
 63 66  1  0  0  0  0
 64 63  1  0  0  0  0
 67 69  1  0  0  0  0
 68 67  1  0  0  0  0
 70 67  1  0  0  0  0
 71 74  1  0  0  0  0
 72 71  1  0  0  0  0
 73 71  1  0  0  0  0
 75 78  1  0  0  0  0
 75 29  1  0  0  0  0
 76 75  1  0  0  0  0
 77 75  1  0  0  0  0
M  END
$$$$
