CSD_code = CAKVOC | q = 0 | S = 0 | Stoichiometry = C38H34As2Cl2O2Pd | MND = 4
 OpenBabel04212202013D

 79 82  0  0  0  0  0  0  0  0999 V2000
    4.3172   -2.9328    6.0245 Pd  0  0  0  0  0  0  0  0  0  0  0  0
    4.0058   -0.6233    5.9340 As  0  0  0  0  0  0  0  0  0  0  0  0
    3.2619   -3.1322    4.0016 Cl  0  0  0  0  0  0  0  0  0  0  0  0
    1.8396   -2.2484    6.9358 O   0  0  0  0  0  0  0  0  0  0  0  0
    2.1112   -0.3299    5.6321 C   0  0  0  0  0  0  0  0  0  0  0  0
    1.2430   -1.2971    6.1602 C   0  0  0  0  0  0  0  0  0  0  0  0
   -0.1176   -1.2291    5.8936 C   0  0  0  0  0  0  0  0  0  0  0  0
   -0.7972   -1.9739    6.2785 H   0  0  0  0  0  0  0  0  0  0  0  0
   -0.6108   -0.1906    5.1198 C   0  0  0  0  0  0  0  0  0  0  0  0
   -1.6705   -0.1431    4.9165 H   0  0  0  0  0  0  0  0  0  0  0  0
    0.2361    0.7743    4.6069 C   0  0  0  0  0  0  0  0  0  0  0  0
   -0.1576    1.5778    4.0027 H   0  0  0  0  0  0  0  0  0  0  0  0
    1.5972    0.6961    4.8571 C   0  0  0  0  0  0  0  0  0  0  0  0
    2.2753    1.4311    4.4379 H   0  0  0  0  0  0  0  0  0  0  0  0
    1.1106   -3.4143    7.2583 C   0  0  0  0  0  0  0  0  0  0  0  0
    0.3051   -3.1940    7.9677 H   0  0  0  0  0  0  0  0  0  0  0  0
    1.8282   -4.0984    7.7237 H   0  0  0  0  0  0  0  0  0  0  0  0
    0.6968   -3.8774    6.3553 H   0  0  0  0  0  0  0  0  0  0  0  0
    4.7783    0.5116    4.5412 C   0  0  0  0  0  0  0  0  0  0  0  0
    4.9799   -0.0514    3.2841 C   0  0  0  0  0  0  0  0  0  0  0  0
    4.7043   -1.0900    3.1204 H   0  0  0  0  0  0  0  0  0  0  0  0
    5.5037    0.7080    2.2522 C   0  0  0  0  0  0  0  0  0  0  0  0
    5.6519    0.2652    1.2779 H   0  0  0  0  0  0  0  0  0  0  0  0
    5.8367    2.0351    2.4695 C   0  0  0  0  0  0  0  0  0  0  0  0
    6.2476    2.6286    1.6661 H   0  0  0  0  0  0  0  0  0  0  0  0
    5.6409    2.6024    3.7181 C   0  0  0  0  0  0  0  0  0  0  0  0
    5.8975    3.6384    3.8875 H   0  0  0  0  0  0  0  0  0  0  0  0
    5.1136    1.8458    4.7511 C   0  0  0  0  0  0  0  0  0  0  0  0
    4.9568    2.2884    5.7299 H   0  0  0  0  0  0  0  0  0  0  0  0
    4.3504    0.4414    7.5244 C   0  0  0  0  0  0  0  0  0  0  0  0
    5.6770    0.6593    7.8869 C   0  0  0  0  0  0  0  0  0  0  0  0
    6.4656    0.2683    7.2473 H   0  0  0  0  0  0  0  0  0  0  0  0
    5.9826    1.3506    9.0436 C   0  0  0  0  0  0  0  0  0  0  0  0
    7.0139    1.5142    9.3214 H   0  0  0  0  0  0  0  0  0  0  0  0
    4.9623    1.8239    9.8539 C   0  0  0  0  0  0  0  0  0  0  0  0
    5.1991    2.3591   10.7618 H   0  0  0  0  0  0  0  0  0  0  0  0
    3.6410    1.6030    9.5054 C   0  0  0  0  0  0  0  0  0  0  0  0
    2.8466    1.9664   10.1418 H   0  0  0  0  0  0  0  0  0  0  0  0
    3.3342    0.9108    8.3456 C   0  0  0  0  0  0  0  0  0  0  0  0
    2.2995    0.7283    8.0716 H   0  0  0  0  0  0  0  0  0  0  0  0
    4.6299   -5.2422    6.1161 As  0  0  0  0  0  0  0  0  0  0  0  0
    5.3732   -2.7353    8.0471 Cl  0  0  0  0  0  0  0  0  0  0  0  0
    6.7914   -3.6175    5.1061 O   0  0  0  0  0  0  0  0  0  0  0  0
    6.5253   -5.5329    6.4152 C   0  0  0  0  0  0  0  0  0  0  0  0
    7.3912   -4.5660    5.8827 C   0  0  0  0  0  0  0  0  0  0  0  0
    8.7525   -4.6317    6.1464 C   0  0  0  0  0  0  0  0  0  0  0  0
    9.4303   -3.8871    5.7581 H   0  0  0  0  0  0  0  0  0  0  0  0
    9.2486   -5.6676    6.9218 C   0  0  0  0  0  0  0  0  0  0  0  0
   10.3087   -5.7134    7.1230 H   0  0  0  0  0  0  0  0  0  0  0  0
    8.4039   -6.6321    7.4392 C   0  0  0  0  0  0  0  0  0  0  0  0
    8.7998   -7.4334    8.0447 H   0  0  0  0  0  0  0  0  0  0  0  0
    7.0422   -6.5562    7.1918 C   0  0  0  0  0  0  0  0  0  0  0  0
    6.3658   -7.2907    7.6147 H   0  0  0  0  0  0  0  0  0  0  0  0
    7.5191   -2.4532    4.7751 C   0  0  0  0  0  0  0  0  0  0  0  0
    8.3228   -2.6773    4.0649 H   0  0  0  0  0  0  0  0  0  0  0  0
    6.8000   -1.7722    4.3077 H   0  0  0  0  0  0  0  0  0  0  0  0
    7.9351   -1.9848    5.6744 H   0  0  0  0  0  0  0  0  0  0  0  0
    3.8600   -6.3772    7.5101 C   0  0  0  0  0  0  0  0  0  0  0  0
    3.6494   -5.8119    8.7647 C   0  0  0  0  0  0  0  0  0  0  0  0
    3.9164   -4.7707    8.9262 H   0  0  0  0  0  0  0  0  0  0  0  0
    3.1281   -6.5723    9.7970 C   0  0  0  0  0  0  0  0  0  0  0  0
    2.9730   -6.1278   10.7694 H   0  0  0  0  0  0  0  0  0  0  0  0
    2.8065   -7.9026    9.5827 C   0  0  0  0  0  0  0  0  0  0  0  0
    2.3975   -8.4970   10.3865 H   0  0  0  0  0  0  0  0  0  0  0  0
    3.0111   -8.4722    8.3365 C   0  0  0  0  0  0  0  0  0  0  0  0
    2.7631   -9.5107    8.1694 H   0  0  0  0  0  0  0  0  0  0  0  0
    3.5359   -7.7146    7.3031 C   0  0  0  0  0  0  0  0  0  0  0  0
    3.6996   -8.1587    6.3260 H   0  0  0  0  0  0  0  0  0  0  0  0
    4.2844   -6.3082    4.5267 C   0  0  0  0  0  0  0  0  0  0  0  0
    2.9576   -6.5317    4.1686 C   0  0  0  0  0  0  0  0  0  0  0  0
    2.1694   -6.1444    4.8112 H   0  0  0  0  0  0  0  0  0  0  0  0
    2.6511   -7.2237    3.0126 C   0  0  0  0  0  0  0  0  0  0  0  0
    1.6196   -7.3917    2.7382 H   0  0  0  0  0  0  0  0  0  0  0  0
    3.6707   -7.6923    2.1987 C   0  0  0  0  0  0  0  0  0  0  0  0
    3.4331   -8.2280    1.2913 H   0  0  0  0  0  0  0  0  0  0  0  0
    4.9922   -7.4660    2.5429 C   0  0  0  0  0  0  0  0  0  0  0  0
    5.7861   -7.8257    1.9037 H   0  0  0  0  0  0  0  0  0  0  0  0
    5.2999   -6.7729    3.7020 C   0  0  0  0  0  0  0  0  0  0  0  0
    6.3347   -6.5862    3.9727 H   0  0  0  0  0  0  0  0  0  0  0  0
  1 42  1  0  0  0  0
  2 30  1  0  0  0  0
  3  1  1  0  0  0  0
  4 15  1  0  0  0  0
  5  2  1  0  0  0  0
  5  6  1  0  0  0  0
  6  4  1  0  0  0  0
  7  6  2  0  0  0  0
  7  8  1  0  0  0  0
  9  7  1  0  0  0  0
 10  9  1  0  0  0  0
 11 13  1  0  0  0  0
 11  9  2  0  0  0  0
 12 11  1  0  0  0  0
 13  5  2  0  0  0  0
 14 13  1  0  0  0  0
 15 17  1  0  0  0  0
 15 16  1  0  0  0  0
 18 15  1  0  0  0  0
 19 28  1  0  0  0  0
 19  2  1  0  0  0  0
 20 19  2  0  0  0  0
 21 20  1  0  0  0  0
 22 24  2  0  0  0  0
 22 20  1  0  0  0  0
 23 22  1  0  0  0  0
 24 26  1  0  0  0  0
 25 24  1  0  0  0  0
 26 27  1  0  0  0  0
 26 28  2  0  0  0  0
 28 29  1  0  0  0  0
 30 31  2  0  0  0  0
 30 39  1  0  0  0  0
 31 33  1  0  0  0  0
 32 31  1  0  0  0  0
 33 34  1  0  0  0  0
 33 35  2  0  0  0  0
 35 36  1  0  0  0  0
 37 35  1  0  0  0  0
 37 38  1  0  0  0  0
 39 37  2  0  0  0  0
 40 39  1  0  0  0  0
 41 44  1  0  0  0  0
 41 58  1  0  0  0  0
 43 45  1  0  0  0  0
 44 52  1  0  0  0  0
 45 46  1  0  0  0  0
 45 44  2  0  0  0  0
 46 48  2  0  0  0  0
 47 46  1  0  0  0  0
 48 49  1  0  0  0  0
 48 50  1  0  0  0  0
 50 51  1  0  0  0  0
 52 50  2  0  0  0  0
 52 53  1  0  0  0  0
 54 43  1  0  0  0  0
 54 57  1  0  0  0  0
 55 54  1  0  0  0  0
 56 54  1  0  0  0  0
 58 59  1  0  0  0  0
 59 60  1  0  0  0  0
 59 61  2  0  0  0  0
 61 62  1  0  0  0  0
 63 61  1  0  0  0  0
 63 64  1  0  0  0  0
 65 63  2  0  0  0  0
 66 65  1  0  0  0  0
 67 58  2  0  0  0  0
 67 65  1  0  0  0  0
 68 67  1  0  0  0  0
 69 41  1  0  0  0  0
 70 69  1  0  0  0  0
 70 71  1  0  0  0  0
 72 70  2  0  0  0  0
 73 72  1  0  0  0  0
 74 76  2  0  0  0  0
 74 72  1  0  0  0  0
 75 74  1  0  0  0  0
 76 78  1  0  0  0  0
 77 76  1  0  0  0  0
 78 79  1  0  0  0  0
 78 69  2  0  0  0  0
M  END
$$$$
