CSD_code = CALLOT | q = 0 | S = 0 | Stoichiometry = C28H27Cl2NO4PRe | MND = 6
 OpenBabel04212202013D

 64 68  0  0  0  0  0  0  0  0999 V2000
    1.5416    3.2736    3.6800 Re  0  0  0  0  0  0  0  0  0  0  0  0
    1.4137    0.5865    4.9971 C   0  0  0  0  0  0  0  0  0  0  0  0
    1.9133   -0.1468    6.0727 C   0  0  0  0  0  0  0  0  0  0  0  0
    2.6119    0.3167    6.7516 H   0  0  0  0  0  0  0  0  0  0  0  0
    1.5347   -1.4680    6.2806 C   0  0  0  0  0  0  0  0  0  0  0  0
    1.7725   -3.4221    7.6192 C   0  0  0  0  0  0  0  0  0  0  0  0
    0.7049   -3.5632    7.8142 H   0  0  0  0  0  0  0  0  0  0  0  0
    2.3387   -3.6843    8.5112 H   0  0  0  0  0  0  0  0  0  0  0  0
    2.0820   -4.0672    6.7920 H   0  0  0  0  0  0  0  0  0  0  0  0
    0.6368   -2.0762    5.3949 C   0  0  0  0  0  0  0  0  0  0  0  0
    0.3344   -3.1016    5.5296 H   0  0  0  0  0  0  0  0  0  0  0  0
    0.1341   -1.3581    4.3345 C   0  0  0  0  0  0  0  0  0  0  0  0
   -0.5611   -1.8315    3.6561 H   0  0  0  0  0  0  0  0  0  0  0  0
    0.4864   -0.0264    4.1051 C   0  0  0  0  0  0  0  0  0  0  0  0
   -0.0952    0.6798    3.0034 C   0  0  0  0  0  3  0  0  0  0  0  0
   -0.7551    0.0784    2.3727 H   0  0  0  0  0  0  0  0  0  0  0  0
   -0.6049    2.4235    1.5403 C   0  0  0  0  0  0  0  0  0  0  0  0
   -0.9895    3.4223    1.7529 H   0  0  0  0  0  0  0  0  0  0  0  0
   -1.4227    1.7537    1.2499 H   0  0  0  0  0  0  0  0  0  0  0  0
    0.3954    2.5346    0.3577 C   0  0  0  0  0  0  0  0  0  0  0  0
   -0.1790    2.7685   -0.5433 H   0  0  0  0  0  0  0  0  0  0  0  0
    1.0899    3.3575    0.5668 H   0  0  0  0  0  0  0  0  0  0  0  0
   -0.6836    5.5713    5.4803 C   0  0  0  0  0  0  0  0  0  0  0  0
   -1.9552    5.9040    5.9368 C   0  0  0  0  0  0  0  0  0  0  0  0
   -2.6303    5.1339    6.2836 H   0  0  0  0  0  0  0  0  0  0  0  0
   -2.3620    7.2258    5.9275 C   0  0  0  0  0  0  0  0  0  0  0  0
   -3.3509    7.4840    6.2773 H   0  0  0  0  0  0  0  0  0  0  0  0
   -1.5070    8.2152    5.4690 C   0  0  0  0  0  0  0  0  0  0  0  0
   -1.8320    9.2449    5.4632 H   0  0  0  0  0  0  0  0  0  0  0  0
   -0.2414    7.8843    5.0119 C   0  0  0  0  0  0  0  0  0  0  0  0
    0.4220    8.6540    4.6485 H   0  0  0  0  0  0  0  0  0  0  0  0
    0.1732    6.5649    5.0149 C   0  0  0  0  0  0  0  0  0  0  0  0
    1.1527    6.2899    4.6458 H   0  0  0  0  0  0  0  0  0  0  0  0
    0.4846    3.6288    7.2275 C   0  0  0  0  0  0  0  0  0  0  0  0
    1.8156    3.3994    7.5528 C   0  0  0  0  0  0  0  0  0  0  0  0
    2.5667    3.3916    6.7760 H   0  0  0  0  0  0  0  0  0  0  0  0
    2.1758    3.2054    8.8760 C   0  0  0  0  0  0  0  0  0  0  0  0
    3.2105    3.0254    9.1258 H   0  0  0  0  0  0  0  0  0  0  0  0
    1.2175    3.2461    9.8738 C   0  0  0  0  0  0  0  0  0  0  0  0
    1.5016    3.0944   10.9045 H   0  0  0  0  0  0  0  0  0  0  0  0
   -0.1095    3.4870    9.5512 C   0  0  0  0  0  0  0  0  0  0  0  0
   -0.8578    3.5255   10.3291 H   0  0  0  0  0  0  0  0  0  0  0  0
   -0.4787    3.6780    8.2339 C   0  0  0  0  0  0  0  0  0  0  0  0
   -1.5142    3.8596    7.9828 H   0  0  0  0  0  0  0  0  0  0  0  0
   -1.4832    2.7840    5.3383 C   0  0  0  0  0  0  0  0  0  0  0  0
   -1.5481    1.5751    6.0251 C   0  0  0  0  0  0  0  0  0  0  0  0
   -0.7979    1.3336    6.7657 H   0  0  0  0  0  0  0  0  0  0  0  0
   -2.5697    0.6817    5.7581 C   0  0  0  0  0  0  0  0  0  0  0  0
   -2.6126   -0.2562    6.2917 H   0  0  0  0  0  0  0  0  0  0  0  0
   -3.5274    0.9839    4.8042 C   0  0  0  0  0  0  0  0  0  0  0  0
   -4.3212    0.2824    4.5955 H   0  0  0  0  0  0  0  0  0  0  0  0
   -3.4658    2.1855    4.1151 C   0  0  0  0  0  0  0  0  0  0  0  0
   -4.2118    2.4208    3.3707 H   0  0  0  0  0  0  0  0  0  0  0  0
   -2.4442    3.0793    4.3733 C   0  0  0  0  0  0  0  0  0  0  0  0
   -2.3775    4.0128    3.8314 H   0  0  0  0  0  0  0  0  0  0  0  0
    3.2510    4.4565    4.7030 Cl  0  0  0  0  0  0  0  0  0  0  0  0
    3.1180    2.2622    2.2531 Cl  0  0  0  0  0  0  0  0  0  0  0  0
    0.0499    1.9213    2.7161 N   0  0  0  0  0  0  0  0  0  0  0  0
    1.1252    4.5291    2.6865 O   0  0  0  0  0  1  0  0  0  0  0  0
    1.7743    1.8192    4.8036 O   0  0  0  0  0  0  0  0  0  0  0  0
    2.0768   -2.0703    7.3621 O   0  0  0  0  0  0  0  0  0  0  0  0
    1.0703    1.3360    0.1295 O   0  0  0  0  0  0  0  0  0  0  0  0
    1.8559    1.3297    0.7094 H   0  0  0  0  0  0  0  0  0  0  0  0
   -0.0444    3.8731    5.5033 P   0  0  0  0  0  4  0  0  0  0  0  0
  1 56  1  0  0  0  0
  1 60  1  0  0  0  0
  1 64  1  0  0  0  0
  2  3  1  0  0  0  0
  3  5  2  0  0  0  0
  3  4  1  0  0  0  0
  5 61  1  0  0  0  0
  6  7  1  0  0  0  0
  6  8  1  0  0  0  0
  9  6  1  0  0  0  0
 10 11  1  0  0  0  0
 10  5  1  0  0  0  0
 12 10  2  0  0  0  0
 13 12  1  0  0  0  0
 14 12  1  0  0  0  0
 14  2  2  0  0  0  0
 15 14  1  0  0  0  0
 16 15  1  0  0  0  0
 17 18  1  0  0  0  0
 17 58  1  0  0  0  0
 19 17  1  0  0  0  0
 20 22  1  0  0  0  0
 20 17  1  0  0  0  0
 21 20  1  0  0  0  0
 23 64  1  0  0  0  0
 23 24  1  0  0  0  0
 24 25  1  0  0  0  0
 26 24  2  0  0  0  0
 26 27  1  0  0  0  0
 28 26  1  0  0  0  0
 29 28  1  0  0  0  0
 30 32  1  0  0  0  0
 30 28  2  0  0  0  0
 31 30  1  0  0  0  0
 32 23  2  0  0  0  0
 33 32  1  0  0  0  0
 34 35  2  0  0  0  0
 34 43  1  0  0  0  0
 35 37  1  0  0  0  0
 36 35  1  0  0  0  0
 37 38  1  0  0  0  0
 37 39  2  0  0  0  0
 39 40  1  0  0  0  0
 41 39  1  0  0  0  0
 41 42  1  0  0  0  0
 43 41  2  0  0  0  0
 44 43  1  0  0  0  0
 45 64  1  0  0  0  0
 45 46  1  0  0  0  0
 46 47  1  0  0  0  0
 48 46  2  0  0  0  0
 48 49  1  0  0  0  0
 50 48  1  0  0  0  0
 51 50  1  0  0  0  0
 52 54  1  0  0  0  0
 52 50  2  0  0  0  0
 53 52  1  0  0  0  0
 54 45  2  0  0  0  0
 55 54  1  0  0  0  0
 57  1  1  0  0  0  0
 58 15  1  0  0  0  0
 58  1  1  0  0  0  0
 59  1  1  0  0  0  0
 60  2  1  0  0  0  0
 61  6  1  0  0  0  0
 62 20  1  0  0  0  0
 62 63  1  0  0  0  0
 64 34  1  0  0  0  0
M  END
$$$$
