CSD_code = CALLEJ | q = 0 | S = 0 | Stoichiometry = C34H32Cl2N2O3PRe | MND = 6
 OpenBabel04212202013D

 75 80  0  0  0  0  0  0  0  0999 V2000
    3.7704   27.6999    3.4370 Re  0  0  0  0  0  0  0  0  0  0  0  0
    5.4446   30.1658    3.6369 C   0  0  0  0  0  0  0  0  0  0  0  0
    4.8261   30.6965    4.8053 C   0  0  0  0  0  0  0  0  0  0  0  0
    5.2600   31.9440    5.2798 C   0  0  0  0  0  0  0  0  0  0  0  0
    4.7952   32.3472    6.1683 H   0  0  0  0  0  0  0  0  0  0  0  0
    6.2417   32.6533    4.6453 C   0  0  0  0  0  0  0  0  0  0  0  0
    6.5705   33.6135    5.0073 H   0  0  0  0  0  0  0  0  0  0  0  0
    6.8507   32.1330    3.4886 C   0  0  0  0  0  0  0  0  0  0  0  0
    6.4577   30.9040    2.9990 C   0  0  0  0  0  0  0  0  0  0  0  0
    6.9011   30.4693    2.1173 H   0  0  0  0  0  0  0  0  0  0  0  0
    2.2695   28.3656    6.1523 C   0  0  0  0  0  0  0  0  0  0  0  0
    1.3785   28.0407    5.6091 H   0  0  0  0  0  0  0  0  0  0  0  0
    1.9948   29.1443    6.8732 H   0  0  0  0  0  0  0  0  0  0  0  0
    2.8529   27.1584    6.9299 C   0  0  0  0  0  0  0  0  0  0  0  0
    2.1689   26.9234    7.7510 H   0  0  0  0  0  0  0  0  0  0  0  0
    2.9156   26.2955    6.2577 H   0  0  0  0  0  0  0  0  0  0  0  0
    8.4581   32.4664    1.7708 C   0  0  0  0  0  0  0  0  0  0  0  0
    8.9957   31.5295    1.9472 H   0  0  0  0  0  0  0  0  0  0  0  0
    9.1691   33.2488    1.5101 H   0  0  0  0  0  0  0  0  0  0  0  0
    7.7497   32.3273    0.9482 H   0  0  0  0  0  0  0  0  0  0  0  0
    1.4268   25.7373    3.8936 C   0  0  0  0  0  0  0  0  0  0  0  0
    0.1598   26.2079    3.4914 C   0  0  0  0  0  0  0  0  0  0  0  0
    0.1021   27.1873    3.0397 H   0  0  0  0  0  0  0  0  0  0  0  0
   -0.9585   25.4273    3.6837 C   0  0  0  0  0  0  0  0  0  0  0  0
   -1.9255   25.7950    3.3742 H   0  0  0  0  0  0  0  0  0  0  0  0
   -0.8491   24.1743    4.2716 C   0  0  0  0  0  0  0  0  0  0  0  0
   -1.7299   23.5676    4.4172 H   0  0  0  0  0  0  0  0  0  0  0  0
    0.3920   23.7032    4.6751 C   0  0  0  0  0  0  0  0  0  0  0  0
    0.4743   22.7305    5.1367 H   0  0  0  0  0  0  0  0  0  0  0  0
    1.5239   24.4688    4.4947 C   0  0  0  0  0  0  0  0  0  0  0  0
    2.4931   24.1161    4.8132 H   0  0  0  0  0  0  0  0  0  0  0  0
    5.9357   27.7822    0.7118 C   0  0  0  0  0  0  0  0  0  0  0  0
    7.2477   27.6540    1.1614 C   0  0  0  0  0  0  0  0  0  0  0  0
    7.4933   26.8945    1.8916 H   0  0  0  0  0  0  0  0  0  0  0  0
    8.2257   28.5046    0.6782 C   0  0  0  0  0  0  0  0  0  0  0  0
    9.2455   28.3998    1.0196 H   0  0  0  0  0  0  0  0  0  0  0  0
    7.8972   29.4937   -0.2369 C   0  0  0  0  0  0  0  0  0  0  0  0
    8.6653   30.1514   -0.6183 H   0  0  0  0  0  0  0  0  0  0  0  0
    6.5820   29.6531   -0.6465 C   0  0  0  0  0  0  0  0  0  0  0  0
    6.3218   30.4431   -1.3359 H   0  0  0  0  0  0  0  0  0  0  0  0
    5.5981   28.8053   -0.1701 C   0  0  0  0  0  0  0  0  0  0  0  0
    4.5669   28.9352   -0.4686 H   0  0  0  0  0  0  0  0  0  0  0  0
    3.4996   26.4343   -0.0068 C   0  0  0  0  0  0  0  0  0  0  0  0
    3.8028   29.9993    5.5145 C   0  0  0  0  0  3  0  0  0  0  0  0
    3.4743   30.5019    6.4280 H   0  0  0  0  0  0  0  0  0  0  0  0
    2.1414   26.2941    0.2479 C   0  0  0  0  0  0  0  0  0  0  0  0
    1.7799   26.4211    1.2573 H   0  0  0  0  0  0  0  0  0  0  0  0
    1.2675   26.0258   -0.7904 C   0  0  0  0  0  0  0  0  0  0  0  0
    0.2113   25.9280   -0.5899 H   0  0  0  0  0  0  0  0  0  0  0  0
    1.7462   25.8899   -2.0825 C   0  0  0  0  0  0  0  0  0  0  0  0
    1.0640   25.6863   -2.8945 H   0  0  0  0  0  0  0  0  0  0  0  0
    3.1026   26.0183   -2.3369 C   0  0  0  0  0  0  0  0  0  0  0  0
    3.4767   25.9117   -3.3447 H   0  0  0  0  0  0  0  0  0  0  0  0
    3.9812   26.2854   -1.3038 C   0  0  0  0  0  0  0  0  0  0  0  0
    5.0380   26.3882   -1.5075 H   0  0  0  0  0  0  0  0  0  0  0  0
    5.3963   25.0576    1.5014 C   0  0  0  0  0  0  0  0  0  0  0  0
    4.8730   24.1775    2.4420 C   0  0  0  0  0  0  0  0  0  0  0  0
    4.0923   24.5278    3.1033 H   0  0  0  0  0  0  0  0  0  0  0  0
    5.3683   22.8904    2.5393 C   0  0  0  0  0  0  0  0  0  0  0  0
    4.9687   22.2132    3.2791 H   0  0  0  0  0  0  0  0  0  0  0  0
    6.3836   22.4745    1.6937 C   0  0  0  0  0  0  0  0  0  0  0  0
    6.7781   21.4724    1.7733 H   0  0  0  0  0  0  0  0  0  0  0  0
    6.8982   23.3453    0.7469 C   0  0  0  0  0  0  0  0  0  0  0  0
    7.6890   23.0205    0.0865 H   0  0  0  0  0  0  0  0  0  0  0  0
    6.4058   24.6337    0.6440 C   0  0  0  0  0  0  0  0  0  0  0  0
    6.8154   25.3083   -0.0950 H   0  0  0  0  0  0  0  0  0  0  0  0
    2.3630   29.1048    2.0961 Cl  0  0  0  0  0  0  0  0  0  0  0  0
    5.4173   26.5604    4.7799 Cl  0  0  0  0  0  0  0  0  0  0  0  0
    3.2347   28.8847    5.2125 N   0  0  0  0  0  0  0  0  0  0  0  0
    2.5038   26.5097    3.6970 N   0  0  0  0  0  2  0  0  0  0  0  0
    5.0884   29.0188    3.1790 O   0  0  0  0  0  0  0  0  0  0  0  0
    4.0997   27.4435    7.4908 O   0  0  0  0  0  0  0  0  0  0  0  0
    4.7729   27.2695    6.8074 H   0  0  0  0  0  0  0  0  0  0  0  0
    7.8095   32.9144    2.9364 O   0  0  0  0  0  0  0  0  0  0  0  0
    4.6421   26.7099    1.3822 P   0  0  0  0  0  4  0  0  0  0  0  0
  1 70  1  0  0  0  0
  1 68  1  0  0  0  0
  1 69  1  0  0  0  0
  2  3  1  0  0  0  0
  3  4  2  0  0  0  0
  3 44  1  0  0  0  0
  4  5  1  0  0  0  0
  6  7  1  0  0  0  0
  6  4  1  0  0  0  0
  8  6  2  0  0  0  0
  9  8  1  0  0  0  0
  9  2  2  0  0  0  0
 10  9  1  0  0  0  0
 11 13  1  0  0  0  0
 11 14  1  0  0  0  0
 12 11  1  0  0  0  0
 14 72  1  0  0  0  0
 14 15  1  0  0  0  0
 16 14  1  0  0  0  0
 17 18  1  0  0  0  0
 17 74  1  0  0  0  0
 19 17  1  0  0  0  0
 20 17  1  0  0  0  0
 21 30  1  0  0  0  0
 22 24  1  0  0  0  0
 22 21  2  0  0  0  0
 23 22  1  0  0  0  0
 24 26  2  0  0  0  0
 25 24  1  0  0  0  0
 26 27  1  0  0  0  0
 26 28  1  0  0  0  0
 28 29  1  0  0  0  0
 30 28  2  0  0  0  0
 30 31  1  0  0  0  0
 32 33  1  0  0  0  0
 32 75  1  0  0  0  0
 33 34  1  0  0  0  0
 35 36  1  0  0  0  0
 35 33  2  0  0  0  0
 37 35  1  0  0  0  0
 38 37  1  0  0  0  0
 39 37  2  0  0  0  0
 39 41  1  0  0  0  0
 40 39  1  0  0  0  0
 41 32  2  0  0  0  0
 42 41  1  0  0  0  0
 43 46  1  0  0  0  0
 43 75  1  0  0  0  0
 44 45  1  0  0  0  0
 46 47  1  0  0  0  0
 48 49  1  0  0  0  0
 48 46  2  0  0  0  0
 50 48  1  0  0  0  0
 51 50  1  0  0  0  0
 52 50  2  0  0  0  0
 52 54  1  0  0  0  0
 53 52  1  0  0  0  0
 54 43  2  0  0  0  0
 55 54  1  0  0  0  0
 56 57  1  0  0  0  0
 57 59  2  0  0  0  0
 57 58  1  0  0  0  0
 59 60  1  0  0  0  0
 61 62  1  0  0  0  0
 61 59  1  0  0  0  0
 63 61  2  0  0  0  0
 64 63  1  0  0  0  0
 65 63  1  0  0  0  0
 65 56  2  0  0  0  0
 66 65  1  0  0  0  0
 67  1  1  0  0  0  0
 69 44  1  0  0  0  0
 69 11  1  0  0  0  0
 70 21  1  0  0  0  0
 71  1  1  0  0  0  0
 71  2  1  0  0  0  0
 73 72  1  0  0  0  0
 74  8  1  0  0  0  0
 75 56  1  0  0  0  0
 75  1  1  0  0  0  0
M  END
$$$$
