CSD_code = CALNAE | q = 0 | S = 0 | Stoichiometry = C32H46Cl2P4W | MND = 8
 OpenBabel04212202013D

 85 86  0  0  0  0  0  0  0  0999 V2000
    1.9617    4.2023    5.7070 W   0  0  0  0  0  0  0  0  0  0  0  0
    0.5795    4.0804    6.6261 H   0  0  0  0  0  0  0  0  0  0  0  0
    0.6892    4.6995    4.7562 H   0  0  0  0  0  0  0  0  0  0  0  0
    3.7374    2.6916    4.7800 Cl  0  0  0  0  0  0  0  0  0  0  0  0
    4.0725    5.1518    6.6679 Cl  0  0  0  0  0  0  0  0  0  0  0  0
    0.9798    2.1093    4.8513 P   0  0  0  0  0  4  0  0  0  0  0  0
    0.8769    1.8939    3.0421 C   0  0  0  0  0  0  0  0  0  0  0  0
    1.7781    1.1024    2.3375 C   0  0  0  0  0  0  0  0  0  0  0  0
    1.6952    1.0066    0.9595 C   0  0  0  0  0  0  0  0  0  0  0  0
    0.7180    1.7021    0.2681 C   0  0  0  0  0  0  0  0  0  0  0  0
   -0.1727    2.5084    0.9609 C   0  0  0  0  0  0  0  0  0  0  0  0
   -0.0885    2.6088    2.3365 C   0  0  0  0  0  0  0  0  0  0  0  0
    1.5101    0.4154    5.3400 C   0  0  0  0  0  0  0  0  0  0  0  0
   -0.8016    1.9375    5.2857 C   0  0  0  0  0  0  0  0  0  0  0  0
    2.6946    3.0182    7.8048 P   0  0  0  0  0  0  0  0  0  0  0  0
    1.5171    1.8067    8.5308 C   0  0  0  0  0  0  0  0  0  0  0  0
    1.8015    0.4658    8.7655 C   0  0  0  0  0  0  0  0  0  0  0  0
    0.8494   -0.3673    9.3301 C   0  0  0  0  0  0  0  0  0  0  0  0
   -0.3978    0.1253    9.6706 C   0  0  0  0  0  0  0  0  0  0  0  0
   -0.6905    1.4609    9.4449 C   0  0  0  0  0  0  0  0  0  0  0  0
    0.2590    2.2905    8.8796 C   0  0  0  0  0  0  0  0  0  0  0  0
    2.9791    3.9213    9.3877 C   0  0  0  0  0  0  0  0  0  0  0  0
    4.2557    2.0508    7.7842 C   0  0  0  0  0  0  0  0  0  0  0  0
    1.5823    6.4880    6.5521 P   0  0  0  0  0  4  0  0  0  0  0  0
    1.4676    6.7107    8.3597 C   0  0  0  0  0  0  0  0  0  0  0  0
    0.3176    6.2717    9.0123 C   0  0  0  0  0  0  0  0  0  0  0  0
    0.2046    6.3751   10.3855 C   0  0  0  0  0  0  0  0  0  0  0  0
    1.2473    6.9074   11.1291 C   0  0  0  0  0  0  0  0  0  0  0  0
    2.4023    7.3257   10.4907 C   0  0  0  0  0  0  0  0  0  0  0  0
    2.5159    7.2261    9.1151 C   0  0  0  0  0  0  0  0  0  0  0  0
   -0.0585    7.1616    6.0564 C   0  0  0  0  0  0  0  0  0  0  0  0
    2.5913    7.9634    6.1124 C   0  0  0  0  0  0  0  0  0  0  0  0
    3.0364    5.1328    3.6302 P   0  0  0  0  0  0  0  0  0  0  0  0
    2.2570    6.6273    2.8959 C   0  0  0  0  0  0  0  0  0  0  0  0
    0.9217    6.5145    2.5176 C   0  0  0  0  0  0  0  0  0  0  0  0
    0.2513    7.5801    1.9479 C   0  0  0  0  0  0  0  0  0  0  0  0
    0.9072    8.7844    1.7475 C   0  0  0  0  0  0  0  0  0  0  0  0
    2.2348    8.9084    2.1168 C   0  0  0  0  0  0  0  0  0  0  0  0
    2.9068    7.8387    2.6855 C   0  0  0  0  0  0  0  0  0  0  0  0
    3.0814    4.1862    2.0480 C   0  0  0  0  0  0  0  0  0  0  0  0
    4.8057    5.6223    3.6785 C   0  0  0  0  0  0  0  0  0  0  0  0
    2.5520    0.5655    2.8646 H   0  0  0  0  0  0  0  0  0  0  0  0
    2.3974    0.3855    0.4220 H   0  0  0  0  0  0  0  0  0  0  0  0
    0.6526    1.6225   -0.8071 H   0  0  0  0  0  0  0  0  0  0  0  0
   -0.9311    3.0608    0.4241 H   0  0  0  0  0  0  0  0  0  0  0  0
   -0.7699    3.2511    2.8772 H   0  0  0  0  0  0  0  0  0  0  0  0
    2.5782    0.2806    5.1878 H   0  0  0  0  0  0  0  0  0  0  0  0
    1.2792    0.2730    6.3946 H   0  0  0  0  0  0  0  0  0  0  0  0
    0.9577   -0.3129    4.7456 H   0  0  0  0  0  0  0  0  0  0  0  0
   -0.8607    1.7132    6.3514 H   0  0  0  0  0  0  0  0  0  0  0  0
   -1.3129    2.8816    5.1079 H   0  0  0  0  0  0  0  0  0  0  0  0
   -1.2735    1.1386    4.7127 H   0  0  0  0  0  0  0  0  0  0  0  0
    2.7668    0.0561    8.5079 H   0  0  0  0  0  0  0  0  0  0  0  0
    1.0860   -1.4075    9.5044 H   0  0  0  0  0  0  0  0  0  0  0  0
   -1.1378   -0.5274   10.1102 H   0  0  0  0  0  0  0  0  0  0  0  0
   -1.6619    1.8536    9.7103 H   0  0  0  0  0  0  0  0  0  0  0  0
    0.0304    3.3307    8.6920 H   0  0  0  0  0  0  0  0  0  0  0  0
    2.0744    4.4451    9.6839 H   0  0  0  0  0  0  0  0  0  0  0  0
    3.7895    4.6371    9.2747 H   0  0  0  0  0  0  0  0  0  0  0  0
    3.2359    3.1929   10.1580 H   0  0  0  0  0  0  0  0  0  0  0  0
    4.1937    1.2339    7.0674 H   0  0  0  0  0  0  0  0  0  0  0  0
    4.4602    1.6652    8.7828 H   0  0  0  0  0  0  0  0  0  0  0  0
    5.0633    2.7158    7.4792 H   0  0  0  0  0  0  0  0  0  0  0  0
   -0.4863    5.8409    8.4312 H   0  0  0  0  0  0  0  0  0  0  0  0
   -0.6953    6.0384   10.8807 H   0  0  0  0  0  0  0  0  0  0  0  0
    1.1599    6.9893   12.2026 H   0  0  0  0  0  0  0  0  0  0  0  0
    3.2205    7.7318   11.0682 H   0  0  0  0  0  0  0  0  0  0  0  0
    3.4265    7.5431    8.6301 H   0  0  0  0  0  0  0  0  0  0  0  0
   -0.8230    6.4002    6.1978 H   0  0  0  0  0  0  0  0  0  0  0  0
   -0.3068    8.0567    6.6277 H   0  0  0  0  0  0  0  0  0  0  0  0
   -0.0094    7.4027    4.9939 H   0  0  0  0  0  0  0  0  0  0  0  0
    3.6455    7.7904    6.3145 H   0  0  0  0  0  0  0  0  0  0  0  0
    2.4602    8.1656    5.0504 H   0  0  0  0  0  0  0  0  0  0  0  0
    2.2390    8.8177    6.6911 H   0  0  0  0  0  0  0  0  0  0  0  0
    0.4095    5.5770    2.6864 H   0  0  0  0  0  0  0  0  0  0  0  0
   -0.7850    7.4747    1.6598 H   0  0  0  0  0  0  0  0  0  0  0  0
    0.3863    9.6208    1.3052 H   0  0  0  0  0  0  0  0  0  0  0  0
    2.7540    9.8438    1.9621 H   0  0  0  0  0  0  0  0  0  0  0  0
    3.9426    7.9615    2.9648 H   0  0  0  0  0  0  0  0  0  0  0  0
    2.0717    3.9290    1.7399 H   0  0  0  0  0  0  0  0  0  0  0  0
    3.6635    3.2760    2.1690 H   0  0  0  0  0  0  0  0  0  0  0  0
    3.5371    4.8160    1.2828 H   0  0  0  0  0  0  0  0  0  0  0  0
    4.9662    6.4191    4.4026 H   0  0  0  0  0  0  0  0  0  0  0  0
    5.3888    4.7547    3.9864 H   0  0  0  0  0  0  0  0  0  0  0  0
    5.1241    5.9407    2.6860 H   0  0  0  0  0  0  0  0  0  0  0  0
  1 24  1  0  0  0  0
  1  2  1  0  0  0  0
  1  5  1  0  0  0  0
  3  1  1  0  0  0  0
  4  1  1  0  0  0  0
  6 14  1  0  0  0  0
  6 13  1  0  0  0  0
  6  1  1  0  0  0  0
  7  6  1  0  0  0  0
  8 42  1  0  0  0  0
  8  7  1  0  0  0  0
  9  8  2  0  0  0  0
 10  9  1  0  0  0  0
 10 11  2  0  0  0  0
 11 12  1  0  0  0  0
 12 46  1  0  0  0  0
 12  7  2  0  0  0  0
 13 48  1  0  0  0  0
 14 50  1  0  0  0  0
 15 16  1  0  0  0  0
 15 22  1  0  0  0  0
 16 17  2  0  0  0  0
 16 21  1  0  0  0  0
 17 18  1  0  0  0  0
 18 54  1  0  0  0  0
 18 19  2  0  0  0  0
 19 55  1  0  0  0  0
 20 19  1  0  0  0  0
 20 56  1  0  0  0  0
 21 20  2  0  0  0  0
 22 58  1  0  0  0  0
 22 60  1  0  0  0  0
 23 15  1  0  0  0  0
 23 62  1  0  0  0  0
 24 25  1  0  0  0  0
 25 26  2  0  0  0  0
 25 30  1  0  0  0  0
 26 27  1  0  0  0  0
 27 65  1  0  0  0  0
 27 28  2  0  0  0  0
 28 66  1  0  0  0  0
 29 67  1  0  0  0  0
 29 28  1  0  0  0  0
 30 29  2  0  0  0  0
 31 69  1  0  0  0  0
 31 24  1  0  0  0  0
 31 70  1  0  0  0  0
 32 72  1  0  0  0  0
 32 24  1  0  0  0  0
 32 74  1  0  0  0  0
 33 41  1  0  0  0  0
 34 33  1  0  0  0  0
 35 75  1  0  0  0  0
 35 34  2  0  0  0  0
 36 35  1  0  0  0  0
 37 36  2  0  0  0  0
 37 38  1  0  0  0  0
 38 39  2  0  0  0  0
 39 34  1  0  0  0  0
 39 79  1  0  0  0  0
 40 81  1  0  0  0  0
 40 33  1  0  0  0  0
 41 84  1  0  0  0  0
 41 83  1  0  0  0  0
 43  9  1  0  0  0  0
 44 10  1  0  0  0  0
 45 11  1  0  0  0  0
 47 13  1  0  0  0  0
 49 13  1  0  0  0  0
 51 14  1  0  0  0  0
 52 14  1  0  0  0  0
 53 17  1  0  0  0  0
 57 21  1  0  0  0  0
 59 22  1  0  0  0  0
 61 23  1  0  0  0  0
 63 23  1  0  0  0  0
 64 26  1  0  0  0  0
 68 30  1  0  0  0  0
 71 31  1  0  0  0  0
 73 32  1  0  0  0  0
 76 36  1  0  0  0  0
 77 37  1  0  0  0  0
 78 38  1  0  0  0  0
 80 40  1  0  0  0  0
 82 40  1  0  0  0  0
 85 41  1  0  0  0  0
M  END
$$$$
