CSD_code = CALROX | q = 0 | S = 0 | Stoichiometry = C11H21Cl2NPdS | MND = 4
 OpenBabel04212202013D

 37 38  0  0  1  0  0  0  0  0999 V2000
    0.4652    3.3553    5.0645 Pd  0  0  2  0  0  0  0  0  0  0  0  0
    1.5831    4.3980    3.3037 Cl  0  0  0  0  0  0  0  0  0  0  0  0
   -2.7356    0.7522    6.9234 Cl  0  0  0  0  0  0  0  0  0  0  0  0
    2.0386    3.6687    6.6939 S   0  0  2  0  0  3  0  0  0  0  0  0
    1.0582    3.0532    8.1351 C   0  0  0  0  0  0  0  0  0  0  0  0
    1.7679    2.7819    8.9167 H   0  0  0  0  0  0  0  0  0  0  0  0
    0.4230    3.8678    8.4770 H   0  0  0  0  0  0  0  0  0  0  0  0
    0.1963    1.8810    7.6915 C   0  0  0  0  0  0  0  0  0  0  0  0
    0.8309    1.0077    7.5017 H   0  0  0  0  0  0  0  0  0  0  0  0
   -0.5191    1.6164    8.4775 H   0  0  0  0  0  0  0  0  0  0  0  0
   -0.5016    2.2577    6.4171 C   0  0  0  0  0  0  0  0  0  0  0  0
   -1.6763    1.8279    6.0004 C   0  0  2  0  0  3  0  0  0  0  0  0
   -2.2384    2.2697    4.6763 C   0  0  0  0  0  0  0  0  0  0  0  0
   -2.7781    1.4509    4.1794 H   0  0  0  0  0  0  0  0  0  0  0  0
   -2.9508    3.0868    4.8402 H   0  0  0  0  0  0  0  0  0  0  0  0
   -1.1340    2.7572    3.8270 N   0  0  0  0  0  4  0  0  0  0  0  0
   -0.5098    1.6355    3.1165 C   0  0  0  0  0  0  0  0  0  0  0  0
   -1.2198    1.1748    2.4157 H   0  0  0  0  0  0  0  0  0  0  0  0
   -0.1790    0.8805    3.8392 H   0  0  0  0  0  0  0  0  0  0  0  0
    0.3559    2.0001    2.5544 H   0  0  0  0  0  0  0  0  0  0  0  0
   -1.6102    3.7508    2.8700 C   0  0  0  0  0  0  0  0  0  0  0  0
   -2.3697    3.3248    2.2024 H   0  0  0  0  0  0  0  0  0  0  0  0
   -0.7683    4.1093    2.2760 H   0  0  0  0  0  0  0  0  0  0  0  0
   -2.0379    4.6000    3.4060 H   0  0  0  0  0  0  0  0  0  0  0  0
    1.9798    5.5262    6.9112 C   0  0  0  0  0  0  0  0  0  0  0  0
    0.5856    6.0243    6.5401 C   0  0  0  0  0  0  0  0  0  0  0  0
   -0.1883    5.5513    7.1510 H   0  0  0  0  0  0  0  0  0  0  0  0
    0.3881    5.8192    5.4734 H   0  0  0  0  0  0  0  0  0  0  0  0
    0.5269    7.1009    6.6955 H   0  0  0  0  0  0  0  0  0  0  0  0
    2.3595    5.8793    8.3436 C   0  0  0  0  0  0  0  0  0  0  0  0
    2.5188    6.9535    8.4164 H   0  0  0  0  0  0  0  0  0  0  0  0
    3.2834    5.3803    8.6264 H   0  0  0  0  0  0  0  0  0  0  0  0
    1.5845    5.6090    9.0564 H   0  0  0  0  0  0  0  0  0  0  0  0
    3.0252    6.0641    5.9414 C   0  0  0  0  0  0  0  0  0  0  0  0
    2.8115    5.7277    4.9276 H   0  0  0  0  0  0  0  0  0  0  0  0
    4.0184    5.7184    6.2184 H   0  0  0  0  0  0  0  0  0  0  0  0
    3.0177    7.1518    5.9520 H   0  0  0  0  0  0  0  0  0  0  0  0
  1  2  1  6  0  0  0
  1 11  2  0  0  0  0
  1  4  1  0  0  0  0
  4 25  1  1  0  0  0
  4  5  1  0  0  0  0
  5  7  1  0  0  0  0
  5  6  1  0  0  0  0
  8  5  1  0  0  0  0
  8 10  1  0  0  0  0
  9  8  1  0  0  0  0
 11  8  1  0  0  0  0
 12 11  1  0  0  0  0
 12  3  1  1  0  0  0
 13 15  1  0  0  0  0
 13 12  1  0  0  0  0
 14 13  1  0  0  0  0
 16 13  1  0  0  0  0
 16  1  1  0  0  0  0
 17 16  1  0  0  0  0
 17 19  1  0  0  0  0
 18 17  1  0  0  0  0
 20 17  1  0  0  0  0
 21 24  1  0  0  0  0
 21 16  1  0  0  0  0
 22 21  1  0  0  0  0
 23 21  1  0  0  0  0
 25 30  1  0  0  0  0
 26 29  1  0  0  0  0
 26 25  1  0  0  0  0
 26 27  1  0  0  0  0
 28 26  1  0  0  0  0
 30 31  1  0  0  0  0
 30 32  1  0  0  0  0
 30 33  1  0  0  0  0
 34 37  1  0  0  0  0
 34 36  1  0  0  0  0
 34 25  1  0  0  0  0
 35 34  1  0  0  0  0
M  END
$$$$
