CSD_code = CALRUD | q = 0 | S = 0 | Stoichiometry = C12H15Cl2NPdS | MND = 4
 OpenBabel04212202013D

 32 34  0  0  1  0  0  0  0  0999 V2000
    3.5527    0.9305    7.8902 Pd  0  0  2  0  0  0  0  0  0  0  0  0
    3.5777    2.6280    9.4648 Cl  0  0  0  0  0  0  0  0  0  0  0  0
    4.0465   -0.9804    3.8081 Cl  0  0  0  0  0  0  0  0  0  0  0  0
    3.0670   -0.6511    9.4226 S   0  0  1  0  0  3  0  0  0  0  0  0
    3.3657   -2.0982    8.3886 C   0  0  0  0  0  0  0  0  0  0  0  0
    3.6723   -1.9175    7.0325 C   0  0  0  0  0  0  0  0  0  0  0  0
    3.9450   -3.0676    6.2847 C   0  0  0  0  0  0  0  0  0  0  0  0
    4.2061   -2.9778    5.2441 H   0  0  0  0  0  0  0  0  0  0  0  0
    3.8863   -4.3203    6.8652 C   0  0  0  0  0  0  0  0  0  0  0  0
    4.0992   -5.1925    6.2650 H   0  0  0  0  0  0  0  0  0  0  0  0
    3.5524   -4.4715    8.2022 C   0  0  0  0  0  0  0  0  0  0  0  0
    3.5002   -5.4543    8.6449 H   0  0  0  0  0  0  0  0  0  0  0  0
    3.2879   -3.3497    8.9691 C   0  0  0  0  0  0  0  0  0  0  0  0
    3.0264   -3.4410   10.0129 H   0  0  0  0  0  0  0  0  0  0  0  0
    3.6944   -0.5445    6.5387 C   0  0  0  0  0  0  0  0  0  0  0  0
    3.8639   -0.0690    5.3088 C   0  0  2  0  0  3  0  0  0  0  0  0
    3.8319    1.4168    5.0550 C   0  0  0  0  0  0  0  0  0  0  0  0
    2.8312    1.6867    4.6957 H   0  0  0  0  0  0  0  0  0  0  0  0
    4.5540    1.7020    4.2758 H   0  0  0  0  0  0  0  0  0  0  0  0
    4.1011    2.1500    6.3073 N   0  0  0  0  0  4  0  0  0  0  0  0
    3.4351    3.4509    6.3028 C   0  0  0  0  0  0  0  0  0  0  0  0
    3.7689    4.0609    5.4539 H   0  0  0  0  0  0  0  0  0  0  0  0
    3.6616    3.9720    7.2343 H   0  0  0  0  0  0  0  0  0  0  0  0
    2.3534    3.3060    6.2456 H   0  0  0  0  0  0  0  0  0  0  0  0
    5.5420    2.3222    6.5042 C   0  0  0  0  0  0  0  0  0  0  0  0
    5.9674    2.9767    5.7316 H   0  0  0  0  0  0  0  0  0  0  0  0
    6.0384    1.3478    6.4556 H   0  0  0  0  0  0  0  0  0  0  0  0
    5.7183    2.7702    7.4870 H   0  0  0  0  0  0  0  0  0  0  0  0
    4.7295   -0.5237   10.1803 C   0  0  0  0  0  0  0  0  0  0  0  0
    4.8845   -1.3692   10.8452 H   0  0  0  0  0  0  0  0  0  0  0  0
    4.7352    0.4109   10.7404 H   0  0  0  0  0  0  0  0  0  0  0  0
    5.4918   -0.5017    9.3958 H   0  0  0  0  0  0  0  0  0  0  0  0
  1  4  1  0  0  0  0
  1  2  1  1  0  0  0
  4 29  1  1  0  0  0
  5 13  1  0  0  0  0
  5  4  1  0  0  0  0
  6  5  2  0  0  0  0
  7  9  2  0  0  0  0
  7  6  1  0  0  0  0
  8  7  1  0  0  0  0
  9 11  1  0  0  0  0
 10  9  1  0  0  0  0
 11 12  1  0  0  0  0
 11 13  2  0  0  0  0
 13 14  1  0  0  0  0
 15  6  1  0  0  0  0
 15  1  2  0  0  0  0
 16  3  1  6  0  0  0
 16 15  1  0  0  0  0
 17 16  1  0  0  0  0
 17 20  1  0  0  0  0
 18 17  1  0  0  0  0
 19 17  1  0  0  0  0
 20 25  1  0  0  0  0
 20  1  1  0  0  0  0
 21 20  1  0  0  0  0
 21 23  1  0  0  0  0
 22 21  1  0  0  0  0
 24 21  1  0  0  0  0
 25 28  1  0  0  0  0
 26 25  1  0  0  0  0
 27 25  1  0  0  0  0
 29 31  1  0  0  0  0
 29 30  1  0  0  0  0
 32 29  1  0  0  0  0
M  END
$$$$
