CSD_code = CAMCOJ | q = 0 | S = 0 | Stoichiometry = C45H32ClO2P2Rh | MND = 4
 OpenBabel04212202013D

 83 91  0  0  0  0  0  0  0  0999 V2000
    1.1488    0.8371    3.3183 Rh  0  0  2  0  0  0  0  0  0  0  0  0
    1.2047   -1.3996    3.0234 Cl  0  0  0  0  0  0  0  0  0  0  0  0
    3.9220    0.4596    3.6340 P   0  0  0  0  0  4  0  0  0  0  0  0
    1.3320    3.0464    3.7609 P   0  0  0  0  0  4  0  0  0  0  0  0
    2.8572    0.6382    4.6599 O   0  0  0  0  0  0  0  0  0  0  0  0
   -1.4292    0.8585    1.8597 O   0  0  0  0  0  1  0  0  0  0  0  0
    3.5780    1.3425    2.0612 C   0  0  0  0  0  0  0  0  0  0  0  0
    3.1387    0.6235    0.9263 C   0  0  0  0  0  0  0  0  0  0  0  0
    3.0248   -0.4503    0.9940 H   0  0  0  0  0  0  0  0  0  0  0  0
    2.8453    1.2867   -0.2304 C   0  0  0  0  0  0  0  0  0  0  0  0
    2.4888    0.7439   -1.0935 H   0  0  0  0  0  0  0  0  0  0  0  0
    3.0003    2.6879   -0.3260 C   0  0  0  0  0  0  0  0  0  0  0  0
    2.7171    3.3852   -1.5169 C   0  0  0  0  0  0  0  0  0  0  0  0
    2.3744    2.8239   -2.3741 H   0  0  0  0  0  0  0  0  0  0  0  0
    2.8718    4.7417   -1.5890 C   0  0  0  0  0  0  0  0  0  0  0  0
    2.6515    5.2685   -2.5056 H   0  0  0  0  0  0  0  0  0  0  0  0
    3.3216    5.4600   -0.4720 C   0  0  0  0  0  0  0  0  0  0  0  0
    3.4459    6.5303   -0.5433 H   0  0  0  0  0  0  0  0  0  0  0  0
    3.5995    4.8158    0.7006 C   0  0  0  0  0  0  0  0  0  0  0  0
    3.9449    5.3719    1.5593 H   0  0  0  0  0  0  0  0  0  0  0  0
    3.4434    3.4177    0.8085 C   0  0  0  0  0  0  0  0  0  0  0  0
    3.7042    2.7199    2.0169 C   0  0  0  0  0  0  0  0  0  0  0  0
    3.0267    3.5942    4.2122 C   0  0  0  0  0  0  0  0  0  0  0  0
    3.3147    4.2095    5.4445 C   0  0  0  0  0  0  0  0  0  0  0  0
    2.5333    4.2853    6.1879 H   0  0  0  0  0  0  0  0  0  0  0  0
    4.5625    4.7031    5.6987 C   0  0  0  0  0  0  0  0  0  0  0  0
    4.7820    5.1686    6.6492 H   0  0  0  0  0  0  0  0  0  0  0  0
    5.5796    4.6418    4.7240 C   0  0  0  0  0  0  0  0  0  0  0  0
    6.8572    5.1966    4.9430 C   0  0  0  0  0  0  0  0  0  0  0  0
    7.0570    5.6733    5.8920 H   0  0  0  0  0  0  0  0  0  0  0  0
    7.8197    5.1398    3.9754 C   0  0  0  0  0  0  0  0  0  0  0  0
    8.7942    5.5720    4.1483 H   0  0  0  0  0  0  0  0  0  0  0  0
    7.5492    4.5191    2.7464 C   0  0  0  0  0  0  0  0  0  0  0  0
    8.3180    4.4862    1.9886 H   0  0  0  0  0  0  0  0  0  0  0  0
    6.3275    3.9561    2.5089 C   0  0  0  0  0  0  0  0  0  0  0  0
    6.1201    3.4762    1.5637 H   0  0  0  0  0  0  0  0  0  0  0  0
    5.3092    4.0057    3.4850 C   0  0  0  0  0  0  0  0  0  0  0  0
    4.0256    3.4455    3.2648 C   0  0  0  0  0  0  0  0  0  0  0  0
    4.3463   -1.2667    3.2764 C   0  0  0  0  0  0  0  0  0  0  0  0
    3.9947   -2.1998    4.2430 C   0  0  0  0  0  0  0  0  0  0  0  0
    3.4109   -1.8779    5.0936 H   0  0  0  0  0  0  0  0  0  0  0  0
    4.3548   -3.5241    4.0865 C   0  0  0  0  0  0  0  0  0  0  0  0
    4.0659   -4.2538    4.8280 H   0  0  0  0  0  0  0  0  0  0  0  0
    5.0786   -3.9151    2.9713 C   0  0  0  0  0  0  0  0  0  0  0  0
    5.3531   -4.9518    2.8422 H   0  0  0  0  0  0  0  0  0  0  0  0
    5.4490   -2.9806    2.0186 C   0  0  0  0  0  0  0  0  0  0  0  0
    6.0142   -3.2877    1.1505 H   0  0  0  0  0  0  0  0  0  0  0  0
    5.0917   -1.6527    2.1706 C   0  0  0  0  0  0  0  0  0  0  0  0
    5.3770   -0.9267    1.4218 H   0  0  0  0  0  0  0  0  0  0  0  0
    5.4858    1.0733    4.3242 C   0  0  0  0  0  0  0  0  0  0  0  0
    6.6619    1.0904    3.5878 C   0  0  0  0  0  0  0  0  0  0  0  0
    6.6522    0.7837    2.5519 H   0  0  0  0  0  0  0  0  0  0  0  0
    7.8370    1.5081    4.1826 C   0  0  0  0  0  0  0  0  0  0  0  0
    8.7530    1.5280    3.6108 H   0  0  0  0  0  0  0  0  0  0  0  0
    7.8420    1.9025    5.5112 C   0  0  0  0  0  0  0  0  0  0  0  0
    8.7626    2.2305    5.9707 H   0  0  0  0  0  0  0  0  0  0  0  0
    6.6719    1.8713    6.2508 C   0  0  0  0  0  0  0  0  0  0  0  0
    6.6779    2.1721    7.2881 H   0  0  0  0  0  0  0  0  0  0  0  0
    5.4948    1.4528    5.6587 C   0  0  0  0  0  0  0  0  0  0  0  0
    4.5700    1.4219    6.2169 H   0  0  0  0  0  0  0  0  0  0  0  0
    0.3528    3.4710    5.2401 C   0  0  0  0  0  0  0  0  0  0  0  0
   -0.2761    4.6872    5.4797 C   0  0  0  0  0  0  0  0  0  0  0  0
   -0.2048    5.4902    4.7608 H   0  0  0  0  0  0  0  0  0  0  0  0
   -1.0138    4.8648    6.6381 C   0  0  0  0  0  0  0  0  0  0  0  0
   -1.5044    5.8104    6.8184 H   0  0  0  0  0  0  0  0  0  0  0  0
   -1.1304    3.8379    7.5597 C   0  0  0  0  0  0  0  0  0  0  0  0
   -1.7069    3.9853    8.4611 H   0  0  0  0  0  0  0  0  0  0  0  0
   -0.5225    2.6158    7.3161 C   0  0  0  0  0  0  0  0  0  0  0  0
   -0.6277    1.8080    8.0252 H   0  0  0  0  0  0  0  0  0  0  0  0
    0.2059    2.4298    6.1572 C   0  0  0  0  0  0  0  0  0  0  0  0
    0.6641    1.4662    5.9391 H   0  0  0  0  0  0  0  0  0  0  0  0
    0.9477    4.3805    2.5745 C   0  0  0  0  0  0  0  0  0  0  0  0
    0.2785    4.0702    1.3979 C   0  0  0  0  0  0  0  0  0  0  0  0
    0.0143    3.0403    1.2010 H   0  0  0  0  0  0  0  0  0  0  0  0
   -0.0281    5.0630    0.4852 C   0  0  0  0  0  0  0  0  0  0  0  0
   -0.5452    4.8123   -0.4289 H   0  0  0  0  0  0  0  0  0  0  0  0
    0.3302    6.3750    0.7437 C   0  0  0  0  0  0  0  0  0  0  0  0
    0.0875    7.1521    0.0341 H   0  0  0  0  0  0  0  0  0  0  0  0
    1.0108    6.6899    1.9086 C   0  0  0  0  0  0  0  0  0  0  0  0
    1.3016    7.7118    2.1060 H   0  0  0  0  0  0  0  0  0  0  0  0
    1.3275    5.6980    2.8180 C   0  0  0  0  0  0  0  0  0  0  0  0
    1.8825    5.9432    3.7139 H   0  0  0  0  0  0  0  0  0  0  0  0
   -0.4113    0.8936    2.3917 C   0  0  0  0  0  2  0  0  0  0  0  0
  1  2  1  6  0  0  0
  1  4  1  0  0  0  0
  1  5  1  0  0  0  0
  3 50  1  0  0  0  0
  3  5  1  0  0  0  0
  4 23  1  0  0  0  0
  4 61  1  0  0  0  0
  6 83  1  0  0  0  0
  7  3  1  0  0  0  0
  8  9  1  0  0  0  0
  8  7  2  0  0  0  0
 10  8  1  0  0  0  0
 11 10  1  0  0  0  0
 12 10  2  0  0  0  0
 12 21  1  0  0  0  0
 13 12  1  0  0  0  0
 14 13  1  0  0  0  0
 15 13  2  0  0  0  0
 15 17  1  0  0  0  0
 16 15  1  0  0  0  0
 17 19  2  0  0  0  0
 18 17  1  0  0  0  0
 19 21  1  0  0  0  0
 19 20  1  0  0  0  0
 21 22  2  0  0  0  0
 22  7  1  0  0  0  0
 22 38  1  0  0  0  0
 23 24  1  0  0  0  0
 24 26  2  0  0  0  0
 24 25  1  0  0  0  0
 26 27  1  0  0  0  0
 28 29  1  0  0  0  0
 28 26  1  0  0  0  0
 29 30  1  0  0  0  0
 31 32  1  0  0  0  0
 31 29  2  0  0  0  0
 33 31  1  0  0  0  0
 34 33  1  0  0  0  0
 35 33  2  0  0  0  0
 35 37  1  0  0  0  0
 36 35  1  0  0  0  0
 37 28  2  0  0  0  0
 38 37  1  0  0  0  0
 38 23  2  0  0  0  0
 39  3  1  0  0  0  0
 39 40  1  0  0  0  0
 40 41  1  0  0  0  0
 42 40  2  0  0  0  0
 42 43  1  0  0  0  0
 44 42  1  0  0  0  0
 45 44  1  0  0  0  0
 46 48  1  0  0  0  0
 46 44  2  0  0  0  0
 47 46  1  0  0  0  0
 48 39  2  0  0  0  0
 49 48  1  0  0  0  0
 50 59  1  0  0  0  0
 51 53  1  0  0  0  0
 51 50  2  0  0  0  0
 52 51  1  0  0  0  0
 53 55  2  0  0  0  0
 54 53  1  0  0  0  0
 55 56  1  0  0  0  0
 55 57  1  0  0  0  0
 57 58  1  0  0  0  0
 59 60  1  0  0  0  0
 59 57  2  0  0  0  0
 61 62  2  0  0  0  0
 61 70  1  0  0  0  0
 62 64  1  0  0  0  0
 63 62  1  0  0  0  0
 64 65  1  0  0  0  0
 64 66  2  0  0  0  0
 66 67  1  0  0  0  0
 68 66  1  0  0  0  0
 68 69  1  0  0  0  0
 70 68  2  0  0  0  0
 71 70  1  0  0  0  0
 72 81  1  0  0  0  0
 72  4  1  0  0  0  0
 73 72  2  0  0  0  0
 74 73  1  0  0  0  0
 75 77  2  0  0  0  0
 75 73  1  0  0  0  0
 76 75  1  0  0  0  0
 77 79  1  0  0  0  0
 78 77  1  0  0  0  0
 79 80  1  0  0  0  0
 79 81  2  0  0  0  0
 81 82  1  0  0  0  0
 83  1  1  0  0  0  0
M  END
$$$$
