CSD_code = CAMCOL | q = 1 | S = 0 | Stoichiometry = C14H16ClN2PdS2(1+) | MND = 5
 OpenBabel04212202013D

 36 40  0  0  1  0  0  0  0  0999 V2000
    4.6901    2.6540    0.9515 Pd  0  0  0  0  0  0  0  0  0  0  0  0
    6.3172    3.8599   -0.0573 Cl  0  0  0  0  0  0  0  0  0  0  0  0
    2.9671    1.3857    2.0002 S   0  0  2  0  0  3  0  0  0  0  0  0
    2.9704    4.8153    1.7328 S   0  0  1  0  0  3  0  0  0  0  0  0
    3.8817    1.9744   -0.7544 N   0  0  0  0  0  0  0  0  0  0  0  0
    5.5472    3.2033    2.6473 N   0  0  0  0  0  0  0  0  0  0  0  0
    4.5822    1.8368   -1.8803 C   0  0  0  0  0  3  0  0  0  0  0  0
    5.5976    2.2171   -1.8687 H   0  0  0  0  0  0  0  0  0  0  0  0
    4.0479    1.2548   -3.0177 C   0  0  0  0  0  0  0  0  0  0  0  0
    4.6496    1.1673   -3.9072 H   0  0  0  0  0  0  0  0  0  0  0  0
    2.7433    0.7900   -2.9832 C   0  0  0  0  0  0  0  0  0  0  0  0
    2.2958    0.3266   -3.8481 H   0  0  0  0  0  0  0  0  0  0  0  0
    2.0204    0.9261   -1.8084 C   0  0  0  0  0  0  0  0  0  0  0  0
    1.0035    0.5736   -1.7425 H   0  0  0  0  0  0  0  0  0  0  0  0
    2.6162    1.5278   -0.7086 C   0  0  0  0  0  0  0  0  0  0  0  0
    1.8556    1.7226    0.5702 C   0  0  0  0  0  0  0  0  0  0  0  0
    1.5307    2.7636    0.6444 H   0  0  0  0  0  0  0  0  0  0  0  0
    0.9941    1.0575    0.6296 H   0  0  0  0  0  0  0  0  0  0  0  0
    2.3442    2.4993    3.3256 C   0  0  0  0  0  0  0  0  0  0  0  0
    1.4881    1.9910    3.7724 H   0  0  0  0  0  0  0  0  0  0  0  0
    3.1606    2.4961    4.0510 H   0  0  0  0  0  0  0  0  0  0  0  0
    1.9391    3.9223    2.9598 C   0  0  0  0  0  0  0  0  0  0  0  0
    1.9182    4.5247    3.8679 H   0  0  0  0  0  0  0  0  0  0  0  0
    0.9399    3.9383    2.5237 H   0  0  0  0  0  0  0  0  0  0  0  0
    4.4004    5.3779    2.7166 C   0  0  0  0  0  0  0  0  0  0  0  0
    4.9741    5.9581    1.9844 H   0  0  0  0  0  0  0  0  0  0  0  0
    4.0318    6.0533    3.4893 H   0  0  0  0  0  0  0  0  0  0  0  0
    5.3066    4.3380    3.3071 C   0  0  2  0  0  3  0  0  0  0  0  0
    5.9501    4.6072    4.5139 C   0  0  0  0  0  0  0  0  0  0  0  0
    5.7405    5.5266    5.0371 H   0  0  0  0  0  0  0  0  0  0  0  0
    6.8698    3.7043    5.0150 C   0  0  0  0  0  0  0  0  0  0  0  0
    7.3833    3.9055    5.9418 H   0  0  0  0  0  0  0  0  0  0  0  0
    7.1279    2.5433    4.2978 C   0  0  0  0  0  0  0  0  0  0  0  0
    7.8488    1.8213    4.6438 H   0  0  0  0  0  0  0  0  0  0  0  0
    6.4404    2.3295    3.1189 C   0  0  0  0  0  0  0  0  0  0  0  0
    6.6111    1.4355    2.5176 H   0  0  0  0  0  0  0  0  0  0  0  0
  1  4  1  0  0  0  0
  1  3  1  0  0  0  0
  1  6  1  0  0  0  0
  2  1  1  0  0  0  0
  3 16  1  6  0  0  0
  3 19  1  0  0  0  0
  4 25  1  1  0  0  0
  4 22  1  0  0  0  0
  5 15  1  0  0  0  0
  5  1  1  0  0  0  0
  6 35  1  0  0  0  0
  6 28  1  0  0  0  0
  7  8  1  0  0  0  0
  7  5  1  0  0  0  0
  9 11  2  0  0  0  0
  9  7  1  0  0  0  0
 10  9  1  0  0  0  0
 11 13  1  0  0  0  0
 12 11  1  0  0  0  0
 13 14  1  0  0  0  0
 13 15  2  0  0  0  0
 15 16  1  0  0  0  0
 16 18  1  0  0  0  0
 16 17  1  0  0  0  0
 19 20  1  0  0  0  0
 19 21  1  0  0  0  0
 22 19  1  0  0  0  0
 22 23  1  0  0  0  0
 24 22  1  0  0  0  0
 25 28  1  0  0  0  0
 25 27  1  0  0  0  0
 26 25  1  0  0  0  0
 28 29  1  6  0  0  0
 29 31  2  0  0  0  0
 29 30  1  0  0  0  0
 31 32  1  0  0  0  0
 33 34  1  0  0  0  0
 33 31  1  0  0  0  0
 35 33  2  0  0  0  0
 36 35  1  0  0  0  0
M  END
$$$$
