CSD_code = CAMDEA | q = 0 | S = 0 | Stoichiometry = C36H38Cl2MoO2S | MND = 7
 OpenBabel04212202013D

 80 82  0  0  0  0  0  0  0  0999 V2000
    0.9027    0.9851    8.8493 Mo  0  0  0  0  0  0  0  0  0  0  0  0
    0.2773   -0.9900   10.1099 Cl  0  0  0  0  0 15  0  0  0  0  0  0
    1.8540    1.8331   10.6097 Cl  0  0  0  0  0 15  0  0  0  0  0  0
   -1.4972    1.9455    9.7775 S   0  0  0  0  0  0  0  0  0  0  0  0
   -0.3368    0.4967    7.7037 O   0  0  0  0  0  0  0  0  0  0  0  0
    0.8265    2.8500    8.0611 O   0  0  0  0  0  0  0  0  0  0  0  0
    2.4886   -0.2547    8.2325 C   0  0  0  0  0  0  0  0  0  0  0  0
    2.5690    0.8585    7.5636 C   0  0  0  0  0  3  0  0  0  0  0  0
    3.4574    1.5683    6.6790 C   0  0  0  0  0  0  0  0  0  0  0  0
    3.2967    1.5390    5.2944 C   0  0  0  0  0  0  0  0  0  0  0  0
    4.1672    2.2366    4.4782 C   0  0  0  0  0  0  0  0  0  0  0  0
    5.2052    2.9707    5.0273 C   0  0  0  0  0  0  0  0  0  0  0  0
    5.3734    3.0011    6.4026 C   0  0  0  0  0  0  0  0  0  0  0  0
    4.5084    2.3073    7.2259 C   0  0  0  0  0  0  0  0  0  0  0  0
    3.1611   -1.5176    8.3789 C   0  0  0  0  0  0  0  0  0  0  0  0
    3.4427   -2.0231    9.6491 C   0  0  0  0  0  0  0  0  0  0  0  0
    4.0890   -3.2367    9.7836 C   0  0  0  0  0  0  0  0  0  0  0  0
    4.4494   -3.9643    8.6606 C   0  0  0  0  0  0  0  0  0  0  0  0
    4.1695   -3.4698    7.3963 C   0  0  0  0  0  0  0  0  0  0  0  0
    3.5338   -2.2525    7.2505 C   0  0  0  0  0  0  0  0  0  0  0  0
   -0.0349    3.8035    8.3283 C   0  0  0  0  0  0  0  0  0  0  0  0
   -1.2063    3.5704    9.0651 C   0  0  0  0  0  0  0  0  0  0  0  0
   -2.1428    4.5557    9.3286 C   0  0  0  0  0  0  0  0  0  0  0  0
   -1.9437    5.8340    8.8476 C   0  0  0  0  0  0  0  0  0  0  0  0
   -0.7773    6.0911    8.1286 C   0  0  0  0  0  0  0  0  0  0  0  0
    0.1794    5.1320    7.8596 C   0  0  0  0  0  0  0  0  0  0  0  0
   -2.9352    6.9299    9.0971 C   0  0  0  0  0  0  0  0  0  0  0  0
    1.4612    5.4557    7.1054 C   0  0  0  0  0  0  0  0  0  0  0  0
    1.5572    6.9291    6.6971 C   0  0  0  0  0  0  0  0  0  0  0  0
    2.6571    5.1404    8.0143 C   0  0  0  0  0  0  0  0  0  0  0  0
    1.5219    4.6062    5.8291 C   0  0  0  0  0  0  0  0  0  0  0  0
   -1.6396    0.4550    7.5082 C   0  0  0  0  0  0  0  0  0  0  0  0
   -2.4122    1.1559    8.4487 C   0  0  0  0  0  0  0  0  0  0  0  0
   -3.7863    1.1914    8.3723 C   0  0  0  0  0  0  0  0  0  0  0  0
   -4.4242    0.5265    7.3308 C   0  0  0  0  0  0  0  0  0  0  0  0
   -3.6588   -0.1747    6.4061 C   0  0  0  0  0  0  0  0  0  0  0  0
   -2.2728   -0.2383    6.4614 C   0  0  0  0  0  0  0  0  0  0  0  0
   -5.9183    0.5595    7.2306 C   0  0  0  0  0  0  0  0  0  0  0  0
   -1.4191   -1.0198    5.4755 C   0  0  0  0  0  0  0  0  0  0  0  0
   -0.6388   -2.0975    6.2443 C   0  0  0  0  0  0  0  0  0  0  0  0
   -0.4430   -0.0533    4.7880 C   0  0  0  0  0  0  0  0  0  0  0  0
   -2.2579   -1.7082    4.3953 C   0  0  0  0  0  0  0  0  0  0  0  0
    2.4850    0.9697    4.8655 H   0  0  0  0  0  0  0  0  0  0  0  0
    4.0336    2.2080    3.4065 H   0  0  0  0  0  0  0  0  0  0  0  0
    5.8813    3.5170    4.3863 H   0  0  0  0  0  0  0  0  0  0  0  0
    6.1839    3.5694    6.8354 H   0  0  0  0  0  0  0  0  0  0  0  0
    4.6325    2.3269    8.3004 H   0  0  0  0  0  0  0  0  0  0  0  0
    3.1529   -1.4512   10.5204 H   0  0  0  0  0  0  0  0  0  0  0  0
    4.3073   -3.6220   10.7687 H   0  0  0  0  0  0  0  0  0  0  0  0
    4.9471   -4.9165    8.7699 H   0  0  0  0  0  0  0  0  0  0  0  0
    4.4510   -4.0365    6.5205 H   0  0  0  0  0  0  0  0  0  0  0  0
    3.3113   -1.8583    6.2695 H   0  0  0  0  0  0  0  0  0  0  0  0
   -3.0176    4.3081    9.9107 H   0  0  0  0  0  0  0  0  0  0  0  0
   -0.6305    7.0995    7.7770 H   0  0  0  0  0  0  0  0  0  0  0  0
   -3.8017    6.5533    9.6343 H   0  0  0  0  0  0  0  0  0  0  0  0
   -2.4803    7.7250    9.6872 H   0  0  0  0  0  0  0  0  0  0  0  0
   -3.2690    7.3640    8.1552 H   0  0  0  0  0  0  0  0  0  0  0  0
    1.5451    7.5825    7.5665 H   0  0  0  0  0  0  0  0  0  0  0  0
    2.4967    7.0879    6.1717 H   0  0  0  0  0  0  0  0  0  0  0  0
    0.7476    7.2084    6.0265 H   0  0  0  0  0  0  0  0  0  0  0  0
    2.6363    4.1005    8.3310 H   0  0  0  0  0  0  0  0  0  0  0  0
    3.5888    5.3177    7.4817 H   0  0  0  0  0  0  0  0  0  0  0  0
    2.6317    5.7747    8.8987 H   0  0  0  0  0  0  0  0  0  0  0  0
    0.6965    4.8648    5.1681 H   0  0  0  0  0  0  0  0  0  0  0  0
    2.4587    4.7821    5.3051 H   0  0  0  0  0  0  0  0  0  0  0  0
    1.4589    3.5496    6.0710 H   0  0  0  0  0  0  0  0  0  0  0  0
   -4.3545    1.7299    9.1146 H   0  0  0  0  0  0  0  0  0  0  0  0
   -4.1778   -0.6933    5.6165 H   0  0  0  0  0  0  0  0  0  0  0  0
   -6.2803    1.5852    7.2699 H   0  0  0  0  0  0  0  0  0  0  0  0
   -6.2581    0.1031    6.3050 H   0  0  0  0  0  0  0  0  0  0  0  0
   -6.3617    0.0185    8.0657 H   0  0  0  0  0  0  0  0  0  0  0  0
   -1.3278   -2.7735    6.7464 H   0  0  0  0  0  0  0  0  0  0  0  0
   -0.0270   -2.6762    5.5558 H   0  0  0  0  0  0  0  0  0  0  0  0
    0.0184   -1.6593    6.9972 H   0  0  0  0  0  0  0  0  0  0  0  0
    0.2015    0.4385    5.5181 H   0  0  0  0  0  0  0  0  0  0  0  0
    0.1845   -0.5997    4.0870 H   0  0  0  0  0  0  0  0  0  0  0  0
   -0.9912    0.7110    4.2397 H   0  0  0  0  0  0  0  0  0  0  0  0
   -2.8226   -0.9829    3.8140 H   0  0  0  0  0  0  0  0  0  0  0  0
   -1.5975   -2.2423    3.7160 H   0  0  0  0  0  0  0  0  0  0  0  0
   -2.9431   -2.4301    4.8327 H   0  0  0  0  0  0  0  0  0  0  0  0
  5  1  1  0  0  0  0
  6 21  1  0  0  0  0
  6  1  1  0  0  0  0
  7 15  1  0  0  0  0
  7  1  1  0  0  0  0
  8  7  2  0  0  0  0
  9 14  1  0  0  0  0
  9  8  1  0  0  0  0
 10  9  2  0  0  0  0
 11 12  2  0  0  0  0
 11 10  1  0  0  0  0
 12 13  1  0  0  0  0
 13 46  1  0  0  0  0
 13 14  2  0  0  0  0
 14 47  1  0  0  0  0
 15 16  1  0  0  0  0
 16 17  2  0  0  0  0
 16 48  1  0  0  0  0
 17 49  1  0  0  0  0
 18 50  1  0  0  0  0
 18 17  1  0  0  0  0
 19 18  2  0  0  0  0
 20 19  1  0  0  0  0
 20 15  2  0  0  0  0
 21 22  1  0  0  0  0
 22 23  2  0  0  0  0
 22  4  1  0  0  0  0
 23 53  1  0  0  0  0
 24 27  1  0  0  0  0
 24 23  1  0  0  0  0
 25 24  2  0  0  0  0
 26 25  1  0  0  0  0
 26 21  2  0  0  0  0
 27 55  1  0  0  0  0
 27 56  1  0  0  0  0
 28 26  1  0  0  0  0
 28 30  1  0  0  0  0
 29 28  1  0  0  0  0
 29 58  1  0  0  0  0
 30 61  1  0  0  0  0
 30 63  1  0  0  0  0
 31 66  1  0  0  0  0
 31 28  1  0  0  0  0
 32  5  1  0  0  0  0
 32 33  1  0  0  0  0
 33  4  1  0  0  0  0
 34 33  2  0  0  0  0
 34 67  1  0  0  0  0
 35 34  1  0  0  0  0
 36 37  1  0  0  0  0
 36 35  2  0  0  0  0
 37 32  2  0  0  0  0
 38 69  1  0  0  0  0
 38 35  1  0  0  0  0
 38 71  1  0  0  0  0
 39 40  1  0  0  0  0
 39 37  1  0  0  0  0
 40 72  1  0  0  0  0
 40 74  1  0  0  0  0
 41 39  1  0  0  0  0
 41 75  1  0  0  0  0
 42 80  1  0  0  0  0
 42 39  1  0  0  0  0
 43 10  1  0  0  0  0
 44 11  1  0  0  0  0
 45 12  1  0  0  0  0
 51 19  1  0  0  0  0
 52 20  1  0  0  0  0
 54 25  1  0  0  0  0
 57 27  1  0  0  0  0
 59 29  1  0  0  0  0
 60 29  1  0  0  0  0
 62 30  1  0  0  0  0
 64 31  1  0  0  0  0
 65 31  1  0  0  0  0
 68 36  1  0  0  0  0
 70 38  1  0  0  0  0
 73 40  1  0  0  0  0
 76 41  1  0  0  0  0
 77 41  1  0  0  0  0
 78 42  1  0  0  0  0
 79 42  1  0  0  0  0
M  END
$$$$
