CSD_code = CAMDUQ | q = 0 | S = 0 | Stoichiometry = C28H38Cl2O2SW | MND = 7
 OpenBabel04212202013D

 72 72  0  0  0  0  0  0  0  0999 V2000
    3.7835    1.4602    5.4156 W   0  0  0  0  0  0  0  0  0  0  0  0
    2.8529   -0.5540    4.9370 Cl  0  0  0  0  0 15  0  0  0  0  0  0
    6.0107    0.7425    5.1712 Cl  0  0  0  0  0 15  0  0  0  0  0  0
    1.4821    2.5738    4.5417 S   0  0  0  0  0  0  0  0  0  0  0  0
    4.0651    3.2625    5.4837 O   0  0  0  0  0  0  0  0  0  0  0  0
    3.9900    1.6273    3.4442 O   0  0  0  0  0  0  0  0  0  0  0  0
    3.5750    4.3119    4.8313 C   0  0  0  0  0  0  0  0  0  0  0  0
    2.2810    4.1771    4.3076 C   0  0  0  0  0  0  0  0  0  0  0  0
    1.6624    5.2118    3.6364 C   0  0  0  0  0  0  0  0  0  0  0  0
    2.3443    6.4080    3.4572 C   0  0  0  0  0  0  0  0  0  0  0  0
    3.6374    6.5314    3.9560 C   0  0  0  0  0  0  0  0  0  0  0  0
    4.2814    5.5128    4.6430 C   0  0  0  0  0  0  0  0  0  0  0  0
    1.7012    7.5346    2.7075 C   0  0  0  0  0  0  0  0  0  0  0  0
    5.7053    5.5987    5.1686 C   0  0  0  0  0  0  0  0  0  0  0  0
    6.3478    6.9594    4.8893 C   0  0  0  0  0  0  0  0  0  0  0  0
    5.6954    5.3642    6.6866 C   0  0  0  0  0  0  0  0  0  0  0  0
    6.5417    4.5099    4.4776 C   0  0  0  0  0  0  0  0  0  0  0  0
    3.0245    1.5009    2.5601 C   0  0  0  0  0  0  0  0  0  0  0  0
    1.7257    1.9181    2.8845 C   0  0  0  0  0  0  0  0  0  0  0  0
    0.6602    1.8465    2.0082 C   0  0  0  0  0  0  0  0  0  0  0  0
    0.8709    1.3335    0.7423 C   0  0  0  0  0  0  0  0  0  0  0  0
    2.1522    0.9001    0.4054 C   0  0  0  0  0  0  0  0  0  0  0  0
    3.2336    0.9622    1.2650 C   0  0  0  0  0  0  0  0  0  0  0  0
   -0.2450    1.2300   -0.2535 C   0  0  0  0  0  0  0  0  0  0  0  0
    4.6101    0.4291    0.8956 C   0  0  0  0  0  0  0  0  0  0  0  0
    5.6534    1.5462    1.0385 C   0  0  0  0  0  0  0  0  0  0  0  0
    4.9471   -0.7308    1.8440 C   0  0  0  0  0  0  0  0  0  0  0  0
    4.6706   -0.0967   -0.5418 C   0  0  0  0  0  0  0  0  0  0  0  0
    1.5525    3.3706    8.1507 C   0  0  0  0  0  0  0  0  0  0  0  0
    1.6924    1.8454    8.1397 C   0  0  0  0  0  0  0  0  0  0  0  0
    2.8637    1.4627    7.2922 C   0  0  0  0  0  0  0  0  0  0  0  0
    4.1014    1.0773    7.4563 C   0  0  0  0  0  3  0  0  0  0  0  0
    5.0628    0.7708    8.5572 C   0  0  0  0  0  0  0  0  0  0  0  0
    6.1327    1.8642    8.6224 C   0  0  0  0  0  0  0  0  0  0  0  0
    0.6655    5.0775    3.2467 H   0  0  0  0  0  0  0  0  0  0  0  0
    4.1517    7.4646    3.7931 H   0  0  0  0  0  0  0  0  0  0  0  0
    0.6426    7.6003    2.9458 H   0  0  0  0  0  0  0  0  0  0  0  0
    1.7931    7.3686    1.6342 H   0  0  0  0  0  0  0  0  0  0  0  0
    2.1768    8.4820    2.9462 H   0  0  0  0  0  0  0  0  0  0  0  0
    7.3605    6.9651    5.2855 H   0  0  0  0  0  0  0  0  0  0  0  0
    6.4046    7.1545    3.8211 H   0  0  0  0  0  0  0  0  0  0  0  0
    5.7929    7.7610    5.3714 H   0  0  0  0  0  0  0  0  0  0  0  0
    5.0805    6.1146    7.1806 H   0  0  0  0  0  0  0  0  0  0  0  0
    6.7079    5.4313    7.0777 H   0  0  0  0  0  0  0  0  0  0  0  0
    5.3026    4.3754    6.9252 H   0  0  0  0  0  0  0  0  0  0  0  0
    7.5692    4.5486    4.8314 H   0  0  0  0  0  0  0  0  0  0  0  0
    6.1523    3.5101    4.6879 H   0  0  0  0  0  0  0  0  0  0  0  0
    6.5404    4.6606    3.3995 H   0  0  0  0  0  0  0  0  0  0  0  0
   -0.3154    2.1812    2.3257 H   0  0  0  0  0  0  0  0  0  0  0  0
    2.2866    0.4927   -0.5837 H   0  0  0  0  0  0  0  0  0  0  0  0
   -0.0100    1.8019   -1.1502 H   0  0  0  0  0  0  0  0  0  0  0  0
   -1.1741    1.6066    0.1655 H   0  0  0  0  0  0  0  0  0  0  0  0
   -0.3936    0.1929   -0.5502 H   0  0  0  0  0  0  0  0  0  0  0  0
    5.3953    2.3886    0.3982 H   0  0  0  0  0  0  0  0  0  0  0  0
    5.7093    1.8926    2.0665 H   0  0  0  0  0  0  0  0  0  0  0  0
    6.6352    1.1765    0.7511 H   0  0  0  0  0  0  0  0  0  0  0  0
    4.9741   -0.3948    2.8794 H   0  0  0  0  0  0  0  0  0  0  0  0
    5.9236   -1.1434    1.6003 H   0  0  0  0  0  0  0  0  0  0  0  0
    4.2009   -1.5190    1.7578 H   0  0  0  0  0  0  0  0  0  0  0  0
    5.6775   -0.4542   -0.7467 H   0  0  0  0  0  0  0  0  0  0  0  0
    3.9853   -0.9287   -0.6872 H   0  0  0  0  0  0  0  0  0  0  0  0
    4.4404    0.6888   -1.2586 H   0  0  0  0  0  0  0  0  0  0  0  0
    0.7071    3.6723    8.7649 H   0  0  0  0  0  0  0  0  0  0  0  0
    2.4564    3.8263    8.5506 H   0  0  0  0  0  0  0  0  0  0  0  0
    1.3980    3.7442    7.1383 H   0  0  0  0  0  0  0  0  0  0  0  0
    1.8392    1.4819    9.1619 H   0  0  0  0  0  0  0  0  0  0  0  0
    0.7753    1.4012    7.7427 H   0  0  0  0  0  0  0  0  0  0  0  0
    4.5317    0.7040    9.5133 H   0  0  0  0  0  0  0  0  0  0  0  0
    5.5491   -0.1889    8.3605 H   0  0  0  0  0  0  0  0  0  0  0  0
    6.8829    1.6192    9.3706 H   0  0  0  0  0  0  0  0  0  0  0  0
    6.6183    1.9562    7.6517 H   0  0  0  0  0  0  0  0  0  0  0  0
    5.6799    2.8194    8.8828 H   0  0  0  0  0  0  0  0  0  0  0  0
  1  5  1  0  0  0  0
  1 31  1  0  0  0  0
  6  1  1  0  0  0  0
  7  5  1  0  0  0  0
  8  4  1  0  0  0  0
  8  7  2  0  0  0  0
  9  8  1  0  0  0  0
 10  9  2  0  0  0  0
 10 11  1  0  0  0  0
 11 12  2  0  0  0  0
 12  7  1  0  0  0  0
 12 14  1  0  0  0  0
 13 37  1  0  0  0  0
 13 39  1  0  0  0  0
 13 10  1  0  0  0  0
 14 16  1  0  0  0  0
 15 14  1  0  0  0  0
 15 40  1  0  0  0  0
 15 42  1  0  0  0  0
 16 45  1  0  0  0  0
 16 44  1  0  0  0  0
 16 43  1  0  0  0  0
 17 47  1  0  0  0  0
 17 46  1  0  0  0  0
 17 14  1  0  0  0  0
 18 19  1  0  0  0  0
 18  6  1  0  0  0  0
 19  4  1  0  0  0  0
 20 49  1  0  0  0  0
 20 19  2  0  0  0  0
 21 20  1  0  0  0  0
 22 21  2  0  0  0  0
 22 23  1  0  0  0  0
 23 18  2  0  0  0  0
 24 52  1  0  0  0  0
 24 21  1  0  0  0  0
 25 26  1  0  0  0  0
 25 23  1  0  0  0  0
 25 27  1  0  0  0  0
 26 55  1  0  0  0  0
 27 57  1  0  0  0  0
 28 25  1  0  0  0  0
 29 64  1  0  0  0  0
 29 63  1  0  0  0  0
 30 29  1  0  0  0  0
 30 66  1  0  0  0  0
 31 32  2  0  0  0  0
 31 30  1  0  0  0  0
 32 33  1  0  0  0  0
 33 34  1  0  0  0  0
 33 68  1  0  0  0  0
 34 72  1  0  0  0  0
 34 70  1  0  0  0  0
 35  9  1  0  0  0  0
 36 11  1  0  0  0  0
 38 13  1  0  0  0  0
 41 15  1  0  0  0  0
 48 17  1  0  0  0  0
 50 22  1  0  0  0  0
 51 24  1  0  0  0  0
 53 24  1  0  0  0  0
 54 26  1  0  0  0  0
 56 26  1  0  0  0  0
 58 27  1  0  0  0  0
 59 27  1  0  0  0  0
 60 28  1  0  0  0  0
 61 28  1  0  0  0  0
 62 28  1  0  0  0  0
 65 29  1  0  0  0  0
 67 30  1  0  0  0  0
 69 33  1  0  0  0  0
 71 34  1  0  0  0  0
M  END
$$$$
