CSD_code = CAMJUX | q = 0 | S = 0 | Stoichiometry = C33H53Cl2N3Pd | MND = 4
 OpenBabel04212202013D

 92 94  0  0  0  0  0  0  0  0999 V2000
   -0.9924   -5.2360   -2.3411 Pd  0  0  0  0  0  0  0  0  0  0  0  0
    0.0577   -4.5883   -0.4166 Cl  0  0  0  0  0  0  0  0  0  0  0  0
   -2.1587   -6.0096   -4.1497 Cl  0  0  0  0  0  0  0  0  0  0  0  0
   -3.2633   -4.1962   -0.8346 N   0  0  0  0  0  0  0  0  0  0  0  0
   -3.4480   -6.3362   -1.1658 N   0  0  0  0  0  0  0  0  0  0  0  0
    0.9741   -5.2065   -3.4187 N   0  0  0  0  0  4  0  0  0  0  0  0
   -2.6799   -5.2677   -1.3667 C   0  0  0  0  0  0  0  0  0  0  0  0
   -4.5962   -4.4935   -0.3193 C   0  0  0  0  0  0  0  0  0  0  0  0
   -5.3514   -4.0510   -0.9810 H   0  0  0  0  0  0  0  0  0  0  0  0
   -4.7338   -4.0878    0.6832 H   0  0  0  0  0  0  0  0  0  0  0  0
   -4.6223   -6.0221   -0.3551 C   0  0  0  0  0  0  0  0  0  0  0  0
   -4.5089   -6.4614    0.6435 H   0  0  0  0  0  0  0  0  0  0  0  0
   -5.5311   -6.4192   -0.8076 H   0  0  0  0  0  0  0  0  0  0  0  0
   -2.7470   -2.8705   -0.8964 C   0  0  0  0  0  0  0  0  0  0  0  0
   -2.2300   -2.2813    0.2647 C   0  0  0  0  0  0  0  0  0  0  0  0
   -1.7055   -0.9999    0.1705 C   0  0  0  0  0  0  0  0  0  0  0  0
   -1.2961   -0.5266    1.0486 H   0  0  0  0  0  0  0  0  0  0  0  0
   -1.6942   -0.3208   -1.0321 C   0  0  0  0  0  0  0  0  0  0  0  0
   -1.2700    0.6710   -1.0875 H   0  0  0  0  0  0  0  0  0  0  0  0
   -2.2453   -0.8984   -2.1582 C   0  0  0  0  0  0  0  0  0  0  0  0
   -2.2627   -0.3437   -3.0836 H   0  0  0  0  0  0  0  0  0  0  0  0
   -2.7871   -2.1782   -2.1133 C   0  0  0  0  0  0  0  0  0  0  0  0
   -3.4931   -2.7332   -3.3311 C   0  0  0  0  0  0  0  0  0  0  0  0
   -3.7596   -3.7814   -3.1594 H   0  0  0  0  0  0  0  0  0  0  0  0
   -4.7833   -1.9408   -3.5654 C   0  0  0  0  0  0  0  0  0  0  0  0
   -5.4138   -1.9539   -2.6776 H   0  0  0  0  0  0  0  0  0  0  0  0
   -5.3406   -2.3729   -4.3934 H   0  0  0  0  0  0  0  0  0  0  0  0
   -4.5588   -0.9040   -3.8046 H   0  0  0  0  0  0  0  0  0  0  0  0
   -2.6026   -2.7041   -4.5722 C   0  0  0  0  0  0  0  0  0  0  0  0
   -2.2873   -1.6945   -4.8233 H   0  0  0  0  0  0  0  0  0  0  0  0
   -3.1408   -3.1240   -5.4185 H   0  0  0  0  0  0  0  0  0  0  0  0
   -1.7232   -3.3248   -4.3947 H   0  0  0  0  0  0  0  0  0  0  0  0
   -2.2861   -2.9726    1.6076 C   0  0  0  0  0  0  0  0  0  0  0  0
   -2.5249   -4.0280    1.4493 H   0  0  0  0  0  0  0  0  0  0  0  0
   -0.9516   -2.9246    2.3520 C   0  0  0  0  0  0  0  0  0  0  0  0
   -0.1675   -3.3369    1.7238 H   0  0  0  0  0  0  0  0  0  0  0  0
   -1.0197   -3.5192    3.2607 H   0  0  0  0  0  0  0  0  0  0  0  0
   -0.6850   -1.9092    2.6316 H   0  0  0  0  0  0  0  0  0  0  0  0
   -3.3839   -2.3262    2.4616 C   0  0  0  0  0  0  0  0  0  0  0  0
   -3.1142   -1.3006    2.7026 H   0  0  0  0  0  0  0  0  0  0  0  0
   -3.5093   -2.8753    3.3925 H   0  0  0  0  0  0  0  0  0  0  0  0
   -4.3389   -2.3040    1.9385 H   0  0  0  0  0  0  0  0  0  0  0  0
   -3.0699   -7.6777   -1.4644 C   0  0  0  0  0  0  0  0  0  0  0  0
   -2.0639   -8.2867   -0.7002 C   0  0  0  0  0  0  0  0  0  0  0  0
   -1.6827   -9.5818   -1.0313 C   0  0  0  0  0  0  0  0  0  0  0  0
   -0.9111  -10.0728   -0.4596 H   0  0  0  0  0  0  0  0  0  0  0  0
   -2.2863  -10.2565   -2.0735 C   0  0  0  0  0  0  0  0  0  0  0  0
   -1.9702  -11.2591   -2.3219 H   0  0  0  0  0  0  0  0  0  0  0  0
   -3.3140   -9.6622   -2.7787 C   0  0  0  0  0  0  0  0  0  0  0  0
   -3.8009  -10.2130   -3.5673 H   0  0  0  0  0  0  0  0  0  0  0  0
   -3.7277   -8.3691   -2.4897 C   0  0  0  0  0  0  0  0  0  0  0  0
   -4.9084   -7.7786   -3.2253 C   0  0  0  0  0  0  0  0  0  0  0  0
   -4.9325   -6.7015   -3.0398 H   0  0  0  0  0  0  0  0  0  0  0  0
   -6.1970   -8.4204   -2.6953 C   0  0  0  0  0  0  0  0  0  0  0  0
   -6.2235   -9.4751   -2.9596 H   0  0  0  0  0  0  0  0  0  0  0  0
   -7.0672   -7.9357   -3.1330 H   0  0  0  0  0  0  0  0  0  0  0  0
   -6.2659   -8.3487   -1.6109 H   0  0  0  0  0  0  0  0  0  0  0  0
   -4.8216   -7.9671   -4.7397 C   0  0  0  0  0  0  0  0  0  0  0  0
   -3.8876   -7.5520   -5.1059 H   0  0  0  0  0  0  0  0  0  0  0  0
   -5.6458   -7.4424   -5.2185 H   0  0  0  0  0  0  0  0  0  0  0  0
   -4.8810   -9.0155   -5.0188 H   0  0  0  0  0  0  0  0  0  0  0  0
   -1.4903   -7.6330    0.5384 C   0  0  0  0  0  0  0  0  0  0  0  0
   -1.6978   -6.5585    0.5184 H   0  0  0  0  0  0  0  0  0  0  0  0
    0.0255   -7.7855    0.6466 C   0  0  0  0  0  0  0  0  0  0  0  0
    0.3207   -8.8210    0.7971 H   0  0  0  0  0  0  0  0  0  0  0  0
    0.3883   -7.1983    1.4866 H   0  0  0  0  0  0  0  0  0  0  0  0
    0.4977   -7.4049   -0.2547 H   0  0  0  0  0  0  0  0  0  0  0  0
   -2.1708   -8.2402    1.7708 C   0  0  0  0  0  0  0  0  0  0  0  0
   -3.2538   -8.1416    1.7132 H   0  0  0  0  0  0  0  0  0  0  0  0
   -1.8238   -7.7410    2.6727 H   0  0  0  0  0  0  0  0  0  0  0  0
   -1.9348   -9.2994    1.8489 H   0  0  0  0  0  0  0  0  0  0  0  0
    1.7084   -3.9789   -3.0582 C   0  0  0  0  0  0  0  0  0  0  0  0
    2.6465   -3.9087   -3.6247 H   0  0  0  0  0  0  0  0  0  0  0  0
    1.9645   -4.0457   -1.9978 H   0  0  0  0  0  0  0  0  0  0  0  0
    0.8767   -2.7155   -3.2524 C   0  0  0  0  0  0  0  0  0  0  0  0
    0.7188   -2.4819   -4.3034 H   0  0  0  0  0  0  0  0  0  0  0  0
    1.3877   -1.8746   -2.7893 H   0  0  0  0  0  0  0  0  0  0  0  0
   -0.0945   -2.8370   -2.7512 H   0  0  0  0  0  0  0  0  0  0  0  0
    1.6851   -6.3718   -2.8614 C   0  0  0  0  0  0  0  0  0  0  0  0
    1.8130   -6.1874   -1.7884 H   0  0  0  0  0  0  0  0  0  0  0  0
    2.6890   -6.4582   -3.3022 H   0  0  0  0  0  0  0  0  0  0  0  0
    0.9161   -7.6788   -3.0451 C   0  0  0  0  0  0  0  0  0  0  0  0
   -0.1233   -7.5611   -2.6976 H   0  0  0  0  0  0  0  0  0  0  0  0
    1.3891   -8.4638   -2.4585 H   0  0  0  0  0  0  0  0  0  0  0  0
    0.8992   -7.9958   -4.0853 H   0  0  0  0  0  0  0  0  0  0  0  0
    0.8210   -5.3150   -4.8835 C   0  0  0  0  0  0  0  0  0  0  0  0
    0.3175   -4.4088   -5.2290 H   0  0  0  0  0  0  0  0  0  0  0  0
    0.1467   -6.1473   -5.0936 H   0  0  0  0  0  0  0  0  0  0  0  0
    2.0966   -5.5089   -5.7062 C   0  0  0  0  0  0  0  0  0  0  0  0
    2.8143   -4.7063   -5.5542 H   0  0  0  0  0  0  0  0  0  0  0  0
    1.8197   -5.5126   -6.7576 H   0  0  0  0  0  0  0  0  0  0  0  0
    2.5804   -6.4572   -5.4874 H   0  0  0  0  0  0  0  0  0  0  0  0
  1  7  2  0  0  0  0
  1  2  1  0  0  0  0
  3  1  1  0  0  0  0
  4  8  1  0  0  0  0
  5 11  1  0  0  0  0
  6 72  1  0  0  0  0
  6 79  1  0  0  0  0
  6  1  1  0  0  0  0
  7  5  1  0  0  0  0
  7  4  1  0  0  0  0
  8 10  1  0  0  0  0
  9  8  1  0  0  0  0
 11  8  1  0  0  0  0
 11 12  1  0  0  0  0
 13 11  1  0  0  0  0
 14  4  1  0  0  0  0
 14 15  1  0  0  0  0
 15 33  1  0  0  0  0
 16 15  2  0  0  0  0
 16 17  1  0  0  0  0
 18 16  1  0  0  0  0
 19 18  1  0  0  0  0
 20 22  1  0  0  0  0
 20 18  2  0  0  0  0
 21 20  1  0  0  0  0
 22 14  2  0  0  0  0
 23 24  1  0  0  0  0
 23 22  1  0  0  0  0
 25 23  1  0  0  0  0
 25 26  1  0  0  0  0
 27 25  1  0  0  0  0
 28 25  1  0  0  0  0
 29 32  1  0  0  0  0
 29 23  1  0  0  0  0
 30 29  1  0  0  0  0
 31 29  1  0  0  0  0
 33 35  1  0  0  0  0
 33 39  1  0  0  0  0
 34 33  1  0  0  0  0
 35 38  1  0  0  0  0
 35 37  1  0  0  0  0
 36 35  1  0  0  0  0
 39 40  1  0  0  0  0
 39 41  1  0  0  0  0
 42 39  1  0  0  0  0
 43  5  1  0  0  0  0
 43 44  1  0  0  0  0
 44 62  1  0  0  0  0
 45 44  2  0  0  0  0
 45 46  1  0  0  0  0
 47 45  1  0  0  0  0
 48 47  1  0  0  0  0
 49 51  1  0  0  0  0
 49 47  2  0  0  0  0
 50 49  1  0  0  0  0
 51 43  2  0  0  0  0
 52 53  1  0  0  0  0
 52 54  1  0  0  0  0
 52 51  1  0  0  0  0
 54 57  1  0  0  0  0
 55 54  1  0  0  0  0
 56 54  1  0  0  0  0
 58 52  1  0  0  0  0
 59 58  1  0  0  0  0
 60 58  1  0  0  0  0
 61 58  1  0  0  0  0
 62 64  1  0  0  0  0
 62 68  1  0  0  0  0
 63 62  1  0  0  0  0
 64 65  1  0  0  0  0
 64 66  1  0  0  0  0
 67 64  1  0  0  0  0
 68 71  1  0  0  0  0
 68 70  1  0  0  0  0
 69 68  1  0  0  0  0
 72 74  1  0  0  0  0
 73 72  1  0  0  0  0
 75 72  1  0  0  0  0
 75 77  1  0  0  0  0
 75 78  1  0  0  0  0
 76 75  1  0  0  0  0
 79 80  1  0  0  0  0
 81 79  1  0  0  0  0
 82 79  1  0  0  0  0
 82 83  1  0  0  0  0
 82 84  1  0  0  0  0
 85 82  1  0  0  0  0
 86  6  1  0  0  0  0
 87 86  1  0  0  0  0
 88 86  1  0  0  0  0
 89 90  1  0  0  0  0
 89 92  1  0  0  0  0
 89 86  1  0  0  0  0
 91 89  1  0  0  0  0
M  END
$$$$
