CSD_code = CAMKAD | q = 0 | S = 0 | Stoichiometry = C14H16Cl2SiZr | MND = 12
 OpenBabel04212202013D

 34 36  0  0  1  0  0  0  0  0999 V2000
    3.2509    5.3027    3.7446 Zr  0  0  0  0  0  0  0  0  0  0  0  0
    1.4093    2.6698    2.8856 Si  0  0  1  0  0  0  0  0  0  0  0  0
    3.1501    7.4642    4.6073 Cl  0  0  0  0  0  0  0  0  0  0  0  0
    5.5700    5.3035    3.5151 Cl  0  0  0  0  0  0  0  0  0  0  0  0
    2.1618    3.2579    4.5213 C   0  0  2  0  0  0  0  0  0  0  0  0
    1.6394    4.3243    5.3092 C   0  0  0  0  0  3  0  0  0  0  0  0
    0.5957    4.6164    5.3642 H   0  0  0  0  0  0  0  0  0  0  0  0
    2.6621    4.7955    6.1615 C   0  0  0  0  0  0  0  0  0  0  0  0
    2.5428    5.5199    6.9586 H   0  0  0  0  0  0  0  0  0  0  0  0
    3.8379    4.0685    5.8758 C   0  0  0  0  0  0  0  0  0  0  0  0
    4.7776    4.1449    6.4110 H   0  0  0  0  0  0  0  0  0  0  0  0
    3.5387    3.1392    4.8536 C   0  0  0  0  0  3  0  0  0  0  0  0
    4.2155    2.3784    4.4791 H   0  0  0  0  0  0  0  0  0  0  0  0
    1.9191    4.2570    1.9843 C   0  0  2  0  0  0  0  0  0  0  0  0
    3.2087    4.4959    1.4346 C   0  0  0  0  0  0  0  0  0  0  0  0
    3.8913    3.7357    1.0696 H   0  0  0  0  0  0  0  0  0  0  0  0
    3.3843    5.8906    1.2856 C   0  0  0  0  0  0  0  0  0  0  0  0
    4.2205    6.3775    0.7969 H   0  0  0  0  0  0  0  0  0  0  0  0
    2.2238    6.5306    1.7721 C   0  0  0  0  0  0  0  0  0  0  0  0
    2.0143    7.5924    1.7144 H   0  0  0  0  0  0  0  0  0  0  0  0
    1.3359    5.5339    2.2323 C   0  0  0  0  0  0  0  0  0  0  0  0
    0.3187    5.7092    2.5674 H   0  0  0  0  0  0  0  0  0  0  0  0
    2.2731    1.1225    2.1920 C   0  0  0  0  0  0  0  0  0  0  0  0
    1.8596    0.8602    1.2241 H   0  0  0  0  0  0  0  0  0  0  0  0
    2.1285    0.2729    2.8509 H   0  0  0  0  0  0  0  0  0  0  0  0
    3.3417    1.2717    2.0716 H   0  0  0  0  0  0  0  0  0  0  0  0
   -0.4926    2.4384    2.9708 C   0  0  0  0  0  0  0  0  0  0  0  0
   -0.7245    1.5946    3.6184 H   0  0  0  0  0  0  0  0  0  0  0  0
   -0.9593    3.3248    3.4002 H   0  0  0  0  0  0  0  0  0  0  0  0
   -1.0414    2.1976    1.6074 C   0  0  0  0  0  0  0  0  0  0  0  0
   -1.0589    3.0613    0.9567 H   0  0  0  0  0  0  0  0  0  0  0  0
   -1.4597    1.0258    1.1657 C   0  0  0  0  0  0  0  0  0  0  0  0
   -1.4494    0.1498    1.7932 H   0  0  0  0  0  0  0  0  0  0  0  0
   -1.8373    0.8930    0.1668 H   0  0  0  0  0  0  0  0  0  0  0  0
  1  5  1  0  0  0  0
  1  3  1  0  0  0  0
  2 23  1  6  0  0  0
  2 27  1  0  0  0  0
  2  5  1  0  0  0  0
  4  1  1  0  0  0  0
  5 12  1  1  0  0  0
  5  6  1  0  0  0  0
  6  7  1  0  0  0  0
  6  8  1  0  0  0  0
  8  9  1  0  0  0  0
 10  8  2  0  0  0  0
 10 11  1  0  0  0  0
 12 10  1  0  0  0  0
 13 12  1  0  0  0  0
 14 15  1  6  0  0  0
 14 21  1  0  0  0  0
 14  2  1  0  0  0  0
 14  1  1  0  0  0  0
 16 15  1  0  0  0  0
 17 15  2  0  0  0  0
 17 19  1  0  0  0  0
 18 17  1  0  0  0  0
 19 21  2  0  0  0  0
 20 19  1  0  0  0  0
 21 22  1  0  0  0  0
 23 25  1  0  0  0  0
 24 23  1  0  0  0  0
 26 23  1  0  0  0  0
 27 29  1  0  0  0  0
 27 28  1  0  0  0  0
 30 27  1  0  0  0  0
 31 30  1  0  0  0  0
 32 30  2  0  0  0  0
 32 33  1  0  0  0  0
 34 32  1  0  0  0  0
M  END
$$$$
