CSD_code = CAMSIU | q = 1 | S = 0 | Stoichiometry = C25H20BFN9Pd(1+) | MND = 6
 OpenBabel04212202013D

 57 66  0  0  1  0  0  0  0  0999 V2000
    4.1042    2.6848    0.1467 Pd  0  0  0  0  0  0  0  0  0  0  0  0
    3.4001    0.9532    0.6338 F   0  0  0  0  0  0  0  0  0  0  0  0
    4.4000    1.8996   -1.7106 N   0  0  0  0  0  0  0  0  0  0  0  0
    4.8662    4.4658   -0.3254 N   0  0  1  0  0  0  0  0  0  0  0  0
    5.7020    5.0673    0.5296 N   0  0  0  0  0  0  0  0  0  0  0  0
    6.1201    2.1808    0.9826 N   0  0  1  0  0  0  0  0  0  0  0  0
    6.7423    3.1276    1.7152 N   0  0  0  0  0  0  0  0  0  0  0  0
    3.7587    3.3785    1.9840 N   0  0  2  0  0  0  0  0  0  0  0  0
    4.6789    4.1240    2.6095 N   0  0  0  0  0  0  0  0  0  0  0  0
    6.7929    5.4641    2.7431 N   0  0  0  0  0  0  0  0  0  0  0  0
    8.0610    5.3096    3.1597 N   0  0  0  0  0  0  0  0  0  0  0  0
    5.4834    1.3105   -2.1863 C   0  0  0  0  0  0  0  0  0  0  0  0
    6.3858    1.3701   -1.5890 H   0  0  0  0  0  0  0  0  0  0  0  0
    5.4842    0.6421   -3.4116 C   0  0  0  0  0  0  0  0  0  0  0  0
    6.3920    0.1726   -3.7543 H   0  0  0  0  0  0  0  0  0  0  0  0
    4.3306    0.5870   -4.1635 C   0  0  0  0  0  0  0  0  0  0  0  0
    4.3106    0.0703   -5.1109 H   0  0  0  0  0  0  0  0  0  0  0  0
    3.1723    1.2167   -3.6847 C   0  0  0  0  0  0  0  0  0  0  0  0
    1.9244    1.2561   -4.3744 C   0  0  0  0  0  3  0  0  0  0  0  0
    1.8569    0.7542   -5.3273 H   0  0  0  0  0  0  0  0  0  0  0  0
    0.8532    1.9093   -3.8572 C   0  0  0  0  0  0  0  0  0  0  0  0
   -0.0807    1.9358   -4.3979 H   0  0  0  0  0  0  0  0  0  0  0  0
    0.9161    2.5751   -2.5966 C   0  0  0  0  0  0  0  0  0  0  0  0
   -0.1545    3.2756   -2.0195 C   0  0  0  0  0  0  0  0  0  0  0  0
   -1.0972    3.3262   -2.5421 H   0  0  0  0  0  0  0  0  0  0  0  0
   -0.0036    3.8886   -0.7997 C   0  0  0  0  0  0  0  0  0  0  0  0
   -0.8297    4.4304   -0.3649 H   0  0  0  0  0  0  0  0  0  0  0  0
    1.2048    3.8184   -0.0838 C   0  0  0  0  0  0  0  0  0  0  0  0
    1.2679    4.3081    0.8794 H   0  0  0  0  0  0  0  0  0  0  0  0
    2.2659    3.1352   -0.6198 C   0  0  0  0  0  0  0  0  0  0  0  0
    2.1303    2.5269   -1.8776 C   0  0  0  0  0  0  0  0  0  0  0  0
    3.2593    1.8593   -2.4309 C   0  0  0  0  0  0  0  0  0  0  0  0
    4.8054    5.2000   -1.4341 C   0  0  0  0  0  3  0  0  0  0  0  0
    4.1806    4.9160   -2.2614 H   0  0  0  0  0  0  0  0  0  0  0  0
    5.6305    6.3104   -1.2938 C   0  0  0  0  0  0  0  0  0  0  0  0
    5.8001    7.0907   -2.0049 H   0  0  0  0  0  0  0  0  0  0  0  0
    6.1820    6.1840   -0.0338 C   0  0  0  0  0  0  0  0  0  0  0  0
    6.8778    6.8168    0.4779 H   0  0  0  0  0  0  0  0  0  0  0  0
    6.8333    1.0650    1.0813 C   0  0  0  0  0  3  0  0  0  0  0  0
    6.5107    0.1606    0.5985 H   0  0  0  0  0  0  0  0  0  0  0  0
    7.9523    1.2916    1.8802 C   0  0  0  0  0  0  0  0  0  0  0  0
    8.7166    0.5911    2.1423 H   0  0  0  0  0  0  0  0  0  0  0  0
    7.8539    2.6119    2.2657 C   0  0  0  0  0  0  0  0  0  0  0  0
    8.4839    3.2297    2.8741 H   0  0  0  0  0  0  0  0  0  0  0  0
    2.8055    3.0611    2.8529 C   0  0  0  0  0  3  0  0  0  0  0  0
    1.9747    2.4421    2.5647 H   0  0  0  0  0  0  0  0  0  0  0  0
    3.1103    3.6318    4.0857 C   0  0  0  0  0  0  0  0  0  0  0  0
    2.5435    3.5680    4.9903 H   0  0  0  0  0  0  0  0  0  0  0  0
    4.3083    4.2891    3.8886 C   0  0  0  0  0  0  0  0  0  0  0  0
    4.9063    4.8518    4.5761 H   0  0  0  0  0  0  0  0  0  0  0  0
    6.3194    6.6776    3.1450 C   0  0  0  0  0  0  0  0  0  0  0  0
    5.3234    6.9925    2.9039 H   0  0  0  0  0  0  0  0  0  0  0  0
    7.3150    7.3092    3.8413 C   0  0  0  0  0  0  0  0  0  0  0  0
    7.2869    8.2745    4.3010 H   0  0  0  0  0  0  0  0  0  0  0  0
    8.3853    6.3991    3.8170 C   0  0  0  0  0  0  0  0  0  0  0  0
    9.3604    6.5008    4.2485 H   0  0  0  0  0  0  0  0  0  0  0  0
    6.0375    4.4684    1.9301 B   0  0  2  0  0  0  0  0  0  0  0  0
  1  2  1  0  0  0  0
  1  6  1  0  0  0  0
  1  8  1  0  0  0  0
  3  1  1  0  0  0  0
  4 33  1  6  0  0  0
  4  1  1  0  0  0  0
  4  5  1  0  0  0  0
  5 57  1  0  0  0  0
  6 39  1  1  0  0  0
  6  7  1  0  0  0  0
  7 57  1  0  0  0  0
  7 43  1  0  0  0  0
  8  9  1  0  0  0  0
  8 45  1  1  0  0  0
  9 49  1  0  0  0  0
 10 51  1  0  0  0  0
 10 11  1  0  0  0  0
 11 55  2  0  0  0  0
 12  3  1  0  0  0  0
 12 13  1  0  0  0  0
 14 12  2  0  0  0  0
 15 14  1  0  0  0  0
 16 18  2  0  0  0  0
 16 14  1  0  0  0  0
 17 16  1  0  0  0  0
 18 32  1  0  0  0  0
 19 21  1  0  0  0  0
 19 18  1  0  0  0  0
 20 19  1  0  0  0  0
 21 23  2  0  0  0  0
 22 21  1  0  0  0  0
 23 24  1  0  0  0  0
 23 31  1  0  0  0  0
 24 26  2  0  0  0  0
 25 24  1  0  0  0  0
 26 27  1  0  0  0  0
 26 28  1  0  0  0  0
 28 29  1  0  0  0  0
 30 28  2  0  0  0  0
 30  1  1  0  0  0  0
 31 30  1  0  0  0  0
 32 31  2  0  0  0  0
 32  3  1  0  0  0  0
 33 35  1  0  0  0  0
 34 33  1  0  0  0  0
 35 37  2  0  0  0  0
 36 35  1  0  0  0  0
 37 38  1  0  0  0  0
 37  5  1  0  0  0  0
 39 41  1  0  0  0  0
 40 39  1  0  0  0  0
 41 42  1  0  0  0  0
 41 43  2  0  0  0  0
 43 44  1  0  0  0  0
 45 47  1  0  0  0  0
 46 45  1  0  0  0  0
 47 48  1  0  0  0  0
 49 47  2  0  0  0  0
 49 50  1  0  0  0  0
 51 53  2  0  0  0  0
 52 51  1  0  0  0  0
 53 54  1  0  0  0  0
 55 53  1  0  0  0  0
 55 56  1  0  0  0  0
 57  9  1  0  0  0  0
 57 10  1  1  0  0  0
M  END
$$$$
