CSD_code = CAMTES | q = 0 | S = 0 | Stoichiometry = C35H38IIrN4 | MND = 6
 OpenBabel04212202013D

 79 84  0  0  1  0  0  0  0  0999 V2000
    7.0117    9.0627   12.3526 Ir  0  0  0  0  0  0  0  0  0  0  0  0
    6.8722    8.6092    9.7238 I   0  0  0  0  0 15  0  0  0  0  0  0
    3.5741    6.6773   12.2556 C   0  0  0  0  0  0  0  0  0  0  0  0
    0.6931    4.5403   11.9114 N   0  0  0  0  0  0  0  0  0  0  0  0
   -0.4826    7.1263   11.6362 N   0  0  0  0  0  0  0  0  0  0  0  0
    4.9217    6.8871   12.4321 N   0  0  0  0  0  0  0  0  0  0  0  0
    5.2045    8.2158   12.4016 C   0  0  0  0  0  3  0  0  0  0  0  0
    3.8864   10.2894   12.0541 C   0  0  0  0  0  0  0  0  0  0  0  0
    3.3010   10.4836   11.1503 H   0  0  0  0  0  0  0  0  0  0  0  0
    4.8928   10.6988   11.9102 H   0  0  0  0  0  0  0  0  0  0  0  0
    4.0242    8.8639   12.2160 N   0  0  0  0  0  0  0  0  0  0  0  0
    8.5412   10.5921   12.1162 C   0  0  0  0  0  3  0  0  0  0  0  0
    8.5107   10.9447   11.0870 H   0  0  0  0  0  0  0  0  0  0  0  0
    5.9028    5.8344   12.5178 C   0  0  0  0  0  0  0  0  0  0  0  0
    6.8869    6.2917   12.3693 H   0  0  0  0  0  0  0  0  0  0  0  0
    5.7236    5.1271   11.7021 H   0  0  0  0  0  0  0  0  0  0  0  0
    2.9898    7.9638   12.1165 C   0  0  0  0  0  0  0  0  0  0  0  0
   -1.1793    6.0274   11.5736 C   0  0  0  0  0  0  0  0  0  0  0  0
    1.6446    8.1273   11.9018 C   0  0  0  0  0  0  0  0  0  0  0  0
    1.1750    9.0876   11.7698 H   0  0  0  0  0  0  0  0  0  0  0  0
   -0.5824    4.7146   11.7130 C   0  0  0  0  0  0  0  0  0  0  0  0
    1.4423    5.6706   11.9753 C   0  0  0  0  0  0  0  0  0  0  0  0
    2.8240    5.5312   12.1803 C   0  0  0  0  0  0  0  0  0  0  0  0
    3.2391    4.5404   12.2565 H   0  0  0  0  0  0  0  0  0  0  0  0
    5.8653    5.1031   13.8600 C   0  0  0  0  0  0  0  0  0  0  0  0
    6.0263    5.8194   14.6685 H   0  0  0  0  0  0  0  0  0  0  0  0
    4.8809    4.6557   14.0093 H   0  0  0  0  0  0  0  0  0  0  0  0
    0.8512    6.9712   11.8365 C   0  0  0  0  0  0  0  0  0  0  0  0
   -4.0885    3.8676   11.2260 C   0  0  0  0  0  0  0  0  0  0  0  0
   -2.8326    4.4566   11.3911 C   0  0  0  0  0  0  0  0  0  0  0  0
    3.2251   10.9541   13.2618 C   0  0  0  0  0  0  0  0  0  0  0  0
    2.2022   10.5892   13.3710 H   0  0  0  0  0  0  0  0  0  0  0  0
    3.7697   10.6789   14.1677 H   0  0  0  0  0  0  0  0  0  0  0  0
   -1.6407    3.7227   11.5958 C   0  0  0  0  0  0  0  0  0  0  0  0
    6.8937    9.9499   14.2968 C   0  0  0  0  0  3  0  0  0  0  0  0
    5.8572   10.0885   14.5961 H   0  0  0  0  0  0  0  0  0  0  0  0
   -2.6098    5.8535   11.3705 C   0  0  0  0  0  0  0  0  0  0  0  0
   -5.1682    4.7587   11.0307 C   0  0  0  0  0  0  0  0  0  0  0  0
   -6.1652    4.3642   10.8969 H   0  0  0  0  0  0  0  0  0  0  0  0
   -1.7067    2.3529   11.6374 C   0  0  0  0  0  0  0  0  0  0  0  0
   -0.8228    1.7535   11.7909 H   0  0  0  0  0  0  0  0  0  0  0  0
    6.9361    4.0175   13.9240 C   0  0  0  0  0  0  0  0  0  0  0  0
    7.9175    4.4697   13.7668 H   0  0  0  0  0  0  0  0  0  0  0  0
    6.7710    3.3000   13.1178 H   0  0  0  0  0  0  0  0  0  0  0  0
   -4.1203    2.4555   11.2742 C   0  0  0  0  0  0  0  0  0  0  0  0
   -5.0624    1.9405   11.1516 H   0  0  0  0  0  0  0  0  0  0  0  0
   -3.6798    6.6906   11.1794 C   0  0  0  0  0  0  0  0  0  0  0  0
   -3.5571    7.7622   11.1554 H   0  0  0  0  0  0  0  0  0  0  0  0
   -2.9634    1.7406   11.4735 C   0  0  0  0  0  0  0  0  0  0  0  0
   -3.0133    0.6615   11.5053 H   0  0  0  0  0  0  0  0  0  0  0  0
   -4.9540    6.1161   11.0112 C   0  0  0  0  0  0  0  0  0  0  0  0
   -5.7957    6.7770   10.8606 H   0  0  0  0  0  0  0  0  0  0  0  0
    8.3194   11.6917   13.1264 C   0  0  0  0  0  0  0  0  0  0  0  0
    7.6235   12.4138   12.6920 H   0  0  0  0  0  0  0  0  0  0  0  0
    9.2634   12.2213   13.2960 H   0  0  0  0  0  0  0  0  0  0  0  0
    9.1849    9.4000   12.3721 C   0  0  0  0  0  3  0  0  0  0  0  0
    9.5957    8.8545   11.5254 H   0  0  0  0  0  0  0  0  0  0  0  0
    7.7478   11.1877   14.4642 C   0  0  0  0  0  0  0  0  0  0  0  0
    8.5556   10.9735   15.1665 H   0  0  0  0  0  0  0  0  0  0  0  0
    7.1422   11.9815   14.9073 H   0  0  0  0  0  0  0  0  0  0  0  0
    6.9201    3.2901   15.2625 C   0  0  0  0  0  0  0  0  0  0  0  0
    5.9545    2.8184   15.4291 H   0  0  0  0  0  0  0  0  0  0  0  0
    7.1061    3.9852   16.0782 H   0  0  0  0  0  0  0  0  0  0  0  0
    7.6866    2.5199   15.2873 H   0  0  0  0  0  0  0  0  0  0  0  0
    3.2160   12.4735   13.1172 C   0  0  0  0  0  0  0  0  0  0  0  0
    4.2436   12.8322   13.0279 H   0  0  0  0  0  0  0  0  0  0  0  0
    2.6899   12.7456   12.2000 H   0  0  0  0  0  0  0  0  0  0  0  0
    9.8129    9.0577   13.7032 C   0  0  0  0  0  0  0  0  0  0  0  0
   10.1541    9.9762   14.1839 H   0  0  0  0  0  0  0  0  0  0  0  0
   10.6964    8.4395   13.5304 H   0  0  0  0  0  0  0  0  0  0  0  0
    2.5443   13.1476   14.3068 C   0  0  0  0  0  0  0  0  0  0  0  0
    2.5494   14.2280   14.1861 H   0  0  0  0  0  0  0  0  0  0  0  0
    3.0657   12.9033   15.2300 H   0  0  0  0  0  0  0  0  0  0  0  0
    1.5121   12.8179   14.4001 H   0  0  0  0  0  0  0  0  0  0  0  0
    7.3973    8.6445   14.3986 C   0  0  2  0  0  0  0  0  0  0  0  0
    6.7182    7.8927   14.7992 H   0  0  0  0  0  0  0  0  0  0  0  0
    8.8477    8.2960   14.6297 C   0  0  0  0  0  0  0  0  0  0  0  0
    8.9656    7.2221   14.4620 H   0  0  0  0  0  0  0  0  0  0  0  0
    9.1060    8.4851   15.6781 H   0  0  0  0  0  0  0  0  0  0  0  0
  1  7  1  0  0  0  0
  1 75  1  0  0  0  0
  3  6  1  0  0  0  0
  4 22  1  0  0  0  0
  5 28  1  0  0  0  0
  6 14  1  0  0  0  0
  7  6  1  0  0  0  0
  8 11  1  0  0  0  0
  8 31  1  0  0  0  0
  9  8  1  0  0  0  0
 10  8  1  0  0  0  0
 11  7  1  0  0  0  0
 12 56  1  0  0  0  0
 12 53  1  0  0  0  0
 13 12  1  0  0  0  0
 14 25  1  0  0  0  0
 15 14  1  0  0  0  0
 16 14  1  0  0  0  0
 17 11  1  0  0  0  0
 17  3  2  0  0  0  0
 18  5  2  0  0  0  0
 18 21  1  0  0  0  0
 19 17  1  0  0  0  0
 20 19  1  0  0  0  0
 21  4  2  0  0  0  0
 22 23  2  0  0  0  0
 23  3  1  0  0  0  0
 23 24  1  0  0  0  0
 25 42  1  0  0  0  0
 25 27  1  0  0  0  0
 25 26  1  0  0  0  0
 28 19  2  0  0  0  0
 28 22  1  0  0  0  0
 29 45  2  0  0  0  0
 29 30  1  0  0  0  0
 30 34  2  0  0  0  0
 31 32  1  0  0  0  0
 31 33  1  0  0  0  0
 34 40  1  0  0  0  0
 34 21  1  0  0  0  0
 35 75  1  0  0  0  0
 35 58  1  0  0  0  0
 35 36  1  0  0  0  0
 37 30  1  0  0  0  0
 37 18  1  0  0  0  0
 38 29  1  0  0  0  0
 39 38  1  0  0  0  0
 40 41  1  0  0  0  0
 42 61  1  0  0  0  0
 43 42  1  0  0  0  0
 44 42  1  0  0  0  0
 45 49  1  0  0  0  0
 46 45  1  0  0  0  0
 47 37  2  0  0  0  0
 48 47  1  0  0  0  0
 49 50  1  0  0  0  0
 49 40  2  0  0  0  0
 51 38  2  0  0  0  0
 51 47  1  0  0  0  0
 52 51  1  0  0  0  0
 53 55  1  0  0  0  0
 53 58  1  0  0  0  0
 54 53  1  0  0  0  0
 56 68  1  0  0  0  0
 57 56  1  0  0  0  0
 58 60  1  0  0  0  0
 58 59  1  0  0  0  0
 61 64  1  0  0  0  0
 61 62  1  0  0  0  0
 61 63  1  0  0  0  0
 65 31  1  0  0  0  0
 65 71  1  0  0  0  0
 66 65  1  0  0  0  0
 67 65  1  0  0  0  0
 68 69  1  0  0  0  0
 68 77  1  0  0  0  0
 70 68  1  0  0  0  0
 71 74  1  0  0  0  0
 71 73  1  0  0  0  0
 72 71  1  0  0  0  0
 75 77  1  0  0  0  0
 75 76  1  1  0  0  0
 77 79  1  0  0  0  0
 78 77  1  0  0  0  0
M  END
$$$$
