CSD_code = CAMTEP | q = 0 | S = 0 | Stoichiometry = C37H32ClNOOsP2 | MND = 5
 OpenBabel04212202013D

 75 80  0  0  0  0  0  0  0  0999 V2000
    2.9106    1.3449    3.2765 Os  0  0  0  0  0  0  0  0  0  0  0  0
    1.4868    1.8692    5.0607 P   0  0  0  0  0  4  0  0  0  0  0  0
    4.0004    0.9500    1.2408 P   0  0  0  0  0  4  0  0  0  0  0  0
    1.9593    3.3418    2.1757 Cl  0  0  0  0  0  0  0  0  0  0  0  0
    4.3734    1.7168    4.1459 N   0  0  0  0  0  0  0  0  0  0  0  0
    5.3115    1.4325    4.8254 O   0  0  0  0  0  0  0  0  0  0  0  0
    2.0623   -0.3742    3.1302 C   0  0  0  0  0  3  0  0  0  0  0  0
    2.3309   -1.1525    2.4056 H   0  0  0  0  0  0  0  0  0  0  0  0
    1.3727   -0.8054    3.8659 H   0  0  0  0  0  0  0  0  0  0  0  0
   -0.1581    2.5046    4.6078 C   0  0  0  0  0  0  0  0  0  0  0  0
   -0.8076    1.9145    3.5279 C   0  0  0  0  0  0  0  0  0  0  0  0
   -2.0601    2.3553    3.1459 C   0  0  0  0  0  0  0  0  0  0  0  0
   -2.6712    3.3879    3.8394 C   0  0  0  0  0  0  0  0  0  0  0  0
   -2.0283    3.9763    4.9158 C   0  0  0  0  0  0  0  0  0  0  0  0
   -0.7739    3.5391    5.3036 C   0  0  0  0  0  0  0  0  0  0  0  0
    3.0434    1.3159   -0.2639 C   0  0  0  0  0  0  0  0  0  0  0  0
    3.6286    1.8706   -1.3971 C   0  0  0  0  0  0  0  0  0  0  0  0
    2.8552    2.1219   -2.5166 C   0  0  0  0  0  0  0  0  0  0  0  0
    1.5027    1.8235   -2.5122 C   0  0  0  0  0  0  0  0  0  0  0  0
    0.9182    1.2681   -1.3851 C   0  0  0  0  0  0  0  0  0  0  0  0
    1.6852    1.0143   -0.2641 C   0  0  0  0  0  0  0  0  0  0  0  0
    4.6482   -0.7236    0.9230 C   0  0  0  0  0  0  0  0  0  0  0  0
    4.6510   -1.3137   -0.3346 C   0  0  0  0  0  0  0  0  0  0  0  0
    5.1926   -2.5772   -0.4997 C   0  0  0  0  0  0  0  0  0  0  0  0
    5.7328   -3.2522    0.5822 C   0  0  0  0  0  0  0  0  0  0  0  0
    5.7284   -2.6670    1.8394 C   0  0  0  0  0  0  0  0  0  0  0  0
    5.1842   -1.4086    2.0113 C   0  0  0  0  0  0  0  0  0  0  0  0
    5.4828    1.9894    1.0368 C   0  0  0  0  0  0  0  0  0  0  0  0
    6.7606    1.4660    0.8756 C   0  0  0  0  0  0  0  0  0  0  0  0
    7.8444    2.3204    0.7661 C   0  0  0  0  0  0  0  0  0  0  0  0
    7.6620    3.6918    0.8203 C   0  0  0  0  0  0  0  0  0  0  0  0
    6.3894    4.2157    0.9879 C   0  0  0  0  0  0  0  0  0  0  0  0
    5.3023    3.3707    1.0994 C   0  0  0  0  0  0  0  0  0  0  0  0
    1.1049    0.5580    6.2669 C   0  0  0  0  0  0  0  0  0  0  0  0
    2.1553    3.1921    6.1205 C   0  0  0  0  0  0  0  0  0  0  0  0
    2.5055    4.3891    5.4969 C   0  0  0  0  0  0  0  0  0  0  0  0
    3.0475    5.4219    6.2372 C   0  0  0  0  0  0  0  0  0  0  0  0
    3.2502    5.2676    7.6000 C   0  0  0  0  0  0  0  0  0  0  0  0
    2.9087    4.0778    8.2203 C   0  0  0  0  0  0  0  0  0  0  0  0
    2.3634    3.0383    7.4865 C   0  0  0  0  0  0  0  0  0  0  0  0
    2.1443   -0.3058    6.6049 C   0  0  0  0  0  0  0  0  0  0  0  0
    1.9416   -1.3028    7.5397 C   0  0  0  0  0  0  0  0  0  0  0  0
    0.6977   -1.4487    8.1355 C   0  0  0  0  0  0  0  0  0  0  0  0
   -0.3399   -0.5972    7.7946 C   0  0  0  0  0  0  0  0  0  0  0  0
   -0.1409    0.4076    6.8628 C   0  0  0  0  0  0  0  0  0  0  0  0
   -0.3086    1.1213    2.9829 H   0  0  0  0  0  0  0  0  0  0  0  0
   -2.5581    1.9011    2.3018 H   0  0  0  0  0  0  0  0  0  0  0  0
   -3.6466    3.7393    3.5363 H   0  0  0  0  0  0  0  0  0  0  0  0
   -2.5029    4.7842    5.4537 H   0  0  0  0  0  0  0  0  0  0  0  0
   -0.2710    4.0047    6.1401 H   0  0  0  0  0  0  0  0  0  0  0  0
    4.6830    2.1110   -1.4000 H   0  0  0  0  0  0  0  0  0  0  0  0
    3.3102    2.5582   -3.3941 H   0  0  0  0  0  0  0  0  0  0  0  0
    0.9022    2.0304   -3.3859 H   0  0  0  0  0  0  0  0  0  0  0  0
   -0.1381    1.0419   -1.3791 H   0  0  0  0  0  0  0  0  0  0  0  0
    1.2380    0.5984    0.6315 H   0  0  0  0  0  0  0  0  0  0  0  0
    3.1047   -0.1855    6.1155 H   0  0  0  0  0  0  0  0  0  0  0  0
    2.7495   -1.9694    7.8026 H   0  0  0  0  0  0  0  0  0  0  0  0
    0.5362   -2.2303    8.8632 H   0  0  0  0  0  0  0  0  0  0  0  0
   -1.3095   -0.7149    8.2561 H   0  0  0  0  0  0  0  0  0  0  0  0
   -0.9517    1.0716    6.5974 H   0  0  0  0  0  0  0  0  0  0  0  0
    6.9096    0.3962    0.8365 H   0  0  0  0  0  0  0  0  0  0  0  0
    8.8362    1.9108    0.6403 H   0  0  0  0  0  0  0  0  0  0  0  0
    8.5122    4.3528    0.7365 H   0  0  0  0  0  0  0  0  0  0  0  0
    6.2455    5.2852    1.0359 H   0  0  0  0  0  0  0  0  0  0  0  0
    4.3066    3.7718    1.2368 H   0  0  0  0  0  0  0  0  0  0  0  0
    2.3480    4.5010    4.4320 H   0  0  0  0  0  0  0  0  0  0  0  0
    3.3168    6.3479    5.7507 H   0  0  0  0  0  0  0  0  0  0  0  0
    3.6780    6.0737    8.1779 H   0  0  0  0  0  0  0  0  0  0  0  0
    3.0696    3.9549    9.2816 H   0  0  0  0  0  0  0  0  0  0  0  0
    2.1025    2.1105    7.9757 H   0  0  0  0  0  0  0  0  0  0  0  0
    4.2291   -0.7887   -1.1801 H   0  0  0  0  0  0  0  0  0  0  0  0
    5.1924   -3.0360   -1.4777 H   0  0  0  0  0  0  0  0  0  0  0  0
    6.1537   -4.2376    0.4469 H   0  0  0  0  0  0  0  0  0  0  0  0
    6.1459   -3.1949    2.6839 H   0  0  0  0  0  0  0  0  0  0  0  0
    5.1567   -0.9408    2.9895 H   0  0  0  0  0  0  0  0  0  0  0  0
  1  5  1  0  0  0  0
  1  2  1  0  0  0  0
  2 35  1  0  0  0  0
  2 34  1  0  0  0  0
  3  1  1  0  0  0  0
  4  1  1  0  0  0  0
  5  6  2  0  0  0  0
  7  1  1  0  0  0  0
  7  9  1  0  0  0  0
  8  7  1  0  0  0  0
 10  2  1  0  0  0  0
 10 15  1  0  0  0  0
 11 10  2  0  0  0  0
 12 11  1  0  0  0  0
 12 13  2  0  0  0  0
 13 14  1  0  0  0  0
 14 15  2  0  0  0  0
 14 49  1  0  0  0  0
 15 50  1  0  0  0  0
 16  3  1  0  0  0  0
 17 16  2  0  0  0  0
 18 19  2  0  0  0  0
 18 17  1  0  0  0  0
 19 20  1  0  0  0  0
 20 54  1  0  0  0  0
 20 21  2  0  0  0  0
 21 16  1  0  0  0  0
 21 55  1  0  0  0  0
 22  3  1  0  0  0  0
 22 27  1  0  0  0  0
 23 22  2  0  0  0  0
 24 23  1  0  0  0  0
 24 25  2  0  0  0  0
 25 26  1  0  0  0  0
 26 27  2  0  0  0  0
 26 74  1  0  0  0  0
 27 75  1  0  0  0  0
 28 33  1  0  0  0  0
 28  3  1  0  0  0  0
 29 28  2  0  0  0  0
 30 31  2  0  0  0  0
 30 29  1  0  0  0  0
 31 32  1  0  0  0  0
 32 64  1  0  0  0  0
 32 33  2  0  0  0  0
 33 65  1  0  0  0  0
 34 41  2  0  0  0  0
 34 45  1  0  0  0  0
 35 40  1  0  0  0  0
 36 35  2  0  0  0  0
 36 37  1  0  0  0  0
 37 38  2  0  0  0  0
 38 68  1  0  0  0  0
 38 39  1  0  0  0  0
 39 69  1  0  0  0  0
 40 70  1  0  0  0  0
 40 39  2  0  0  0  0
 41 42  1  0  0  0  0
 42 57  1  0  0  0  0
 42 43  2  0  0  0  0
 43 58  1  0  0  0  0
 44 43  1  0  0  0  0
 44 59  1  0  0  0  0
 45 44  2  0  0  0  0
 46 11  1  0  0  0  0
 47 12  1  0  0  0  0
 48 13  1  0  0  0  0
 51 17  1  0  0  0  0
 52 18  1  0  0  0  0
 53 19  1  0  0  0  0
 56 41  1  0  0  0  0
 60 45  1  0  0  0  0
 61 29  1  0  0  0  0
 62 30  1  0  0  0  0
 63 31  1  0  0  0  0
 66 36  1  0  0  0  0
 67 37  1  0  0  0  0
 71 23  1  0  0  0  0
 72 24  1  0  0  0  0
 73 25  1  0  0  0  0
M  END
$$$$
