CSD_code = CANBID | q = 0 | S = 0 | Stoichiometry = C28H36Cl2N4Ni | MND = 6
 OpenBabel04212202013D

 71 74  0  0  0  0  0  0  0  0999 V2000
    2.8958    2.8957    2.6864 Ni  0  0  0  0  0  0  0  0  0  0  0  0
    2.8955    2.8959    0.5888 Cl  0  0  0  0  0  0  0  0  0  0  0  0
    1.3044    4.4867    2.6862 N   0  0  0  0  0  0  0  0  0  0  0  0
    1.3538    5.4918    1.8226 C   0  0  0  0  0  3  0  0  0  0  0  0
    2.1793    5.4857    1.1234 H   0  0  0  0  0  0  0  0  0  0  0  0
    0.4014    6.5035    1.7789 C   0  0  0  0  0  0  0  0  0  0  0  0
   -0.6471    6.4389    2.6866 C   0  0  0  0  0  0  0  0  0  0  0  0
   -1.4122    7.2043    2.6868 H   0  0  0  0  0  0  0  0  0  0  0  0
    0.5247    7.6262    0.7972 C   0  0  0  0  0  0  0  0  0  0  0  0
   -0.4525    8.0348    0.5496 H   0  0  0  0  0  0  0  0  0  0  0  0
    1.0113    7.2852   -0.1133 H   0  0  0  0  0  0  0  0  0  0  0  0
    1.1295    8.4278    1.2231 H   0  0  0  0  0  0  0  0  0  0  0  0
    2.8956    2.8959    4.7840 Cl  0  0  0  0  0  0  0  0  0  0  0  0
    1.3032    1.3029    2.6867 N   0  0  0  0  0  0  0  0  0  0  0  0
    4.4883    4.4884    2.6867 N   0  0  0  0  0  0  0  0  0  0  0  0
    4.4868    1.3043    2.6868 N   0  0  0  0  0  0  0  0  0  0  0  0
    0.2995    4.4375    3.5500 C   0  0  0  0  0  0  0  0  0  0  0  0
    0.2983    1.3520    1.8228 C   0  0  0  0  0  3  0  0  0  0  0  0
    1.3523    0.2982    3.5507 C   0  0  0  0  0  0  0  0  0  0  0  0
    5.4933    4.4392    1.8230 C   0  0  0  0  0  3  0  0  0  0  0  0
    4.4390    5.4932    3.5506 C   0  0  0  0  0  0  0  0  0  0  0  0
    5.4919    1.3537    3.5504 C   0  0  0  0  0  3  0  0  0  0  0  0
    4.4375    0.2994    1.8230 C   0  0  0  0  0  0  0  0  0  0  0  0
    0.3054    3.6119    4.2491 H   0  0  0  0  0  0  0  0  0  0  0  0
    0.3045    2.1774    1.1234 H   0  0  0  0  0  0  0  0  0  0  0  0
    2.1778    0.3045    4.2499 H   0  0  0  0  0  0  0  0  0  0  0  0
    5.4872    3.6138    1.1237 H   0  0  0  0  0  0  0  0  0  0  0  0
    3.6134    5.4870    4.2498 H   0  0  0  0  0  0  0  0  0  0  0  0
    5.4858    2.1791    4.2496 H   0  0  0  0  0  0  0  0  0  0  0  0
    3.6120    0.3053    1.1238 H   0  0  0  0  0  0  0  0  0  0  0  0
   -0.7119    5.3903    3.5941 C   0  0  0  0  0  0  0  0  0  0  0  0
   -0.7134    0.3996    1.7792 C   0  0  0  0  0  0  0  0  0  0  0  0
    0.3997   -0.7132    3.5948 C   0  0  0  0  0  0  0  0  0  0  0  0
    6.5049    5.3918    1.7793 C   0  0  0  0  0  0  0  0  0  0  0  0
    5.3916    6.5048    3.5947 C   0  0  0  0  0  0  0  0  0  0  0  0
    6.5035    0.4012    3.5941 C   0  0  0  0  0  0  0  0  0  0  0  0
    5.3903   -0.7120    1.7789 C   0  0  0  0  0  0  0  0  0  0  0  0
   -0.6488   -0.6487    2.6871 C   0  0  0  0  0  0  0  0  0  0  0  0
    6.4401    6.4402    2.6871 C   0  0  0  0  0  0  0  0  0  0  0  0
    6.4389   -0.6472    2.6864 C   0  0  0  0  0  0  0  0  0  0  0  0
   -1.4141   -1.4139    2.6873 H   0  0  0  0  0  0  0  0  0  0  0  0
    7.2054    7.2055    2.6872 H   0  0  0  0  0  0  0  0  0  0  0  0
    7.2043   -1.4124    2.6862 H   0  0  0  0  0  0  0  0  0  0  0  0
   -1.8343    5.2671    4.5760 C   0  0  0  0  0  0  0  0  0  0  0  0
    0.5229   -1.8355    4.5769 C   0  0  0  0  0  0  0  0  0  0  0  0
   -1.8359    0.5228    0.7974 C   0  0  0  0  0  0  0  0  0  0  0  0
    5.2682    7.6272    4.5766 C   0  0  0  0  0  0  0  0  0  0  0  0
    7.6275    5.2686    0.7976 C   0  0  0  0  0  0  0  0  0  0  0  0
    5.2671   -1.8344    0.7969 C   0  0  0  0  0  0  0  0  0  0  0  0
    7.6261    0.5245    4.5759 C   0  0  0  0  0  0  0  0  0  0  0  0
   -2.2428    6.2444    4.8237 H   0  0  0  0  0  0  0  0  0  0  0  0
   -0.4544   -2.2441    4.8246 H   0  0  0  0  0  0  0  0  0  0  0  0
   -2.2445   -0.4545    0.5498 H   0  0  0  0  0  0  0  0  0  0  0  0
    6.2454    8.0359    4.8243 H   0  0  0  0  0  0  0  0  0  0  0  0
    8.0360    6.2459    0.5499 H   0  0  0  0  0  0  0  0  0  0  0  0
    6.2444   -2.2428    0.5492 H   0  0  0  0  0  0  0  0  0  0  0  0
    8.0348   -0.4528    4.8234 H   0  0  0  0  0  0  0  0  0  0  0  0
   -1.4933    4.7806    5.4866 H   0  0  0  0  0  0  0  0  0  0  0  0
    1.0093   -1.4942    5.4875 H   0  0  0  0  0  0  0  0  0  0  0  0
   -1.4949    1.0093   -0.1132 H   0  0  0  0  0  0  0  0  0  0  0  0
    4.7817    7.2860    5.4871 H   0  0  0  0  0  0  0  0  0  0  0  0
    7.2865    4.7820   -0.1130 H   0  0  0  0  0  0  0  0  0  0  0  0
    4.7805   -1.4934   -0.1136 H   0  0  0  0  0  0  0  0  0  0  0  0
    7.2851    1.0109    5.4865 H   0  0  0  0  0  0  0  0  0  0  0  0
   -2.6361    4.6625    4.1504 H   0  0  0  0  0  0  0  0  0  0  0  0
    1.1278   -2.6372    4.1515 H   0  0  0  0  0  0  0  0  0  0  0  0
   -2.6375    1.1275    1.2231 H   0  0  0  0  0  0  0  0  0  0  0  0
    4.6633    8.4288    4.1510 H   0  0  0  0  0  0  0  0  0  0  0  0
    8.4291    4.6639    1.2234 H   0  0  0  0  0  0  0  0  0  0  0  0
    4.6626   -2.6362    1.2226 H   0  0  0  0  0  0  0  0  0  0  0  0
    8.4277    1.1294    4.1501 H   0  0  0  0  0  0  0  0  0  0  0  0
  1 14  1  0  0  0  0
  1 15  1  0  0  0  0
  1 16  1  0  0  0  0
  1 13  1  0  0  0  0
  2  1  1  0  0  0  0
  3  1  1  0  0  0  0
  3 17  1  0  0  0  0
  4  3  1  0  0  0  0
  5  4  1  0  0  0  0
  6  4  1  0  0  0  0
  6  7  2  0  0  0  0
  7  8  1  0  0  0  0
  7 31  1  0  0  0  0
  9 12  1  0  0  0  0
  9  6  1  0  0  0  0
 10  9  1  0  0  0  0
 11  9  1  0  0  0  0
 14 19  1  0  0  0  0
 15 21  1  0  0  0  0
 16 22  1  0  0  0  0
 17 31  2  0  0  0  0
 17 24  1  0  0  0  0
 18 14  1  0  0  0  0
 19 33  2  0  0  0  0
 19 26  1  0  0  0  0
 20 15  1  0  0  0  0
 21 35  2  0  0  0  0
 21 28  1  0  0  0  0
 22 36  1  0  0  0  0
 22 29  1  0  0  0  0
 23 16  1  0  0  0  0
 25 18  1  0  0  0  0
 27 20  1  0  0  0  0
 30 23  1  0  0  0  0
 31 44  1  0  0  0  0
 32 18  1  0  0  0  0
 32 38  2  0  0  0  0
 33 45  1  0  0  0  0
 34 20  1  0  0  0  0
 34 39  2  0  0  0  0
 35 47  1  0  0  0  0
 36 50  1  0  0  0  0
 37 23  2  0  0  0  0
 37 40  1  0  0  0  0
 38 41  1  0  0  0  0
 38 33  1  0  0  0  0
 39 42  1  0  0  0  0
 39 35  1  0  0  0  0
 40 36  2  0  0  0  0
 43 40  1  0  0  0  0
 44 51  1  0  0  0  0
 44 58  1  0  0  0  0
 45 52  1  0  0  0  0
 45 59  1  0  0  0  0
 46 67  1  0  0  0  0
 46 32  1  0  0  0  0
 47 54  1  0  0  0  0
 47 61  1  0  0  0  0
 48 69  1  0  0  0  0
 48 34  1  0  0  0  0
 49 70  1  0  0  0  0
 49 37  1  0  0  0  0
 50 57  1  0  0  0  0
 50 64  1  0  0  0  0
 53 46  1  0  0  0  0
 55 48  1  0  0  0  0
 56 49  1  0  0  0  0
 60 46  1  0  0  0  0
 62 48  1  0  0  0  0
 63 49  1  0  0  0  0
 65 44  1  0  0  0  0
 66 45  1  0  0  0  0
 68 47  1  0  0  0  0
 71 50  1  0  0  0  0
M  END
$$$$
