CSD_code = CANDIH | q = 0 | S = 0 | Stoichiometry = C29H23ClNO2PRuS | MND = 6
 OpenBabel04212202013D

 59 65  0  0  1  0  0  0  0  0999 V2000
    7.0422    6.3676    4.4887 Ru  0  0  0  0  0  0  0  0  0  0  0  0
    9.5330    6.9739    6.5572 O   0  0  0  0  0  1  0  0  0  0  0  0
    7.5709    4.4800    3.9004 N   0  0  0  0  0  0  0  0  0  0  0  0
   10.5059    6.9298    4.1398 C   0  0  0  0  0  0  0  0  0  0  0  0
    7.7658    7.0955    2.3580 Cl  0  0  0  0  0  0  0  0  0  0  0  0
   11.0742    8.4989    5.4529 H   0  0  0  0  0  0  0  0  0  0  0  0
    6.4126    9.1230    5.4811 O   0  0  0  0  0  1  0  0  0  0  0  0
   11.2751    8.0170    4.5077 C   0  0  0  0  0  0  0  0  0  0  0  0
    9.1696    6.4474    5.2580 S   0  0  2  0  0  0  0  0  0  0  0  0
    5.0680    5.8022    3.5132 P   0  0  0  0  0  4  0  0  0  0  0  0
   11.7160    6.7214    2.0960 C   0  0  0  0  0  0  0  0  0  0  0  0
   11.8815    6.2235    1.1524 H   0  0  0  0  0  0  0  0  0  0  0  0
   10.7132    6.2749    2.9390 C   0  0  0  0  0  0  0  0  0  0  0  0
   10.0982    5.4336    2.6538 H   0  0  0  0  0  0  0  0  0  0  0  0
    9.5516    4.6823    5.2218 C   0  0  0  0  0  0  0  0  0  0  0  0
   10.6414    4.1400    5.8460 C   0  0  0  0  0  0  0  0  0  0  0  0
   11.2778    4.7790    6.4387 H   0  0  0  0  0  0  0  0  0  0  0  0
   10.9105    2.7720    5.7085 C   0  0  0  0  0  0  0  0  0  0  0  0
   11.7645    2.3457    6.2120 H   0  0  0  0  0  0  0  0  0  0  0  0
   10.1096    1.9880    4.9201 C   0  0  0  0  0  0  0  0  0  0  0  0
   10.3278    0.9389    4.7846 H   0  0  0  0  0  0  0  0  0  0  0  0
    8.9830    2.5258    4.2658 C   0  0  0  0  0  0  0  0  0  0  0  0
    8.1330    1.7731    3.4291 C   0  0  0  0  0  0  0  0  0  0  0  0
    8.3301    0.7241    3.2689 H   0  0  0  0  0  0  0  0  0  0  0  0
    7.0775    2.4008    2.8242 C   0  0  0  0  0  0  0  0  0  0  0  0
    6.4237    1.8631    2.1544 H   0  0  0  0  0  0  0  0  0  0  0  0
   12.8878    9.3021    3.9430 H   0  0  0  0  0  0  0  0  0  0  0  0
   12.2810    8.4539    3.6633 C   0  0  0  0  0  0  0  0  0  0  0  0
   13.2743    8.1542    1.7922 H   0  0  0  0  0  0  0  0  0  0  0  0
   12.4967    7.8078    2.4570 C   0  0  0  0  0  0  0  0  0  0  0  0
    6.8175    3.7592    3.0777 C   0  0  0  0  0  0  0  0  0  0  0  0
    6.6268    5.7887    5.8441 H   0  0  0  0  0  0  0  0  0  0  0  0
    8.6742    3.8997    4.4499 C   0  0  2  0  0  3  0  0  0  0  0  0
    4.9005    3.7669    2.0706 H   0  0  0  0  0  0  0  0  0  0  0  0
    6.0822    4.9984    1.5288 H   0  0  0  0  0  0  0  0  0  0  0  0
    5.6840    4.4555    2.3980 C   0  0  0  0  0  0  0  0  0  0  0  0
    3.7544    4.9974    4.4746 C   0  0  0  0  0  0  0  0  0  0  0  0
    3.8737    3.6734    4.8835 C   0  0  0  0  0  0  0  0  0  0  0  0
    4.7397    3.0944    4.5915 H   0  0  0  0  0  0  0  0  0  0  0  0
    2.9840    2.0714    5.9840 H   0  0  0  0  0  0  0  0  0  0  0  0
    2.8922    3.1018    5.6726 C   0  0  0  0  0  0  0  0  0  0  0  0
    1.0309    3.4005    6.6851 H   0  0  0  0  0  0  0  0  0  0  0  0
    1.7954    3.8498    6.0688 C   0  0  0  0  0  0  0  0  0  0  0  0
    0.8377    5.7635    6.0060 H   0  0  0  0  0  0  0  0  0  0  0  0
    1.6853    5.1766    5.6846 C   0  0  0  0  0  0  0  0  0  0  0  0
    2.6630    5.7518    4.8946 C   0  0  0  0  0  0  0  0  0  0  0  0
    2.5921    6.7893    4.5968 H   0  0  0  0  0  0  0  0  0  0  0  0
    4.1315    6.8490    2.3644 C   0  0  0  0  0  0  0  0  0  0  0  0
    5.3206    8.5763    2.7711 H   0  0  0  0  0  0  0  0  0  0  0  0
    4.4879    8.1817    2.2043 C   0  0  0  0  0  0  0  0  0  0  0  0
    2.7352    8.4494    0.5894 C   0  0  0  0  0  0  0  0  0  0  0  0
    2.1916    9.0714   -0.1064 H   0  0  0  0  0  0  0  0  0  0  0  0
    3.7892    8.9794    1.3145 C   0  0  0  0  0  0  0  0  0  0  0  0
    4.0689   10.0142    1.1855 H   0  0  0  0  0  0  0  0  0  0  0  0
    2.3728    7.1207    0.7541 C   0  0  0  0  0  0  0  0  0  0  0  0
    1.5477    6.7115    0.1893 H   0  0  0  0  0  0  0  0  0  0  0  0
    3.0661    6.3190    1.6405 C   0  0  0  0  0  0  0  0  0  0  0  0
    2.7808    5.2852    1.7829 H   0  0  0  0  0  0  0  0  0  0  0  0
    6.6225    8.0670    5.0911 C   0  0  0  0  0  2  0  0  0  0  0  0
  1 59  1  0  0  0  0
  1  9  1  0  0  0  0
  1 32  1  0  0  0  0
  3 33  1  0  0  0  0
  3  1  1  0  0  0  0
  4  8  1  0  0  0  0
  4  9  1  0  0  0  0
  5  1  1  0  0  0  0
  8  6  1  0  0  0  0
  9  2  1  1  0  0  0
 10 37  1  0  0  0  0
 10  1  1  0  0  0  0
 11 30  2  0  0  0  0
 11 13  1  0  0  0  0
 12 11  1  0  0  0  0
 13  4  2  0  0  0  0
 14 13  1  0  0  0  0
 15  9  1  0  0  0  0
 15 16  2  0  0  0  0
 16 17  1  0  0  0  0
 18 16  1  0  0  0  0
 18 19  1  0  0  0  0
 20 18  2  0  0  0  0
 21 20  1  0  0  0  0
 22 20  1  0  0  0  0
 23 22  2  0  0  0  0
 24 23  1  0  0  0  0
 25 31  2  0  0  0  0
 25 23  1  0  0  0  0
 26 25  1  0  0  0  0
 28 27  1  0  0  0  0
 28  8  2  0  0  0  0
 29 30  1  0  0  0  0
 30 28  1  0  0  0  0
 31  3  1  0  0  0  0
 33 22  1  6  0  0  0
 33 15  1  0  0  0  0
 34 36  1  0  0  0  0
 35 36  1  0  0  0  0
 36 31  1  0  0  0  0
 36 10  1  0  0  0  0
 37 38  2  0  0  0  0
 37 46  1  0  0  0  0
 38 41  1  0  0  0  0
 39 38  1  0  0  0  0
 41 40  1  0  0  0  0
 41 43  2  0  0  0  0
 43 42  1  0  0  0  0
 45 44  1  0  0  0  0
 45 43  1  0  0  0  0
 46 45  2  0  0  0  0
 47 46  1  0  0  0  0
 48 10  1  0  0  0  0
 50 48  1  0  0  0  0
 50 49  1  0  0  0  0
 51 55  2  0  0  0  0
 51 53  1  0  0  0  0
 52 51  1  0  0  0  0
 53 50  2  0  0  0  0
 54 53  1  0  0  0  0
 55 57  1  0  0  0  0
 56 55  1  0  0  0  0
 57 58  1  0  0  0  0
 57 48  2  0  0  0  0
 59  7  1  0  0  0  0
M  END
$$$$
