CSD_code = CANWOE | q = 0 | S = 0 | Stoichiometry = C25H33Cl2NOSiTi | MND = 8
 OpenBabel04212202013D

 64 66  0  0  1  0  0  0  0  0999 V2000
    0.9063    2.3961    2.4434 Ti  0  0  0  0  0  0  0  0  0  0  0  0
    4.4622    0.7065    3.0862 Si  0  0  0  0  0  0  0  0  0  0  0  0
    1.9240    2.2161    0.5073 Cl  0  0  0  0  0  0  0  0  0  0  0  0
    0.9240    0.4873    3.5349 Cl  0  0  0  0  0  0  0  0  0  0  0  0
    3.5523    2.0783    3.1802 O   0  0  0  0  0  0  0  0  0  0  0  0
   -0.7480    2.0157    1.7384 N   0  0  0  0  0  0  0  0  0  0  0  0
    2.2782    3.9448    3.4600 C   0  0  1  0  0  3  0  0  0  0  0  0
    1.5873    4.6707    2.4535 C   0  0  1  0  0  3  0  0  0  0  0  0
    0.2174    4.6623    2.8001 C   0  0  0  0  0  0  0  0  0  0  0  0
   -0.5430    5.2420    2.2914 H   0  0  0  0  0  0  0  0  0  0  0  0
    0.0528    3.9303    3.9990 C   0  0  0  0  0  0  0  0  0  0  0  0
   -0.8534    3.8478    4.5868 H   0  0  0  0  0  0  0  0  0  0  0  0
    1.3229    3.4700    4.4101 C   0  0  1  0  0  0  0  0  0  0  0  0
    2.1328    5.4665    1.3028 C   0  0  0  0  0  0  0  0  0  0  0  0
    1.3096    5.9594    0.7855 H   0  0  0  0  0  0  0  0  0  0  0  0
    2.6615    4.8394    0.5853 H   0  0  0  0  0  0  0  0  0  0  0  0
    2.8277    6.2292    1.6567 H   0  0  0  0  0  0  0  0  0  0  0  0
    1.5716    2.7395    5.6996 C   0  0  0  0  0  0  0  0  0  0  0  0
    1.7708    3.4484    6.5073 H   0  0  0  0  0  0  0  0  0  0  0  0
    2.4240    2.0666    5.6200 H   0  0  0  0  0  0  0  0  0  0  0  0
    0.6917    2.1523    5.9678 H   0  0  0  0  0  0  0  0  0  0  0  0
    3.7206    3.4667    3.4929 C   0  0  0  0  0  0  0  0  0  0  0  0
    4.3213    3.7425    4.8688 C   0  0  0  0  0  0  0  0  0  0  0  0
    5.3948    3.0230    5.3699 C   0  0  0  0  0  0  0  0  0  0  0  0
    5.8085    2.2093    4.8025 H   0  0  0  0  0  0  0  0  0  0  0  0
    5.9501    3.3410    6.5981 C   0  0  0  0  0  0  0  0  0  0  0  0
    6.7790    2.7587    6.9729 H   0  0  0  0  0  0  0  0  0  0  0  0
    5.4589    4.4024    7.3357 C   0  0  0  0  0  0  0  0  0  0  0  0
    5.8942    4.6515    8.2919 H   0  0  0  0  0  0  0  0  0  0  0  0
    4.4097    5.1502    6.8294 C   0  0  0  0  0  0  0  0  0  0  0  0
    4.0254    5.9922    7.3868 H   0  0  0  0  0  0  0  0  0  0  0  0
    3.8479    4.8254    5.6084 C   0  0  0  0  0  0  0  0  0  0  0  0
    3.0308    5.4209    5.2252 H   0  0  0  0  0  0  0  0  0  0  0  0
    4.6110    4.1672    2.4683 C   0  0  0  0  0  0  0  0  0  0  0  0
    4.8907    3.5809    1.2410 C   0  0  0  0  0  0  0  0  0  0  0  0
    4.4584    2.6265    0.9904 H   0  0  0  0  0  0  0  0  0  0  0  0
    5.7061    4.2196    0.3227 C   0  0  0  0  0  0  0  0  0  0  0  0
    5.9089    3.7452   -0.6258 H   0  0  0  0  0  0  0  0  0  0  0  0
    6.2538    5.4558    0.6142 C   0  0  0  0  0  0  0  0  0  0  0  0
    6.8924    5.9534   -0.1006 H   0  0  0  0  0  0  0  0  0  0  0  0
    5.9733    6.0516    1.8317 C   0  0  0  0  0  0  0  0  0  0  0  0
    6.3915    7.0184    2.0715 H   0  0  0  0  0  0  0  0  0  0  0  0
    5.1599    5.4144    2.7516 C   0  0  0  0  0  0  0  0  0  0  0  0
    4.9558    5.8972    3.6953 H   0  0  0  0  0  0  0  0  0  0  0  0
   -2.0667    2.4427    2.1439 C   0  0  0  0  0  0  0  0  0  0  0  0
   -2.7621    2.3868    1.2946 H   0  0  0  0  0  0  0  0  0  0  0  0
   -2.0644    3.4691    2.5073 H   0  0  0  0  0  0  0  0  0  0  0  0
   -2.4584    1.7850    2.9382 H   0  0  0  0  0  0  0  0  0  0  0  0
   -0.8654    0.7650    1.0140 C   0  0  0  0  0  0  0  0  0  0  0  0
   -1.2805   -0.0186    1.6701 H   0  0  0  0  0  0  0  0  0  0  0  0
    0.1055    0.4223    0.6435 H   0  0  0  0  0  0  0  0  0  0  0  0
   -1.5415    0.8859    0.1546 H   0  0  0  0  0  0  0  0  0  0  0  0
    3.7325   -0.3209    1.6560 C   0  0  0  0  0  0  0  0  0  0  0  0
    2.6602   -0.4637    1.7714 H   0  0  0  0  0  0  0  0  0  0  0  0
    4.1936   -1.3038    1.6362 H   0  0  0  0  0  0  0  0  0  0  0  0
    3.8980    0.1394    0.6855 H   0  0  0  0  0  0  0  0  0  0  0  0
    6.3203    0.9853    2.6907 C   0  0  0  0  0  0  0  0  0  0  0  0
    6.5754    0.5383    1.7351 H   0  0  0  0  0  0  0  0  0  0  0  0
    6.9535    0.5148    3.4368 H   0  0  0  0  0  0  0  0  0  0  0  0
    6.5943    2.0347    2.6351 H   0  0  0  0  0  0  0  0  0  0  0  0
    4.2698   -0.2671    4.7228 C   0  0  0  0  0  0  0  0  0  0  0  0
    4.6289    0.2749    5.5935 H   0  0  0  0  0  0  0  0  0  0  0  0
    4.8170   -1.2028    4.6722 H   0  0  0  0  0  0  0  0  0  0  0  0
    3.2252   -0.5106    4.8949 H   0  0  0  0  0  0  0  0  0  0  0  0
  1  4  1  0  0  0  0
  1 13  1  0  0  0  0
  2  5  1  0  0  0  0
  2 61  1  0  0  0  0
  3  1  1  0  0  0  0
  5 22  1  0  0  0  0
  6 45  1  0  0  0  0
  6  1  1  0  0  0  0
  7 22  1  6  0  0  0
  7 13  1  0  0  0  0
  8 14  1  1  0  0  0
  8  9  1  0  0  0  0
  8  7  1  0  0  0  0
  9 11  2  0  0  0  0
 10  9  1  0  0  0  0
 11 13  1  0  0  0  0
 11 12  1  0  0  0  0
 13 18  1  1  0  0  0
 14 17  1  0  0  0  0
 15 14  1  0  0  0  0
 16 14  1  0  0  0  0
 18 21  1  0  0  0  0
 18 19  1  0  0  0  0
 20 18  1  0  0  0  0
 22 23  1  0  0  0  0
 23 24  2  0  0  0  0
 23 32  1  0  0  0  0
 24 26  1  0  0  0  0
 25 24  1  0  0  0  0
 26 27  1  0  0  0  0
 26 28  2  0  0  0  0
 28 29  1  0  0  0  0
 30 28  1  0  0  0  0
 30 31  1  0  0  0  0
 32 30  2  0  0  0  0
 33 32  1  0  0  0  0
 34 43  1  0  0  0  0
 34 22  1  0  0  0  0
 35 34  2  0  0  0  0
 36 35  1  0  0  0  0
 37 39  2  0  0  0  0
 37 35  1  0  0  0  0
 38 37  1  0  0  0  0
 39 41  1  0  0  0  0
 40 39  1  0  0  0  0
 41 42  1  0  0  0  0
 41 43  2  0  0  0  0
 43 44  1  0  0  0  0
 45 47  1  0  0  0  0
 45 48  1  0  0  0  0
 46 45  1  0  0  0  0
 49 50  1  0  0  0  0
 49  6  1  0  0  0  0
 51 49  1  0  0  0  0
 52 49  1  0  0  0  0
 53 54  1  0  0  0  0
 53  2  1  0  0  0  0
 55 53  1  0  0  0  0
 56 53  1  0  0  0  0
 57  2  1  0  0  0  0
 57 59  1  0  0  0  0
 58 57  1  0  0  0  0
 60 57  1  0  0  0  0
 61 64  1  0  0  0  0
 61 62  1  0  0  0  0
 63 61  1  0  0  0  0
M  END
$$$$
