CSD_code = CANWEU | q = 0 | S = 0 | Stoichiometry = C21H19Cl3OTi | MND = 8
 OpenBabel04212202013D

 45 48  0  0  1  0  0  0  0  0999 V2000
    2.6750    5.5389    8.2465 Ti  0  0  0  0  0  0  0  0  0  0  0  0
    4.7488    5.8829    7.8258 Cl  0  0  0  0  0  0  0  0  0  0  0  0
    1.9644    7.3198    7.2370 Cl  0  0  0  0  0  0  0  0  0  0  0  0
    2.5293    6.3307   10.2458 Cl  0  0  0  0  0  0  0  0  0  0  0  0
    4.8718    2.5601    8.0250 O   0  0  0  0  0  0  0  0  0  0  0  0
    2.6442    3.2934    8.2825 C   0  0  1  0  0  0  0  0  0  0  0  0
    1.4593    3.7091    8.9669 C   0  0  1  0  0  3  0  0  0  0  0  0
    0.6511    4.3991    8.0344 C   0  0  0  0  0  0  0  0  0  0  0  0
   -0.3476    4.7727    8.2270 H   0  0  0  0  0  0  0  0  0  0  0  0
    1.3022    4.3871    6.7804 C   0  0  0  0  0  0  0  0  0  0  0  0
    0.8900    4.7576    5.8495 H   0  0  0  0  0  0  0  0  0  0  0  0
    2.5351    3.7069    6.9149 C   0  0  2  0  0  3  0  0  0  0  0  0
    1.0196    3.3637   10.3594 C   0  0  0  0  0  0  0  0  0  0  0  0
    0.0330    3.7872   10.5428 H   0  0  0  0  0  0  0  0  0  0  0  0
    1.7039    3.7511   11.1140 H   0  0  0  0  0  0  0  0  0  0  0  0
    0.9610    2.2802   10.4756 H   0  0  0  0  0  0  0  0  0  0  0  0
    3.4522    3.4158    5.7625 C   0  0  0  0  0  0  0  0  0  0  0  0
    3.4729    2.3457    5.5544 H   0  0  0  0  0  0  0  0  0  0  0  0
    4.4724    3.7283    5.9799 H   0  0  0  0  0  0  0  0  0  0  0  0
    3.0978    3.9382    4.8735 H   0  0  0  0  0  0  0  0  0  0  0  0
    3.7354    2.4176    8.8636 C   0  0  0  0  0  0  0  0  0  0  0  0
    4.0373    2.7575   10.3161 C   0  0  0  0  0  0  0  0  0  0  0  0
    4.6014    3.9122   10.8148 C   0  0  0  0  0  0  0  0  0  0  0  0
    4.9062    4.7146   10.1523 H   0  0  0  0  0  0  0  0  0  0  0  0
    4.7941    4.0060   12.1889 C   0  0  0  0  0  0  0  0  0  0  0  0
    5.2268    4.9035   12.6037 H   0  0  0  0  0  0  0  0  0  0  0  0
    4.4384    2.9621   13.0293 C   0  0  0  0  0  0  0  0  0  0  0  0
    4.5929    3.0604   14.0937 H   0  0  0  0  0  0  0  0  0  0  0  0
    3.8995    1.7882   12.5235 C   0  0  0  0  0  0  0  0  0  0  0  0
    3.6414    0.9728   13.1821 H   0  0  0  0  0  0  0  0  0  0  0  0
    3.7054    1.6861   11.1567 C   0  0  0  0  0  0  0  0  0  0  0  0
    3.1871    0.5964   10.3388 C   0  0  0  0  0  0  0  0  0  0  0  0
    2.2893   -1.5121    9.6856 C   0  0  0  0  0  0  0  0  0  0  0  0
    1.9253   -2.4961    9.9418 H   0  0  0  0  0  0  0  0  0  0  0  0
    2.7223   -0.6594   10.6898 C   0  0  0  0  0  0  0  0  0  0  0  0
    2.6963   -0.9692   11.7236 H   0  0  0  0  0  0  0  0  0  0  0  0
    2.3161   -1.1183    8.3572 C   0  0  0  0  0  0  0  0  0  0  0  0
    1.9743   -1.7983    7.5912 H   0  0  0  0  0  0  0  0  0  0  0  0
    2.7754    0.1433    7.9988 C   0  0  0  0  0  0  0  0  0  0  0  0
    2.7917    0.4519    6.9647 H   0  0  0  0  0  0  0  0  0  0  0  0
    3.2130    0.9898    8.9928 C   0  0  0  0  0  0  0  0  0  0  0  0
    5.9883    1.7917    8.4056 C   0  0  0  0  0  0  0  0  0  0  0  0
    6.3527    2.0709    9.3999 H   0  0  0  0  0  0  0  0  0  0  0  0
    6.7581    2.0033    7.6664 H   0  0  0  0  0  0  0  0  0  0  0  0
    5.7582    0.7200    8.3987 H   0  0  0  0  0  0  0  0  0  0  0  0
  1  4  1  0  0  0  0
  2  1  1  0  0  0  0
  3  1  1  0  0  0  0
  5 42  1  0  0  0  0
  5 21  1  0  0  0  0
  6  1  1  1  0  0  0
  6 21  1  0  0  0  0
  6  7  1  0  0  0  0
  7 13  1  6  0  0  0
  8  9  1  0  0  0  0
  8  7  1  0  0  0  0
 10 12  1  0  0  0  0
 10  8  2  0  0  0  0
 11 10  1  0  0  0  0
 12 17  1  6  0  0  0
 12  6  1  0  0  0  0
 13 16  1  0  0  0  0
 13 14  1  0  0  0  0
 13 15  1  0  0  0  0
 17 19  1  0  0  0  0
 18 17  1  0  0  0  0
 20 17  1  0  0  0  0
 21 41  1  0  0  0  0
 21 22  1  0  0  0  0
 22 23  2  0  0  0  0
 22 31  1  0  0  0  0
 23 25  1  0  0  0  0
 24 23  1  0  0  0  0
 25 26  1  0  0  0  0
 25 27  2  0  0  0  0
 27 28  1  0  0  0  0
 29 27  1  0  0  0  0
 29 30  1  0  0  0  0
 31 29  2  0  0  0  0
 32 35  1  0  0  0  0
 32 31  1  0  0  0  0
 33 34  1  0  0  0  0
 33 35  2  0  0  0  0
 35 36  1  0  0  0  0
 37 33  1  0  0  0  0
 38 37  1  0  0  0  0
 39 37  2  0  0  0  0
 39 41  1  0  0  0  0
 40 39  1  0  0  0  0
 41 32  2  0  0  0  0
 42 43  1  0  0  0  0
 44 42  1  0  0  0  0
 45 42  1  0  0  0  0
M  END
$$$$
