CSD_code = CAPNIT | q = 0 | S = 0 | Stoichiometry = C18H32Cl2N8O4Pd | MND = 4
 OpenBabel04212202013D

 65 66  0  0  0  0  0  0  0  0999 V2000
    8.4525    5.2907    5.8601 Pd  0  0  0  0  0  0  0  0  0  0  0  0
   10.6408    4.5792    5.8291 Cl  0  0  0  0  0  0  0  0  0  0  0  0
    7.9185    3.5918    6.5883 N   0  0  0  0  0  0  0  0  0  0  0  0
    7.2041    3.5375    7.6652 N   0  0  0  0  0  2  0  0  0  0  0  0
    7.9575    1.8088    2.5929 O   0  0  0  0  0  0  0  0  0  0  0  0
    6.8554    2.2956    7.8168 N   0  0  0  0  0  0  0  0  0  0  0  0
    7.5797    3.6778    3.7794 O   0  0  0  0  0  0  0  0  0  0  0  0
    7.3169    1.5161    6.8699 N   0  0  0  0  0  0  0  0  0  0  0  0
    7.9963    2.3385    6.0917 C   0  0  0  0  0  0  0  0  0  0  0  0
    5.9732    1.8202    8.8643 C   0  0  0  0  0  0  0  0  0  0  0  0
    6.5499    0.5122    9.3997 C   0  0  0  0  0  0  0  0  0  0  0  0
    6.6523   -0.2097    8.5941 H   0  0  0  0  0  0  0  0  0  0  0  0
    5.8899    0.1039   10.1594 H   0  0  0  0  0  0  0  0  0  0  0  0
    7.5290    0.6797    9.8428 H   0  0  0  0  0  0  0  0  0  0  0  0
    8.0508    2.4463    3.6051 C   0  0  0  0  0  0  0  0  0  0  0  0
    8.7403    1.9535    4.8729 C   0  0  0  0  0  0  0  0  0  0  0  0
    8.8601    0.8725    4.8261 H   0  0  0  0  0  0  0  0  0  0  0  0
    9.7225    2.4487    4.9030 H   0  0  0  0  0  0  0  0  0  0  0  0
    5.8979    2.8893    9.9469 C   0  0  0  0  0  0  0  0  0  0  0  0
    6.8750    3.0544   10.3935 H   0  0  0  0  0  0  0  0  0  0  0  0
    5.2094    2.5698   10.7240 H   0  0  0  0  0  0  0  0  0  0  0  0
    5.5462    3.8288    9.5298 H   0  0  0  0  0  0  0  0  0  0  0  0
    4.6050    1.5945    8.2167 C   0  0  0  0  0  0  0  0  0  0  0  0
    4.2253    2.5268    7.8040 H   0  0  0  0  0  0  0  0  0  0  0  0
    3.9001    1.2293    8.9579 H   0  0  0  0  0  0  0  0  0  0  0  0
    4.6845    0.8624    7.4164 H   0  0  0  0  0  0  0  0  0  0  0  0
    8.0776    5.0165    1.8376 C   0  0  0  0  0  0  0  0  0  0  0  0
    7.6346    5.6768    1.0977 H   0  0  0  0  0  0  0  0  0  0  0  0
    8.6887    4.2726    1.3315 H   0  0  0  0  0  0  0  0  0  0  0  0
    8.7101    5.5932    2.5143 H   0  0  0  0  0  0  0  0  0  0  0  0
    6.9880    4.3374    2.6518 C   0  0  0  0  0  0  0  0  0  0  0  0
    6.4406    3.6003    2.0561 H   0  0  0  0  0  0  0  0  0  0  0  0
    6.3016    5.0684    3.0881 H   0  0  0  0  0  0  0  0  0  0  0  0
    6.2646    6.0035    5.8917 Cl  0  0  0  0  0  0  0  0  0  0  0  0
    8.9863    6.9898    5.1321 N   0  0  0  0  0  0  0  0  0  0  0  0
    9.7004    7.0439    4.0550 N   0  0  0  0  0  2  0  0  0  0  0  0
    8.9483    8.7735    9.1271 O   0  0  0  0  0  0  0  0  0  0  0  0
   10.0491    8.2858    3.9030 N   0  0  0  0  0  0  0  0  0  0  0  0
    9.3246    6.9039    7.9414 O   0  0  0  0  0  0  0  0  0  0  0  0
    9.5878    9.0655    4.8499 N   0  0  0  0  0  0  0  0  0  0  0  0
    8.9086    8.2432    5.6284 C   0  0  0  0  0  0  0  0  0  0  0  0
   10.9311    8.7609    2.8553 C   0  0  0  0  0  0  0  0  0  0  0  0
   10.3539   10.0685    2.3193 C   0  0  0  0  0  0  0  0  0  0  0  0
   10.2513   10.7908    3.1246 H   0  0  0  0  0  0  0  0  0  0  0  0
   11.0139   10.4767    1.5594 H   0  0  0  0  0  0  0  0  0  0  0  0
    9.3749    9.9005    1.8762 H   0  0  0  0  0  0  0  0  0  0  0  0
    8.8544    8.1358    8.1152 C   0  0  0  0  0  0  0  0  0  0  0  0
    8.1650    8.6285    6.8474 C   0  0  0  0  0  0  0  0  0  0  0  0
    8.0457    9.7096    6.8941 H   0  0  0  0  0  0  0  0  0  0  0  0
    7.1826    8.1338    6.8173 H   0  0  0  0  0  0  0  0  0  0  0  0
   11.0067    7.6914    1.7731 C   0  0  0  0  0  0  0  0  0  0  0  0
   10.0296    7.5259    1.3265 H   0  0  0  0  0  0  0  0  0  0  0  0
   11.6951    8.0107    0.9959 H   0  0  0  0  0  0  0  0  0  0  0  0
   11.3585    6.7521    2.1906 H   0  0  0  0  0  0  0  0  0  0  0  0
   12.2992    8.9873    3.5027 C   0  0  0  0  0  0  0  0  0  0  0  0
   12.6791    8.0553    3.9159 H   0  0  0  0  0  0  0  0  0  0  0  0
   13.0040    9.3523    2.7613 H   0  0  0  0  0  0  0  0  0  0  0  0
   12.2195    9.7198    4.3027 H   0  0  0  0  0  0  0  0  0  0  0  0
    8.8267    5.5651    9.8830 C   0  0  0  0  0  0  0  0  0  0  0  0
    9.2699    4.9048   10.6229 H   0  0  0  0  0  0  0  0  0  0  0  0
    8.2156    6.3089   10.3892 H   0  0  0  0  0  0  0  0  0  0  0  0
    8.1943    4.9884    9.2063 H   0  0  0  0  0  0  0  0  0  0  0  0
    9.9163    6.2442    9.0688 C   0  0  0  0  0  0  0  0  0  0  0  0
   10.4638    6.9813    9.6645 H   0  0  0  0  0  0  0  0  0  0  0  0
   10.6026    5.5132    8.6326 H   0  0  0  0  0  0  0  0  0  0  0  0
  1 34  1  0  0  0  0
  1  3  1  0  0  0  0
  2  1  1  0  0  0  0
  3  4  1  0  0  0  0
  4  6  1  0  0  0  0
  5 15  2  0  0  0  0
  6 10  1  0  0  0  0
  8  6  1  0  0  0  0
  9  3  1  0  0  0  0
  9  8  2  0  0  0  0
 10 11  1  0  0  0  0
 10 19  1  0  0  0  0
 11 14  1  0  0  0  0
 11 13  1  0  0  0  0
 12 11  1  0  0  0  0
 15  7  1  0  0  0  0
 15 16  1  0  0  0  0
 16 18  1  0  0  0  0
 16  9  1  0  0  0  0
 17 16  1  0  0  0  0
 19 20  1  0  0  0  0
 19 21  1  0  0  0  0
 22 19  1  0  0  0  0
 23 10  1  0  0  0  0
 23 25  1  0  0  0  0
 24 23  1  0  0  0  0
 26 23  1  0  0  0  0
 27 30  1  0  0  0  0
 27 31  1  0  0  0  0
 28 27  1  0  0  0  0
 29 27  1  0  0  0  0
 31 33  1  0  0  0  0
 31  7  1  0  0  0  0
 32 31  1  0  0  0  0
 35 41  1  0  0  0  0
 35  1  1  0  0  0  0
 36 35  1  0  0  0  0
 38 36  1  0  0  0  0
 38 40  1  0  0  0  0
 39 47  1  0  0  0  0
 39 63  1  0  0  0  0
 40 41  2  0  0  0  0
 41 48  1  0  0  0  0
 42 55  1  0  0  0  0
 42 38  1  0  0  0  0
 43 42  1  0  0  0  0
 43 44  1  0  0  0  0
 45 43  1  0  0  0  0
 46 43  1  0  0  0  0
 47 37  2  0  0  0  0
 48 49  1  0  0  0  0
 48 47  1  0  0  0  0
 50 48  1  0  0  0  0
 51 54  1  0  0  0  0
 51 42  1  0  0  0  0
 52 51  1  0  0  0  0
 53 51  1  0  0  0  0
 55 56  1  0  0  0  0
 55 58  1  0  0  0  0
 57 55  1  0  0  0  0
 59 61  1  0  0  0  0
 59 60  1  0  0  0  0
 62 59  1  0  0  0  0
 63 64  1  0  0  0  0
 63 59  1  0  0  0  0
 65 63  1  0  0  0  0
M  END
$$$$
