CSD_code = CAPNUF | q = 0 | S = 0 | Stoichiometry = C8H12Cl2N8O4Pd | MND = 4
 OpenBabel04212202013D

 35 36  0  0  1  0  0  0  0  0999 V2000
   -6.3042   10.4016    6.4863 Pd  0  0  0  0  0  0  0  0  0  0  0  0
   -5.1973   11.0137    4.5852 Cl  0  0  0  0  0  0  0  0  0  0  0  0
   -5.3542    8.7461    6.5077 N   0  0  0  0  0  0  0  0  0  0  0  0
   -5.7010    7.6034    5.9449 N   0  0  0  0  0  0  0  0  0  0  0  0
   -4.8206    6.7246    6.1628 N   0  0  0  0  0  0  0  0  0  0  0  0
   -3.8536    7.2832    6.8971 N   0  0  0  0  0  0  0  0  0  0  0  0
   -4.1920    8.5724    7.1124 C   0  0  2  0  0  3  0  0  0  0  0  0
   -3.4634    9.6120    7.8667 C   0  0  0  0  0  0  0  0  0  0  0  0
   -4.0683   10.5380    7.8485 H   0  0  0  0  0  0  0  0  0  0  0  0
   -2.4960    9.8086    7.4055 H   0  0  0  0  0  0  0  0  0  0  0  0
   -3.3107    9.3041    8.9011 H   0  0  0  0  0  0  0  0  0  0  0  0
   -1.7511    7.9262    5.5540 O   0  0  0  0  0  0  0  0  0  0  0  0
   -1.0060    8.1345    4.9677 H   0  0  0  0  0  0  0  0  0  0  0  0
   -2.6712    6.5727    7.2666 C   0  0  0  0  0  0  0  0  0  0  0  0
   -2.8688    5.5027    7.1590 H   0  0  0  0  0  0  0  0  0  0  0  0
   -2.4058    6.7800    8.3079 H   0  0  0  0  0  0  0  0  0  0  0  0
   -1.4705    6.9275    6.3821 C   0  0  0  0  0  0  0  0  0  0  0  0
   -0.4151    6.3716    6.4503 O   0  0  0  0  0  0  0  0  0  0  0  0
   -7.4104    9.7901    8.3884 Cl  0  0  0  0  0  0  0  0  0  0  0  0
   -7.2541   12.0571    6.4660 N   0  0  0  0  0  0  0  0  0  0  0  0
   -6.9074   13.1998    7.0288 N   0  0  0  0  0  0  0  0  0  0  0  0
   -7.7878   14.0786    6.8109 N   0  0  0  0  0  0  0  0  0  0  0  0
   -8.7549   13.5199    6.0766 N   0  0  0  0  0  0  0  0  0  0  0  0
   -8.4163   12.2308    5.8613 C   0  0  1  0  0  3  0  0  0  0  0  0
   -9.1448   11.1910    5.1070 C   0  0  0  0  0  0  0  0  0  0  0  0
   -8.5396   10.2652    5.1252 H   0  0  0  0  0  0  0  0  0  0  0  0
  -10.1120   10.9942    5.5682 H   0  0  0  0  0  0  0  0  0  0  0  0
   -9.2976   11.4989    4.0726 H   0  0  0  0  0  0  0  0  0  0  0  0
  -10.8573   12.8765    7.4196 O   0  0  0  0  0  0  0  0  0  0  0  0
  -11.6023   12.6681    8.0058 H   0  0  0  0  0  0  0  0  0  0  0  0
   -9.9374   14.2302    5.7072 C   0  0  0  0  0  0  0  0  0  0  0  0
   -9.7398   15.3003    5.8147 H   0  0  0  0  0  0  0  0  0  0  0  0
  -10.2027   14.0229    4.6658 H   0  0  0  0  0  0  0  0  0  0  0  0
  -11.1379   13.8753    6.5917 C   0  0  0  0  0  0  0  0  0  0  0  0
  -12.1934   14.4311    6.5235 O   0  0  0  0  0  0  0  0  0  0  0  0
  1  3  1  0  0  0  0
  1 19  1  0  0  0  0
  2  1  1  0  0  0  0
  3  7  1  0  0  0  0
  4  5  2  0  0  0  0
  4  3  1  0  0  0  0
  5  6  1  0  0  0  0
  6  7  1  0  0  0  0
  6 14  1  0  0  0  0
  7  8  1  1  0  0  0
  8 11  1  0  0  0  0
  9  8  1  0  0  0  0
 10  8  1  0  0  0  0
 12 17  1  0  0  0  0
 13 12  1  0  0  0  0
 14 16  1  0  0  0  0
 15 14  1  0  0  0  0
 17 18  2  0  0  0  0
 17 14  1  0  0  0  0
 20  1  1  0  0  0  0
 20 21  1  0  0  0  0
 22 21  2  0  0  0  0
 23 22  1  0  0  0  0
 24 25  1  6  0  0  0
 24 23  1  0  0  0  0
 24 20  1  0  0  0  0
 25 26  1  0  0  0  0
 25 27  1  0  0  0  0
 28 25  1  0  0  0  0
 29 30  1  0  0  0  0
 31 32  1  0  0  0  0
 31 23  1  0  0  0  0
 31 34  1  0  0  0  0
 33 31  1  0  0  0  0
 34 29  1  0  0  0  0
 35 34  2  0  0  0  0
M  END
$$$$
