CSD_code = CAQNEO | q = 0 | S = 0 | Stoichiometry = C36H44ClN5ORu | MND = 6
 OpenBabel04212202013D

 88 95  0  0  0  0  0  0  0  0999 V2000
    2.1858   15.1124    3.5701 Ru  0  0  0  0  0  0  0  0  0  0  0  0
    1.3057   13.4730    2.2913 Cl  0  0  0  0  0  0  0  0  0  0  0  0
    3.2891   17.1727    5.1778 O   0  0  0  0  0  1  0  0  0  0  0  0
    3.5216   15.4439    2.0421 N   0  0  0  0  0  0  0  0  0  0  0  0
    3.4413   13.6837    4.3524 N   0  0  0  0  0  4  0  0  0  0  0  0
    0.7702   14.6340    4.9837 N   0  0  0  0  0  0  0  0  0  0  0  0
    0.8512   16.3960    2.6745 N   0  0  0  0  0  4  0  0  0  0  0  0
    2.8359   16.3243    4.5177 N   0  0  0  0  0  2  0  0  0  0  0  0
    3.3414   16.2837    0.9930 C   0  0  0  0  0  0  0  0  0  0  0  0
    4.5004   16.2292    0.1303 C   0  0  0  0  0  0  0  0  0  0  0  0
    5.3631   15.3328    0.6907 C   0  0  0  0  0  0  0  0  0  0  0  0
    4.7272   14.8419    1.8928 C   0  0  0  0  0  0  0  0  0  0  0  0
    5.2649   13.8888    2.7450 C   0  0  0  0  0  0  0  0  0  0  0  0
    6.2452   13.5138    2.4934 H   0  0  0  0  0  0  0  0  0  0  0  0
    4.6596   13.3409    3.8663 C   0  0  0  0  0  0  0  0  0  0  0  0
    5.2273   12.2952    4.6877 C   0  0  0  0  0  0  0  0  0  0  0  0
    4.3115   12.0228    5.6619 C   0  0  0  0  0  0  0  0  0  0  0  0
    3.1881   12.9037    5.4322 C   0  0  0  0  0  0  0  0  0  0  0  0
    2.0295   12.9312    6.1943 C   0  0  0  0  0  0  0  0  0  0  0  0
    1.9824   12.2460    7.0269 H   0  0  0  0  0  0  0  0  0  0  0  0
    0.9121   13.7244    5.9792 C   0  0  0  0  0  0  0  0  0  0  0  0
   -0.2946   13.6922    6.7751 C   0  0  0  0  0  0  0  0  0  0  0  0
   -1.1546   14.5931    6.2176 C   0  0  0  0  0  0  0  0  0  0  0  0
   -0.4703   15.1720    5.0831 C   0  0  0  0  0  0  0  0  0  0  0  0
   -1.0113   16.1181    4.2252 C   0  0  0  0  0  0  0  0  0  0  0  0
   -2.0227   16.4340    4.4308 H   0  0  0  0  0  0  0  0  0  0  0  0
   -0.4003   16.6779    3.1129 C   0  0  0  0  0  0  0  0  0  0  0  0
   -1.0121   17.6443    2.2283 C   0  0  0  0  0  0  0  0  0  0  0  0
   -0.0980   17.9140    1.2518 C   0  0  0  0  0  0  0  0  0  0  0  0
    1.0686   17.1111    1.5433 C   0  0  0  0  0  0  0  0  0  0  0  0
    2.2189   17.0673    0.7695 C   0  0  0  0  0  0  0  0  0  0  0  0
    2.2318   17.6893   -0.1125 H   0  0  0  0  0  0  0  0  0  0  0  0
    4.6507   16.9920   -1.1428 C   0  0  0  0  0  0  0  0  0  0  0  0
    5.7093   17.0716   -1.3976 H   0  0  0  0  0  0  0  0  0  0  0  0
    4.2626   18.0052   -1.0151 H   0  0  0  0  0  0  0  0  0  0  0  0
    3.9085   16.3026   -2.2906 C   0  0  0  0  0  0  0  0  0  0  0  0
    4.0032   16.8820   -3.2063 H   0  0  0  0  0  0  0  0  0  0  0  0
    2.8533   16.1924   -2.0522 H   0  0  0  0  0  0  0  0  0  0  0  0
    4.3200   15.3113   -2.4640 H   0  0  0  0  0  0  0  0  0  0  0  0
    6.6872   14.8729    0.1801 C   0  0  0  0  0  0  0  0  0  0  0  0
    7.3849   14.7583    1.0130 H   0  0  0  0  0  0  0  0  0  0  0  0
    7.0983   15.6241   -0.4969 H   0  0  0  0  0  0  0  0  0  0  0  0
    6.5596   13.5418   -0.5652 C   0  0  0  0  0  0  0  0  0  0  0  0
    7.5351   13.2027   -0.9070 H   0  0  0  0  0  0  0  0  0  0  0  0
    5.9094   13.6540   -1.4292 H   0  0  0  0  0  0  0  0  0  0  0  0
    6.1312   12.7804    0.0821 H   0  0  0  0  0  0  0  0  0  0  0  0
    6.5439   11.6392    4.4400 C   0  0  0  0  0  0  0  0  0  0  0  0
    6.8992   11.1743    5.3616 H   0  0  0  0  0  0  0  0  0  0  0  0
    7.2799   12.3889    4.1404 H   0  0  0  0  0  0  0  0  0  0  0  0
    6.4319   10.5703    3.3498 C   0  0  0  0  0  0  0  0  0  0  0  0
    7.4030   10.1187    3.1590 H   0  0  0  0  0  0  0  0  0  0  0  0
    6.0598   11.0045    2.4250 H   0  0  0  0  0  0  0  0  0  0  0  0
    5.7409    9.7892    3.6568 H   0  0  0  0  0  0  0  0  0  0  0  0
    4.3832   10.9984    6.7438 C   0  0  0  0  0  0  0  0  0  0  0  0
    3.9616   11.4045    7.6662 H   0  0  0  0  0  0  0  0  0  0  0  0
    5.4273   10.7463    6.9388 H   0  0  0  0  0  0  0  0  0  0  0  0
    3.6244    9.7276    6.3530 C   0  0  0  0  0  0  0  0  0  0  0  0
    3.6600    9.0002    7.1611 H   0  0  0  0  0  0  0  0  0  0  0  0
    4.0678    9.2816    5.4662 H   0  0  0  0  0  0  0  0  0  0  0  0
    2.5846    9.9558    6.1316 H   0  0  0  0  0  0  0  0  0  0  0  0
   -0.4940   12.8445    7.9861 C   0  0  0  0  0  0  0  0  0  0  0  0
   -0.0742   11.8506    7.8153 H   0  0  0  0  0  0  0  0  0  0  0  0
   -1.5621   12.7250    8.1762 H   0  0  0  0  0  0  0  0  0  0  0  0
    0.1672   13.4727    9.2156 C   0  0  0  0  0  0  0  0  0  0  0  0
    0.0288   12.8368   10.0871 H   0  0  0  0  0  0  0  0  0  0  0  0
   -0.2715   14.4455    9.4240 H   0  0  0  0  0  0  0  0  0  0  0  0
    1.2330   13.6106    9.0486 H   0  0  0  0  0  0  0  0  0  0  0  0
   -2.5230   14.9757    6.6717 C   0  0  0  0  0  0  0  0  0  0  0  0
   -2.9369   14.1806    7.2945 H   0  0  0  0  0  0  0  0  0  0  0  0
   -3.1794   15.0960    5.8070 H   0  0  0  0  0  0  0  0  0  0  0  0
   -2.4941   16.2784    7.4754 C   0  0  0  0  0  0  0  0  0  0  0  0
   -3.4994   16.5565    7.7838 H   0  0  0  0  0  0  0  0  0  0  0  0
   -2.0751   17.0864    6.8803 H   0  0  0  0  0  0  0  0  0  0  0  0
   -1.8798   16.1595    8.3647 H   0  0  0  0  0  0  0  0  0  0  0  0
   -2.3697   18.2322    2.4186 C   0  0  0  0  0  0  0  0  0  0  0  0
   -3.0687   17.4542    2.7339 H   0  0  0  0  0  0  0  0  0  0  0  0
   -2.7288   18.6367    1.4706 H   0  0  0  0  0  0  0  0  0  0  0  0
   -2.3458   19.3504    3.4639 C   0  0  0  0  0  0  0  0  0  0  0  0
   -3.3441   19.7581    3.6065 H   0  0  0  0  0  0  0  0  0  0  0  0
   -1.6868   20.1533    3.1425 H   0  0  0  0  0  0  0  0  0  0  0  0
   -1.9821   18.9755    4.4178 H   0  0  0  0  0  0  0  0  0  0  0  0
   -0.2123   18.8666    0.1096 C   0  0  0  0  0  0  0  0  0  0  0  0
   -1.2658   19.0615   -0.0990 H   0  0  0  0  0  0  0  0  0  0  0  0
    0.2272   18.4237   -0.7869 H   0  0  0  0  0  0  0  0  0  0  0  0
    0.4907   20.1903    0.4213 C   0  0  0  0  0  0  0  0  0  0  0  0
    0.4157   20.8683   -0.4259 H   0  0  0  0  0  0  0  0  0  0  0  0
    1.5420   20.0225    0.6434 H   0  0  0  0  0  0  0  0  0  0  0  0
    0.0336   20.6656    1.2859 H   0  0  0  0  0  0  0  0  0  0  0  0
  1  5  1  0  0  0  0
  1  8  1  0  0  0  0
  1  6  1  0  0  0  0
  2  1  1  0  0  0  0
  4  1  1  0  0  0  0
  5 18  1  0  0  0  0
  6 24  1  0  0  0  0
  6 21  1  0  0  0  0
  7 27  1  0  0  0  0
  7  1  1  0  0  0  0
  8  3  1  0  0  0  0
  9  4  1  0  0  0  0
 10 11  2  0  0  0  0
 10  9  1  0  0  0  0
 11 12  1  0  0  0  0
 12  4  1  0  0  0  0
 12 13  2  0  0  0  0
 13 15  1  0  0  0  0
 14 13  1  0  0  0  0
 15  5  2  0  0  0  0
 15 16  1  0  0  0  0
 16 17  2  0  0  0  0
 17 54  1  0  0  0  0
 18 17  1  0  0  0  0
 18 19  2  0  0  0  0
 19 20  1  0  0  0  0
 21 19  1  0  0  0  0
 21 22  2  0  0  0  0
 22 61  1  0  0  0  0
 23 68  1  0  0  0  0
 23 22  1  0  0  0  0
 24 23  2  0  0  0  0
 25 26  1  0  0  0  0
 25 24  1  0  0  0  0
 27 25  2  0  0  0  0
 28 75  1  0  0  0  0
 28 27  1  0  0  0  0
 29 30  1  0  0  0  0
 29 28  2  0  0  0  0
 30  7  2  0  0  0  0
 31  9  2  0  0  0  0
 31 30  1  0  0  0  0
 32 31  1  0  0  0  0
 33 35  1  0  0  0  0
 33 10  1  0  0  0  0
 34 33  1  0  0  0  0
 36 38  1  0  0  0  0
 36 33  1  0  0  0  0
 37 36  1  0  0  0  0
 39 36  1  0  0  0  0
 40 11  1  0  0  0  0
 40 41  1  0  0  0  0
 42 40  1  0  0  0  0
 43 46  1  0  0  0  0
 43 40  1  0  0  0  0
 44 43  1  0  0  0  0
 45 43  1  0  0  0  0
 47 16  1  0  0  0  0
 47 48  1  0  0  0  0
 49 47  1  0  0  0  0
 50 53  1  0  0  0  0
 50 47  1  0  0  0  0
 51 50  1  0  0  0  0
 52 50  1  0  0  0  0
 54 56  1  0  0  0  0
 54 55  1  0  0  0  0
 57 54  1  0  0  0  0
 57 58  1  0  0  0  0
 59 57  1  0  0  0  0
 60 57  1  0  0  0  0
 61 63  1  0  0  0  0
 61 64  1  0  0  0  0
 62 61  1  0  0  0  0
 64 66  1  0  0  0  0
 64 65  1  0  0  0  0
 67 64  1  0  0  0  0
 68 69  1  0  0  0  0
 68 71  1  0  0  0  0
 70 68  1  0  0  0  0
 71 72  1  0  0  0  0
 71 74  1  0  0  0  0
 73 71  1  0  0  0  0
 75 76  1  0  0  0  0
 75 78  1  0  0  0  0
 77 75  1  0  0  0  0
 78 79  1  0  0  0  0
 78 81  1  0  0  0  0
 80 78  1  0  0  0  0
 82 85  1  0  0  0  0
 82 29  1  0  0  0  0
 83 82  1  0  0  0  0
 84 82  1  0  0  0  0
 85 87  1  0  0  0  0
 85 88  1  0  0  0  0
 86 85  1  0  0  0  0
M  END
$$$$
