CSD_code = CAQRAO | q = 0 | S = 0 | Stoichiometry = C22H36Cl2P2Pd | MND = 4
 OpenBabel04212202013D

 63 66  0  0  1  0  0  0  0  0999 V2000
   -0.0009   21.0431   -0.1518 Pd  0  0  0  0  0  0  0  0  0  0  0  0
    1.6344   21.4634   -1.6744 Cl  0  0  0  0  0  0  0  0  0  0  0  0
    1.3588   21.7574    1.4528 P   0  0  1  0  0  4  0  0  0  0  0  0
    5.1948   20.1618    2.0986 C   0  0  0  0  0  0  0  0  0  0  0  0
    5.5331   19.3385    2.7234 H   0  0  0  0  0  0  0  0  0  0  0  0
    5.8285   21.0229    2.2958 H   0  0  0  0  0  0  0  0  0  0  0  0
    5.3157   19.8757    1.0568 H   0  0  0  0  0  0  0  0  0  0  0  0
    3.7347   20.4867    2.3945 C   0  0  0  0  0  0  0  0  0  0  0  0
    3.6338   20.7739    3.4431 H   0  0  0  0  0  0  0  0  0  0  0  0
    3.1275   19.5885    2.2388 H   0  0  0  0  0  0  0  0  0  0  0  0
    3.2045   21.5906    1.4836 C   0  0  2  0  0  0  0  0  0  0  0  0
    3.4252   21.3169    0.4400 H   0  0  0  0  0  0  0  0  0  0  0  0
    3.7348   23.0076    1.7228 C   0  0  0  0  0  0  0  0  0  0  0  0
    4.7608   23.1027    1.3667 H   0  0  0  0  0  0  0  0  0  0  0  0
    3.7218   23.2486    2.7891 H   0  0  0  0  0  0  0  0  0  0  0  0
    2.8022   23.9471    0.9609 C   0  0  0  0  0  0  0  0  0  0  0  0
    3.0463   24.9925    1.1513 H   0  0  0  0  0  0  0  0  0  0  0  0
    2.8941   23.7497   -0.1098 H   0  0  0  0  0  0  0  0  0  0  0  0
    1.3744   23.6136    1.4055 C   0  0  1  0  0  0  0  0  0  0  0  0
    1.1992   23.9929    2.4225 H   0  0  0  0  0  0  0  0  0  0  0  0
    0.2616   24.1067    0.4738 C   0  0  0  0  0  0  0  0  0  0  0  0
    0.4628   23.7457   -0.5478 H   0  0  0  0  0  0  0  0  0  0  0  0
   -0.6966   23.6722    0.8118 H   0  0  0  0  0  0  0  0  0  0  0  0
    0.1413   25.6256    0.4569 C   0  0  0  0  0  0  0  0  0  0  0  0
   -0.6896   25.9299   -0.1742 H   0  0  0  0  0  0  0  0  0  0  0  0
    1.0486   26.0778    0.0647 H   0  0  0  0  0  0  0  0  0  0  0  0
   -0.0315   26.0096    1.4612 H   0  0  0  0  0  0  0  0  0  0  0  0
    0.6147   21.3782    3.0790 C   0  0  0  0  0  0  0  0  0  0  0  0
    1.2025   21.7325    4.2878 C   0  0  0  0  0  0  0  0  0  0  0  0
    2.1320   22.2826    4.2925 H   0  0  0  0  0  0  0  0  0  0  0  0
    0.5967   21.3947    5.4849 C   0  0  0  0  0  0  0  0  0  0  0  0
    1.0582   21.6747    6.4201 H   0  0  0  0  0  0  0  0  0  0  0  0
   -1.6362   20.6229   -1.6744 Cl  0  0  0  0  0  0  0  0  0  0  0  0
   -1.3597   20.3278    1.4529 P   0  0  1  0  0  4  0  0  0  0  0  0
   -5.1980   21.9180    2.0985 C   0  0  0  0  0  0  0  0  0  0  0  0
   -5.5376   22.7410    2.7231 H   0  0  0  0  0  0  0  0  0  0  0  0
   -5.8303   21.0561    2.2960 H   0  0  0  0  0  0  0  0  0  0  0  0
   -5.3195   22.2036    1.0566 H   0  0  0  0  0  0  0  0  0  0  0  0
   -3.7374   21.5956    2.3944 C   0  0  0  0  0  0  0  0  0  0  0  0
   -3.6359   21.3089    3.4431 H   0  0  0  0  0  0  0  0  0  0  0  0
   -3.1316   22.4946    2.2383 H   0  0  0  0  0  0  0  0  0  0  0  0
   -3.2057   20.4921    1.4839 C   0  0  2  0  0  0  0  0  0  0  0  0
   -3.4267   20.7654    0.4401 H   0  0  0  0  0  0  0  0  0  0  0  0
   -3.7340   19.0744    1.7232 C   0  0  0  0  0  0  0  0  0  0  0  0
   -4.7600   18.9780    1.3673 H   0  0  0  0  0  0  0  0  0  0  0  0
   -3.7205   18.8334    2.7895 H   0  0  0  0  0  0  0  0  0  0  0  0
   -2.8003   18.1362    0.9610 C   0  0  0  0  0  0  0  0  0  0  0  0
   -3.0430   17.0904    1.1515 H   0  0  0  0  0  0  0  0  0  0  0  0
   -2.8928   18.3334   -0.1096 H   0  0  0  0  0  0  0  0  0  0  0  0
   -1.3729   18.4716    1.4054 C   0  0  1  0  0  0  0  0  0  0  0  0
   -1.1970   18.0924    2.4223 H   0  0  0  0  0  0  0  0  0  0  0  0
   -0.2597   17.9798    0.4733 C   0  0  0  0  0  0  0  0  0  0  0  0
   -0.4615   18.3408   -0.5482 H   0  0  0  0  0  0  0  0  0  0  0  0
    0.6981   18.4154    0.8112 H   0  0  0  0  0  0  0  0  0  0  0  0
   -0.1377   16.4611    0.4562 C   0  0  0  0  0  0  0  0  0  0  0  0
    0.6936   16.1579   -0.1750 H   0  0  0  0  0  0  0  0  0  0  0  0
   -1.0444   16.0080    0.0639 H   0  0  0  0  0  0  0  0  0  0  0  0
    0.0356   16.0771    1.4604 H   0  0  0  0  0  0  0  0  0  0  0  0
   -0.6157   20.7072    3.0790 C   0  0  0  0  0  0  0  0  0  0  0  0
   -1.2034   20.3532    4.2879 C   0  0  0  0  0  0  0  0  0  0  0  0
   -2.1329   19.8029    4.2928 H   0  0  0  0  0  0  0  0  0  0  0  0
   -0.5976   20.6911    5.4850 C   0  0  0  0  0  0  0  0  0  0  0  0
   -1.0591   20.4114    6.4203 H   0  0  0  0  0  0  0  0  0  0  0  0
  1  3  1  0  0  0  0
  1 34  1  0  0  0  0
  2  1  1  0  0  0  0
  3 11  1  0  0  0  0
  3 28  1  1  0  0  0
  4  6  1  0  0  0  0
  4  8  1  0  0  0  0
  4  5  1  0  0  0  0
  7  4  1  0  0  0  0
  8  9  1  0  0  0  0
 10  8  1  0  0  0  0
 11 12  1  6  0  0  0
 11 13  1  0  0  0  0
 11  8  1  0  0  0  0
 13 15  1  0  0  0  0
 14 13  1  0  0  0  0
 16 17  1  0  0  0  0
 16 19  1  0  0  0  0
 16 13  1  0  0  0  0
 18 16  1  0  0  0  0
 19  3  1  0  0  0  0
 19 20  1  1  0  0  0
 21 23  1  0  0  0  0
 21 19  1  0  0  0  0
 22 21  1  0  0  0  0
 24 21  1  0  0  0  0
 24 27  1  0  0  0  0
 25 24  1  0  0  0  0
 26 24  1  0  0  0  0
 28 59  2  0  0  0  0
 28 29  1  0  0  0  0
 29 30  1  0  0  0  0
 29 31  2  0  0  0  0
 31 62  1  0  0  0  0
 31 32  1  0  0  0  0
 33  1  1  0  0  0  0
 34 42  1  0  0  0  0
 34 59  1  1  0  0  0
 35 37  1  0  0  0  0
 35 39  1  0  0  0  0
 35 36  1  0  0  0  0
 38 35  1  0  0  0  0
 39 40  1  0  0  0  0
 41 39  1  0  0  0  0
 42 43  1  6  0  0  0
 42 44  1  0  0  0  0
 42 39  1  0  0  0  0
 44 46  1  0  0  0  0
 45 44  1  0  0  0  0
 47 48  1  0  0  0  0
 47 50  1  0  0  0  0
 47 44  1  0  0  0  0
 49 47  1  0  0  0  0
 50 34  1  0  0  0  0
 50 51  1  1  0  0  0
 52 54  1  0  0  0  0
 52 50  1  0  0  0  0
 53 52  1  0  0  0  0
 55 52  1  0  0  0  0
 55 58  1  0  0  0  0
 56 55  1  0  0  0  0
 57 55  1  0  0  0  0
 59 60  1  0  0  0  0
 60 61  1  0  0  0  0
 60 62  2  0  0  0  0
 62 63  1  0  0  0  0
M  END
$$$$
