CSD_code = CAQSEU | q = 0 | S = 0 | Stoichiometry = C29H23ClN3PPdS | MND = 4
 OpenBabel04212202013D

 59 64  0  0  0  0  0  0  0  0999 V2000
   -4.1375    2.4694  -15.9887 Pd  0  0  1  0  0  0  0  0  0  0  0  0
   -3.6060    1.3958  -17.9536 Cl  0  0  0  0  0  0  0  0  0  0  0  0
   -4.6726    3.4610  -13.9890 S   0  0  0  0  0  0  0  0  0  0  0  0
   -2.4774    1.2248  -15.2011 P   0  0  0  0  0  4  0  0  0  0  0  0
   -5.6746    3.6071  -16.7714 N   0  0  0  0  0  0  0  0  0  0  0  0
   -6.8196    5.0549  -13.7307 N   0  0  0  0  0  2  0  0  0  0  0  0
   -6.4133    5.9506   -9.6918 N   0  0  0  0  0  0  0  0  0  0  0  0
   -5.9711    3.6115  -18.0695 C   0  0  0  0  0  0  0  0  0  0  0  0
   -5.3591    2.9772  -18.7033 H   0  0  0  0  0  0  0  0  0  0  0  0
   -7.0010    4.3711  -18.5970 C   0  0  0  0  0  0  0  0  0  0  0  0
   -7.1999    4.3412  -19.6562 H   0  0  0  0  0  0  0  0  0  0  0  0
   -7.7598    5.1571  -17.7416 C   0  0  0  0  0  0  0  0  0  0  0  0
   -8.5732    5.7592  -18.1177 H   0  0  0  0  0  0  0  0  0  0  0  0
   -7.4511    5.1547  -16.3958 C   0  0  0  0  0  0  0  0  0  0  0  0
   -7.9972    5.7411  -15.6748 H   0  0  0  0  0  0  0  0  0  0  0  0
   -6.3950    4.3690  -15.9339 C   0  0  0  0  0  0  0  0  0  0  0  0
   -6.0522    4.3845  -14.5021 C   0  0  0  0  0  0  0  0  0  0  0  0
   -6.6330    5.2923  -12.3971 C   0  0  0  0  0  0  0  0  0  0  0  0
   -7.7190    5.1543  -11.5252 C   0  0  0  0  0  0  0  0  0  0  0  0
   -8.6593    4.7763  -11.8951 H   0  0  0  0  0  0  0  0  0  0  0  0
   -7.5466    5.4864  -10.1968 C   0  0  0  0  0  0  0  0  0  0  0  0
   -8.3611    5.3820   -9.4909 H   0  0  0  0  0  0  0  0  0  0  0  0
   -5.3922    6.0986  -10.5212 C   0  0  0  0  0  0  0  0  0  0  0  0
   -4.4837    6.4842  -10.0753 H   0  0  0  0  0  0  0  0  0  0  0  0
   -5.4368    5.7883  -11.8659 C   0  0  0  0  0  0  0  0  0  0  0  0
   -4.5780    5.9357  -12.5022 H   0  0  0  0  0  0  0  0  0  0  0  0
   -2.1283    1.2170  -13.4161 C   0  0  0  0  0  0  0  0  0  0  0  0
   -2.2774    0.0959  -12.6102 C   0  0  0  0  0  0  0  0  0  0  0  0
   -2.5899   -0.8446  -13.0430 H   0  0  0  0  0  0  0  0  0  0  0  0
   -2.0267    0.1915  -11.2518 C   0  0  0  0  0  0  0  0  0  0  0  0
   -2.1424   -0.6798  -10.6239 H   0  0  0  0  0  0  0  0  0  0  0  0
   -1.6374    1.3988  -10.6971 C   0  0  0  0  0  0  0  0  0  0  0  0
   -1.4520    1.4690   -9.6357 H   0  0  0  0  0  0  0  0  0  0  0  0
   -1.4928    2.5204  -11.4999 C   0  0  0  0  0  0  0  0  0  0  0  0
   -1.1974    3.4632  -11.0644 H   0  0  0  0  0  0  0  0  0  0  0  0
   -1.7375    2.4309  -12.8555 C   0  0  0  0  0  0  0  0  0  0  0  0
   -1.6428    3.2998  -13.4966 H   0  0  0  0  0  0  0  0  0  0  0  0
   -0.8838    1.7530  -15.8831 C   0  0  0  0  0  0  0  0  0  0  0  0
    0.3163    1.1265  -15.5624 C   0  0  0  0  0  0  0  0  0  0  0  0
    0.3195    0.2774  -14.8928 H   0  0  0  0  0  0  0  0  0  0  0  0
    1.5009    1.6094  -16.0881 C   0  0  0  0  0  0  0  0  0  0  0  0
    2.4337    1.1189  -15.8513 H   0  0  0  0  0  0  0  0  0  0  0  0
    1.4944    2.7250  -16.9107 C   0  0  0  0  0  0  0  0  0  0  0  0
    2.4225    3.0954  -17.3201 H   0  0  0  0  0  0  0  0  0  0  0  0
    0.3047    3.3751  -17.1979 C   0  0  0  0  0  0  0  0  0  0  0  0
    0.3068    4.2555  -17.8231 H   0  0  0  0  0  0  0  0  0  0  0  0
   -0.8847    2.8936  -16.6822 C   0  0  0  0  0  0  0  0  0  0  0  0
   -1.8356    3.3958  -16.8971 H   0  0  0  0  0  0  0  0  0  0  0  0
   -2.8643   -0.5028  -15.5904 C   0  0  0  0  0  0  0  0  0  0  0  0
   -4.2237   -0.8014  -15.4810 C   0  0  0  0  0  0  0  0  0  0  0  0
   -4.9222   -0.0026  -15.1971 H   0  0  0  0  0  0  0  0  0  0  0  0
   -4.6756   -2.0775  -15.7516 C   0  0  0  0  0  0  0  0  0  0  0  0
   -5.7268   -2.3110  -15.6702 H   0  0  0  0  0  0  0  0  0  0  0  0
   -3.7739   -3.0564  -16.1445 C   0  0  0  0  0  0  0  0  0  0  0  0
   -4.1260   -4.0530  -16.3657 H   0  0  0  0  0  0  0  0  0  0  0  0
   -2.4288   -2.7555  -16.2723 C   0  0  0  0  0  0  0  0  0  0  0  0
   -1.7344   -3.5165  -16.5967 H   0  0  0  0  0  0  0  0  0  0  0  0
   -1.9665   -1.4790  -15.9953 C   0  0  0  0  0  0  0  0  0  0  0  0
   -0.9205   -1.2407  -16.1176 H   0  0  0  0  0  0  0  0  0  0  0  0
  1  2  1  1  0  0  0
  1  4  1  0  0  0  0
  1  3  1  0  0  0  0
  4 27  1  0  0  0  0
  5  1  1  0  0  0  0
  5 16  1  0  0  0  0
  6 18  1  0  0  0  0
  8  5  1  0  0  0  0
  9  8  1  0  0  0  0
 10  8  2  0  0  0  0
 10 12  1  0  0  0  0
 11 10  1  0  0  0  0
 12 14  2  0  0  0  0
 13 12  1  0  0  0  0
 14 16  1  0  0  0  0
 14 15  1  0  0  0  0
 16 17  2  0  0  0  0
 17  3  1  0  0  0  0
 17  6  1  0  0  0  0
 18 25  2  0  0  0  0
 18 19  1  0  0  0  0
 19 21  2  0  0  0  0
 20 19  1  0  0  0  0
 21  7  1  0  0  0  0
 21 22  1  0  0  0  0
 23 24  1  0  0  0  0
 23  7  2  0  0  0  0
 25 23  1  0  0  0  0
 26 25  1  0  0  0  0
 27 36  2  0  0  0  0
 27 28  1  0  0  0  0
 28 30  2  0  0  0  0
 29 28  1  0  0  0  0
 30 32  1  0  0  0  0
 30 31  1  0  0  0  0
 32 33  1  0  0  0  0
 34 35  1  0  0  0  0
 34 32  2  0  0  0  0
 36 34  1  0  0  0  0
 37 36  1  0  0  0  0
 38 39  1  0  0  0  0
 38  4  1  0  0  0  0
 39 40  1  0  0  0  0
 41 42  1  0  0  0  0
 41 39  2  0  0  0  0
 43 41  1  0  0  0  0
 44 43  1  0  0  0  0
 45 43  2  0  0  0  0
 45 47  1  0  0  0  0
 46 45  1  0  0  0  0
 47 38  2  0  0  0  0
 48 47  1  0  0  0  0
 49 50  1  0  0  0  0
 49  4  1  0  0  0  0
 50 51  1  0  0  0  0
 52 53  1  0  0  0  0
 52 50  2  0  0  0  0
 54 52  1  0  0  0  0
 55 54  1  0  0  0  0
 56 54  2  0  0  0  0
 56 58  1  0  0  0  0
 57 56  1  0  0  0  0
 58 49  2  0  0  0  0
 59 58  1  0  0  0  0
M  END
$$$$
