CSD_code = CAQSIY | q = 0 | S = 0 | Stoichiometry = C30H23Cl2N2PPdS | MND = 4
 OpenBabel04212202023D

 60 65  0  0  0  0  0  0  0  0999 V2000
    8.6226    1.8351   14.4902 Pd  0  0  1  0  0  0  0  0  0  0  0  0
    8.0734    2.4719   12.3465 Cl  0  0  0  0  0  0  0  0  0  0  0  0
   10.5107    3.8492   20.7998 Cl  0  0  0  0  0  0  0  0  0  0  0  0
    9.7346    3.5138   14.9439 N   0  0  0  0  0  0  0  0  0  0  0  0
   10.7673    2.5850   18.2149 N   0  0  0  0  0  2  0  0  0  0  0  0
    7.4050    0.0601   13.9506 P   0  0  0  0  0  4  0  0  0  0  0  0
    9.1369    1.1486   16.6191 S   0  0  0  0  0  0  0  0  0  0  0  0
    9.8716    4.5306   14.0949 C   0  0  0  0  0  0  0  0  0  0  0  0
    9.3697    4.4279   13.1379 H   0  0  0  0  0  0  0  0  0  0  0  0
   10.6104    5.6610   14.3973 C   0  0  0  0  0  0  0  0  0  0  0  0
   10.6898    6.4574   13.6749 H   0  0  0  0  0  0  0  0  0  0  0  0
   11.2344    5.7424   15.6343 C   0  0  0  0  0  0  0  0  0  0  0  0
   11.8168    6.6103   15.9047 H   0  0  0  0  0  0  0  0  0  0  0  0
   11.0933    4.6889   16.5148 C   0  0  0  0  0  0  0  0  0  0  0  0
   11.5450    4.6860   17.4934 H   0  0  0  0  0  0  0  0  0  0  0  0
   10.3334    3.5788   16.1435 C   0  0  0  0  0  0  0  0  0  0  0  0
   10.1727    2.4634   17.0900 C   0  0  0  0  0  0  0  0  0  0  0  0
   10.8302    1.6763   19.2331 C   0  0  0  0  0  0  0  0  0  0  0  0
   11.0550    0.3073   19.0541 C   0  0  0  0  0  0  0  0  0  0  0  0
   11.1156   -0.0815   18.0494 H   0  0  0  0  0  0  0  0  0  0  0  0
   11.2241   -0.5280   20.1390 C   0  0  0  0  0  0  0  0  0  0  0  0
   11.4031   -1.5808   19.9771 H   0  0  0  0  0  0  0  0  0  0  0  0
   11.1608   -0.0268   21.4292 C   0  0  0  0  0  0  0  0  0  0  0  0
   11.2848   -0.6831   22.2769 H   0  0  0  0  0  0  0  0  0  0  0  0
   10.9403    1.3256   21.6340 C   0  0  0  0  0  0  0  0  0  0  0  0
   10.8905    1.7328   22.6320 H   0  0  0  0  0  0  0  0  0  0  0  0
   10.7909    2.1638   20.5479 C   0  0  0  0  0  0  0  0  0  0  0  0
    8.2274   -0.9407   12.6830 C   0  0  0  0  0  0  0  0  0  0  0  0
    9.5151   -0.5593   12.3148 C   0  0  0  0  0  0  0  0  0  0  0  0
    9.9569    0.3378   12.7649 H   0  0  0  0  0  0  0  0  0  0  0  0
   10.2174   -1.3074   11.3876 C   0  0  0  0  0  0  0  0  0  0  0  0
   11.2139   -1.0113   11.0955 H   0  0  0  0  0  0  0  0  0  0  0  0
    9.6391   -2.4383   10.8332 C   0  0  0  0  0  0  0  0  0  0  0  0
   10.1834   -3.0180   10.1025 H   0  0  0  0  0  0  0  0  0  0  0  0
    8.3703   -2.8377   11.2232 C   0  0  0  0  0  0  0  0  0  0  0  0
    7.9326   -3.7311   10.8024 H   0  0  0  0  0  0  0  0  0  0  0  0
    7.6655   -2.0994   12.1565 C   0  0  0  0  0  0  0  0  0  0  0  0
    6.6901   -2.4259   12.4903 H   0  0  0  0  0  0  0  0  0  0  0  0
    5.7783    0.6594   13.4199 C   0  0  0  0  0  0  0  0  0  0  0  0
    5.0084    0.1514   12.3846 C   0  0  0  0  0  0  0  0  0  0  0  0
    5.3667   -0.6790   11.7950 H   0  0  0  0  0  0  0  0  0  0  0  0
    3.7884    0.7396   12.0917 C   0  0  0  0  0  0  0  0  0  0  0  0
    3.1900    0.3528   11.2799 H   0  0  0  0  0  0  0  0  0  0  0  0
    3.3391    1.8235   12.8261 C   0  0  0  0  0  0  0  0  0  0  0  0
    2.3890    2.2784   12.5882 H   0  0  0  0  0  0  0  0  0  0  0  0
    4.1136    2.3407   13.8549 C   0  0  0  0  0  0  0  0  0  0  0  0
    3.7684    3.1976   14.4141 H   0  0  0  0  0  0  0  0  0  0  0  0
    5.3333    1.7645   14.1480 C   0  0  0  0  0  0  0  0  0  0  0  0
    5.9773    2.1752   14.9376 H   0  0  0  0  0  0  0  0  0  0  0  0
    7.0328   -1.1952   15.2138 C   0  0  0  0  0  0  0  0  0  0  0  0
    5.7523   -1.4527   15.6853 C   0  0  0  0  0  0  0  0  0  0  0  0
    4.9073   -0.9137   15.2792 H   0  0  0  0  0  0  0  0  0  0  0  0
    5.5658   -2.4001   16.6777 C   0  0  0  0  0  0  0  0  0  0  0  0
    4.5701   -2.6019   17.0447 H   0  0  0  0  0  0  0  0  0  0  0  0
    6.6497   -3.0817   17.2043 C   0  0  0  0  0  0  0  0  0  0  0  0
    6.4986   -3.8139   17.9835 H   0  0  0  0  0  0  0  0  0  0  0  0
    7.9299   -2.8214   16.7386 C   0  0  0  0  0  0  0  0  0  0  0  0
    8.7751   -3.3481   17.1560 H   0  0  0  0  0  0  0  0  0  0  0  0
    8.1219   -1.8812   15.7464 C   0  0  0  0  0  0  0  0  0  0  0  0
    9.1161   -1.6559   15.3784 H   0  0  0  0  0  0  0  0  0  0  0  0
  1  2  1  6  0  0  0
  1  4  1  0  0  0  0
  1  7  1  0  0  0  0
  4 16  1  0  0  0  0
  5 18  1  0  0  0  0
  6  1  1  0  0  0  0
  6 50  1  0  0  0  0
  7 17  1  0  0  0  0
  8 10  2  0  0  0  0
  8  4  1  0  0  0  0
  9  8  1  0  0  0  0
 10 12  1  0  0  0  0
 11 10  1  0  0  0  0
 12 13  1  0  0  0  0
 12 14  2  0  0  0  0
 14 15  1  0  0  0  0
 16 14  1  0  0  0  0
 16 17  2  0  0  0  0
 17  5  1  0  0  0  0
 18 27  1  0  0  0  0
 19 18  2  0  0  0  0
 19 21  1  0  0  0  0
 20 19  1  0  0  0  0
 21 23  2  0  0  0  0
 22 21  1  0  0  0  0
 23 25  1  0  0  0  0
 23 24  1  0  0  0  0
 25 26  1  0  0  0  0
 27  3  1  0  0  0  0
 27 25  2  0  0  0  0
 28  6  1  0  0  0  0
 29 28  1  0  0  0  0
 29 30  1  0  0  0  0
 31 29  2  0  0  0  0
 32 31  1  0  0  0  0
 33 35  2  0  0  0  0
 33 31  1  0  0  0  0
 34 33  1  0  0  0  0
 35 37  1  0  0  0  0
 36 35  1  0  0  0  0
 37 38  1  0  0  0  0
 37 28  2  0  0  0  0
 39  6  1  0  0  0  0
 39 48  1  0  0  0  0
 40 39  2  0  0  0  0
 41 40  1  0  0  0  0
 42 40  1  0  0  0  0
 42 44  2  0  0  0  0
 43 42  1  0  0  0  0
 44 46  1  0  0  0  0
 45 44  1  0  0  0  0
 46 48  2  0  0  0  0
 46 47  1  0  0  0  0
 48 49  1  0  0  0  0
 50 51  2  0  0  0  0
 50 59  1  0  0  0  0
 51 53  1  0  0  0  0
 52 51  1  0  0  0  0
 53 54  1  0  0  0  0
 53 55  2  0  0  0  0
 55 56  1  0  0  0  0
 57 58  1  0  0  0  0
 57 55  1  0  0  0  0
 59 57  2  0  0  0  0
 60 59  1  0  0  0  0
M  END
$$$$
