CSD_code = CAQTET | q = 0 | S = 0 | Stoichiometry = C9H19AuClN | MND = 2
 OpenBabel04212202023D

 31 31  0  0  0  0  0  0  0  0999 V2000
    6.8308    5.7785    5.2871 Au  0  0  0  0  0  0  0  0  0  0  0  0
    6.3117    7.9687    5.2892 Cl  0  0  0  0  0  0  0  0  0  0  0  0
    7.3601    3.6447    5.2887 N   0  0  0  0  0  4  0  0  0  0  0  0
    6.4339    3.2200    5.2887 H   0  0  0  0  0  0  0  0  0  0  0  0
    7.9752    3.2128    4.0070 C   0  0  0  0  0  0  0  0  0  0  0  0
    8.3069    1.7122    4.0443 C   0  0  0  0  0  0  0  0  0  0  0  0
    7.3739    1.1417    4.0266 H   0  0  0  0  0  0  0  0  0  0  0  0
    8.8689    1.4530    3.1466 H   0  0  0  0  0  0  0  0  0  0  0  0
    9.0931    1.3197    5.2887 C   0  0  0  0  0  0  0  0  0  0  0  0
    9.2597    0.2410    5.2887 H   0  0  0  0  0  0  0  0  0  0  0  0
   10.0725    1.7979    5.2887 H   0  0  0  0  0  0  0  0  0  0  0  0
    9.2087    4.0449    3.6633 C   0  0  0  0  0  0  0  0  0  0  0  0
    9.0009    5.1008    3.8256 H   0  0  0  0  0  0  0  0  0  0  0  0
    9.4598    3.9031    2.6152 H   0  0  0  0  0  0  0  0  0  0  0  0
   10.0749    3.7686    4.2529 H   0  0  0  0  0  0  0  0  0  0  0  0
    6.9231    3.4531    2.9198 C   0  0  0  0  0  0  0  0  0  0  0  0
    6.6880    4.5136    2.8491 H   0  0  0  0  0  0  0  0  0  0  0  0
    6.0031    2.9107    3.1336 H   0  0  0  0  0  0  0  0  0  0  0  0
    7.2953    3.1172    1.9558 H   0  0  0  0  0  0  0  0  0  0  0  0
    8.3069    1.7122    6.5331 C   0  0  0  0  0  0  0  0  0  0  0  0
    7.9752    3.2128    6.5705 C   0  0  0  0  0  0  0  0  0  0  0  0
    9.2088    4.0449    6.9141 C   0  0  0  0  0  0  0  0  0  0  0  0
    9.0010    5.1007    6.7518 H   0  0  0  0  0  0  0  0  0  0  0  0
    9.4598    3.9031    7.9623 H   0  0  0  0  0  0  0  0  0  0  0  0
   10.0750    3.7685    6.3246 H   0  0  0  0  0  0  0  0  0  0  0  0
    6.9231    3.4530    7.6577 C   0  0  0  0  0  0  0  0  0  0  0  0
    6.6881    4.5135    7.7286 H   0  0  0  0  0  0  0  0  0  0  0  0
    6.0032    2.9107    7.4438 H   0  0  0  0  0  0  0  0  0  0  0  0
    7.2953    3.1170    8.6216 H   0  0  0  0  0  0  0  0  0  0  0  0
    7.3739    1.1418    6.5508 H   0  0  0  0  0  0  0  0  0  0  0  0
    8.8689    1.4530    7.4309 H   0  0  0  0  0  0  0  0  0  0  0  0
  1  3  1  0  0  0  0
  1  2  1  0  0  0  0
  3 21  1  0  0  0  0
  4  3  1  0  0  0  0
  5  6  1  0  0  0  0
  5  3  1  0  0  0  0
  6  9  1  0  0  0  0
  7  6  1  0  0  0  0
  8  6  1  0  0  0  0
  9 10  1  0  0  0  0
  9 20  1  0  0  0  0
 11  9  1  0  0  0  0
 12 13  1  0  0  0  0
 12  5  1  0  0  0  0
 12 15  1  0  0  0  0
 14 12  1  0  0  0  0
 16 18  1  0  0  0  0
 16  5  1  0  0  0  0
 17 16  1  0  0  0  0
 19 16  1  0  0  0  0
 20 30  1  0  0  0  0
 20 21  1  0  0  0  0
 20 31  1  0  0  0  0
 21 22  1  0  0  0  0
 21 26  1  0  0  0  0
 22 24  1  0  0  0  0
 23 22  1  0  0  0  0
 25 22  1  0  0  0  0
 26 27  1  0  0  0  0
 26 29  1  0  0  0  0
 28 26  1  0  0  0  0
M  END
$$$$
