CSD_code = CAQTIZ | q = 1 | S = 0 | Stoichiometry = C48H45ClN2P3Ru(1+) | MND = 6
 OpenBabel04212202023D

100107  0  0  0  0  0  0  0  0999 V2000
    0.2170    5.1816    6.8693 C   0  0  0  0  0  0  0  0  0  0  0  0
   -1.0439    5.7335    7.0757 C   0  0  0  0  0  0  0  0  0  0  0  0
   -1.8045    5.6676    6.3123 H   0  0  0  0  0  0  0  0  0  0  0  0
   -1.3247    6.3769    8.2676 C   0  0  0  0  0  0  0  0  0  0  0  0
   -2.3025    6.8058    8.4259 H   0  0  0  0  0  0  0  0  0  0  0  0
   -0.3559    6.4796    9.2531 C   0  0  0  0  0  0  0  0  0  0  0  0
   -0.5809    6.9876   10.1785 H   0  0  0  0  0  0  0  0  0  0  0  0
    0.9016    5.9356    9.0473 C   0  0  0  0  0  0  0  0  0  0  0  0
    1.6613    6.0228    9.8102 H   0  0  0  0  0  0  0  0  0  0  0  0
    1.1909    5.2879    7.8597 C   0  0  0  0  0  0  0  0  0  0  0  0
    2.1730    4.8634    7.6923 H   0  0  0  0  0  0  0  0  0  0  0  0
    1.2123    5.7884    4.3058 C   0  0  0  0  0  0  0  0  0  0  0  0
    0.5200    6.2979    3.2127 C   0  0  0  0  0  0  0  0  0  0  0  0
   -0.4181    5.8680    2.8936 H   0  0  0  0  0  0  0  0  0  0  0  0
    1.0325    7.3812    2.5186 C   0  0  0  0  0  0  0  0  0  0  0  0
    0.4885    7.7783    1.6744 H   0  0  0  0  0  0  0  0  0  0  0  0
    2.2310    7.9583    2.9039 C   0  0  0  0  0  0  0  0  0  0  0  0
    2.6210    8.8049    2.3592 H   0  0  0  0  0  0  0  0  0  0  0  0
    2.9266    7.4491    3.9902 C   0  0  0  0  0  0  0  0  0  0  0  0
    3.8616    7.8956    4.2938 H   0  0  0  0  0  0  0  0  0  0  0  0
    2.4217    6.3690    4.6882 C   0  0  0  0  0  0  0  0  0  0  0  0
    2.9660    5.9572    5.5279 H   0  0  0  0  0  0  0  0  0  0  0  0
   -0.8475    0.4110    4.5977 C   0  0  0  0  0  0  0  0  0  0  0  0
   -1.1528    0.3298    5.9508 C   0  0  0  0  0  0  0  0  0  0  0  0
   -0.5519    0.8783    6.6634 H   0  0  0  0  0  0  0  0  0  0  0  0
   -2.2185   -0.4411    6.3816 C   0  0  0  0  0  0  0  0  0  0  0  0
   -2.4495   -0.5028    7.4348 H   0  0  0  0  0  0  0  0  0  0  0  0
   -2.9890   -1.1319    5.4620 C   0  0  0  0  0  0  0  0  0  0  0  0
   -3.8163   -1.7386    5.7967 H   0  0  0  0  0  0  0  0  0  0  0  0
   -2.7030   -1.0364    4.1088 C   0  0  0  0  0  0  0  0  0  0  0  0
   -3.3114   -1.5636    3.3896 H   0  0  0  0  0  0  0  0  0  0  0  0
   -1.6429   -0.2638    3.6741 C   0  0  0  0  0  0  0  0  0  0  0  0
   -1.4284   -0.1863    2.6174 H   0  0  0  0  0  0  0  0  0  0  0  0
    1.0886    0.7039    2.5136 C   0  0  0  0  0  0  0  0  0  0  0  0
    1.5543    1.4615    1.4405 C   0  0  0  0  0  0  0  0  0  0  0  0
    1.5049    2.5409    1.4706 H   0  0  0  0  0  0  0  0  0  0  0  0
    2.0892    0.8386    0.3271 C   0  0  0  0  0  0  0  0  0  0  0  0
    2.4358    1.4340   -0.5047 H   0  0  0  0  0  0  0  0  0  0  0  0
    2.1811   -0.5429    0.2763 C   0  0  0  0  0  0  0  0  0  0  0  0
    2.6015   -1.0255   -0.5926 H   0  0  0  0  0  0  0  0  0  0  0  0
    1.7318   -1.3017    1.3447 C   0  0  0  0  0  0  0  0  0  0  0  0
    1.8022   -2.3783    1.3139 H   0  0  0  0  0  0  0  0  0  0  0  0
    1.1912   -0.6849    2.4579 C   0  0  0  0  0  0  0  0  0  0  0  0
    0.8385   -1.2814    3.2864 H   0  0  0  0  0  0  0  0  0  0  0  0
   -0.5591    2.8965    3.3946 C   0  0  0  0  0  0  0  0  0  0  0  0
    0.0173    3.4636    2.6571 H   0  0  0  0  0  0  0  0  0  0  0  0
   -1.4529    2.4871    2.9126 H   0  0  0  0  0  0  0  0  0  0  0  0
   -0.9086    3.7977    4.5743 C   0  0  0  0  0  0  0  0  0  0  0  0
   -1.4357    3.2236    5.3472 H   0  0  0  0  0  0  0  0  0  0  0  0
   -1.5415    4.6350    4.2702 H   0  0  0  0  0  0  0  0  0  0  0  0
    4.6252    0.4059    6.9950 C   0  0  0  0  0  0  0  0  0  0  0  0
    4.4353    1.0667    8.2011 C   0  0  0  0  0  0  0  0  0  0  0  0
    3.7627    1.9092    8.2562 H   0  0  0  0  0  0  0  0  0  0  0  0
    5.1461    0.6768    9.3242 C   0  0  0  0  0  0  0  0  0  0  0  0
    5.0022    1.2023   10.2570 H   0  0  0  0  0  0  0  0  0  0  0  0
    6.0460   -0.3715    9.2526 C   0  0  0  0  0  0  0  0  0  0  0  0
    6.6006   -0.6706   10.1290 H   0  0  0  0  0  0  0  0  0  0  0  0
    6.2405   -1.0331    8.0495 C   0  0  0  0  0  0  0  0  0  0  0  0
    6.9468   -1.8472    7.9871 H   0  0  0  0  0  0  0  0  0  0  0  0
    5.5332   -0.6511    6.9270 C   0  0  0  0  0  0  0  0  0  0  0  0
    5.6879   -1.1671    5.9894 H   0  0  0  0  0  0  0  0  0  0  0  0
    5.0639    1.0928    4.2778 C   0  0  0  0  0  0  0  0  0  0  0  0
    6.2875    1.6134    4.6867 C   0  0  0  0  0  0  0  0  0  0  0  0
    6.4688    1.8021    5.7355 H   0  0  0  0  0  0  0  0  0  0  0  0
    7.2646    1.8936    3.7474 C   0  0  0  0  0  0  0  0  0  0  0  0
    8.2157    2.2920    4.0677 H   0  0  0  0  0  0  0  0  0  0  0  0
    7.0267    1.6633    2.4020 C   0  0  0  0  0  0  0  0  0  0  0  0
    7.7953    1.8755    1.6740 H   0  0  0  0  0  0  0  0  0  0  0  0
    5.8003    1.1642    1.9897 C   0  0  0  0  0  0  0  0  0  0  0  0
    5.6094    0.9876    0.9409 H   0  0  0  0  0  0  0  0  0  0  0  0
    4.8168    0.8893    2.9211 C   0  0  0  0  0  0  0  0  0  0  0  0
    3.8522    0.5145    2.6046 H   0  0  0  0  0  0  0  0  0  0  0  0
    3.0915   -0.8550    5.0980 C   0  0  0  0  0  0  0  0  0  0  0  0
    1.9376   -1.2056    5.7937 C   0  0  0  0  0  0  0  0  0  0  0  0
    1.4819   -0.4747    6.4522 H   0  0  0  0  0  0  0  0  0  0  0  0
    1.3883   -2.4659    5.6562 C   0  0  0  0  0  0  0  0  0  0  0  0
    0.4891   -2.7268    6.1952 H   0  0  0  0  0  0  0  0  0  0  0  0
    1.9958   -3.3913    4.8212 C   0  0  0  0  0  0  0  0  0  0  0  0
    1.5711   -4.3773    4.7083 H   0  0  0  0  0  0  0  0  0  0  0  0
    3.1507   -3.0516    4.1362 C   0  0  0  0  0  0  0  0  0  0  0  0
    3.6292   -3.7760    3.4940 H   0  0  0  0  0  0  0  0  0  0  0  0
    3.7029   -1.7892    4.2720 C   0  0  0  0  0  0  0  0  0  0  0  0
    4.6048   -1.5378    3.7322 H   0  0  0  0  0  0  0  0  0  0  0  0
    3.6320    3.7795    3.0239 C   0  0  0  0  0  2  0  0  0  0  0  0
    4.4748    4.4935    2.1174 C   0  0  0  0  0  0  0  0  0  0  0  0
    5.4639    4.6012    2.5634 H   0  0  0  0  0  0  0  0  0  0  0  0
    4.0569    5.4831    1.9285 H   0  0  0  0  0  0  0  0  0  0  0  0
    4.5648    3.9451    1.1796 H   0  0  0  0  0  0  0  0  0  0  0  0
    1.2164    2.0887    8.2222 C   0  0  0  0  0  2  0  0  0  0  0  0
    0.9005    2.0181    9.6155 C   0  0  0  0  0  0  0  0  0  0  0  0
    1.6027    1.3519   10.1180 H   0  0  0  0  0  0  0  0  0  0  0  0
   -0.1132    1.6405    9.7524 H   0  0  0  0  0  0  0  0  0  0  0  0
    0.9716    3.0144   10.0532 H   0  0  0  0  0  0  0  0  0  0  0  0
    2.9315    3.1925    3.7243 N   0  0  0  0  0  2  0  0  0  0  0  0
    1.4520    2.1104    7.0929 N   0  0  0  0  0  2  0  0  0  0  0  0
    0.6817    4.3711    5.3128 P   0  0  0  0  0  4  0  0  0  0  0  0
    0.4936    1.5068    4.0329 P   0  0  0  0  0  4  0  0  0  0  0  0
    3.7205    0.8167    5.4629 P   0  0  0  0  0  4  0  0  0  0  0  0
    3.9534    3.6874    6.3635 Cl  0  0  0  0  0  0  0  0  0  0  0  0
    2.1148    2.5344    5.3444 Ru  0  0  0  0  0  0  0  0  0  0  0  0
  1  2  2  0  0  0  0
  1 10  1  0  0  0  0
  2  4  1  0  0  0  0
  3  2  1  0  0  0  0
  4  5  1  0  0  0  0
  4  6  2  0  0  0  0
  6  7  1  0  0  0  0
  8  6  1  0  0  0  0
  8  9  1  0  0  0  0
 10  8  2  0  0  0  0
 11 10  1  0  0  0  0
 12 21  1  0  0  0  0
 12 96  1  0  0  0  0
 13 12  2  0  0  0  0
 14 13  1  0  0  0  0
 15 17  2  0  0  0  0
 15 13  1  0  0  0  0
 16 15  1  0  0  0  0
 17 19  1  0  0  0  0
 18 17  1  0  0  0  0
 19 20  1  0  0  0  0
 19 21  2  0  0  0  0
 21 22  1  0  0  0  0
 23 24  1  0  0  0  0
 24 26  2  0  0  0  0
 24 25  1  0  0  0  0
 26 27  1  0  0  0  0
 28 29  1  0  0  0  0
 28 26  1  0  0  0  0
 30 28  2  0  0  0  0
 31 30  1  0  0  0  0
 32 30  1  0  0  0  0
 32 23  2  0  0  0  0
 33 32  1  0  0  0  0
 34 97  1  0  0  0  0
 35 36  1  0  0  0  0
 35 34  2  0  0  0  0
 37 35  1  0  0  0  0
 38 37  1  0  0  0  0
 39 37  2  0  0  0  0
 39 41  1  0  0  0  0
 40 39  1  0  0  0  0
 41 43  2  0  0  0  0
 42 41  1  0  0  0  0
 43 34  1  0  0  0  0
 43 44  1  0  0  0  0
 45 97  1  0  0  0  0
 45 48  1  0  0  0  0
 46 45  1  0  0  0  0
 47 45  1  0  0  0  0
 48 96  1  0  0  0  0
 48 49  1  0  0  0  0
 50 48  1  0  0  0  0
 51 52  1  0  0  0  0
 52 53  1  0  0  0  0
 52 54  2  0  0  0  0
 54 55  1  0  0  0  0
 56 54  1  0  0  0  0
 56 57  1  0  0  0  0
 58 56  2  0  0  0  0
 59 58  1  0  0  0  0
 60 51  2  0  0  0  0
 60 58  1  0  0  0  0
 61 60  1  0  0  0  0
 62 63  1  0  0  0  0
 62 98  1  0  0  0  0
 63 64  1  0  0  0  0
 65 66  1  0  0  0  0
 65 63  2  0  0  0  0
 67 65  1  0  0  0  0
 68 67  1  0  0  0  0
 69 67  2  0  0  0  0
 69 71  1  0  0  0  0
 70 69  1  0  0  0  0
 71 62  2  0  0  0  0
 72 71  1  0  0  0  0
 73 98  1  0  0  0  0
 73 74  1  0  0  0  0
 74 75  1  0  0  0  0
 76 74  2  0  0  0  0
 76 77  1  0  0  0  0
 78 76  1  0  0  0  0
 79 78  1  0  0  0  0
 80 82  1  0  0  0  0
 80 78  2  0  0  0  0
 81 80  1  0  0  0  0
 82 73  2  0  0  0  0
 83 82  1  0  0  0  0
 84 94  1  0  0  0  0
 85 86  1  0  0  0  0
 85 84  1  0  0  0  0
 87 85  1  0  0  0  0
 88 85  1  0  0  0  0
 89 90  1  0  0  0  0
 90 92  1  0  0  0  0
 90 93  1  0  0  0  0
 90 91  1  0  0  0  0
 94100  1  0  0  0  0
 95 89  1  0  0  0  0
 96100  1  0  0  0  0
 96  1  1  0  0  0  0
 97 23  1  0  0  0  0
 97100  1  0  0  0  0
 98 51  1  0  0  0  0
100 98  1  0  0  0  0
100 99  1  0  0  0  0
100 95  1  0  0  0  0
M  END
$$$$
