CSD_code = CARCEF | q = 0 | S = 0 | Stoichiometry = C22H23AuBrN3 | MND = 2
 OpenBabel04212202023D

 50 53  0  0  1  0  0  0  0  0999 V2000
    2.2235    2.7557   10.7813 Au  0  0  0  0  0  0  0  0  0  0  0  0
    3.7707    1.0554   11.2780 Br  0  0  0  0  0  0  0  0  0  0  0  0
    0.2832    4.3552    9.1677 N   0  0  0  0  0  0  0  0  0  0  0  0
    0.4513    5.2266   11.1113 N   0  0  0  0  0  0  0  0  0  0  0  0
    4.1296    6.2536   11.4854 C   0  0  0  0  0  0  0  0  0  0  0  0
    4.6951    6.4242   12.3975 H   0  0  0  0  0  0  0  0  0  0  0  0
    4.6857    6.6710   10.6492 H   0  0  0  0  0  0  0  0  0  0  0  0
    4.0368    5.1789   11.3371 H   0  0  0  0  0  0  0  0  0  0  0  0
    1.3969    1.7390    7.0957 C   0  0  0  0  0  0  0  0  0  0  0  0
    2.0839    0.9149    7.2244 H   0  0  0  0  0  0  0  0  0  0  0  0
   -1.3103    5.7819    8.0109 C   0  0  0  0  0  0  0  0  0  0  0  0
   -1.9581    6.6432    8.0417 H   0  0  0  0  0  0  0  0  0  0  0  0
   -1.1908    5.0084    6.9098 C   0  0  0  0  0  0  0  0  0  0  0  0
   -1.7459    5.2270    6.0105 H   0  0  0  0  0  0  0  0  0  0  0  0
    1.9633    6.2649   12.7010 C   0  0  0  0  0  0  0  0  0  0  0  0
    2.7444    6.8988   11.5745 C   0  0  0  0  0  0  0  0  0  0  0  0
    2.2284    6.7145   10.6262 H   0  0  0  0  0  0  0  0  0  0  0  0
    2.8535    8.4143   11.7541 C   0  0  0  0  0  0  0  0  0  0  0  0
    1.8659    8.8598   11.8576 H   0  0  0  0  0  0  0  0  0  0  0  0
    3.3422    8.8551   10.8883 H   0  0  0  0  0  0  0  0  0  0  0  0
    3.4366    8.6641   12.6359 H   0  0  0  0  0  0  0  0  0  0  0  0
    0.1592    4.8145   13.4854 C   0  0  0  0  0  0  0  0  0  0  0  0
    0.5842    5.0317   14.7892 C   0  0  0  0  0  0  0  0  0  0  0  0
    0.0677    4.5517   15.6053 H   0  0  0  0  0  0  0  0  0  0  0  0
    0.8600    5.4457   12.4565 C   0  0  0  0  0  0  0  0  0  0  0  0
    0.4238    3.5494    8.0596 C   0  0  0  0  0  0  0  0  0  0  0  0
   -0.4412    6.0044   10.4261 C   0  0  0  0  0  0  0  0  0  0  0  0
   -0.9091    6.8606   10.8654 H   0  0  0  0  0  0  0  0  0  0  0  0
    0.9067    4.2122   10.3592 C   0  0  2  0  0  3  0  0  0  0  0  0
   -1.0041    3.8932   13.2048 C   0  0  0  0  0  0  0  0  0  0  0  0
   -1.2272    3.9062   12.1327 H   0  0  0  0  0  0  0  0  0  0  0  0
    2.3539    6.4523   14.0200 C   0  0  0  0  0  0  0  0  0  0  0  0
    3.2089    7.0718   14.2401 H   0  0  0  0  0  0  0  0  0  0  0  0
   -0.3189    3.8687    6.9038 C   0  0  0  0  0  0  0  0  0  0  0  0
    1.6688    5.8450   15.0544 C   0  0  0  0  0  0  0  0  0  0  0  0
    1.9888    5.9984   16.0740 H   0  0  0  0  0  0  0  0  0  0  0  0
   -0.1446    3.0236    5.8022 C   0  0  0  0  0  0  0  0  0  0  0  0
   -0.6891    3.2219    4.8902 H   0  0  0  0  0  0  0  0  0  0  0  0
   -2.2631    4.3489   13.9455 C   0  0  0  0  0  0  0  0  0  0  0  0
   -2.1292    4.2850   15.0216 H   0  0  0  0  0  0  0  0  0  0  0  0
   -3.1041    3.7168   13.6695 H   0  0  0  0  0  0  0  0  0  0  0  0
   -2.5064    5.3786   13.6899 H   0  0  0  0  0  0  0  0  0  0  0  0
    0.7193    1.9508    5.8976 C   0  0  0  0  0  0  0  0  0  0  0  0
    0.8710    1.2851    5.0633 H   0  0  0  0  0  0  0  0  0  0  0  0
   -0.5624    5.4612    9.1759 C   0  0  0  0  0  0  0  0  0  0  0  0
    1.2500    2.5201    8.1461 N   0  0  0  0  0  0  0  0  0  0  0  0
   -0.6302    2.4586   13.5851 C   0  0  0  0  0  0  0  0  0  0  0  0
   -0.4214    2.3810   14.6487 H   0  0  0  0  0  0  0  0  0  0  0  0
    0.2568    2.1424   13.0386 H   0  0  0  0  0  0  0  0  0  0  0  0
   -1.4454    1.7811   13.3419 H   0  0  0  0  0  0  0  0  0  0  0  0
  1  2  1  0  0  0  0
  3 45  1  0  0  0  0
  3 29  1  0  0  0  0
  4 25  1  0  0  0  0
  5 16  1  0  0  0  0
  5  6  1  0  0  0  0
  7  5  1  0  0  0  0
  8  5  1  0  0  0  0
  9 10  1  0  0  0  0
  9 46  1  0  0  0  0
 11 12  1  0  0  0  0
 11 45  1  0  0  0  0
 13 11  2  0  0  0  0
 14 13  1  0  0  0  0
 15 32  1  0  0  0  0
 16 18  1  0  0  0  0
 16 15  1  0  0  0  0
 17 16  1  0  0  0  0
 18 19  1  0  0  0  0
 18 21  1  0  0  0  0
 20 18  1  0  0  0  0
 22 23  2  0  0  0  0
 23 35  1  0  0  0  0
 23 24  1  0  0  0  0
 25 15  2  0  0  0  0
 25 22  1  0  0  0  0
 26 46  2  0  0  0  0
 26  3  1  0  0  0  0
 27 28  1  0  0  0  0
 27  4  1  0  0  0  0
 29  1  1  6  0  0  0
 29  4  1  0  0  0  0
 30 22  1  0  0  0  0
 30 47  1  0  0  0  0
 30 39  1  0  0  0  0
 31 30  1  0  0  0  0
 32 33  1  0  0  0  0
 32 35  2  0  0  0  0
 34 13  1  0  0  0  0
 34 26  1  0  0  0  0
 35 36  1  0  0  0  0
 37 43  1  0  0  0  0
 37 34  2  0  0  0  0
 38 37  1  0  0  0  0
 39 40  1  0  0  0  0
 41 39  1  0  0  0  0
 42 39  1  0  0  0  0
 43  9  2  0  0  0  0
 44 43  1  0  0  0  0
 45 27  2  0  0  0  0
 47 48  1  0  0  0  0
 49 47  1  0  0  0  0
 50 47  1  0  0  0  0
M  END
$$$$
