CSD_code = CARDIJ | q = 0 | S = 0 | Stoichiometry = C35H29BrCuNP2S | MND = 4
 OpenBabel04212202023D

 70 76  0  0  1  0  0  0  0  0999 V2000
    6.2396    9.6035   11.0180 Br  0  0  0  0  0  0  0  0  0  0  0  0
    7.5284    9.7132    9.0913 Cu  0  0  0  0  0  0  0  0  0  0  0  0
    6.9436   11.5008    7.4755 S   0  0  0  0  0  0  0  0  0  0  0  0
    9.0443    8.4815    7.9846 P   0  0  0  0  0  4  0  0  0  0  0  0
    9.5689   10.9830    9.6115 P   0  0  0  0  0  4  0  0  0  0  0  0
    6.3945   12.6590    9.7929 N   0  0  0  0  0  0  0  0  0  0  0  0
    6.3889   11.6996   10.1760 H   0  0  0  0  0  0  0  0  0  0  0  0
    6.5899   12.8139    8.4567 C   0  0  1  0  0  3  0  0  0  0  0  0
    6.1498   13.6820   10.6274 C   0  0  0  0  0  0  0  0  0  0  0  0
    6.0161   13.4204   11.6658 H   0  0  0  0  0  0  0  0  0  0  0  0
    6.0749   14.9607   10.1612 C   0  0  0  0  0  0  0  0  0  0  0  0
    5.8859   15.7811   10.8316 H   0  0  0  0  0  0  0  0  0  0  0  0
    6.2368   15.1798    8.7776 C   0  0  0  0  0  0  0  0  0  0  0  0
    6.1617   16.1822    8.3843 H   0  0  0  0  0  0  0  0  0  0  0  0
    6.4852   14.1300    7.9441 C   0  0  0  0  0  0  0  0  0  0  0  0
    6.6152   14.2609    6.8820 H   0  0  0  0  0  0  0  0  0  0  0  0
   10.3201    9.6142    7.3520 C   0  0  0  0  0  0  0  0  0  0  0  0
   11.0324    9.3909    6.1789 C   0  0  0  0  0  0  0  0  0  0  0  0
   10.8070    8.5273    5.5679 H   0  0  0  0  0  0  0  0  0  0  0  0
   12.0215   10.2757    5.7904 C   0  0  0  0  0  0  0  0  0  0  0  0
   12.5707   10.0991    4.8771 H   0  0  0  0  0  0  0  0  0  0  0  0
   12.3144   11.3822    6.5733 C   0  0  0  0  0  0  0  0  0  0  0  0
   13.0980   12.0634    6.2751 H   0  0  0  0  0  0  0  0  0  0  0  0
   11.6048   11.6202    7.7360 C   0  0  0  0  0  0  0  0  0  0  0  0
   11.8347   12.4850    8.3433 H   0  0  0  0  0  0  0  0  0  0  0  0
   10.5967   10.7466    8.1303 C   0  0  0  0  0  0  0  0  0  0  0  0
    8.7374    7.3953    6.5610 C   0  0  0  0  0  0  0  0  0  0  0  0
    8.9949    6.0296    6.5483 C   0  0  0  0  0  0  0  0  0  0  0  0
    9.4698    5.5599    7.3987 H   0  0  0  0  0  0  0  0  0  0  0  0
    8.6454    5.2784    5.4397 C   0  0  0  0  0  0  0  0  0  0  0  0
    8.8519    4.2180    5.4259 H   0  0  0  0  0  0  0  0  0  0  0  0
    8.0306    5.8782    4.3531 C   0  0  0  0  0  0  0  0  0  0  0  0
    7.7603    5.2851    3.4920 H   0  0  0  0  0  0  0  0  0  0  0  0
    7.7498    7.2364    4.3736 C   0  0  0  0  0  0  0  0  0  0  0  0
    7.2574    7.7013    3.5321 H   0  0  0  0  0  0  0  0  0  0  0  0
    8.0908    7.9917    5.4777 C   0  0  0  0  0  0  0  0  0  0  0  0
    7.8640    9.0508    5.5172 H   0  0  0  0  0  0  0  0  0  0  0  0
   10.0476    7.4610    9.1118 C   0  0  0  0  0  0  0  0  0  0  0  0
    9.4825    7.0871   10.3259 C   0  0  0  0  0  0  0  0  0  0  0  0
    8.4722    7.3950   10.5626 H   0  0  0  0  0  0  0  0  0  0  0  0
   10.2105    6.3321   11.2271 C   0  0  0  0  0  0  0  0  0  0  0  0
    9.7686    6.0482   12.1702 H   0  0  0  0  0  0  0  0  0  0  0  0
   11.5047    5.9500   10.9185 C   0  0  0  0  0  0  0  0  0  0  0  0
   12.0770    5.3644   11.6227 H   0  0  0  0  0  0  0  0  0  0  0  0
   12.0705    6.3189    9.7078 C   0  0  0  0  0  0  0  0  0  0  0  0
   13.0806    6.0183    9.4693 H   0  0  0  0  0  0  0  0  0  0  0  0
   11.3484    7.0744    8.8041 C   0  0  0  0  0  0  0  0  0  0  0  0
   11.7899    7.3676    7.8609 H   0  0  0  0  0  0  0  0  0  0  0  0
    9.7794   12.7498    9.9935 C   0  0  0  0  0  0  0  0  0  0  0  0
    9.5809   13.6789    8.9715 C   0  0  0  0  0  0  0  0  0  0  0  0
    9.4441   13.3338    7.9549 H   0  0  0  0  0  0  0  0  0  0  0  0
    9.5675   15.0308    9.2522 C   0  0  0  0  0  0  0  0  0  0  0  0
    9.4297   15.7432    8.4516 H   0  0  0  0  0  0  0  0  0  0  0  0
    9.7226   15.4719   10.5567 C   0  0  0  0  0  0  0  0  0  0  0  0
    9.7083   16.5293   10.7751 H   0  0  0  0  0  0  0  0  0  0  0  0
    9.8910   14.5531   11.5796 C   0  0  0  0  0  0  0  0  0  0  0  0
   10.0064   14.8936   12.5983 H   0  0  0  0  0  0  0  0  0  0  0  0
    9.9121   13.1984   11.3050 C   0  0  0  0  0  0  0  0  0  0  0  0
   10.0447   12.4844   12.1058 H   0  0  0  0  0  0  0  0  0  0  0  0
   10.5750   10.1767   10.9014 C   0  0  0  0  0  0  0  0  0  0  0  0
    9.9263    9.8710   12.0959 C   0  0  0  0  0  0  0  0  0  0  0  0
    8.8799   10.1185   12.2190 H   0  0  0  0  0  0  0  0  0  0  0  0
   10.6110    9.2339   13.1135 C   0  0  0  0  0  0  0  0  0  0  0  0
   10.1028    9.0011   14.0373 H   0  0  0  0  0  0  0  0  0  0  0  0
   11.9395    8.8840   12.9389 C   0  0  0  0  0  0  0  0  0  0  0  0
   12.4743    8.3783   13.7294 H   0  0  0  0  0  0  0  0  0  0  0  0
   12.5822    9.1737   11.7466 C   0  0  0  0  0  0  0  0  0  0  0  0
   13.6168    8.8942   11.6077 H   0  0  0  0  0  0  0  0  0  0  0  0
   11.9066    9.8187   10.7274 C   0  0  0  0  0  0  0  0  0  0  0  0
   12.4131   10.0386    9.7975 H   0  0  0  0  0  0  0  0  0  0  0  0
  2  5  1  0  0  0  0
  2  1  1  0  0  0  0
  3  2  1  0  0  0  0
  4  2  1  0  0  0  0
  4 38  1  0  0  0  0
  5 49  1  0  0  0  0
  5 60  1  0  0  0  0
  6  7  1  0  0  0  0
  6  9  1  0  0  0  0
  8  3  1  1  0  0  0
  8  6  1  0  0  0  0
  9 10  1  0  0  0  0
 11  9  2  0  0  0  0
 11 12  1  0  0  0  0
 13 11  1  0  0  0  0
 14 13  1  0  0  0  0
 15  8  1  0  0  0  0
 15 13  2  0  0  0  0
 16 15  1  0  0  0  0
 17  4  1  0  0  0  0
 17 26  1  0  0  0  0
 18 17  2  0  0  0  0
 19 18  1  0  0  0  0
 20 18  1  0  0  0  0
 20 22  2  0  0  0  0
 21 20  1  0  0  0  0
 22 24  1  0  0  0  0
 23 22  1  0  0  0  0
 24 26  2  0  0  0  0
 24 25  1  0  0  0  0
 26  5  1  0  0  0  0
 27  4  1  0  0  0  0
 28 27  1  0  0  0  0
 28 29  1  0  0  0  0
 30 28  2  0  0  0  0
 31 30  1  0  0  0  0
 32 34  2  0  0  0  0
 32 30  1  0  0  0  0
 33 32  1  0  0  0  0
 34 36  1  0  0  0  0
 35 34  1  0  0  0  0
 36 37  1  0  0  0  0
 36 27  2  0  0  0  0
 38 39  1  0  0  0  0
 39 40  1  0  0  0  0
 39 41  2  0  0  0  0
 41 42  1  0  0  0  0
 43 41  1  0  0  0  0
 43 44  1  0  0  0  0
 45 43  2  0  0  0  0
 46 45  1  0  0  0  0
 47 38  2  0  0  0  0
 47 45  1  0  0  0  0
 48 47  1  0  0  0  0
 49 58  1  0  0  0  0
 50 52  1  0  0  0  0
 50 49  2  0  0  0  0
 51 50  1  0  0  0  0
 52 54  2  0  0  0  0
 53 52  1  0  0  0  0
 54 55  1  0  0  0  0
 54 56  1  0  0  0  0
 56 57  1  0  0  0  0
 58 56  2  0  0  0  0
 58 59  1  0  0  0  0
 60 61  1  0  0  0  0
 61 62  1  0  0  0  0
 61 63  2  0  0  0  0
 63 64  1  0  0  0  0
 65 63  1  0  0  0  0
 65 66  1  0  0  0  0
 67 65  2  0  0  0  0
 68 67  1  0  0  0  0
 69 60  2  0  0  0  0
 69 67  1  0  0  0  0
 70 69  1  0  0  0  0
M  END
$$$$
