CSD_code = CARDUV | q = 0 | S = 0 | Stoichiometry = C33H30BrCuN2P2S | MND = 4
 OpenBabel04212202023D

 70 76  0  0  0  0  0  0  0  0999 V2000
    5.4881    1.5571   -5.1634 Br  0  0  0  0  0  0  0  0  0  0  0  0
    5.7418    2.6353   -3.1374 Cu  0  0  0  0  0  0  0  0  0  0  0  0
    3.8355    3.8515   -2.2815 S   0  0  0  0  0  0  0  0  0  0  0  0
    7.4695    2.8846   -1.7549 P   0  0  0  0  0  4  0  0  0  0  0  0
    6.6483    5.0922   -3.6167 P   0  0  0  0  0  4  0  0  0  0  0  0
    3.7310    4.3141   -4.9365 N   0  0  0  0  0  0  0  0  0  0  0  0
    4.3222    3.5181   -5.1881 H   0  0  0  0  0  0  0  0  0  0  0  0
    2.1524    5.2712   -3.7529 N   0  0  0  0  0  0  0  0  0  0  0  0
    1.7419    5.6692   -2.9273 H   0  0  0  0  0  0  0  0  0  0  0  0
    3.2391    4.4784   -3.7052 C   0  0  0  0  0  3  0  0  0  0  0  0
    2.8911    4.9470   -5.9336 C   0  0  0  0  0  0  0  0  0  0  0  0
    2.3882    4.1898   -6.5429 H   0  0  0  0  0  0  0  0  0  0  0  0
    3.4991    5.5775   -6.5864 H   0  0  0  0  0  0  0  0  0  0  0  0
    1.8966    5.7659   -5.0885 C   0  0  0  0  0  0  0  0  0  0  0  0
    2.1024    6.8403   -5.1537 H   0  0  0  0  0  0  0  0  0  0  0  0
    0.8567    5.5857   -5.3730 H   0  0  0  0  0  0  0  0  0  0  0  0
    7.6245    4.5733   -1.1070 C   0  0  0  0  0  0  0  0  0  0  0  0
    7.2456    5.6094   -1.9714 C   0  0  0  0  0  0  0  0  0  0  0  0
    7.3456    6.9273   -1.5393 C   0  0  0  0  0  0  0  0  0  0  0  0
    7.0607    7.7366   -2.1979 H   0  0  0  0  0  0  0  0  0  0  0  0
    7.8029    7.2085   -0.2643 C   0  0  0  0  0  0  0  0  0  0  0  0
    7.8784    8.2356    0.0625 H   0  0  0  0  0  0  0  0  0  0  0  0
    8.1613    6.1802    0.5941 C   0  0  0  0  0  0  0  0  0  0  0  0
    8.5120    6.4051    1.5908 H   0  0  0  0  0  0  0  0  0  0  0  0
    8.0742    4.8652    0.1759 C   0  0  0  0  0  0  0  0  0  0  0  0
    8.3558    4.0624    0.8434 H   0  0  0  0  0  0  0  0  0  0  0  0
    7.6895    1.8696   -0.2607 C   0  0  0  0  0  0  0  0  0  0  0  0
    6.5860    1.8129    0.5904 C   0  0  0  0  0  0  0  0  0  0  0  0
    5.6987    2.3829    0.3397 H   0  0  0  0  0  0  0  0  0  0  0  0
    6.6315    1.0424    1.7353 C   0  0  0  0  0  0  0  0  0  0  0  0
    5.7789    1.0061    2.3974 H   0  0  0  0  0  0  0  0  0  0  0  0
    7.7713    0.3081    2.0266 C   0  0  0  0  0  0  0  0  0  0  0  0
    7.8073   -0.2997    2.9187 H   0  0  0  0  0  0  0  0  0  0  0  0
    8.8604    0.3450    1.1715 C   0  0  0  0  0  0  0  0  0  0  0  0
    9.7438   -0.2346    1.3970 H   0  0  0  0  0  0  0  0  0  0  0  0
    8.8243    1.1203    0.0256 C   0  0  0  0  0  0  0  0  0  0  0  0
    9.6738    1.1475   -0.6428 H   0  0  0  0  0  0  0  0  0  0  0  0
    9.0437    2.6603   -2.6390 C   0  0  0  0  0  0  0  0  0  0  0  0
   10.1508    3.4823   -2.4608 C   0  0  0  0  0  0  0  0  0  0  0  0
   10.1117    4.3007   -1.7545 H   0  0  0  0  0  0  0  0  0  0  0  0
   11.2994    3.2525   -3.1952 C   0  0  0  0  0  0  0  0  0  0  0  0
   12.1576    3.8947   -3.0599 H   0  0  0  0  0  0  0  0  0  0  0  0
   11.3511    2.2081   -4.1039 C   0  0  0  0  0  0  0  0  0  0  0  0
   12.2507    2.0386   -4.6770 H   0  0  0  0  0  0  0  0  0  0  0  0
   10.2508    1.3856   -4.2821 C   0  0  0  0  0  0  0  0  0  0  0  0
   10.2860    0.5743   -4.9935 H   0  0  0  0  0  0  0  0  0  0  0  0
    9.0983    1.6131   -3.5550 C   0  0  0  0  0  0  0  0  0  0  0  0
    8.2279    0.9863   -3.6999 H   0  0  0  0  0  0  0  0  0  0  0  0
    5.8148    6.5991   -4.2099 C   0  0  0  0  0  0  0  0  0  0  0  0
    5.9837    7.0458   -5.5173 C   0  0  0  0  0  0  0  0  0  0  0  0
    6.7150    6.5678   -6.1546 H   0  0  0  0  0  0  0  0  0  0  0  0
    5.2289    8.1020   -5.9942 C   0  0  0  0  0  0  0  0  0  0  0  0
    5.3743    8.4514   -7.0063 H   0  0  0  0  0  0  0  0  0  0  0  0
    4.2905    8.7141   -5.1790 C   0  0  0  0  0  0  0  0  0  0  0  0
    3.7081    9.5444   -5.5516 H   0  0  0  0  0  0  0  0  0  0  0  0
    4.0971    8.2552   -3.8846 C   0  0  0  0  0  0  0  0  0  0  0  0
    3.3608    8.7265   -3.2481 H   0  0  0  0  0  0  0  0  0  0  0  0
    4.8423    7.1948   -3.4066 C   0  0  0  0  0  0  0  0  0  0  0  0
    4.6813    6.8245   -2.4022 H   0  0  0  0  0  0  0  0  0  0  0  0
    8.2165    5.1638   -4.5604 C   0  0  0  0  0  0  0  0  0  0  0  0
    9.2084    6.1062   -4.3131 C   0  0  0  0  0  0  0  0  0  0  0  0
    9.0723    6.8466   -3.5368 H   0  0  0  0  0  0  0  0  0  0  0  0
   10.3712    6.0914   -5.0595 C   0  0  0  0  0  0  0  0  0  0  0  0
   11.1418    6.8241   -4.8655 H   0  0  0  0  0  0  0  0  0  0  0  0
   10.5527    5.1402   -6.0511 C   0  0  0  0  0  0  0  0  0  0  0  0
   11.4666    5.1313   -6.6270 H   0  0  0  0  0  0  0  0  0  0  0  0
    9.5661    4.2023   -6.3013 C   0  0  0  0  0  0  0  0  0  0  0  0
    9.7029    3.4592   -7.0724 H   0  0  0  0  0  0  0  0  0  0  0  0
    8.3999    4.2117   -5.5578 C   0  0  0  0  0  0  0  0  0  0  0  0
    7.6304    3.4762   -5.7491 H   0  0  0  0  0  0  0  0  0  0  0  0
  1  2  1  0  0  0  0
  2  3  1  0  0  0  0
  2  4  1  0  0  0  0
  4 17  1  0  0  0  0
  4 27  1  0  0  0  0
  5  2  1  0  0  0  0
  5 18  1  0  0  0  0
  6 10  1  0  0  0  0
  7  6  1  0  0  0  0
  8 10  1  0  0  0  0
  8  9  1  0  0  0  0
 10  3  1  0  0  0  0
 11 14  1  0  0  0  0
 11  6  1  0  0  0  0
 12 11  1  0  0  0  0
 13 11  1  0  0  0  0
 14  8  1  0  0  0  0
 15 14  1  0  0  0  0
 16 14  1  0  0  0  0
 17 25  1  0  0  0  0
 18 19  1  0  0  0  0
 18 17  2  0  0  0  0
 19 21  2  0  0  0  0
 20 19  1  0  0  0  0
 21 22  1  0  0  0  0
 21 23  1  0  0  0  0
 23 24  1  0  0  0  0
 25 23  2  0  0  0  0
 25 26  1  0  0  0  0
 27 36  2  0  0  0  0
 27 28  1  0  0  0  0
 28 30  2  0  0  0  0
 29 28  1  0  0  0  0
 30 32  1  0  0  0  0
 30 31  1  0  0  0  0
 32 33  1  0  0  0  0
 34 35  1  0  0  0  0
 34 32  2  0  0  0  0
 36 34  1  0  0  0  0
 37 36  1  0  0  0  0
 38 39  1  0  0  0  0
 38  4  1  0  0  0  0
 39 40  1  0  0  0  0
 41 42  1  0  0  0  0
 41 39  2  0  0  0  0
 43 41  1  0  0  0  0
 44 43  1  0  0  0  0
 45 43  2  0  0  0  0
 45 47  1  0  0  0  0
 46 45  1  0  0  0  0
 47 38  2  0  0  0  0
 48 47  1  0  0  0  0
 49  5  1  0  0  0  0
 49 58  1  0  0  0  0
 50 49  2  0  0  0  0
 51 50  1  0  0  0  0
 52 50  1  0  0  0  0
 52 54  2  0  0  0  0
 53 52  1  0  0  0  0
 54 56  1  0  0  0  0
 55 54  1  0  0  0  0
 56 58  2  0  0  0  0
 56 57  1  0  0  0  0
 58 59  1  0  0  0  0
 60 61  1  0  0  0  0
 60  5  1  0  0  0  0
 61 62  1  0  0  0  0
 63 64  1  0  0  0  0
 63 61  2  0  0  0  0
 65 63  1  0  0  0  0
 66 65  1  0  0  0  0
 67 65  2  0  0  0  0
 67 69  1  0  0  0  0
 68 67  1  0  0  0  0
 69 60  2  0  0  0  0
 70 69  1  0  0  0  0
M  END
$$$$
