CSD_code = CARQES | q = 0 | S = 0 | Stoichiometry = C25H27BBr3ClN8Ni | MND = 6
 OpenBabel04212202023D

 66 73  0  0  1  0  0  0  0  0999 V2000
    3.3506    5.0137   13.7818 Br  0  0  0  0  0  0  0  0  0  0  0  0
    9.7971    4.9103    7.3365 Br  0  0  0  0  0  0  0  0  0  0  0  0
    3.9119   12.2820    7.3096 Br  0  0  0  0  0  0  0  0  0  0  0  0
    6.9146    8.9310   11.2329 Ni  0  0  0  0  0  0  0  0  0  0  0  0
    8.4228    8.1449   12.5517 Cl  0  0  0  0  0  0  0  0  0  0  0  0
    5.6891    7.5428   11.6810 N   0  0  2  0  0  0  0  0  0  0  0  0
    4.9711    6.9979   10.6788 N   0  0  0  0  0  0  0  0  0  0  0  0
    7.6786    7.5746    9.5275 N   0  0  2  0  0  0  0  0  0  0  0  0
    6.6806    6.9335    8.8893 N   0  0  0  0  0  0  0  0  0  0  0  0
    5.6006    9.6994    9.9224 N   0  0  2  0  0  0  0  0  0  0  0  0
    5.0951    8.8377    9.0251 N   0  0  0  0  0  0  0  0  0  0  0  0
    8.1042   10.3225   10.9199 N   0  0  0  0  0  0  0  0  0  0  0  0
    6.2966   10.4346   12.8743 N   0  0  0  0  0  0  0  0  0  0  0  0
    5.2971    6.9878   12.8265 C   0  0  1  0  0  3  0  0  0  0  0  0
    4.2840    6.0676   12.5302 C   0  0  0  0  0  0  0  0  0  0  0  0
    4.1018    6.0930   11.1600 C   0  0  0  0  0  0  0  0  0  0  0  0
    5.8201    7.2277   14.1955 C   0  0  0  0  0  0  0  0  0  0  0  0
    3.1489    5.2973   10.3476 C   0  0  0  0  0  0  0  0  0  0  0  0
    8.8260    7.0304    9.1422 C   0  0  1  0  0  3  0  0  0  0  0  0
    8.5432    6.0083    8.2240 C   0  0  0  0  0  0  0  0  0  0  0  0
    7.1667    5.9681    8.0862 C   0  0  0  0  0  0  0  0  0  0  0  0
   10.1670    7.4542    9.6194 C   0  0  0  0  0  0  0  0  0  0  0  0
    6.3395    5.0636    7.2496 C   0  0  0  0  0  0  0  0  0  0  0  0
    5.2993   10.9342    9.5269 C   0  0  1  0  0  3  0  0  0  0  0  0
    4.5878   10.8426    8.3255 C   0  0  0  0  0  0  0  0  0  0  0  0
    4.4753    9.4933    8.0311 C   0  0  0  0  0  0  0  0  0  0  0  0
    5.6265   12.1923   10.2466 C   0  0  0  0  0  0  0  0  0  0  0  0
    3.8222    8.8520    6.8643 C   0  0  0  0  0  0  0  0  0  0  0  0
    8.3320   11.1743   11.9296 C   0  0  1  0  0  3  0  0  0  0  0  0
    9.2778   12.1897   11.8202 C   0  0  0  0  0  0  0  0  0  0  0  0
   10.0023   12.3209   10.6495 C   0  0  0  0  0  0  0  0  0  0  0  0
    9.7389   11.4465    9.6076 C   0  0  0  0  0  0  0  0  0  0  0  0
    8.7777   10.4660    9.7880 C   0  0  0  0  0  0  0  0  0  0  0  0
    7.4786   11.0224   13.1179 C   0  0  1  0  0  3  0  0  0  0  0  0
    7.8390   11.4683   14.3849 C   0  0  0  0  0  0  0  0  0  0  0  0
    6.9323   11.3274   15.4229 C   0  0  0  0  0  0  0  0  0  0  0  0
    5.6928   10.7689   15.1578 C   0  0  0  0  0  0  0  0  0  0  0  0
    5.4269   10.3350   13.8667 C   0  0  0  0  0  0  0  0  0  0  0  0
    5.2327    7.3165    9.1955 B   0  0  2  0  0  0  0  0  0  0  0  0
    4.4737    6.7452    8.5020 H   0  0  0  0  0  0  0  0  0  0  0  0
    5.0082    7.5236   14.8598 H   0  0  0  0  0  0  0  0  0  0  0  0
    6.5984    7.9815   14.2000 H   0  0  0  0  0  0  0  0  0  0  0  0
    6.2445    6.2995   14.5793 H   0  0  0  0  0  0  0  0  0  0  0  0
    2.4956    5.9489    9.7706 H   0  0  0  0  0  0  0  0  0  0  0  0
    2.5409    4.6816   11.0065 H   0  0  0  0  0  0  0  0  0  0  0  0
    3.6815    4.6485    9.6548 H   0  0  0  0  0  0  0  0  0  0  0  0
   10.8223    6.5878    9.6834 H   0  0  0  0  0  0  0  0  0  0  0  0
   10.0852    7.9113   10.6016 H   0  0  0  0  0  0  0  0  0  0  0  0
   10.6175    8.1678    8.9281 H   0  0  0  0  0  0  0  0  0  0  0  0
    5.6786    5.6330    6.5988 H   0  0  0  0  0  0  0  0  0  0  0  0
    5.7258    4.4179    7.8763 H   0  0  0  0  0  0  0  0  0  0  0  0
    6.9878    4.4406    6.6379 H   0  0  0  0  0  0  0  0  0  0  0  0
    5.6500   12.0174   11.3178 H   0  0  0  0  0  0  0  0  0  0  0  0
    4.8719   12.9436   10.0202 H   0  0  0  0  0  0  0  0  0  0  0  0
    6.5946   12.5825    9.9290 H   0  0  0  0  0  0  0  0  0  0  0  0
    3.4247    9.6181    6.2028 H   0  0  0  0  0  0  0  0  0  0  0  0
    3.0064    8.2071    7.1860 H   0  0  0  0  0  0  0  0  0  0  0  0
    4.5376    8.2449    6.3126 H   0  0  0  0  0  0  0  0  0  0  0  0
    9.4299   12.8741   12.6389 H   0  0  0  0  0  0  0  0  0  0  0  0
   10.7476   13.0949   10.5486 H   0  0  0  0  0  0  0  0  0  0  0  0
   10.2675   11.5180    8.6706 H   0  0  0  0  0  0  0  0  0  0  0  0
    8.5475    9.7666    8.9965 H   0  0  0  0  0  0  0  0  0  0  0  0
    8.8155   11.8884   14.5631 H   0  0  0  0  0  0  0  0  0  0  0  0
    7.1889   11.6544   16.4192 H   0  0  0  0  0  0  0  0  0  0  0  0
    4.9511   10.6636   15.9333 H   0  0  0  0  0  0  0  0  0  0  0  0
    4.4730    9.8913   13.6133 H   0  0  0  0  0  0  0  0  0  0  0  0
  2 20  1  0  0  0  0
  3 25  1  0  0  0  0
  4  6  1  0  0  0  0
  4  5  1  0  0  0  0
  4 13  1  0  0  0  0
  6  7  1  1  0  0  0
  6 14  1  0  0  0  0
  7 16  1  0  0  0  0
  8  9  1  1  0  0  0
  8  4  1  0  0  0  0
  9 39  1  0  0  0  0
 10 11  1  6  0  0  0
 10  4  1  0  0  0  0
 11 39  1  0  0  0  0
 12  4  1  0  0  0  0
 12 29  1  0  0  0  0
 13 34  1  0  0  0  0
 13 38  1  0  0  0  0
 14 17  1  6  0  0  0
 15 14  1  0  0  0  0
 15  1  1  0  0  0  0
 16 15  2  0  0  0  0
 17 42  1  0  0  0  0
 17 43  1  0  0  0  0
 17 41  1  0  0  0  0
 18 45  1  0  0  0  0
 18 16  1  0  0  0  0
 19  8  1  0  0  0  0
 19 22  1  6  0  0  0
 20 19  1  0  0  0  0
 21 20  2  0  0  0  0
 21  9  1  0  0  0  0
 22 47  1  0  0  0  0
 22 48  1  0  0  0  0
 23 51  1  0  0  0  0
 23 21  1  0  0  0  0
 24 10  1  0  0  0  0
 24 27  1  1  0  0  0
 25 24  1  0  0  0  0
 26 25  2  0  0  0  0
 26 11  1  0  0  0  0
 27 53  1  0  0  0  0
 28 57  1  0  0  0  0
 28 26  1  0  0  0  0
 29 30  1  6  0  0  0
 29 34  1  0  0  0  0
 30 59  1  0  0  0  0
 31 30  2  0  0  0  0
 32 33  2  0  0  0  0
 32 31  1  0  0  0  0
 33 12  1  0  0  0  0
 34 35  1  6  0  0  0
 35 63  1  0  0  0  0
 35 36  2  0  0  0  0
 36 64  1  0  0  0  0
 37 36  1  0  0  0  0
 37 65  1  0  0  0  0
 38 37  2  0  0  0  0
 39 40  1  6  0  0  0
 39  7  1  0  0  0  0
 44 18  1  0  0  0  0
 46 18  1  0  0  0  0
 49 22  1  0  0  0  0
 50 23  1  0  0  0  0
 52 23  1  0  0  0  0
 54 27  1  0  0  0  0
 55 27  1  0  0  0  0
 56 28  1  0  0  0  0
 58 28  1  0  0  0  0
 60 31  1  0  0  0  0
 61 32  1  0  0  0  0
 62 33  1  0  0  0  0
 66 38  1  0  0  0  0
M  END
$$$$
