CSD_code = CARXAU | q = 0 | S = 0 | Stoichiometry = C5H10Cl3N3OPt | MND = 6
 OpenBabel04212202023D

 23 23  0  0  0  0  0  0  0  0999 V2000
    3.9458   -0.5493   10.0239 Pt  0  0  0  0  0  0  0  0  0  0  0  0
    6.2519   -0.4694   10.1121 Cl  0  0  0  0  0  0  0  0  0  0  0  0
    3.8865   -1.5530    7.8692 Cl  0  0  0  0  0  0  0  0  0  0  0  0
    3.8959    0.2405   12.2485 Cl  0  0  0  0  0  0  0  0  0  0  0  0
    1.8613    1.8189   10.2582 O   0  0  0  0  0  0  0  0  0  0  0  0
    3.8214    1.3116    9.1996 N   0  0  0  0  0  0  0  0  0  0  0  0
    4.2257   -2.5122   10.8943 N   0  0  0  0  0  4  0  0  0  0  0  0
    1.8254   -0.7627   10.0692 N   0  0  0  0  0  4  0  0  0  0  0  0
    2.8339    2.1902    9.5760 C   0  0  0  0  0  0  0  0  0  0  0  0
    2.9673    3.5418    9.1196 C   0  0  0  0  0  0  0  0  0  0  0  0
    2.2141    4.2294    9.4694 H   0  0  0  0  0  0  0  0  0  0  0  0
    3.9745    3.9164    8.2883 C   0  0  0  0  0  0  0  0  0  0  0  0
    4.0572    4.9382    7.9491 H   0  0  0  0  0  0  0  0  0  0  0  0
    4.9031    2.9556    7.8608 C   0  0  0  0  0  0  0  0  0  0  0  0
    5.6941    3.2026    7.1739 H   0  0  0  0  0  0  0  0  0  0  0  0
    4.7910    1.6836    8.3474 C   0  0  0  0  0  0  0  0  0  0  0  0
    5.4929    0.9200    8.0411 H   0  0  0  0  0  0  0  0  0  0  0  0
    3.9719   -2.4991   11.8823 H   0  0  0  0  0  0  0  0  0  0  0  0
    3.7588   -3.2761   10.4093 H   0  0  0  0  0  0  0  0  0  0  0  0
    5.2375   -2.6498   10.8262 H   0  0  0  0  0  0  0  0  0  0  0  0
    1.4396   -1.1032    9.1922 H   0  0  0  0  0  0  0  0  0  0  0  0
    1.4624   -1.2960   10.8530 H   0  0  0  0  0  0  0  0  0  0  0  0
    1.5860    0.2634   10.2094 H   0  0  0  0  0  0  0  0  0  0  0  0
  1  8  1  0  0  0  0
  1  2  1  0  0  0  0
  1  7  1  0  0  0  0
  1  4  1  0  0  0  0
  3  1  1  0  0  0  0
  6  9  1  0  0  0  0
  6  1  1  0  0  0  0
  7 18  1  0  0  0  0
  8 23  1  0  0  0  0
  8 22  1  0  0  0  0
  9  5  2  0  0  0  0
 10 11  1  0  0  0  0
 10  9  1  0  0  0  0
 12 10  2  0  0  0  0
 13 12  1  0  0  0  0
 14 12  1  0  0  0  0
 14 16  2  0  0  0  0
 15 14  1  0  0  0  0
 16  6  1  0  0  0  0
 17 16  1  0  0  0  0
 19  7  1  0  0  0  0
 20  7  1  0  0  0  0
 21  8  1  0  0  0  0
M  END
$$$$
