CSD_code = CASTIB | q = 0 | S = 0 | Stoichiometry = C20H24Cl2NO4PPd | MND = 4
 OpenBabel04212202023D

 53 55  0  0  1  0  0  0  0  0999 V2000
    5.0550    2.7464    2.3731 Pd  0  0  0  0  0  0  0  0  0  0  0  0
    3.7816    1.2857    0.2490 C   0  0  0  0  0  0  0  0  0  0  0  0
    4.8353    1.2110   -0.0371 H   0  0  0  0  0  0  0  0  0  0  0  0
    3.3929    2.2519   -0.0852 H   0  0  0  0  0  0  0  0  0  0  0  0
    3.2244    0.4810   -0.2457 H   0  0  0  0  0  0  0  0  0  0  0  0
    4.2112   -0.1211    2.1473 C   0  0  0  0  0  0  0  0  0  0  0  0
    3.6037   -0.9420    1.7568 H   0  0  0  0  0  0  0  0  0  0  0  0
    4.2118   -0.1640    3.2387 H   0  0  0  0  0  0  0  0  0  0  0  0
    5.2392   -0.2209    1.7936 H   0  0  0  0  0  0  0  0  0  0  0  0
   -0.5845    0.5081    0.0642 C   0  0  0  0  0  0  0  0  0  0  0  0
   -0.1229   -0.1716   -0.6543 H   0  0  0  0  0  0  0  0  0  0  0  0
   -1.1949    1.2490   -0.4449 H   0  0  0  0  0  0  0  0  0  0  0  0
   -1.1861   -0.0735    0.7643 H   0  0  0  0  0  0  0  0  0  0  0  0
    1.3077    0.5062    1.4408 C   0  0  0  0  0  0  0  0  0  0  0  0
    2.3166    1.3779    2.2056 C   0  0  2  0  0  0  0  0  0  0  0  0
    2.2885    1.0199    3.2458 H   0  0  0  0  0  0  0  0  0  0  0  0
    1.8677    2.8427    2.2265 C   0  0  1  0  0  0  0  0  0  0  0  0
    1.7390    3.2512    1.2210 H   0  0  0  0  0  0  0  0  0  0  0  0
    0.5851    2.9721    2.9981 C   0  0  0  0  0  0  0  0  0  0  0  0
   -1.2776    4.3594    3.3644 C   0  0  0  0  0  0  0  0  0  0  0  0
   -2.1136    3.8725    2.8591 H   0  0  0  0  0  0  0  0  0  0  0  0
   -1.4073    5.4392    3.3498 H   0  0  0  0  0  0  0  0  0  0  0  0
   -1.2131    3.9866    4.3881 H   0  0  0  0  0  0  0  0  0  0  0  0
    2.8053    5.5751    2.9298 C   0  0  0  0  0  0  0  0  0  0  0  0
    2.0310    6.1152    1.9081 C   0  0  0  0  0  0  0  0  0  0  0  0
    1.5727    5.4773    1.1674 H   0  0  0  0  0  0  0  0  0  0  0  0
    1.8351    7.4837    1.8463 C   0  0  0  0  0  0  0  0  0  0  0  0
    1.2248    7.9005    1.0585 H   0  0  0  0  0  0  0  0  0  0  0  0
    2.4259    8.3189    2.7799 C   0  0  0  0  0  0  0  0  0  0  0  0
    2.2727    9.3862    2.7214 H   0  0  0  0  0  0  0  0  0  0  0  0
    3.2262    7.7866    3.7790 C   0  0  0  0  0  0  0  0  0  0  0  0
    3.7042    8.4375    4.4953 H   0  0  0  0  0  0  0  0  0  0  0  0
    3.4210    6.4213    3.8536 C   0  0  0  0  0  0  0  0  0  0  0  0
    4.0629    5.9959    4.6135 H   0  0  0  0  0  0  0  0  0  0  0  0
    2.9950    3.4417    4.8246 C   0  0  0  0  0  0  0  0  0  0  0  0
    1.9828    4.0076    5.5939 C   0  0  0  0  0  0  0  0  0  0  0  0
    1.3219    4.7435    5.1568 H   0  0  0  0  0  0  0  0  0  0  0  0
    1.8396    3.6374    6.9178 C   0  0  0  0  0  0  0  0  0  0  0  0
    1.0518    4.0719    7.5152 H   0  0  0  0  0  0  0  0  0  0  0  0
    2.7054    2.7125    7.4805 C   0  0  0  0  0  0  0  0  0  0  0  0
    2.5872    2.4266    8.5148 H   0  0  0  0  0  0  0  0  0  0  0  0
    3.7297    2.1643    6.7252 C   0  0  0  0  0  0  0  0  0  0  0  0
    4.4142    1.4588    7.1714 H   0  0  0  0  0  0  0  0  0  0  0  0
    3.8775    2.5282    5.3989 C   0  0  0  0  0  0  0  0  0  0  0  0
    4.7052    2.1261    4.7977 H   0  0  0  0  0  0  0  0  0  0  0  0
    6.8898    1.6166    1.6970 Cl  0  0  0  0  0  0  0  0  0  0  0  0
    6.3114    4.4490    3.0998 Cl  0  0  0  0  0  0  0  0  0  0  0  0
    3.6946    1.1806    1.7099 N   0  0  0  0  0  4  0  0  0  0  0  0
    1.3218   -0.6948    1.4375 O   0  0  0  0  0  0  0  0  0  0  0  0
    0.4166    1.2361    0.7693 O   0  0  0  0  0  0  0  0  0  0  0  0
    0.2158    2.1936    3.8395 O   0  0  0  0  0  0  0  0  0  0  0  0
   -0.0688    4.0862    2.6653 O   0  0  0  0  0  0  0  0  0  0  0  0
    3.2358    3.8250    3.0656 P   0  0  0  0  0  4  0  0  0  0  0  0
  1 53  1  0  0  0  0
  1 47  1  0  0  0  0
  2 48  1  0  0  0  0
  3  2  1  0  0  0  0
  4  2  1  0  0  0  0
  5  2  1  0  0  0  0
  6  8  1  0  0  0  0
  7  6  1  0  0  0  0
  9  6  1  0  0  0  0
 10 13  1  0  0  0  0
 10 50  1  0  0  0  0
 11 10  1  0  0  0  0
 12 10  1  0  0  0  0
 14 15  1  0  0  0  0
 15 17  1  0  0  0  0
 15 16  1  1  0  0  0
 17 18  1  6  0  0  0
 17 19  1  0  0  0  0
 17 53  1  0  0  0  0
 19 51  2  0  0  0  0
 20 23  1  0  0  0  0
 21 20  1  0  0  0  0
 22 20  1  0  0  0  0
 24 53  1  0  0  0  0
 24 33  1  0  0  0  0
 25 24  2  0  0  0  0
 26 25  1  0  0  0  0
 27 25  1  0  0  0  0
 27 29  2  0  0  0  0
 28 27  1  0  0  0  0
 29 31  1  0  0  0  0
 30 29  1  0  0  0  0
 31 33  2  0  0  0  0
 31 32  1  0  0  0  0
 33 34  1  0  0  0  0
 35 44  2  0  0  0  0
 35 36  1  0  0  0  0
 36 38  2  0  0  0  0
 37 36  1  0  0  0  0
 38 40  1  0  0  0  0
 38 39  1  0  0  0  0
 40 41  1  0  0  0  0
 42 43  1  0  0  0  0
 42 40  2  0  0  0  0
 44 42  1  0  0  0  0
 45 44  1  0  0  0  0
 46  1  1  0  0  0  0
 48  6  1  0  0  0  0
 48 15  1  0  0  0  0
 48  1  1  0  0  0  0
 49 14  2  0  0  0  0
 50 14  1  0  0  0  0
 52 19  1  0  0  0  0
 52 20  1  0  0  0  0
 53 35  1  0  0  0  0
M  END
$$$$
