CSD_code = CASTEX | q = 0 | S = 0 | Stoichiometry = C26H30Br2I2N4Pd | MND = 4
 OpenBabel04212202023D

 65 68  0  0  1  0  0  0  0  0999 V2000
    4.0928   12.7583    4.2313 C   0  0  0  0  0  0  0  0  0  0  0  0
    2.1128   11.9680    4.8991 C   0  0  0  0  0  0  0  0  0  0  0  0
    1.2719   11.3069    4.9244 H   0  0  0  0  0  0  0  0  0  0  0  0
    2.3472   13.1220    5.5614 C   0  0  0  0  0  0  0  0  0  0  0  0
    1.7575   13.6379    6.2902 H   0  0  0  0  0  0  0  0  0  0  0  0
    4.1964   14.8128    5.5715 C   0  0  0  0  0  0  0  0  0  0  0  0
    5.2012   14.8341    5.1156 H   0  0  0  0  0  0  0  0  0  0  0  0
    4.3038   14.8040    6.6615 H   0  0  0  0  0  0  0  0  0  0  0  0
    3.4052   16.0402    5.1176 C   0  0  0  0  0  0  0  0  0  0  0  0
    3.1514   15.9290    4.0611 H   0  0  0  0  0  0  0  0  0  0  0  0
    2.4736   16.1110    5.6837 H   0  0  0  0  0  0  0  0  0  0  0  0
    4.2194   17.3178    5.2972 C   0  0  0  0  0  0  0  0  0  0  0  0
    5.1078   17.2575    4.6654 H   0  0  0  0  0  0  0  0  0  0  0  0
    4.5447   17.4044    6.3367 H   0  0  0  0  0  0  0  0  0  0  0  0
    3.4192   18.5536    4.9103 C   0  0  0  0  0  0  0  0  0  0  0  0
    4.0222   19.4481    5.0420 H   0  0  0  0  0  0  0  0  0  0  0  0
    2.5290   18.6450    5.5289 H   0  0  0  0  0  0  0  0  0  0  0  0
    3.1125   18.4936    3.8688 H   0  0  0  0  0  0  0  0  0  0  0  0
    3.3852   10.6518    3.2288 C   0  0  0  0  0  0  0  0  0  0  0  0
    2.9640    9.3861    3.6241 C   0  0  0  0  0  0  0  0  0  0  0  0
    2.5071    9.2460    4.5914 H   0  0  0  0  0  0  0  0  0  0  0  0
    3.1570    8.3000    2.7923 C   0  0  0  0  0  0  0  0  0  0  0  0
    2.8399    7.3163    3.1006 H   0  0  0  0  0  0  0  0  0  0  0  0
    3.7720    8.4840    1.5647 C   0  0  0  0  0  0  0  0  0  0  0  0
    4.2002    9.7374    1.1592 C   0  0  0  0  0  0  0  0  0  0  0  0
    4.6689    9.8653    0.1956 H   0  0  0  0  0  0  0  0  0  0  0  0
    4.0141   10.8245    1.9948 C   0  0  0  0  0  0  0  0  0  0  0  0
    4.3070   11.8177    1.6520 H   0  0  0  0  0  0  0  0  0  0  0  0
    7.7571   12.9005    2.6027 C   0  0  1  0  0  3  0  0  0  0  0  0
    9.4696   12.5267    1.2317 C   0  0  0  0  0  0  0  0  0  0  0  0
   10.0507   11.9998    0.5040 H   0  0  0  0  0  0  0  0  0  0  0  0
    9.6892   13.7170    1.8319 C   0  0  0  0  0  0  0  0  0  0  0  0
   10.5053   14.4038    1.7459 H   0  0  0  0  0  0  0  0  0  0  0  0
    7.6856   10.7766    1.3552 C   0  0  0  0  0  0  0  0  0  0  0  0
    7.4769   10.7690    0.2791 H   0  0  0  0  0  0  0  0  0  0  0  0
    6.7327   10.6982    1.9027 H   0  0  0  0  0  0  0  0  0  0  0  0
    8.6008    9.6075    1.7233 C   0  0  0  0  0  0  0  0  0  0  0  0
    9.5051    9.6608    1.1128 H   0  0  0  0  0  0  0  0  0  0  0  0
    8.8943    9.7019    2.7712 H   0  0  0  0  0  0  0  0  0  0  0  0
    7.9212    8.2526    1.5141 C   0  0  0  0  0  0  0  0  0  0  0  0
    8.6921    7.4880    1.4040 H   0  0  0  0  0  0  0  0  0  0  0  0
    7.3452    8.2712    0.5856 H   0  0  0  0  0  0  0  0  0  0  0  0
    7.0186    7.8672    2.6787 C   0  0  0  0  0  0  0  0  0  0  0  0
    6.5378    6.9122    2.4831 H   0  0  0  0  0  0  0  0  0  0  0  0
    6.2452    8.6118    2.8456 H   0  0  0  0  0  0  0  0  0  0  0  0
    7.5970    7.7793    3.5950 H   0  0  0  0  0  0  0  0  0  0  0  0
    8.4239   15.0728    3.4764 C   0  0  0  0  0  0  0  0  0  0  0  0
    8.7435   16.3343    2.9862 C   0  0  0  0  0  0  0  0  0  0  0  0
    9.1491   16.4414    1.9921 H   0  0  0  0  0  0  0  0  0  0  0  0
    8.5047   17.4565    3.7560 C   0  0  0  0  0  0  0  0  0  0  0  0
    8.7372   18.4378    3.3735 H   0  0  0  0  0  0  0  0  0  0  0  0
    7.9501   17.3103    5.0165 C   0  0  0  0  0  0  0  0  0  0  0  0
    7.6337   16.0592    5.5209 C   0  0  0  0  0  0  0  0  0  0  0  0
    7.2152   15.9633    6.5110 H   0  0  0  0  0  0  0  0  0  0  0  0
    7.8633   14.9357    4.7466 C   0  0  0  0  0  0  0  0  0  0  0  0
    7.6568   13.9474    5.1574 H   0  0  0  0  0  0  0  0  0  0  0  0
    3.5686   13.5858    5.1438 N   0  0  0  0  0  0  0  0  0  0  0  0
    3.1936   11.7576    4.0744 N   0  0  0  0  0  0  0  0  0  0  0  0
    8.2789   12.0440    1.7137 N   0  0  0  0  0  0  0  0  0  0  0  0
    8.6316   13.9313    2.6832 N   0  0  0  0  0  0  0  0  0  0  0  0
    4.0387    6.9922    0.4126 Br  0  0  0  0  0  0  0  0  0  0  0  0
    7.6146   18.8543    6.0792 Br  0  0  0  0  0  0  0  0  0  0  0  0
    5.9269   12.8372    3.4272 Pd  0  0  0  0  0  0  0  0  0  0  0  0
    6.6430   11.0058    5.1551 I   0  0  0  0  0  0  0  0  0  0  0  0
    5.2057   14.7645    1.7966 I   0  0  0  0  0  0  0  0  0  0  0  0
  1 57  1  0  0  0  0
  2  3  1  0  0  0  0
  2  4  2  0  0  0  0
  4  5  1  0  0  0  0
  6  8  1  0  0  0  0
  7  6  1  0  0  0  0
  9 12  1  0  0  0  0
  9  6  1  0  0  0  0
  9 11  1  0  0  0  0
 10  9  1  0  0  0  0
 12 14  1  0  0  0  0
 13 12  1  0  0  0  0
 15 16  1  0  0  0  0
 15 12  1  0  0  0  0
 15 17  1  0  0  0  0
 18 15  1  0  0  0  0
 19 20  1  0  0  0  0
 19 58  1  0  0  0  0
 20 21  1  0  0  0  0
 22 23  1  0  0  0  0
 22 20  2  0  0  0  0
 24 22  1  0  0  0  0
 25 24  2  0  0  0  0
 25 27  1  0  0  0  0
 26 25  1  0  0  0  0
 27 19  2  0  0  0  0
 28 27  1  0  0  0  0
 29 60  1  0  0  0  0
 29 63  1  6  0  0  0
 30 59  1  0  0  0  0
 30 32  2  0  0  0  0
 31 30  1  0  0  0  0
 32 60  1  0  0  0  0
 33 32  1  0  0  0  0
 34 59  1  0  0  0  0
 34 37  1  0  0  0  0
 34 36  1  0  0  0  0
 35 34  1  0  0  0  0
 37 39  1  0  0  0  0
 38 37  1  0  0  0  0
 40 37  1  0  0  0  0
 40 43  1  0  0  0  0
 41 40  1  0  0  0  0
 42 40  1  0  0  0  0
 43 45  1  0  0  0  0
 43 46  1  0  0  0  0
 44 43  1  0  0  0  0
 47 55  1  0  0  0  0
 48 47  2  0  0  0  0
 48 50  1  0  0  0  0
 49 48  1  0  0  0  0
 50 52  2  0  0  0  0
 51 50  1  0  0  0  0
 52 53  1  0  0  0  0
 52 62  1  0  0  0  0
 53 54  1  0  0  0  0
 55 56  1  0  0  0  0
 55 53  2  0  0  0  0
 57  4  1  0  0  0  0
 57  6  1  0  0  0  0
 58  1  1  0  0  0  0
 58  2  1  0  0  0  0
 59 29  1  0  0  0  0
 60 47  1  0  0  0  0
 61 24  1  0  0  0  0
 63  1  2  0  0  0  0
 63 64  1  0  0  0  0
 65 63  1  0  0  0  0
M  END
$$$$
