CSD_code = CASTUN | q = 0 | S = 0 | Stoichiometry = C25H26Cl2NO4PPd | MND = 4
 OpenBabel04212202023D

 60 63  0  0  1  0  0  0  0  0999 V2000
    8.0721   15.0560    4.7640 Pd  0  0  0  0  0  0  0  0  0  0  0  0
    5.3341   15.5221    5.3594 C   0  0  0  0  0  0  0  0  0  0  0  0
    4.1731   16.0640    4.8233 C   0  0  0  0  0  0  0  0  0  0  0  0
    3.8024   15.7036    3.8740 H   0  0  0  0  0  0  0  0  0  0  0  0
    3.5088   17.0827    5.4820 C   0  0  0  0  0  0  0  0  0  0  0  0
    2.6132   17.5003    5.0458 H   0  0  0  0  0  0  0  0  0  0  0  0
    3.9839   17.5817    6.6870 C   0  0  0  0  0  0  0  0  0  0  0  0
    3.2848   18.7010    7.3928 C   0  0  0  0  0  0  0  0  0  0  0  0
    3.2334   18.5098    8.4627 H   0  0  0  0  0  0  0  0  0  0  0  0
    2.2774   18.8373    7.0083 H   0  0  0  0  0  0  0  0  0  0  0  0
    3.8351   19.6302    7.2462 H   0  0  0  0  0  0  0  0  0  0  0  0
    5.1529   17.0408    7.2122 C   0  0  0  0  0  0  0  0  0  0  0  0
    5.5487   17.4311    8.1383 H   0  0  0  0  0  0  0  0  0  0  0  0
    5.8287   16.0257    6.5614 C   0  0  0  0  0  0  0  0  0  0  0  0
    6.7578   15.6415    6.9906 H   0  0  0  0  0  0  0  0  0  0  0  0
    5.7856   13.1099    5.1314 C   0  0  2  0  0  0  0  0  0  0  0  0
    6.0895   12.4096    4.3403 H   0  0  0  0  0  0  0  0  0  0  0  0
    4.2841   12.9011    5.3857 C   0  0  0  0  0  0  0  0  0  0  0  0
    2.1877   12.8531    4.3478 C   0  0  0  0  0  0  0  0  0  0  0  0
    1.9369   11.8777    4.7671 H   0  0  0  0  0  0  0  0  0  0  0  0
    1.8037   12.9456    3.3356 H   0  0  0  0  0  0  0  0  0  0  0  0
    1.7765   13.6331    4.9915 H   0  0  0  0  0  0  0  0  0  0  0  0
    6.5614   12.7529    6.4025 C   0  0  1  0  0  0  0  0  0  0  0  0
    6.1099   13.2311    7.2769 H   0  0  0  0  0  0  0  0  0  0  0  0
    6.5626   11.2582    6.5839 C   0  0  0  0  0  0  0  0  0  0  0  0
    6.9312    9.5295    8.1232 C   0  0  0  0  0  0  0  0  0  0  0  0
    5.9235    9.1289    8.2457 H   0  0  0  0  0  0  0  0  0  0  0  0
    7.4908    9.4351    9.0506 H   0  0  0  0  0  0  0  0  0  0  0  0
    7.4289    8.9990    7.3095 H   0  0  0  0  0  0  0  0  0  0  0  0
    9.1194   12.0159    5.2878 C   0  0  0  0  0  0  0  0  0  0  0  0
    9.2390   12.1667    3.9071 C   0  0  0  0  0  0  0  0  0  0  0  0
    8.9172   13.1035    3.4288 H   0  0  0  0  0  0  0  0  0  0  0  0
    9.7954   11.1529    3.1481 C   0  0  0  0  0  0  0  0  0  0  0  0
    9.8907   11.2703    2.0792 H   0  0  0  0  0  0  0  0  0  0  0  0
   10.2363    9.9916    3.7617 C   0  0  0  0  0  0  0  0  0  0  0  0
   10.6689    9.1998    3.1688 H   0  0  0  0  0  0  0  0  0  0  0  0
   10.1362    9.8476    5.1365 C   0  0  0  0  0  0  0  0  0  0  0  0
   10.4939    8.9463    5.6126 H   0  0  0  0  0  0  0  0  0  0  0  0
    9.5827   10.8565    5.9026 C   0  0  0  0  0  0  0  0  0  0  0  0
    9.5190   10.7559    6.9774 H   0  0  0  0  0  0  0  0  0  0  0  0
    9.1076   13.2947    7.8426 C   0  0  0  0  0  0  0  0  0  0  0  0
    8.4344   13.2136    9.0566 C   0  0  0  0  0  0  0  0  0  0  0  0
    7.3596   13.1200    9.0890 H   0  0  0  0  0  0  0  0  0  0  0  0
    9.1551   13.2315   10.2386 C   0  0  0  0  0  0  0  0  0  0  0  0
    8.6335   13.1562   11.1815 H   0  0  0  0  0  0  0  0  0  0  0  0
   10.5347   13.3515   10.2184 C   0  0  0  0  0  0  0  0  0  0  0  0
   11.0874   13.3663   11.1460 H   0  0  0  0  0  0  0  0  0  0  0  0
   11.2047   13.4660    9.0095 C   0  0  0  0  0  0  0  0  0  0  0  0
   12.2780   13.5789    8.9926 H   0  0  0  0  0  0  0  0  0  0  0  0
   10.4962   13.4436    7.8246 C   0  0  0  0  0  0  0  0  0  0  0  0
   10.9993   13.5595    6.8730 H   0  0  0  0  0  0  0  0  0  0  0  0
    7.6274   16.4616    3.0536 Cl  0  0  0  0  0  0  0  0  0  0  0  0
   10.1950   15.7114    4.9699 Cl  0  0  0  0  0  0  0  0  0  0  0  0
    6.0336   14.4789    4.6543 N   0  0  0  0  0  4  0  0  0  0  0  0
    5.7842   14.5513    3.6631 H   0  0  0  0  0  0  0  0  0  0  0  0
    3.7963   12.7032    6.4650 O   0  0  0  0  0  0  0  0  0  0  0  0
    3.6014   12.9952    4.2507 O   0  0  0  0  0  0  0  0  0  0  0  0
    6.3581   10.4677    5.6986 O   0  0  0  0  0  0  0  0  0  0  0  0
    6.8663   10.9215    7.8352 O   0  0  0  0  0  0  0  0  0  0  0  0
    8.3322   13.3707    6.2109 P   0  0  0  0  0  4  0  0  0  0  0  0
  1 53  1  0  0  0  0
  1 60  1  0  0  0  0
  2 14  1  0  0  0  0
  3  2  2  0  0  0  0
  3  5  1  0  0  0  0
  4  3  1  0  0  0  0
  5  7  2  0  0  0  0
  6  5  1  0  0  0  0
  7 12  1  0  0  0  0
  7  8  1  0  0  0  0
  8  9  1  0  0  0  0
 10  8  1  0  0  0  0
 11  8  1  0  0  0  0
 12 13  1  0  0  0  0
 14 15  1  0  0  0  0
 14 12  2  0  0  0  0
 16 17  1  6  0  0  0
 16 18  1  0  0  0  0
 16 23  1  0  0  0  0
 18 56  2  0  0  0  0
 19 20  1  0  0  0  0
 19 22  1  0  0  0  0
 21 19  1  0  0  0  0
 23 25  1  0  0  0  0
 23 24  1  1  0  0  0
 25 59  1  0  0  0  0
 26 27  1  0  0  0  0
 26 28  1  0  0  0  0
 29 26  1  0  0  0  0
 30 39  1  0  0  0  0
 30 60  1  0  0  0  0
 31 30  2  0  0  0  0
 32 31  1  0  0  0  0
 33 35  2  0  0  0  0
 33 31  1  0  0  0  0
 34 33  1  0  0  0  0
 35 37  1  0  0  0  0
 36 35  1  0  0  0  0
 37 38  1  0  0  0  0
 37 39  2  0  0  0  0
 39 40  1  0  0  0  0
 41 42  1  0  0  0  0
 42 43  1  0  0  0  0
 42 44  2  0  0  0  0
 44 45  1  0  0  0  0
 46 44  1  0  0  0  0
 46 47  1  0  0  0  0
 48 46  2  0  0  0  0
 49 48  1  0  0  0  0
 50 41  2  0  0  0  0
 50 48  1  0  0  0  0
 51 50  1  0  0  0  0
 52  1  1  0  0  0  0
 54  1  1  0  0  0  0
 54 16  1  0  0  0  0
 54  2  1  0  0  0  0
 55 54  1  0  0  0  0
 57 19  1  0  0  0  0
 57 18  1  0  0  0  0
 58 25  2  0  0  0  0
 59 26  1  0  0  0  0
 60 23  1  0  0  0  0
 60 41  1  0  0  0  0
M  END
$$$$
