CSD_code = CASYOL | q = 0 | S = 0 | Stoichiometry = C22H34Cl2N4NiO4 | MND = 6
 OpenBabel04212202023D

 67 68  0  0  0  0  0  0  0  0999 V2000
    7.8760    2.1388    2.8413 Ni  0  0  0  0  0  0  0  0  0  0  0  0
    7.3476    0.9036    1.0375 Cl  0  0  0  0  0  0  0  0  0  0  0  0
   14.2092    2.1693    0.7153 O   0  0  0  0  0  1  0  0  0  0  0  0
    8.3562    4.0037    4.1429 O   0  0  0  0  0  0  0  0  0  0  0  0
    9.6968    2.2406    2.5210 N   0  0  0  0  0  0  0  0  0  0  0  0
   13.7624    2.8226    1.7146 N   0  0  0  0  0  0  0  0  0  0  0  0
   10.3605    1.5593    1.5705 C   0  0  0  0  0  3  0  0  0  0  0  0
   11.6873    1.7376    1.3057 C   0  0  0  0  0  0  0  0  0  0  0  0
   12.4531    2.6746    2.0434 C   0  0  0  0  0  0  0  0  0  0  0  0
   11.7443    3.3587    3.0535 C   0  0  0  0  0  0  0  0  0  0  0  0
   10.4064    3.1126    3.2640 C   0  0  0  0  0  0  0  0  0  0  0  0
    9.7220    3.7840    4.4267 C   0  0  0  0  0  0  0  0  0  0  0  0
    7.6230    4.3740    5.2891 C   0  0  0  0  0  0  0  0  0  0  0  0
   16.1033    3.4722    1.7927 C   0  0  0  0  0  0  0  0  0  0  0  0
   14.7329    3.6710    2.4451 C   0  0  0  0  0  0  0  0  0  0  0  0
   14.3493    5.1482    2.3019 C   0  0  0  0  0  0  0  0  0  0  0  0
   14.8327    3.2167    3.9051 C   0  0  0  0  0  0  0  0  0  0  0  0
    9.7832    0.8426    1.0011 H   0  0  0  0  0  0  0  0  0  0  0  0
   12.1753    1.1681    0.5322 H   0  0  0  0  0  0  0  0  0  0  0  0
   12.2125    4.0829    3.6952 H   0  0  0  0  0  0  0  0  0  0  0  0
    9.8151    3.1117    5.2964 H   0  0  0  0  0  0  0  0  0  0  0  0
   10.2116    4.7403    4.6677 H   0  0  0  0  0  0  0  0  0  0  0  0
    8.0497    5.2774    5.7412 H   0  0  0  0  0  0  0  0  0  0  0  0
    6.6051    4.5787    4.9625 H   0  0  0  0  0  0  0  0  0  0  0  0
    7.6154    3.5656    6.0286 H   0  0  0  0  0  0  0  0  0  0  0  0
   14.2837    5.4080    1.2475 H   0  0  0  0  0  0  0  0  0  0  0  0
   13.4022    5.3915    2.7706 H   0  0  0  0  0  0  0  0  0  0  0  0
   15.1215    5.7629    2.7578 H   0  0  0  0  0  0  0  0  0  0  0  0
   15.0778    2.1576    3.9428 H   0  0  0  0  0  0  0  0  0  0  0  0
   15.6302    3.7691    4.3961 H   0  0  0  0  0  0  0  0  0  0  0  0
   13.9186    3.3711    4.4671 H   0  0  0  0  0  0  0  0  0  0  0  0
   16.4028    2.4292    1.8462 H   0  0  0  0  0  0  0  0  0  0  0  0
   16.0731    3.7565    0.7447 H   0  0  0  0  0  0  0  0  0  0  0  0
   16.8422    4.0813    2.3058 H   0  0  0  0  0  0  0  0  0  0  0  0
    8.4093    0.9045    4.6440 Cl  0  0  0  0  0  0  0  0  0  0  0  0
    1.5436    2.1689    4.9680 O   0  0  0  0  0  1  0  0  0  0  0  0
    7.3955    4.0033    1.5387 O   0  0  0  0  0  0  0  0  0  0  0  0
    6.0551    2.2401    3.1609 N   0  0  0  0  0  0  0  0  0  0  0  0
    1.9900    2.8225    3.9686 N   0  0  0  0  0  0  0  0  0  0  0  0
    5.3915    1.5586    4.1113 C   0  0  0  0  0  3  0  0  0  0  0  0
    4.0649    1.7371    4.3765 C   0  0  0  0  0  0  0  0  0  0  0  0
    3.2991    2.6744    3.6393 C   0  0  0  0  0  0  0  0  0  0  0  0
    4.0077    3.3585    2.6290 C   0  0  0  0  0  0  0  0  0  0  0  0
    5.3455    3.1122    2.4181 C   0  0  0  0  0  0  0  0  0  0  0  0
    6.0296    3.7834    1.2551 C   0  0  0  0  0  0  0  0  0  0  0  0
    8.1284    4.3739    0.3924 C   0  0  0  0  0  0  0  0  0  0  0  0
   -0.3508    3.4730    3.8916 C   0  0  0  0  0  0  0  0  0  0  0  0
    1.0193    3.6711    3.2387 C   0  0  0  0  0  0  0  0  0  0  0  0
    1.4034    5.1481    3.3815 C   0  0  0  0  0  0  0  0  0  0  0  0
    0.9187    3.2168    1.7786 C   0  0  0  0  0  0  0  0  0  0  0  0
    5.9686    0.8419    4.6807 H   0  0  0  0  0  0  0  0  0  0  0  0
    3.5770    1.1677    5.1502 H   0  0  0  0  0  0  0  0  0  0  0  0
    3.5393    4.0826    1.9874 H   0  0  0  0  0  0  0  0  0  0  0  0
    5.9364    3.1110    0.3857 H   0  0  0  0  0  0  0  0  0  0  0  0
    5.5399    4.7397    1.0140 H   0  0  0  0  0  0  0  0  0  0  0  0
    7.7013    5.2770   -0.0596 H   0  0  0  0  0  0  0  0  0  0  0  0
    9.1463    4.5789    0.7188 H   0  0  0  0  0  0  0  0  0  0  0  0
    8.1361    3.5655   -0.3471 H   0  0  0  0  0  0  0  0  0  0  0  0
    1.4703    5.4078    4.4358 H   0  0  0  0  0  0  0  0  0  0  0  0
    2.3502    5.3913    2.9119 H   0  0  0  0  0  0  0  0  0  0  0  0
    0.6309    5.7632    2.9264 H   0  0  0  0  0  0  0  0  0  0  0  0
    0.6728    2.1579    1.7414 H   0  0  0  0  0  0  0  0  0  0  0  0
    0.1216    3.7697    1.2877 H   0  0  0  0  0  0  0  0  0  0  0  0
    1.8329    3.3703    1.2164 H   0  0  0  0  0  0  0  0  0  0  0  0
   -0.6504    2.4300    3.8388 H   0  0  0  0  0  0  0  0  0  0  0  0
   -0.3199    3.7577    4.9396 H   0  0  0  0  0  0  0  0  0  0  0  0
   -1.0899    4.0820    3.3788 H   0  0  0  0  0  0  0  0  0  0  0  0
  1 38  1  0  0  0  0
  1 35  1  0  0  0  0
  2  1  1  0  0  0  0
  3  6  1  0  0  0  0
  4 12  1  0  0  0  0
  4 13  1  0  0  0  0
  5  1  1  0  0  0  0
  5 11  1  0  0  0  0
  6  9  1  0  0  0  0
  6 15  1  0  0  0  0
  7  5  1  0  0  0  0
  8  7  1  0  0  0  0
  8  9  2  0  0  0  0
  9 10  1  0  0  0  0
 10 11  2  0  0  0  0
 10 20  1  0  0  0  0
 11 12  1  0  0  0  0
 12 22  1  0  0  0  0
 12 21  1  0  0  0  0
 13 23  1  0  0  0  0
 13 25  1  0  0  0  0
 14 32  1  0  0  0  0
 14 34  1  0  0  0  0
 14 15  1  0  0  0  0
 15 17  1  0  0  0  0
 16 15  1  0  0  0  0
 16 28  1  0  0  0  0
 16 27  1  0  0  0  0
 17 29  1  0  0  0  0
 17 30  1  0  0  0  0
 17 31  1  0  0  0  0
 18  7  1  0  0  0  0
 19  8  1  0  0  0  0
 24 13  1  0  0  0  0
 26 16  1  0  0  0  0
 33 14  1  0  0  0  0
 38 40  1  0  0  0  0
 39 36  1  0  0  0  0
 40 41  1  0  0  0  0
 40 51  1  0  0  0  0
 41 52  1  0  0  0  0
 42 39  1  0  0  0  0
 42 41  2  0  0  0  0
 43 42  1  0  0  0  0
 44 43  2  0  0  0  0
 44 38  1  0  0  0  0
 45 37  1  0  0  0  0
 45 44  1  0  0  0  0
 46 57  1  0  0  0  0
 46 37  1  0  0  0  0
 47 66  1  0  0  0  0
 48 49  1  0  0  0  0
 48 47  1  0  0  0  0
 48 39  1  0  0  0  0
 49 59  1  0  0  0  0
 50 48  1  0  0  0  0
 53 43  1  0  0  0  0
 54 45  1  0  0  0  0
 55 45  1  0  0  0  0
 56 46  1  0  0  0  0
 58 46  1  0  0  0  0
 60 49  1  0  0  0  0
 61 49  1  0  0  0  0
 62 50  1  0  0  0  0
 63 50  1  0  0  0  0
 64 50  1  0  0  0  0
 65 47  1  0  0  0  0
 67 47  1  0  0  0  0
M  END
$$$$
