CSD_code = CASYEB | q = 0 | S = 0 | Stoichiometry = C14H10BrN2O3Re | MND = 6
 OpenBabel04212202023D

 31 33  0  0  1  0  0  0  0  0999 V2000
    7.8401    6.0204    4.6806 Re  0  0  0  0  0  0  0  0  0  0  0  0
    9.2530    8.1440    4.9337 Br  0  0  0  0  0  0  0  0  0  0  0  0
    9.0977    5.2913    6.3904 N   0  0  0  0  0  0  0  0  0  0  0  0
   10.4254    5.3175    6.2603 C   0  0  0  0  0  3  0  0  0  0  0  0
   10.8163    5.5408    5.2762 H   0  0  0  0  0  0  0  0  0  0  0  0
    6.6315    6.9364    6.3360 N   0  0  0  0  0  0  0  0  0  0  0  0
   11.2936    5.0901    7.3102 C   0  0  0  0  0  0  0  0  0  0  0  0
   12.3574    5.1266    7.1428 H   0  0  0  0  0  0  0  0  0  0  0  0
   10.7674    4.8320    8.5656 C   0  0  0  0  0  0  0  0  0  0  0  0
   11.4103    4.6638    9.4157 H   0  0  0  0  0  0  0  0  0  0  0  0
    9.3918    4.7965    8.7035 C   0  0  0  0  0  0  0  0  0  0  0  0
    8.9376    4.5974    9.6619 H   0  0  0  0  0  0  0  0  0  0  0  0
    8.5857    5.0199    7.5943 C   0  0  0  0  0  0  0  0  0  0  0  0
    7.0865    4.9926    7.7291 C   0  0  0  0  0  0  0  0  0  0  0  0
    6.6710    4.3395    6.9533 H   0  0  0  0  0  0  0  0  0  0  0  0
    6.8054    4.6027    8.7070 H   0  0  0  0  0  0  0  0  0  0  0  0
    6.5340    6.3812    7.5474 C   0  0  1  0  0  3  0  0  0  0  0  0
    5.9717    7.0565    8.6233 C   0  0  0  0  0  0  0  0  0  0  0  0
    5.9264    6.5777    9.5892 H   0  0  0  0  0  0  0  0  0  0  0  0
    5.4760    8.3349    8.4429 C   0  0  0  0  0  0  0  0  0  0  0  0
    5.0369    8.8763    9.2666 H   0  0  0  0  0  0  0  0  0  0  0  0
    5.5609    8.8984    7.1801 C   0  0  0  0  0  0  0  0  0  0  0  0
    5.1897    9.8900    6.9805 H   0  0  0  0  0  0  0  0  0  0  0  0
    6.1479    8.1681    6.1652 C   0  0  0  0  0  0  0  0  0  0  0  0
    6.2418    8.5980    5.1766 H   0  0  0  0  0  0  0  0  0  0  0  0
    9.8295    4.9692    2.5581 O   0  0  0  0  0  1  0  0  0  0  0  0
    9.0668    5.3316    3.3324 C   0  0  0  0  0  2  0  0  0  0  0  0
    6.1783    7.4178    2.4777 O   0  0  0  0  0  1  0  0  0  0  0  0
    6.7785    6.8649    3.2818 C   0  0  0  0  0  2  0  0  0  0  0  0
    6.1294    3.4597    4.4639 O   0  0  0  0  0  1  0  0  0  0  0  0
    6.7645    4.4111    4.5896 C   0  0  0  0  0  2  0  0  0  0  0  0
  1  2  1  0  0  0  0
  1  6  1  0  0  0  0
  1  3  1  0  0  0  0
  3 13  1  0  0  0  0
  4  3  1  0  0  0  0
  4  7  1  0  0  0  0
  5  4  1  0  0  0  0
  6 17  1  0  0  0  0
  7  9  2  0  0  0  0
  8  7  1  0  0  0  0
  9 11  1  0  0  0  0
  9 10  1  0  0  0  0
 11 12  1  0  0  0  0
 13 14  1  0  0  0  0
 13 11  2  0  0  0  0
 14 16  1  0  0  0  0
 15 14  1  0  0  0  0
 17 14  1  0  0  0  0
 17 18  1  1  0  0  0
 18 19  1  0  0  0  0
 20 18  2  0  0  0  0
 20 21  1  0  0  0  0
 22 20  1  0  0  0  0
 23 22  1  0  0  0  0
 24  6  1  0  0  0  0
 24 22  2  0  0  0  0
 25 24  1  0  0  0  0
 26 27  1  0  0  0  0
 27  1  1  0  0  0  0
 28 29  1  0  0  0  0
 29  1  1  0  0  0  0
 30 31  1  0  0  0  0
 31  1  1  0  0  0  0
M  END
$$$$
