CSD_code = CATKUG | q = 0 | S = 0 | Stoichiometry = C31H36ClN6O3Re | MND = 6
 OpenBabel04212202023D

 78 82  0  0  0  0  0  0  0  0999 V2000
    6.2645    3.1247    3.1943 Cl  0  0  0  0  0  0  0  0  0  0  0  0
    6.9202    0.7208    5.8099 N   0  0  0  0  0  2  0  0  0  0  0  0
    5.8366    1.1382    5.2735 N   0  0  0  0  0  0  0  0  0  0  0  0
    7.1306    1.4169    6.9106 N   0  0  0  0  0  0  0  0  0  0  0  0
    3.6938    2.2895    4.2941 N   0  0  0  0  0  0  0  0  0  0  0  0
    2.4359    3.9020    4.7927 N   0  0  0  0  0  0  0  0  0  0  0  0
    2.6910    2.9747    3.8906 N   0  0  0  0  0  2  0  0  0  0  0  0
    5.2955    2.1312    6.0339 C   0  0  0  0  0  0  0  0  0  0  0  0
    3.9385    1.7342    0.5014 O   0  0  0  0  0  1  0  0  0  0  0  0
    4.3505    1.3914    1.5113 C   0  0  0  0  0  2  0  0  0  0  0  0
    0.7882    6.9557    3.5999 C   0  0  0  0  0  0  0  0  0  0  0  0
    1.0045    7.8298    3.0081 H   0  0  0  0  0  0  0  0  0  0  0  0
    8.2661    0.6151    8.9019 C   0  0  0  0  0  0  0  0  0  0  0  0
    7.6520   -0.2854    2.1883 O   0  0  0  0  0  1  0  0  0  0  0  0
    0.1670    4.6927    5.1206 C   0  0  0  0  0  0  0  0  0  0  0  0
    1.7780    6.0054    3.8137 C   0  0  0  0  0  0  0  0  0  0  0  0
    8.3179    1.2666    7.6705 C   0  0  0  0  0  0  0  0  0  0  0  0
    6.6577    0.1377    2.5613 C   0  0  0  0  0  2  0  0  0  0  0  0
    1.4383    4.8886    4.5804 C   0  0  0  0  0  0  0  0  0  0  0  0
    9.5025    1.7823    7.1348 C   0  0  0  0  0  0  0  0  0  0  0  0
    4.1191    2.7572    5.5005 C   0  0  0  0  0  0  0  0  0  0  0  0
    6.9829    0.0268    9.4398 C   0  0  0  0  0  0  0  0  0  0  0  0
    6.1609    0.2548    8.7533 H   0  0  0  0  0  0  0  0  0  0  0  0
    9.4513    0.4912    9.6155 C   0  0  0  0  0  0  0  0  0  0  0  0
    9.4494   -0.0081   10.5716 H   0  0  0  0  0  0  0  0  0  0  0  0
    3.2991    3.8133    5.8287 C   0  0  0  0  0  0  0  0  0  0  0  0
    3.2759    4.4802    6.6641 H   0  0  0  0  0  0  0  0  0  0  0  0
   10.6625    1.6246    7.8809 C   0  0  0  0  0  0  0  0  0  0  0  0
   11.5976    1.9998    7.4987 H   0  0  0  0  0  0  0  0  0  0  0  0
    3.4653   -1.5744    3.7082 O   0  0  0  0  0  1  0  0  0  0  0  0
   -0.7884    5.6702    4.8808 C   0  0  0  0  0  0  0  0  0  0  0  0
   -1.7854    5.5568    5.2734 H   0  0  0  0  0  0  0  0  0  0  0  0
   -0.4767    6.7900    4.1315 C   0  0  0  0  0  0  0  0  0  0  0  0
   -1.2336    7.5390    3.9524 H   0  0  0  0  0  0  0  0  0  0  0  0
    6.1394    2.3158    7.1054 C   0  0  0  0  0  0  0  0  0  0  0  0
    6.1219    2.9925    7.9327 H   0  0  0  0  0  0  0  0  0  0  0  0
    9.5197    2.4453    5.7788 C   0  0  0  0  0  0  0  0  0  0  0  0
    8.5240    2.8401    5.5524 H   0  0  0  0  0  0  0  0  0  0  0  0
   -0.1479    3.4186    5.8689 C   0  0  0  0  0  0  0  0  0  0  0  0
    0.7564    3.0857    6.3928 H   0  0  0  0  0  0  0  0  0  0  0  0
   10.6356    0.9905    9.1091 C   0  0  0  0  0  0  0  0  0  0  0  0
   11.5487    0.8797    9.6747 H   0  0  0  0  0  0  0  0  0  0  0  0
    4.0726   -0.6149    3.5283 C   0  0  0  0  0  2  0  0  0  0  0  0
   -0.5373    2.3391    4.8515 C   0  0  0  0  0  0  0  0  0  0  0  0
   -0.7510    1.4025    5.3613 H   0  0  0  0  0  0  0  0  0  0  0  0
   -1.4246    2.6468    4.3031 H   0  0  0  0  0  0  0  0  0  0  0  0
    0.2648    2.1697    4.1360 H   0  0  0  0  0  0  0  0  0  0  0  0
    9.8610    1.3973    4.7138 C   0  0  0  0  0  0  0  0  0  0  0  0
    9.8373    1.8552    3.7284 H   0  0  0  0  0  0  0  0  0  0  0  0
   10.8533    0.9868    4.8887 H   0  0  0  0  0  0  0  0  0  0  0  0
    9.1375    0.5854    4.7307 H   0  0  0  0  0  0  0  0  0  0  0  0
   -1.2470    3.5883    6.9164 C   0  0  0  0  0  0  0  0  0  0  0  0
   -1.3043    2.6937    7.5323 H   0  0  0  0  0  0  0  0  0  0  0  0
   -1.0387    4.4387    7.5624 H   0  0  0  0  0  0  0  0  0  0  0  0
   -2.2169    3.7316    6.4479 H   0  0  0  0  0  0  0  0  0  0  0  0
    3.1396    5.4480    1.8228 C   0  0  0  0  0  0  0  0  0  0  0  0
    2.8354    4.4068    1.9069 H   0  0  0  0  0  0  0  0  0  0  0  0
    2.4494    5.9585    1.1545 H   0  0  0  0  0  0  0  0  0  0  0  0
    4.1365    5.4772    1.3907 H   0  0  0  0  0  0  0  0  0  0  0  0
   10.4940    3.6212    5.7067 C   0  0  0  0  0  0  0  0  0  0  0  0
   10.3205    4.1729    4.7862 H   0  0  0  0  0  0  0  0  0  0  0  0
   10.3484    4.2982    6.5467 H   0  0  0  0  0  0  0  0  0  0  0  0
   11.5269    3.2827    5.7035 H   0  0  0  0  0  0  0  0  0  0  0  0
    3.1514    6.1254    3.1984 C   0  0  0  0  0  0  0  0  0  0  0  0
    3.8758    5.5951    3.8262 H   0  0  0  0  0  0  0  0  0  0  0  0
    3.6307    7.5714    3.0793 C   0  0  0  0  0  0  0  0  0  0  0  0
    4.6834    7.5790    2.8076 H   0  0  0  0  0  0  0  0  0  0  0  0
    3.0838    8.1075    2.3080 H   0  0  0  0  0  0  0  0  0  0  0  0
    3.5145    8.0985    4.0247 H   0  0  0  0  0  0  0  0  0  0  0  0
    7.1031   -1.4969    9.5224 C   0  0  0  0  0  0  0  0  0  0  0  0
    7.3371   -1.9100    8.5437 H   0  0  0  0  0  0  0  0  0  0  0  0
    7.8882   -1.7872   10.2154 H   0  0  0  0  0  0  0  0  0  0  0  0
    6.1647   -1.9273    9.8643 H   0  0  0  0  0  0  0  0  0  0  0  0
    6.6324    0.6252   10.8039 C   0  0  0  0  0  0  0  0  0  0  0  0
    6.5723    1.7104   10.7441 H   0  0  0  0  0  0  0  0  0  0  0  0
    5.6712    0.2442   11.1413 H   0  0  0  0  0  0  0  0  0  0  0  0
    7.3812    0.3660   11.5472 H   0  0  0  0  0  0  0  0  0  0  0  0
    5.0803    1.0251    3.2781 Re  0  0  0  0  0  0  0  0  0  0  0  0
  1 78  1  0  0  0  0
  2  4  1  0  0  0  0
  3  2  1  0  0  0  0
  3  8  1  0  0  0  0
  4 35  1  0  0  0  0
  4 17  1  0  0  0  0
  5 21  1  0  0  0  0
  6 26  1  0  0  0  0
  7  5  1  0  0  0  0
  7  6  1  0  0  0  0
  8 35  2  0  0  0  0
  9 10  1  0  0  0  0
 10 78  1  0  0  0  0
 11 16  2  0  0  0  0
 11 33  1  0  0  0  0
 12 11  1  0  0  0  0
 13 22  1  0  0  0  0
 13 24  1  0  0  0  0
 14 18  1  0  0  0  0
 15 39  1  0  0  0  0
 16 19  1  0  0  0  0
 17 13  2  0  0  0  0
 18 78  1  0  0  0  0
 19  6  1  0  0  0  0
 19 15  2  0  0  0  0
 20 17  1  0  0  0  0
 20 28  2  0  0  0  0
 21 26  2  0  0  0  0
 21  8  1  0  0  0  0
 22 70  1  0  0  0  0
 22 74  1  0  0  0  0
 23 22  1  0  0  0  0
 24 25  1  0  0  0  0
 26 27  1  0  0  0  0
 28 41  1  0  0  0  0
 29 28  1  0  0  0  0
 31 15  1  0  0  0  0
 31 32  1  0  0  0  0
 33 31  2  0  0  0  0
 34 33  1  0  0  0  0
 35 36  1  0  0  0  0
 37 20  1  0  0  0  0
 38 37  1  0  0  0  0
 39 40  1  0  0  0  0
 39 52  1  0  0  0  0
 41 24  2  0  0  0  0
 41 42  1  0  0  0  0
 43 30  1  0  0  0  0
 44 45  1  0  0  0  0
 44 39  1  0  0  0  0
 46 44  1  0  0  0  0
 47 44  1  0  0  0  0
 48 51  1  0  0  0  0
 48 50  1  0  0  0  0
 48 37  1  0  0  0  0
 49 48  1  0  0  0  0
 52 53  1  0  0  0  0
 52 54  1  0  0  0  0
 55 52  1  0  0  0  0
 56 57  1  0  0  0  0
 56 64  1  0  0  0  0
 58 56  1  0  0  0  0
 59 56  1  0  0  0  0
 60 37  1  0  0  0  0
 60 62  1  0  0  0  0
 61 60  1  0  0  0  0
 63 60  1  0  0  0  0
 64 16  1  0  0  0  0
 64 65  1  0  0  0  0
 66 64  1  0  0  0  0
 66 69  1  0  0  0  0
 67 66  1  0  0  0  0
 68 66  1  0  0  0  0
 70 73  1  0  0  0  0
 70 72  1  0  0  0  0
 71 70  1  0  0  0  0
 74 76  1  0  0  0  0
 74 77  1  0  0  0  0
 75 74  1  0  0  0  0
 78 43  1  0  0  0  0
 78  5  1  0  0  0  0
 78  3  1  0  0  0  0
M  END
$$$$
