CSD_code = CATLUH | q = 0 | S = 0 | Stoichiometry = C11H12ClN6O3Re | MND = 6
 OpenBabel04212202023D

 34 36  0  0  0  0  0  0  0  0999 V2000
   -0.2392    9.4413   -1.9508 Cl  0  0  0  0  0  0  0  0  0  0  0  0
   -1.3244    7.3929   -0.1891 N   0  0  0  0  0  0  0  0  0  0  0  0
   -3.1488    7.9321   -3.6042 N   0  0  0  0  0  2  0  0  0  0  0  0
   -2.5175    8.0512   -0.1845 C   0  0  0  0  0  0  0  0  0  0  0  0
   -2.7591    8.4263    1.1186 C   0  0  0  0  0  0  0  0  0  0  0  0
   -3.5594    8.9705    1.5724 H   0  0  0  0  0  0  0  0  0  0  0  0
   -0.8498    7.3479    0.9986 N   0  0  0  0  0  2  0  0  0  0  0  0
   -3.1551    8.2126   -1.4602 C   0  0  0  0  0  0  0  0  0  0  0  0
   -2.4936    7.6916   -2.5314 N   0  0  0  0  0  0  0  0  0  0  0  0
   -4.2336    8.6106   -3.2845 N   0  0  0  0  0  0  0  0  0  0  0  0
   -1.6896    7.9678    1.8048 N   0  0  0  0  0  0  0  0  0  0  0  0
   -4.2944    8.8120   -1.9501 C   0  0  0  0  0  0  0  0  0  0  0  0
   -5.0844    9.3506   -1.4721 H   0  0  0  0  0  0  0  0  0  0  0  0
    0.3736    7.3251   -5.0830 O   0  0  0  0  0  1  0  0  0  0  0  0
    2.3892    6.7960   -1.0484 O   0  0  0  0  0  1  0  0  0  0  0  0
   -1.1418    4.0435   -2.1964 O   0  0  0  0  0  1  0  0  0  0  0  0
   -0.8768    5.1630   -2.1832 C   0  0  0  0  0  2  0  0  0  0  0  0
    0.0783    7.1548   -3.9923 C   0  0  0  0  0  2  0  0  0  0  0  0
    1.3322    6.8279   -1.4814 C   0  0  0  0  0  2  0  0  0  0  0  0
   -1.4328    8.0547    3.2169 C   0  0  0  0  0  0  0  0  0  0  0  0
   -1.6936    9.0592    3.5606 H   0  0  0  0  0  0  0  0  0  0  0  0
   -0.3614    7.8931    3.3498 H   0  0  0  0  0  0  0  0  0  0  0  0
   -5.1865    8.9985   -4.2891 C   0  0  0  0  0  0  0  0  0  0  0  0
   -5.5523   10.0021   -4.0568 H   0  0  0  0  0  0  0  0  0  0  0  0
   -4.6498    9.0188   -5.2395 H   0  0  0  0  0  0  0  0  0  0  0  0
   -6.3425    8.0050   -4.3556 C   0  0  0  0  0  0  0  0  0  0  0  0
   -7.0422    8.3091   -5.1283 H   0  0  0  0  0  0  0  0  0  0  0  0
   -5.9695    7.0121   -4.5948 H   0  0  0  0  0  0  0  0  0  0  0  0
   -6.8712    7.9618   -3.4055 H   0  0  0  0  0  0  0  0  0  0  0  0
   -2.2266    7.0005    3.9821 C   0  0  0  0  0  0  0  0  0  0  0  0
   -2.0002    7.0703    5.0418 H   0  0  0  0  0  0  0  0  0  0  0  0
   -3.2963    7.1454    3.8453 H   0  0  0  0  0  0  0  0  0  0  0  0
   -1.9606    6.0053    3.6344 H   0  0  0  0  0  0  0  0  0  0  0  0
   -0.4879    7.0636   -2.1316 Re  0  0  0  0  0  0  0  0  0  0  0  0
  2  4  1  0  0  0  0
  2  7  1  0  0  0  0
  3 10  1  0  0  0  0
  3  9  1  0  0  0  0
  4  5  2  0  0  0  0
  5  6  1  0  0  0  0
  5 11  1  0  0  0  0
  7 11  1  0  0  0  0
  8  4  1  0  0  0  0
  9 34  1  0  0  0  0
  9  8  1  0  0  0  0
 10 12  1  0  0  0  0
 11 20  1  0  0  0  0
 12 13  1  0  0  0  0
 12  8  2  0  0  0  0
 14 18  1  0  0  0  0
 16 17  1  0  0  0  0
 17 34  1  0  0  0  0
 18 34  1  0  0  0  0
 19 15  1  0  0  0  0
 20 22  1  0  0  0  0
 20 21  1  0  0  0  0
 20 30  1  0  0  0  0
 23 24  1  0  0  0  0
 23 10  1  0  0  0  0
 25 23  1  0  0  0  0
 26 23  1  0  0  0  0
 26 29  1  0  0  0  0
 27 26  1  0  0  0  0
 28 26  1  0  0  0  0
 30 31  1  0  0  0  0
 32 30  1  0  0  0  0
 33 30  1  0  0  0  0
 34  1  1  0  0  0  0
 34 19  1  0  0  0  0
 34  2  1  0  0  0  0
M  END
$$$$
