CSD_code = CATLOB | q = 0 | S = 0 | Stoichiometry = C12H10ClN4O3Re | MND = 6
 OpenBabel04212202023D

 31 33  0  0  1  0  0  0  0  0999 V2000
    1.9180    1.3223    3.5422 Re  0  0  0  0  0  0  0  0  0  0  0  0
    2.1476    0.4148    1.3431 Cl  0  0  0  0  0  0  0  0  0  0  0  0
    4.6081   -0.0389    4.2074 O   0  0  0  0  0  1  0  0  0  0  0  0
    3.2559    3.9188    2.5395 O   0  0  0  0  0  1  0  0  0  0  0  0
    1.2926    2.3026    6.4060 O   0  0  0  0  0  1  0  0  0  0  0  0
    0.0490    1.8171    2.7478 N   0  0  0  0  0  0  0  0  0  0  0  0
    0.7354   -0.5253    3.7643 N   0  0  0  0  0  0  0  0  0  0  0  0
   -0.4033    2.8640    2.1673 N   0  0  0  0  0  2  0  0  0  0  0  0
   -1.5202    2.5406    1.5411 N   0  0  0  0  0  0  0  0  0  0  0  0
   -1.8045    1.2356    1.7227 C   0  0  0  0  0  0  0  0  0  0  0  0
   -2.6628    0.7617    1.2961 H   0  0  0  0  0  0  0  0  0  0  0  0
   -1.1846   -1.6726    2.8989 C   0  0  0  0  0  0  0  0  0  0  0  0
   -2.1004   -1.6243    2.3311 H   0  0  0  0  0  0  0  0  0  0  0  0
   -0.7780    0.7620    2.5157 C   0  0  0  0  0  0  0  0  0  0  0  0
   -0.4178   -0.5246    3.0721 C   0  0  2  0  0  3  0  0  0  0  0  0
   -0.7416   -2.8600    3.4502 C   0  0  0  0  0  0  0  0  0  0  0  0
   -1.3077   -3.7698    3.3215 H   0  0  0  0  0  0  0  0  0  0  0  0
    0.4461   -2.8558    4.1673 C   0  0  0  0  0  0  0  0  0  0  0  0
    0.8309   -3.7587    4.6130 H   0  0  0  0  0  0  0  0  0  0  0  0
    1.1461   -1.6688    4.2991 C   0  0  0  0  0  0  0  0  0  0  0  0
    2.0750   -1.6336    4.8529 H   0  0  0  0  0  0  0  0  0  0  0  0
   -2.2138    3.5024    0.7273 C   0  0  0  0  0  0  0  0  0  0  0  0
   -3.2900    3.3858    0.8815 H   0  0  0  0  0  0  0  0  0  0  0  0
   -1.9002    4.4890    1.0738 H   0  0  0  0  0  0  0  0  0  0  0  0
   -1.8542    3.3196   -0.7441 C   0  0  0  0  0  0  0  0  0  0  0  0
   -2.3483    4.0808   -1.3404 H   0  0  0  0  0  0  0  0  0  0  0  0
   -0.7794    3.4128   -0.8793 H   0  0  0  0  0  0  0  0  0  0  0  0
   -2.1659    2.3402   -1.1005 H   0  0  0  0  0  0  0  0  0  0  0  0
    3.6243    0.5140    4.0170 C   0  0  0  0  0  2  0  0  0  0  0  0
    2.7849    2.9750    2.9779 C   0  0  0  0  0  2  0  0  0  0  0  0
    1.5445    1.9521    5.3403 C   0  0  0  0  0  2  0  0  0  0  0  0
  1  7  1  0  0  0  0
  1 29  1  0  0  0  0
  1 31  1  0  0  0  0
  2  1  1  0  0  0  0
  4 30  1  0  0  0  0
  6  1  1  0  0  0  0
  7 20  1  0  0  0  0
  8  6  1  0  0  0  0
  9 10  1  0  0  0  0
  9  8  1  0  0  0  0
 10 14  2  0  0  0  0
 11 10  1  0  0  0  0
 12 15  1  0  0  0  0
 12 16  2  0  0  0  0
 13 12  1  0  0  0  0
 14  6  1  0  0  0  0
 15 14  1  6  0  0  0
 15  7  1  0  0  0  0
 16 18  1  0  0  0  0
 17 16  1  0  0  0  0
 18 20  2  0  0  0  0
 18 19  1  0  0  0  0
 20 21  1  0  0  0  0
 22 23  1  0  0  0  0
 22 24  1  0  0  0  0
 22  9  1  0  0  0  0
 25 22  1  0  0  0  0
 26 25  1  0  0  0  0
 27 25  1  0  0  0  0
 28 25  1  0  0  0  0
 29  3  1  0  0  0  0
 30  1  1  0  0  0  0
 31  5  1  0  0  0  0
M  END
$$$$
