CSD_code = CATQEW | q = 0 | S = 0 | Stoichiometry = C32H44Cl2N4PdS2 | MND = 4
 OpenBabel04212202023D

 85 88  0  0  1  0  0  0  0  0999 V2000
    2.0689    3.7236   13.5009 Pd  0  0  0  0  0  0  0  0  0  0  0  0
    3.7661    4.4499   12.1220 Cl  0  0  0  0  0  0  0  0  0  0  0  0
    4.6477    0.5613    8.5532 S   0  0  0  0  0  0  0  0  0  0  0  0
    4.1693    2.2747   15.3408 N   0  0  0  0  0  0  0  0  0  0  0  0
    3.5080    1.1539   13.6270 N   0  0  0  0  0  0  0  0  0  0  0  0
    3.3568    2.3313   14.2608 C   0  0  0  0  0  0  0  0  0  0  0  0
    4.8048    1.0609   15.3778 C   0  0  0  0  0  0  0  0  0  0  0  0
    5.4897    0.7737   16.1455 H   0  0  0  0  0  0  0  0  0  0  0  0
    4.3946    0.3585   14.2988 C   0  0  0  0  0  0  0  0  0  0  0  0
    4.6531   -0.6263   13.9686 H   0  0  0  0  0  0  0  0  0  0  0  0
    4.3444    3.3528   16.3222 C   0  0  0  0  0  0  0  0  0  0  0  0
    4.7107    4.6369   15.5730 C   0  0  0  0  0  0  0  0  0  0  0  0
    5.6577    4.5179   15.0502 H   0  0  0  0  0  0  0  0  0  0  0  0
    4.7959    5.4673   16.2692 H   0  0  0  0  0  0  0  0  0  0  0  0
    3.9420    4.8740   14.8284 H   0  0  0  0  0  0  0  0  0  0  0  0
    3.0270    3.5321   17.0780 C   0  0  0  0  0  0  0  0  0  0  0  0
    2.2266    3.7640   16.3742 H   0  0  0  0  0  0  0  0  0  0  0  0
    3.1171    4.3332   17.8072 H   0  0  0  0  0  0  0  0  0  0  0  0
    2.7575    2.6184   17.6035 H   0  0  0  0  0  0  0  0  0  0  0  0
    5.4620    3.0143   17.3089 C   0  0  0  0  0  0  0  0  0  0  0  0
    5.2090    2.1468   17.9142 H   0  0  0  0  0  0  0  0  0  0  0  0
    5.6002    3.8584   17.9798 H   0  0  0  0  0  0  0  0  0  0  0  0
    6.4033    2.8366   16.7931 H   0  0  0  0  0  0  0  0  0  0  0  0
    2.9392    0.8156   12.3469 C   0  0  0  0  0  0  0  0  0  0  0  0
    2.1332    1.5391   12.1343 H   0  0  0  0  0  0  0  0  0  0  0  0
    2.5153   -0.1930   12.3932 H   0  0  0  0  0  0  0  0  0  0  0  0
    4.0072    0.9055   11.2513 C   0  0  0  0  0  0  0  0  0  0  0  0
    4.4661    1.8957   11.3003 H   0  0  0  0  0  0  0  0  0  0  0  0
    4.7870    0.1617   11.4296 H   0  0  0  0  0  0  0  0  0  0  0  0
    3.3949    0.6737    9.8796 C   0  0  0  0  0  0  0  0  0  0  0  0
    2.6995    1.4654    9.6089 H   0  0  0  0  0  0  0  0  0  0  0  0
    2.8772   -0.2866    9.8507 H   0  0  0  0  0  0  0  0  0  0  0  0
    4.7223    2.2061    7.8901 C   0  0  0  0  0  0  0  0  0  0  0  0
    4.4439    3.3439    8.6311 C   0  0  0  0  0  0  0  0  0  0  0  0
    4.1781    3.2948    9.6736 H   0  0  0  0  0  0  0  0  0  0  0  0
    4.5288    4.5866    8.0276 C   0  0  0  0  0  0  0  0  0  0  0  0
    4.3108    5.4643    8.6174 H   0  0  0  0  0  0  0  0  0  0  0  0
    4.9043    4.7046    6.7013 C   0  0  0  0  0  0  0  0  0  0  0  0
    4.9723    5.6784    6.2394 H   0  0  0  0  0  0  0  0  0  0  0  0
    5.2015    3.5652    5.9702 C   0  0  0  0  0  0  0  0  0  0  0  0
    5.5019    3.6461    4.9357 H   0  0  0  0  0  0  0  0  0  0  0  0
    5.1080    2.3191    6.5585 C   0  0  0  0  0  0  0  0  0  0  0  0
    5.3319    1.4247    5.9967 H   0  0  0  0  0  0  0  0  0  0  0  0
    0.3715    2.9976   14.8797 Cl  0  0  0  0  0  0  0  0  0  0  0  0
   -0.5074    6.8863   18.4487 S   0  0  0  0  0  0  0  0  0  0  0  0
   -0.0313    5.1724   11.6609 N   0  0  0  0  0  0  0  0  0  0  0  0
    0.6304    6.2936   13.3743 N   0  0  0  0  0  0  0  0  0  0  0  0
    0.7813    5.1160   12.7409 C   0  0  2  0  0  3  0  0  0  0  0  0
   -0.6665    6.3863   11.6236 C   0  0  0  0  0  0  0  0  0  0  0  0
   -1.3513    6.6735   10.8558 H   0  0  0  0  0  0  0  0  0  0  0  0
   -0.2560    7.0890   12.7024 C   0  0  0  0  0  0  0  0  0  0  0  0
   -0.5142    8.0740   13.0322 H   0  0  0  0  0  0  0  0  0  0  0  0
   -0.2067    4.0940   10.6799 C   0  0  0  0  0  0  0  0  0  0  0  0
   -0.5734    2.8103   11.4296 C   0  0  0  0  0  0  0  0  0  0  0  0
   -1.5201    2.9299   11.9528 H   0  0  0  0  0  0  0  0  0  0  0  0
   -0.6594    1.9798   10.7337 H   0  0  0  0  0  0  0  0  0  0  0  0
    0.1954    2.5730   12.1739 H   0  0  0  0  0  0  0  0  0  0  0  0
    1.1106    3.9139    9.9242 C   0  0  0  0  0  0  0  0  0  0  0  0
    1.9109    3.6823   10.6282 H   0  0  0  0  0  0  0  0  0  0  0  0
    1.0203    3.1123    9.1956 H   0  0  0  0  0  0  0  0  0  0  0  0
    1.3803    4.8272    9.3980 H   0  0  0  0  0  0  0  0  0  0  0  0
   -1.3243    4.4325    9.6931 C   0  0  0  0  0  0  0  0  0  0  0  0
   -1.0710    5.2997    9.0875 H   0  0  0  0  0  0  0  0  0  0  0  0
   -1.4627    3.5882    9.0226 H   0  0  0  0  0  0  0  0  0  0  0  0
   -2.2654    4.6107   10.2089 H   0  0  0  0  0  0  0  0  0  0  0  0
    1.1995    6.6321   14.6542 C   0  0  0  0  0  0  0  0  0  0  0  0
    2.0054    5.9085   14.8668 H   0  0  0  0  0  0  0  0  0  0  0  0
    1.6236    7.6406   14.6075 H   0  0  0  0  0  0  0  0  0  0  0  0
    0.1318    6.5427   15.7501 C   0  0  0  0  0  0  0  0  0  0  0  0
   -0.3277    5.5528   15.7012 H   0  0  0  0  0  0  0  0  0  0  0  0
   -0.6476    7.2870   15.5722 H   0  0  0  0  0  0  0  0  0  0  0  0
    0.7447    6.7739   17.1217 C   0  0  0  0  0  0  0  0  0  0  0  0
    1.4400    5.9819   17.3917 H   0  0  0  0  0  0  0  0  0  0  0  0
    1.2628    7.7340   17.1506 H   0  0  0  0  0  0  0  0  0  0  0  0
   -0.5809    5.2415   19.1120 C   0  0  0  0  0  0  0  0  0  0  0  0
   -0.3044    4.1037   18.3702 C   0  0  0  0  0  0  0  0  0  0  0  0
   -0.0408    4.1530   17.3272 H   0  0  0  0  0  0  0  0  0  0  0  0
   -0.3884    2.8609   18.9737 C   0  0  0  0  0  0  0  0  0  0  0  0
   -0.1718    1.9833   18.3833 H   0  0  0  0  0  0  0  0  0  0  0  0
   -0.7610    2.7429   20.3008 C   0  0  0  0  0  0  0  0  0  0  0  0
   -0.8283    1.7690   20.7626 H   0  0  0  0  0  0  0  0  0  0  0  0
   -1.0563    3.8822   21.0327 C   0  0  0  0  0  0  0  0  0  0  0  0
   -1.3545    3.8013   22.0678 H   0  0  0  0  0  0  0  0  0  0  0  0
   -0.9637    5.1284   20.4444 C   0  0  0  0  0  0  0  0  0  0  0  0
   -1.1862    6.0228   21.0068 H   0  0  0  0  0  0  0  0  0  0  0  0
  1  6  2  0  0  0  0
  1 44  1  0  0  0  0
  2  1  1  0  0  0  0
  3 30  1  0  0  0  0
  4  7  1  0  0  0  0
  4 11  1  0  0  0  0
  5  6  1  0  0  0  0
  5  9  1  0  0  0  0
  6  4  1  0  0  0  0
  7  8  1  0  0  0  0
  9  7  2  0  0  0  0
 10  9  1  0  0  0  0
 11 16  1  0  0  0  0
 11 20  1  0  0  0  0
 12 14  1  0  0  0  0
 12 11  1  0  0  0  0
 13 12  1  0  0  0  0
 15 12  1  0  0  0  0
 16 19  1  0  0  0  0
 16 18  1  0  0  0  0
 17 16  1  0  0  0  0
 20 21  1  0  0  0  0
 20 22  1  0  0  0  0
 23 20  1  0  0  0  0
 24 26  1  0  0  0  0
 24  5  1  0  0  0  0
 25 24  1  0  0  0  0
 27 28  1  0  0  0  0
 27 29  1  0  0  0  0
 27 24  1  0  0  0  0
 30 27  1  0  0  0  0
 31 30  1  0  0  0  0
 32 30  1  0  0  0  0
 33  3  1  0  0  0  0
 33 34  1  0  0  0  0
 34 35  1  0  0  0  0
 36 37  1  0  0  0  0
 36 34  2  0  0  0  0
 38 36  1  0  0  0  0
 39 38  1  0  0  0  0
 40 42  1  0  0  0  0
 40 38  2  0  0  0  0
 41 40  1  0  0  0  0
 42 33  2  0  0  0  0
 43 42  1  0  0  0  0
 45 75  1  0  0  0  0
 46 48  1  0  0  0  0
 47 66  1  0  0  0  0
 48 47  1  0  0  0  0
 48  1  1  6  0  0  0
 49 46  1  0  0  0  0
 49 51  2  0  0  0  0
 50 49  1  0  0  0  0
 51 52  1  0  0  0  0
 51 47  1  0  0  0  0
 53 54  1  0  0  0  0
 53 46  1  0  0  0  0
 54 55  1  0  0  0  0
 54 57  1  0  0  0  0
 56 54  1  0  0  0  0
 58 59  1  0  0  0  0
 58 53  1  0  0  0  0
 60 58  1  0  0  0  0
 61 58  1  0  0  0  0
 62 65  1  0  0  0  0
 62 53  1  0  0  0  0
 63 62  1  0  0  0  0
 64 62  1  0  0  0  0
 66 67  1  0  0  0  0
 66 69  1  0  0  0  0
 68 66  1  0  0  0  0
 69 72  1  0  0  0  0
 70 69  1  0  0  0  0
 71 69  1  0  0  0  0
 72 74  1  0  0  0  0
 72 73  1  0  0  0  0
 72 45  1  0  0  0  0
 75 84  1  0  0  0  0
 76 78  1  0  0  0  0
 76 75  2  0  0  0  0
 77 76  1  0  0  0  0
 78 80  2  0  0  0  0
 79 78  1  0  0  0  0
 80 81  1  0  0  0  0
 80 82  1  0  0  0  0
 82 83  1  0  0  0  0
 84 85  1  0  0  0  0
 84 82  2  0  0  0  0
M  END
$$$$
