CSD_code = CATROF | q = 0 | S = 0 | Stoichiometry = C26H24As2Cl2Pt | MND = 4
 OpenBabel04212202023D

 55 57  0  0  0  0  0  0  0  0999 V2000
    8.7296   12.2620   17.8754 Pt  0  0  0  0  0  0  0  0  0  0  0  0
   10.8387   11.6925   17.0013 As  0  0  0  0  0  0  0  0  0  0  0  0
    9.4794   11.5569   19.9911 As  0  0  0  0  0  0  0  0  0  0  0  0
    8.2219   12.7711   15.6892 Cl  0  0  0  0  0  0  0  0  0  0  0  0
    6.7719   12.9296   18.8669 Cl  0  0  0  0  0  0  0  0  0  0  0  0
   11.8687   13.3262   16.8662 C   0  0  0  0  0  0  0  0  0  0  0  0
   11.3341   14.4764   17.4360 C   0  0  0  0  0  0  0  0  0  0  0  0
   10.3337   14.4335   17.8739 H   0  0  0  0  0  0  0  0  0  0  0  0
   12.0503   15.6605   17.4213 C   0  0  0  0  0  0  0  0  0  0  0  0
   11.6297   16.5535   17.8599 H   0  0  0  0  0  0  0  0  0  0  0  0
   13.3049   15.6979   16.8348 C   0  0  0  0  0  0  0  0  0  0  0  0
   13.8640   16.6218   16.8164 H   0  0  0  0  0  0  0  0  0  0  0  0
   13.8434   14.5550   16.2643 C   0  0  0  0  0  0  0  0  0  0  0  0
   14.8206   14.5899   15.8045 H   0  0  0  0  0  0  0  0  0  0  0  0
   13.1293   13.3697   16.2807 C   0  0  0  0  0  0  0  0  0  0  0  0
   13.5411   12.4703   15.8314 H   0  0  0  0  0  0  0  0  0  0  0  0
   11.3268   10.7191   15.4015 C   0  0  0  0  0  0  0  0  0  0  0  0
   11.2812   11.3971   14.1856 C   0  0  0  0  0  0  0  0  0  0  0  0
   11.0119   12.4494   14.1818 H   0  0  0  0  0  0  0  0  0  0  0  0
   11.5583   10.7287   13.0069 C   0  0  0  0  0  0  0  0  0  0  0  0
   11.5227   11.2572   12.0657 H   0  0  0  0  0  0  0  0  0  0  0  0
   11.8742    9.3793   13.0333 C   0  0  0  0  0  0  0  0  0  0  0  0
   12.0903    8.8571   12.1131 H   0  0  0  0  0  0  0  0  0  0  0  0
   11.9012    8.6956   14.2374 C   0  0  0  0  0  0  0  0  0  0  0  0
   12.1350    7.6408   14.2553 H   0  0  0  0  0  0  0  0  0  0  0  0
   11.6205    9.3604   15.4193 C   0  0  0  0  0  0  0  0  0  0  0  0
   11.6258    8.8198   16.3606 H   0  0  0  0  0  0  0  0  0  0  0  0
   11.8151   10.7874   18.4836 C   0  0  0  0  0  0  0  0  0  0  0  0
   11.4587   11.4526   19.8083 C   0  0  0  0  0  0  0  0  0  0  0  0
    9.1525   12.2317   21.7764 C   0  0  0  0  0  0  0  0  0  0  0  0
    7.8668   12.0723   22.2885 C   0  0  0  0  0  0  0  0  0  0  0  0
    7.1214   11.5662   21.6813 H   0  0  0  0  0  0  0  0  0  0  0  0
    7.5508   12.5712   23.5389 C   0  0  0  0  0  0  0  0  0  0  0  0
    6.5532   12.4479   23.9336 H   0  0  0  0  0  0  0  0  0  0  0  0
    8.5136   13.2375   24.2814 C   0  0  0  0  0  0  0  0  0  0  0  0
    8.2674   13.6289   25.2573 H   0  0  0  0  0  0  0  0  0  0  0  0
    9.7885   13.4125   23.7698 C   0  0  0  0  0  0  0  0  0  0  0  0
   10.5343   13.9412   24.3459 H   0  0  0  0  0  0  0  0  0  0  0  0
   10.1084   12.9171   22.5164 C   0  0  0  0  0  0  0  0  0  0  0  0
   11.1037   13.0660   22.1103 H   0  0  0  0  0  0  0  0  0  0  0  0
    9.0683    9.6669   20.1543 C   0  0  0  0  0  0  0  0  0  0  0  0
    9.2240    8.9638   21.3436 C   0  0  0  0  0  0  0  0  0  0  0  0
    9.5345    9.4928   22.2398 H   0  0  0  0  0  0  0  0  0  0  0  0
    8.9748    7.6027   21.3803 C   0  0  0  0  0  0  0  0  0  0  0  0
    9.0924    7.0577   22.3058 H   0  0  0  0  0  0  0  0  0  0  0  0
    8.5735    6.9382   20.2321 C   0  0  0  0  0  0  0  0  0  0  0  0
    8.3786    5.8765   20.2655 H   0  0  0  0  0  0  0  0  0  0  0  0
    8.4133    7.6334   19.0442 C   0  0  0  0  0  0  0  0  0  0  0  0
    8.0920    7.1166   18.1518 H   0  0  0  0  0  0  0  0  0  0  0  0
    8.6583    8.9949   19.0072 C   0  0  0  0  0  0  0  0  0  0  0  0
    8.5118    9.5623   18.0839 H   0  0  0  0  0  0  0  0  0  0  0  0
   11.5050    9.7345   18.5079 H   0  0  0  0  0  0  0  0  0  0  0  0
   12.8956   10.8210   18.2977 H   0  0  0  0  0  0  0  0  0  0  0  0
   11.8896   10.9053   20.6562 H   0  0  0  0  0  0  0  0  0  0  0  0
   11.8506   12.4795   19.8253 H   0  0  0  0  0  0  0  0  0  0  0  0
  1  5  1  0  0  0  0
  2 28  1  0  0  0  0
  3 41  1  0  0  0  0
  3 30  1  0  0  0  0
  4  1  1  0  0  0  0
  6  2  1  0  0  0  0
  6  7  1  0  0  0  0
  7  8  1  0  0  0  0
  9  7  2  0  0  0  0
  9 10  1  0  0  0  0
 11  9  1  0  0  0  0
 12 11  1  0  0  0  0
 13 15  1  0  0  0  0
 13 11  2  0  0  0  0
 14 13  1  0  0  0  0
 15  6  2  0  0  0  0
 16 15  1  0  0  0  0
 17 26  1  0  0  0  0
 17  2  1  0  0  0  0
 18 17  2  0  0  0  0
 19 18  1  0  0  0  0
 20 22  2  0  0  0  0
 20 18  1  0  0  0  0
 21 20  1  0  0  0  0
 22 24  1  0  0  0  0
 23 22  1  0  0  0  0
 24 25  1  0  0  0  0
 24 26  2  0  0  0  0
 26 27  1  0  0  0  0
 28 52  1  0  0  0  0
 28 29  1  0  0  0  0
 29 55  1  0  0  0  0
 29  3  1  0  0  0  0
 29 54  1  0  0  0  0
 30 31  2  0  0  0  0
 30 39  1  0  0  0  0
 31 33  1  0  0  0  0
 32 31  1  0  0  0  0
 33 34  1  0  0  0  0
 33 35  2  0  0  0  0
 35 36  1  0  0  0  0
 37 35  1  0  0  0  0
 37 38  1  0  0  0  0
 39 37  2  0  0  0  0
 40 39  1  0  0  0  0
 41 42  1  0  0  0  0
 42 44  2  0  0  0  0
 42 43  1  0  0  0  0
 44 45  1  0  0  0  0
 46 47  1  0  0  0  0
 46 44  1  0  0  0  0
 48 46  2  0  0  0  0
 49 48  1  0  0  0  0
 50 48  1  0  0  0  0
 50 41  2  0  0  0  0
 51 50  1  0  0  0  0
 53 28  1  0  0  0  0
M  END
$$$$
