CSD_code = CATSZN | q = 0 | S = 0 | Stoichiometry = C4H9Cl2N3SZn | MND = 4
 OpenBabel04212202023D

 20 20  0  0  1  0  0  0  0  0999 V2000
    0.0762    2.0775    0.8945 Cl  0  0  0  0  0  0  0  0  0  0  0  0
    3.2875    0.5454    2.4572 Cl  0  0  0  0  0  0  0  0  0  0  0  0
    1.4284   -1.7649    3.8746 C   0  0  1  0  0  3  0  0  0  0  0  0
    0.7935    1.5492    4.8909 C   0  0  0  0  0  3  0  0  0  0  0  0
    1.5151    1.6619    6.2010 C   0  0  0  0  0  0  0  0  0  0  0  0
    0.0688    2.7440    4.3965 C   0  0  0  0  0  0  0  0  0  0  0  0
    2.0808   -0.5505    5.3698 H   0  0  0  0  0  0  0  0  0  0  0  0
    2.7703   -2.6953    5.1282 H   0  0  0  0  0  0  0  0  0  0  0  0
    2.1771   -3.6293    3.8023 H   0  0  0  0  0  0  0  0  0  0  0  0
    2.5851    1.5072    6.0502 H   0  0  0  0  0  0  0  0  0  0  0  0
    1.1524    0.9217    6.9153 H   0  0  0  0  0  0  0  0  0  0  0  0
    1.3717    2.6510    6.6244 H   0  0  0  0  0  0  0  0  0  0  0  0
   -0.4576    2.5293    3.4711 H   0  0  0  0  0  0  0  0  0  0  0  0
   -0.6351    3.0907    5.1519 H   0  0  0  0  0  0  0  0  0  0  0  0
    0.7826    3.5468    4.2124 H   0  0  0  0  0  0  0  0  0  0  0  0
    0.7800    0.4908    4.1759 N   0  0  0  0  0  0  0  0  0  0  0  0
    1.4150   -0.6337    4.6042 N   0  0  0  0  0  0  0  0  0  0  0  0
    2.1068   -2.8070    4.3789 N   0  0  0  0  0  0  0  0  0  0  0  0
    0.5472   -1.9708    2.4665 S   0  0  0  0  0  0  0  0  0  0  0  0
    1.0903    0.4481    1.9302 Zn  0  0  0  0  0  0  0  0  0  0  0  0
  1 20  1  0  0  0  0
  3 18  1  1  0  0  0
  3 17  1  0  0  0  0
  4  5  1  0  0  0  0
  5 12  1  0  0  0  0
  5 11  1  0  0  0  0
  6  4  1  0  0  0  0
  6 14  1  0  0  0  0
  9 18  1  0  0  0  0
 10  5  1  0  0  0  0
 13  6  1  0  0  0  0
 15  6  1  0  0  0  0
 16 17  1  0  0  0  0
 16  4  1  0  0  0  0
 17  7  1  0  0  0  0
 18  8  1  0  0  0  0
 19  3  1  0  0  0  0
 20  2  1  0  0  0  0
 20 19  1  0  0  0  0
 20 16  1  0  0  0  0
M  END
$$$$
