CSD_code = CATTEY | q = 0 | S = 0 | Stoichiometry = C34H39Br2N3Pd | MND = 4
 OpenBabel04212202023D

 79 83  0  0  1  0  0  0  0  0999 V2000
    2.8629    0.6270    3.0433 Pd  0  0  0  0  0  0  0  0  0  0  0  0
    4.8501    1.8744    2.4388 Br  0  0  0  0  0  0  0  0  0  0  0  0
    1.0480   -0.7843    3.9113 Br  0  0  0  0  0  0  0  0  0  0  0  0
    1.5597    3.2413    3.6557 N   0  0  0  0  0  0  0  0  0  0  0  0
    2.2499    2.1388    5.3995 N   0  0  0  0  0  0  0  0  0  0  0  0
    3.6475   -0.9927    2.0801 N   0  0  0  0  0  0  0  0  0  0  0  0
    2.2014    2.1515    4.0708 C   0  0  0  0  0  0  0  0  0  0  0  0
    1.5752    3.2825    6.0048 C   0  0  2  0  0  0  0  0  0  0  0  0
    0.7976    2.9187    6.6861 H   0  0  0  0  0  0  0  0  0  0  0  0
    0.9646    3.9696    4.7742 C   0  0  0  0  0  0  0  0  0  0  0  0
   -0.1247    3.8532    4.7380 H   0  0  0  0  0  0  0  0  0  0  0  0
    1.1948    5.0339    4.7311 H   0  0  0  0  0  0  0  0  0  0  0  0
    1.4899    3.7453    2.3225 C   0  0  0  0  0  0  0  0  0  0  0  0
    2.2770    4.8514    1.9697 C   0  0  0  0  0  0  0  0  0  0  0  0
    2.1521    5.3676    0.6872 C   0  0  0  0  0  0  0  0  0  0  0  0
    2.7466    6.2198    0.3987 H   0  0  0  0  0  0  0  0  0  0  0  0
    1.2877    4.8060   -0.2309 C   0  0  0  0  0  0  0  0  0  0  0  0
    1.2083    5.2216   -1.2245 H   0  0  0  0  0  0  0  0  0  0  0  0
    0.5336    3.7067    0.1228 C   0  0  0  0  0  0  0  0  0  0  0  0
   -0.1328    3.2643   -0.6015 H   0  0  0  0  0  0  0  0  0  0  0  0
    0.6155    3.1633    1.3990 C   0  0  0  0  0  0  0  0  0  0  0  0
    3.2468    5.5087    2.9249 C   0  0  0  0  0  0  0  0  0  0  0  0
    3.3319    4.8939    3.8249 H   0  0  0  0  0  0  0  0  0  0  0  0
    4.6502    5.6140    2.3240 C   0  0  0  0  0  0  0  0  0  0  0  0
    4.9995    4.6375    2.0039 H   0  0  0  0  0  0  0  0  0  0  0  0
    5.3405    5.9954    3.0733 H   0  0  0  0  0  0  0  0  0  0  0  0
    4.6688    6.2883    1.4726 H   0  0  0  0  0  0  0  0  0  0  0  0
    2.7427    6.9051    3.3064 C   0  0  0  0  0  0  0  0  0  0  0  0
    1.7351    6.8730    3.7192 H   0  0  0  0  0  0  0  0  0  0  0  0
    2.7207    7.5486    2.4302 H   0  0  0  0  0  0  0  0  0  0  0  0
    3.4088    7.3566    4.0394 H   0  0  0  0  0  0  0  0  0  0  0  0
   -0.2031    1.9381    1.7273 C   0  0  0  0  0  0  0  0  0  0  0  0
   -0.0743    1.6857    2.7855 H   0  0  0  0  0  0  0  0  0  0  0  0
   -1.6960    2.1606    1.4867 C   0  0  0  0  0  0  0  0  0  0  0  0
   -2.0485    3.0226    2.0496 H   0  0  0  0  0  0  0  0  0  0  0  0
   -2.2518    1.2844    1.8120 H   0  0  0  0  0  0  0  0  0  0  0  0
   -1.9085    2.3284    0.4341 H   0  0  0  0  0  0  0  0  0  0  0  0
    0.3244    0.7677    0.8903 C   0  0  0  0  0  0  0  0  0  0  0  0
    1.4102    0.6584    1.0672 H   0  0  0  0  0  0  0  0  0  0  0  0
    0.1672    0.9444   -0.1716 H   0  0  0  0  0  0  0  0  0  0  0  0
   -0.1773   -0.1556    1.1724 H   0  0  0  0  0  0  0  0  0  0  0  0
    3.0710    1.2334    6.1804 C   0  0  0  0  0  0  0  0  0  0  0  0
    4.0593    1.6860    6.3480 H   0  0  0  0  0  0  0  0  0  0  0  0
    3.2193    0.3130    5.5807 H   0  0  0  0  0  0  0  0  0  0  0  0
    2.4253    0.8932    7.4966 C   0  0  0  0  0  0  0  0  0  0  0  0
    3.0906    1.1291    8.6924 C   0  0  0  0  0  0  0  0  0  0  0  0
    4.0962    1.5277    8.6806 H   0  0  0  0  0  0  0  0  0  0  0  0
    2.4784    0.8483    9.9017 C   0  0  0  0  0  0  0  0  0  0  0  0
    3.0052    1.0362   10.8258 H   0  0  0  0  0  0  0  0  0  0  0  0
    1.1937    0.3335    9.9250 C   0  0  0  0  0  0  0  0  0  0  0  0
    0.7140    0.1205   10.8689 H   0  0  0  0  0  0  0  0  0  0  0  0
    0.5293    0.0858    8.7351 C   0  0  0  0  0  0  0  0  0  0  0  0
   -0.4682   -0.3268    8.7468 H   0  0  0  0  0  0  0  0  0  0  0  0
    1.1410    0.3616    7.5258 C   0  0  0  0  0  0  0  0  0  0  0  0
    0.6275    0.1519    6.5996 H   0  0  0  0  0  0  0  0  0  0  0  0
    2.5360    4.1826    6.7988 C   0  0  0  0  0  0  0  0  0  0  0  0
    3.0652    3.5670    7.5274 H   0  0  0  0  0  0  0  0  0  0  0  0
    3.2674    4.6290    6.1224 H   0  0  0  0  0  0  0  0  0  0  0  0
    1.7650    5.2443    7.5290 C   0  0  0  0  0  0  0  0  0  0  0  0
    1.7795    6.5673    7.1116 C   0  0  0  0  0  0  0  0  0  0  0  0
    2.3837    6.8554    6.2638 H   0  0  0  0  0  0  0  0  0  0  0  0
    1.0397    7.5260    7.7827 C   0  0  0  0  0  0  0  0  0  0  0  0
    1.0625    8.5527    7.4480 H   0  0  0  0  0  0  0  0  0  0  0  0
    0.2756    7.1702    8.8797 C   0  0  0  0  0  0  0  0  0  0  0  0
   -0.3019    7.9170    9.4037 H   0  0  0  0  0  0  0  0  0  0  0  0
    0.2602    5.8527    9.3078 C   0  0  0  0  0  0  0  0  0  0  0  0
   -0.3280    5.5706   10.1685 H   0  0  0  0  0  0  0  0  0  0  0  0
    1.0002    4.8968    8.6373 C   0  0  0  0  0  0  0  0  0  0  0  0
    0.9941    3.8710    8.9799 H   0  0  0  0  0  0  0  0  0  0  0  0
    3.8654   -1.0324    0.7685 C   0  0  0  0  0  3  0  0  0  0  0  0
    3.4882   -0.1986    0.1827 H   0  0  0  0  0  0  0  0  0  0  0  0
    4.5536   -2.0676    0.1615 C   0  0  0  0  0  0  0  0  0  0  0  0
    4.7029   -2.0591   -0.9064 H   0  0  0  0  0  0  0  0  0  0  0  0
    5.0479   -3.0956    0.9485 C   0  0  0  0  0  0  0  0  0  0  0  0
    5.5936   -3.9154    0.5069 H   0  0  0  0  0  0  0  0  0  0  0  0
    4.8313   -3.0437    2.3164 C   0  0  0  0  0  0  0  0  0  0  0  0
    5.2019   -3.8157    2.9716 H   0  0  0  0  0  0  0  0  0  0  0  0
    4.1244   -1.9760    2.8398 C   0  0  0  0  0  0  0  0  0  0  0  0
    3.9275   -1.9125    3.9087 H   0  0  0  0  0  0  0  0  0  0  0  0
  1  3  1  0  0  0  0
  1  7  2  0  0  0  0
  2  1  1  0  0  0  0
  4  7  1  0  0  0  0
  4 10  1  0  0  0  0
  5  8  1  0  0  0  0
  5 42  1  0  0  0  0
  6 78  1  0  0  0  0
  6  1  1  0  0  0  0
  7  5  1  0  0  0  0
  8  9  1  1  0  0  0
  8 56  1  0  0  0  0
 10  8  1  0  0  0  0
 11 10  1  0  0  0  0
 12 10  1  0  0  0  0
 13  4  1  0  0  0  0
 14 13  1  0  0  0  0
 14 22  1  0  0  0  0
 15 14  2  0  0  0  0
 16 15  1  0  0  0  0
 17 19  2  0  0  0  0
 17 15  1  0  0  0  0
 18 17  1  0  0  0  0
 19 21  1  0  0  0  0
 20 19  1  0  0  0  0
 21 32  1  0  0  0  0
 21 13  2  0  0  0  0
 22 28  1  0  0  0  0
 22 23  1  0  0  0  0
 24 22  1  0  0  0  0
 24 26  1  0  0  0  0
 25 24  1  0  0  0  0
 27 24  1  0  0  0  0
 28 29  1  0  0  0  0
 28 31  1  0  0  0  0
 30 28  1  0  0  0  0
 32 33  1  0  0  0  0
 34 32  1  0  0  0  0
 34 36  1  0  0  0  0
 34 35  1  0  0  0  0
 37 34  1  0  0  0  0
 38 39  1  0  0  0  0
 38 41  1  0  0  0  0
 38 32  1  0  0  0  0
 40 38  1  0  0  0  0
 42 43  1  0  0  0  0
 42 45  1  0  0  0  0
 44 42  1  0  0  0  0
 45 54  2  0  0  0  0
 45 46  1  0  0  0  0
 46 48  2  0  0  0  0
 47 46  1  0  0  0  0
 48 50  1  0  0  0  0
 48 49  1  0  0  0  0
 50 51  1  0  0  0  0
 52 53  1  0  0  0  0
 52 50  2  0  0  0  0
 54 52  1  0  0  0  0
 55 54  1  0  0  0  0
 56 57  1  0  0  0  0
 56 59  1  0  0  0  0
 58 56  1  0  0  0  0
 59 68  1  0  0  0  0
 60 59  2  0  0  0  0
 60 62  1  0  0  0  0
 61 60  1  0  0  0  0
 62 64  2  0  0  0  0
 63 62  1  0  0  0  0
 64 66  1  0  0  0  0
 64 65  1  0  0  0  0
 66 67  1  0  0  0  0
 68 69  1  0  0  0  0
 68 66  2  0  0  0  0
 70  6  1  0  0  0  0
 71 70  1  0  0  0  0
 72 70  1  0  0  0  0
 72 74  2  0  0  0  0
 73 72  1  0  0  0  0
 74 76  1  0  0  0  0
 75 74  1  0  0  0  0
 76 78  2  0  0  0  0
 76 77  1  0  0  0  0
 78 79  1  0  0  0  0
M  END
$$$$
