CSD_code = CATXAY | q = 0 | S = 0 | Stoichiometry = C16H14Br2F6N2O2Pt | MND = 4
 OpenBabel04212202023D

 43 45  0  0  0  0  0  0  0  0999 V2000
   -0.3204   -0.8129    5.2953 C   0  0  0  0  0  0  0  0  0  0  0  0
   -0.3064   -1.8523    4.9944 H   0  0  0  0  0  0  0  0  0  0  0  0
   -0.6052    0.1761    4.3709 C   0  0  0  0  0  0  0  0  0  0  0  0
   -0.9097   -0.1628    2.9343 C   0  0  0  0  0  0  0  0  0  0  0  0
   -0.5784   -1.1823    2.7010 H   0  0  0  0  0  0  0  0  0  0  0  0
   -1.9891   -0.0991    2.7653 H   0  0  0  0  0  0  0  0  0  0  0  0
    1.0409    0.6877    1.9012 C   0  0  0  0  0  0  0  0  0  0  0  0
    1.3326   -0.0414    1.1319 H   0  0  0  0  0  0  0  0  0  0  0  0
    1.5322    0.4329    2.8497 H   0  0  0  0  0  0  0  0  0  0  0  0
    1.5539    2.0623    1.4819 C   0  0  0  0  0  0  0  0  0  0  0  0
   -0.6009    1.5036    4.8013 C   0  0  0  0  0  0  0  0  0  0  0  0
   -0.7996    2.2992    4.1007 H   0  0  0  0  0  0  0  0  0  0  0  0
   -0.3261    1.7715    6.1250 C   0  0  0  0  0  0  0  0  0  0  0  0
   -0.3127    2.7908    6.4717 H   0  0  0  0  0  0  0  0  0  0  0  0
   -0.0639    0.7225    7.0082 C   0  0  0  0  0  0  0  0  0  0  0  0
    0.2383    0.9080    8.4194 C   0  0  0  0  0  0  0  0  0  0  0  0
    0.2244    2.1480    9.0578 C   0  0  0  0  0  0  0  0  0  0  0  0
   -0.0341    3.0378    8.5089 H   0  0  0  0  0  0  0  0  0  0  0  0
    0.5332    2.2338   10.4001 C   0  0  0  0  0  0  0  0  0  0  0  0
    0.5059    3.1876   10.9054 H   0  0  0  0  0  0  0  0  0  0  0  0
    0.8729    1.0710   11.0905 C   0  0  0  0  0  0  0  0  0  0  0  0
    0.8656   -0.1257   10.3921 C   0  0  0  0  0  0  0  0  0  0  0  0
    1.1276   -1.0445   10.9000 H   0  0  0  0  0  0  0  0  0  0  0  0
    1.2935    1.0917   12.5377 C   0  0  0  0  0  0  0  0  0  0  0  0
    0.8622    1.9655   13.0460 H   0  0  0  0  0  0  0  0  0  0  0  0
    0.9686    0.1787   13.0400 H   0  0  0  0  0  0  0  0  0  0  0  0
    3.3198    2.2884   12.3067 C   0  0  0  0  0  0  0  0  0  0  0  0
    2.9495    3.1410   12.8976 H   0  0  0  0  0  0  0  0  0  0  0  0
    3.1978    2.5084   11.2349 H   0  0  0  0  0  0  0  0  0  0  0  0
    4.8153    2.1503   12.5756 C   0  0  0  0  0  0  0  0  0  0  0  0
   -0.0610   -0.5597    6.5774 N   0  0  0  0  0  0  0  0  0  0  0  0
    0.5403   -0.2195    9.1050 N   0  0  0  0  0  0  0  0  0  0  0  0
   -0.3536    0.7728    2.0321 O   0  0  0  0  0  0  0  0  0  0  0  0
    2.7031    1.0912   12.6811 O   0  0  0  0  0  0  0  0  0  0  0  0
    2.8906    2.0621    1.3752 F   0  0  0  0  0  0  0  0  0  0  0  0
    1.0667    2.4670    0.3117 F   0  0  0  0  0  0  0  0  0  0  0  0
    1.2414    3.0006    2.3865 F   0  0  0  0  0  0  0  0  0  0  0  0
    5.4479    3.2931   12.2528 F   0  0  0  0  0  0  0  0  0  0  0  0
    5.0866    1.9078   13.8561 F   0  0  0  0  0  0  0  0  0  0  0  0
    5.3756    1.1832   11.8511 F   0  0  0  0  0  0  0  0  0  0  0  0
    0.0691   -3.8148    6.6227 Br  0  0  0  0  0  0  0  0  0  0  0  0
    0.8071   -3.3867    9.8249 Br  0  0  0  0  0  0  0  0  0  0  0  0
    0.3500   -1.9211    8.0209 Pt  0  0  0  0  0  0  0  0  0  0  0  0
  1 31  1  0  0  0  0
  2  1  1  0  0  0  0
  3 11  1  0  0  0  0
  3  1  2  0  0  0  0
  4  3  1  0  0  0  0
  5  4  1  0  0  0  0
  6  4  1  0  0  0  0
  7 33  1  0  0  0  0
  7  9  1  0  0  0  0
  8  7  1  0  0  0  0
 10  7  1  0  0  0  0
 10 37  1  0  0  0  0
 11 13  2  0  0  0  0
 12 11  1  0  0  0  0
 13 14  1  0  0  0  0
 13 15  1  0  0  0  0
 15 16  2  0  0  0  0
 16 17  1  0  0  0  0
 16 32  1  0  0  0  0
 17 19  2  0  0  0  0
 18 17  1  0  0  0  0
 19 20  1  0  0  0  0
 19 21  1  0  0  0  0
 21 24  1  0  0  0  0
 22 23  1  0  0  0  0
 22 21  2  0  0  0  0
 24 34  1  0  0  0  0
 24 26  1  0  0  0  0
 24 25  1  0  0  0  0
 27 30  1  0  0  0  0
 27 34  1  0  0  0  0
 27 28  1  0  0  0  0
 29 27  1  0  0  0  0
 30 39  1  0  0  0  0
 31 15  1  0  0  0  0
 31 43  1  0  0  0  0
 32 22  1  0  0  0  0
 33  4  1  0  0  0  0
 35 10  1  0  0  0  0
 36 10  1  0  0  0  0
 38 30  1  0  0  0  0
 40 30  1  0  0  0  0
 41 43  1  0  0  0  0
 43 32  1  0  0  0  0
 43 42  1  0  0  0  0
M  END
$$$$
