CSD_code = CATYAZ | q = 1 | S = 0 | Stoichiometry = C8H20F4S4Ta(1+) | MND = 8
 OpenBabel04212202023D

 37 36  0  0  0  0  0  0  0  0999 V2000
    5.1035    1.2413    1.0561 Ta  0  0  0  0  0  0  0  0  0  0  0  0
    5.4553   -1.5045    1.7808 S   0  0  1  0  0  3  0  0  0  0  0  0
    7.9313    0.6159    0.7762 S   0  0  0  0  0  0  0  0  0  0  0  0
    3.5346    2.7328   -0.8947 S   0  0  0  0  0  0  0  0  0  0  0  0
    3.5236    3.1465    2.4856 S   0  0  2  0  0  3  0  0  0  0  0  0
    5.6351    1.2435    2.8174 F   0  0  0  0  0  0  0  0  0  0  0  0
    3.4477    0.4668    1.2693 F   0  0  0  0  0  0  0  0  0  0  0  0
    5.2628    0.4914   -0.6104 F   0  0  0  0  0  0  0  0  0  0  0  0
    6.0725    2.7651    0.7356 F   0  0  0  0  0  0  0  0  0  0  0  0
    5.6416   -2.4240    0.2258 C   0  0  0  0  0  0  0  0  0  0  0  0
    6.1479   -1.8197   -0.5204 H   0  0  0  0  0  0  0  0  0  0  0  0
    4.6328   -2.6434   -0.1102 H   0  0  0  0  0  0  0  0  0  0  0  0
    6.1711   -3.3518    0.4170 H   0  0  0  0  0  0  0  0  0  0  0  0
    7.1638   -1.5291    2.4306 C   0  0  0  0  0  0  0  0  0  0  0  0
    7.1240   -0.8887    3.3119 H   0  0  0  0  0  0  0  0  0  0  0  0
    7.3794   -2.5499    2.7484 H   0  0  0  0  0  0  0  0  0  0  0  0
    8.2198   -1.0626    1.4466 C   0  0  0  0  0  0  0  0  0  0  0  0
    8.2649   -1.7197    0.5792 H   0  0  0  0  0  0  0  0  0  0  0  0
    9.1979   -1.0580    1.9274 H   0  0  0  0  0  0  0  0  0  0  0  0
    8.5850    1.6238    2.1335 C   0  0  0  0  0  0  0  0  0  0  0  0
    8.0371    1.4308    3.0499 H   0  0  0  0  0  0  0  0  0  0  0  0
    8.4453    2.6582    1.8347 H   0  0  0  0  0  0  0  0  0  0  0  0
    9.6431    1.4130    2.2544 H   0  0  0  0  0  0  0  0  0  0  0  0
    2.4531    1.3966   -1.4691 C   0  0  0  0  0  0  0  0  0  0  0  0
    2.0031    0.8821   -0.6265 H   0  0  0  0  0  0  0  0  0  0  0  0
    3.0885    0.7105   -2.0206 H   0  0  0  0  0  0  0  0  0  0  0  0
    1.6966    1.8112   -2.1282 H   0  0  0  0  0  0  0  0  0  0  0  0
    2.3240    3.7661    0.0101 C   0  0  0  0  0  0  0  0  0  0  0  0
    2.7378    4.7735    0.0057 H   0  0  0  0  0  0  0  0  0  0  0  0
    1.4012    3.7696   -0.5696 H   0  0  0  0  0  0  0  0  0  0  0  0
    2.0418    3.2986    1.4254 C   0  0  0  0  0  0  0  0  0  0  0  0
    1.5995    2.3023    1.4395 H   0  0  0  0  0  0  0  0  0  0  0  0
    1.3579    3.9930    1.9148 H   0  0  0  0  0  0  0  0  0  0  0  0
    4.3191    4.7598    2.2367 C   0  0  0  0  0  0  0  0  0  0  0  0
    4.7756    4.8164    1.2533 H   0  0  0  0  0  0  0  0  0  0  0  0
    5.0903    4.8294    2.9976 H   0  0  0  0  0  0  0  0  0  0  0  0
    3.5890    5.5488    2.3859 H   0  0  0  0  0  0  0  0  0  0  0  0
  1  7  1  0  0  0  0
  1  2  1  0  0  0  0
  1  5  1  0  0  0  0
  1  6  1  0  0  0  0
  2 10  1  6  0  0  0
  2 14  1  0  0  0  0
  3 17  1  0  0  0  0
  3 20  1  0  0  0  0
  4 28  1  0  0  0  0
  5 31  1  6  0  0  0
  8  1  1  0  0  0  0
  9  1  1  0  0  0  0
 10 13  1  0  0  0  0
 11 10  1  0  0  0  0
 12 10  1  0  0  0  0
 14 16  1  0  0  0  0
 14 15  1  0  0  0  0
 17 19  1  0  0  0  0
 17 14  1  0  0  0  0
 18 17  1  0  0  0  0
 20 23  1  0  0  0  0
 20 21  1  0  0  0  0
 22 20  1  0  0  0  0
 24  4  1  0  0  0  0
 24 25  1  0  0  0  0
 26 24  1  0  0  0  0
 27 24  1  0  0  0  0
 28 31  1  0  0  0  0
 29 28  1  0  0  0  0
 30 28  1  0  0  0  0
 31 32  1  0  0  0  0
 31 33  1  0  0  0  0
 34 37  1  0  0  0  0
 34  5  1  0  0  0  0
 34 36  1  0  0  0  0
 35 34  1  0  0  0  0
M  END
$$$$
