CSD_code = CATZED | q = 0 | S = 0 | Stoichiometry = C7H12Cl4N3Nb | MND = 6
 OpenBabel04212202023D

 27 29  0  0  1  0  0  0  0  0999 V2000
    1.0797    4.6654    1.3581 Nb  0  0  0  0  0  0  0  0  0  0  0  0
    1.6856    5.5359   -0.7850 Cl  0  0  0  0  0  0  0  0  0  0  0  0
    3.1612    4.9082    2.1676 Cl  0  0  0  0  0  0  0  0  0  0  0  0
    0.2047    4.0321    3.4960 Cl  0  0  0  0  0  0  0  0  0  0  0  0
    1.1082    2.5423    0.6229 Cl  0  0  0  0  0  0  0  0  0  0  0  0
    0.3897    6.5891    1.7970 N   0  0  1  0  0  0  0  0  0  0  0  0
   -0.8943    5.1146    0.8430 N   0  0  2  0  0  0  0  0  0  0  0  0
   -1.8354    7.2469    1.2943 N   0  0  2  0  0  0  0  0  0  0  0  0
   -0.8306    6.3620    1.3100 C   0  0  1  0  0  3  0  0  0  0  0  0
    0.6828    7.8835    2.3707 C   0  0  0  0  0  0  0  0  0  0  0  0
    1.7551    8.0682    2.2555 H   0  0  0  0  0  0  0  0  0  0  0  0
    0.4475    7.8663    3.4456 H   0  0  0  0  0  0  0  0  0  0  0  0
   -0.1417    8.9559    1.6576 C   0  0  0  0  0  0  0  0  0  0  0  0
    0.0394    9.9362    2.0957 H   0  0  0  0  0  0  0  0  0  0  0  0
    0.1510    8.9768    0.6056 H   0  0  0  0  0  0  0  0  0  0  0  0
   -1.6219    8.6016    1.7639 C   0  0  0  0  0  0  0  0  0  0  0  0
   -1.9604    8.6885    2.8049 H   0  0  0  0  0  0  0  0  0  0  0  0
   -2.2232    9.2766    1.1475 H   0  0  0  0  0  0  0  0  0  0  0  0
   -3.1479    6.8533    0.8207 C   0  0  0  0  0  0  0  0  0  0  0  0
   -3.2694    7.1619   -0.2260 H   0  0  0  0  0  0  0  0  0  0  0  0
   -3.8993    7.3720    1.4235 H   0  0  0  0  0  0  0  0  0  0  0  0
   -3.3102    5.3416    0.9488 C   0  0  0  0  0  0  0  0  0  0  0  0
   -4.2544    5.0292    0.5054 H   0  0  0  0  0  0  0  0  0  0  0  0
   -3.3043    5.0647    2.0054 H   0  0  0  0  0  0  0  0  0  0  0  0
   -2.1330    4.6509    0.2593 C   0  0  0  0  0  0  0  0  0  0  0  0
   -2.1811    3.5656    0.3888 H   0  0  0  0  0  0  0  0  0  0  0  0
   -2.1328    4.8722   -0.8187 H   0  0  0  0  0  0  0  0  0  0  0  0
  1  6  1  0  0  0  0
  1  3  1  0  0  0  0
  1  4  1  0  0  0  0
  2  1  1  0  0  0  0
  5  1  1  0  0  0  0
  6 10  1  1  0  0  0
  7 25  1  1  0  0  0
  7  9  1  0  0  0  0
  7  1  1  0  0  0  0
  8 19  1  1  0  0  0
  8  9  1  0  0  0  0
  8 16  1  0  0  0  0
  9  6  1  0  0  0  0
 10 12  1  0  0  0  0
 11 10  1  0  0  0  0
 13 16  1  0  0  0  0
 13 14  1  0  0  0  0
 13 10  1  0  0  0  0
 15 13  1  0  0  0  0
 16 17  1  0  0  0  0
 18 16  1  0  0  0  0
 19 22  1  0  0  0  0
 19 21  1  0  0  0  0
 20 19  1  0  0  0  0
 22 24  1  0  0  0  0
 23 22  1  0  0  0  0
 25 26  1  0  0  0  0
 25 22  1  0  0  0  0
 27 25  1  0  0  0  0
M  END
$$$$
