CSD_code = CAVBIL | q = 0 | S = 0 | Stoichiometry = C20H26Cl2N2Pd | MND = 4
 OpenBabel04212202023D

 51 54  0  0  1  0  0  0  0  0999 V2000
    9.8431    3.3769    2.8918 Pd  0  0  0  0  0  0  0  0  0  0  0  0
   11.3323    2.3158    4.2040 Cl  0  0  0  0  0  0  0  0  0  0  0  0
    9.7027    1.6574    1.4289 Cl  0  0  0  0  0  0  0  0  0  0  0  0
    9.6803    4.9404    4.2827 N   0  0  1  0  0  4  0  0  0  0  0  0
    8.4257    5.6155    3.9126 C   0  0  2  0  0  0  0  0  0  0  0  0
    8.3921    6.6320    4.3365 H   0  0  0  0  0  0  0  0  0  0  0  0
    7.6603    4.6517    4.8696 C   0  0  2  0  0  0  0  0  0  0  0  0
    6.9661    5.1855    5.5237 H   0  0  0  0  0  0  0  0  0  0  0  0
    9.0426    4.4011    5.5120 C   0  0  2  0  0  0  0  0  0  0  0  0
    9.3370    3.3657    5.7047 H   0  0  0  0  0  0  0  0  0  0  0  0
    8.2111    5.7530    2.3988 C   0  0  1  0  0  0  0  0  0  0  0  0
    8.9479    6.5056    2.0844 H   0  0  0  0  0  0  0  0  0  0  0  0
    8.5550    4.5174    1.6838 N   0  0  0  0  0  4  0  0  0  0  0  0
    7.7258    3.9336    1.5590 H   0  0  0  0  0  0  0  0  0  0  0  0
   10.8889    5.7338    4.3951 C   0  0  0  0  0  0  0  0  0  0  0  0
   10.7535    6.5970    5.0576 H   0  0  0  0  0  0  0  0  0  0  0  0
   11.1826    6.0943    3.4068 H   0  0  0  0  0  0  0  0  0  0  0  0
   11.6844    5.0967    4.7839 H   0  0  0  0  0  0  0  0  0  0  0  0
    9.2619    5.2026    6.7868 C   0  0  0  0  0  0  0  0  0  0  0  0
   10.2994    5.1375    7.1041 H   0  0  0  0  0  0  0  0  0  0  0  0
    8.6402    4.7793    7.5724 H   0  0  0  0  0  0  0  0  0  0  0  0
    8.9914    6.2496    6.6648 H   0  0  0  0  0  0  0  0  0  0  0  0
    6.8174    6.2657    2.0366 C   0  0  0  0  0  0  0  0  0  0  0  0
    6.7789    6.5398    0.9845 H   0  0  0  0  0  0  0  0  0  0  0  0
    6.5717    7.1464    2.6248 H   0  0  0  0  0  0  0  0  0  0  0  0
    6.0678    5.5012    2.2201 H   0  0  0  0  0  0  0  0  0  0  0  0
    6.9313    3.4890    4.2449 C   0  0  0  0  0  0  0  0  0  0  0  0
    7.4937    2.2230    4.0563 C   0  0  0  0  0  0  0  0  0  0  0  0
    8.4647    1.9478    4.4692 H   0  0  0  0  0  0  0  0  0  0  0  0
    6.7681    1.2291    3.4102 C   0  0  0  0  0  0  0  0  0  0  0  0
    7.2208    0.2606    3.2628 H   0  0  0  0  0  0  0  0  0  0  0  0
    5.4825    1.4706    2.9597 C   0  0  0  0  0  0  0  0  0  0  0  0
    4.9313    0.6976    2.4464 H   0  0  0  0  0  0  0  0  0  0  0  0
    4.8940    2.7002    3.2037 C   0  0  0  0  0  0  0  0  0  0  0  0
    3.8745    2.8867    2.8991 H   0  0  0  0  0  0  0  0  0  0  0  0
    5.6111    3.6933    3.8465 C   0  0  0  0  0  0  0  0  0  0  0  0
    5.1343    4.6409    4.0605 H   0  0  0  0  0  0  0  0  0  0  0  0
    9.1686    4.7564    0.3621 C   0  0  0  0  0  0  0  0  0  0  0  0
    9.2705    3.7798   -0.1213 H   0  0  0  0  0  0  0  0  0  0  0  0
    8.5273    5.4014   -0.2546 H   0  0  0  0  0  0  0  0  0  0  0  0
   10.5306    5.3854    0.5363 C   0  0  0  0  0  0  0  0  0  0  0  0
   10.7071    6.7554    0.3791 C   0  0  0  0  0  0  0  0  0  0  0  0
    9.8813    7.3708    0.0458 H   0  0  0  0  0  0  0  0  0  0  0  0
   11.9375    7.3430    0.6281 C   0  0  0  0  0  0  0  0  0  0  0  0
   12.0581    8.4088    0.4996 H   0  0  0  0  0  0  0  0  0  0  0  0
   13.0047    6.5657    1.0428 C   0  0  0  0  0  0  0  0  0  0  0  0
   13.9602    7.0253    1.2472 H   0  0  0  0  0  0  0  0  0  0  0  0
   12.8498    5.1940    1.1718 C   0  0  0  0  0  0  0  0  0  0  0  0
   13.6876    4.5798    1.4653 H   0  0  0  0  0  0  0  0  0  0  0  0
   11.6227    4.5996    0.9170 C   0  0  0  0  0  0  0  0  0  0  0  0
   11.5394    3.5126    0.9468 H   0  0  0  0  0  0  0  0  0  0  0  0
  1  2  1  0  0  0  0
  1  4  1  0  0  0  0
  3  1  1  0  0  0  0
  4 15  1  1  0  0  0
  4  9  1  0  0  0  0
  5  4  1  0  0  0  0
  5  6  1  1  0  0  0
  5  7  1  0  0  0  0
  7  9  1  0  0  0  0
  7  8  1  1  0  0  0
  9 10  1  1  0  0  0
  9 19  1  0  0  0  0
 11 12  1  6  0  0  0
 11  5  1  0  0  0  0
 13 11  1  0  0  0  0
 13  1  1  0  0  0  0
 14 13  1  0  0  0  0
 15 18  1  0  0  0  0
 15 16  1  0  0  0  0
 17 15  1  0  0  0  0
 19 20  1  0  0  0  0
 19 21  1  0  0  0  0
 22 19  1  0  0  0  0
 23 26  1  0  0  0  0
 23 11  1  0  0  0  0
 23 25  1  0  0  0  0
 24 23  1  0  0  0  0
 27  7  1  0  0  0  0
 28 27  1  0  0  0  0
 28 29  1  0  0  0  0
 30 28  2  0  0  0  0
 31 30  1  0  0  0  0
 32 34  2  0  0  0  0
 32 30  1  0  0  0  0
 33 32  1  0  0  0  0
 34 36  1  0  0  0  0
 35 34  1  0  0  0  0
 36 37  1  0  0  0  0
 36 27  2  0  0  0  0
 38 41  1  0  0  0  0
 38 13  1  0  0  0  0
 39 38  1  0  0  0  0
 40 38  1  0  0  0  0
 41 50  1  0  0  0  0
 42 41  2  0  0  0  0
 42 44  1  0  0  0  0
 43 42  1  0  0  0  0
 44 46  2  0  0  0  0
 45 44  1  0  0  0  0
 46 48  1  0  0  0  0
 46 47  1  0  0  0  0
 48 49  1  0  0  0  0
 50 51  1  0  0  0  0
 50 48  2  0  0  0  0
M  END
$$$$
