CSD_code = CAVJOZ | q = 0 | S = 0 | Stoichiometry = C3H9Cl2Nb | MND = 5
 OpenBabel04212202023D

 15 14  0  0  0  0  0  0  0  0999 V2000
    3.7180    2.1466    3.0570 Nb  0  0  0  0  0  0  0  0  0  0  0  0
    3.7180    2.1466    0.8346 Cl  0  0  0  0  0  0  0  0  0  0  0  0
    3.7180    2.1466    5.2825 Cl  0  0  0  0  0  0  0  0  0  0  0  0
    1.7460    1.0081    3.0989 C   0  0  0  0  0  0  0  0  0  0  0  0
    1.8744    0.0590    3.6318 H   0  0  0  0  0  0  0  0  0  0  0  0
    1.3694    0.7907    2.0963 H   0  0  0  0  0  0  0  0  0  0  0  0
    5.6900    1.0081    3.0989 C   0  0  0  0  0  0  0  0  0  0  0  0
    3.7180    4.4236    3.0989 C   0  0  0  0  0  0  0  0  0  0  0  0
    0.9883    1.5937    3.6319 H   0  0  0  0  0  0  0  0  0  0  0  0
    6.4477    1.5937    3.6319 H   0  0  0  0  0  0  0  0  0  0  0  0
    5.5616    0.0590    3.6318 H   0  0  0  0  0  0  0  0  0  0  0  0
    2.8319    4.7870    3.6319 H   0  0  0  0  0  0  0  0  0  0  0  0
    4.6041    4.7870    3.6319 H   0  0  0  0  0  0  0  0  0  0  0  0
    6.0666    0.7907    2.0963 H   0  0  0  0  0  0  0  0  0  0  0  0
    3.7180    4.8585    2.0963 H   0  0  0  0  0  0  0  0  0  0  0  0
  1  8  1  0  0  0  0
  1  4  1  0  0  0  0
  1  7  1  0  0  0  0
  1  3  1  0  0  0  0
  2  1  1  0  0  0  0
  4  5  1  0  0  0  0
  4  9  1  0  0  0  0
  6  4  1  0  0  0  0
  7 11  1  0  0  0  0
  7 10  1  0  0  0  0
  8 13  1  0  0  0  0
  8 12  1  0  0  0  0
 14  7  1  0  0  0  0
 15  8  1  0  0  0  0
M  END
$$$$
