CSD_code = CAVMAQ | q = 0 | S = 0 | Stoichiometry = C30H36Cl2N2O2Ru | MND = 5
 OpenBabel04212202023D

 73 76  0  0  1  0  0  0  0  0999 V2000
    8.6377   20.1804   11.1437 C   0  0  0  0  0  0  0  0  0  0  0  0
   10.0508   20.2945   11.0316 C   0  0  0  0  0  0  0  0  0  0  0  0
   10.5838   20.7788    9.8261 C   0  0  0  0  0  0  0  0  0  0  0  0
   11.6569   20.8687    9.7389 H   0  0  0  0  0  0  0  0  0  0  0  0
    9.7601   21.1252    8.7776 C   0  0  0  0  0  0  0  0  0  0  0  0
   10.1826   21.4949    7.8555 H   0  0  0  0  0  0  0  0  0  0  0  0
    8.3845   20.9973    8.9042 C   0  0  0  0  0  0  0  0  0  0  0  0
    7.7384   21.2637    8.0813 H   0  0  0  0  0  0  0  0  0  0  0  0
    7.8195   20.5301   10.0819 C   0  0  0  0  0  0  0  0  0  0  0  0
    6.7463   20.4391   10.1462 H   0  0  0  0  0  0  0  0  0  0  0  0
   10.8601   19.9099   12.1306 C   0  0  0  0  0  3  0  0  0  0  0  0
   11.9298   20.0638   11.9903 H   0  0  0  0  0  0  0  0  0  0  0  0
    6.8474   19.7044   12.7063 C   0  0  0  0  0  0  0  0  0  0  0  0
    6.2612   19.2570   11.8903 H   0  0  0  0  0  0  0  0  0  0  0  0
    6.7352   18.8281   13.9482 C   0  0  0  0  0  0  0  0  0  0  0  0
    7.1635   17.8444   13.7498 H   0  0  0  0  0  0  0  0  0  0  0  0
    5.6939   18.7036   14.2327 H   0  0  0  0  0  0  0  0  0  0  0  0
    7.2636   19.3051   14.7769 H   0  0  0  0  0  0  0  0  0  0  0  0
    6.3872   21.1320   12.9956 C   0  0  0  0  0  0  0  0  0  0  0  0
    6.4649   21.7585   12.1099 H   0  0  0  0  0  0  0  0  0  0  0  0
    7.0167   21.5603   13.7744 H   0  0  0  0  0  0  0  0  0  0  0  0
    5.3553   21.1282   13.3360 H   0  0  0  0  0  0  0  0  0  0  0  0
   11.5389   18.5855   14.7691 C   0  0  2  0  0  3  0  0  0  0  0  0
    9.9285   17.5921   16.3582 C   0  0  0  0  0  0  0  0  0  0  0  0
    9.7641   16.5128   16.2551 H   0  0  0  0  0  0  0  0  0  0  0  0
    9.2064   18.1284   15.7174 H   0  0  0  0  0  0  0  0  0  0  0  0
    9.7393   18.0085   17.7944 C   0  0  0  0  0  0  0  0  0  0  0  0
    9.6259   19.3513   18.1151 C   0  0  0  0  0  0  0  0  0  0  0  0
    9.6522   20.0828   17.3196 H   0  0  0  0  0  0  0  0  0  0  0  0
    9.4751   19.7565   19.4304 C   0  0  0  0  0  0  0  0  0  0  0  0
    9.3847   20.8054   19.6660 H   0  0  0  0  0  0  0  0  0  0  0  0
    9.4360   18.8071   20.4336 C   0  0  0  0  0  0  0  0  0  0  0  0
    9.3151   19.1074   21.4640 H   0  0  0  0  0  0  0  0  0  0  0  0
    9.5511   17.4595   20.1335 C   0  0  0  0  0  0  0  0  0  0  0  0
    9.5191   16.7395   20.9358 H   0  0  0  0  0  0  0  0  0  0  0  0
    9.7098   17.0475   18.8156 C   0  0  0  0  0  0  0  0  0  0  0  0
    9.7578   14.7362   19.4041 C   0  0  0  0  0  0  0  0  0  0  0  0
    9.8677   13.7961   18.8654 H   0  0  0  0  0  0  0  0  0  0  0  0
    8.7866   14.7516   19.9086 H   0  0  0  0  0  0  0  0  0  0  0  0
   10.5566   14.8207   20.1483 H   0  0  0  0  0  0  0  0  0  0  0  0
   12.4240   17.4071   16.5758 C   0  0  0  0  0  0  0  0  0  0  0  0
   12.3861   16.3124   16.5980 H   0  0  0  0  0  0  0  0  0  0  0  0
   12.4588   17.7743   17.6062 H   0  0  0  0  0  0  0  0  0  0  0  0
   13.5671   17.9465   15.7134 C   0  0  0  0  0  0  0  0  0  0  0  0
   14.2008   18.6583   16.2519 H   0  0  0  0  0  0  0  0  0  0  0  0
   14.2077   17.1565   15.3121 H   0  0  0  0  0  0  0  0  0  0  0  0
   13.6094   19.2590   13.6070 C   0  0  0  0  0  0  0  0  0  0  0  0
   13.9308   20.6114   13.7363 C   0  0  0  0  0  0  0  0  0  0  0  0
   14.7001   21.2031   12.7470 C   0  0  0  0  0  0  0  0  0  0  0  0
   14.9520   22.2508   12.8294 H   0  0  0  0  0  0  0  0  0  0  0  0
   15.1438   20.4827   11.6451 C   0  0  0  0  0  0  0  0  0  0  0  0
   15.9874   21.1491   10.6007 C   0  0  0  0  0  0  0  0  0  0  0  0
   16.0593   20.5350    9.7067 H   0  0  0  0  0  0  0  0  0  0  0  0
   16.9941   21.3160   10.9840 H   0  0  0  0  0  0  0  0  0  0  0  0
   15.5701   22.1173   10.3309 H   0  0  0  0  0  0  0  0  0  0  0  0
   14.7873   19.1472   11.5304 C   0  0  0  0  0  0  0  0  0  0  0  0
   15.1044   18.5846   10.6639 H   0  0  0  0  0  0  0  0  0  0  0  0
   14.0156   18.5183   12.4974 C   0  0  0  0  0  0  0  0  0  0  0  0
   13.5704   17.0989   12.3334 C   0  0  0  0  0  0  0  0  0  0  0  0
   12.4945   17.0305   12.4988 H   0  0  0  0  0  0  0  0  0  0  0  0
   14.0651   16.4435   13.0495 H   0  0  0  0  0  0  0  0  0  0  0  0
   13.7945   16.7410   11.3325 H   0  0  0  0  0  0  0  0  0  0  0  0
   13.4001   21.4032   14.8896 C   0  0  0  0  0  0  0  0  0  0  0  0
   13.7631   21.0132   15.8393 H   0  0  0  0  0  0  0  0  0  0  0  0
   12.3109   21.3445   14.8995 H   0  0  0  0  0  0  0  0  0  0  0  0
   13.6935   22.4458   14.8083 H   0  0  0  0  0  0  0  0  0  0  0  0
   12.8595   18.6235   14.6289 N   0  0  0  0  0  0  0  0  0  0  0  0
   11.2529   17.9280   15.8933 N   0  0  0  0  0  0  0  0  0  0  0  0
    8.2255   19.6963   12.3408 O   0  0  0  0  0  0  0  0  0  0  0  0
    9.8499   15.7441   18.4279 O   0  0  0  0  0  0  0  0  0  0  0  0
    9.7109   16.9661   13.0021 Cl  0  0  0  0  0  0  0  0  0  0  0  0
    9.5627   21.0181   14.9218 Cl  0  0  0  0  0  0  0  0  0  0  0  0
   10.0000   19.1548   13.6420 Ru  0  0  0  0  0  0  0  0  0  0  0  0
  1 69  1  0  0  0  0
  2  1  1  0  0  0  0
  2 11  1  0  0  0  0
  3  2  2  0  0  0  0
  4  3  1  0  0  0  0
  5  7  2  0  0  0  0
  5  3  1  0  0  0  0
  6  5  1  0  0  0  0
  7  9  1  0  0  0  0
  8  7  1  0  0  0  0
  9 10  1  0  0  0  0
  9  1  2  0  0  0  0
 11 73  1  0  0  0  0
 12 11  1  0  0  0  0
 13 19  1  0  0  0  0
 13 15  1  0  0  0  0
 14 13  1  0  0  0  0
 15 17  1  0  0  0  0
 15 18  1  0  0  0  0
 16 15  1  0  0  0  0
 19 22  1  0  0  0  0
 19 21  1  0  0  0  0
 20 19  1  0  0  0  0
 23 73  1  6  0  0  0
 23 68  1  0  0  0  0
 24 27  1  0  0  0  0
 25 24  1  0  0  0  0
 26 24  1  0  0  0  0
 27 28  2  0  0  0  0
 27 36  1  0  0  0  0
 28 30  1  0  0  0  0
 29 28  1  0  0  0  0
 30 31  1  0  0  0  0
 30 32  2  0  0  0  0
 32 33  1  0  0  0  0
 34 32  1  0  0  0  0
 34 35  1  0  0  0  0
 36 34  2  0  0  0  0
 37 39  1  0  0  0  0
 37 40  1  0  0  0  0
 38 37  1  0  0  0  0
 41 42  1  0  0  0  0
 41 43  1  0  0  0  0
 44 45  1  0  0  0  0
 44 41  1  0  0  0  0
 46 44  1  0  0  0  0
 47 48  1  0  0  0  0
 47 67  1  0  0  0  0
 48 63  1  0  0  0  0
 49 50  1  0  0  0  0
 49 48  2  0  0  0  0
 51 49  1  0  0  0  0
 52 54  1  0  0  0  0
 52 51  1  0  0  0  0
 53 52  1  0  0  0  0
 55 52  1  0  0  0  0
 56 51  2  0  0  0  0
 56 58  1  0  0  0  0
 57 56  1  0  0  0  0
 58 47  2  0  0  0  0
 59 58  1  0  0  0  0
 59 60  1  0  0  0  0
 59 61  1  0  0  0  0
 62 59  1  0  0  0  0
 63 65  1  0  0  0  0
 63 64  1  0  0  0  0
 66 63  1  0  0  0  0
 67 23  1  0  0  0  0
 67 44  1  0  0  0  0
 68 24  1  0  0  0  0
 68 41  1  0  0  0  0
 69 13  1  0  0  0  0
 70 36  1  0  0  0  0
 70 37  1  0  0  0  0
 71 73  1  0  0  0  0
 73 72  1  0  0  0  0
M  END
$$$$
