CSD_code = CAVNAP | q = 0 | S = 0 | Stoichiometry = C20H36ClN2OPRu | MND = 6
 OpenBabel04212202023D

 62 64  0  0  1  0  0  0  0  0999 V2000
    3.7929    1.1058    0.8590 Ru  0  0  0  0  0  0  0  0  0  0  0  0
    2.9569    1.4731   -0.3558 H   0  0  0  0  0  0  0  0  0  0  0  0
    5.1630    0.7513    2.8028 Cl  0  0  0  0  0  0  0  0  0  0  0  0
    4.2753   -0.8950   -0.1893 P   0  0  0  0  0  4  0  0  0  0  0  0
    1.3833    0.2638    2.4302 O   0  0  0  0  0  1  0  0  0  0  0  0
    3.8230    3.2614    1.4668 N   0  0  0  0  0  4  0  0  0  0  0  0
    5.3665    1.7276   -0.1618 N   0  0  0  0  0  0  0  0  0  0  0  0
    5.1556   -0.1538   -1.6543 C   0  0  0  0  0  0  0  0  0  0  0  0
    4.3533    0.1675   -2.3290 H   0  0  0  0  0  0  0  0  0  0  0  0
    5.8066   -0.8521   -2.1843 H   0  0  0  0  0  0  0  0  0  0  0  0
    5.8902    1.0708   -1.2081 C   0  0  1  0  0  3  0  0  0  0  0  0
    7.0220    1.5381   -1.8592 C   0  0  0  0  0  0  0  0  0  0  0  0
    7.4309    0.9832   -2.6898 H   0  0  0  0  0  0  0  0  0  0  0  0
    7.6151    2.7183   -1.4371 C   0  0  0  0  0  0  0  0  0  0  0  0
    8.4983    3.0968   -1.9271 H   0  0  0  0  0  0  0  0  0  0  0  0
    7.0422    3.4069   -0.3791 C   0  0  0  0  0  0  0  0  0  0  0  0
    7.4646    4.3348   -0.0259 H   0  0  0  0  0  0  0  0  0  0  0  0
    5.9182    2.8799    0.2365 C   0  0  0  0  0  0  0  0  0  0  0  0
    5.2722    3.5249    1.4299 C   0  0  0  0  0  0  0  0  0  0  0  0
    5.7179    3.0664    2.3237 H   0  0  0  0  0  0  0  0  0  0  0  0
    5.4885    4.6029    1.4393 H   0  0  0  0  0  0  0  0  0  0  0  0
    2.3138    0.5833    1.8265 C   0  0  0  0  0  2  0  0  0  0  0  0
    5.6030   -2.0791    0.4931 C   0  0  0  0  0  0  0  0  0  0  0  0
    5.1527   -2.5537    1.8755 C   0  0  0  0  0  0  0  0  0  0  0  0
    5.9687   -3.0813    2.3682 H   0  0  0  0  0  0  0  0  0  0  0  0
    4.8826   -1.7013    2.4949 H   0  0  0  0  0  0  0  0  0  0  0  0
    4.3006   -3.2244    1.8212 H   0  0  0  0  0  0  0  0  0  0  0  0
    5.9333   -3.2836   -0.3866 C   0  0  0  0  0  0  0  0  0  0  0  0
    6.8038   -3.7884    0.0328 H   0  0  0  0  0  0  0  0  0  0  0  0
    5.1202   -4.0036   -0.4091 H   0  0  0  0  0  0  0  0  0  0  0  0
    6.1830   -2.9880   -1.4038 H   0  0  0  0  0  0  0  0  0  0  0  0
    6.8773   -1.2446    0.6604 C   0  0  0  0  0  0  0  0  0  0  0  0
    7.3173   -0.9705   -0.2973 H   0  0  0  0  0  0  0  0  0  0  0  0
    6.6763   -0.3429    1.2361 H   0  0  0  0  0  0  0  0  0  0  0  0
    7.6169   -1.8219    1.2145 H   0  0  0  0  0  0  0  0  0  0  0  0
    2.8924   -1.8977   -1.0230 C   0  0  0  0  0  0  0  0  0  0  0  0
    2.3348   -2.8821    0.0054 C   0  0  0  0  0  0  0  0  0  0  0  0
    2.9945   -3.7334    0.1507 H   0  0  0  0  0  0  0  0  0  0  0  0
    2.1893   -2.3730    0.9588 H   0  0  0  0  0  0  0  0  0  0  0  0
    1.3698   -3.2621   -0.3278 H   0  0  0  0  0  0  0  0  0  0  0  0
    3.2957   -2.6228   -2.3076 C   0  0  0  0  0  0  0  0  0  0  0  0
    2.4216   -3.1414   -2.7010 H   0  0  0  0  0  0  0  0  0  0  0  0
    3.6331   -1.9234   -3.0686 H   0  0  0  0  0  0  0  0  0  0  0  0
    4.0705   -3.3627   -2.1466 H   0  0  0  0  0  0  0  0  0  0  0  0
    1.7727   -0.9149   -1.3712 C   0  0  0  0  0  0  0  0  0  0  0  0
    1.4066   -0.4238   -0.4719 H   0  0  0  0  0  0  0  0  0  0  0  0
    2.1121   -0.1459   -2.0612 H   0  0  0  0  0  0  0  0  0  0  0  0
    0.9481   -1.4514   -1.8388 H   0  0  0  0  0  0  0  0  0  0  0  0
    3.1679    4.1767    0.5142 C   0  0  0  0  0  0  0  0  0  0  0  0
    3.5673    3.9506   -0.4800 H   0  0  0  0  0  0  0  0  0  0  0  0
    3.4417    5.2149    0.7539 H   0  0  0  0  0  0  0  0  0  0  0  0
    1.6509    4.0513    0.4738 C   0  0  0  0  0  0  0  0  0  0  0  0
    1.1852    4.4798    1.3569 H   0  0  0  0  0  0  0  0  0  0  0  0
    1.2728    4.5786   -0.3987 H   0  0  0  0  0  0  0  0  0  0  0  0
    1.3711    3.0017    0.3946 H   0  0  0  0  0  0  0  0  0  0  0  0
    3.3030    3.4386    2.8375 C   0  0  0  0  0  0  0  0  0  0  0  0
    2.2483    3.1524    2.8316 H   0  0  0  0  0  0  0  0  0  0  0  0
    3.8338    2.7295    3.4801 H   0  0  0  0  0  0  0  0  0  0  0  0
    3.4447    4.8377    3.4370 C   0  0  0  0  0  0  0  0  0  0  0  0
    2.8753    5.5812    2.8842 H   0  0  0  0  0  0  0  0  0  0  0  0
    3.0595    4.8121    4.4533 H   0  0  0  0  0  0  0  0  0  0  0  0
    4.4844    5.1522    3.4844 H   0  0  0  0  0  0  0  0  0  0  0  0
  1  6  1  0  0  0  0
  1 22  1  0  0  0  0
  1  3  1  0  0  0  0
  2  1  1  0  0  0  0
  4 23  1  0  0  0  0
  4  1  1  0  0  0  0
  6 56  1  0  0  0  0
  7 18  1  0  0  0  0
  7  1  1  0  0  0  0
  8 11  1  0  0  0  0
  8  4  1  0  0  0  0
  9  8  1  0  0  0  0
 10  8  1  0  0  0  0
 11 12  1  6  0  0  0
 11  7  1  0  0  0  0
 12 14  2  0  0  0  0
 13 12  1  0  0  0  0
 14 16  1  0  0  0  0
 15 14  1  0  0  0  0
 16 17  1  0  0  0  0
 16 18  2  0  0  0  0
 18 19  1  0  0  0  0
 19 21  1  0  0  0  0
 19  6  1  0  0  0  0
 19 20  1  0  0  0  0
 22  5  1  0  0  0  0
 23 32  1  0  0  0  0
 23 24  1  0  0  0  0
 24 25  1  0  0  0  0
 24 26  1  0  0  0  0
 27 24  1  0  0  0  0
 28 29  1  0  0  0  0
 28 23  1  0  0  0  0
 30 28  1  0  0  0  0
 31 28  1  0  0  0  0
 32 35  1  0  0  0  0
 32 34  1  0  0  0  0
 33 32  1  0  0  0  0
 36  4  1  0  0  0  0
 36 37  1  0  0  0  0
 37 38  1  0  0  0  0
 37 39  1  0  0  0  0
 40 37  1  0  0  0  0
 41 44  1  0  0  0  0
 41 36  1  0  0  0  0
 42 41  1  0  0  0  0
 43 41  1  0  0  0  0
 45 36  1  0  0  0  0
 45 46  1  0  0  0  0
 47 45  1  0  0  0  0
 48 45  1  0  0  0  0
 49 51  1  0  0  0  0
 49  6  1  0  0  0  0
 50 49  1  0  0  0  0
 52 49  1  0  0  0  0
 52 53  1  0  0  0  0
 54 52  1  0  0  0  0
 55 52  1  0  0  0  0
 56 59  1  0  0  0  0
 56 58  1  0  0  0  0
 57 56  1  0  0  0  0
 59 62  1  0  0  0  0
 59 61  1  0  0  0  0
 60 59  1  0  0  0  0
M  END
$$$$
