CSD_code = CAVROJ | q = 0 | S = 0 | Stoichiometry = C14H24ClN3OW | MND = 5
 OpenBabel04212202023D

 44 45  0  0  1  0  0  0  0  0999 V2000
   14.3461   11.1340    2.4620 W   0  0  0  0  0  0  0  0  0  0  0  0
   14.0463   12.5163    4.2391 Cl  0  0  0  0  0  0  0  0  0  0  0  0
   13.8027   12.2257    1.1607 N   0  0  0  0  0  2  0  0  0  0  0  0
   12.9759    9.7583    3.5884 O   0  0  0  0  0  0  0  0  0  0  0  0
   13.0203    8.8703    2.6695 C   0  0  2  0  0  3  0  0  0  0  0  0
   13.8014    9.2332    1.6088 N   0  0  0  0  0  0  0  0  0  0  0  0
   13.9623    8.4248    0.5516 C   0  0  0  0  0  0  0  0  0  0  0  0
   14.8433    8.9432   -0.5411 C   0  0  0  0  0  0  0  0  0  0  0  0
   14.2939    9.0023   -1.4792 H   0  0  0  0  0  0  0  0  0  0  0  0
   15.6955    8.2823   -0.6903 H   0  0  0  0  0  0  0  0  0  0  0  0
   15.1956    9.9399   -0.2516 H   0  0  0  0  0  0  0  0  0  0  0  0
   13.3344    7.1944    0.5116 C   0  0  0  0  0  0  0  0  0  0  0  0
   13.4669    6.5491   -0.3414 H   0  0  0  0  0  0  0  0  0  0  0  0
   12.5314    6.7994    1.5839 C   0  0  0  0  0  0  0  0  0  0  0  0
   12.0397    5.8383    1.5565 H   0  0  0  0  0  0  0  0  0  0  0  0
   12.3632    7.6240    2.6706 C   0  0  0  0  0  0  0  0  0  0  0  0
   11.7520    7.3533    3.5158 H   0  0  0  0  0  0  0  0  0  0  0  0
   13.7124   13.3296    0.2764 C   0  0  0  0  0  0  0  0  0  0  0  0
   14.8777   13.3022   -0.7316 C   0  0  0  0  0  0  0  0  0  0  0  0
   15.8187   13.2695   -0.1861 H   0  0  0  0  0  0  0  0  0  0  0  0
   14.8577   14.1857   -1.3645 H   0  0  0  0  0  0  0  0  0  0  0  0
   14.8065   12.4159   -1.3585 H   0  0  0  0  0  0  0  0  0  0  0  0
   13.8109   14.6007    1.1461 C   0  0  0  0  0  0  0  0  0  0  0  0
   12.9532   14.6569    1.8132 H   0  0  0  0  0  0  0  0  0  0  0  0
   13.8416   15.4921    0.5247 H   0  0  0  0  0  0  0  0  0  0  0  0
   14.7129   14.5429    1.7574 H   0  0  0  0  0  0  0  0  0  0  0  0
   12.3730   13.3178   -0.4818 C   0  0  0  0  0  0  0  0  0  0  0  0
   12.3027   12.4220   -1.0957 H   0  0  0  0  0  0  0  0  0  0  0  0
   12.2905   14.1931   -1.1210 H   0  0  0  0  0  0  0  0  0  0  0  0
   11.5479   13.3170    0.2268 H   0  0  0  0  0  0  0  0  0  0  0  0
   16.1190   10.9345    2.5596 N   0  0  0  0  0  2  0  0  0  0  0  0
   17.4913   11.2764    2.4624 C   0  0  0  0  0  0  0  0  0  0  0  0
   18.3311   10.4882    3.4833 C   0  0  0  0  0  0  0  0  0  0  0  0
   17.9611   10.6804    4.4878 H   0  0  0  0  0  0  0  0  0  0  0  0
   19.3762   10.7823    3.4269 H   0  0  0  0  0  0  0  0  0  0  0  0
   18.2524    9.4215    3.2838 H   0  0  0  0  0  0  0  0  0  0  0  0
   17.5885   12.7870    2.7633 C   0  0  0  0  0  0  0  0  0  0  0  0
   16.9605   13.3277    2.0539 H   0  0  0  0  0  0  0  0  0  0  0  0
   18.6160   13.1346    2.6889 H   0  0  0  0  0  0  0  0  0  0  0  0
   17.2120   12.9798    3.7671 H   0  0  0  0  0  0  0  0  0  0  0  0
   18.0060   10.9931    1.0379 C   0  0  0  0  0  0  0  0  0  0  0  0
   17.9720    9.9242    0.8389 H   0  0  0  0  0  0  0  0  0  0  0  0
   19.0294   11.3415    0.9259 H   0  0  0  0  0  0  0  0  0  0  0  0
   17.3679   11.5019    0.3179 H   0  0  0  0  0  0  0  0  0  0  0  0
  1 31  1  0  0  0  0
  1  4  1  0  0  0  0
  1  2  1  0  0  0  0
  3  1  1  0  0  0  0
  5 16  1  6  0  0  0
  5  4  1  0  0  0  0
  6  1  1  0  0  0  0
  6  5  1  0  0  0  0
  7  6  1  0  0  0  0
  8 11  1  0  0  0  0
  8  7  1  0  0  0  0
  9  8  1  0  0  0  0
 10  8  1  0  0  0  0
 12  7  2  0  0  0  0
 12 14  1  0  0  0  0
 13 12  1  0  0  0  0
 14 16  2  0  0  0  0
 15 14  1  0  0  0  0
 16 17  1  0  0  0  0
 18 23  1  0  0  0  0
 18  3  1  0  0  0  0
 19 20  1  0  0  0  0
 19 18  1  0  0  0  0
 21 19  1  0  0  0  0
 22 19  1  0  0  0  0
 23 26  1  0  0  0  0
 23 24  1  0  0  0  0
 25 23  1  0  0  0  0
 27 30  1  0  0  0  0
 27 18  1  0  0  0  0
 28 27  1  0  0  0  0
 29 27  1  0  0  0  0
 32 31  1  0  0  0  0
 32 37  1  0  0  0  0
 32 33  1  0  0  0  0
 33 34  1  0  0  0  0
 35 33  1  0  0  0  0
 36 33  1  0  0  0  0
 37 40  1  0  0  0  0
 38 37  1  0  0  0  0
 39 37  1  0  0  0  0
 41 32  1  0  0  0  0
 42 41  1  0  0  0  0
 43 41  1  0  0  0  0
 44 41  1  0  0  0  0
M  END
$$$$
