CSD_code = CAWGUD | q = 0 | S = 0 | Stoichiometry = C41H38BClNiP2 | MND = 7
 OpenBabel04212202023D

 84 89  0  0  1  0  0  0  0  0999 V2000
    8.1709    3.2445    7.8884 Ni  0  0  0  0  0  0  0  0  0  0  0  0
    9.8656    4.2706    7.1981 Cl  0  0  0  0  0  0  0  0  0  0  0  0
    7.9901    4.7186    9.4359 P   0  0  0  0  0  0  0  0  0  0  0  0
    9.3369    2.5817    2.7366 P   0  0  0  0  0  4  0  0  0  0  0  0
    7.9227    1.5885    6.5092 C   0  0  0  0  0  0  0  0  0  0  0  0
    6.6907    2.0523    6.9976 C   0  0  0  0  0  0  0  0  0  0  0  0
    5.8658    2.3969    6.3912 H   0  0  0  0  0  0  0  0  0  0  0  0
    6.7033    1.9778    8.4130 C   0  0  1  0  0  0  0  0  0  0  0  0
    5.8457    2.1519    9.0490 H   0  0  0  0  0  0  0  0  0  0  0  0
    7.8641    1.1956    8.8065 C   0  0  0  0  0  0  0  0  0  0  0  0
    8.2764    0.6632   10.0242 C   0  0  0  0  0  0  0  0  0  0  0  0
    7.6829    0.8023   10.9174 H   0  0  0  0  0  0  0  0  0  0  0  0
    9.4538   -0.0621   10.0635 C   0  0  0  0  0  0  0  0  0  0  0  0
    9.7824   -0.4912   10.9987 H   0  0  0  0  0  0  0  0  0  0  0  0
   10.2224   -0.2518    8.9180 C   0  0  0  0  0  0  0  0  0  0  0  0
   11.1367   -0.8226    8.9853 H   0  0  0  0  0  0  0  0  0  0  0  0
    9.8344    0.2664    7.6948 C   0  0  0  0  0  0  0  0  0  0  0  0
   10.4393    0.1136    6.8132 H   0  0  0  0  0  0  0  0  0  0  0  0
    8.6474    0.9883    7.6279 C   0  0  0  0  0  0  0  0  0  0  0  0
    8.2717    1.4347    5.0606 C   0  0  0  0  0  0  0  0  0  0  0  0
    7.3483    1.3001    4.4855 H   0  0  0  0  0  0  0  0  0  0  0  0
    8.8968    0.5505    4.9183 H   0  0  0  0  0  0  0  0  0  0  0  0
    9.0147    2.6688    4.5439 C   0  0  0  0  0  0  0  0  0  0  0  0
    9.9857    2.7427    5.0421 H   0  0  0  0  0  0  0  0  0  0  0  0
    8.4361    3.5716    4.7748 H   0  0  0  0  0  0  0  0  0  0  0  0
    7.6403    2.5636    2.0595 C   0  0  0  0  0  0  0  0  0  0  0  0
    7.2168    1.4570    1.3346 C   0  0  0  0  0  0  0  0  0  0  0  0
    7.9094    0.6433    1.1735 H   0  0  0  0  0  0  0  0  0  0  0  0
    5.9301    1.4085    0.8260 C   0  0  0  0  0  0  0  0  0  0  0  0
    5.6041    0.5472    0.2611 H   0  0  0  0  0  0  0  0  0  0  0  0
    5.0618    2.4660    1.0401 C   0  0  0  0  0  0  0  0  0  0  0  0
    4.0578    2.4304    0.6428 H   0  0  0  0  0  0  0  0  0  0  0  0
    5.4815    3.5742    1.7600 C   0  0  0  0  0  0  0  0  0  0  0  0
    4.8039    4.4005    1.9222 H   0  0  0  0  0  0  0  0  0  0  0  0
    6.7661    3.6258    2.2683 C   0  0  0  0  0  0  0  0  0  0  0  0
    7.0993    4.4939    2.8212 H   0  0  0  0  0  0  0  0  0  0  0  0
    9.8517    4.2837    2.3471 C   0  0  0  0  0  0  0  0  0  0  0  0
   10.3421    5.1732    3.2968 C   0  0  0  0  0  0  0  0  0  0  0  0
   10.4125    4.8954    4.3381 H   0  0  0  0  0  0  0  0  0  0  0  0
   10.7437    6.4403    2.9068 C   0  0  0  0  0  0  0  0  0  0  0  0
   11.1170    7.1296    3.6502 H   0  0  0  0  0  0  0  0  0  0  0  0
   10.6690    6.8237    1.5787 C   0  0  0  0  0  0  0  0  0  0  0  0
   10.9834    7.8139    1.2821 H   0  0  0  0  0  0  0  0  0  0  0  0
   10.1958    5.9332    0.6273 C   0  0  0  0  0  0  0  0  0  0  0  0
   10.1434    6.2267   -0.4113 H   0  0  0  0  0  0  0  0  0  0  0  0
    9.7928    4.6685    1.0099 C   0  0  0  0  0  0  0  0  0  0  0  0
    9.4258    3.9630    0.2755 H   0  0  0  0  0  0  0  0  0  0  0  0
    8.3195    6.4170    8.8715 C   0  0  0  0  0  0  0  0  0  0  0  0
    7.8087    6.7612    7.6222 C   0  0  0  0  0  0  0  0  0  0  0  0
    7.2730    6.0084    7.0514 H   0  0  0  0  0  0  0  0  0  0  0  0
    8.0128    8.0271    7.1106 C   0  0  0  0  0  0  0  0  0  0  0  0
    7.6218    8.2886    6.1384 H   0  0  0  0  0  0  0  0  0  0  0  0
    8.7351    8.9562    7.8437 C   0  0  0  0  0  0  0  0  0  0  0  0
    8.9049    9.9445    7.4429 H   0  0  0  0  0  0  0  0  0  0  0  0
    9.2524    8.6138    9.0812 C   0  0  0  0  0  0  0  0  0  0  0  0
    9.8267    9.3347    9.6444 H   0  0  0  0  0  0  0  0  0  0  0  0
    9.0485    7.3457    9.5996 C   0  0  0  0  0  0  0  0  0  0  0  0
    9.4711    7.0773   10.5565 H   0  0  0  0  0  0  0  0  0  0  0  0
    6.4192    4.9048   10.3482 C   0  0  0  0  0  0  0  0  0  0  0  0
    5.5254    5.9351   10.0820 C   0  0  0  0  0  0  0  0  0  0  0  0
    5.7790    6.6926    9.3539 H   0  0  0  0  0  0  0  0  0  0  0  0
    4.3167    5.9948   10.7544 C   0  0  0  0  0  0  0  0  0  0  0  0
    3.6284    6.8012   10.5475 H   0  0  0  0  0  0  0  0  0  0  0  0
    3.9878    5.0253   11.6866 C   0  0  0  0  0  0  0  0  0  0  0  0
    3.0429    5.0733   12.2069 H   0  0  0  0  0  0  0  0  0  0  0  0
    4.8721    3.9898   11.9490 C   0  0  0  0  0  0  0  0  0  0  0  0
    4.6164    3.2309   12.6741 H   0  0  0  0  0  0  0  0  0  0  0  0
    6.0785    3.9264   11.2796 C   0  0  0  0  0  0  0  0  0  0  0  0
    6.7745    3.1220   11.4775 H   0  0  0  0  0  0  0  0  0  0  0  0
    9.1599    4.3939   10.7897 C   0  0  0  0  0  0  0  0  0  0  0  0
    9.0307    5.0093   12.0325 C   0  0  0  0  0  0  0  0  0  0  0  0
    8.2208    5.7040   12.2100 H   0  0  0  0  0  0  0  0  0  0  0  0
    9.9312    4.7170   13.0400 C   0  0  0  0  0  0  0  0  0  0  0  0
    9.8335    5.1979   14.0025 H   0  0  0  0  0  0  0  0  0  0  0  0
   10.9534    3.8062   12.8204 C   0  0  0  0  0  0  0  0  0  0  0  0
   11.6497    3.5787   13.6140 H   0  0  0  0  0  0  0  0  0  0  0  0
   11.0781    3.1853   11.5889 C   0  0  0  0  0  0  0  0  0  0  0  0
   11.8685    2.4703   11.4175 H   0  0  0  0  0  0  0  0  0  0  0  0
   10.1843    3.4785   10.5750 C   0  0  0  0  0  0  0  0  0  0  0  0
   10.2755    2.9972    9.6066 H   0  0  0  0  0  0  0  0  0  0  0  0
   10.5223    1.1792    2.1708 B   0  0  0  0  0  0  0  0  0  0  0  0
   10.5933    1.2688    0.9829 H   0  0  0  0  0  0  0  0  0  0  0  0
   10.0122    0.1636    2.5433 H   0  0  0  0  0  0  0  0  0  0  0  0
   11.5503    1.4229    2.7255 H   0  0  0  0  0  0  0  0  0  0  0  0
  1  8  1  0  0  0  0
  2  1  1  0  0  0  0
  3 59  1  0  0  0  0
  3 70  1  0  0  0  0
  4 23  1  0  0  0  0
  5  6  2  0  0  0  0
  5 19  1  0  0  0  0
  6  8  1  0  0  0  0
  7  6  1  0  0  0  0
  8 10  1  0  0  0  0
  8  9  1  1  0  0  0
 10 11  1  0  0  0  0
 11 13  2  0  0  0  0
 11 12  1  0  0  0  0
 13 14  1  0  0  0  0
 15 16  1  0  0  0  0
 15 13  1  0  0  0  0
 17 15  2  0  0  0  0
 18 17  1  0  0  0  0
 19 17  1  0  0  0  0
 19 10  2  0  0  0  0
 20  5  1  0  0  0  0
 21 20  1  0  0  0  0
 22 20  1  0  0  0  0
 23 25  1  0  0  0  0
 23 24  1  0  0  0  0
 23 20  1  0  0  0  0
 26 35  1  0  0  0  0
 26  4  1  0  0  0  0
 27 26  2  0  0  0  0
 28 27  1  0  0  0  0
 29 31  2  0  0  0  0
 29 27  1  0  0  0  0
 30 29  1  0  0  0  0
 31 33  1  0  0  0  0
 32 31  1  0  0  0  0
 33 34  1  0  0  0  0
 33 35  2  0  0  0  0
 35 36  1  0  0  0  0
 37  4  1  0  0  0  0
 37 38  1  0  0  0  0
 38 39  1  0  0  0  0
 40 38  2  0  0  0  0
 40 41  1  0  0  0  0
 42 40  1  0  0  0  0
 43 42  1  0  0  0  0
 44 46  1  0  0  0  0
 44 42  2  0  0  0  0
 45 44  1  0  0  0  0
 46 37  2  0  0  0  0
 47 46  1  0  0  0  0
 48  3  1  0  0  0  0
 48 57  1  0  0  0  0
 49 48  2  0  0  0  0
 50 49  1  0  0  0  0
 51 49  1  0  0  0  0
 51 53  2  0  0  0  0
 52 51  1  0  0  0  0
 53 55  1  0  0  0  0
 54 53  1  0  0  0  0
 55 57  2  0  0  0  0
 55 56  1  0  0  0  0
 57 58  1  0  0  0  0
 59 68  1  0  0  0  0
 60 59  2  0  0  0  0
 60 62  1  0  0  0  0
 61 60  1  0  0  0  0
 62 64  2  0  0  0  0
 63 62  1  0  0  0  0
 64 66  1  0  0  0  0
 64 65  1  0  0  0  0
 66 67  1  0  0  0  0
 68 69  1  0  0  0  0
 68 66  2  0  0  0  0
 70 71  1  0  0  0  0
 71 72  1  0  0  0  0
 71 73  2  0  0  0  0
 73 74  1  0  0  0  0
 75 73  1  0  0  0  0
 75 76  1  0  0  0  0
 77 75  2  0  0  0  0
 78 77  1  0  0  0  0
 79 70  2  0  0  0  0
 79 77  1  0  0  0  0
 80 79  1  0  0  0  0
 81 83  1  0  0  0  0
 81 84  1  0  0  0  0
 81  4  1  0  0  0  0
 82 81  1  0  0  0  0
M  END
$$$$
