CSD_code = CAWNIY | q = 0 | S = 0 | Stoichiometry = C5H10Cl2N2OPd | MND = 4
 OpenBabel04212202023D

 21 21  0  0  1  0  0  0  0  0999 V2000
    0.4195   -0.2292    5.3071 Pd  0  0  0  0  0  0  0  0  0  0  0  0
    2.0702   -0.9050    6.6060 Cl  0  0  0  0  0  0  0  0  0  0  0  0
   -0.6474    0.4939    7.0997 Cl  0  0  0  0  0  0  0  0  0  0  0  0
   -0.3553   -0.1770    2.4946 O   0  0  0  0  0  0  0  0  0  0  0  0
   -0.9292    0.2650    3.7274 N   0  0  0  0  0  0  0  0  0  0  0  0
    1.4159   -0.9085    3.7020 N   0  0  0  0  0  0  0  0  0  0  0  0
    2.3262   -1.3597    3.7350 H   0  0  0  0  0  0  0  0  0  0  0  0
   -2.0679    0.8290    3.5649 C   0  0  0  0  0  3  0  0  0  0  0  0
   -2.8036    1.3495    4.7384 C   0  0  0  0  0  0  0  0  0  0  0  0
   -2.2251    1.2276    5.6568 H   0  0  0  0  0  0  0  0  0  0  0  0
   -3.7481    0.8154    4.8357 H   0  0  0  0  0  0  0  0  0  0  0  0
   -3.0344    2.4022    4.5820 H   0  0  0  0  0  0  0  0  0  0  0  0
   -2.6870    0.9842    2.2132 C   0  0  0  0  0  0  0  0  0  0  0  0
   -2.0532    1.6107    1.5852 H   0  0  0  0  0  0  0  0  0  0  0  0
   -3.6720    1.4330    2.2889 H   0  0  0  0  0  0  0  0  0  0  0  0
   -2.7654    0.0147    1.7219 H   0  0  0  0  0  0  0  0  0  0  0  0
    0.8444   -0.7671    2.5747 C   0  0  1  0  0  3  0  0  0  0  0  0
    1.3594   -1.1995    1.2385 C   0  0  0  0  0  0  0  0  0  0  0  0
    2.3624   -1.6046    1.3325 H   0  0  0  0  0  0  0  0  0  0  0  0
    1.3695   -0.3526    0.5554 H   0  0  0  0  0  0  0  0  0  0  0  0
    0.7006   -1.9584    0.8197 H   0  0  0  0  0  0  0  0  0  0  0  0
  1  2  1  0  0  0  0
  1  3  1  0  0  0  0
  4 17  1  0  0  0  0
  4  5  1  0  0  0  0
  5  1  1  0  0  0  0
  6  7  1  0  0  0  0
  6  1  1  0  0  0  0
  8  5  1  0  0  0  0
  8  9  1  0  0  0  0
  9 11  1  0  0  0  0
  9 10  1  0  0  0  0
 12  9  1  0  0  0  0
 13 15  1  0  0  0  0
 13  8  1  0  0  0  0
 14 13  1  0  0  0  0
 16 13  1  0  0  0  0
 17 18  1  1  0  0  0
 17  6  1  0  0  0  0
 18 19  1  0  0  0  0
 20 18  1  0  0  0  0
 21 18  1  0  0  0  0
M  END
$$$$
