CSD_code = CAXBOV | q = 0 | S = 0 | Stoichiometry = C33H28Cl3F3N2PRh | MND = 6
 OpenBabel04212202023D

 71 77  0  0  1  0  0  0  0  0999 V2000
    8.4008    3.8888    5.6939 Rh  0  0  0  0  0  0  0  0  0  0  0  0
   10.2074    2.5206    5.5341 Cl  0  0  0  0  0  0  0  0  0  0  0  0
    9.2191    5.3415    4.1117 Cl  0  0  0  0  0  0  0  0  0  0  0  0
    9.3551    5.0031    7.5443 Cl  0  0  0  0  0  0  0  0  0  0  0  0
    7.6152    3.0525    3.7405 P   0  0  0  0  0  4  0  0  0  0  0  0
    6.5548    5.0777    6.0115 N   0  0  1  0  0  4  0  0  0  0  0  0
    7.4900    2.6732    7.0205 N   0  0  0  0  0  0  0  0  0  0  0  0
    2.1730    8.3427    5.0201 F   0  0  0  0  0  0  0  0  0  0  0  0
    1.6869    9.6751    6.6377 F   0  0  0  0  0  0  0  0  0  0  0  0
    2.9948   10.3286    5.0604 F   0  0  0  0  0  0  0  0  0  0  0  0
    6.5587    1.5797    3.9860 C   0  0  0  0  0  0  0  0  0  0  0  0
    7.2342    0.4448    4.4313 C   0  0  0  0  0  0  0  0  0  0  0  0
    8.3120    0.4876    4.5238 H   0  0  0  0  0  0  0  0  0  0  0  0
    6.5386   -0.7115    4.7243 C   0  0  0  0  0  0  0  0  0  0  0  0
    7.0677   -1.5894    5.0641 H   0  0  0  0  0  0  0  0  0  0  0  0
    5.1599   -0.7438    4.5784 C   0  0  0  0  0  0  0  0  0  0  0  0
    4.6119   -1.6447    4.8109 H   0  0  0  0  0  0  0  0  0  0  0  0
    4.4862    0.3753    4.1198 C   0  0  0  0  0  0  0  0  0  0  0  0
    3.4144    0.3448    3.9869 H   0  0  0  0  0  0  0  0  0  0  0  0
    5.1798    1.5368    3.8225 C   0  0  0  0  0  0  0  0  0  0  0  0
    4.6490    2.3977    3.4383 H   0  0  0  0  0  0  0  0  0  0  0  0
    8.6670    2.4352    2.3909 C   0  0  0  0  0  0  0  0  0  0  0  0
   10.0146    2.7512    2.2791 C   0  0  0  0  0  0  0  0  0  0  0  0
   10.4833    3.3863    3.0129 H   0  0  0  0  0  0  0  0  0  0  0  0
   10.7570    2.2459    1.2251 C   0  0  0  0  0  0  0  0  0  0  0  0
   11.8054    2.4909    1.1479 H   0  0  0  0  0  0  0  0  0  0  0  0
   10.1629    1.4319    0.2767 C   0  0  0  0  0  0  0  0  0  0  0  0
   10.7452    1.0391   -0.5437 H   0  0  0  0  0  0  0  0  0  0  0  0
    8.8160    1.1201    0.3803 C   0  0  0  0  0  0  0  0  0  0  0  0
    8.3461    0.4882   -0.3593 H   0  0  0  0  0  0  0  0  0  0  0  0
    8.0698    1.6147    1.4320 C   0  0  0  0  0  0  0  0  0  0  0  0
    7.0190    1.3685    1.5102 H   0  0  0  0  0  0  0  0  0  0  0  0
    6.5058    4.2602    2.9543 C   0  0  0  0  0  0  0  0  0  0  0  0
    6.6356    4.5613    1.6028 C   0  0  0  0  0  0  0  0  0  0  0  0
    7.4204    4.0941    1.0277 H   0  0  0  0  0  0  0  0  0  0  0  0
    5.7738    5.4530    0.9914 C   0  0  0  0  0  0  0  0  0  0  0  0
    5.8901    5.6800   -0.0573 H   0  0  0  0  0  0  0  0  0  0  0  0
    4.7552    6.0360    1.7238 C   0  0  0  0  0  0  0  0  0  0  0  0
    4.0558    6.7085    1.2511 H   0  0  0  0  0  0  0  0  0  0  0  0
    4.6404    5.7648    3.0760 C   0  0  0  0  0  0  0  0  0  0  0  0
    3.8304    6.2125    3.6348 H   0  0  0  0  0  0  0  0  0  0  0  0
    5.5293    4.9110    3.7176 C   0  0  0  0  0  0  0  0  0  0  0  0
    5.3891    4.6772    5.1995 C   0  0  0  0  0  0  0  0  0  0  0  0
    5.2234    3.6083    5.3860 H   0  0  0  0  0  0  0  0  0  0  0  0
    4.5032    5.2221    5.5585 H   0  0  0  0  0  0  0  0  0  0  0  0
    6.2681    4.7109    7.4066 C   0  0  0  0  0  0  0  0  0  0  0  0
    7.0332    5.1967    8.0286 H   0  0  0  0  0  0  0  0  0  0  0  0
    5.2701    5.0478    7.7147 H   0  0  0  0  0  0  0  0  0  0  0  0
    6.4393    3.2395    7.6310 C   0  0  2  0  0  3  0  0  0  0  0  0
    5.6235    2.5167    8.4876 C   0  0  0  0  0  0  0  0  0  0  0  0
    4.7799    3.0001    8.9550 H   0  0  0  0  0  0  0  0  0  0  0  0
    5.9144    1.1864    8.7419 C   0  0  0  0  0  0  0  0  0  0  0  0
    5.2907    0.6060    9.4039 H   0  0  0  0  0  0  0  0  0  0  0  0
    7.0331    0.6296    8.1443 C   0  0  0  0  0  0  0  0  0  0  0  0
    7.3196   -0.3913    8.3359 H   0  0  0  0  0  0  0  0  0  0  0  0
    7.7925    1.4060    7.2883 C   0  0  0  0  0  0  0  0  0  0  0  0
    8.6875    1.0208    6.8190 H   0  0  0  0  0  0  0  0  0  0  0  0
    6.8574    6.5231    5.8902 C   0  0  0  0  0  0  0  0  0  0  0  0
    6.8981    6.7581    4.8241 H   0  0  0  0  0  0  0  0  0  0  0  0
    7.8548    6.6718    6.3172 H   0  0  0  0  0  0  0  0  0  0  0  0
    5.8883    7.4345    6.5938 C   0  0  0  0  0  0  0  0  0  0  0  0
    4.7839    7.9486    5.9299 C   0  0  0  0  0  0  0  0  0  0  0  0
    4.6344    7.7368    4.8829 H   0  0  0  0  0  0  0  0  0  0  0  0
    3.8781    8.7596    6.6006 C   0  0  0  0  0  0  0  0  0  0  0  0
    4.0757    9.0982    7.9309 C   0  0  0  0  0  0  0  0  0  0  0  0
    3.3663    9.7309    8.4409 H   0  0  0  0  0  0  0  0  0  0  0  0
    5.2014    8.6218    8.5817 C   0  0  0  0  0  0  0  0  0  0  0  0
    5.3804    8.8981    9.6091 H   0  0  0  0  0  0  0  0  0  0  0  0
    6.0966    7.7989    7.9219 C   0  0  0  0  0  0  0  0  0  0  0  0
    6.9797    7.4491    8.4357 H   0  0  0  0  0  0  0  0  0  0  0  0
    2.6898    9.2779    5.8434 C   0  0  0  0  0  0  0  0  0  0  0  0
  1  6  1  0  0  0  0
  1  7  1  0  0  0  0
  1  4  1  0  0  0  0
  2  1  1  0  0  0  0
  3  1  1  0  0  0  0
  5 11  1  0  0  0  0
  5  1  1  0  0  0  0
  6 58  1  6  0  0  0
  6 46  1  0  0  0  0
  7 56  1  0  0  0  0
  7 49  1  0  0  0  0
  8 71  1  0  0  0  0
 10 71  1  0  0  0  0
 11 12  1  0  0  0  0
 12 13  1  0  0  0  0
 12 14  2  0  0  0  0
 14 15  1  0  0  0  0
 16 14  1  0  0  0  0
 16 17  1  0  0  0  0
 18 16  2  0  0  0  0
 19 18  1  0  0  0  0
 20 11  2  0  0  0  0
 20 18  1  0  0  0  0
 21 20  1  0  0  0  0
 22  5  1  0  0  0  0
 23 22  1  0  0  0  0
 23 24  1  0  0  0  0
 25 23  2  0  0  0  0
 26 25  1  0  0  0  0
 27 29  2  0  0  0  0
 27 25  1  0  0  0  0
 28 27  1  0  0  0  0
 29 31  1  0  0  0  0
 30 29  1  0  0  0  0
 31 32  1  0  0  0  0
 31 22  2  0  0  0  0
 33 42  1  0  0  0  0
 33  5  1  0  0  0  0
 34 33  2  0  0  0  0
 35 34  1  0  0  0  0
 36 34  1  0  0  0  0
 36 38  2  0  0  0  0
 37 36  1  0  0  0  0
 38 40  1  0  0  0  0
 39 38  1  0  0  0  0
 40 41  1  0  0  0  0
 40 42  2  0  0  0  0
 42 43  1  0  0  0  0
 43 44  1  0  0  0  0
 43 45  1  0  0  0  0
 43  6  1  0  0  0  0
 46 49  1  0  0  0  0
 46 48  1  0  0  0  0
 46 47  1  0  0  0  0
 49 50  1  1  0  0  0
 50 52  2  0  0  0  0
 50 51  1  0  0  0  0
 52 53  1  0  0  0  0
 54 55  1  0  0  0  0
 54 52  1  0  0  0  0
 56 54  2  0  0  0  0
 57 56  1  0  0  0  0
 58 60  1  0  0  0  0
 58 61  1  0  0  0  0
 59 58  1  0  0  0  0
 61 69  1  0  0  0  0
 62 61  2  0  0  0  0
 62 64  1  0  0  0  0
 63 62  1  0  0  0  0
 64 65  2  0  0  0  0
 65 66  1  0  0  0  0
 65 67  1  0  0  0  0
 67 68  1  0  0  0  0
 69 70  1  0  0  0  0
 69 67  2  0  0  0  0
 71 64  1  0  0  0  0
 71  9  1  0  0  0  0
M  END
$$$$
