CSD_code = CAXFAK | q = 0 | S = 0 | Stoichiometry = C19H27I2N4O3Rh | MND = 6
 OpenBabel04212202023D

 56 57  0  0  1  0  0  0  0  0999 V2000
    5.0013    5.7487    2.8776 Rh  0  0  2  0  0  0  0  0  0  0  0  0
    6.2449    8.0928    3.1143 I   0  0  0  0  0 15  0  0  0  0  0  0
    3.8756    3.3638    2.5927 I   0  0  0  0  0 15  0  0  0  0  0  0
    5.6813    5.2076    4.6353 C   0  0  2  0  0  3  0  0  0  0  0  0
    5.2172    5.1944    5.8859 N   0  0  0  0  0  0  0  0  0  0  0  0
    6.1829    4.6972    6.7269 C   0  0  0  0  0  0  0  0  0  0  0  0
    6.0184    4.5980    7.7802 H   0  0  0  0  0  0  0  0  0  0  0  0
    7.2718    4.3980    5.9814 C   0  0  0  0  0  0  0  0  0  0  0  0
    8.2186    3.9893    6.2653 H   0  0  0  0  0  0  0  0  0  0  0  0
    6.9471    4.7171    4.6879 N   0  0  0  0  0  0  0  0  0  0  0  0
    3.9013    5.6143    6.2866 C   0  0  0  0  0  0  0  0  0  0  0  0
    3.3853    6.0342    5.4211 H   0  0  0  0  0  0  0  0  0  0  0  0
    3.9703    6.3732    7.0667 H   0  0  0  0  0  0  0  0  0  0  0  0
    3.3321    4.7614    6.6604 H   0  0  0  0  0  0  0  0  0  0  0  0
    7.6148    4.6369    3.4765 C   0  0  0  0  0  0  0  0  0  0  0  0
    8.9282    4.2741    3.3090 C   0  0  0  0  0  0  0  0  0  0  0  0
    9.5529    3.9975    4.1437 H   0  0  0  0  0  0  0  0  0  0  0  0
    9.4483    4.2906    2.0075 C   0  0  0  0  0  0  0  0  0  0  0  0
    8.6089    4.5948    0.9651 C   0  0  0  0  0  0  0  0  0  0  0  0
    8.9627    4.5707   -0.0543 H   0  0  0  0  0  0  0  0  0  0  0  0
    7.3245    4.9479    1.1621 N   0  0  0  0  0  0  0  0  0  0  0  0
    6.7811    5.0250    2.3883 C   0  0  0  0  0  0  0  0  0  0  0  0
    6.4992    5.2812    0.0220 C   0  0  0  0  0  0  0  0  0  0  0  0
    5.5987    4.6618    0.0229 H   0  0  0  0  0  0  0  0  0  0  0  0
    7.0469    5.1208   -0.9033 H   0  0  0  0  0  0  0  0  0  0  0  0
    6.1825    6.3261    0.0823 H   0  0  0  0  0  0  0  0  0  0  0  0
   10.8643    3.8375    1.7325 C   0  0  0  0  0  0  0  0  0  0  0  0
   11.0380    2.7097    1.3123 O   0  0  0  0  0  0  0  0  0  0  0  0
   11.8411    4.7253    1.9926 N   0  0  0  0  0  0  0  0  0  0  0  0
   13.2410    4.3244    1.8045 C   0  0  0  0  0  0  0  0  0  0  0  0
   13.8484    5.1897    2.0798 H   0  0  0  0  0  0  0  0  0  0  0  0
   13.5270    3.9763    0.3448 C   0  0  0  0  0  0  0  0  0  0  0  0
   12.9568    3.1006    0.0508 H   0  0  0  0  0  0  0  0  0  0  0  0
   14.5854    3.7630    0.2223 H   0  0  0  0  0  0  0  0  0  0  0  0
   13.2617    4.8065   -0.3057 H   0  0  0  0  0  0  0  0  0  0  0  0
   13.6031    3.1662    2.7327 C   0  0  0  0  0  0  0  0  0  0  0  0
   13.3962    3.4276    3.7682 H   0  0  0  0  0  0  0  0  0  0  0  0
   14.6613    2.9388    2.6366 H   0  0  0  0  0  0  0  0  0  0  0  0
   13.0302    2.2823    2.4697 H   0  0  0  0  0  0  0  0  0  0  0  0
   11.5673    6.0933    2.4199 C   0  0  0  0  0  0  0  0  0  0  0  0
   10.4801    6.2015    2.4695 H   0  0  0  0  0  0  0  0  0  0  0  0
   12.1265    6.3657    3.8168 C   0  0  0  0  0  0  0  0  0  0  0  0
   11.7741    5.6143    4.5194 H   0  0  0  0  0  0  0  0  0  0  0  0
   11.7875    7.3404    4.1564 H   0  0  0  0  0  0  0  0  0  0  0  0
   13.2131    6.3608    3.8220 H   0  0  0  0  0  0  0  0  0  0  0  0
   12.0777    7.1125    1.4005 C   0  0  0  0  0  0  0  0  0  0  0  0
   13.1632    7.1322    1.3572 H   0  0  0  0  0  0  0  0  0  0  0  0
   11.7291    8.1029    1.6800 H   0  0  0  0  0  0  0  0  0  0  0  0
   11.6931    6.8797    0.4105 H   0  0  0  0  0  0  0  0  0  0  0  0
    3.0910    6.6548    3.1415 O   0  0  0  0  0  0  0  0  0  0  0  0
    3.9547    6.4693    1.1596 O   0  0  0  0  0  0  0  0  0  0  0  0
    3.0055    6.8349    1.8992 C   0  0  1  0  0  3  0  0  0  0  0  0
    1.7749    7.4634    1.3047 C   0  0  0  0  0  0  0  0  0  0  0  0
    1.0438    6.6774    1.1197 H   0  0  0  0  0  0  0  0  0  0  0  0
    2.0241    7.9439    0.3626 H   0  0  0  0  0  0  0  0  0  0  0  0
    1.3512    8.1786    2.0044 H   0  0  0  0  0  0  0  0  0  0  0  0
  1 51  1  6  0  0  0
  1 50  1  0  0  0  0
  1  4  1  0  0  0  0
  4 10  1  1  0  0  0
  4  5  1  0  0  0  0
  5 11  1  0  0  0  0
  5  6  1  0  0  0  0
  6  7  1  0  0  0  0
  8  9  1  0  0  0  0
  8  6  2  0  0  0  0
 10  8  1  0  0  0  0
 11 14  1  0  0  0  0
 11 13  1  0  0  0  0
 12 11  1  0  0  0  0
 15 10  1  0  0  0  0
 16 15  2  0  0  0  0
 16 17  1  0  0  0  0
 18 16  1  0  0  0  0
 19 21  1  0  0  0  0
 19 18  2  0  0  0  0
 20 19  1  0  0  0  0
 21 22  1  0  0  0  0
 22  1  2  0  0  0  0
 22 15  1  0  0  0  0
 23 24  1  0  0  0  0
 23 26  1  0  0  0  0
 23 21  1  0  0  0  0
 25 23  1  0  0  0  0
 27 29  1  0  0  0  0
 27 18  1  0  0  0  0
 28 27  2  0  0  0  0
 29 40  1  0  0  0  0
 30 29  1  0  0  0  0
 30 31  1  0  0  0  0
 30 36  1  0  0  0  0
 32 30  1  0  0  0  0
 33 32  1  0  0  0  0
 34 32  1  0  0  0  0
 35 32  1  0  0  0  0
 36 37  1  0  0  0  0
 38 36  1  0  0  0  0
 39 36  1  0  0  0  0
 40 41  1  0  0  0  0
 40 42  1  0  0  0  0
 42 45  1  0  0  0  0
 42 44  1  0  0  0  0
 42 43  1  0  0  0  0
 46 48  1  0  0  0  0
 46 40  1  0  0  0  0
 47 46  1  0  0  0  0
 49 46  1  0  0  0  0
 51 52  1  0  0  0  0
 52 53  1  6  0  0  0
 52 50  1  0  0  0  0
 53 56  1  0  0  0  0
 54 53  1  0  0  0  0
 55 53  1  0  0  0  0
M  END
$$$$
