CSD_code = CAXJIU | q = 0 | S = 0 | Stoichiometry = C26H21AsCl2N2Pd | MND = 4
 OpenBabel04212202023D

 53 57  0  0  0  0  0  0  0  0999 V2000
    2.6684    4.2736    3.3635 Pd  0  0  0  0  0  0  0  0  0  0  0  0
    2.0923    2.7631    4.9026 Cl  0  0  0  0  0  0  0  0  0  0  0  0
    4.9050    3.9330    3.8920 As  0  0  2  0  0  0  0  0  0  0  0  0
    6.1856    2.5244    4.2676 C   0  0  0  0  0  0  0  0  0  0  0  0
    6.2261    1.9912    5.5519 C   0  0  0  0  0  0  0  0  0  0  0  0
    7.0737    0.9366    5.8368 C   0  0  0  0  0  0  0  0  0  0  0  0
    7.8714    0.3989    4.8389 C   0  0  0  0  0  0  0  0  0  0  0  0
    7.8076    0.9040    3.5508 C   0  0  0  0  0  0  0  0  0  0  0  0
    6.9580    1.9578    3.2603 C   0  0  0  0  0  0  0  0  0  0  0  0
    5.6663    5.0621    2.4950 C   0  0  0  0  0  0  0  0  0  0  0  0
    7.0072    5.2341    2.2639 C   0  0  0  0  0  0  0  0  0  0  0  0
    7.4826    6.0691    1.2349 C   0  0  0  0  0  0  0  0  0  0  0  0
    6.5731    6.7124    0.4356 C   0  0  0  0  0  3  0  0  0  0  0  0
    4.2379    7.1947   -0.2014 C   0  0  0  0  0  0  0  0  0  0  0  0
    2.9062    6.9875    0.0315 C   0  0  0  0  0  0  0  0  0  0  0  0
    2.5157    6.1567    1.0900 C   0  0  0  0  0  0  0  0  0  0  0  0
    3.3727    5.5534    1.8876 N   0  0  0  0  0  0  0  0  0  0  0  0
    5.1857    6.5572    0.6264 C   0  0  0  0  0  0  0  0  0  0  0  0
    4.7127    5.7244    1.6774 C   0  0  0  0  0  0  0  0  0  0  0  0
    8.9581    6.2273    1.0441 C   0  0  0  0  0  0  0  0  0  0  0  0
    0.5345    5.0217    3.2565 Cl  0  0  0  0  0  0  0  0  0  0  0  0
    5.0389    5.1444    5.4069 C   0  0  0  0  0  0  0  0  0  0  0  0
    3.9158    5.7289    5.9320 C   0  0  0  0  0  0  0  0  0  0  0  0
    3.9893    6.6147    7.0299 C   0  0  0  0  0  0  0  0  0  0  0  0
    5.2130    6.8910    7.5854 C   0  0  0  0  0  0  0  0  0  0  0  0
    7.6832    6.5722    7.5834 C   0  0  0  0  0  0  0  0  0  0  0  0
    8.7669    5.9808    6.9904 C   0  0  0  0  0  0  0  0  0  0  0  0
    8.5631    5.1507    5.8753 C   0  0  0  0  0  0  0  0  0  0  0  0
    7.3865    4.8935    5.3695 N   0  0  0  0  0  0  0  0  0  0  0  0
    6.3950    6.3235    7.0670 C   0  0  0  0  0  0  0  0  0  0  0  0
    6.3075    5.4504    5.9513 C   0  0  0  0  0  0  0  0  0  0  0  0
    2.7216    7.2057    7.5562 C   0  0  0  0  0  0  0  0  0  0  0  0
    5.5845    2.4142    6.3200 H   0  0  0  0  0  0  0  0  0  0  0  0
    7.1104    0.5273    6.8360 H   0  0  0  0  0  0  0  0  0  0  0  0
    8.5339   -0.4242    5.0627 H   0  0  0  0  0  0  0  0  0  0  0  0
    8.4161    0.4700    2.7702 H   0  0  0  0  0  0  0  0  0  0  0  0
    6.8855    2.3459    2.2479 H   0  0  0  0  0  0  0  0  0  0  0  0
    7.7123    4.7203    2.9050 H   0  0  0  0  0  0  0  0  0  0  0  0
    6.9067    7.3536   -0.3680 H   0  0  0  0  0  0  0  0  0  0  0  0
    4.5804    7.8299   -1.0051 H   0  0  0  0  0  0  0  0  0  0  0  0
    2.1471    7.4492   -0.5791 H   0  0  0  0  0  0  0  0  0  0  0  0
    1.4637    5.9955    1.3052 H   0  0  0  0  0  0  0  0  0  0  0  0
    9.4108    6.6256    1.9510 H   0  0  0  0  0  0  0  0  0  0  0  0
    9.4172    5.2607    0.8421 H   0  0  0  0  0  0  0  0  0  0  0  0
    9.1775    6.8988    0.2184 H   0  0  0  0  0  0  0  0  0  0  0  0
    2.9271    5.4968    5.5093 H   0  0  0  0  0  0  0  0  0  0  0  0
    5.2899    7.5563    8.4343 H   0  0  0  0  0  0  0  0  0  0  0  0
    7.7970    7.2246    8.4378 H   0  0  0  0  0  0  0  0  0  0  0  0
    9.7670    6.1448    7.3609 H   0  0  0  0  0  0  0  0  0  0  0  0
    9.4058    4.6805    5.3837 H   0  0  0  0  0  0  0  0  0  0  0  0
    2.1982    7.7373    6.7627 H   0  0  0  0  0  0  0  0  0  0  0  0
    2.0615    6.4128    7.9052 H   0  0  0  0  0  0  0  0  0  0  0  0
    2.9139    7.8918    8.3768 H   0  0  0  0  0  0  0  0  0  0  0  0
  1  2  1  0  0  0  0
  3 10  1  6  0  0  0
  3  4  1  0  0  0  0
  3 22  1  0  0  0  0
  4  5  1  0  0  0  0
  5  6  2  0  0  0  0
  5 33  1  0  0  0  0
  6 34  1  0  0  0  0
  7 35  1  0  0  0  0
  7  6  1  0  0  0  0
  8  7  2  0  0  0  0
  9  8  1  0  0  0  0
  9  4  2  0  0  0  0
 11 10  1  0  0  0  0
 11 38  1  0  0  0  0
 12 11  2  0  0  0  0
 13 18  1  0  0  0  0
 13 12  1  0  0  0  0
 14 15  1  0  0  0  0
 14 18  2  0  0  0  0
 15 16  2  0  0  0  0
 16 42  1  0  0  0  0
 16 17  1  0  0  0  0
 17  1  1  0  0  0  0
 18 19  1  0  0  0  0
 19 17  1  0  0  0  0
 19 10  2  0  0  0  0
 20 12  1  0  0  0  0
 20 43  1  0  0  0  0
 21  1  1  0  0  0  0
 22 23  2  0  0  0  0
 22 31  1  0  0  0  0
 23 24  1  0  0  0  0
 24 32  1  0  0  0  0
 24 25  2  0  0  0  0
 25 47  1  0  0  0  0
 26 48  1  0  0  0  0
 27 49  1  0  0  0  0
 27 26  2  0  0  0  0
 28 27  1  0  0  0  0
 29 28  2  0  0  0  0
 29 31  1  0  0  0  0
 30 26  1  0  0  0  0
 30 25  1  0  0  0  0
 31 30  2  0  0  0  0
 32 52  1  0  0  0  0
 32 53  1  0  0  0  0
 36  8  1  0  0  0  0
 37  9  1  0  0  0  0
 39 13  1  0  0  0  0
 40 14  1  0  0  0  0
 41 15  1  0  0  0  0
 44 20  1  0  0  0  0
 45 20  1  0  0  0  0
 46 23  1  0  0  0  0
 50 28  1  0  0  0  0
 51 32  1  0  0  0  0
M  END
$$$$
