CSD_code = CAXKOE | q = 0 | S = 0 | Stoichiometry = C38H47Cl2N3Pd | MND = 4
 OpenBabel04212202023D

 91 95  0  0  0  0  0  0  0  0999 V2000
    8.3905    3.7337    4.1926 Pd  0  0  0  0  0  0  0  0  0  0  0  0
    6.8279    2.8361    5.6075 Cl  0  0  0  0  0  0  0  0  0  0  0  0
    9.8808    4.4664    2.6108 Cl  0  0  0  0  0  0  0  0  0  0  0  0
    9.0869    1.8927    3.8627 N   0  0  0  0  0  0  0  0  0  0  0  0
    9.9574    1.3059    4.6774 C   0  0  0  0  0  3  0  0  0  0  0  0
   10.3296    1.9090    5.5039 H   0  0  0  0  0  0  0  0  0  0  0  0
   10.3742   -0.0014    4.4937 C   0  0  0  0  0  0  0  0  0  0  0  0
   11.0820   -0.4447    5.1761 H   0  0  0  0  0  0  0  0  0  0  0  0
    9.8630   -0.7215    3.4250 C   0  0  0  0  0  0  0  0  0  0  0  0
   10.1646   -1.7441    3.2556 H   0  0  0  0  0  0  0  0  0  0  0  0
    8.9532   -0.1032    2.5807 C   0  0  0  0  0  0  0  0  0  0  0  0
    8.5306   -0.6275    1.7381 H   0  0  0  0  0  0  0  0  0  0  0  0
    8.5915    1.2081    2.8359 C   0  0  0  0  0  0  0  0  0  0  0  0
    7.8849    1.7392    2.1974 H   0  0  0  0  0  0  0  0  0  0  0  0
    7.6139    5.4828    4.5627 C   0  0  0  0  0  0  0  0  0  0  0  0
    7.7400    6.1672    5.7110 N   0  0  0  0  0  0  0  0  0  0  0  0
    8.4160    5.6602    6.8908 C   0  0  0  0  0  0  0  0  0  0  0  0
    8.9154    4.7160    6.5973 H   0  0  0  0  0  0  0  0  0  0  0  0
    7.6399    5.4078    7.6153 H   0  0  0  0  0  0  0  0  0  0  0  0
    9.3963    6.6534    7.4659 C   0  0  0  0  0  0  0  0  0  0  0  0
    9.2605    7.0955    8.7861 C   0  0  0  0  0  0  0  0  0  0  0  0
   10.0933    8.1106    9.2597 C   0  0  0  0  0  0  0  0  0  0  0  0
   11.1114    8.6155    8.4465 C   0  0  0  0  0  0  0  0  0  0  0  0
   11.2448    8.1689    7.1319 C   0  0  0  0  0  0  0  0  0  0  0  0
   10.4095    7.1583    6.6491 C   0  0  0  0  0  0  0  0  0  0  0  0
    8.2539    6.4501    9.7040 C   0  0  0  0  0  0  0  0  0  0  0  0
    7.2477    6.8356    9.5328 H   0  0  0  0  0  0  0  0  0  0  0  0
    8.5109    6.6214   10.7439 H   0  0  0  0  0  0  0  0  0  0  0  0
    8.2369    5.3729    9.5560 H   0  0  0  0  0  0  0  0  0  0  0  0
    9.8760    8.6925   10.6320 C   0  0  0  0  0  0  0  0  0  0  0  0
   10.4273    8.1334   11.3893 H   0  0  0  0  0  0  0  0  0  0  0  0
    8.8219    8.6789   10.8959 H   0  0  0  0  0  0  0  0  0  0  0  0
   10.2034    9.7273   10.6667 H   0  0  0  0  0  0  0  0  0  0  0  0
   12.0901    9.6139    9.0045 C   0  0  0  0  0  0  0  0  0  0  0  0
   11.7288   10.6349    8.8737 H   0  0  0  0  0  0  0  0  0  0  0  0
   13.0527    9.5268    8.5099 H   0  0  0  0  0  0  0  0  0  0  0  0
   12.2528    9.4412   10.0646 H   0  0  0  0  0  0  0  0  0  0  0  0
   12.2637    8.7943    6.2184 C   0  0  0  0  0  0  0  0  0  0  0  0
   12.4297    9.8356    6.4793 H   0  0  0  0  0  0  0  0  0  0  0  0
   11.9222    8.7651    5.1882 H   0  0  0  0  0  0  0  0  0  0  0  0
   13.2178    8.2688    6.2770 H   0  0  0  0  0  0  0  0  0  0  0  0
   10.6355    6.5969    5.2759 C   0  0  0  0  0  0  0  0  0  0  0  0
   10.2985    5.5585    5.1979 H   0  0  0  0  0  0  0  0  0  0  0  0
   11.6927    6.6065    5.0259 H   0  0  0  0  0  0  0  0  0  0  0  0
   10.1066    7.1729    4.5157 H   0  0  0  0  0  0  0  0  0  0  0  0
    6.7707    6.1515    3.7565 N   0  0  0  0  0  0  0  0  0  0  0  0
    6.3333    5.5773    2.4909 C   0  0  0  0  0  0  0  0  0  0  0  0
    5.5463    4.8443    2.7027 H   0  0  0  0  0  0  0  0  0  0  0  0
    7.1928    5.0215    2.0759 H   0  0  0  0  0  0  0  0  0  0  0  0
    5.8563    6.5956    1.4868 C   0  0  0  0  0  0  0  0  0  0  0  0
    6.7910    7.3766    0.8050 C   0  0  0  0  0  0  0  0  0  0  0  0
    6.3550    8.2711   -0.1760 C   0  0  0  0  0  0  0  0  0  0  0  0
    4.9929    8.4054   -0.4461 C   0  0  0  0  0  0  0  0  0  0  0  0
    4.0657    7.5904    0.2076 C   0  0  0  0  0  0  0  0  0  0  0  0
    4.4901    6.7197    1.2127 C   0  0  0  0  0  0  0  0  0  0  0  0
    8.2564    7.2929    1.1209 C   0  0  0  0  0  0  0  0  0  0  0  0
    8.4628    6.7651    2.0442 H   0  0  0  0  0  0  0  0  0  0  0  0
    8.6778    8.2921    1.2101 H   0  0  0  0  0  0  0  0  0  0  0  0
    8.7897    6.7694    0.3271 H   0  0  0  0  0  0  0  0  0  0  0  0
    7.3627    9.0715   -0.9544 C   0  0  0  0  0  0  0  0  0  0  0  0
    7.5628   10.0254   -0.4637 H   0  0  0  0  0  0  0  0  0  0  0  0
    7.0080    9.2709   -1.9615 H   0  0  0  0  0  0  0  0  0  0  0  0
    8.3009    8.5318   -1.0362 H   0  0  0  0  0  0  0  0  0  0  0  0
    4.5190    9.4492   -1.4214 C   0  0  0  0  0  0  0  0  0  0  0  0
    5.1872   10.3054   -1.4220 H   0  0  0  0  0  0  0  0  0  0  0  0
    3.5290    9.8077   -1.1540 H   0  0  0  0  0  0  0  0  0  0  0  0
    4.4763    9.0473   -2.4346 H   0  0  0  0  0  0  0  0  0  0  0  0
    2.6136    7.6350   -0.1884 C   0  0  0  0  0  0  0  0  0  0  0  0
    2.0615    8.3628    0.4088 H   0  0  0  0  0  0  0  0  0  0  0  0
    2.1500    6.6617   -0.0560 H   0  0  0  0  0  0  0  0  0  0  0  0
    2.5099    7.9042   -1.2353 H   0  0  0  0  0  0  0  0  0  0  0  0
    3.4729    5.9632    2.0268 C   0  0  0  0  0  0  0  0  0  0  0  0
    2.5269    6.4960    2.0493 H   0  0  0  0  0  0  0  0  0  0  0  0
    3.7988    5.8518    3.0578 H   0  0  0  0  0  0  0  0  0  0  0  0
    3.2951    4.9707    1.6111 H   0  0  0  0  0  0  0  0  0  0  0  0
    6.9775    7.3111    5.6457 C   0  0  0  0  0  0  0  0  0  0  0  0
    6.3486    7.3039    4.3871 C   0  0  0  0  0  0  0  0  0  0  0  0
    5.5075    8.3447    4.0223 C   0  0  0  0  0  0  0  0  0  0  0  0
    5.0254    8.3614    3.0597 H   0  0  0  0  0  0  0  0  0  0  0  0
    5.3022    9.3795    4.9192 C   0  0  0  0  0  0  0  0  0  0  0  0
    5.9359    9.3845    6.1762 C   0  0  0  0  0  0  0  0  0  0  0  0
    6.7781    8.3486    6.5414 C   0  0  0  0  0  0  0  0  0  0  0  0
    7.2793    8.3574    7.4953 H   0  0  0  0  0  0  0  0  0  0  0  0
    4.3939   10.5079    4.5340 C   0  0  0  0  0  0  0  0  0  0  0  0
    3.9966   10.3532    3.5344 H   0  0  0  0  0  0  0  0  0  0  0  0
    4.9297   11.4562    4.5505 H   0  0  0  0  0  0  0  0  0  0  0  0
    3.5604   10.5869    5.2311 H   0  0  0  0  0  0  0  0  0  0  0  0
    5.7043   10.5168    7.1300 C   0  0  0  0  0  0  0  0  0  0  0  0
    6.2714   10.3678    8.0450 H   0  0  0  0  0  0  0  0  0  0  0  0
    4.6479   10.5962    7.3847 H   0  0  0  0  0  0  0  0  0  0  0  0
    6.0090   11.4633    6.6851 H   0  0  0  0  0  0  0  0  0  0  0  0
  1 15  2  0  0  0  0
  1  2  1  0  0  0  0
  3  1  1  0  0  0  0
  4  1  1  0  0  0  0
  4  5  1  0  0  0  0
  5  6  1  0  0  0  0
  7  5  1  0  0  0  0
  7  8  1  0  0  0  0
  9  7  2  0  0  0  0
 10  9  1  0  0  0  0
 11 13  2  0  0  0  0
 11  9  1  0  0  0  0
 12 11  1  0  0  0  0
 13  4  1  0  0  0  0
 14 13  1  0  0  0  0
 15 16  1  0  0  0  0
 16 17  1  0  0  0  0
 17 20  1  0  0  0  0
 17 19  1  0  0  0  0
 18 17  1  0  0  0  0
 20 21  1  0  0  0  0
 21 22  2  0  0  0  0
 21 26  1  0  0  0  0
 22 30  1  0  0  0  0
 23 34  1  0  0  0  0
 23 22  1  0  0  0  0
 24 23  2  0  0  0  0
 25 24  1  0  0  0  0
 25 20  2  0  0  0  0
 26 28  1  0  0  0  0
 27 26  1  0  0  0  0
 29 26  1  0  0  0  0
 30 33  1  0  0  0  0
 30 32  1  0  0  0  0
 30 31  1  0  0  0  0
 34 37  1  0  0  0  0
 35 34  1  0  0  0  0
 36 34  1  0  0  0  0
 38 41  1  0  0  0  0
 38 39  1  0  0  0  0
 38 24  1  0  0  0  0
 40 38  1  0  0  0  0
 42 25  1  0  0  0  0
 43 42  1  0  0  0  0
 44 42  1  0  0  0  0
 45 42  1  0  0  0  0
 46 77  1  0  0  0  0
 46 15  1  0  0  0  0
 47 48  1  0  0  0  0
 47 46  1  0  0  0  0
 49 47  1  0  0  0  0
 50 47  1  0  0  0  0
 51 56  1  0  0  0  0
 51 50  2  0  0  0  0
 52 51  1  0  0  0  0
 53 52  2  0  0  0  0
 53 54  1  0  0  0  0
 54 55  2  0  0  0  0
 55 50  1  0  0  0  0
 55 72  1  0  0  0  0
 56 58  1  0  0  0  0
 56 57  1  0  0  0  0
 59 56  1  0  0  0  0
 60 61  1  0  0  0  0
 60 52  1  0  0  0  0
 62 60  1  0  0  0  0
 63 60  1  0  0  0  0
 64 66  1  0  0  0  0
 64 53  1  0  0  0  0
 65 64  1  0  0  0  0
 67 64  1  0  0  0  0
 68 70  1  0  0  0  0
 68 54  1  0  0  0  0
 68 69  1  0  0  0  0
 71 68  1  0  0  0  0
 72 73  1  0  0  0  0
 72 74  1  0  0  0  0
 75 72  1  0  0  0  0
 76 16  1  0  0  0  0
 76 82  1  0  0  0  0
 77 76  2  0  0  0  0
 78 77  1  0  0  0  0
 78 80  2  0  0  0  0
 79 78  1  0  0  0  0
 80 81  1  0  0  0  0
 81 82  2  0  0  0  0
 81 88  1  0  0  0  0
 82 83  1  0  0  0  0
 84 86  1  0  0  0  0
 84 80  1  0  0  0  0
 84 87  1  0  0  0  0
 85 84  1  0  0  0  0
 88 90  1  0  0  0  0
 88 89  1  0  0  0  0
 91 88  1  0  0  0  0
M  END
$$$$
