CSD_code = CAXLAO | q = 0 | S = 0 | Stoichiometry = C16H19Cl2N3Pd | MND = 4
 OpenBabel04212202023D

 41 45  0  0  1  0  0  0  0  0999 V2000
   11.5989    1.7215    5.4455 Pd  0  0  0  0  0  0  0  0  0  0  0  0
   11.8304    3.5807    4.2867 Cl  0  0  0  0  0  0  0  0  0  0  0  0
   12.6266    0.6293    3.8160 Cl  0  0  0  0  0  0  0  0  0  0  0  0
   10.6812    2.5523    7.0957 N   0  0  0  0  0  0  0  0  0  0  0  0
   10.9122    1.7355    8.1716 N   0  0  2  0  0  0  0  0  0  0  0  0
   11.5556    0.1072    6.6740 N   0  0  0  0  0  0  0  0  0  0  0  0
   11.2935    0.4226    7.9549 C   0  0  2  0  0  3  0  0  0  0  0  0
   11.3852   -0.5160    8.9808 C   0  0  0  0  0  0  0  0  0  0  0  0
   11.7512   -1.8102    8.6612 C   0  0  0  0  0  0  0  0  0  0  0  0
   12.0088   -2.1322    7.3338 C   0  0  0  0  0  0  0  0  0  0  0  0
   11.9007   -1.1455    6.3732 C   0  0  0  0  0  0  0  0  0  0  0  0
   10.6095    2.3773    9.3530 C   0  0  0  0  0  3  0  0  0  0  0  0
   10.1644    3.6133    9.0109 C   0  0  0  0  0  0  0  0  0  0  0  0
    9.7204    4.9597    9.4674 C   0  0  1  0  0  0  0  0  0  0  0  0
   10.9150    5.8838    9.1332 C   0  0  0  0  0  0  0  0  0  0  0  0
   10.9313    5.9224    7.5907 C   0  0  0  0  0  0  0  0  0  0  0  0
    9.7358    5.0254    7.1730 C   0  0  1  0  0  0  0  0  0  0  0  0
   10.2076    3.6686    7.5892 C   0  0  0  0  0  0  0  0  0  0  0  0
    8.7175    5.3023    8.3322 C   0  0  0  0  0  0  0  0  0  0  0  0
    9.2496    5.2001    5.7541 C   0  0  0  0  0  0  0  0  0  0  0  0
    8.1909    6.7320    8.3848 C   0  0  0  0  0  0  0  0  0  0  0  0
    7.5102    4.3648    8.3110 C   0  0  0  0  0  0  0  0  0  0  0  0
   11.1740   -0.2400   10.0002 H   0  0  0  0  0  0  0  0  0  0  0  0
   11.8312   -2.5560    9.4364 H   0  0  0  0  0  0  0  0  0  0  0  0
   12.2914   -3.1321    7.0498 H   0  0  0  0  0  0  0  0  0  0  0  0
   12.1046   -1.3326    5.3252 H   0  0  0  0  0  0  0  0  0  0  0  0
   10.7429    1.9037   10.3028 H   0  0  0  0  0  0  0  0  0  0  0  0
    9.3536    5.0373   10.4875 H   0  0  0  0  0  0  0  0  0  0  0  0
   10.7607    6.8722    9.5623 H   0  0  0  0  0  0  0  0  0  0  0  0
   11.8423    5.4839    9.5434 H   0  0  0  0  0  0  0  0  0  0  0  0
   10.7917    6.9297    7.2042 H   0  0  0  0  0  0  0  0  0  0  0  0
   11.8575    5.5330    7.1694 H   0  0  0  0  0  0  0  0  0  0  0  0
   10.0570    4.9807    5.0589 H   0  0  0  0  0  0  0  0  0  0  0  0
    8.9119    6.2208    5.5951 H   0  0  0  0  0  0  0  0  0  0  0  0
    8.4276    4.5181    5.5487 H   0  0  0  0  0  0  0  0  0  0  0  0
    8.9787    7.4750    8.3443 H   0  0  0  0  0  0  0  0  0  0  0  0
    7.6309    6.8786    9.3065 H   0  0  0  0  0  0  0  0  0  0  0  0
    7.5167    6.9071    7.5500 H   0  0  0  0  0  0  0  0  0  0  0  0
    7.8012    3.3213    8.2185 H   0  0  0  0  0  0  0  0  0  0  0  0
    6.8619    4.6109    7.4738 H   0  0  0  0  0  0  0  0  0  0  0  0
    6.9366    4.4788    9.2289 H   0  0  0  0  0  0  0  0  0  0  0  0
  1  6  1  0  0  0  0
  1  4  1  0  0  0  0
  2  1  1  0  0  0  0
  3  1  1  0  0  0  0
  4 18  1  0  0  0  0
  4  5  1  0  0  0  0
  5 12  1  6  0  0  0
  6  7  1  0  0  0  0
  7  5  1  0  0  0  0
  7  8  1  6  0  0  0
  8 23  1  0  0  0  0
  9  8  2  0  0  0  0
  9 24  1  0  0  0  0
 10  9  1  0  0  0  0
 11  6  1  0  0  0  0
 11 10  2  0  0  0  0
 12 27  1  0  0  0  0
 13 12  1  0  0  0  0
 13 14  1  0  0  0  0
 14 28  1  1  0  0  0
 15 14  1  0  0  0  0
 15 30  1  0  0  0  0
 15 29  1  0  0  0  0
 16 15  1  0  0  0  0
 17 20  1  6  0  0  0
 17 18  1  0  0  0  0
 17 16  1  0  0  0  0
 17 19  1  0  0  0  0
 18 13  2  0  0  0  0
 19 21  1  0  0  0  0
 19 14  1  0  0  0  0
 21 37  1  0  0  0  0
 22 19  1  0  0  0  0
 22 41  1  0  0  0  0
 25 10  1  0  0  0  0
 26 11  1  0  0  0  0
 31 16  1  0  0  0  0
 32 16  1  0  0  0  0
 33 20  1  0  0  0  0
 34 20  1  0  0  0  0
 35 20  1  0  0  0  0
 36 21  1  0  0  0  0
 38 21  1  0  0  0  0
 39 22  1  0  0  0  0
 40 22  1  0  0  0  0
M  END
$$$$
