CSD_code = CAXSUQ | q = 0 | S = 0 | Stoichiometry = C24H19Cl2NO3PRe | MND = 6
 OpenBabel04212202023D

 51 55  0  0  1  0  0  0  0  0999 V2000
    5.0869   32.0961    2.8251 C   0  0  0  0  0  0  0  0  0  0  0  0
    6.1525   31.3822    2.0045 C   0  0  1  0  0  3  0  0  0  0  0  0
    5.8617   30.2942    1.1969 C   0  0  0  0  0  0  0  0  0  0  0  0
    4.8450   29.9362    1.1644 H   0  0  0  0  0  0  0  0  0  0  0  0
    6.8926   29.7133    0.4807 C   0  0  0  0  0  0  0  0  0  0  0  0
    6.7122   28.8560   -0.1496 H   0  0  0  0  0  0  0  0  0  0  0  0
    8.1678   30.2534    0.5957 C   0  0  0  0  0  0  0  0  0  0  0  0
    9.0013   29.8293    0.0592 H   0  0  0  0  0  0  0  0  0  0  0  0
    8.3688   31.3472    1.4166 C   0  0  0  0  0  0  0  0  0  0  0  0
    9.3405   31.8062    1.5434 H   0  0  0  0  0  0  0  0  0  0  0  0
    5.4911   34.5645    1.0028 C   0  0  0  0  0  0  0  0  0  0  0  0
    6.2121   33.8961    0.0132 C   0  0  0  0  0  0  0  0  0  0  0  0
    7.2949   33.9102    0.0530 H   0  0  0  0  0  0  0  0  0  0  0  0
    5.5474   33.2250   -0.9937 C   0  0  0  0  0  0  0  0  0  0  0  0
    6.1076   32.7053   -1.7572 H   0  0  0  0  0  0  0  0  0  0  0  0
    4.1603   33.2104   -1.0146 C   0  0  0  0  0  0  0  0  0  0  0  0
    3.6398   32.6734   -1.7931 H   0  0  0  0  0  0  0  0  0  0  0  0
    3.4427   33.8807   -0.0389 C   0  0  0  0  0  0  0  0  0  0  0  0
    2.3638   33.8667   -0.0552 H   0  0  0  0  0  0  0  0  0  0  0  0
    4.1025   34.5590    0.9719 C   0  0  0  0  0  0  0  0  0  0  0  0
    3.5411   35.0747    1.7370 H   0  0  0  0  0  0  0  0  0  0  0  0
    7.5859   36.4397    1.5231 C   0  0  0  0  0  0  0  0  0  0  0  0
    7.1886   37.1084    0.3682 C   0  0  0  0  0  0  0  0  0  0  0  0
    6.2098   36.9218   -0.0524 H   0  0  0  0  0  0  0  0  0  0  0  0
    8.0496   38.0075   -0.2343 C   0  0  0  0  0  0  0  0  0  0  0  0
    7.7433   38.5240   -1.1320 H   0  0  0  0  0  0  0  0  0  0  0  0
    9.3008   38.2456    0.3127 C   0  0  0  0  0  0  0  0  0  0  0  0
    9.9693   38.9484   -0.1618 H   0  0  0  0  0  0  0  0  0  0  0  0
    9.6958   37.5820    1.4636 C   0  0  0  0  0  0  0  0  0  0  0  0
   10.6712   37.7665    1.8871 H   0  0  0  0  0  0  0  0  0  0  0  0
    8.8423   36.6776    2.0704 C   0  0  0  0  0  0  0  0  0  0  0  0
    9.1432   36.1417    2.9621 H   0  0  0  0  0  0  0  0  0  0  0  0
    5.3488   36.3277    3.3318 C   0  0  0  0  0  0  0  0  0  0  0  0
    5.5171   37.7099    3.3497 C   0  0  0  0  0  0  0  0  0  0  0  0
    6.3091   38.1684    2.7759 H   0  0  0  0  0  0  0  0  0  0  0  0
    4.6727   38.4971    4.1118 C   0  0  0  0  0  0  0  0  0  0  0  0
    4.8088   39.5683    4.1238 H   0  0  0  0  0  0  0  0  0  0  0  0
    3.6654   37.9163    4.8637 C   0  0  0  0  0  0  0  0  0  0  0  0
    3.0129   38.5344    5.4623 H   0  0  0  0  0  0  0  0  0  0  0  0
    3.5038   36.5401    4.8579 C   0  0  0  0  0  0  0  0  0  0  0  0
    2.7277   36.0826    5.4530 H   0  0  0  0  0  0  0  0  0  0  0  0
    4.3413   35.7440    4.0996 C   0  0  0  0  0  0  0  0  0  0  0  0
    4.2283   34.6700    4.1196 H   0  0  0  0  0  0  0  0  0  0  0  0
    7.3747   31.8995    2.1053 N   0  0  0  0  0  0  0  0  0  0  0  0
    5.5851   33.0192    3.5592 O   0  0  0  0  0  0  0  0  0  0  0  0
    3.9168   31.8009    2.7185 O   0  0  0  0  0  0  0  0  0  0  0  0
    9.1625   33.7536    2.9896 O   0  0  0  0  0  1  0  0  0  0  0  0
    6.4610   35.2833    2.3546 P   0  0  0  0  0  4  0  0  0  0  0  0
    7.4810   34.9538    5.2898 Cl  0  0  0  0  0  0  0  0  0  0  0  0
    7.8011   31.7903    5.0790 Cl  0  0  0  0  0  0  0  0  0  0  0  0
    7.6279   33.4917    3.5655 Re  0  0  0  0  0  0  0  0  0  0  0  0
  1 45  1  0  0  0  0
  2  3  1  6  0  0  0
  2 44  1  0  0  0  0
  2  1  1  0  0  0  0
  4  3  1  0  0  0  0
  5  7  1  0  0  0  0
  5  3  2  0  0  0  0
  6  5  1  0  0  0  0
  7  9  2  0  0  0  0
  8  7  1  0  0  0  0
  9 10  1  0  0  0  0
  9 44  1  0  0  0  0
 11 48  1  0  0  0  0
 12 13  1  0  0  0  0
 12 11  2  0  0  0  0
 14 12  1  0  0  0  0
 15 14  1  0  0  0  0
 16 14  2  0  0  0  0
 16 18  1  0  0  0  0
 17 16  1  0  0  0  0
 18 20  2  0  0  0  0
 19 18  1  0  0  0  0
 20 11  1  0  0  0  0
 20 21  1  0  0  0  0
 22 31  1  0  0  0  0
 22 48  1  0  0  0  0
 23 22  2  0  0  0  0
 24 23  1  0  0  0  0
 25 27  2  0  0  0  0
 25 23  1  0  0  0  0
 26 25  1  0  0  0  0
 27 29  1  0  0  0  0
 28 27  1  0  0  0  0
 29 30  1  0  0  0  0
 29 31  2  0  0  0  0
 31 32  1  0  0  0  0
 33 34  2  0  0  0  0
 33 42  1  0  0  0  0
 34 36  1  0  0  0  0
 35 34  1  0  0  0  0
 36 37  1  0  0  0  0
 36 38  2  0  0  0  0
 38 39  1  0  0  0  0
 40 38  1  0  0  0  0
 40 41  1  0  0  0  0
 42 43  1  0  0  0  0
 42 40  2  0  0  0  0
 44 51  1  0  0  0  0
 45 51  1  0  0  0  0
 46  1  2  0  0  0  0
 47 51  1  0  0  0  0
 48 33  1  0  0  0  0
 48 51  1  0  0  0  0
 51 50  1  0  0  0  0
 51 49  1  0  0  0  0
M  END
$$$$
