CSD_code = CAXTAX | q = 0 | S = 0 | Stoichiometry = C26H21Cl2NO5PRe | MND = 6
 OpenBabel04212202023D

 57 61  0  0  1  0  0  0  0  0999 V2000
    6.0975   10.6408    5.0684 C   0  0  0  0  0  0  0  0  0  0  0  0
    6.5160   11.7325    6.0482 C   0  0  2  0  0  3  0  0  0  0  0  0
    7.4964   11.5121    7.0032 C   0  0  0  0  0  0  0  0  0  0  0  0
    7.9774   10.5472    7.0312 H   0  0  0  0  0  0  0  0  0  0  0  0
    7.8333   12.5523    7.8513 C   0  0  0  0  0  0  0  0  0  0  0  0
    8.6282   12.4450    8.5730 H   0  0  0  0  0  0  0  0  0  0  0  0
    7.1145   13.7348    7.7611 C   0  0  0  0  0  0  0  0  0  0  0  0
    7.3118   14.5735    8.4099 H   0  0  0  0  0  0  0  0  0  0  0  0
    6.1074   13.8516    6.8101 C   0  0  0  0  0  0  0  0  0  0  0  0
    5.2660   15.0963    6.8202 C   0  0  0  0  0  0  0  0  0  0  0  0
    3.0681   15.8936    6.6453 C   0  0  0  0  0  0  0  0  0  0  0  0
    3.4077   16.6833    7.3180 H   0  0  0  0  0  0  0  0  0  0  0  0
    2.0972   15.5087    6.9479 H   0  0  0  0  0  0  0  0  0  0  0  0
    3.0236   16.2738    5.6243 H   0  0  0  0  0  0  0  0  0  0  0  0
    3.0912   10.8752    6.0302 C   0  0  0  0  0  0  0  0  0  0  0  0
    3.3988   11.5292    7.2231 C   0  0  0  0  0  0  0  0  0  0  0  0
    3.3467   12.6087    7.2602 H   0  0  0  0  0  0  0  0  0  0  0  0
    3.7769   10.7986    8.3330 C   0  0  0  0  0  0  0  0  0  0  0  0
    4.0195   11.3071    9.2550 H   0  0  0  0  0  0  0  0  0  0  0  0
    3.8575    9.4160    8.2588 C   0  0  0  0  0  0  0  0  0  0  0  0
    4.1686    8.8477    9.1224 H   0  0  0  0  0  0  0  0  0  0  0  0
    3.5451    8.7645    7.0778 C   0  0  0  0  0  0  0  0  0  0  0  0
    3.6131    7.6892    7.0188 H   0  0  0  0  0  0  0  0  0  0  0  0
    3.1633    9.4885    5.9617 C   0  0  0  0  0  0  0  0  0  0  0  0
    2.9332    8.9798    5.0369 H   0  0  0  0  0  0  0  0  0  0  0  0
    1.4412   13.0336    5.0029 C   0  0  0  0  0  0  0  0  0  0  0  0
    0.5730   12.7972    6.0628 C   0  0  0  0  0  0  0  0  0  0  0  0
    0.6965   11.9170    6.6782 H   0  0  0  0  0  0  0  0  0  0  0  0
   -0.4507   13.6926    6.3225 C   0  0  0  0  0  0  0  0  0  0  0  0
   -1.1239   13.5120    7.1477 H   0  0  0  0  0  0  0  0  0  0  0  0
   -0.6156   14.8135    5.5248 C   0  0  0  0  0  0  0  0  0  0  0  0
   -1.4169   15.5070    5.7313 H   0  0  0  0  0  0  0  0  0  0  0  0
    0.2464   15.0460    4.4633 C   0  0  0  0  0  0  0  0  0  0  0  0
    0.1155   15.9190    3.8425 H   0  0  0  0  0  0  0  0  0  0  0  0
    1.2766   14.1614    4.2027 C   0  0  0  0  0  0  0  0  0  0  0  0
    1.9704   14.3356    3.3892 H   0  0  0  0  0  0  0  0  0  0  0  0
    2.0654   10.7961    3.3167 C   0  0  0  0  0  0  0  0  0  0  0  0
    0.6967   10.8095    3.0639 C   0  0  0  0  0  0  0  0  0  0  0  0
    0.0506   11.4861    3.6042 H   0  0  0  0  0  0  0  0  0  0  0  0
    0.1642    9.9570    2.1131 C   0  0  0  0  0  0  0  0  0  0  0  0
   -0.8978    9.9717    1.9182 H   0  0  0  0  0  0  0  0  0  0  0  0
    0.9880    9.0947    1.4092 C   0  0  0  0  0  0  0  0  0  0  0  0
    0.5681    8.4362    0.6635 H   0  0  0  0  0  0  0  0  0  0  0  0
    2.3516    9.0828    1.6561 C   0  0  0  0  0  0  0  0  0  0  0  0
    2.9964    8.4165    1.1035 H   0  0  0  0  0  0  0  0  0  0  0  0
    2.8935    9.9297    2.6045 C   0  0  0  0  0  0  0  0  0  0  0  0
    3.9582    9.9290    2.7867 H   0  0  0  0  0  0  0  0  0  0  0  0
    5.8499   12.8787    5.9365 N   0  0  0  0  0  0  0  0  0  0  0  0
    5.3248   11.0881    4.1518 O   0  0  0  0  0  0  0  0  0  0  0  0
    6.4497    9.4952    5.2351 O   0  0  0  0  0  0  0  0  0  0  0  0
    4.3395   14.6377    4.1374 O   0  0  0  0  0  1  0  0  0  0  0  0
    5.7050   16.1933    7.0305 O   0  0  0  0  0  0  0  0  0  0  0  0
    3.9749   14.7942    6.6892 O   0  0  0  0  0  0  0  0  0  0  0  0
    2.7841   11.8963    4.5659 P   0  0  0  0  0  4  0  0  0  0  0  0
    4.1932   12.7910    1.7676 Cl  0  0  0  0  0  0  0  0  0  0  0  0
    7.0041   13.2939    3.2002 Cl  0  0  0  0  0  0  0  0  0  0  0  0
    4.8368   13.0750    3.9231 Re  0  0  0  0  0  0  0  0  0  0  0  0
  1 50  2  0  0  0  0
  2  1  1  1  0  0  0
  2  3  1  0  0  0  0
  3  4  1  0  0  0  0
  3  5  2  0  0  0  0
  5  6  1  0  0  0  0
  7  5  1  0  0  0  0
  7  8  1  0  0  0  0
  9 10  1  0  0  0  0
  9  7  2  0  0  0  0
 10 52  2  0  0  0  0
 11 53  1  0  0  0  0
 11 13  1  0  0  0  0
 11 12  1  0  0  0  0
 14 11  1  0  0  0  0
 15 16  1  0  0  0  0
 16 17  1  0  0  0  0
 16 18  2  0  0  0  0
 18 19  1  0  0  0  0
 20 18  1  0  0  0  0
 20 21  1  0  0  0  0
 22 20  2  0  0  0  0
 23 22  1  0  0  0  0
 24 15  2  0  0  0  0
 24 22  1  0  0  0  0
 25 24  1  0  0  0  0
 26 27  1  0  0  0  0
 27 29  2  0  0  0  0
 27 28  1  0  0  0  0
 29 30  1  0  0  0  0
 31 32  1  0  0  0  0
 31 29  1  0  0  0  0
 33 31  2  0  0  0  0
 34 33  1  0  0  0  0
 35 33  1  0  0  0  0
 35 26  2  0  0  0  0
 36 35  1  0  0  0  0
 37 54  1  0  0  0  0
 38 37  1  0  0  0  0
 38 39  1  0  0  0  0
 40 38  2  0  0  0  0
 41 40  1  0  0  0  0
 42 44  2  0  0  0  0
 42 40  1  0  0  0  0
 43 42  1  0  0  0  0
 44 46  1  0  0  0  0
 45 44  1  0  0  0  0
 46 47  1  0  0  0  0
 46 37  2  0  0  0  0
 48  2  1  0  0  0  0
 48  9  1  0  0  0  0
 49  1  1  0  0  0  0
 53 10  1  0  0  0  0
 54 26  1  0  0  0  0
 54 15  1  0  0  0  0
 55 57  1  0  0  0  0
 56 57  1  0  0  0  0
 57 51  1  0  0  0  0
 57 49  1  0  0  0  0
 57 54  1  0  0  0  0
 57 48  1  0  0  0  0
M  END
$$$$
