CSD_code = CAXVON | q = 0 | S = 0 | Stoichiometry = C26H35ClSiTi | MND = 12
 OpenBabel04212202023D

 64 67  0  0  1  0  0  0  0  0999 V2000
    5.6584    2.7613    2.3878 Ti  0  0  2  0  0  0  0  0  0  0  0  0
    3.4004    2.7610    2.4013 Cl  0  0  0  0  0  0  0  0  0  0  0  0
    6.6110    1.4048    0.7453 C   0  0  2  0  0  0  0  0  0  0  0  0
    5.2806    0.9310    0.9365 C   0  0  0  0  0  0  0  0  0  0  0  0
    5.1707    0.4039    2.2436 C   0  0  0  0  0  0  0  0  0  0  0  0
    6.4319    0.5355    2.8822 C   0  0  0  0  0  0  0  0  0  0  0  0
    7.3184    1.1631    1.9684 C   0  0  0  0  0  0  0  0  0  0  0  0
    4.2219    0.7905   -0.1162 C   0  0  0  0  0  0  0  0  0  0  0  0
    3.6962   -0.1546    0.0209 H   0  0  0  0  0  0  0  0  0  0  0  0
    4.6696    0.7897   -1.1058 H   0  0  0  0  0  0  0  0  0  0  0  0
    3.4789    1.5882   -0.0608 H   0  0  0  0  0  0  0  0  0  0  0  0
    3.9973   -0.3198    2.8290 C   0  0  0  0  0  0  0  0  0  0  0  0
    3.0745   -0.0432    2.3237 H   0  0  0  0  0  0  0  0  0  0  0  0
    3.8930   -0.0804    3.8881 H   0  0  0  0  0  0  0  0  0  0  0  0
    4.1392   -1.3999    2.7362 H   0  0  0  0  0  0  0  0  0  0  0  0
    6.8107   -0.1794    4.1452 C   0  0  0  0  0  0  0  0  0  0  0  0
    6.0574   -0.0438    4.9211 H   0  0  0  0  0  0  0  0  0  0  0  0
    7.7668    0.1660    4.5302 H   0  0  0  0  0  0  0  0  0  0  0  0
    6.8920   -1.2499    3.9387 H   0  0  0  0  0  0  0  0  0  0  0  0
    8.8104    1.1104    2.1231 C   0  0  0  0  0  0  0  0  0  0  0  0
    9.1530    1.5528    3.0575 H   0  0  0  0  0  0  0  0  0  0  0  0
    9.3112    1.6011    1.2966 H   0  0  0  0  0  0  0  0  0  0  0  0
    9.1254    0.0635    2.1280 H   0  0  0  0  0  0  0  0  0  0  0  0
    5.8161    2.7605    4.4375 C   0  0  0  0  0  0  0  0  0  0  0  0
    4.7116    2.7608    5.2941 C   0  0  0  0  0  0  0  0  0  0  0  0
    3.7037    2.7608    4.8925 H   0  0  0  0  0  0  0  0  0  0  0  0
    4.8519    2.7609    6.6757 C   0  0  0  0  0  0  0  0  0  0  0  0
    3.9694    2.7606    7.3013 H   0  0  0  0  0  0  0  0  0  0  0  0
    6.1077    2.7610    7.2535 C   0  0  0  0  0  0  0  0  0  0  0  0
    6.2186    2.7609    8.3284 H   0  0  0  0  0  0  0  0  0  0  0  0
    7.2222    2.7612    6.4331 C   0  0  0  0  0  0  0  0  0  0  0  0
    8.2135    2.7613    6.8675 H   0  0  0  0  0  0  0  0  0  0  0  0
    7.0702    2.7610    5.0561 C   0  0  0  0  0  0  0  0  0  0  0  0
    7.9714    2.7615    4.4498 H   0  0  0  0  0  0  0  0  0  0  0  0
    6.1352    2.7610   -2.1506 C   0  0  0  0  0  0  0  0  0  0  0  0
    5.0579    2.7609   -2.0511 H   0  0  0  0  0  0  0  0  0  0  0  0
    6.4166    1.8880   -2.7317 H   0  0  0  0  0  0  0  0  0  0  0  0
    6.4166    3.6340   -2.7317 H   0  0  0  0  0  0  0  0  0  0  0  0
    8.8933    2.7610   -1.1480 C   0  0  0  0  0  0  0  0  0  0  0  0
    9.6746    2.7604   -0.3986 H   0  0  0  0  0  0  0  0  0  0  0  0
    9.0459    3.6359   -1.7717 H   0  0  0  0  0  0  0  0  0  0  0  0
    9.0455    1.8867   -1.7726 H   0  0  0  0  0  0  0  0  0  0  0  0
    7.0927    2.7611   -0.4944 Si  0  0  0  0  0  0  0  0  0  0  0  0
    6.6110    4.1176    0.7451 C   0  0  1  0  0  0  0  0  0  0  0  0
    5.2806    4.5913    0.9363 C   0  0  0  0  0  0  0  0  0  0  0  0
    5.1708    5.1184    2.2435 C   0  0  0  0  0  0  0  0  0  0  0  0
    6.4321    4.9869    2.8819 C   0  0  0  0  0  0  0  0  0  0  0  0
    7.3185    4.3594    1.9681 C   0  0  0  0  0  0  0  0  0  0  0  0
    4.2218    4.7318   -0.1162 C   0  0  0  0  0  0  0  0  0  0  0  0
    3.6966    5.6773    0.0206 H   0  0  0  0  0  0  0  0  0  0  0  0
    4.6694    4.7319   -1.1059 H   0  0  0  0  0  0  0  0  0  0  0  0
    3.4784    3.9345   -0.0603 H   0  0  0  0  0  0  0  0  0  0  0  0
    3.9974    5.8420    2.8290 C   0  0  0  0  0  0  0  0  0  0  0  0
    3.0746    5.5653    2.3237 H   0  0  0  0  0  0  0  0  0  0  0  0
    3.8932    5.6026    3.8881 H   0  0  0  0  0  0  0  0  0  0  0  0
    4.1392    6.9221    2.7362 H   0  0  0  0  0  0  0  0  0  0  0  0
    6.8109    5.7018    4.1449 C   0  0  0  0  0  0  0  0  0  0  0  0
    6.0578    5.5660    4.9209 H   0  0  0  0  0  0  0  0  0  0  0  0
    7.7672    5.3566    4.5297 H   0  0  0  0  0  0  0  0  0  0  0  0
    6.8920    6.7723    3.9384 H   0  0  0  0  0  0  0  0  0  0  0  0
    8.8106    4.4121    2.1226 C   0  0  0  0  0  0  0  0  0  0  0  0
    9.1536    3.9675    3.0559 H   0  0  0  0  0  0  0  0  0  0  0  0
    9.3112    3.9235    1.2948 H   0  0  0  0  0  0  0  0  0  0  0  0
    9.1252    5.4590    2.1300 H   0  0  0  0  0  0  0  0  0  0  0  0
  1  2  1  6  0  0  0
  1 24  1  0  0  0  0
  3  4  1  6  0  0  0
  3  7  1  0  0  0  0
  3  1  1  0  0  0  0
  4  5  2  0  0  0  0
  5 12  1  0  0  0  0
  5  6  1  0  0  0  0
  6 16  1  0  0  0  0
  7 20  1  0  0  0  0
  7  6  2  0  0  0  0
  8 11  1  0  0  0  0
  8  9  1  0  0  0  0
  8  4  1  0  0  0  0
 10  8  1  0  0  0  0
 12 14  1  0  0  0  0
 13 12  1  0  0  0  0
 15 12  1  0  0  0  0
 16 18  1  0  0  0  0
 16 17  1  0  0  0  0
 19 16  1  0  0  0  0
 20 23  1  0  0  0  0
 20 21  1  0  0  0  0
 22 20  1  0  0  0  0
 24 33  2  0  0  0  0
 24 25  1  0  0  0  0
 25 27  2  0  0  0  0
 26 25  1  0  0  0  0
 27 29  1  0  0  0  0
 27 28  1  0  0  0  0
 29 30  1  0  0  0  0
 31 32  1  0  0  0  0
 31 29  2  0  0  0  0
 33 31  1  0  0  0  0
 34 33  1  0  0  0  0
 35 36  1  0  0  0  0
 35 43  1  0  0  0  0
 37 35  1  0  0  0  0
 38 35  1  0  0  0  0
 39 43  1  0  0  0  0
 39 40  1  0  0  0  0
 41 39  1  0  0  0  0
 42 39  1  0  0  0  0
 43 44  1  0  0  0  0
 43  3  1  0  0  0  0
 44 45  1  6  0  0  0
 44 48  1  0  0  0  0
 44  1  1  0  0  0  0
 45 46  2  0  0  0  0
 46 53  1  0  0  0  0
 46 47  1  0  0  0  0
 47 57  1  0  0  0  0
 48 61  1  0  0  0  0
 48 47  2  0  0  0  0
 49 52  1  0  0  0  0
 49 50  1  0  0  0  0
 49 45  1  0  0  0  0
 51 49  1  0  0  0  0
 53 55  1  0  0  0  0
 54 53  1  0  0  0  0
 56 53  1  0  0  0  0
 57 59  1  0  0  0  0
 57 58  1  0  0  0  0
 60 57  1  0  0  0  0
 61 64  1  0  0  0  0
 61 62  1  0  0  0  0
 63 61  1  0  0  0  0
M  END
$$$$
