CSD_code = CAXYIK | q = 0 | S = 0 | Stoichiometry = C23H28ClN2NbSi | MND = 8
 OpenBabel04212202023D

 56 59  0  0  1  0  0  0  0  0999 V2000
    4.7625    3.0374    8.3636 C   0  0  0  0  0  0  0  0  0  0  0  0
    5.1465    3.3930    9.3078 H   0  0  0  0  0  0  0  0  0  0  0  0
    0.8394    0.5686    1.7427 C   0  0  2  0  0  3  0  0  0  0  0  0
    0.3583    0.4890    3.0880 C   0  0  1  0  0  0  0  0  0  0  0  0
   -0.4590    1.0756    3.4971 H   0  0  0  0  0  0  0  0  0  0  0  0
    0.8783   -0.6919    3.6778 C   0  0  0  0  0  3  0  0  0  0  0  0
    0.5647   -1.1193    4.6232 H   0  0  0  0  0  0  0  0  0  0  0  0
    1.7148   -1.3102    2.7274 C   0  0  0  0  0  0  0  0  0  0  0  0
    2.2146   -2.2630    2.8499 H   0  0  0  0  0  0  0  0  0  0  0  0
    1.6898   -0.5321    1.5585 C   0  0  0  0  0  0  0  0  0  0  0  0
    2.2130   -0.7728    0.6416 H   0  0  0  0  0  0  0  0  0  0  0  0
    0.7509    4.1757    4.2115 C   0  0  0  0  0  0  0  0  0  0  0  0
    0.3340    4.8614    4.9443 H   0  0  0  0  0  0  0  0  0  0  0  0
    1.1540    3.2965    4.7282 H   0  0  0  0  0  0  0  0  0  0  0  0
   -0.0452    3.8462    3.5441 H   0  0  0  0  0  0  0  0  0  0  0  0
   -0.3343    3.3900    0.6859 C   0  0  0  0  0  0  0  0  0  0  0  0
   -1.1203    3.2014    1.4098 H   0  0  0  0  0  0  0  0  0  0  0  0
   -0.7608    3.2600   -0.3021 H   0  0  0  0  0  0  0  0  0  0  0  0
   -0.0310    4.4272    0.7846 H   0  0  0  0  0  0  0  0  0  0  0  0
    2.0335    1.9703   -0.7707 C   0  0  0  0  0  0  0  0  0  0  0  0
    3.0203    1.5284   -0.6605 H   0  0  0  0  0  0  0  0  0  0  0  0
    2.1404    2.9063   -1.3095 H   0  0  0  0  0  0  0  0  0  0  0  0
    1.4372    1.3070   -1.3907 H   0  0  0  0  0  0  0  0  0  0  0  0
    2.5715    4.1048    2.4815 C   0  0  0  0  0  0  0  0  0  0  0  0
    1.8492    4.8389    3.4365 C   0  0  0  0  0  0  0  0  0  0  0  0
    2.1851    6.1628    3.6720 C   0  0  0  0  0  0  0  0  0  0  0  0
    1.6268    6.7264    4.4053 H   0  0  0  0  0  0  0  0  0  0  0  0
    3.2242    6.7660    2.9861 C   0  0  0  0  0  0  0  0  0  0  0  0
    3.4708    7.8000    3.1739 H   0  0  0  0  0  0  0  0  0  0  0  0
    3.9586    6.0303    2.0752 C   0  0  0  0  0  0  0  0  0  0  0  0
    4.7900    6.4877    1.5586 H   0  0  0  0  0  0  0  0  0  0  0  0
    3.6535    4.7012    1.8173 C   0  0  0  0  0  0  0  0  0  0  0  0
    4.4915    3.8991    0.8693 C   0  0  0  0  0  0  0  0  0  0  0  0
    4.6356    2.8895    1.2603 H   0  0  0  0  0  0  0  0  0  0  0  0
    5.4629    4.3683    0.7337 H   0  0  0  0  0  0  0  0  0  0  0  0
    4.0098    3.8275   -0.1046 H   0  0  0  0  0  0  0  0  0  0  0  0
    3.7686    2.1267    5.9277 C   0  0  0  0  0  0  0  0  0  0  0  0
    3.1779    1.7034    7.1383 C   0  0  0  0  0  0  0  0  0  0  0  0
    3.6844    2.1680    8.3387 C   0  0  0  0  0  0  0  0  0  0  0  0
    3.2327    1.8448    9.2657 H   0  0  0  0  0  0  0  0  0  0  0  0
    5.3532    3.4434    7.1773 C   0  0  0  0  0  0  0  0  0  0  0  0
    6.2006    4.1132    7.2025 H   0  0  0  0  0  0  0  0  0  0  0  0
    4.8780    3.0008    5.9565 C   0  0  0  0  0  0  0  0  0  0  0  0
    2.0286    0.7450    7.0700 C   0  0  0  0  0  0  0  0  0  0  0  0
    2.3523   -0.1766    6.5773 H   0  0  0  0  0  0  0  0  0  0  0  0
    1.2167    1.1742    6.4760 H   0  0  0  0  0  0  0  0  0  0  0  0
    1.6589    0.5072    8.0638 H   0  0  0  0  0  0  0  0  0  0  0  0
    5.4922    3.4080    4.6557 C   0  0  0  0  0  0  0  0  0  0  0  0
    5.7256    2.5193    4.0637 H   0  0  0  0  0  0  0  0  0  0  0  0
    6.3971    3.9876    4.8159 H   0  0  0  0  0  0  0  0  0  0  0  0
    4.7785    4.0033    4.0828 H   0  0  0  0  0  0  0  0  0  0  0  0
    4.6296    0.3706    2.2762 Cl  0  0  0  0  0  0  0  0  0  0  0  0
    2.2143    2.7752    2.2249 N   0  0  0  0  0  0  0  0  0  0  0  0
    3.2850    1.6875    4.7519 N   0  0  0  0  0  2  0  0  0  0  0  0
    2.6201    1.0790    3.2245 Nb  0  0  1  0  0  0  0  0  0  0  0  0
    1.1691    2.2380    0.9114 Si  0  0  0  0  0  0  0  0  0  0  0  0
  1  2  1  0  0  0  0
  3 10  1  1  0  0  0
  3  4  1  0  0  0  0
  4 55  1  0  0  0  0
  4  5  1  1  0  0  0
  4  6  1  0  0  0  0
  6  7  1  0  0  0  0
  8  9  1  0  0  0  0
  8  6  1  0  0  0  0
 10  8  2  0  0  0  0
 11 10  1  0  0  0  0
 12 14  1  0  0  0  0
 12 13  1  0  0  0  0
 15 12  1  0  0  0  0
 16 19  1  0  0  0  0
 16 56  1  0  0  0  0
 16 17  1  0  0  0  0
 18 16  1  0  0  0  0
 20 21  1  0  0  0  0
 20 56  1  0  0  0  0
 22 20  1  0  0  0  0
 23 20  1  0  0  0  0
 24 25  1  0  0  0  0
 25 26  2  0  0  0  0
 25 12  1  0  0  0  0
 26 27  1  0  0  0  0
 28 29  1  0  0  0  0
 28 26  1  0  0  0  0
 30 28  2  0  0  0  0
 31 30  1  0  0  0  0
 32 30  1  0  0  0  0
 32 24  2  0  0  0  0
 33 34  1  0  0  0  0
 33 32  1  0  0  0  0
 35 33  1  0  0  0  0
 36 33  1  0  0  0  0
 37 43  2  0  0  0  0
 37 38  1  0  0  0  0
 38 39  2  0  0  0  0
 39  1  1  0  0  0  0
 39 40  1  0  0  0  0
 41 42  1  0  0  0  0
 41  1  2  0  0  0  0
 43 41  1  0  0  0  0
 44 38  1  0  0  0  0
 44 47  1  0  0  0  0
 45 44  1  0  0  0  0
 46 44  1  0  0  0  0
 48 50  1  0  0  0  0
 48 43  1  0  0  0  0
 49 48  1  0  0  0  0
 51 48  1  0  0  0  0
 53 24  1  0  0  0  0
 53 55  1  0  0  0  0
 54 37  1  0  0  0  0
 55 52  1  6  0  0  0
 55 54  1  0  0  0  0
 56  3  1  0  0  0  0
 56 53  1  0  0  0  0
M  END
$$$$
