CSD_code = CAYBOT | q = 0 | S = 0 | Stoichiometry = C44H34Cl2HgP2 | MND = 4
 OpenBabel04212202023D

 83 91  0  0  0  0  0  0  0  0999 V2000
    2.5186    4.1963    7.6073 Hg  0  0  0  0  0  0  0  0  0  0  0  0
    4.0216    4.7700    5.3565 P   0  0  0  0  0  4  0  0  0  0  0  0
    0.3425    2.9286    6.4865 P   0  0  0  0  0  4  0  0  0  0  0  0
    3.6854    2.7343    8.9592 Cl  0  0  0  0  0  0  0  0  0  0  0  0
    1.7982    6.3741    7.9340 Cl  0  0  0  0  0  0  0  0  0  0  0  0
    4.3929    1.2545    5.8173 C   0  0  0  0  0  0  0  0  0  0  0  0
    5.1895    2.3081    5.4283 C   0  0  0  0  0  0  0  0  0  0  0  0
    6.4751    2.4442    5.9726 C   0  0  0  0  0  0  0  0  0  0  0  0
    6.9619    1.4889    6.8202 C   0  0  0  0  0  0  0  0  0  0  0  0
    6.7662   -0.7015    7.8982 C   0  0  0  0  0  0  0  0  0  0  0  0
    6.0903   -1.8658    8.0497 C   0  0  0  0  0  0  0  0  0  0  0  0
    4.0654   -3.2239    7.7543 C   0  0  0  0  0  0  0  0  0  0  0  0
    2.7651   -3.3531    7.3941 C   0  0  0  0  0  0  0  0  0  0  0  0
    0.6103   -2.2897    6.8872 C   0  0  0  0  0  0  0  0  0  0  0  0
   -0.1552   -1.1637    6.7547 C   0  0  0  0  0  0  0  0  0  0  0  0
    0.4427    0.1030    6.8508 C   0  0  0  0  0  0  0  0  0  0  0  0
    1.8085    0.2016    6.9598 C   0  0  0  0  0  0  0  0  0  0  0  0
    4.8447    0.2805    6.7270 C   0  0  0  0  0  0  0  0  0  0  0  0
    6.1873    0.3719    7.1740 C   0  0  0  0  0  0  0  0  0  0  0  0
    2.6342   -0.9351    7.0061 C   0  0  0  0  0  0  0  0  0  0  0  0
    2.0015   -2.2032    7.0689 C   0  0  0  0  0  0  0  0  0  0  0  0
    4.0632   -0.8594    7.1185 C   0  0  0  0  0  0  0  0  0  0  0  0
    4.7365   -1.9784    7.6400 C   0  0  0  0  0  0  0  0  0  0  0  0
    4.7008    3.3160    4.4314 C   0  0  0  0  0  0  0  0  0  0  0  0
   -0.4468    1.3126    6.8955 C   0  0  0  0  0  0  0  0  0  0  0  0
    5.5503    5.5762    5.9360 C   0  0  0  0  0  0  0  0  0  0  0  0
    6.3795    6.2556    5.0467 C   0  0  0  0  0  0  0  0  0  0  0  0
    7.5510    6.8315    5.5005 C   0  0  0  0  0  0  0  0  0  0  0  0
    7.9022    6.7355    6.8379 C   0  0  0  0  0  0  0  0  0  0  0  0
    7.0777    6.0643    7.7251 C   0  0  0  0  0  0  0  0  0  0  0  0
    5.9025    5.4874    7.2779 C   0  0  0  0  0  0  0  0  0  0  0  0
    3.5010    5.9423    4.0673 C   0  0  0  0  0  0  0  0  0  0  0  0
    3.7334    5.7660    2.7080 C   0  0  0  0  0  0  0  0  0  0  0  0
    3.3355    6.7431    1.8113 C   0  0  0  0  0  0  0  0  0  0  0  0
    2.6988    7.8881    2.2603 C   0  0  0  0  0  0  0  0  0  0  0  0
    2.4529    8.0583    3.6138 C   0  0  0  0  0  0  0  0  0  0  0  0
    2.8519    7.0906    4.5162 C   0  0  0  0  0  0  0  0  0  0  0  0
   -1.1295    3.9835    6.6655 C   0  0  0  0  0  0  0  0  0  0  0  0
   -2.0972    4.0863    5.6716 C   0  0  0  0  0  0  0  0  0  0  0  0
   -3.2174    4.8678    5.8855 C   0  0  0  0  0  0  0  0  0  0  0  0
   -3.3791    5.5428    7.0851 C   0  0  0  0  0  0  0  0  0  0  0  0
   -2.4208    5.4347    8.0792 C   0  0  0  0  0  0  0  0  0  0  0  0
   -1.2976    4.6555    7.8717 C   0  0  0  0  0  0  0  0  0  0  0  0
    0.5964    2.8885    4.6911 C   0  0  0  0  0  0  0  0  0  0  0  0
    0.7178    4.1237    4.0537 C   0  0  0  0  0  0  0  0  0  0  0  0
    0.9261    4.1812    2.6896 C   0  0  0  0  0  0  0  0  0  0  0  0
    1.0555    3.0092    1.9593 C   0  0  0  0  0  0  0  0  0  0  0  0
    0.9682    1.7817    2.5949 C   0  0  0  0  0  0  0  0  0  0  0  0
    0.7350    1.7149    3.9583 C   0  0  0  0  0  0  0  0  0  0  0  0
    6.1038    6.3372    4.0037 H   0  0  0  0  0  0  0  0  0  0  0  0
    8.1923    7.3588    4.8090 H   0  0  0  0  0  0  0  0  0  0  0  0
    8.8179    7.1888    7.1877 H   0  0  0  0  0  0  0  0  0  0  0  0
    7.3471    5.9913    8.7681 H   0  0  0  0  0  0  0  0  0  0  0  0
    5.2588    4.9590    7.9733 H   0  0  0  0  0  0  0  0  0  0  0  0
    4.2161    4.8724    2.3409 H   0  0  0  0  0  0  0  0  0  0  0  0
    3.5231    6.6071    0.7556 H   0  0  0  0  0  0  0  0  0  0  0  0
    2.3907    8.6451    1.5542 H   0  0  0  0  0  0  0  0  0  0  0  0
    1.9490    8.9458    3.9661 H   0  0  0  0  0  0  0  0  0  0  0  0
    2.6558    7.2090    5.5739 H   0  0  0  0  0  0  0  0  0  0  0  0
   -1.9679    3.5648    4.7327 H   0  0  0  0  0  0  0  0  0  0  0  0
   -3.9671    4.9522    5.1122 H   0  0  0  0  0  0  0  0  0  0  0  0
   -4.2534    6.1567    7.2430 H   0  0  0  0  0  0  0  0  0  0  0  0
   -2.5436    5.9640    9.0119 H   0  0  0  0  0  0  0  0  0  0  0  0
   -0.5364    4.5742    8.6395 H   0  0  0  0  0  0  0  0  0  0  0  0
    0.6257    5.0321    4.6370 H   0  0  0  0  0  0  0  0  0  0  0  0
    0.9897    5.1391    2.1959 H   0  0  0  0  0  0  0  0  0  0  0  0
    1.2255    3.0540    0.8938 H   0  0  0  0  0  0  0  0  0  0  0  0
    1.0770    0.8692    2.0269 H   0  0  0  0  0  0  0  0  0  0  0  0
    0.6618    0.7538    4.4467 H   0  0  0  0  0  0  0  0  0  0  0  0
    3.4267    1.1395    5.3461 H   0  0  0  0  0  0  0  0  0  0  0  0
    7.0904    3.2845    5.6833 H   0  0  0  0  0  0  0  0  0  0  0  0
    7.9696    1.5634    7.2033 H   0  0  0  0  0  0  0  0  0  0  0  0
    7.7777   -0.5925    8.2621 H   0  0  0  0  0  0  0  0  0  0  0  0
    6.5577   -2.7242    8.5109 H   0  0  0  0  0  0  0  0  0  0  0  0
    4.6294   -4.0761    8.1057 H   0  0  0  0  0  0  0  0  0  0  0  0
    2.2706   -4.3135    7.4188 H   0  0  0  0  0  0  0  0  0  0  0  0
    0.1467   -3.2659    6.8901 H   0  0  0  0  0  0  0  0  0  0  0  0
   -1.2263   -1.2400    6.6295 H   0  0  0  0  0  0  0  0  0  0  0  0
    2.2519    1.1792    7.0990 H   0  0  0  0  0  0  0  0  0  0  0  0
    3.8859    2.9089    3.8238 H   0  0  0  0  0  0  0  0  0  0  0  0
    5.5180    3.6595    3.7895 H   0  0  0  0  0  0  0  0  0  0  0  0
   -1.3094    1.1963    6.2256 H   0  0  0  0  0  0  0  0  0  0  0  0
   -0.8377    1.4391    7.9156 H   0  0  0  0  0  0  0  0  0  0  0  0
  1  5  1  0  0  0  0
  1  4  1  0  0  0  0
  2 26  1  0  0  0  0
  2  1  1  0  0  0  0
  3 38  1  0  0  0  0
  3 25  1  0  0  0  0
  3  1  1  0  0  0  0
  6 18  1  0  0  0  0
  7  6  2  0  0  0  0
  7  8  1  0  0  0  0
  8  9  2  0  0  0  0
  9 19  1  0  0  0  0
  9 72  1  0  0  0  0
 10 11  1  0  0  0  0
 10 73  1  0  0  0  0
 11 74  1  0  0  0  0
 12 75  1  0  0  0  0
 13 76  1  0  0  0  0
 13 12  2  0  0  0  0
 14 77  1  0  0  0  0
 14 21  1  0  0  0  0
 15 16  1  0  0  0  0
 15 14  2  0  0  0  0
 16 25  1  0  0  0  0
 16 17  2  0  0  0  0
 17 20  1  0  0  0  0
 17 79  1  0  0  0  0
 18 22  2  0  0  0  0
 18 19  1  0  0  0  0
 19 10  2  0  0  0  0
 20 21  2  0  0  0  0
 20 22  1  0  0  0  0
 21 13  1  0  0  0  0
 22 23  1  0  0  0  0
 23 12  1  0  0  0  0
 23 11  2  0  0  0  0
 24  2  1  0  0  0  0
 24  7  1  0  0  0  0
 25 83  1  0  0  0  0
 26 31  1  0  0  0  0
 27 28  1  0  0  0  0
 27 26  2  0  0  0  0
 28 29  2  0  0  0  0
 29 52  1  0  0  0  0
 29 30  1  0  0  0  0
 30 53  1  0  0  0  0
 31 30  2  0  0  0  0
 31 54  1  0  0  0  0
 32 37  1  0  0  0  0
 32  2  1  0  0  0  0
 33 32  2  0  0  0  0
 34 35  2  0  0  0  0
 34 33  1  0  0  0  0
 35 36  1  0  0  0  0
 36 58  1  0  0  0  0
 36 37  2  0  0  0  0
 37 59  1  0  0  0  0
 38 43  1  0  0  0  0
 39 40  1  0  0  0  0
 39 38  2  0  0  0  0
 40 41  2  0  0  0  0
 41 62  1  0  0  0  0
 41 42  1  0  0  0  0
 42 63  1  0  0  0  0
 43 42  2  0  0  0  0
 43 64  1  0  0  0  0
 44  3  1  0  0  0  0
 45 65  1  0  0  0  0
 45 44  1  0  0  0  0
 46 45  2  0  0  0  0
 47 48  2  0  0  0  0
 47 46  1  0  0  0  0
 48 49  1  0  0  0  0
 49 69  1  0  0  0  0
 49 44  2  0  0  0  0
 50 27  1  0  0  0  0
 51 28  1  0  0  0  0
 55 33  1  0  0  0  0
 56 34  1  0  0  0  0
 57 35  1  0  0  0  0
 60 39  1  0  0  0  0
 61 40  1  0  0  0  0
 66 46  1  0  0  0  0
 67 47  1  0  0  0  0
 68 48  1  0  0  0  0
 70  6  1  0  0  0  0
 71  8  1  0  0  0  0
 78 15  1  0  0  0  0
 80 24  1  0  0  0  0
 81 24  1  0  0  0  0
 82 25  1  0  0  0  0
M  END
$$$$
