CSD_code = CAYGER | q = 0 | S = 0 | Stoichiometry = C30H52BClN6Ni | MND = 4
 OpenBabel04212202023D

 91 95  0  0  1  0  0  0  0  0999 V2000
    4.1305    4.0750   15.8100 Ni  0  0  1  0  0  0  0  0  0  0  0  0
    2.7209    3.9198   17.2741 Cl  0  0  0  0  0  0  0  0  0  0  0  0
    5.4627    4.1662   14.5589 N   0  0  2  0  0  0  0  0  0  0  0  0
    5.1112    4.0228   13.2808 N   0  0  0  0  0  0  0  0  0  0  0  0
    3.5131    2.3391   14.8015 N   0  0  2  0  0  0  0  0  0  0  0  0
    3.0190    2.7572   13.6160 N   0  0  0  0  0  0  0  0  0  0  0  0
    3.2450    5.6555   14.7838 N   0  0  1  0  0  0  0  0  0  0  0  0
    3.0028    5.2936   13.5073 N   0  0  0  0  0  0  0  0  0  0  0  0
    6.7066    3.8888   17.1211 C   0  0  0  0  0  0  0  0  0  0  0  0
    7.7042    5.9400   16.0782 C   0  0  0  0  0  0  0  0  0  0  0  0
    8.8891    3.7359   15.9224 C   0  0  0  0  0  0  0  0  0  0  0  0
    7.5195    4.4222   15.9381 C   0  0  0  0  0  0  0  0  0  0  0  0
    6.7899    4.1753   14.6467 C   0  0  2  0  0  3  0  0  0  0  0  0
    7.3094    4.0285   13.3582 C   0  0  0  0  0  0  0  0  0  0  0  0
    6.2135    3.9299   12.5163 C   0  0  0  0  0  0  0  0  0  0  0  0
    1.3512    2.0275   11.8921 C   0  0  0  0  0  0  0  0  0  0  0  0
    5.9007    2.2121   10.7713 C   0  0  0  0  0  0  0  0  0  0  0  0
    7.4750    4.1339   10.3698 C   0  0  0  0  0  0  0  0  0  0  0  0
    2.1770    0.3850   17.2818 C   0  0  0  0  0  0  0  0  0  0  0  0
    4.6146    0.8507   16.9348 C   0  0  0  0  0  0  0  0  0  0  0  0
    3.5625   -1.1333   15.8464 C   0  0  0  0  0  0  0  0  0  0  0  0
    3.3382    0.3207   16.2822 C   0  0  0  0  0  0  0  0  0  0  0  0
    2.9885    1.1486   15.0762 C   0  0  2  0  0  3  0  0  0  0  0  0
    2.1116    0.7976   14.0453 C   0  0  0  0  0  0  0  0  0  0  0  0
    2.1552    1.8391   13.1384 C   0  0  0  0  0  0  0  0  0  0  0  0
    6.1743    3.6963   11.0400 C   0  0  0  0  0  0  0  0  0  0  0  0
    0.1173    2.8737   12.2263 C   0  0  0  0  0  0  0  0  0  0  0  0
    0.9385    0.6893   11.2823 C   0  0  0  0  0  0  0  0  0  0  0  0
    4.0641    7.2830   17.0319 C   0  0  0  0  0  0  0  0  0  0  0  0
    1.5564    7.2189   17.1512 C   0  0  0  0  0  0  0  0  0  0  0  0
    2.7207    9.1185   16.0160 C   0  0  0  0  0  0  0  0  0  0  0  0
    2.7656    7.6105   16.2921 C   0  0  0  0  0  0  0  0  0  0  0  0
    2.7004    6.8520   14.9934 C   0  0  1  0  0  3  0  0  0  0  0  0
    2.0771    7.2665   13.8135 C   0  0  0  0  0  0  0  0  0  0  0  0
    2.2896    6.2572   12.8936 C   0  0  0  0  0  0  0  0  0  0  0  0
    1.8798    6.2237   11.4547 C   0  0  0  0  0  0  0  0  0  0  0  0
    2.9633    6.8984   10.6065 C   0  0  0  0  0  0  0  0  0  0  0  0
    0.5305    6.9114   11.2495 C   0  0  0  0  0  0  0  0  0  0  0  0
    3.6113    4.0008   12.9235 B   0  0  1  0  0  0  0  0  0  0  0  0
    3.4629    3.9511   11.7562 H   0  0  0  0  0  0  0  0  0  0  0  0
    7.0998    4.2708   18.0609 H   0  0  0  0  0  0  0  0  0  0  0  0
    5.6440    4.2157   17.0529 H   0  0  0  0  0  0  0  0  0  0  0  0
    6.7411    2.8021   17.1471 H   0  0  0  0  0  0  0  0  0  0  0  0
    8.2439    6.1741   16.9932 H   0  0  0  0  0  0  0  0  0  0  0  0
    8.2649    6.3352   15.2338 H   0  0  0  0  0  0  0  0  0  0  0  0
    6.7346    6.4309   16.1082 H   0  0  0  0  0  0  0  0  0  0  0  0
    9.3708    3.8492   16.8910 H   0  0  0  0  0  0  0  0  0  0  0  0
    8.7832    2.6743   15.7106 H   0  0  0  0  0  0  0  0  0  0  0  0
    9.5349    4.1769   15.1679 H   0  0  0  0  0  0  0  0  0  0  0  0
    8.3421    3.9979   13.0810 H   0  0  0  0  0  0  0  0  0  0  0  0
    1.9582    2.5690   11.1606 H   0  0  0  0  0  0  0  0  0  0  0  0
    5.8421    2.0277    9.7012 H   0  0  0  0  0  0  0  0  0  0  0  0
    6.7012    1.6028   11.1853 H   0  0  0  0  0  0  0  0  0  0  0  0
    4.9630    1.9098   11.2310 H   0  0  0  0  0  0  0  0  0  0  0  0
    7.3864    4.0377    9.2903 H   0  0  0  0  0  0  0  0  0  0  0  0
    7.6995    5.1711   10.6070 H   0  0  0  0  0  0  0  0  0  0  0  0
    8.3041    3.5129   10.6994 H   0  0  0  0  0  0  0  0  0  0  0  0
    2.3990   -0.2254   18.1545 H   0  0  0  0  0  0  0  0  0  0  0  0
    2.0177    1.4106   17.6041 H   0  0  0  0  0  0  0  0  0  0  0  0
    1.2601    0.0194   16.8251 H   0  0  0  0  0  0  0  0  0  0  0  0
    4.8589    0.2650   17.8184 H   0  0  0  0  0  0  0  0  0  0  0  0
    5.4467    0.7967   16.2344 H   0  0  0  0  0  0  0  0  0  0  0  0
    4.4683    1.8871   17.2403 H   0  0  0  0  0  0  0  0  0  0  0  0
    3.8819   -1.7283   16.6994 H   0  0  0  0  0  0  0  0  0  0  0  0
    2.6488   -1.5692   15.4519 H   0  0  0  0  0  0  0  0  0  0  0  0
    4.3314   -1.1894   15.0781 H   0  0  0  0  0  0  0  0  0  0  0  0
    1.5272   -0.0955   13.9739 H   0  0  0  0  0  0  0  0  0  0  0  0
    5.3506    4.2814   10.6192 H   0  0  0  0  0  0  0  0  0  0  0  0
   -0.4535    3.0872   11.3253 H   0  0  0  0  0  0  0  0  0  0  0  0
   -0.5221    2.3390   12.9252 H   0  0  0  0  0  0  0  0  0  0  0  0
    0.4153    3.8127   12.6860 H   0  0  0  0  0  0  0  0  0  0  0  0
    0.4294    0.8539   10.3353 H   0  0  0  0  0  0  0  0  0  0  0  0
    1.8100    0.0640   11.1031 H   0  0  0  0  0  0  0  0  0  0  0  0
    0.2598    0.1586   11.9449 H   0  0  0  0  0  0  0  0  0  0  0  0
    4.0562    7.7258   18.0249 H   0  0  0  0  0  0  0  0  0  0  0  0
    4.1737    6.2005   17.1424 H   0  0  0  0  0  0  0  0  0  0  0  0
    4.9174    7.6748   16.4810 H   0  0  0  0  0  0  0  0  0  0  0  0
    1.5505    7.7963   18.0730 H   0  0  0  0  0  0  0  0  0  0  0  0
    0.6308    7.4129   16.6132 H   0  0  0  0  0  0  0  0  0  0  0  0
    1.5975    6.1628   17.4016 H   0  0  0  0  0  0  0  0  0  0  0  0
    2.8873    9.6642   16.9423 H   0  0  0  0  0  0  0  0  0  0  0  0
    3.4917    9.4050   15.3033 H   0  0  0  0  0  0  0  0  0  0  0  0
    1.7530    9.4150   15.6203 H   0  0  0  0  0  0  0  0  0  0  0  0
    1.5458    8.1804   13.6524 H   0  0  0  0  0  0  0  0  0  0  0  0
    1.7869    5.1825   11.1384 H   0  0  0  0  0  0  0  0  0  0  0  0
    3.9181    6.3955   10.7417 H   0  0  0  0  0  0  0  0  0  0  0  0
    2.6950    6.8640    9.5531 H   0  0  0  0  0  0  0  0  0  0  0  0
    3.0782    7.9388   10.9023 H   0  0  0  0  0  0  0  0  0  0  0  0
    0.2057    6.7920   10.2184 H   0  0  0  0  0  0  0  0  0  0  0  0
   -0.2231    6.4772   11.9021 H   0  0  0  0  0  0  0  0  0  0  0  0
    0.6026    7.9747   11.4623 H   0  0  0  0  0  0  0  0  0  0  0  0
  1  2  1  1  0  0  0
  3  4  1  6  0  0  0
  3 13  1  0  0  0  0
  3  1  1  0  0  0  0
  5  6  1  6  0  0  0
  5 23  1  0  0  0  0
  5  1  1  0  0  0  0
  7  8  1  1  0  0  0
  7 33  1  0  0  0  0
  7  1  1  0  0  0  0
  9 43  1  0  0  0  0
  9 41  1  0  0  0  0
 10 46  1  0  0  0  0
 10 44  1  0  0  0  0
 11 12  1  0  0  0  0
 11 47  1  0  0  0  0
 12 10  1  0  0  0  0
 12  9  1  0  0  0  0
 13 12  1  6  0  0  0
 14 13  1  0  0  0  0
 15  4  1  0  0  0  0
 15 14  2  0  0  0  0
 16 27  1  0  0  0  0
 16 25  1  0  0  0  0
 17 26  1  0  0  0  0
 17 53  1  0  0  0  0
 17 54  1  0  0  0  0
 18 56  1  0  0  0  0
 18 57  1  0  0  0  0
 18 26  1  0  0  0  0
 19 59  1  0  0  0  0
 19 58  1  0  0  0  0
 20 63  1  0  0  0  0
 20 61  1  0  0  0  0
 21 22  1  0  0  0  0
 21 64  1  0  0  0  0
 22 20  1  0  0  0  0
 22 19  1  0  0  0  0
 23 22  1  6  0  0  0
 24 23  1  0  0  0  0
 25  6  1  0  0  0  0
 25 24  2  0  0  0  0
 26 15  1  0  0  0  0
 27 71  1  0  0  0  0
 27 70  1  0  0  0  0
 28 16  1  0  0  0  0
 28 74  1  0  0  0  0
 29 76  1  0  0  0  0
 29 75  1  0  0  0  0
 30 80  1  0  0  0  0
 30 78  1  0  0  0  0
 31 32  1  0  0  0  0
 31 81  1  0  0  0  0
 32 29  1  0  0  0  0
 32 30  1  0  0  0  0
 33 32  1  6  0  0  0
 34 33  1  0  0  0  0
 35  8  1  0  0  0  0
 35 34  2  0  0  0  0
 36 35  1  0  0  0  0
 37 86  1  0  0  0  0
 37 88  1  0  0  0  0
 37 36  1  0  0  0  0
 38 36  1  0  0  0  0
 38 91  1  0  0  0  0
 38 90  1  0  0  0  0
 39 40  1  6  0  0  0
 39  4  1  0  0  0  0
 39  8  1  0  0  0  0
 39  6  1  0  0  0  0
 42  9  1  0  0  0  0
 45 10  1  0  0  0  0
 48 11  1  0  0  0  0
 49 11  1  0  0  0  0
 50 14  1  0  0  0  0
 51 16  1  0  0  0  0
 52 17  1  0  0  0  0
 55 18  1  0  0  0  0
 60 19  1  0  0  0  0
 62 20  1  0  0  0  0
 65 21  1  0  0  0  0
 66 21  1  0  0  0  0
 67 24  1  0  0  0  0
 68 26  1  0  0  0  0
 69 27  1  0  0  0  0
 72 28  1  0  0  0  0
 73 28  1  0  0  0  0
 77 29  1  0  0  0  0
 79 30  1  0  0  0  0
 82 31  1  0  0  0  0
 83 31  1  0  0  0  0
 84 34  1  0  0  0  0
 85 36  1  0  0  0  0
 87 37  1  0  0  0  0
 89 38  1  0  0  0  0
M  END
$$$$
