CSD_code = CAYREB | q = 0 | S = 0 | Stoichiometry = C36H37ClNOPPd | MND = 4
 OpenBabel04212202023D

 78 83  0  0  1  0  0  0  0  0999 V2000
    3.5827    2.6110   13.4296 Pd  0  0  1  0  0  0  0  0  0  0  0  0
    3.1761    0.9532   12.3891 C   0  0  0  0  0  0  0  0  0  0  0  0
    4.0804    0.0296   11.8341 C   0  0  0  0  0  0  0  0  0  0  0  0
    5.1413    0.1212   12.0457 H   0  0  0  0  0  0  0  0  0  0  0  0
    3.6462   -0.9660   11.0023 C   0  0  0  0  0  0  0  0  0  0  0  0
    4.3495   -1.6647   10.5696 H   0  0  0  0  0  0  0  0  0  0  0  0
    2.2790   -1.1084   10.6930 C   0  0  0  0  0  0  0  0  0  0  0  0
    1.8171   -2.1580    9.8725 C   0  0  0  0  0  0  0  0  0  0  0  0
    2.5384   -2.8652    9.4874 H   0  0  0  0  0  0  0  0  0  0  0  0
    0.4909   -2.2847    9.5727 C   0  0  0  0  0  0  0  0  0  0  0  0
    0.1437   -3.0920    8.9446 H   0  0  0  0  0  0  0  0  0  0  0  0
   -0.4320   -1.3626   10.0876 C   0  0  0  0  0  0  0  0  0  0  0  0
   -1.4807   -1.4751    9.8525 H   0  0  0  0  0  0  0  0  0  0  0  0
   -0.0166   -0.3317   10.8827 C   0  0  0  0  0  0  0  0  0  0  0  0
   -0.7502    0.3551   11.2780 H   0  0  0  0  0  0  0  0  0  0  0  0
    1.3481   -0.1647   11.2094 C   0  0  0  0  0  0  0  0  0  0  0  0
    1.8428    0.8807   12.0278 C   0  0  0  0  0  0  0  0  0  0  0  0
    0.9774    2.0047   12.5577 C   0  0  1  0  0  0  0  0  0  0  0  0
    0.0610    2.1427   11.9631 H   0  0  0  0  0  0  0  0  0  0  0  0
    0.6058    1.6790   14.0112 C   0  0  0  0  0  0  0  0  0  0  0  0
    1.5091    1.7689   14.6415 H   0  0  0  0  0  0  0  0  0  0  0  0
    0.2504    0.6516   14.0649 H   0  0  0  0  0  0  0  0  0  0  0  0
   -0.1751    2.3324   14.3938 H   0  0  0  0  0  0  0  0  0  0  0  0
    1.0797    4.3744   13.0893 C   0  0  0  0  0  0  0  0  0  0  0  0
    0.0789    4.4887   12.6506 H   0  0  0  0  0  0  0  0  0  0  0  0
    1.6470    5.2891   12.9197 H   0  0  0  0  0  0  0  0  0  0  0  0
    0.9955    4.2413   14.1676 H   0  0  0  0  0  0  0  0  0  0  0  0
    2.0801    3.5898   11.0888 C   0  0  0  0  0  0  0  0  0  0  0  0
    1.1625    3.8688   10.5513 H   0  0  0  0  0  0  0  0  0  0  0  0
    2.5415    2.7446   10.5732 H   0  0  0  0  0  0  0  0  0  0  0  0
    2.7695    4.4377   11.0675 H   0  0  0  0  0  0  0  0  0  0  0  0
    5.2978   -0.0286   15.0524 C   0  0  0  0  0  0  0  0  0  0  0  0
    5.2536   -0.6867   14.1884 H   0  0  0  0  0  0  0  0  0  0  0  0
    4.4028   -0.1940   15.6521 H   0  0  0  0  0  0  0  0  0  0  0  0
    6.1818   -0.2518   15.6479 H   0  0  0  0  0  0  0  0  0  0  0  0
    5.7761    2.6464   16.0455 C   0  0  1  0  0  0  0  0  0  0  0  0
    6.0104    3.6638   15.7060 H   0  0  0  0  0  0  0  0  0  0  0  0
    4.4947    2.7227   16.8769 C   0  0  0  0  0  0  0  0  0  0  0  0
    3.7467    3.2474   16.2609 H   0  0  0  0  0  0  0  0  0  0  0  0
    4.0983    1.7336   17.1216 H   0  0  0  0  0  0  0  0  0  0  0  0
    4.6863    3.5099   18.1531 C   0  0  0  0  0  0  0  0  0  0  0  0
    3.5036    3.5892   19.0532 C   0  0  0  0  0  0  0  0  0  0  0  0
    2.2043    3.2952   18.6435 C   0  0  0  0  0  0  0  0  0  0  0  0
    2.0006    3.0081   17.6233 H   0  0  0  0  0  0  0  0  0  0  0  0
    1.1551    3.3952   19.5386 C   0  0  0  0  0  0  0  0  0  0  0  0
    0.1492    3.1730   19.2128 H   0  0  0  0  0  0  0  0  0  0  0  0
    1.3856    3.7807   20.8496 C   0  0  0  0  0  0  0  0  0  0  0  0
    0.5610    3.8539   21.5435 H   0  0  0  0  0  0  0  0  0  0  0  0
    2.6733    4.0775   21.2658 C   0  0  0  0  0  0  0  0  0  0  0  0
    2.8565    4.3825   22.2854 H   0  0  0  0  0  0  0  0  0  0  0  0
    3.7224    3.9867   20.3721 C   0  0  0  0  0  0  0  0  0  0  0  0
    4.7331    4.2183   20.6740 H   0  0  0  0  0  0  0  0  0  0  0  0
    6.9783    2.0771   16.7295 C   0  0  0  0  0  0  0  0  0  0  0  0
    6.8900    1.0843   17.6997 C   0  0  0  0  0  0  0  0  0  0  0  0
    5.9256    0.7159   18.0180 H   0  0  0  0  0  0  0  0  0  0  0  0
    8.0319    0.5716   18.2900 C   0  0  0  0  0  0  0  0  0  0  0  0
    7.9437   -0.1938   19.0478 H   0  0  0  0  0  0  0  0  0  0  0  0
    9.2809    1.0361   17.9169 C   0  0  0  0  0  0  0  0  0  0  0  0
   10.1701    0.6335   18.3790 H   0  0  0  0  0  0  0  0  0  0  0  0
    9.3804    2.0297   16.9575 C   0  0  0  0  0  0  0  0  0  0  0  0
   10.3498    2.4081   16.6682 H   0  0  0  0  0  0  0  0  0  0  0  0
    8.2394    2.5455   16.3722 C   0  0  0  0  0  0  0  0  0  0  0  0
    8.3213    3.3308   15.6345 H   0  0  0  0  0  0  0  0  0  0  0  0
    6.7792    1.8558   13.4192 C   0  0  0  0  0  0  0  0  0  0  0  0
    7.9720    1.1670   13.6095 C   0  0  0  0  0  0  0  0  0  0  0  0
    8.0816    0.4827   14.4377 H   0  0  0  0  0  0  0  0  0  0  0  0
    9.0242    1.3637   12.7324 C   0  0  0  0  0  0  0  0  0  0  0  0
    9.9521    0.8315   12.8821 H   0  0  0  0  0  0  0  0  0  0  0  0
    8.8924    2.2387   11.6662 C   0  0  0  0  0  0  0  0  0  0  0  0
    9.7191    2.3879   10.9874 H   0  0  0  0  0  0  0  0  0  0  0  0
    7.7007    2.9178   11.4650 C   0  0  0  0  0  0  0  0  0  0  0  0
    7.5980    3.5938   10.6291 H   0  0  0  0  0  0  0  0  0  0  0  0
    6.6455    2.7247   12.3368 C   0  0  0  0  0  0  0  0  0  0  0  0
    5.6923    3.2485   12.1897 H   0  0  0  0  0  0  0  0  0  0  0  0
    3.9821    4.7655   14.2691 Cl  0  0  0  0  0  0  0  0  0  0  0  0
    1.7856    3.2475   12.4818 N   0  0  0  0  0  4  0  0  0  0  0  0
    5.7382    4.0314   18.4439 O   0  0  0  0  0  0  0  0  0  0  0  0
    5.3239    1.7182   14.4931 P   0  0  2  0  0  4  0  0  0  0  0  0
  1 75  1  6  0  0  0
  1 78  1  0  0  0  0
  2  1  1  0  0  0  0
  3  4  1  0  0  0  0
  3  2  2  0  0  0  0
  5  3  1  0  0  0  0
  6  5  1  0  0  0  0
  7  5  2  0  0  0  0
  7 16  1  0  0  0  0
  8  7  1  0  0  0  0
  9  8  1  0  0  0  0
 10  8  2  0  0  0  0
 10 12  1  0  0  0  0
 11 10  1  0  0  0  0
 12 14  2  0  0  0  0
 13 12  1  0  0  0  0
 14 16  1  0  0  0  0
 14 15  1  0  0  0  0
 16 17  2  0  0  0  0
 17  2  1  0  0  0  0
 17 18  1  0  0  0  0
 18 19  1  6  0  0  0
 18 20  1  0  0  0  0
 20 22  1  0  0  0  0
 20 23  1  0  0  0  0
 20 21  1  0  0  0  0
 24 27  1  0  0  0  0
 25 24  1  0  0  0  0
 26 24  1  0  0  0  0
 28 76  1  0  0  0  0
 29 28  1  0  0  0  0
 30 28  1  0  0  0  0
 31 28  1  0  0  0  0
 32 35  1  0  0  0  0
 32 34  1  0  0  0  0
 33 32  1  0  0  0  0
 36 37  1  6  0  0  0
 36 53  1  0  0  0  0
 36 38  1  0  0  0  0
 38 40  1  0  0  0  0
 38 41  1  0  0  0  0
 39 38  1  0  0  0  0
 41 77  2  0  0  0  0
 41 42  1  0  0  0  0
 42 51  1  0  0  0  0
 43 42  2  0  0  0  0
 43 45  1  0  0  0  0
 44 43  1  0  0  0  0
 45 47  2  0  0  0  0
 46 45  1  0  0  0  0
 47 49  1  0  0  0  0
 47 48  1  0  0  0  0
 49 50  1  0  0  0  0
 51 52  1  0  0  0  0
 51 49  2  0  0  0  0
 53 54  1  0  0  0  0
 54 55  1  0  0  0  0
 54 56  2  0  0  0  0
 56 57  1  0  0  0  0
 58 56  1  0  0  0  0
 58 59  1  0  0  0  0
 60 58  2  0  0  0  0
 61 60  1  0  0  0  0
 62 53  2  0  0  0  0
 62 60  1  0  0  0  0
 63 62  1  0  0  0  0
 64 65  1  0  0  0  0
 64 78  1  0  0  0  0
 65 66  1  0  0  0  0
 67 68  1  0  0  0  0
 67 65  2  0  0  0  0
 69 67  1  0  0  0  0
 70 69  1  0  0  0  0
 71 69  2  0  0  0  0
 71 73  1  0  0  0  0
 72 71  1  0  0  0  0
 73 64  2  0  0  0  0
 74 73  1  0  0  0  0
 76 18  1  0  0  0  0
 76 24  1  0  0  0  0
 76  1  1  0  0  0  0
 78 32  1  1  0  0  0
 78 36  1  0  0  0  0
M  END
$$$$
