CSD_code = CAZVEG | q = 0 | S = 0 | Stoichiometry = C21H23ClN4Pt | MND = 4
 OpenBabel04212202023D

 50 54  0  0  0  0  0  0  0  0999 V2000
    5.2836    4.7361    3.6119 Pt  0  0  1  0  0  0  0  0  0  0  0  0
    6.3109    6.7015    3.5698 Cl  0  0  0  0  0  0  0  0  0  0  0  0
    4.5878    2.9467    3.4665 N   0  0  0  0  0  0  0  0  0  0  0  0
    3.4268    2.7706    2.9160 N   0  0  0  0  0  0  0  0  0  0  0  0
    7.0509    3.5713    3.9985 N   0  0  0  0  0  0  0  0  0  0  0  0
    0.9427    0.5251    1.8408 N   0  0  0  0  0  0  0  0  0  0  0  0
    3.0171    1.5849    2.4971 C   0  0  0  0  0  0  0  0  0  0  0  0
    3.8355    0.4414    2.5974 C   0  0  0  0  0  0  0  0  0  0  0  0
    3.3946   -0.8761    2.0493 C   0  0  0  0  0  0  0  0  0  0  0  0
    4.2522   -1.4470    1.6954 H   0  0  0  0  0  0  0  0  0  0  0  0
    2.7271   -0.7050    1.2049 H   0  0  0  0  0  0  0  0  0  0  0  0
    2.6232   -1.7009    3.0886 C   0  0  0  0  0  0  0  0  0  0  0  0
    1.6605   -1.2169    3.2544 H   0  0  0  0  0  0  0  0  0  0  0  0
    2.4366   -2.6903    2.6662 H   0  0  0  0  0  0  0  0  0  0  0  0
    3.3422   -1.8491    4.4260 C   0  0  0  0  0  0  0  0  0  0  0  0
    3.4177   -0.8724    4.9087 H   0  0  0  0  0  0  0  0  0  0  0  0
    2.7155   -2.4722    5.0674 H   0  0  0  0  0  0  0  0  0  0  0  0
    4.7382   -2.4769    4.3174 C   0  0  0  0  0  0  0  0  0  0  0  0
    4.8326   -3.0171    3.3740 H   0  0  0  0  0  0  0  0  0  0  0  0
    4.8604   -3.2113    5.1168 H   0  0  0  0  0  0  0  0  0  0  0  0
    5.8825   -1.4735    4.4588 C   0  0  0  0  0  0  0  0  0  0  0  0
    5.7146   -0.9018    5.3746 H   0  0  0  0  0  0  0  0  0  0  0  0
    6.8130   -2.0342    4.5814 H   0  0  0  0  0  0  0  0  0  0  0  0
    6.0790   -0.5137    3.2727 C   0  0  0  0  0  0  0  0  0  0  0  0
    7.0832   -0.0896    3.3279 H   0  0  0  0  0  0  0  0  0  0  0  0
    6.0326   -1.0929    2.3494 H   0  0  0  0  0  0  0  0  0  0  0  0
    5.0880    0.6143    3.2062 C   0  0  0  0  0  0  0  0  0  0  0  0
    5.4310    1.8948    3.6690 C   0  0  0  0  0  0  0  0  0  0  0  0
    6.7028    2.3000    4.2827 C   0  0  0  0  0  0  0  0  0  0  0  0
    8.1824    4.0719    4.4735 C   0  0  0  0  0  0  0  0  0  0  0  0
    8.3951    5.0954    4.1929 H   0  0  0  0  0  0  0  0  0  0  0  0
    9.0385    3.3440    5.2810 C   0  0  0  0  0  0  0  0  0  0  0  0
    9.9557    3.7824    5.6392 H   0  0  0  0  0  0  0  0  0  0  0  0
    8.6675    2.0560    5.6372 C   0  0  0  0  0  0  0  0  0  0  0  0
    9.2819    1.4682    6.3025 H   0  0  0  0  0  0  0  0  0  0  0  0
    7.4877    1.5294    5.1392 C   0  0  0  0  0  0  0  0  0  0  0  0
    7.1709    0.5501    5.4502 H   0  0  0  0  0  0  0  0  0  0  0  0
    1.6777    1.6321    1.8815 C   0  0  0  0  0  0  0  0  0  0  0  0
   -0.2625    0.5814    1.3062 C   0  0  0  0  0  0  0  0  0  0  0  0
   -0.8095   -0.3529    1.3053 H   0  0  0  0  0  0  0  0  0  0  0  0
   -0.8130    1.7393    0.7794 C   0  0  0  0  0  0  0  0  0  0  0  0
   -1.8047    1.7339    0.3548 H   0  0  0  0  0  0  0  0  0  0  0  0
   -0.0511    2.8983    0.8191 C   0  0  0  0  0  0  0  0  0  0  0  0
   -0.4387    3.8249    0.4217 H   0  0  0  0  0  0  0  0  0  0  0  0
    1.2129    2.8502    1.3766 C   0  0  0  0  0  0  0  0  0  0  0  0
    1.8439    3.7213    1.4346 H   0  0  0  0  0  0  0  0  0  0  0  0
    3.4904    5.7025    3.5246 C   0  0  0  0  0  0  0  0  0  0  0  0
    3.3323    6.0587    2.5017 H   0  0  0  0  0  0  0  0  0  0  0  0
    3.4714    6.5737    4.1836 H   0  0  0  0  0  0  0  0  0  0  0  0
    2.6692    5.0360    3.7934 H   0  0  0  0  0  0  0  0  0  0  0  0
  1  2  1  6  0  0  0
  1  5  1  0  0  0  0
  3  1  1  0  0  0  0
  3 28  1  0  0  0  0
  4  3  1  0  0  0  0
  5 29  1  0  0  0  0
  5 30  1  0  0  0  0
  6 38  1  0  0  0  0
  7  8  1  0  0  0  0
  7  4  2  0  0  0  0
  8 27  2  0  0  0  0
  9  8  1  0  0  0  0
  9 12  1  0  0  0  0
 10  9  1  0  0  0  0
 11  9  1  0  0  0  0
 12 13  1  0  0  0  0
 12 15  1  0  0  0  0
 14 12  1  0  0  0  0
 15 16  1  0  0  0  0
 15 17  1  0  0  0  0
 18 15  1  0  0  0  0
 18 21  1  0  0  0  0
 18 20  1  0  0  0  0
 19 18  1  0  0  0  0
 21 23  1  0  0  0  0
 21 22  1  0  0  0  0
 24 25  1  0  0  0  0
 24 21  1  0  0  0  0
 26 24  1  0  0  0  0
 27 24  1  0  0  0  0
 27 28  1  0  0  0  0
 28 29  2  0  0  0  0
 29 36  1  0  0  0  0
 30 32  2  0  0  0  0
 31 30  1  0  0  0  0
 32 34  1  0  0  0  0
 32 33  1  0  0  0  0
 34 35  1  0  0  0  0
 36 37  1  0  0  0  0
 36 34  2  0  0  0  0
 38  7  1  0  0  0  0
 39  6  2  0  0  0  0
 40 39  1  0  0  0  0
 41 43  2  0  0  0  0
 41 39  1  0  0  0  0
 42 41  1  0  0  0  0
 43 45  1  0  0  0  0
 44 43  1  0  0  0  0
 45 46  1  0  0  0  0
 45 38  2  0  0  0  0
 47  1  1  0  0  0  0
 47 50  1  0  0  0  0
 47 49  1  0  0  0  0
 48 47  1  0  0  0  0
M  END
$$$$
