CSD_code = CBTYCO | q = 0 | S = 0 | Stoichiometry = C15H14Cl2CoN3OS | MND = 4
 OpenBabel04212202023D

 37 40  0  0  1  0  0  0  0  0999 V2000
   -0.3868    1.2717    0.4800 Cl  0  0  0  0  0  0  0  0  0  0  0  0
    0.0102    4.2161    1.3922 Cl  0  0  0  0  0  0  0  0  0  0  0  0
   -0.7681    2.4817    2.1562 Co  0  0  0  0  0  0  0  0  0  0  0  0
   -3.7356   -1.9841   -0.0790 C   0  0  0  0  0  0  0  0  0  0  0  0
   -1.0372    2.3634    4.8388 C   0  0  2  0  0  3  0  0  0  0  0  0
   -0.8875    2.7094    6.1667 C   0  0  0  0  0  0  0  0  0  0  0  0
    0.3643    3.1897    6.5494 C   0  0  0  0  0  0  0  0  0  0  0  0
    1.3746    3.2093    5.6251 C   0  0  0  0  0  3  0  0  0  0  0  0
    1.1928    2.8218    4.3169 C   0  0  0  0  0  0  0  0  0  0  0  0
    2.2884    2.7842    3.3149 C   0  0  0  0  0  0  0  0  0  0  0  0
   -4.7476   -2.9212   -0.1798 C   0  0  0  0  0  0  0  0  0  0  0  0
   -5.6749   -3.0900    0.8419 C   0  0  0  0  0  0  0  0  0  0  0  0
   -5.6121   -2.3243    1.9937 C   0  0  0  0  0  0  0  0  0  0  0  0
   -4.6021   -1.3865    2.0961 C   0  0  0  0  0  0  0  0  0  0  0  0
   -3.6658   -1.2112    1.0708 C   0  0  0  0  0  0  0  0  0  0  0  0
   -2.8850    0.3671    2.5420 C   0  0  2  0  0  3  0  0  0  0  0  0
   -2.3466    1.8111    4.3168 C   0  0  2  0  0  0  0  0  0  0  0  0
   -3.1453    3.9640    3.6853 C   0  0  0  0  0  0  0  0  0  0  0  0
   -3.0104   -1.8452   -0.8644 H   0  0  0  0  0  0  0  0  0  0  0  0
   -1.7151    2.6116    6.8537 H   0  0  0  0  0  0  0  0  0  0  0  0
    0.5336    3.5151    7.5653 H   0  0  0  0  0  0  0  0  0  0  0  0
    2.4091    3.7693    2.8652 H   0  0  0  0  0  0  0  0  0  0  0  0
    3.2237    2.5129    3.7973 H   0  0  0  0  0  0  0  0  0  0  0  0
    2.0518    2.0768    2.5205 H   0  0  0  0  0  0  0  0  0  0  0  0
   -4.8181   -3.5310   -1.0670 H   0  0  0  0  0  0  0  0  0  0  0  0
   -6.4560   -3.8267    0.7385 H   0  0  0  0  0  0  0  0  0  0  0  0
   -6.3276   -2.4486    2.7903 H   0  0  0  0  0  0  0  0  0  0  0  0
   -1.9547    0.0619    0.7544 H   0  0  0  0  0  0  0  0  0  0  0  0
   -2.6954    1.0012    4.9816 H   0  0  0  0  0  0  0  0  0  0  0  0
   -2.4290    4.5789    4.2411 H   0  0  0  0  0  0  0  0  0  0  0  0
   -2.7653    3.7996    2.6621 H   0  0  0  0  0  0  0  0  0  0  0  0
   -4.1018    4.4782    3.6276 H   0  0  0  0  0  0  0  0  0  0  0  0
   -2.7431   -0.2369    1.3574 N   0  0  0  0  0  0  0  0  0  0  0  0
   -2.0948    1.2938    2.9876 N   0  0  2  0  0  0  0  0  0  0  0  0
   -0.0469    2.4604    3.9466 N   0  0  0  0  0  0  0  0  0  0  0  0
   -3.3993    2.7427    4.3493 O   0  0  0  0  0  0  0  0  0  0  0  0
   -4.2793   -0.2772    3.4191 S   0  0  0  0  0  0  0  0  0  0  0  0
  1  3  1  0  0  0  0
  2  3  1  0  0  0  0
  3 35  1  0  0  0  0
  4 15  1  0  0  0  0
  5  6  1  1  0  0  0
  6  7  2  0  0  0  0
  6 20  1  0  0  0  0
  7 21  1  0  0  0  0
  8  7  1  0  0  0  0
  9  8  2  0  0  0  0
 10 23  1  0  0  0  0
 10  9  1  0  0  0  0
 11  4  2  0  0  0  0
 11 12  1  0  0  0  0
 12 13  2  0  0  0  0
 13 14  1  0  0  0  0
 13 27  1  0  0  0  0
 14 37  1  0  0  0  0
 15 33  1  0  0  0  0
 15 14  2  0  0  0  0
 16 34  1  0  0  0  0
 16 37  1  1  0  0  0
 17 36  1  0  0  0  0
 17  5  1  0  0  0  0
 17 29  1  1  0  0  0
 18 30  1  0  0  0  0
 18 36  1  0  0  0  0
 19  4  1  0  0  0  0
 22 10  1  0  0  0  0
 24 10  1  0  0  0  0
 25 11  1  0  0  0  0
 26 12  1  0  0  0  0
 28 33  1  0  0  0  0
 31 18  1  0  0  0  0
 32 18  1  0  0  0  0
 33 16  1  0  0  0  0
 34  3  1  6  0  0  0
 34 17  1  0  0  0  0
 35  9  1  0  0  0  0
 35  5  1  0  0  0  0
M  END
$$$$
