CSD_code = CCLMIP | q = 0 | S = 0 | Stoichiometry = C8H12Cl2N4Pt | MND = 4
 OpenBabel04212202023D

 27 28  0  0  0  0  0  0  0  0999 V2000
    1.5734    8.0407    1.6147 Pt  0  0  0  0  0  0  0  0  0  0  0  0
    3.0506    9.6144    2.2325 Cl  0  0  0  0  0  0  0  0  0  0  0  0
    2.9366    6.6409    2.1928 N   0  0  0  0  0  0  0  0  0  0  0  0
    4.2402    6.7976    2.0914 C   0  0  0  0  0  3  0  0  0  0  0  0
    4.8923    5.7880    2.6911 N   0  0  0  0  0  0  0  0  0  0  0  0
    3.9481    4.9456    3.1986 C   0  0  0  0  0  0  0  0  0  0  0  0
    2.7361    5.4848    2.8821 C   0  0  0  0  0  0  0  0  0  0  0  0
    6.3147    5.6336    2.8025 C   0  0  0  0  0  0  0  0  0  0  0  0
    4.7174    7.6340    1.6195 H   0  0  0  0  0  0  0  0  0  0  0  0
    6.6160    5.6464    3.8515 H   0  0  0  0  0  0  0  0  0  0  0  0
    6.6316    4.6884    2.3581 H   0  0  0  0  0  0  0  0  0  0  0  0
    6.8050    6.4552    2.2848 H   0  0  0  0  0  0  0  0  0  0  0  0
    4.2047    4.0553    3.7345 H   0  0  0  0  0  0  0  0  0  0  0  0
    1.7542    5.1201    3.1098 H   0  0  0  0  0  0  0  0  0  0  0  0
    0.0948    9.6133    0.9977 Cl  0  0  0  0  0  0  0  0  0  0  0  0
    0.2101    6.6405    1.0373 N   0  0  0  0  0  0  0  0  0  0  0  0
   -1.0935    6.7973    1.1389 C   0  0  0  0  0  3  0  0  0  0  0  0
    0.4104    5.4845    0.3478 C   0  0  0  0  0  0  0  0  0  0  0  0
   -1.7457    5.7879    0.5390 N   0  0  0  0  0  0  0  0  0  0  0  0
   -1.5705    7.6335    1.6111 H   0  0  0  0  0  0  0  0  0  0  0  0
   -0.8017    4.9456    0.0311 C   0  0  0  0  0  0  0  0  0  0  0  0
    1.3923    5.1197    0.1198 H   0  0  0  0  0  0  0  0  0  0  0  0
   -3.1681    5.6339    0.4275 C   0  0  0  0  0  0  0  0  0  0  0  0
   -1.0583    4.0554   -0.5050 H   0  0  0  0  0  0  0  0  0  0  0  0
   -3.4694    5.6460   -0.6215 H   0  0  0  0  0  0  0  0  0  0  0  0
   -3.4856    4.6892    0.8727 H   0  0  0  0  0  0  0  0  0  0  0  0
   -3.6582    6.4561    0.9445 H   0  0  0  0  0  0  0  0  0  0  0  0
  1  3  1  0  0  0  0
  1  2  1  0  0  0  0
  3  7  1  0  0  0  0
  4  3  1  0  0  0  0
  4  5  1  0  0  0  0
  5  8  1  0  0  0  0
  5  6  1  0  0  0  0
  6 13  1  0  0  0  0
  7 14  1  0  0  0  0
  7  6  2  0  0  0  0
  8 10  1  0  0  0  0
  9  4  1  0  0  0  0
 11  8  1  0  0  0  0
 12  8  1  0  0  0  0
 15  1  1  0  0  0  0
 16 17  1  0  0  0  0
 16  1  1  0  0  0  0
 17 20  1  0  0  0  0
 18 16  1  0  0  0  0
 19 17  1  0  0  0  0
 21 18  2  0  0  0  0
 21 19  1  0  0  0  0
 22 18  1  0  0  0  0
 23 19  1  0  0  0  0
 23 26  1  0  0  0  0
 23 27  1  0  0  0  0
 24 21  1  0  0  0  0
 25 23  1  0  0  0  0
M  END
$$$$
