CSD_code = CEBHEW | q = 0 | S = 0 | Stoichiometry = C28H27Cl2OPRu | MND = 5
 OpenBabel04212202023D

 60 63  0  0  0  0  0  0  0  0999 V2000
    2.0952    9.5128    9.9905 Ru  0  0  0  0  0  0  0  0  0  0  0  0
    2.0258   11.0501   11.6767 Cl  0  0  0  0  0  0  0  0  0  0  0  0
    2.5204    7.8181   11.4195 P   0  0  0  0  0  4  0  0  0  0  0  0
    3.2951    8.4845    8.3232 Cl  0  0  0  0  0  0  0  0  0  0  0  0
    1.5301   11.1564    8.5521 O   0  0  0  0  0  0  0  0  0  0  0  0
    0.9342    4.5665    9.5723 C   0  0  0  0  0  0  0  0  0  0  0  0
    0.2292   11.0424    8.1901 C   0  0  0  0  0  0  0  0  0  0  0  0
    2.1697    8.1239   13.1748 C   0  0  0  0  0  0  0  0  0  0  0  0
    0.2816    9.0815    9.6526 C   0  0  0  0  0  3  0  0  0  0  0  0
   -0.4431    9.9395    8.7883 C   0  0  0  0  0  0  0  0  0  0  0  0
   -1.8027    9.7507    8.4901 C   0  0  0  0  0  0  0  0  0  0  0  0
    1.5454    5.2974   12.1798 C   0  0  0  0  0  0  0  0  0  0  0  0
    1.4654    5.8175    9.8287 C   0  0  0  0  0  0  0  0  0  0  0  0
    4.3116    7.5225   11.3755 C   0  0  0  0  0  0  0  0  0  0  0  0
    2.4148   12.0686    7.9023 C   0  0  0  0  0  0  0  0  0  0  0  0
    1.7753    6.1867   11.1341 C   0  0  0  0  0  0  0  0  0  0  0  0
    0.8846    8.5613   13.4846 C   0  0  0  0  0  0  0  0  0  0  0  0
    1.0125    4.0483   11.9157 C   0  0  0  0  0  0  0  0  0  0  0  0
    5.0983    8.6706   11.2857 C   0  0  0  0  0  0  0  0  0  0  0  0
    3.6639   12.1255    8.7740 C   0  0  0  0  0  0  0  0  0  0  0  0
    3.1096    7.9557   14.1838 C   0  0  0  0  0  0  0  0  0  0  0  0
    6.2871    6.1697   11.2978 C   0  0  0  0  0  0  0  0  0  0  0  0
   -2.4677   10.6103    7.6442 C   0  0  0  0  0  0  0  0  0  0  0  0
    6.4730    8.5647   11.2078 C   0  0  0  0  0  0  0  0  0  0  0  0
   -1.7956   11.6826    7.0753 C   0  0  0  0  0  0  0  0  0  0  0  0
    0.5409    8.8213   14.7965 C   0  0  0  0  0  0  0  0  0  0  0  0
   -0.4526   11.9011    7.3423 C   0  0  0  0  0  0  0  0  0  0  0  0
    1.4787    8.6494   15.8038 C   0  0  0  0  0  0  0  0  0  0  0  0
    2.7583    8.2190   15.4970 C   0  0  0  0  0  0  0  0  0  0  0  0
    2.7388   11.5755    6.4938 C   0  0  0  0  0  0  0  0  0  0  0  0
    4.9082    6.2685   11.3772 C   0  0  0  0  0  0  0  0  0  0  0  0
    7.0668    7.3113   11.2135 C   0  0  0  0  0  0  0  0  0  0  0  0
    0.7075    3.6817   10.6146 C   0  0  0  0  0  0  0  0  0  0  0  0
    0.6949    4.2811    8.5587 H   0  0  0  0  0  0  0  0  0  0  0  0
   -0.2739    8.2346   10.0694 H   0  0  0  0  0  0  0  0  0  0  0  0
   -2.3179    8.9144    8.9397 H   0  0  0  0  0  0  0  0  0  0  0  0
    1.7815    5.5860   13.1948 H   0  0  0  0  0  0  0  0  0  0  0  0
    1.6434    6.5200    9.0246 H   0  0  0  0  0  0  0  0  0  0  0  0
    1.9424   13.0616    7.8749 H   0  0  0  0  0  0  0  0  0  0  0  0
    0.1759    8.7127   12.6793 H   0  0  0  0  0  0  0  0  0  0  0  0
    0.8347    3.3586   12.7279 H   0  0  0  0  0  0  0  0  0  0  0  0
    4.6134    9.6479   11.2837 H   0  0  0  0  0  0  0  0  0  0  0  0
    3.4082   12.4756    9.7745 H   0  0  0  0  0  0  0  0  0  0  0  0
    4.3998   12.7978    8.3415 H   0  0  0  0  0  0  0  0  0  0  0  0
    4.1063   11.1261    8.8400 H   0  0  0  0  0  0  0  0  0  0  0  0
    4.1108    7.6254   13.9423 H   0  0  0  0  0  0  0  0  0  0  0  0
    6.7548    5.1959   11.2948 H   0  0  0  0  0  0  0  0  0  0  0  0
   -3.5124   10.4520    7.4237 H   0  0  0  0  0  0  0  0  0  0  0  0
    7.0833    9.4532   11.1355 H   0  0  0  0  0  0  0  0  0  0  0  0
   -2.3174   12.3588    6.4152 H   0  0  0  0  0  0  0  0  0  0  0  0
   -0.4533    9.1677   15.0368 H   0  0  0  0  0  0  0  0  0  0  0  0
    0.0409   12.7460    6.8879 H   0  0  0  0  0  0  0  0  0  0  0  0
    1.2129    8.8597   16.8293 H   0  0  0  0  0  0  0  0  0  0  0  0
    3.4894    8.0921   16.2824 H   0  0  0  0  0  0  0  0  0  0  0  0
    1.8418   11.5203    5.8808 H   0  0  0  0  0  0  0  0  0  0  0  0
    3.1746   10.5792    6.5533 H   0  0  0  0  0  0  0  0  0  0  0  0
    3.4490   12.2468    6.0187 H   0  0  0  0  0  0  0  0  0  0  0  0
    4.2953    5.3797   11.4315 H   0  0  0  0  0  0  0  0  0  0  0  0
    8.1413    7.2255   11.1449 H   0  0  0  0  0  0  0  0  0  0  0  0
    0.2906    2.7057   10.4142 H   0  0  0  0  0  0  0  0  0  0  0  0
  1  3  1  0  0  0  0
  1  2  1  0  0  0  0
  3  8  1  0  0  0  0
  4  1  1  0  0  0  0
  6 13  2  0  0  0  0
  6 33  1  0  0  0  0
  7  5  1  0  0  0  0
  7 10  1  0  0  0  0
  8 17  2  0  0  0  0
  8 21  1  0  0  0  0
  9  1  1  0  0  0  0
  9 35  1  0  0  0  0
 10  9  1  0  0  0  0
 11 10  2  0  0  0  0
 11 36  1  0  0  0  0
 12 37  1  0  0  0  0
 13 16  1  0  0  0  0
 14 31  1  0  0  0  0
 14  3  1  0  0  0  0
 15  5  1  0  0  0  0
 15 20  1  0  0  0  0
 16  3  1  0  0  0  0
 16 12  2  0  0  0  0
 17 26  1  0  0  0  0
 18 12  1  0  0  0  0
 18 41  1  0  0  0  0
 19 14  2  0  0  0  0
 20 45  1  0  0  0  0
 20 43  1  0  0  0  0
 21 29  2  0  0  0  0
 22 31  2  0  0  0  0
 23 11  1  0  0  0  0
 24 32  2  0  0  0  0
 24 19  1  0  0  0  0
 25 27  1  0  0  0  0
 25 23  2  0  0  0  0
 26 51  1  0  0  0  0
 26 28  2  0  0  0  0
 27  7  2  0  0  0  0
 28 53  1  0  0  0  0
 29 28  1  0  0  0  0
 29 54  1  0  0  0  0
 30 56  1  0  0  0  0
 30 15  1  0  0  0  0
 31 58  1  0  0  0  0
 32 22  1  0  0  0  0
 33 18  2  0  0  0  0
 34  6  1  0  0  0  0
 38 13  1  0  0  0  0
 39 15  1  0  0  0  0
 40 17  1  0  0  0  0
 42 19  1  0  0  0  0
 44 20  1  0  0  0  0
 46 21  1  0  0  0  0
 47 22  1  0  0  0  0
 48 23  1  0  0  0  0
 49 24  1  0  0  0  0
 50 25  1  0  0  0  0
 52 27  1  0  0  0  0
 55 30  1  0  0  0  0
 57 30  1  0  0  0  0
 59 32  1  0  0  0  0
 60 33  1  0  0  0  0
M  END
$$$$
