CSD_code = CEBNON | q = 0 | S = 0 | Stoichiometry = C26H30Cl2N2Pd | MND = 4
 OpenBabel04212202023D

 61 64  0  0  0  0  0  0  0  0999 V2000
    9.9644    5.2282   10.6090 N   0  0  0  0  0  0  0  0  0  0  0  0
   10.9581    4.5456   11.0728 C   0  0  0  0  0  0  0  0  0  0  0  0
   11.9462    4.5908   10.6181 H   0  0  0  0  0  0  0  0  0  0  0  0
   10.7279    3.7259   12.2257 C   0  0  0  0  0  0  0  0  0  0  0  0
    9.4353    3.6637   12.6248 N   0  0  0  0  0  0  0  0  0  0  0  0
    9.1348    3.0453   13.7685 C   0  0  0  0  0  0  0  0  0  0  0  0
   10.1184    2.3938   14.5139 C   0  0  0  0  0  0  0  0  0  0  0  0
    9.8409    1.9106   15.4366 H   0  0  0  0  0  0  0  0  0  0  0  0
   11.4330    2.3850   14.0730 C   0  0  0  0  0  0  0  0  0  0  0  0
   12.1969    1.8689   14.6343 H   0  0  0  0  0  0  0  0  0  0  0  0
   11.7500    3.0758   12.9206 C   0  0  0  0  0  0  0  0  0  0  0  0
   12.7632    3.1343   12.5559 H   0  0  0  0  0  0  0  0  0  0  0  0
    7.7536    3.0960   14.2943 C   0  0  0  0  0  0  0  0  0  0  0  0
    7.0364    1.9082   14.4671 C   0  0  0  0  0  0  0  0  0  0  0  0
    5.7715    1.9637   15.0321 C   0  0  0  0  0  0  0  0  0  0  0  0
    5.2063    1.0510   15.1510 H   0  0  0  0  0  0  0  0  0  0  0  0
    5.2250    3.1699   15.4265 C   0  0  0  0  0  0  0  0  0  0  0  0
    4.2379    3.1996   15.8627 H   0  0  0  0  0  0  0  0  0  0  0  0
    5.9341    4.3411   15.2407 C   0  0  0  0  0  0  0  0  0  0  0  0
    5.4972    5.2863   15.5270 H   0  0  0  0  0  0  0  0  0  0  0  0
    7.1977    4.3257   14.6689 C   0  0  0  0  0  0  0  0  0  0  0  0
    7.9124    5.6264   14.4335 C   0  0  0  0  0  0  0  0  0  0  0  0
    7.5320    6.3931   15.1049 H   0  0  0  0  0  0  0  0  0  0  0  0
    7.7134    5.9644   13.3964 H   0  0  0  0  0  0  0  0  0  0  0  0
    8.9897    5.5364   14.5793 H   0  0  0  0  0  0  0  0  0  0  0  0
    7.5869    0.5898   14.0078 C   0  0  0  0  0  0  0  0  0  0  0  0
    8.2041    0.7111   13.1205 H   0  0  0  0  0  0  0  0  0  0  0  0
    6.7714   -0.0881   13.7690 H   0  0  0  0  0  0  0  0  0  0  0  0
    8.1914    0.1249   14.7878 H   0  0  0  0  0  0  0  0  0  0  0  0
   10.1251    6.0331    9.4657 C   0  0  0  0  0  0  0  0  0  0  0  0
   10.5912    7.3461    9.6160 C   0  0  0  0  0  0  0  0  0  0  0  0
   10.7179    8.1254    8.4771 C   0  0  0  0  0  0  0  0  0  0  0  0
   11.0603    9.1439    8.5577 H   0  0  0  0  0  0  0  0  0  0  0  0
   10.4094    7.6133    7.2301 C   0  0  0  0  0  0  0  0  0  0  0  0
   10.5224    8.2333    6.3534 H   0  0  0  0  0  0  0  0  0  0  0  0
    9.9453    6.3189    7.1021 C   0  0  0  0  0  0  0  0  0  0  0  0
    9.7008    5.9383    6.1235 H   0  0  0  0  0  0  0  0  0  0  0  0
    9.7805    5.5068    8.2148 C   0  0  0  0  0  0  0  0  0  0  0  0
    9.2601    4.0902    8.0732 C   0  0  0  0  0  0  0  0  0  0  0  0
    8.9177    3.7156    9.0638 H   0  0  0  0  0  0  0  0  0  0  0  0
   10.3824    3.1739    7.5764 C   0  0  0  0  0  0  0  0  0  0  0  0
   10.0196    2.1531    7.4784 H   0  0  0  0  0  0  0  0  0  0  0  0
   11.2236    3.1761    8.2684 H   0  0  0  0  0  0  0  0  0  0  0  0
   10.7395    3.5086    6.6046 H   0  0  0  0  0  0  0  0  0  0  0  0
    8.0445    4.0220    7.1478 C   0  0  0  0  0  0  0  0  0  0  0  0
    7.2911    4.7296    7.4851 H   0  0  0  0  0  0  0  0  0  0  0  0
    7.6170    3.0221    7.1788 H   0  0  0  0  0  0  0  0  0  0  0  0
    8.3086    4.2472    6.1179 H   0  0  0  0  0  0  0  0  0  0  0  0
   10.8743    7.8785   11.0047 C   0  0  0  0  0  0  0  0  0  0  0  0
   11.3571    7.0829   11.5876 H   0  0  0  0  0  0  0  0  0  0  0  0
   11.8084    9.0871   11.0181 C   0  0  0  0  0  0  0  0  0  0  0  0
   12.0897    9.3179   12.0435 H   0  0  0  0  0  0  0  0  0  0  0  0
   11.3188    9.9635   10.6018 H   0  0  0  0  0  0  0  0  0  0  0  0
   12.7144    8.8848   10.4508 H   0  0  0  0  0  0  0  0  0  0  0  0
    9.5455    8.2292   11.6842 C   0  0  0  0  0  0  0  0  0  0  0  0
    9.7182    8.5677   12.7038 H   0  0  0  0  0  0  0  0  0  0  0  0
    8.8801    7.3591   11.7077 H   0  0  0  0  0  0  0  0  0  0  0  0
    9.0416    9.0177   11.1309 H   0  0  0  0  0  0  0  0  0  0  0  0
    7.0477    6.0776    9.9680 Cl  0  0  0  0  0  0  0  0  0  0  0  0
    6.3085    3.6152   11.6627 Cl  0  0  0  0  0  0  0  0  0  0  0  0
    8.2153    4.6872   11.2817 Pd  0  0  0  0  0  0  0  0  0  0  0  0
  1  2  1  0  0  0  0
  1 61  1  0  0  0  0
  2  4  2  0  0  0  0
  3  2  1  0  0  0  0
  4  5  1  0  0  0  0
  4 11  1  0  0  0  0
  5  6  1  0  0  0  0
  6 13  1  0  0  0  0
  6  7  2  0  0  0  0
  7  8  1  0  0  0  0
  9  7  1  0  0  0  0
  9 10  1  0  0  0  0
 11  9  2  0  0  0  0
 12 11  1  0  0  0  0
 13 14  2  0  0  0  0
 13 21  1  0  0  0  0
 14 15  1  0  0  0  0
 15 16  1  0  0  0  0
 15 17  2  0  0  0  0
 17 18  1  0  0  0  0
 19 17  1  0  0  0  0
 19 20  1  0  0  0  0
 21 19  2  0  0  0  0
 22 25  1  0  0  0  0
 22 21  1  0  0  0  0
 22 23  1  0  0  0  0
 24 22  1  0  0  0  0
 26 14  1  0  0  0  0
 26 29  1  0  0  0  0
 27 26  1  0  0  0  0
 28 26  1  0  0  0  0
 30 31  1  0  0  0  0
 30  1  1  0  0  0  0
 31 49  1  0  0  0  0
 32 33  1  0  0  0  0
 32 31  2  0  0  0  0
 34 32  1  0  0  0  0
 35 34  1  0  0  0  0
 36 34  2  0  0  0  0
 36 38  1  0  0  0  0
 37 36  1  0  0  0  0
 38 30  2  0  0  0  0
 39 38  1  0  0  0  0
 39 40  1  0  0  0  0
 41 39  1  0  0  0  0
 41 43  1  0  0  0  0
 42 41  1  0  0  0  0
 44 41  1  0  0  0  0
 45 47  1  0  0  0  0
 45 46  1  0  0  0  0
 45 39  1  0  0  0  0
 48 45  1  0  0  0  0
 49 51  1  0  0  0  0
 49 50  1  0  0  0  0
 49 55  1  0  0  0  0
 51 52  1  0  0  0  0
 53 51  1  0  0  0  0
 54 51  1  0  0  0  0
 55 57  1  0  0  0  0
 55 56  1  0  0  0  0
 58 55  1  0  0  0  0
 59 61  1  0  0  0  0
 61 60  1  0  0  0  0
 61  5  1  0  0  0  0
M  END
$$$$
