CSD_code = CEBPUX | q = 1 | S = 0 | Stoichiometry = C19H18ClN2Ru(1+) | MND = 9
 OpenBabel04212202023D

 41 43  0  0  1  0  0  0  0  0999 V2000
    7.6795   12.0783   -0.1760 C   0  0  0  0  0  3  0  0  0  0  0  0
    7.1900   11.2923   -0.7366 H   0  0  0  0  0  0  0  0  0  0  0  0
    7.6579   13.3842   -0.6298 C   0  0  0  0  0  0  0  0  0  0  0  0
    7.1634   13.6195   -1.5579 H   0  0  0  0  0  0  0  0  0  0  0  0
    8.2700   14.3793    0.1272 C   0  0  0  0  0  0  0  0  0  0  0  0
    8.2620   15.4044   -0.2065 H   0  0  0  0  0  0  0  0  0  0  0  0
    8.8696   14.0299    1.3205 C   0  0  0  0  0  0  0  0  0  0  0  0
    9.3343   14.7656    1.9567 H   0  0  0  0  0  0  0  0  0  0  0  0
    8.8528   12.6919    1.7193 C   0  0  0  0  0  0  0  0  0  0  0  0
    9.3649   12.1771    2.9560 C   0  0  0  0  0  3  0  0  0  0  0  0
    9.8221   12.8169    3.7026 H   0  0  0  0  0  0  0  0  0  0  0  0
    9.5622   10.2778    4.3828 C   0  0  0  0  0  0  0  0  0  0  0  0
   10.5241    9.7679    4.2482 H   0  0  0  0  0  0  0  0  0  0  0  0
    8.7909    9.5221    4.5830 H   0  0  0  0  0  0  0  0  0  0  0  0
    9.6339   11.2282    5.5556 C   0  0  0  0  0  0  0  0  0  0  0  0
    8.4661   11.8426    5.9957 C   0  0  0  0  0  0  0  0  0  0  0  0
    7.5327   11.6338    5.4923 H   0  0  0  0  0  0  0  0  0  0  0  0
    8.5052   12.7140    7.0686 C   0  0  0  0  0  0  0  0  0  0  0  0
    7.5965   13.1851    7.4095 H   0  0  0  0  0  0  0  0  0  0  0  0
    9.7069   12.9743    7.7083 C   0  0  0  0  0  0  0  0  0  0  0  0
    9.7354   13.6500    8.5488 H   0  0  0  0  0  0  0  0  0  0  0  0
   10.8703   12.3644    7.2717 C   0  0  0  0  0  0  0  0  0  0  0  0
   11.8067   12.5631    7.7695 H   0  0  0  0  0  0  0  0  0  0  0  0
   10.8364   11.4948    6.1939 C   0  0  0  0  0  0  0  0  0  0  0  0
   11.7460   11.0189    5.8570 H   0  0  0  0  0  0  0  0  0  0  0  0
    9.1619    8.7406    0.0477 C   0  0  1  0  0  0  0  0  0  0  0  0
    9.7762    9.0763   -0.7808 H   0  0  0  0  0  0  0  0  0  0  0  0
    9.7701    8.3037    1.2399 C   0  0  0  0  0  3  0  0  0  0  0  0
   10.8511    8.3022    1.3263 H   0  0  0  0  0  0  0  0  0  0  0  0
    8.9771    7.7326    2.2667 C   0  0  0  0  0  0  0  0  0  0  0  0
    9.4552    7.3022    3.1391 H   0  0  0  0  0  0  0  0  0  0  0  0
    7.5899    7.6705    2.1262 C   0  0  0  0  0  0  0  0  0  0  0  0
    6.9808    7.2110    2.8966 H   0  0  0  0  0  0  0  0  0  0  0  0
    6.9784    8.0947    0.9122 C   0  0  0  0  0  0  0  0  0  0  0  0
    5.9115    7.9549    0.7765 H   0  0  0  0  0  0  0  0  0  0  0  0
    7.7624    8.5862   -0.1301 C   0  0  0  0  0  0  0  0  0  0  0  0
    7.3147    8.8022   -1.0932 H   0  0  0  0  0  0  0  0  0  0  0  0
    8.2769   11.7269    0.9594 N   0  0  0  0  0  0  0  0  0  0  0  0
    9.1971   10.9102    3.1351 N   0  0  0  0  0  0  0  0  0  0  0  0
    6.3200   10.7047    2.8313 Cl  0  0  0  0  0 15  0  0  0  0  0  0
    8.2267    9.9086    1.7627 Ru  0  0  0  0  0  0  0  0  0  0  0  0
  1 38  1  0  0  0  0
  2  1  1  0  0  0  0
  3  1  1  0  0  0  0
  3  5  2  0  0  0  0
  4  3  1  0  0  0  0
  5  7  1  0  0  0  0
  6  5  1  0  0  0  0
  7  9  2  0  0  0  0
  7  8  1  0  0  0  0
  9 10  1  0  0  0  0
 10 39  1  0  0  0  0
 10 11  1  0  0  0  0
 12 14  1  0  0  0  0
 12 15  1  0  0  0  0
 13 12  1  0  0  0  0
 15 16  2  0  0  0  0
 15 24  1  0  0  0  0
 16 18  1  0  0  0  0
 17 16  1  0  0  0  0
 18 19  1  0  0  0  0
 18 20  2  0  0  0  0
 20 21  1  0  0  0  0
 22 20  1  0  0  0  0
 22 23  1  0  0  0  0
 24 22  2  0  0  0  0
 25 24  1  0  0  0  0
 26 27  1  6  0  0  0
 26 28  1  0  0  0  0
 26 41  1  0  0  0  0
 28 29  1  0  0  0  0
 28 30  1  0  0  0  0
 30 31  1  0  0  0  0
 32 30  2  0  0  0  0
 32 33  1  0  0  0  0
 34 32  1  0  0  0  0
 35 34  1  0  0  0  0
 36 26  1  0  0  0  0
 36 34  2  0  0  0  0
 37 36  1  0  0  0  0
 38  9  1  0  0  0  0
 38 41  1  0  0  0  0
 39 12  1  0  0  0  0
 41 39  1  0  0  0  0
M  END
$$$$
