CSD_code = CECHOH | q = 0 | S = 0 | Stoichiometry = C44H40Cl2P2Pt | MND = 6
 OpenBabel04212202023D

 89 94  0  0  1  0  0  0  0  0999 V2000
    1.8639    3.9733    1.0549 Pt  0  0  0  0  0  0  0  0  0  0  0  0
    2.8428    6.0813    0.2659 Cl  0  0  0  0  0 15  0  0  0  0  0  0
   -2.1975    3.6729    5.0347 Cl  0  0  0  0  0  0  0  0  0  0  0  0
    4.0337    3.5564    2.1667 P   0  0  0  0  0  0  0  0  0  0  0  0
    2.0701    3.0825   -1.1785 P   0  0  0  0  0  0  0  0  0  0  0  0
    5.5498    3.7966    1.1833 C   0  0  0  0  0  0  0  0  0  0  0  0
    6.5152    4.7418    1.5098 C   0  0  0  0  0  0  0  0  0  0  0  0
    7.6300    4.8997    0.7048 C   0  0  0  0  0  0  0  0  0  0  0  0
    7.7961    4.1185   -0.4263 C   0  0  0  0  0  0  0  0  0  0  0  0
    6.8337    3.1804   -0.7624 C   0  0  0  0  0  0  0  0  0  0  0  0
    5.7122    3.0284    0.0316 C   0  0  0  0  0  0  0  0  0  0  0  0
    4.3503    4.6487    3.5951 C   0  0  0  0  0  0  0  0  0  0  0  0
    3.9310    5.9740    3.5155 C   0  0  0  0  0  0  0  0  0  0  0  0
    4.1693    6.8448    4.5631 C   0  0  0  0  0  0  0  0  0  0  0  0
    4.8283    6.4023    5.6983 C   0  0  0  0  0  0  0  0  0  0  0  0
    5.2613    5.0885    5.7756 C   0  0  0  0  0  0  0  0  0  0  0  0
    5.0292    4.2131    4.7299 C   0  0  0  0  0  0  0  0  0  0  0  0
    4.2921    1.9164    2.9279 C   0  0  0  0  0  0  0  0  0  0  0  0
    3.4197    1.5741    3.9611 C   0  0  0  0  0  0  0  0  0  0  0  0
    3.4949    0.3342    4.5640 C   0  0  0  0  0  0  0  0  0  0  0  0
    4.4409   -0.5853    4.1373 C   0  0  0  0  0  0  0  0  0  0  0  0
    5.3121   -0.2513    3.1149 C   0  0  0  0  0  0  0  0  0  0  0  0
    5.2400    0.9919    2.5088 C   0  0  0  0  0  0  0  0  0  0  0  0
    2.7311    1.3975   -1.4488 C   0  0  0  0  0  0  0  0  0  0  0  0
    3.0834    0.6308   -0.3436 C   0  0  0  0  0  0  0  0  0  0  0  0
    3.5951   -0.6439   -0.5076 C   0  0  0  0  0  0  0  0  0  0  0  0
    3.7605   -1.1618   -1.7813 C   0  0  0  0  0  0  0  0  0  0  0  0
    3.4135   -0.4014   -2.8873 C   0  0  0  0  0  0  0  0  0  0  0  0
    2.9024    0.8734   -2.7259 C   0  0  0  0  0  0  0  0  0  0  0  0
    2.8440    3.9880   -2.5617 C   0  0  0  0  0  0  0  0  0  0  0  0
    2.2831    4.0220   -3.8361 C   0  0  0  0  0  0  0  0  0  0  0  0
    2.9316    4.6897   -4.8589 C   0  0  0  0  0  0  0  0  0  0  0  0
    4.1393    5.3266   -4.6236 C   0  0  0  0  0  0  0  0  0  0  0  0
    4.6978    5.2984   -3.3573 C   0  0  0  0  0  0  0  0  0  0  0  0
    4.0530    4.6339   -2.3303 C   0  0  0  0  0  0  0  0  0  0  0  0
    0.3563    2.9237   -1.7702 C   0  0  0  0  0  0  0  0  0  0  0  0
   -0.3079    1.7082   -1.8756 C   0  0  0  0  0  0  0  0  0  0  0  0
   -1.6425    1.6807   -2.2446 C   0  0  0  0  0  0  0  0  0  0  0  0
   -2.3198    2.8594   -2.5060 C   0  0  0  0  0  0  0  0  0  0  0  0
   -1.6618    4.0760   -2.3969 C   0  0  0  0  0  0  0  0  0  0  0  0
   -0.3325    4.1089   -2.0259 C   0  0  0  0  0  0  0  0  0  0  0  0
    0.6683    4.9507    2.4857 C   0  0  1  0  0  0  0  0  0  0  0  0
   -0.0384    4.8707    1.2495 C   0  0  0  0  0  3  0  0  0  0  0  0
   -1.1411    3.8568    1.4703 C   0  0  2  0  0  0  0  0  0  0  0  0
   -2.1528    4.5264    2.4216 C   0  0  0  0  0  0  0  0  0  0  0  0
   -1.3795    4.6042    3.7465 C   0  0  2  0  0  0  0  0  0  0  0  0
   -0.0219    3.9675    3.4110 C   0  0  1  0  0  0  0  0  0  0  0  0
   -0.4080    2.8799    2.3993 C   0  0  2  0  0  0  0  0  0  0  0  0
    0.8135    2.2978    1.7161 C   0  0  0  0  0  0  0  0  0  0  0  0
    6.3944    5.3610    2.3860 H   0  0  0  0  0  0  0  0  0  0  0  0
    8.3724    5.6410    0.9624 H   0  0  0  0  0  0  0  0  0  0  0  0
    8.6681    4.2468   -1.0507 H   0  0  0  0  0  0  0  0  0  0  0  0
    6.9456    2.5771   -1.6519 H   0  0  0  0  0  0  0  0  0  0  0  0
    4.9447    2.3182   -0.2489 H   0  0  0  0  0  0  0  0  0  0  0  0
    3.4394    6.3197    2.6166 H   0  0  0  0  0  0  0  0  0  0  0  0
    3.8413    7.8716    4.4921 H   0  0  0  0  0  0  0  0  0  0  0  0
    5.0110    7.0803    6.5193 H   0  0  0  0  0  0  0  0  0  0  0  0
    5.7874    4.7431    6.6541 H   0  0  0  0  0  0  0  0  0  0  0  0
    5.3803    3.1933    4.7980 H   0  0  0  0  0  0  0  0  0  0  0  0
    2.6939    2.3031    4.2976 H   0  0  0  0  0  0  0  0  0  0  0  0
    2.8163    0.0819    5.3656 H   0  0  0  0  0  0  0  0  0  0  0  0
    4.5000   -1.5571    4.6045 H   0  0  0  0  0  0  0  0  0  0  0  0
    6.0576   -0.9613    2.7863 H   0  0  0  0  0  0  0  0  0  0  0  0
    5.9307    1.2414    1.7167 H   0  0  0  0  0  0  0  0  0  0  0  0
    2.9602    1.0457    0.6486 H   0  0  0  0  0  0  0  0  0  0  0  0
    3.8670   -1.2271    0.3601 H   0  0  0  0  0  0  0  0  0  0  0  0
    4.1622   -2.1554   -1.9143 H   0  0  0  0  0  0  0  0  0  0  0  0
    3.5445   -0.8039   -3.8812 H   0  0  0  0  0  0  0  0  0  0  0  0
    2.6393    1.4644   -3.5912 H   0  0  0  0  0  0  0  0  0  0  0  0
    1.3346    3.5396   -4.0298 H   0  0  0  0  0  0  0  0  0  0  0  0
    2.4887    4.7157   -5.8444 H   0  0  0  0  0  0  0  0  0  0  0  0
    4.6379    5.8506   -5.4260 H   0  0  0  0  0  0  0  0  0  0  0  0
    5.6331    5.8018   -3.1622 H   0  0  0  0  0  0  0  0  0  0  0  0
    4.4737    4.6376   -1.3370 H   0  0  0  0  0  0  0  0  0  0  0  0
    0.2166    0.7848   -1.6716 H   0  0  0  0  0  0  0  0  0  0  0  0
   -2.1554    0.7333   -2.3266 H   0  0  0  0  0  0  0  0  0  0  0  0
   -3.3608    2.8324   -2.7924 H   0  0  0  0  0  0  0  0  0  0  0  0
   -2.1901    4.9965   -2.5979 H   0  0  0  0  0  0  0  0  0  0  0  0
    0.1915    5.0512   -1.9305 H   0  0  0  0  0  0  0  0  0  0  0  0
    1.0479    5.8851    2.8892 H   0  0  0  0  0  0  0  0  0  0  0  0
   -0.2147    5.7356    0.6165 H   0  0  0  0  0  0  0  0  0  0  0  0
   -1.5904    3.4333    0.5735 H   0  0  0  0  0  0  0  0  0  0  0  0
   -3.0459    3.9111    2.5269 H   0  0  0  0  0  0  0  0  0  0  0  0
   -2.4531    5.5128    2.0694 H   0  0  0  0  0  0  0  0  0  0  0  0
   -1.2833    5.6182    4.1364 H   0  0  0  0  0  0  0  0  0  0  0  0
    0.5423    3.6551    4.2885 H   0  0  0  0  0  0  0  0  0  0  0  0
   -1.0591    2.1100    2.8234 H   0  0  0  0  0  0  0  0  0  0  0  0
    1.3819    1.6805    2.4185 H   0  0  0  0  0  0  0  0  0  0  0  0
    0.4946    1.6621    0.8820 H   0  0  0  0  0  0  0  0  0  0  0  0
  1 49  1  0  0  0  0
  1 42  1  0  0  0  0
  4 18  1  0  0  0  0
  4 12  1  0  0  0  0
  6  7  1  0  0  0  0
  6  4  1  0  0  0  0
  7 50  1  0  0  0  0
  8 51  1  0  0  0  0
  8  7  2  0  0  0  0
  9  8  1  0  0  0  0
 10  9  2  0  0  0  0
 10 11  1  0  0  0  0
 11  6  2  0  0  0  0
 12 17  1  0  0  0  0
 13 12  2  0  0  0  0
 13 14  1  0  0  0  0
 14 15  2  0  0  0  0
 15 16  1  0  0  0  0
 15 57  1  0  0  0  0
 16 58  1  0  0  0  0
 17 59  1  0  0  0  0
 17 16  2  0  0  0  0
 18 19  1  0  0  0  0
 19 60  1  0  0  0  0
 19 20  2  0  0  0  0
 20 61  1  0  0  0  0
 21 20  1  0  0  0  0
 21 62  1  0  0  0  0
 22 21  2  0  0  0  0
 23 18  2  0  0  0  0
 23 22  1  0  0  0  0
 24  5  1  0  0  0  0
 24 25  1  0  0  0  0
 25 65  1  0  0  0  0
 26 25  2  0  0  0  0
 26 66  1  0  0  0  0
 27 26  1  0  0  0  0
 28 29  1  0  0  0  0
 28 27  2  0  0  0  0
 29 24  2  0  0  0  0
 30 35  1  0  0  0  0
 30  5  1  0  0  0  0
 31 30  2  0  0  0  0
 32 33  2  0  0  0  0
 32 31  1  0  0  0  0
 33 34  1  0  0  0  0
 34 73  1  0  0  0  0
 34 35  2  0  0  0  0
 35 74  1  0  0  0  0
 36  5  1  0  0  0  0
 37 36  1  0  0  0  0
 37 75  1  0  0  0  0
 38 37  2  0  0  0  0
 39 40  2  0  0  0  0
 39 38  1  0  0  0  0
 40 41  1  0  0  0  0
 41 79  1  0  0  0  0
 41 36  2  0  0  0  0
 42 80  1  1  0  0  0
 42 47  1  0  0  0  0
 43 44  1  0  0  0  0
 43 42  1  0  0  0  0
 44 82  1  6  0  0  0
 44 48  1  0  0  0  0
 44 45  1  0  0  0  0
 45 83  1  0  0  0  0
 45 46  1  0  0  0  0
 46 85  1  1  0  0  0
 46  3  1  0  0  0  0
 47 46  1  0  0  0  0
 47 86  1  1  0  0  0
 48 87  1  1  0  0  0
 48 47  1  0  0  0  0
 49 48  1  0  0  0  0
 49 88  1  0  0  0  0
 52  9  1  0  0  0  0
 53 10  1  0  0  0  0
 54 11  1  0  0  0  0
 55 13  1  0  0  0  0
 56 14  1  0  0  0  0
 63 22  1  0  0  0  0
 64 23  1  0  0  0  0
 67 27  1  0  0  0  0
 68 28  1  0  0  0  0
 69 29  1  0  0  0  0
 70 31  1  0  0  0  0
 71 32  1  0  0  0  0
 72 33  1  0  0  0  0
 76 38  1  0  0  0  0
 77 39  1  0  0  0  0
 78 40  1  0  0  0  0
 81 43  1  0  0  0  0
 84 45  1  0  0  0  0
 89 49  1  0  0  0  0
M  END
$$$$
