CSD_code = CECKIE | q = 0 | S = 0 | Stoichiometry = C11H23Cl2P2V | MND = 9
 OpenBabel04212202023D

 39 35  0  0  1  0  0  0  0  0999 V2000
    1.6390    4.7130    9.2997 V   0  0  0  0  0  0  0  0  0  0  0  0
    2.7001    5.5378   11.1502 Cl  0  0  0  0  0 15  0  0  0  0  0  0
   -0.6194    4.7411    9.6475 Cl  0  0  0  0  0 15  0  0  0  0  0  0
    1.3371    3.0681   10.9401 P   0  0  0  0  0  0  0  0  0  0  0  0
    1.1363    7.0009    9.3016 P   0  0  0  0  0  0  0  0  0  0  0  0
    2.8044    2.2843   11.7160 C   0  0  0  0  0  0  0  0  0  0  0  0
    0.3613    1.5902   10.4681 C   0  0  0  0  0  0  0  0  0  0  0  0
    0.4386    3.5833   12.4508 C   0  0  0  0  0  0  0  0  0  0  0  0
    2.5006    8.2277    9.2482 C   0  0  0  0  0  0  0  0  0  0  0  0
    0.0617    7.6174    7.9510 C   0  0  0  0  0  0  0  0  0  0  0  0
    0.2233    7.6304   10.7593 C   0  0  0  0  0  0  0  0  0  0  0  0
    2.7347    5.2383    7.4875 C   0  0  0  0  0  3  0  0  0  0  0  0
    3.5450    4.3366    8.1887 C   0  0  0  0  0  0  0  0  0  0  0  0
    2.8295    3.1437    8.3530 C   0  0  0  0  0  0  0  0  0  0  0  0
    1.5683    3.2955    7.7243 C   0  0  0  0  0  3  0  0  0  0  0  0
    1.5092    4.5904    7.1892 C   0  0  1  0  0  0  0  0  0  0  0  0
    3.3667    1.7156   10.9784 H   0  0  0  0  0  0  0  0  0  0  0  0
    3.4427    3.0638   12.1281 H   0  0  0  0  0  0  0  0  0  0  0  0
    2.4796    1.6153   12.5134 H   0  0  0  0  0  0  0  0  0  0  0  0
   -0.5960    1.9216   10.0683 H   0  0  0  0  0  0  0  0  0  0  0  0
    0.8958    1.0255    9.7057 H   0  0  0  0  0  0  0  0  0  0  0  0
    0.1966    0.9571   11.3404 H   0  0  0  0  0  0  0  0  0  0  0  0
    0.9801    4.3965   12.9327 H   0  0  0  0  0  0  0  0  0  0  0  0
   -0.5596    3.9237   12.1809 H   0  0  0  0  0  0  0  0  0  0  0  0
    0.3704    2.7312   13.1286 H   0  0  0  0  0  0  0  0  0  0  0  0
    3.0423    8.1536    8.3076 H   0  0  0  0  0  0  0  0  0  0  0  0
    2.0891    9.2327    9.3471 H   0  0  0  0  0  0  0  0  0  0  0  0
    3.1850    8.0288   10.0710 H   0  0  0  0  0  0  0  0  0  0  0  0
   -0.1948    8.6628    8.1250 H   0  0  0  0  0  0  0  0  0  0  0  0
    0.5812    7.5251    6.9984 H   0  0  0  0  0  0  0  0  0  0  0  0
   -0.8453    7.0148    7.9285 H   0  0  0  0  0  0  0  0  0  0  0  0
    0.0618    8.7025   10.6383 H   0  0  0  0  0  0  0  0  0  0  0  0
   -0.7338    7.1177   10.8376 H   0  0  0  0  0  0  0  0  0  0  0  0
    0.8082    7.4442   11.6593 H   0  0  0  0  0  0  0  0  0  0  0  0
    3.0534    6.1955    7.0982 H   0  0  0  0  0  0  0  0  0  0  0  0
    4.5539    4.5238    8.5311 H   0  0  0  0  0  0  0  0  0  0  0  0
    3.2336    2.2192    8.7418 H   0  0  0  0  0  0  0  0  0  0  0  0
    0.8386    2.5134    7.5647 H   0  0  0  0  0  0  0  0  0  0  0  0
    0.7280    4.9708    6.5453 H   0  0  0  0  0  0  0  0  0  0  0  0
  4  6  1  0  0  0  0
  4  8  1  0  0  0  0
  5 11  1  0  0  0  0
  6 18  1  0  0  0  0
  6 19  1  0  0  0  0
  7  4  1  0  0  0  0
  7 22  1  0  0  0  0
  8 23  1  0  0  0  0
  8 25  1  0  0  0  0
  9  5  1  0  0  0  0
  9 27  1  0  0  0  0
  9 28  1  0  0  0  0
 10 29  1  0  0  0  0
 10  5  1  0  0  0  0
 11 33  1  0  0  0  0
 11 34  1  0  0  0  0
 12 13  1  0  0  0  0
 13 14  2  0  0  0  0
 13 36  1  0  0  0  0
 14 37  1  0  0  0  0
 15 14  1  0  0  0  0
 16 39  1  6  0  0  0
 16 12  1  0  0  0  0
 16 15  1  0  0  0  0
 16  1  1  0  0  0  0
 17  6  1  0  0  0  0
 20  7  1  0  0  0  0
 21  7  1  0  0  0  0
 24  8  1  0  0  0  0
 26  9  1  0  0  0  0
 30 10  1  0  0  0  0
 31 10  1  0  0  0  0
 32 11  1  0  0  0  0
 35 12  1  0  0  0  0
 38 15  1  0  0  0  0
M  END
$$$$
