CSD_code = CECROR | q = 0 | S = 0 | Stoichiometry = C20H29I2N2Re | MND = 6
 OpenBabel04212202023D

 54 55  0  0  0  0  0  0  0  0999 V2000
    1.1950   11.0519    6.4163 Re  0  0  0  0  0  0  0  0  0  0  0  0
    3.0423   13.0596    5.8258 I   0  0  0  0  0  0  0  0  0  0  0  0
   -0.3941    8.8840    7.1537 I   0  0  0  0  0  0  0  0  0  0  0  0
    1.9199   11.1852    8.6614 N   0  0  0  0  0  0  0  0  0  0  0  0
    3.1124    9.5068    6.4504 N   0  0  0  0  0  0  0  0  0  0  0  0
    2.1264   12.3665    9.2369 C   0  0  0  0  0  3  0  0  0  0  0  0
    2.6174   12.5061   10.5224 C   0  0  0  0  0  0  0  0  0  0  0  0
    2.9104   11.3663   11.2527 C   0  0  0  0  0  0  0  0  0  0  0  0
    2.6909   10.1343   10.6598 C   0  0  0  0  0  0  0  0  0  0  0  0
    2.1947   10.0949    9.3692 C   0  0  0  0  0  0  0  0  0  0  0  0
    2.9876    8.2694    5.9770 C   0  0  0  0  0  3  0  0  0  0  0  0
    4.0047    7.3336    6.0380 C   0  0  0  0  0  0  0  0  0  0  0  0
    5.2104    7.6919    6.6181 C   0  0  0  0  0  0  0  0  0  0  0  0
    5.3457    8.9810    7.1053 C   0  0  0  0  0  0  0  0  0  0  0  0
    4.2746    9.8500    6.9963 C   0  0  0  0  0  0  0  0  0  0  0  0
    0.8130   10.8417    4.6097 C   0  0  0  0  0  2  0  0  0  0  0  0
    0.6912   10.5684    3.1842 C   0  0  0  0  0  0  0  0  0  0  0  0
    1.4814   11.6346    2.4036 C   0  0  0  0  0  0  0  0  0  0  0  0
    1.3124    9.1815    2.9219 C   0  0  0  0  0  0  0  0  0  0  0  0
   -0.7758   10.5532    2.7263 C   0  0  0  0  0  0  0  0  0  0  0  0
   -0.2617   12.3321    6.8609 C   0  0  0  0  0  3  0  0  0  0  0  0
   -1.3609   13.0776    6.1877 C   0  0  0  0  0  0  0  0  0  0  0  0
   -2.0024   14.1056    7.1271 C   0  0  0  0  0  0  0  0  0  0  0  0
   -0.8251   13.7912    4.9390 C   0  0  0  0  0  0  0  0  0  0  0  0
   -2.4148   12.0306    5.7773 C   0  0  0  0  0  0  0  0  0  0  0  0
    1.9012   13.2473    8.6489 H   0  0  0  0  0  0  0  0  0  0  0  0
    2.7661   13.4923   10.9325 H   0  0  0  0  0  0  0  0  0  0  0  0
    3.2972   11.4360   12.2584 H   0  0  0  0  0  0  0  0  0  0  0  0
    2.8942    9.2122   11.1811 H   0  0  0  0  0  0  0  0  0  0  0  0
    2.0082    9.1363    8.9015 H   0  0  0  0  0  0  0  0  0  0  0  0
    2.0332    8.0139    5.5385 H   0  0  0  0  0  0  0  0  0  0  0  0
    3.8447    6.3448    5.6389 H   0  0  0  0  0  0  0  0  0  0  0  0
    6.0247    6.9862    6.6874 H   0  0  0  0  0  0  0  0  0  0  0  0
    6.2631    9.3181    7.5615 H   0  0  0  0  0  0  0  0  0  0  0  0
    4.3753   10.8649    7.3599 H   0  0  0  0  0  0  0  0  0  0  0  0
    1.4653   11.3949    1.3430 H   0  0  0  0  0  0  0  0  0  0  0  0
    1.0476   12.6202    2.5481 H   0  0  0  0  0  0  0  0  0  0  0  0
    2.5133   11.6649    2.7433 H   0  0  0  0  0  0  0  0  0  0  0  0
    1.2705    8.9586    1.8582 H   0  0  0  0  0  0  0  0  0  0  0  0
    2.3521    9.1655    3.2414 H   0  0  0  0  0  0  0  0  0  0  0  0
    0.7595    8.4153    3.4604 H   0  0  0  0  0  0  0  0  0  0  0  0
   -0.8229   10.2813    1.6741 H   0  0  0  0  0  0  0  0  0  0  0  0
   -1.3418    9.8239    3.3006 H   0  0  0  0  0  0  0  0  0  0  0  0
   -1.2298   11.5313    2.8544 H   0  0  0  0  0  0  0  0  0  0  0  0
   -0.2809   12.5194    7.9493 H   0  0  0  0  0  0  0  0  0  0  0  0
   -2.8075   14.6272    6.6144 H   0  0  0  0  0  0  0  0  0  0  0  0
   -2.4185   13.6212    8.0090 H   0  0  0  0  0  0  0  0  0  0  0  0
   -1.2690   14.8441    7.4470 H   0  0  0  0  0  0  0  0  0  0  0  0
   -1.6469   14.1905    4.3500 H   0  0  0  0  0  0  0  0  0  0  0  0
   -0.1680   14.6089    5.2248 H   0  0  0  0  0  0  0  0  0  0  0  0
   -0.2511   13.0879    4.3417 H   0  0  0  0  0  0  0  0  0  0  0  0
   -3.2005   12.5059    5.1955 H   0  0  0  0  0  0  0  0  0  0  0  0
   -2.8589   11.5730    6.6579 H   0  0  0  0  0  0  0  0  0  0  0  0
   -1.9427   11.2512    5.1858 H   0  0  0  0  0  0  0  0  0  0  0  0
  1  5  1  0  0  0  0
  1 21  1  0  0  0  0
  1  3  1  0  0  0  0
  1  4  1  0  0  0  0
  2  1  1  0  0  0  0
  4  6  1  0  0  0  0
  4 10  1  0  0  0  0
  5 15  1  0  0  0  0
  6  7  1  0  0  0  0
  7 27  1  0  0  0  0
  7  8  2  0  0  0  0
  8 28  1  0  0  0  0
  9 29  1  0  0  0  0
  9  8  1  0  0  0  0
 10  9  2  0  0  0  0
 11 12  1  0  0  0  0
 11  5  1  0  0  0  0
 12 13  2  0  0  0  0
 13 33  1  0  0  0  0
 13 14  1  0  0  0  0
 14 34  1  0  0  0  0
 15 14  2  0  0  0  0
 15 35  1  0  0  0  0
 16  1  1  0  0  0  0
 17 16  1  0  0  0  0
 18 37  1  0  0  0  0
 18 38  1  0  0  0  0
 18 17  1  0  0  0  0
 19 17  1  0  0  0  0
 19 40  1  0  0  0  0
 19 41  1  0  0  0  0
 20 44  1  0  0  0  0
 20 17  1  0  0  0  0
 20 43  1  0  0  0  0
 21 45  1  0  0  0  0
 22 21  1  0  0  0  0
 22 23  1  0  0  0  0
 23 48  1  0  0  0  0
 23 47  1  0  0  0  0
 24 50  1  0  0  0  0
 24 22  1  0  0  0  0
 25 22  1  0  0  0  0
 25 53  1  0  0  0  0
 26  6  1  0  0  0  0
 30 10  1  0  0  0  0
 31 11  1  0  0  0  0
 32 12  1  0  0  0  0
 36 18  1  0  0  0  0
 39 19  1  0  0  0  0
 42 20  1  0  0  0  0
 46 23  1  0  0  0  0
 49 24  1  0  0  0  0
 51 24  1  0  0  0  0
 52 25  1  0  0  0  0
 54 25  1  0  0  0  0
M  END
$$$$
