CSD_code = CECVAK | q = 0 | S = 0 | Stoichiometry = C27H31Cl2N5Pd | MND = 4
 OpenBabel04212202023D

 66 70  0  0  0  0  0  0  0  0999 V2000
    1.8642    7.7620   28.2088 Pd  0  0  0  0  0  0  0  0  0  0  0  0
    2.5765    6.5151   26.4164 Cl  0  0  0  0  0  0  0  0  0  0  0  0
    1.2192    9.1385   29.9281 Cl  0  0  0  0  0  0  0  0  0  0  0  0
    1.3234    6.1908   29.2112 C   0  0  0  0  0  0  0  0  0  0  0  0
    3.6251    9.9349   27.4623 C   0  0  0  0  0  0  0  0  0  0  0  0
    2.7171    6.5862   31.1660 C   0  0  0  0  0  0  0  0  0  0  0  0
    3.7663   10.9991   26.5453 C   0  0  0  0  0  0  0  0  0  0  0  0
   -0.1575    5.2585   27.5009 C   0  0  0  0  0  0  0  0  0  0  0  0
    0.1399    4.1696   26.6747 C   0  0  0  0  0  0  0  0  0  0  0  0
   -1.5516    6.1784   25.7822 C   0  0  0  0  0  0  0  0  0  0  0  0
   -2.1884    6.9761   25.4267 H   0  0  0  0  0  0  0  0  0  0  0  0
   -0.4550    4.0956   25.4260 C   0  0  0  0  0  0  0  0  0  0  0  0
   -0.2227    3.2565   24.7857 H   0  0  0  0  0  0  0  0  0  0  0  0
    2.3768    7.2824   32.3290 C   0  0  0  0  0  0  0  0  0  0  0  0
    5.7282   10.4267   28.3889 C   0  0  0  0  0  0  0  0  0  0  0  0
    6.5211   10.2465   29.0986 H   0  0  0  0  0  0  0  0  0  0  0  0
    4.0327    6.5885   30.6897 C   0  0  0  0  0  0  0  0  0  0  0  0
    4.6799    8.0039   32.5462 C   0  0  0  0  0  0  0  0  0  0  0  0
   -0.9841    6.2898   27.0447 C   0  0  0  0  0  0  0  0  0  0  0  0
    4.9104   11.7895   26.5382 C   0  0  0  0  0  0  0  0  0  0  0  0
    5.0316   12.6043   25.8419 H   0  0  0  0  0  0  0  0  0  0  0  0
    5.8760   11.4778   27.4702 C   0  0  0  0  0  0  0  0  0  0  0  0
    6.7805   12.0667   27.5014 H   0  0  0  0  0  0  0  0  0  0  0  0
    4.9934    7.3053   31.3914 C   0  0  0  0  0  0  0  0  0  0  0  0
    6.0106    7.3144   31.0237 H   0  0  0  0  0  0  0  0  0  0  0  0
    4.6051    9.6336   28.4073 C   0  0  0  0  0  0  0  0  0  0  0  0
    4.4540    8.8284   29.1209 H   0  0  0  0  0  0  0  0  0  0  0  0
    1.0931    4.6566   30.9368 C   0  0  0  0  0  0  0  0  0  0  0  0
    0.6416    4.8110   31.9172 H   0  0  0  0  0  0  0  0  0  0  0  0
    1.8487    3.8663   31.0259 H   0  0  0  0  0  0  0  0  0  0  0  0
   -1.3122    5.0847   24.9672 C   0  0  0  0  0  0  0  0  0  0  0  0
    0.0569    4.3573   29.8496 C   0  0  0  0  0  0  0  0  0  0  0  0
    0.1035    3.3302   29.4886 H   0  0  0  0  0  0  0  0  0  0  0  0
   -0.9671    4.5573   30.1875 H   0  0  0  0  0  0  0  0  0  0  0  0
    3.3704    7.9748   33.0028 C   0  0  0  0  0  0  0  0  0  0  0  0
    3.1100    8.5251   33.8955 H   0  0  0  0  0  0  0  0  0  0  0  0
   -1.2466    7.5275   27.8525 C   0  0  0  0  0  0  0  0  0  0  0  0
   -1.1912    7.3401   28.9260 H   0  0  0  0  0  0  0  0  0  0  0  0
   -2.2297    7.9312   27.6174 H   0  0  0  0  0  0  0  0  0  0  0  0
   -0.4980    8.3015   27.5905 H   0  0  0  0  0  0  0  0  0  0  0  0
    4.4206    5.8332   29.4524 C   0  0  0  0  0  0  0  0  0  0  0  0
    3.9880    4.8334   29.4507 H   0  0  0  0  0  0  0  0  0  0  0  0
    5.5022    5.7437   29.3856 H   0  0  0  0  0  0  0  0  0  0  0  0
    4.0634    6.3493   28.5485 H   0  0  0  0  0  0  0  0  0  0  0  0
   -1.9207    4.9931   23.6010 C   0  0  0  0  0  0  0  0  0  0  0  0
   -2.8348    5.5791   23.5416 H   0  0  0  0  0  0  0  0  0  0  0  0
   -2.1440    3.9598   23.3444 H   0  0  0  0  0  0  0  0  0  0  0  0
   -1.2207    5.3797   22.8600 H   0  0  0  0  0  0  0  0  0  0  0  0
    0.9669    7.3262   32.8325 C   0  0  0  0  0  0  0  0  0  0  0  0
    0.2732    7.3845   31.9973 H   0  0  0  0  0  0  0  0  0  0  0  0
    0.8238    8.2064   33.4529 H   0  0  0  0  0  0  0  0  0  0  0  0
    0.7358    6.4465   33.4357 H   0  0  0  0  0  0  0  0  0  0  0  0
    1.1294    3.1184   27.0811 C   0  0  0  0  0  0  0  0  0  0  0  0
    1.9048    3.5498   27.7099 H   0  0  0  0  0  0  0  0  0  0  0  0
    1.6049    2.7053   26.1952 H   0  0  0  0  0  0  0  0  0  0  0  0
    0.6465    2.2972   27.6140 H   0  0  0  0  0  0  0  0  0  0  0  0
    5.7206    8.7981   33.2753 C   0  0  0  0  0  0  0  0  0  0  0  0
    5.5999    9.8583   33.0516 H   0  0  0  0  0  0  0  0  0  0  0  0
    6.7221    8.4970   32.9776 H   0  0  0  0  0  0  0  0  0  0  0  0
    5.6189    8.6714   34.3512 H   0  0  0  0  0  0  0  0  0  0  0  0
    2.4122    9.3650   27.2203 N   0  0  0  0  0  0  0  0  0  0  0  0
    0.4130    5.3128   28.8021 N   0  0  0  0  0  0  0  0  0  0  0  0
    1.8216    9.9717   26.2742 N   0  0  0  0  0  2  0  0  0  0  0  0
    1.7188    5.8801   30.4420 N   0  0  0  0  0  0  0  0  0  0  0  0
    2.6048   10.9661   25.8355 N   0  0  0  0  0  0  0  0  0  0  0  0
    2.3031   11.5569   25.0783 H   0  0  0  0  0  0  0  0  0  0  0  0
  1  4  2  0  0  0  0
  1  3  1  0  0  0  0
  2  1  1  0  0  0  0
  4 64  1  0  0  0  0
  5 26  1  0  0  0  0
  6 14  1  0  0  0  0
  7  5  2  0  0  0  0
  8 62  1  0  0  0  0
  9 53  1  0  0  0  0
  9  8  2  0  0  0  0
 10 19  2  0  0  0  0
 11 10  1  0  0  0  0
 12  9  1  0  0  0  0
 13 12  1  0  0  0  0
 14 49  1  0  0  0  0
 14 35  2  0  0  0  0
 15 26  2  0  0  0  0
 15 16  1  0  0  0  0
 17  6  2  0  0  0  0
 17 24  1  0  0  0  0
 18 35  1  0  0  0  0
 18 57  1  0  0  0  0
 19  8  1  0  0  0  0
 19 37  1  0  0  0  0
 20  7  1  0  0  0  0
 20 22  2  0  0  0  0
 21 20  1  0  0  0  0
 22 23  1  0  0  0  0
 22 15  1  0  0  0  0
 24 18  2  0  0  0  0
 25 24  1  0  0  0  0
 26 27  1  0  0  0  0
 28 30  1  0  0  0  0
 28 29  1  0  0  0  0
 31 12  2  0  0  0  0
 31 10  1  0  0  0  0
 32 34  1  0  0  0  0
 32 28  1  0  0  0  0
 33 32  1  0  0  0  0
 35 36  1  0  0  0  0
 37 38  1  0  0  0  0
 39 37  1  0  0  0  0
 40 37  1  0  0  0  0
 41 17  1  0  0  0  0
 42 41  1  0  0  0  0
 43 41  1  0  0  0  0
 44 41  1  0  0  0  0
 45 31  1  0  0  0  0
 46 45  1  0  0  0  0
 47 45  1  0  0  0  0
 48 45  1  0  0  0  0
 49 52  1  0  0  0  0
 49 51  1  0  0  0  0
 50 49  1  0  0  0  0
 53 56  1  0  0  0  0
 53 54  1  0  0  0  0
 55 53  1  0  0  0  0
 57 60  1  0  0  0  0
 58 57  1  0  0  0  0
 59 57  1  0  0  0  0
 61  5  1  0  0  0  0
 61  1  1  0  0  0  0
 62  4  1  0  0  0  0
 62 32  1  0  0  0  0
 63 61  1  0  0  0  0
 64 28  1  0  0  0  0
 64  6  1  0  0  0  0
 65 63  1  0  0  0  0
 65  7  1  0  0  0  0
 66 65  1  0  0  0  0
M  END
$$$$
