CSD_code = CEDZOD | q = 0 | S = 0 | Stoichiometry = C30H31Cl2N3Zn | MND = 5
 OpenBabel04212202023D

 67 75  0  0  1  0  0  0  0  0999 V2000
    3.3693    8.8389   10.7643 C   0  0  2  0  0  3  0  0  0  0  0  0
    2.9942   10.0160   11.4379 C   0  0  0  0  0  0  0  0  0  0  0  0
    2.0791   10.5063   11.1454 H   0  0  0  0  0  0  0  0  0  0  0  0
    3.7799   10.5172   12.4390 C   0  0  0  0  0  0  0  0  0  0  0  0
    3.4872   11.4210   12.9515 H   0  0  0  0  0  0  0  0  0  0  0  0
    4.9691    9.8711   12.8116 C   0  0  0  0  0  0  0  0  0  0  0  0
    5.5704   10.2839   13.6079 H   0  0  0  0  0  0  0  0  0  0  0  0
    5.3670    8.7333   12.1667 C   0  0  0  0  0  0  0  0  0  0  0  0
    6.2860    8.2330   12.4365 H   0  0  0  0  0  0  0  0  0  0  0  0
    4.5849    8.1946   11.1262 C   0  0  0  0  0  0  0  0  0  0  0  0
    4.9576    7.0439   10.4033 C   0  0  0  0  0  0  0  0  0  0  0  0
    5.8770    6.5336   10.6533 H   0  0  0  0  0  0  0  0  0  0  0  0
    4.1568    6.6005    9.3895 C   0  0  0  0  0  0  0  0  0  0  0  0
    4.4218    5.7329    8.8041 H   0  0  0  0  0  0  0  0  0  0  0  0
    2.9593    7.2886    9.1080 C   0  0  0  0  0  0  0  0  0  0  0  0
    2.1189    6.8780    7.9327 C   0  0  0  0  0  0  0  0  0  0  0  0
    2.4616    7.5350    7.1253 H   0  0  0  0  0  0  0  0  0  0  0  0
    2.3479    5.8455    7.6453 H   0  0  0  0  0  0  0  0  0  0  0  0
    0.0549    7.4055    6.8188 C   0  0  0  0  0  0  0  0  0  0  0  0
   -0.2285    6.5003    6.2699 H   0  0  0  0  0  0  0  0  0  0  0  0
    0.7875    7.9493    6.2119 H   0  0  0  0  0  0  0  0  0  0  0  0
   -1.1116    8.3486    6.9025 C   0  0  0  0  0  0  0  0  0  0  0  0
   -2.1725    8.2399    5.9810 C   0  0  0  0  0  0  0  0  0  0  0  0
   -2.1791    7.4267    5.2706 H   0  0  0  0  0  0  0  0  0  0  0  0
   -3.1767    9.1656    6.0087 C   0  0  0  0  0  0  0  0  0  0  0  0
   -4.0112    9.1054    5.3245 H   0  0  0  0  0  0  0  0  0  0  0  0
   -3.1148   10.2257    6.9348 C   0  0  0  0  0  0  0  0  0  0  0  0
   -4.0902   11.2396    7.0069 C   0  0  0  0  0  3  0  0  0  0  0  0
   -4.9356   11.1943    6.3353 H   0  0  0  0  0  0  0  0  0  0  0  0
   -3.9580   12.2624    7.9042 C   0  0  0  0  0  0  0  0  0  0  0  0
   -4.7052   13.0402    7.9566 H   0  0  0  0  0  0  0  0  0  0  0  0
   -2.8455   12.3157    8.7587 C   0  0  0  0  0  0  0  0  0  0  0  0
   -2.7513   13.1378    9.4519 H   0  0  0  0  0  0  0  0  0  0  0  0
   -1.8851   11.3427    8.7199 C   0  0  0  0  0  0  0  0  0  0  0  0
   -1.0260   11.3768    9.3713 H   0  0  0  0  0  0  0  0  0  0  0  0
   -1.9999   10.2693    7.8174 C   0  0  0  0  0  0  0  0  0  0  0  0
   -0.0076    6.0201    8.8694 C   0  0  1  0  0  0  0  0  0  0  0  0
    0.0261    4.6517    8.1647 C   0  0  0  0  0  0  0  0  0  0  0  0
    1.0546    4.3171    8.0126 H   0  0  0  0  0  0  0  0  0  0  0  0
   -0.4591    4.7037    7.1876 H   0  0  0  0  0  0  0  0  0  0  0  0
   -0.7032    3.6061    9.0133 C   0  0  2  0  0  0  0  0  0  0  0  0
   -0.6654    2.6430    8.4898 H   0  0  0  0  0  0  0  0  0  0  0  0
   -2.1586    4.0210    9.2127 C   0  0  0  0  0  0  0  0  0  0  0  0
   -2.6815    3.2652    9.8022 H   0  0  0  0  0  0  0  0  0  0  0  0
   -2.6629    4.0983    8.2461 H   0  0  0  0  0  0  0  0  0  0  0  0
   -2.1971    5.3670    9.9327 C   0  0  2  0  0  0  0  0  0  0  0  0
   -3.2374    5.6831   10.0644 H   0  0  0  0  0  0  0  0  0  0  0  0
   -1.4714    6.4164    9.0915 C   0  0  0  0  0  0  0  0  0  0  0  0
   -1.9909    6.5141    8.1365 H   0  0  0  0  0  0  0  0  0  0  0  0
   -1.5080    7.3775    9.6045 H   0  0  0  0  0  0  0  0  0  0  0  0
   -1.5221    5.2502   11.2949 C   0  0  0  0  0  0  0  0  0  0  0  0
   -1.5512    6.2151   11.8032 H   0  0  0  0  0  0  0  0  0  0  0  0
   -2.0460    4.5197   11.9150 H   0  0  0  0  0  0  0  0  0  0  0  0
    0.6520    5.8725   10.2449 C   0  0  0  0  0  0  0  0  0  0  0  0
    0.6214    6.8319   10.7615 H   0  0  0  0  0  0  0  0  0  0  0  0
    1.6953    5.5697   10.1384 H   0  0  0  0  0  0  0  0  0  0  0  0
   -0.0734    4.8231   11.0865 C   0  0  2  0  0  0  0  0  0  0  0  0
    0.4294    4.7446   12.0563 H   0  0  0  0  0  0  0  0  0  0  0  0
   -0.0230    3.4740   10.3734 C   0  0  0  0  0  0  0  0  0  0  0  0
   -0.5328    2.7149   10.9702 H   0  0  0  0  0  0  0  0  0  0  0  0
    1.0149    3.1563   10.2449 H   0  0  0  0  0  0  0  0  0  0  0  0
    1.9162   10.2721    7.3937 Cl  0  0  0  0  0  0  0  0  0  0  0  0
   -0.3377    9.3485   11.0230 Cl  0  0  0  0  0  0  0  0  0  0  0  0
    2.5876    8.3505    9.7760 N   0  0  0  0  0  0  0  0  0  0  0  0
    0.6829    7.1069    8.1080 N   0  0  1  0  0  4  0  0  0  0  0  0
   -1.0450    9.3138    7.7830 N   0  0  0  0  0  0  0  0  0  0  0  0
    0.7287    9.1498    9.0101 Zn  0  0  0  0  0  0  0  0  0  0  0  0
  1 10  1  6  0  0  0
  1  2  1  0  0  0  0
  2  4  2  0  0  0  0
  3  2  1  0  0  0  0
  4  6  1  0  0  0  0
  4  5  1  0  0  0  0
  6  7  1  0  0  0  0
  8  9  1  0  0  0  0
  8  6  2  0  0  0  0
 10  8  1  0  0  0  0
 11 12  1  0  0  0  0
 11 10  2  0  0  0  0
 13 11  1  0  0  0  0
 14 13  1  0  0  0  0
 15 13  2  0  0  0  0
 15 64  1  0  0  0  0
 16 65  1  0  0  0  0
 16 15  1  0  0  0  0
 17 16  1  0  0  0  0
 18 16  1  0  0  0  0
 19 22  1  0  0  0  0
 20 19  1  0  0  0  0
 21 19  1  0  0  0  0
 22 66  1  0  0  0  0
 23 25  1  0  0  0  0
 23 22  2  0  0  0  0
 24 23  1  0  0  0  0
 25 27  2  0  0  0  0
 26 25  1  0  0  0  0
 27 28  1  0  0  0  0
 27 36  1  0  0  0  0
 28 30  1  0  0  0  0
 29 28  1  0  0  0  0
 30 31  1  0  0  0  0
 30 32  2  0  0  0  0
 32 33  1  0  0  0  0
 34 32  1  0  0  0  0
 34 35  1  0  0  0  0
 36 34  2  0  0  0  0
 37 38  1  6  0  0  0
 37 48  1  0  0  0  0
 37 54  1  0  0  0  0
 38 41  1  0  0  0  0
 39 38  1  0  0  0  0
 40 38  1  0  0  0  0
 41 42  1  6  0  0  0
 41 43  1  0  0  0  0
 41 59  1  0  0  0  0
 43 44  1  0  0  0  0
 43 46  1  0  0  0  0
 45 43  1  0  0  0  0
 46 47  1  1  0  0  0
 46 51  1  0  0  0  0
 48 50  1  0  0  0  0
 48 46  1  0  0  0  0
 49 48  1  0  0  0  0
 51 52  1  0  0  0  0
 51 53  1  0  0  0  0
 54 55  1  0  0  0  0
 54 57  1  0  0  0  0
 56 54  1  0  0  0  0
 57 51  1  0  0  0  0
 57 58  1  1  0  0  0
 59 60  1  0  0  0  0
 59 57  1  0  0  0  0
 61 59  1  0  0  0  0
 62 67  1  0  0  0  0
 64  1  1  0  0  0  0
 65 19  1  6  0  0  0
 65 37  1  0  0  0  0
 65 67  1  0  0  0  0
 66 36  1  0  0  0  0
 66 67  1  0  0  0  0
 67 64  1  0  0  0  0
 67 63  1  0  0  0  0
M  END
$$$$
