CSD_code = CEFCIA | q = 0 | S = 0 | Stoichiometry = C28H43ClNORh | MND = 3
 OpenBabel04212202023D

 75 77  0  0  1  0  0  0  0  0999 V2000
    2.6179    9.6615    4.5972 Rh  0  0  0  0  0  0  0  0  0  0  0  0
    0.5582    8.8847    4.1527 Cl  0  0  0  0  0  0  0  0  0  0  0  0
    5.2078   10.8461    5.5876 N   0  0  0  0  0  0  0  0  0  0  0  0
    2.2929    8.6996    7.3813 O   0  0  0  0  0  1  0  0  0  0  0  0
    4.3961   10.4770    4.6237 C   0  0  2  0  0  3  0  0  0  0  0  0
    5.0109   10.8680    3.2934 C   0  0  1  0  0  0  0  0  0  0  0  0
    2.5180    9.1018    6.3285 C   0  0  0  0  0  2  0  0  0  0  0  0
    6.2235   11.7522    3.6647 C   0  0  0  0  0  0  0  0  0  0  0  0
    7.1195   11.4249    3.1386 H   0  0  0  0  0  0  0  0  0  0  0  0
    6.0512   12.7917    3.3908 H   0  0  0  0  0  0  0  0  0  0  0  0
    6.4074   11.6176    5.1854 C   0  0  0  0  0  0  0  0  0  0  0  0
    5.5400    9.5879    2.6012 C   0  0  0  0  0  0  0  0  0  0  0  0
    6.1174    9.8941    1.7233 H   0  0  0  0  0  0  0  0  0  0  0  0
    6.2226    9.0725    3.2812 H   0  0  0  0  0  0  0  0  0  0  0  0
    4.4510    8.6177    2.1469 C   0  0  1  0  0  0  0  0  0  0  0  0
    3.4977    9.3560    1.2132 C   0  0  0  0  0  0  0  0  0  0  0  0
    4.0331    9.6806    0.3157 H   0  0  0  0  0  0  0  0  0  0  0  0
    2.6897    8.6910    0.9021 H   0  0  0  0  0  0  0  0  0  0  0  0
    2.9187   10.5612    1.9405 C   0  0  0  0  0  0  0  0  0  0  0  0
    4.0036   11.5618    2.3456 C   0  0  1  0  0  0  0  0  0  0  0  0
    4.5694   11.8196    1.4406 H   0  0  0  0  0  0  0  0  0  0  0  0
    4.9809   10.4731    6.9497 C   0  0  0  0  0  0  0  0  0  0  0  0
    4.2401   11.3093    7.7962 C   0  0  0  0  0  0  0  0  0  0  0  0
    4.1002   10.9433    9.1289 C   0  0  0  0  0  0  0  0  0  0  0  0
    3.5418   11.5788    9.7979 H   0  0  0  0  0  0  0  0  0  0  0  0
    4.6396    9.7675    9.6081 C   0  0  0  0  0  0  0  0  0  0  0  0
    4.5216    9.5010   10.6476 H   0  0  0  0  0  0  0  0  0  0  0  0
    5.2865    8.9090    8.7425 C   0  0  0  0  0  0  0  0  0  0  0  0
    5.6471    7.9614    9.1098 H   0  0  0  0  0  0  0  0  0  0  0  0
    5.4611    9.2352    7.4044 C   0  0  0  0  0  0  0  0  0  0  0  0
    7.7039   10.8881    5.5424 C   0  0  0  0  0  0  0  0  0  0  0  0
    8.5505   11.5281    5.3046 H   0  0  0  0  0  0  0  0  0  0  0  0
    7.8165    9.9633    4.9847 H   0  0  0  0  0  0  0  0  0  0  0  0
    7.7302   10.6672    6.6064 H   0  0  0  0  0  0  0  0  0  0  0  0
    6.4437   12.9804    5.8769 C   0  0  0  0  0  0  0  0  0  0  0  0
    5.5753   13.5824    5.6260 H   0  0  0  0  0  0  0  0  0  0  0  0
    7.3327   13.5201    5.5582 H   0  0  0  0  0  0  0  0  0  0  0  0
    6.4870   12.8532    6.9555 H   0  0  0  0  0  0  0  0  0  0  0  0
    5.0654    7.3912    1.4820 C   0  0  0  0  0  0  0  0  0  0  0  0
    5.6435    7.6785    0.6049 H   0  0  0  0  0  0  0  0  0  0  0  0
    4.2858    6.7019    1.1674 H   0  0  0  0  0  0  0  0  0  0  0  0
    5.7249    6.8693    2.1722 H   0  0  0  0  0  0  0  0  0  0  0  0
    3.4124   12.8846    2.9029 C   0  0  0  0  0  0  0  0  0  0  0  0
    4.0991   13.2772    3.6602 H   0  0  0  0  0  0  0  0  0  0  0  0
    2.0430   12.7516    3.5720 C   0  0  0  0  0  0  0  0  0  0  0  0
    1.8063   13.6744    4.0982 H   0  0  0  0  0  0  0  0  0  0  0  0
    2.0250   11.9311    4.3075 H   0  0  0  0  0  0  0  0  0  0  0  0
    1.2597   12.5769    2.8385 H   0  0  0  0  0  0  0  0  0  0  0  0
    3.3196   13.9227    1.7823 C   0  0  0  0  0  0  0  0  0  0  0  0
    2.6789   13.5614    0.9809 H   0  0  0  0  0  0  0  0  0  0  0  0
    4.3015   14.1392    1.3653 H   0  0  0  0  0  0  0  0  0  0  0  0
    2.8982   14.8519    2.1596 H   0  0  0  0  0  0  0  0  0  0  0  0
    3.5033   12.5344    7.3028 C   0  0  0  0  0  0  0  0  0  0  0  0
    3.7617   12.7077    6.2569 H   0  0  0  0  0  0  0  0  0  0  0  0
    1.9927   12.2819    7.3577 C   0  0  0  0  0  0  0  0  0  0  0  0
    1.7208   11.4503    6.7040 H   0  0  0  0  0  0  0  0  0  0  0  0
    1.4571   13.1694    7.0282 H   0  0  0  0  0  0  0  0  0  0  0  0
    1.6734   12.0396    8.3676 H   0  0  0  0  0  0  0  0  0  0  0  0
    3.8433   13.7873    8.1153 C   0  0  0  0  0  0  0  0  0  0  0  0
    3.4402   13.7174    9.1219 H   0  0  0  0  0  0  0  0  0  0  0  0
    3.4074   14.6640    7.6412 H   0  0  0  0  0  0  0  0  0  0  0  0
    4.9175   13.9366    8.1904 H   0  0  0  0  0  0  0  0  0  0  0  0
    6.0799    8.2070    6.4828 C   0  0  0  0  0  0  0  0  0  0  0  0
    6.2611    8.6646    5.5102 H   0  0  0  0  0  0  0  0  0  0  0  0
    5.1010    7.0510    6.2520 C   0  0  0  0  0  0  0  0  0  0  0  0
    4.7731    6.6226    7.1953 H   0  0  0  0  0  0  0  0  0  0  0  0
    5.5815    6.2721    5.6636 H   0  0  0  0  0  0  0  0  0  0  0  0
    4.2217    7.4027    5.7082 H   0  0  0  0  0  0  0  0  0  0  0  0
    7.4067    7.6657    7.0235 C   0  0  0  0  0  0  0  0  0  0  0  0
    8.0756    8.4724    7.3140 H   0  0  0  0  0  0  0  0  0  0  0  0
    7.9007    7.0686    6.2598 H   0  0  0  0  0  0  0  0  0  0  0  0
    7.2443    7.0297    7.8892 H   0  0  0  0  0  0  0  0  0  0  0  0
    2.1761   11.0535    1.3101 H   0  0  0  0  0  0  0  0  0  0  0  0
    2.3814   10.1800    2.8489 H   0  0  0  0  0  0  0  0  0  0  0  0
    3.8709    8.2804    3.0330 H   0  0  0  0  0  0  0  0  0  0  0  0
  1  7  1  0  0  0  0
  2  1  1  0  0  0  0
  3 22  1  0  0  0  0
  5  1  1  1  0  0  0
  5  3  1  0  0  0  0
  6 12  1  6  0  0  0
  6  8  1  0  0  0  0
  6  5  1  0  0  0  0
  7  4  1  0  0  0  0
  8 11  1  0  0  0  0
  9  8  1  0  0  0  0
 10  8  1  0  0  0  0
 11 31  1  0  0  0  0
 11  3  1  0  0  0  0
 11 35  1  0  0  0  0
 12 14  1  0  0  0  0
 13 12  1  0  0  0  0
 15 12  1  0  0  0  0
 15 75  1  1  0  0  0
 16 19  1  0  0  0  0
 16 15  1  0  0  0  0
 17 16  1  0  0  0  0
 18 16  1  0  0  0  0
 19 20  1  0  0  0  0
 19 74  1  0  0  0  0
 20 21  1  6  0  0  0
 20 43  1  0  0  0  0
 20  6  1  0  0  0  0
 22 30  2  0  0  0  0
 22 23  1  0  0  0  0
 23 24  2  0  0  0  0
 24 26  1  0  0  0  0
 24 25  1  0  0  0  0
 26 27  1  0  0  0  0
 28 29  1  0  0  0  0
 28 26  2  0  0  0  0
 30 28  1  0  0  0  0
 31 34  1  0  0  0  0
 32 31  1  0  0  0  0
 33 31  1  0  0  0  0
 35 38  1  0  0  0  0
 36 35  1  0  0  0  0
 37 35  1  0  0  0  0
 39 15  1  0  0  0  0
 39 42  1  0  0  0  0
 40 39  1  0  0  0  0
 41 39  1  0  0  0  0
 43 45  1  0  0  0  0
 43 44  1  0  0  0  0
 45 46  1  0  0  0  0
 45 47  1  0  0  0  0
 48 45  1  0  0  0  0
 49 52  1  0  0  0  0
 49 43  1  0  0  0  0
 50 49  1  0  0  0  0
 51 49  1  0  0  0  0
 53 55  1  0  0  0  0
 53 23  1  0  0  0  0
 53 59  1  0  0  0  0
 54 53  1  0  0  0  0
 55 58  1  0  0  0  0
 56 55  1  0  0  0  0
 57 55  1  0  0  0  0
 59 62  1  0  0  0  0
 59 60  1  0  0  0  0
 61 59  1  0  0  0  0
 63 69  1  0  0  0  0
 63 30  1  0  0  0  0
 64 63  1  0  0  0  0
 65 63  1  0  0  0  0
 65 66  1  0  0  0  0
 67 65  1  0  0  0  0
 68 65  1  0  0  0  0
 69 70  1  0  0  0  0
 69 72  1  0  0  0  0
 71 69  1  0  0  0  0
 73 19  1  0  0  0  0
M  END
$$$$
