CSD_code = CEFHIE | q = 0 | S = 0 | Stoichiometry = C20H16Cl2N4Ni | MND = 6
 OpenBabel04212202023D

 43 48  0  0  1  0  0  0  0  0999 V2000
   -1.3860   10.0928    2.3720 Ni  0  0  0  0  0  0  0  0  0  0  0  0
   -0.8052   11.5670    3.7710 Cl  0  0  0  0  0  0  0  0  0  0  0  0
    0.7803    9.9084    1.6448 N   0  0  0  0  0  0  0  0  0  0  0  0
   -0.6269    8.7359    3.5997 N   0  0  0  0  0  0  0  0  0  0  0  0
    1.3597   10.7581    0.8092 C   0  0  0  0  0  3  0  0  0  0  0  0
    2.6240   11.2853    1.0240 C   0  0  0  0  0  0  0  0  0  0  0  0
    3.3178   10.9011    2.1600 C   0  0  0  0  0  0  0  0  0  0  0  0
    2.7260   10.0051    3.0344 C   0  0  0  0  0  0  0  0  0  0  0  0
    1.4519    9.5298    2.7424 C   0  0  0  0  0  0  0  0  0  0  0  0
    0.7089    8.6354    3.6431 C   0  0  1  0  0  3  0  0  0  0  0  0
    1.3426    7.7412    4.5031 C   0  0  0  0  0  0  0  0  0  0  0  0
    0.5791    6.9648    5.3546 C   0  0  0  0  0  0  0  0  0  0  0  0
   -0.8003    7.0991    5.3182 C   0  0  0  0  0  0  0  0  0  0  0  0
   -1.3559    7.9913    4.4166 C   0  0  0  0  0  0  0  0  0  0  0  0
    0.7749   11.0353   -0.0584 H   0  0  0  0  0  0  0  0  0  0  0  0
    3.0483   11.9846    0.3212 H   0  0  0  0  0  0  0  0  0  0  0  0
    4.2993   11.2999    2.3694 H   0  0  0  0  0  0  0  0  0  0  0  0
    3.2262    9.7132    3.9441 H   0  0  0  0  0  0  0  0  0  0  0  0
    2.4176    7.6535    4.4938 H   0  0  0  0  0  0  0  0  0  0  0  0
    1.0498    6.2704    6.0346 H   0  0  0  0  0  0  0  0  0  0  0  0
   -1.4351    6.5245    5.9738 H   0  0  0  0  0  0  0  0  0  0  0  0
   -2.4281    8.1245    4.3532 H   0  0  0  0  0  0  0  0  0  0  0  0
   -1.9670   11.5665    0.9725 Cl  0  0  0  0  0  0  0  0  0  0  0  0
   -3.5523    9.9088    3.0990 N   0  0  0  0  0  0  0  0  0  0  0  0
   -4.1316   10.7585    3.9346 C   0  0  0  0  0  3  0  0  0  0  0  0
   -5.3960   11.2853    3.7200 C   0  0  0  0  0  0  0  0  0  0  0  0
   -6.0901   10.9008    2.5843 C   0  0  0  0  0  0  0  0  0  0  0  0
   -5.4983   10.0048    1.7098 C   0  0  0  0  0  0  0  0  0  0  0  0
   -4.2240    9.5299    2.0015 C   0  0  0  0  0  0  0  0  0  0  0  0
   -3.4810    8.6356    1.1008 C   0  0  2  0  0  3  0  0  0  0  0  0
   -2.1453    8.7363    1.1439 N   0  0  0  0  0  0  0  0  0  0  0  0
   -1.4163    7.9917    0.3270 C   0  0  0  0  0  0  0  0  0  0  0  0
   -1.9719    7.0993   -0.5744 C   0  0  0  0  0  0  0  0  0  0  0  0
   -3.3513    6.9648   -0.6105 C   0  0  0  0  0  0  0  0  0  0  0  0
   -4.1148    7.7412    0.2410 C   0  0  0  0  0  0  0  0  0  0  0  0
   -5.1898    7.6534    0.2504 H   0  0  0  0  0  0  0  0  0  0  0  0
   -3.8220    6.2703   -1.2905 H   0  0  0  0  0  0  0  0  0  0  0  0
   -1.3371    6.5246   -1.2300 H   0  0  0  0  0  0  0  0  0  0  0  0
   -0.3440    8.1247    0.3905 H   0  0  0  0  0  0  0  0  0  0  0  0
   -5.9985    9.7128    0.8002 H   0  0  0  0  0  0  0  0  0  0  0  0
   -7.0716   11.2995    2.3749 H   0  0  0  0  0  0  0  0  0  0  0  0
   -5.8203   11.9846    4.4228 H   0  0  0  0  0  0  0  0  0  0  0  0
   -3.5467   11.0356    4.8022 H   0  0  0  0  0  0  0  0  0  0  0  0
  1 24  1  0  0  0  0
  1  4  1  0  0  0  0
  1  2  1  0  0  0  0
  3  1  1  0  0  0  0
  3  9  1  0  0  0  0
  4 10  1  0  0  0  0
  4 14  1  0  0  0  0
  5  6  1  0  0  0  0
  5  3  1  0  0  0  0
  6  7  2  0  0  0  0
  7 17  1  0  0  0  0
  7  8  1  0  0  0  0
  8 18  1  0  0  0  0
  9  8  2  0  0  0  0
 10  9  1  1  0  0  0
 10 11  1  0  0  0  0
 11 12  2  0  0  0  0
 12 20  1  0  0  0  0
 13 12  1  0  0  0  0
 13 21  1  0  0  0  0
 14 13  2  0  0  0  0
 15  5  1  0  0  0  0
 16  6  1  0  0  0  0
 19 11  1  0  0  0  0
 22 14  1  0  0  0  0
 23  1  1  0  0  0  0
 24 25  1  0  0  0  0
 25 43  1  0  0  0  0
 26 25  1  0  0  0  0
 26 42  1  0  0  0  0
 27 26  2  0  0  0  0
 28 29  2  0  0  0  0
 28 27  1  0  0  0  0
 29 24  1  0  0  0  0
 30 35  1  6  0  0  0
 30 31  1  0  0  0  0
 30 29  1  0  0  0  0
 31  1  1  0  0  0  0
 32 39  1  0  0  0  0
 32 31  1  0  0  0  0
 33 32  2  0  0  0  0
 34 33  1  0  0  0  0
 34 35  2  0  0  0  0
 35 36  1  0  0  0  0
 37 34  1  0  0  0  0
 38 33  1  0  0  0  0
 40 28  1  0  0  0  0
 41 27  1  0  0  0  0
M  END
$$$$
