CSD_code = CEFJEC | q = 0 | S = 0 | Stoichiometry = C14H20B10Cl4P2Pd | MND = 4
 OpenBabel04212202023D

 51 56  0  0  1  0  0  0  0  0999 V2000
   -0.8867    1.4808    2.0463 Pd  0  0  0  0  0  0  0  0  0  0  0  0
   -1.0708    2.0445   -0.1516 Cl  0  0  0  0  0  0  0  0  0  0  0  0
   -3.0901    1.0767    2.4507 Cl  0  0  0  0  0  0  0  0  0  0  0  0
   -1.5746    1.3695    5.6517 Cl  0  0  0  0  0  0  0  0  0  0  0  0
    2.3849    1.4069    0.3837 Cl  0  0  0  0  0  0  0  0  0  0  0  0
   -0.5549    0.7404    4.1044 P   0  0  1  0  0  0  0  0  0  0  0  0
    1.2389    2.0542    1.8319 P   0  0  1  0  0  0  0  0  0  0  0  0
    1.3130    3.8649    1.6834 C   0  0  0  0  0  0  0  0  0  0  0  0
    0.1583    4.5649    2.0292 C   0  0  0  0  0  0  0  0  0  0  0  0
    0.1322    5.9433    1.9281 C   0  0  0  0  0  0  0  0  0  0  0  0
    1.2522    6.6243    1.4768 C   0  0  0  0  0  0  0  0  0  0  0  0
    2.3952    5.9283    1.1182 C   0  0  0  0  0  0  0  0  0  0  0  0
    2.4299    4.5489    1.2177 C   0  0  0  0  0  0  0  0  0  0  0  0
   -0.8251   -1.0579    4.0945 C   0  0  0  0  0  0  0  0  0  0  0  0
   -1.0196   -1.8081    5.2484 C   0  0  0  0  0  0  0  0  0  0  0  0
   -1.2391   -3.1705    5.1498 C   0  0  0  0  0  0  0  0  0  0  0  0
   -1.2693   -3.7835    3.9077 C   0  0  0  0  0  0  0  0  0  0  0  0
   -1.0896   -3.0351    2.7547 C   0  0  0  0  0  0  0  0  0  0  0  0
   -0.8708   -1.6731    2.8446 C   0  0  0  0  0  0  0  0  0  0  0  0
    2.1475    1.6661    3.4114 C   0  0  2  0  0  0  0  0  0  0  0  0
    1.2397    0.9532    4.5574 C   0  0  2  0  0  0  0  0  0  0  0  0
    1.7193    2.5756    4.7963 B   0  0  1  0  0  0  0  0  0  0  0  0
    3.7854   -0.1110    4.7547 B   0  0  0  0  0  2  0  0  0  0  0  0
    3.4028    0.7746    6.2662 B   0  0  0  0  0  0  0  0  0  0  0  0
    4.3925    1.5615    5.0176 B   0  0  0  0  0  0  0  0  0  0  0  0
    1.7548    1.4031    6.1231 B   0  0  2  0  0  0  0  0  0  0  0  0
    3.1215    2.5042    5.8611 B   0  0  0  0  0  2  0  0  0  0  0  0
    2.1517   -0.1829    5.4472 B   0  0  2  0  0  0  0  0  0  0  0  0
    2.3750   -0.0018    3.7042 B   0  0  1  0  0  0  0  0  0  0  0  0
    3.7519    1.0801    3.4396 B   0  0  2  0  0  0  0  0  0  0  0  0
    3.3432    2.6669    4.1068 B   0  0  1  0  0  0  0  0  0  0  0  0
   -0.7395    4.0211    2.3544 H   0  0  0  0  0  0  0  0  0  0  0  0
   -0.7636    6.4859    2.1890 H   0  0  0  0  0  0  0  0  0  0  0  0
    1.2286    7.7001    1.3915 H   0  0  0  0  0  0  0  0  0  0  0  0
    3.2605    6.4605    0.7532 H   0  0  0  0  0  0  0  0  0  0  0  0
    3.3148    4.0026    0.9246 H   0  0  0  0  0  0  0  0  0  0  0  0
   -1.0109   -1.3253    6.2149 H   0  0  0  0  0  0  0  0  0  0  0  0
   -1.3940   -3.7538    6.0448 H   0  0  0  0  0  0  0  0  0  0  0  0
   -1.4474   -4.8457    3.8365 H   0  0  0  0  0  0  0  0  0  0  0  0
   -1.1323   -3.5115    1.7872 H   0  0  0  0  0  0  0  0  0  0  0  0
   -0.7618   -1.0733    1.9303 H   0  0  0  0  0  0  0  0  0  0  0  0
    0.8808    3.3900    4.6509 H   0  0  0  0  0  0  0  0  0  0  0  0
    4.4941   -1.0451    4.7302 H   0  0  0  0  0  0  0  0  0  0  0  0
    3.8397    0.4467    7.3044 H   0  0  0  0  0  0  0  0  0  0  0  0
    5.5338    1.7879    5.1663 H   0  0  0  0  0  0  0  0  0  0  0  0
    0.9480    1.4851    6.9683 H   0  0  0  0  0  0  0  0  0  0  0  0
    3.3687    3.3769    6.6045 H   0  0  0  0  0  0  0  0  0  0  0  0
    1.6021   -1.1413    5.8419 H   0  0  0  0  0  0  0  0  0  0  0  0
    1.9392   -0.7344    2.8915 H   0  0  0  0  0  0  0  0  0  0  0  0
    4.3338    1.0128    2.4252 H   0  0  0  0  0  0  0  0  0  0  0  0
    3.6493    3.6409    3.5289 H   0  0  0  0  0  0  0  0  0  0  0  0
  1  3  1  0  0  0  0
  1  6  1  0  0  0  0
  2  1  1  0  0  0  0
  6  4  1  1  0  0  0
  7  5  1  6  0  0  0
  7  1  1  0  0  0  0
  8  7  1  0  0  0  0
  8  9  1  0  0  0  0
  9 32  1  0  0  0  0
 10  9  2  0  0  0  0
 10 33  1  0  0  0  0
 11 10  1  0  0  0  0
 12 13  1  0  0  0  0
 12 11  2  0  0  0  0
 13  8  2  0  0  0  0
 14  6  1  0  0  0  0
 14 15  1  0  0  0  0
 15 37  1  0  0  0  0
 16 15  2  0  0  0  0
 16 38  1  0  0  0  0
 17 16  1  0  0  0  0
 18 19  1  0  0  0  0
 18 17  2  0  0  0  0
 19 14  2  0  0  0  0
 20 30  1  0  0  0  0
 20 29  1  0  0  0  0
 20 31  1  0  0  0  0
 20 21  1  0  0  0  0
 21 22  1  0  0  0  0
 21 28  1  0  0  0  0
 21 26  1  0  0  0  0
 22 27  1  0  0  0  0
 24 44  1  0  0  0  0
 25 45  1  0  0  0  0
 25 24  1  0  0  0  0
 26 24  1  0  0  0  0
 26 46  1  0  0  0  0
 27 47  1  0  0  0  0
 28 48  1  0  0  0  0
 28 26  1  0  0  0  0
 29 23  1  0  0  0  0
 29 28  1  0  0  0  0
 30 31  1  0  0  0  0
 30 25  1  0  0  0  0
 31 22  1  0  0  0  0
 34 11  1  0  0  0  0
 35 12  1  0  0  0  0
 36 13  1  0  0  0  0
 39 17  1  0  0  0  0
 40 18  1  0  0  0  0
 41 19  1  0  0  0  0
 42 22  1  0  0  0  0
 43 23  1  0  0  0  0
 49 29  1  0  0  0  0
 50 30  1  0  0  0  0
 51 31  1  0  0  0  0
M  END
$$$$
