CSD_code = CEFQAI | q = 0 | S = 0 | Stoichiometry = C37H56Cl2HfO2S2 | MND = 6
 OpenBabel04212202023D

100105  0  0  1  0  0  0  0  0999 V2000
   -0.8729    3.8390    4.7501 Hf  0  0  0  0  0  0  0  0  0  0  0  0
    1.8987    3.6335    5.0429 S   0  0  2  0  0  3  0  0  0  0  0  0
   -0.8021    6.1480    4.8394 Cl  0  0  0  0  0  0  0  0  0  0  0  0
   -0.3586    1.0962    4.6311 S   0  0  1  0  0  3  0  0  0  0  0  0
   -3.1665    3.6051    4.5635 Cl  0  0  0  0  0  0  0  0  0  0  0  0
   -0.8921    3.5086    6.5609 O   0  0  0  0  0  0  0  0  0  0  0  0
   -0.4684    3.7888    2.9527 O   0  0  0  0  0  0  0  0  0  0  0  0
    2.7449    3.4805    1.3135 C   0  0  0  0  0  0  0  0  0  0  0  0
    3.7660    3.7656    1.5205 H   0  0  0  0  0  0  0  0  0  0  0  0
    0.4226    3.4708    2.0235 C   0  0  0  0  0  0  0  0  0  0  0  0
   -1.3961    2.5116    0.5294 C   0  0  0  0  0  0  0  0  0  0  0  0
    1.0789    2.5111   -0.0742 C   0  0  0  0  0  0  0  0  0  0  0  0
    0.8097    2.0121   -0.9861 H   0  0  0  0  0  0  0  0  0  0  0  0
    0.0677    2.8192    0.8233 C   0  0  0  0  0  0  0  0  0  0  0  0
    2.4188    2.8209    0.1379 C   0  0  0  0  0  0  0  0  0  0  0  0
   -0.6402    2.6855    7.5693 C   0  0  0  0  0  0  0  0  0  0  0  0
   -0.1666    3.1413    8.8174 C   0  0  0  0  0  0  0  0  0  0  0  0
    1.0296    5.2125    8.0758 C   0  0  0  0  0  0  0  0  0  0  0  0
    1.9570    4.6426    8.1090 H   0  0  0  0  0  0  0  0  0  0  0  0
    1.2474    6.2466    8.3319 H   0  0  0  0  0  0  0  0  0  0  0  0
    0.6430    5.1975    7.0564 H   0  0  0  0  0  0  0  0  0  0  0  0
   -0.5633    0.4031    8.3894 C   0  0  0  0  0  0  0  0  0  0  0  0
   -0.7417   -0.6457    8.2021 H   0  0  0  0  0  0  0  0  0  0  0  0
    1.7711    3.8182    2.2406 C   0  0  0  0  0  0  0  0  0  0  0  0
   -0.8659    1.3073    7.3844 C   0  0  0  0  0  0  0  0  0  0  0  0
   -2.1894    3.8266    0.5283 C   0  0  0  0  0  0  0  0  0  0  0  0
   -2.1317    4.3177    1.4976 H   0  0  0  0  0  0  0  0  0  0  0  0
   -3.2365    3.6282    0.3118 H   0  0  0  0  0  0  0  0  0  0  0  0
   -1.7974    4.5042   -0.2281 H   0  0  0  0  0  0  0  0  0  0  0  0
    1.3446    0.9824    5.3498 C   0  0  1  0  0  0  0  0  0  0  0  0
    1.2713    1.3700    6.3723 H   0  0  0  0  0  0  0  0  0  0  0  0
   -1.3508    5.3317    8.8615 C   0  0  0  0  0  0  0  0  0  0  0  0
   -1.7139    5.1938    7.8447 H   0  0  0  0  0  0  0  0  0  0  0  0
   -1.2498    6.3995    9.0419 H   0  0  0  0  0  0  0  0  0  0  0  0
   -2.0897    4.9281    9.5514 H   0  0  0  0  0  0  0  0  0  0  0  0
    1.7857   -0.4789    5.4073 C   0  0  0  0  0  0  0  0  0  0  0  0
    2.5909   -0.5790    6.1377 H   0  0  0  0  0  0  0  0  0  0  0  0
    0.9399   -1.0542    5.7866 H   0  0  0  0  0  0  0  0  0  0  0  0
   -0.0686    0.8284    9.6127 C   0  0  0  0  0  0  0  0  0  0  0  0
    4.1071    3.8407   -1.3664 C   0  0  0  0  0  0  0  0  0  0  0  0
    4.5646    4.3906   -0.5486 H   0  0  0  0  0  0  0  0  0  0  0  0
    3.3302    4.4645   -1.8027 H   0  0  0  0  0  0  0  0  0  0  0  0
    4.8676    3.6560   -2.1221 H   0  0  0  0  0  0  0  0  0  0  0  0
    0.7641    0.4361   11.9832 C   0  0  0  0  0  0  0  0  0  0  0  0
    0.9712   -0.3453   12.7117 H   0  0  0  0  0  0  0  0  0  0  0  0
    0.0253    1.1075   12.4136 H   0  0  0  0  0  0  0  0  0  0  0  0
    1.6870    0.9838   11.8079 H   0  0  0  0  0  0  0  0  0  0  0  0
    4.6051    1.6604   -0.2278 C   0  0  0  0  0  0  0  0  0  0  0  0
    5.3931    1.4531   -0.9485 H   0  0  0  0  0  0  0  0  0  0  0  0
    4.1941    0.7114    0.1111 H   0  0  0  0  0  0  0  0  0  0  0  0
    5.0517    2.1669    0.6233 H   0  0  0  0  0  0  0  0  0  0  0  0
    2.9829    1.7514   -2.1000 C   0  0  0  0  0  0  0  0  0  0  0  0
    2.2462    2.3389   -2.6421 H   0  0  0  0  0  0  0  0  0  0  0  0
    2.5402    0.8016   -1.8090 H   0  0  0  0  0  0  0  0  0  0  0  0
    3.8082    1.5435   -2.7780 H   0  0  0  0  0  0  0  0  0  0  0  0
    0.4886    4.9474   10.4826 C   0  0  0  0  0  0  0  0  0  0  0  0
   -0.2125    4.5803   11.2286 H   0  0  0  0  0  0  0  0  0  0  0  0
    0.5671    6.0258   10.6022 H   0  0  0  0  0  0  0  0  0  0  0  0
    1.4709    4.5182   10.6680 H   0  0  0  0  0  0  0  0  0  0  0  0
    0.2432   -0.1988   10.6912 C   0  0  0  0  0  0  0  0  0  0  0  0
    0.0034    4.6359    9.0627 C   0  0  0  0  0  0  0  0  0  0  0  0
    3.5081    2.5132   -0.8801 C   0  0  0  0  0  0  0  0  0  0  0  0
   -1.5946    1.8385   -0.8331 C   0  0  0  0  0  0  0  0  0  0  0  0
   -1.2386    2.4720   -1.6423 H   0  0  0  0  0  0  0  0  0  0  0  0
   -2.6567    1.6639   -0.9907 H   0  0  0  0  0  0  0  0  0  0  0  0
   -1.0878    0.8769   -0.8772 H   0  0  0  0  0  0  0  0  0  0  0  0
   -1.4549    0.8358    6.0999 C   0  0  0  0  0  0  0  0  0  0  0  0
   -2.3570    1.4019    5.8399 H   0  0  0  0  0  0  0  0  0  0  0  0
   -1.6844   -0.2293    6.1363 H   0  0  0  0  0  0  0  0  0  0  0  0
    4.1443    0.5742    3.5114 C   0  0  0  0  0  0  0  0  0  0  0  0
    3.7145    0.8816    2.5559 H   0  0  0  0  0  0  0  0  0  0  0  0
    5.2309    0.6037    3.4076 H   0  0  0  0  0  0  0  0  0  0  0  0
    2.1308    4.5830    3.4677 C   0  0  0  0  0  0  0  0  0  0  0  0
    1.4775    5.4519    3.6056 H   0  0  0  0  0  0  0  0  0  0  0  0
    3.1726    4.9027    3.4447 H   0  0  0  0  0  0  0  0  0  0  0  0
    0.1069    2.1965    9.7949 C   0  0  0  0  0  0  0  0  0  0  0  0
    0.4723    2.5421   10.7438 H   0  0  0  0  0  0  0  0  0  0  0  0
    2.2388   -1.0552    4.0656 C   0  0  0  0  0  0  0  0  0  0  0  0
    1.6550   -0.6094    3.2588 H   0  0  0  0  0  0  0  0  0  0  0  0
    2.0337   -2.1271    4.0632 H   0  0  0  0  0  0  0  0  0  0  0  0
    3.7334   -0.8637    3.8130 C   0  0  0  0  0  0  0  0  0  0  0  0
    4.0292   -1.4846    2.9646 H   0  0  0  0  0  0  0  0  0  0  0  0
    4.2849   -1.2219    4.6855 H   0  0  0  0  0  0  0  0  0  0  0  0
    2.2331    1.8944    4.5081 C   0  0  2  0  0  0  0  0  0  0  0  0
    1.9168    1.8516    3.4600 H   0  0  0  0  0  0  0  0  0  0  0  0
    3.7277    1.5871    4.5777 C   0  0  0  0  0  0  0  0  0  0  0  0
    4.2693    2.5166    4.3953 H   0  0  0  0  0  0  0  0  0  0  0  0
    4.0014    1.2415    5.5743 H   0  0  0  0  0  0  0  0  0  0  0  0
   -1.9605    1.5719    1.6049 C   0  0  0  0  0  0  0  0  0  0  0  0
   -1.3354    0.6862    1.7078 H   0  0  0  0  0  0  0  0  0  0  0  0
   -2.9650    1.2584    1.3306 H   0  0  0  0  0  0  0  0  0  0  0  0
   -2.0229    2.0756    2.5703 H   0  0  0  0  0  0  0  0  0  0  0  0
   -1.0365   -0.9777   11.0266 C   0  0  0  0  0  0  0  0  0  0  0  0
   -1.4108   -1.5188   10.1622 H   0  0  0  0  0  0  0  0  0  0  0  0
   -1.8135   -0.2948   11.3627 H   0  0  0  0  0  0  0  0  0  0  0  0
   -0.8413   -1.6968   11.8193 H   0  0  0  0  0  0  0  0  0  0  0  0
    1.3159   -1.1640   10.1664 C   0  0  0  0  0  0  0  0  0  0  0  0
    0.9770   -1.6867    9.2761 H   0  0  0  0  0  0  0  0  0  0  0  0
    1.5567   -1.9054   10.9253 H   0  0  0  0  0  0  0  0  0  0  0  0
    2.2235   -0.6176    9.9178 H   0  0  0  0  0  0  0  0  0  0  0  0
  1  3  1  0  0  0  0
  1  2  1  0  0  0  0
  1  6  1  0  0  0  0
  2 73  1  6  0  0  0
  4  1  1  0  0  0  0
  4 30  1  0  0  0  0
  4 67  1  1  0  0  0
  5  1  1  0  0  0  0
  6 16  1  0  0  0  0
  7  1  1  0  0  0  0
  8  9  1  0  0  0  0
  8 24  1  0  0  0  0
 10 24  2  0  0  0  0
 10  7  1  0  0  0  0
 11 14  1  0  0  0  0
 11 89  1  0  0  0  0
 12 15  1  0  0  0  0
 12 14  2  0  0  0  0
 13 12  1  0  0  0  0
 14 10  1  0  0  0  0
 15  8  2  0  0  0  0
 16 17  1  0  0  0  0
 17 61  1  0  0  0  0
 17 76  2  0  0  0  0
 18 19  1  0  0  0  0
 18 20  1  0  0  0  0
 18 61  1  0  0  0  0
 21 18  1  0  0  0  0
 22 39  2  0  0  0  0
 23 22  1  0  0  0  0
 24 73  1  0  0  0  0
 25 16  2  0  0  0  0
 25 22  1  0  0  0  0
 26 11  1  0  0  0  0
 26 27  1  0  0  0  0
 28 26  1  0  0  0  0
 29 26  1  0  0  0  0
 30 36  1  0  0  0  0
 30 31  1  1  0  0  0
 32 34  1  0  0  0  0
 32 61  1  0  0  0  0
 32 35  1  0  0  0  0
 33 32  1  0  0  0  0
 36 38  1  0  0  0  0
 36 37  1  0  0  0  0
 39 76  1  0  0  0  0
 39 60  1  0  0  0  0
 40 62  1  0  0  0  0
 40 41  1  0  0  0  0
 42 40  1  0  0  0  0
 43 40  1  0  0  0  0
 44 46  1  0  0  0  0
 44 45  1  0  0  0  0
 47 44  1  0  0  0  0
 48 50  1  0  0  0  0
 48 51  1  0  0  0  0
 49 48  1  0  0  0  0
 52 54  1  0  0  0  0
 52 62  1  0  0  0  0
 53 52  1  0  0  0  0
 55 52  1  0  0  0  0
 56 58  1  0  0  0  0
 56 59  1  0  0  0  0
 56 57  1  0  0  0  0
 60 93  1  0  0  0  0
 60 44  1  0  0  0  0
 61 56  1  0  0  0  0
 62 48  1  0  0  0  0
 62 15  1  0  0  0  0
 63 11  1  0  0  0  0
 64 63  1  0  0  0  0
 65 63  1  0  0  0  0
 66 63  1  0  0  0  0
 67 69  1  0  0  0  0
 67 25  1  0  0  0  0
 68 67  1  0  0  0  0
 70 81  1  0  0  0  0
 70 86  1  0  0  0  0
 71 70  1  0  0  0  0
 72 70  1  0  0  0  0
 73 74  1  0  0  0  0
 75 73  1  0  0  0  0
 76 77  1  0  0  0  0
 78 36  1  0  0  0  0
 79 78  1  0  0  0  0
 80 78  1  0  0  0  0
 81 78  1  0  0  0  0
 81 83  1  0  0  0  0
 82 81  1  0  0  0  0
 84 85  1  6  0  0  0
 84 86  1  0  0  0  0
 84  2  1  0  0  0  0
 84 30  1  0  0  0  0
 86 88  1  0  0  0  0
 87 86  1  0  0  0  0
 89 90  1  0  0  0  0
 89 92  1  0  0  0  0
 91 89  1  0  0  0  0
 93 95  1  0  0  0  0
 93 96  1  0  0  0  0
 94 93  1  0  0  0  0
 97 60  1  0  0  0  0
 97 99  1  0  0  0  0
 98 97  1  0  0  0  0
100 97  1  0  0  0  0
M  END
$$$$
