CSD_code = CEFYOE | q = 0 | S = 0 | Stoichiometry = C37H38ClIrN2 | MND = 6
 OpenBabel04212202023D

 79 83  0  0  1  0  0  0  0  0999 V2000
    0.7032   13.8098    8.0762 Ir  0  0  0  0  0  0  0  0  0  0  0  0
    3.0719   13.9975    8.5449 Cl  0  0  0  0  0 15  0  0  0  0  0  0
    0.2881   13.0829   10.0913 C   0  0  0  0  0  3  0  0  0  0  0  0
    1.1881   12.5658   10.4133 H   0  0  0  0  0  0  0  0  0  0  0  0
   -0.9830   12.2709   10.1797 C   0  0  0  0  0  0  0  0  0  0  0  0
   -0.7820   11.3496   10.7298 H   0  0  0  0  0  0  0  0  0  0  0  0
   -1.7240   12.8332   10.7508 H   0  0  0  0  0  0  0  0  0  0  0  0
   -1.5411   11.9106    8.7918 C   0  0  0  0  0  0  0  0  0  0  0  0
   -2.6311   11.8080    8.8386 H   0  0  0  0  0  0  0  0  0  0  0  0
   -1.1388   10.9424    8.4860 H   0  0  0  0  0  0  0  0  0  0  0  0
   -1.1732   12.9110    7.7195 C   0  0  1  0  0  0  0  0  0  0  0  0
   -1.2622   12.4763    6.7278 H   0  0  0  0  0  0  0  0  0  0  0  0
    1.3442   13.9101    6.1509 C   0  0  0  0  0  3  0  0  0  0  0  0
    1.6096   12.7952    5.4450 N   0  0  0  0  0  0  0  0  0  0  0  0
    2.2242   12.7915    4.1258 C   0  0  0  0  0  0  0  0  0  0  0  0
    2.0482   11.8175    3.6670 H   0  0  0  0  0  0  0  0  0  0  0  0
    1.7290   13.5446    3.5070 H   0  0  0  0  0  0  0  0  0  0  0  0
    3.7256   13.0617    4.1984 C   0  0  0  0  0  0  0  0  0  0  0  0
    4.0953   13.2169    3.1826 H   0  0  0  0  0  0  0  0  0  0  0  0
    4.2403   12.1956    4.6176 H   0  0  0  0  0  0  0  0  0  0  0  0
    1.3036   11.5197    5.9926 C   0  0  0  0  0  0  0  0  0  0  0  0
    1.8997   11.1342    7.1894 C   0  0  0  0  0  0  0  0  0  0  0  0
    2.6199   11.7878    7.6524 H   0  0  0  0  0  0  0  0  0  0  0  0
    1.6209    9.9030    7.7568 C   0  0  0  0  0  0  0  0  0  0  0  0
    2.0884    9.6260    8.6891 H   0  0  0  0  0  0  0  0  0  0  0  0
    0.7571    9.0303    7.1199 C   0  0  0  0  0  0  0  0  0  0  0  0
    0.5301    8.0679    7.5541 H   0  0  0  0  0  0  0  0  0  0  0  0
    0.1927    9.3908    5.9107 C   0  0  0  0  0  0  0  0  0  0  0  0
   -0.4809    8.7134    5.4055 H   0  0  0  0  0  0  0  0  0  0  0  0
    0.4469   10.6315    5.3308 C   0  0  0  0  0  0  0  0  0  0  0  0
   -0.2253   10.9267    4.0478 C   0  0  0  0  0  0  0  0  0  0  0  0
   -1.0815   12.0121    3.9026 C   0  0  0  0  0  0  0  0  0  0  0  0
   -1.2286   12.6890    4.7303 H   0  0  0  0  0  0  0  0  0  0  0  0
   -1.7728   12.2102    2.7207 C   0  0  0  0  0  0  0  0  0  0  0  0
   -2.4580   13.0412    2.6353 H   0  0  0  0  0  0  0  0  0  0  0  0
   -1.5977   11.3418    1.6567 C   0  0  0  0  0  0  0  0  0  0  0  0
   -2.1353   11.4992    0.7332 H   0  0  0  0  0  0  0  0  0  0  0  0
   -0.7346   10.2662    1.7847 C   0  0  0  0  0  0  0  0  0  0  0  0
   -0.5929    9.5850    0.9585 H   0  0  0  0  0  0  0  0  0  0  0  0
   -0.0637   10.0531    2.9744 C   0  0  0  0  0  0  0  0  0  0  0  0
    0.6005    9.2065    3.0771 H   0  0  0  0  0  0  0  0  0  0  0  0
    0.3024   14.4628   10.0969 C   0  0  0  0  0  3  0  0  0  0  0  0
    1.1977   14.9611   10.4615 H   0  0  0  0  0  0  0  0  0  0  0  0
   -0.9329   15.3313   10.1250 C   0  0  0  0  0  0  0  0  0  0  0  0
   -0.6227   16.3652    9.9675 H   0  0  0  0  0  0  0  0  0  0  0  0
   -1.3904   15.2780   11.1192 H   0  0  0  0  0  0  0  0  0  0  0  0
   -1.9693   14.9566    9.0477 C   0  0  0  0  0  0  0  0  0  0  0  0
   -2.7188   14.2802    9.4633 H   0  0  0  0  0  0  0  0  0  0  0  0
   -2.4907   15.8637    8.7365 H   0  0  0  0  0  0  0  0  0  0  0  0
   -1.3441   14.3056    7.8289 C   0  0  0  0  0  3  0  0  0  0  0  0
   -1.5197   14.8535    6.9046 H   0  0  0  0  0  0  0  0  0  0  0  0
    1.7348   15.0939    5.6346 N   0  0  0  0  0  0  0  0  0  0  0  0
    2.9452   15.3692    4.8550 C   0  0  0  0  0  0  0  0  0  0  0  0
    3.3346   16.3201    5.2332 H   0  0  0  0  0  0  0  0  0  0  0  0
    2.7185   15.5073    3.7912 H   0  0  0  0  0  0  0  0  0  0  0  0
    4.0027   14.2918    5.0616 C   0  0  0  0  0  0  0  0  0  0  0  0
    4.9855   14.6986    4.8206 H   0  0  0  0  0  0  0  0  0  0  0  0
    4.0074   14.0224    6.1202 H   0  0  0  0  0  0  0  0  0  0  0  0
    1.0895   16.2858    6.0889 C   0  0  0  0  0  0  0  0  0  0  0  0
    1.2345   16.7236    7.3983 C   0  0  0  0  0  0  0  0  0  0  0  0
    1.8769   16.1745    8.0670 H   0  0  0  0  0  0  0  0  0  0  0  0
    0.6118   17.8838    7.8245 C   0  0  0  0  0  0  0  0  0  0  0  0
    0.7378   18.2176    8.8435 H   0  0  0  0  0  0  0  0  0  0  0  0
   -0.1500   18.6260    6.9389 C   0  0  0  0  0  0  0  0  0  0  0  0
   -0.6469   19.5269    7.2676 H   0  0  0  0  0  0  0  0  0  0  0  0
   -0.2475   18.2272    5.6197 C   0  0  0  0  0  0  0  0  0  0  0  0
   -0.8193   18.8152    4.9162 H   0  0  0  0  0  0  0  0  0  0  0  0
    0.3722   17.0629    5.1728 C   0  0  0  0  0  0  0  0  0  0  0  0
    0.3062   16.7160    3.7413 C   0  0  0  0  0  0  0  0  0  0  0  0
   -0.1114   15.4615    3.3102 C   0  0  0  0  0  0  0  0  0  0  0  0
   -0.4367   14.7332    4.0373 H   0  0  0  0  0  0  0  0  0  0  0  0
   -0.1199   15.1512    1.9617 C   0  0  0  0  0  0  0  0  0  0  0  0
   -0.4320   14.1680    1.6409 H   0  0  0  0  0  0  0  0  0  0  0  0
    0.2749   16.0933    1.0269 C   0  0  0  0  0  0  0  0  0  0  0  0
    0.2702   15.8475   -0.0246 H   0  0  0  0  0  0  0  0  0  0  0  0
    0.6721   17.3525    1.4455 C   0  0  0  0  0  0  0  0  0  0  0  0
    0.9755   18.0930    0.7200 H   0  0  0  0  0  0  0  0  0  0  0  0
    0.6884   17.6617    2.7928 C   0  0  0  0  0  0  0  0  0  0  0  0
    1.0168   18.6372    3.1214 H   0  0  0  0  0  0  0  0  0  0  0  0
  3 42  1  0  0  0  0
  3  5  1  0  0  0  0
  3  4  1  0  0  0  0
  5  6  1  0  0  0  0
  5  7  1  0  0  0  0
  8  9  1  0  0  0  0
  8  5  1  0  0  0  0
 10  8  1  0  0  0  0
 11 12  1  6  0  0  0
 11 50  1  0  0  0  0
 11  1  1  0  0  0  0
 11  8  1  0  0  0  0
 13  1  1  0  0  0  0
 14 21  1  0  0  0  0
 14 13  1  0  0  0  0
 15 18  1  0  0  0  0
 15 14  1  0  0  0  0
 16 15  1  0  0  0  0
 17 15  1  0  0  0  0
 18 20  1  0  0  0  0
 18 56  1  0  0  0  0
 19 18  1  0  0  0  0
 21 22  1  0  0  0  0
 22 23  1  0  0  0  0
 22 24  2  0  0  0  0
 24 25  1  0  0  0  0
 26 27  1  0  0  0  0
 26 24  1  0  0  0  0
 28 26  2  0  0  0  0
 29 28  1  0  0  0  0
 30 28  1  0  0  0  0
 30 21  2  0  0  0  0
 31 30  1  0  0  0  0
 32 31  1  0  0  0  0
 32 33  1  0  0  0  0
 34 32  2  0  0  0  0
 35 34  1  0  0  0  0
 36 38  2  0  0  0  0
 36 34  1  0  0  0  0
 37 36  1  0  0  0  0
 38 40  1  0  0  0  0
 39 38  1  0  0  0  0
 40 41  1  0  0  0  0
 40 31  2  0  0  0  0
 42 44  1  0  0  0  0
 42 43  1  0  0  0  0
 44 46  1  0  0  0  0
 45 44  1  0  0  0  0
 47 48  1  0  0  0  0
 47 44  1  0  0  0  0
 49 47  1  0  0  0  0
 50 47  1  0  0  0  0
 51 50  1  0  0  0  0
 52 59  1  0  0  0  0
 52 13  1  0  0  0  0
 53 56  1  0  0  0  0
 53 54  1  0  0  0  0
 53 52  1  0  0  0  0
 55 53  1  0  0  0  0
 56 58  1  0  0  0  0
 57 56  1  0  0  0  0
 59 60  1  0  0  0  0
 60 62  2  0  0  0  0
 60 61  1  0  0  0  0
 62 63  1  0  0  0  0
 64 65  1  0  0  0  0
 64 62  1  0  0  0  0
 66 64  2  0  0  0  0
 67 66  1  0  0  0  0
 68 66  1  0  0  0  0
 68 59  2  0  0  0  0
 69 68  1  0  0  0  0
 70 69  1  0  0  0  0
 70 71  1  0  0  0  0
 72 70  2  0  0  0  0
 73 72  1  0  0  0  0
 74 76  2  0  0  0  0
 74 72  1  0  0  0  0
 75 74  1  0  0  0  0
 76 78  1  0  0  0  0
 77 76  1  0  0  0  0
 78 79  1  0  0  0  0
 78 69  2  0  0  0  0
M  END
$$$$
