CSD_code = CEGLEG | q = 0 | S = 0 | Stoichiometry = C11H21Cl2N3Pd | MND = 4
 OpenBabel04212202023D

 38 39  0  0  1  0  0  0  0  0999 V2000
    3.5198    1.9157    3.7524 Pd  0  0  0  0  0  0  0  0  0  0  0  0
    3.4900    0.7449    5.6605 Cl  0  0  0  0  0  0  0  0  0  0  0  0
    2.2063    0.4328    2.7151 Cl  0  0  0  0  0  0  0  0  0  0  0  0
    3.4217    3.2316    2.2203 N   0  0  0  0  0  0  0  0  0  0  0  0
    3.1042    4.4792    2.5903 N   0  0  2  0  0  0  0  0  0  0  0  0
    4.7099    3.4077    4.8240 N   0  0  0  0  0  4  0  0  0  0  0  0
    3.1648    5.3187    1.5302 C   0  0  1  0  0  3  0  0  0  0  0  0
    3.5324    4.5517    0.4442 C   0  0  0  0  0  0  0  0  0  0  0  0
    3.6862    3.2411    0.9249 C   0  0  0  0  0  0  0  0  0  0  0  0
    2.8649    6.7703    1.6217 C   0  0  0  0  0  0  0  0  0  0  0  0
    3.5354    7.2684    2.3218 H   0  0  0  0  0  0  0  0  0  0  0  0
    1.8396    6.9352    1.9524 H   0  0  0  0  0  0  0  0  0  0  0  0
    2.9869    7.2252    0.6433 H   0  0  0  0  0  0  0  0  0  0  0  0
    4.1012    2.0049    0.2162 C   0  0  0  0  0  0  0  0  0  0  0  0
    4.2219    1.2019    0.9485 H   0  0  0  0  0  0  0  0  0  0  0  0
    5.0346    2.1622   -0.3215 H   0  0  0  0  0  0  0  0  0  0  0  0
    3.3380    1.7049   -0.4992 H   0  0  0  0  0  0  0  0  0  0  0  0
    2.8147    4.7591    3.9730 C   0  0  0  0  0  0  0  0  0  0  0  0
    2.1229    3.9794    4.3489 H   0  0  0  0  0  0  0  0  0  0  0  0
    2.3313    5.7348    4.0461 H   0  0  0  0  0  0  0  0  0  0  0  0
    4.1056    4.7397    4.8213 C   0  0  0  0  0  0  0  0  0  0  0  0
    3.8492    5.0655    5.8359 H   0  0  0  0  0  0  0  0  0  0  0  0
    4.8017    5.4663    4.3957 H   0  0  0  0  0  0  0  0  0  0  0  0
    6.1693    3.3133    4.6135 C   0  0  0  0  0  0  0  0  0  0  0  0
    6.5254    1.8234    4.6476 C   0  0  0  0  0  0  0  0  0  0  0  0
    5.9538    1.2791    3.8755 H   0  0  0  0  0  0  0  0  0  0  0  0
    6.2814    1.3904    5.6160 H   0  0  0  0  0  0  0  0  0  0  0  0
    7.5863    1.6821    4.4587 H   0  0  0  0  0  0  0  0  0  0  0  0
    6.5540    3.8685    3.2394 C   0  0  0  0  0  0  0  0  0  0  0  0
    5.9965    3.3469    2.4619 H   0  0  0  0  0  0  0  0  0  0  0  0
    7.6142    3.7042    3.0676 H   0  0  0  0  0  0  0  0  0  0  0  0
    6.3687    4.9366    3.1509 H   0  0  0  0  0  0  0  0  0  0  0  0
    6.9213    4.0484    5.7295 C   0  0  0  0  0  0  0  0  0  0  0  0
    6.6310    3.6551    6.7013 H   0  0  0  0  0  0  0  0  0  0  0  0
    6.7175    5.1169    5.7130 H   0  0  0  0  0  0  0  0  0  0  0  0
    7.9923    3.9083    5.6129 H   0  0  0  0  0  0  0  0  0  0  0  0
    4.4956    2.9199    5.7024 H   0  0  0  0  0  0  0  0  0  0  0  0
    3.6708    4.8872   -0.5627 H   0  0  0  0  0  0  0  0  0  0  0  0
  1  6  1  0  0  0  0
  1  2  1  0  0  0  0
  3  1  1  0  0  0  0
  4  1  1  0  0  0  0
  5  4  1  1  0  0  0
  5 18  1  0  0  0  0
  6 37  1  0  0  0  0
  7 10  1  6  0  0  0
  7  5  1  0  0  0  0
  8  9  2  0  0  0  0
  8  7  1  0  0  0  0
  9  4  1  0  0  0  0
 10 12  1  0  0  0  0
 10 11  1  0  0  0  0
 13 10  1  0  0  0  0
 14  9  1  0  0  0  0
 14 15  1  0  0  0  0
 16 14  1  0  0  0  0
 17 14  1  0  0  0  0
 18 20  1  0  0  0  0
 18 19  1  0  0  0  0
 18 21  1  0  0  0  0
 21  6  1  0  0  0  0
 21 22  1  0  0  0  0
 23 21  1  0  0  0  0
 24 25  1  0  0  0  0
 24  6  1  0  0  0  0
 24 33  1  0  0  0  0
 25 27  1  0  0  0  0
 26 25  1  0  0  0  0
 28 25  1  0  0  0  0
 29 24  1  0  0  0  0
 30 29  1  0  0  0  0
 31 29  1  0  0  0  0
 32 29  1  0  0  0  0
 33 34  1  0  0  0  0
 35 33  1  0  0  0  0
 36 33  1  0  0  0  0
 38  8  1  0  0  0  0
M  END
$$$$
