CSD_code = CEHFIH | q = 0 | S = 0 | Stoichiometry = C17H17CdCl2N3O2 | MND = 6
 OpenBabel04212202023D

 42 45  0  0  1  0  0  0  0  0999 V2000
   -5.4340    3.7591   14.4135 C   0  0  0  0  0  0  0  0  0  0  0  0
   -5.8889    2.8970   13.9380 H   0  0  0  0  0  0  0  0  0  0  0  0
   -5.5842    3.9832   15.7918 C   0  0  0  0  0  0  0  0  0  0  0  0
   -6.1689    3.2971   16.3844 H   0  0  0  0  0  0  0  0  0  0  0  0
   -4.9758    5.0716   16.3556 C   0  0  0  0  0  0  0  0  0  0  0  0
   -5.0609    5.2781   17.4133 H   0  0  0  0  0  0  0  0  0  0  0  0
   -4.2253    5.9466   15.5425 C   0  0  0  0  0  0  0  0  0  0  0  0
   -4.1459    5.6436   14.1572 C   0  0  2  0  0  3  0  0  0  0  0  0
   -3.4282    6.5256   13.2923 C   0  0  0  0  0  0  0  0  0  0  0  0
   -2.8116    7.6396   13.8263 C   0  0  0  0  0  0  0  0  0  0  0  0
   -2.2519    8.2948   13.1746 H   0  0  0  0  0  0  0  0  0  0  0  0
   -2.8800    7.9140   15.1964 C   0  0  0  0  0  0  0  0  0  0  0  0
   -2.3829    8.7929   15.5797 H   0  0  0  0  0  0  0  0  0  0  0  0
   -3.5753    7.0935   16.0424 C   0  0  0  0  0  0  0  0  0  0  0  0
   -3.6425    7.3124   17.0977 H   0  0  0  0  0  0  0  0  0  0  0  0
   -3.6187    6.9487   10.9984 C   0  0  0  0  0  3  0  0  0  0  0  0
   -3.8864    7.9995   11.1264 H   0  0  0  0  0  0  0  0  0  0  0  0
   -3.5781    4.5421    8.3197 C   0  0  2  0  0  3  0  0  0  0  0  0
   -3.6443    5.2965    7.1433 C   0  0  0  0  0  0  0  0  0  0  0  0
   -3.7131    4.8283    6.1755 H   0  0  0  0  0  0  0  0  0  0  0  0
   -3.6438    6.6753    7.2610 C   0  0  0  0  0  0  0  0  0  0  0  0
   -3.6967    7.2872    6.3729 H   0  0  0  0  0  0  0  0  0  0  0  0
   -3.6024    7.2660    8.5139 C   0  0  0  0  0  0  0  0  0  0  0  0
   -3.6372    8.3370    8.6279 H   0  0  0  0  0  0  0  0  0  0  0  0
   -3.5534    6.4387    9.6321 C   0  0  0  0  0  0  0  0  0  0  0  0
   -3.8845    2.4461    7.2422 C   0  0  0  0  0  0  0  0  0  0  0  0
   -3.9797    1.4169    7.5830 H   0  0  0  0  0  0  0  0  0  0  0  0
   -4.8306    2.7647    6.7976 H   0  0  0  0  0  0  0  0  0  0  0  0
   -3.0816    2.5166    6.5011 H   0  0  0  0  0  0  0  0  0  0  0  0
   -2.4514    1.7043   11.3906 C   0  0  0  0  0  0  0  0  0  0  0  0
   -1.5752    1.1656   11.7677 H   0  0  0  0  0  0  0  0  0  0  0  0
   -2.4446    1.7043   10.2981 H   0  0  0  0  0  0  0  0  0  0  0  0
   -3.3614    1.2150   11.7330 H   0  0  0  0  0  0  0  0  0  0  0  0
   -6.1301    6.1624   10.7511 Cl  0  0  0  0  0  0  0  0  0  0  0  0
   -5.8707    2.2261   11.0885 Cl  0  0  0  0  0  0  0  0  0  0  0  0
   -4.7491    4.5563   13.6327 N   0  0  0  0  0  0  0  0  0  0  0  0
   -3.3425    6.1676   11.9693 N   0  0  0  0  0  0  0  0  0  0  0  0
   -3.4985    5.1093    9.5138 N   0  0  0  0  0  0  0  0  0  0  0  0
   -3.5836    3.2010    8.3985 O   0  0  0  0  0  0  0  0  0  0  0  0
   -2.4813    3.0266   11.9067 O   0  0  0  0  0  0  0  0  0  0  0  0
   -1.7541    3.5221   11.5126 H   0  0  0  0  0  0  0  0  0  0  0  0
   -4.6797    4.2206   11.3334 Cd  0  0  0  0  0  0  0  0  0  0  0  0
  1  3  2  0  0  0  0
  2  1  1  0  0  0  0
  3  5  1  0  0  0  0
  3  4  1  0  0  0  0
  5  6  1  0  0  0  0
  7 14  1  0  0  0  0
  7  5  2  0  0  0  0
  8  9  1  6  0  0  0
  8  7  1  0  0  0  0
  9 10  2  0  0  0  0
 10 12  1  0  0  0  0
 11 10  1  0  0  0  0
 12 13  1  0  0  0  0
 12 14  2  0  0  0  0
 14 15  1  0  0  0  0
 16 17  1  0  0  0  0
 16 37  1  0  0  0  0
 18 39  1  6  0  0  0
 18 38  1  0  0  0  0
 19 21  2  0  0  0  0
 19 18  1  0  0  0  0
 20 19  1  0  0  0  0
 21 23  1  0  0  0  0
 22 21  1  0  0  0  0
 23 24  1  0  0  0  0
 23 25  2  0  0  0  0
 25 16  1  0  0  0  0
 26 27  1  0  0  0  0
 26 39  1  0  0  0  0
 28 26  1  0  0  0  0
 29 26  1  0  0  0  0
 30 33  1  0  0  0  0
 30 31  1  0  0  0  0
 30 40  1  0  0  0  0
 32 30  1  0  0  0  0
 34 42  1  0  0  0  0
 35 42  1  0  0  0  0
 36  8  1  0  0  0  0
 36  1  1  0  0  0  0
 37  9  1  0  0  0  0
 38 25  1  0  0  0  0
 38 42  1  0  0  0  0
 41 40  1  0  0  0  0
 42 37  1  0  0  0  0
 42 36  1  0  0  0  0
M  END
$$$$
