CSD_code = CEHHED | q = 0 | S = 0 | Stoichiometry = C22H28Cl2MoN2 | MND = 4
 OpenBabel04212202023D

 55 57  0  0  0  0  0  0  0  0999 V2000
    5.3057    5.3746    4.9862 C   0  0  0  0  0  0  0  0  0  0  0  0
    4.4179    5.3758    4.3545 H   0  0  0  0  0  0  0  0  0  0  0  0
    5.6088    6.4001    5.1722 H   0  0  0  0  0  0  0  0  0  0  0  0
    5.0335    4.9088    5.9335 H   0  0  0  0  0  0  0  0  0  0  0  0
    7.6809    2.3352    3.0800 Mo  0  0  0  0  0  0  0  0  0  0  0  0
    7.4404    2.2274    0.9054 Cl  0  0  0  0  0  0  0  0  0  0  0  0
    8.3119    0.8512    4.5551 Cl  0  0  0  0  0  0  0  0  0  0  0  0
    6.2306    3.3062    3.9105 N   0  0  0  0  0  0  0  0  0  0  0  0
    8.4387    4.0823    3.4486 N   0  0  0  0  0  0  0  0  0  0  0  0
   11.2228    5.2793    1.3559 C   0  0  0  0  0  0  0  0  0  0  0  0
   11.3718    5.8005    0.4205 H   0  0  0  0  0  0  0  0  0  0  0  0
    5.6769    1.9616    6.3975 C   0  0  0  0  0  0  0  0  0  0  0  0
    5.1938    2.1750    7.3497 H   0  0  0  0  0  0  0  0  0  0  0  0
    6.4969    2.6662    6.2466 H   0  0  0  0  0  0  0  0  0  0  0  0
    6.0992    0.9572    6.4555 H   0  0  0  0  0  0  0  0  0  0  0  0
    4.9751    2.7092    4.0877 C   0  0  0  0  0  0  0  0  0  0  0  0
    6.4171    4.6190    4.3272 C   0  0  0  0  0  0  0  0  0  0  0  0
    9.9316    5.0633    1.8070 C   0  0  0  0  0  0  0  0  0  0  0  0
    4.0217    2.7774    3.0638 C   0  0  0  0  0  0  0  0  0  0  0  0
    3.4460    1.4141    5.4115 C   0  0  0  0  0  0  0  0  0  0  0  0
    3.2217    0.8882    6.3292 H   0  0  0  0  0  0  0  0  0  0  0  0
    2.4960    1.4573    4.4013 C   0  0  0  0  0  0  0  0  0  0  0  0
    2.8001    2.1454    3.2356 C   0  0  0  0  0  0  0  0  0  0  0  0
    2.0680    2.1954    2.4416 H   0  0  0  0  0  0  0  0  0  0  0  0
    4.6794    2.0330    5.2778 C   0  0  0  0  0  0  0  0  0  0  0  0
    7.6664    5.0613    4.0631 C   0  0  0  0  0  0  0  0  0  0  0  0
   12.3291    4.8482    2.0769 C   0  0  0  0  0  0  0  0  0  0  0  0
    8.7579    5.5793    1.0285 C   0  0  0  0  0  0  0  0  0  0  0  0
    8.9956    5.6289   -0.0314 H   0  0  0  0  0  0  0  0  0  0  0  0
    8.4984    6.5831    1.3664 H   0  0  0  0  0  0  0  0  0  0  0  0
    7.8822    4.9402    1.1707 H   0  0  0  0  0  0  0  0  0  0  0  0
   10.8422    3.9593    3.7684 C   0  0  0  0  0  0  0  0  0  0  0  0
    9.7379    4.3763    3.0158 C   0  0  0  0  0  0  0  0  0  0  0  0
    4.3260    3.5090    1.7906 C   0  0  0  0  0  0  0  0  0  0  0  0
    3.4141    3.9076    1.3516 H   0  0  0  0  0  0  0  0  0  0  0  0
    4.7786    2.8261    1.0679 H   0  0  0  0  0  0  0  0  0  0  0  0
    5.0289    4.3259    1.9626 H   0  0  0  0  0  0  0  0  0  0  0  0
    8.2266    6.4091    4.4088 C   0  0  0  0  0  0  0  0  0  0  0  0
    9.2871    6.4463    4.1737 H   0  0  0  0  0  0  0  0  0  0  0  0
    8.0992    6.6131    5.4713 H   0  0  0  0  0  0  0  0  0  0  0  0
    7.7186    7.1955    3.8507 H   0  0  0  0  0  0  0  0  0  0  0  0
   12.1197    4.1976    3.2828 C   0  0  0  0  0  0  0  0  0  0  0  0
   12.9692    3.8707    3.8662 H   0  0  0  0  0  0  0  0  0  0  0  0
   13.7134    5.0811    1.5512 C   0  0  0  0  0  0  0  0  0  0  0  0
   14.4555    4.9400    2.3329 H   0  0  0  0  0  0  0  0  0  0  0  0
   13.8092    6.0888    1.1515 H   0  0  0  0  0  0  0  0  0  0  0  0
   13.9297    4.3805    0.7443 H   0  0  0  0  0  0  0  0  0  0  0  0
   10.6522    3.2710    5.0868 C   0  0  0  0  0  0  0  0  0  0  0  0
   11.4438    3.5529    5.7780 H   0  0  0  0  0  0  0  0  0  0  0  0
   10.6904    2.1873    4.9572 H   0  0  0  0  0  0  0  0  0  0  0  0
    9.6855    3.5262    5.5262 H   0  0  0  0  0  0  0  0  0  0  0  0
    1.1783    0.7613    4.5631 C   0  0  0  0  0  0  0  0  0  0  0  0
    0.4242    1.2007    3.9147 H   0  0  0  0  0  0  0  0  0  0  0  0
    0.8349    0.8173    5.5938 H   0  0  0  0  0  0  0  0  0  0  0  0
    1.2787   -0.2923    4.3002 H   0  0  0  0  0  0  0  0  0  0  0  0
  1  3  1  0  0  0  0
  1  4  1  0  0  0  0
  2  1  1  0  0  0  0
  5  9  1  0  0  0  0
  5  8  1  0  0  0  0
  5  7  1  0  0  0  0
  6  5  1  0  0  0  0
  8 16  1  0  0  0  0
  8 17  1  0  0  0  0
  9 26  1  0  0  0  0
 10 18  2  0  0  0  0
 10 27  1  0  0  0  0
 11 10  1  0  0  0  0
 12 15  1  0  0  0  0
 12 13  1  0  0  0  0
 14 12  1  0  0  0  0
 16 25  1  0  0  0  0
 17  1  1  0  0  0  0
 18 33  1  0  0  0  0
 19 23  1  0  0  0  0
 19 16  2  0  0  0  0
 20 21  1  0  0  0  0
 22 52  1  0  0  0  0
 22 20  1  0  0  0  0
 23 22  2  0  0  0  0
 24 23  1  0  0  0  0
 25 20  2  0  0  0  0
 25 12  1  0  0  0  0
 26 17  2  0  0  0  0
 26 38  1  0  0  0  0
 27 42  2  0  0  0  0
 28 31  1  0  0  0  0
 28 30  1  0  0  0  0
 28 18  1  0  0  0  0
 29 28  1  0  0  0  0
 32 48  1  0  0  0  0
 33  9  1  0  0  0  0
 33 32  2  0  0  0  0
 34 37  1  0  0  0  0
 34 19  1  0  0  0  0
 35 34  1  0  0  0  0
 36 34  1  0  0  0  0
 38 40  1  0  0  0  0
 39 38  1  0  0  0  0
 41 38  1  0  0  0  0
 42 32  1  0  0  0  0
 42 43  1  0  0  0  0
 44 27  1  0  0  0  0
 44 45  1  0  0  0  0
 46 44  1  0  0  0  0
 47 44  1  0  0  0  0
 48 51  1  0  0  0  0
 48 49  1  0  0  0  0
 50 48  1  0  0  0  0
 52 54  1  0  0  0  0
 53 52  1  0  0  0  0
 55 52  1  0  0  0  0
M  END
$$$$
