CSD_code = CEHPIO | q = 0 | S = 0 | Stoichiometry = C5H5Cl3Ti | MND = 8
 OpenBabel04212202023D

 14 15  0  0  1  0  0  0  0  0999 V2000
    3.0380    9.4047    0.9994 Ti  0  0  0  0  0  0  0  0  0  0  0  0
    3.8074    7.7849    2.1738 Cl  0  0  0  0  0  0  0  0  0  0  0  0
    3.8552   11.0359    2.1244 Cl  0  0  0  0  0  0  0  0  0  0  0  0
    4.4700    9.3561   -0.5947 Cl  0  0  0  0  0  0  0  0  0  0  0  0
    0.8865    9.9113    1.6377 C   0  0  2  0  0  0  0  0  0  0  0  0
    0.9284    8.5331    1.3285 C   0  0  0  0  0  3  0  0  0  0  0  0
    1.2563    8.4010   -0.0420 C   0  0  1  0  0  0  0  0  0  0  0  0
    1.3907    9.7016   -0.5854 C   0  0  0  0  0  0  0  0  0  0  0  0
    1.1711   10.6344    0.4526 C   0  0  0  0  0  0  0  0  0  0  0  0
    0.5727   10.3411    2.5814 H   0  0  0  0  0  0  0  0  0  0  0  0
    0.6553    7.7238    1.9952 H   0  0  0  0  0  0  0  0  0  0  0  0
    1.2690    7.4747   -0.6049 H   0  0  0  0  0  0  0  0  0  0  0  0
    1.5306    9.9387   -1.6332 H   0  0  0  0  0  0  0  0  0  0  0  0
    1.1120   11.7103    0.3380 H   0  0  0  0  0  0  0  0  0  0  0  0
  1  5  1  0  0  0  0
  1  3  1  0  0  0  0
  1  2  1  0  0  0  0
  4  1  1  0  0  0  0
  5 10  1  1  0  0  0
  6  5  1  0  0  0  0
  6 11  1  0  0  0  0
  7 12  1  6  0  0  0
  7  1  1  0  0  0  0
  7  6  1  0  0  0  0
  8  7  1  0  0  0  0
  8  9  2  0  0  0  0
  9  5  1  0  0  0  0
 13  8  1  0  0  0  0
 14  9  1  0  0  0  0
M  END
$$$$
