CSD_code = CEJBEB | q = 0 | S = 0 | Stoichiometry = C30H50Br2N6Pd | MND = 4
 OpenBabel04212202023D

 89 92  0  0  1  0  0  0  0  0999 V2000
    4.0448    0.2999    8.4878 Pd  0  0  0  0  0  0  0  0  0  0  0  0
    5.3680   -1.6449    7.8128 Br  0  0  0  0  0  0  0  0  0  0  0  0
    2.8272    2.3119    9.1855 Br  0  0  0  0  0  0  0  0  0  0  0  0
    6.2908    1.5683   10.1282 N   0  0  0  0  0  0  0  0  0  0  0  0
    1.5165   -0.8762    7.6050 N   0  0  0  0  0  0  0  0  0  0  0  0
    1.3706   -0.9106    5.4315 N   0  0  0  0  0  0  0  0  0  0  0  0
    5.4267   -0.1062   11.1070 N   0  0  0  0  0  0  0  0  0  0  0  0
    6.3903    0.3453   11.9310 N   0  0  0  0  0  0  0  0  0  0  0  0
    2.4878   -0.2673    5.8178 N   0  0  0  0  0  0  0  0  0  0  0  0
    5.3389    0.6154    9.9881 C   0  0  0  0  0  0  0  0  0  0  0  0
    6.5734    2.5759    9.1330 C   0  0  0  0  0  0  0  0  0  0  0  0
    6.7076    1.9080    7.7930 C   0  0  0  0  0  0  0  0  0  0  0  0
    5.8998    2.1536    6.7727 C   0  0  0  0  0  0  0  0  0  0  0  0
    6.9050    1.3621   11.3210 C   0  0  0  0  0  0  0  0  0  0  0  0
    4.6174   -1.2654   11.4140 C   0  0  2  0  0  0  0  0  0  0  0  0
    3.7043   -1.0585   12.6341 C   0  0  1  0  0  0  0  0  0  0  0  0
    4.5150   -1.0833   13.9287 C   0  0  0  0  0  0  0  0  0  0  0  0
    5.2830   -2.3962   14.0485 C   0  0  0  0  0  0  0  0  0  0  0  0
    6.2569   -2.5555   12.8818 C   0  0  2  0  0  0  0  0  0  0  0  0
    5.4817   -2.5199   11.5658 C   0  0  0  0  0  0  0  0  0  0  0  0
    7.0456   -3.8565   12.9932 C   0  0  0  0  0  0  0  0  0  0  0  0
    2.7993    0.1828   12.4667 C   0  0  0  0  0  0  0  0  0  0  0  0
    3.3530    1.4671   13.0809 C   0  0  0  0  0  0  0  0  0  0  0  0
    1.4086   -0.0895   13.0374 C   0  0  0  0  0  0  0  0  0  0  0  0
    2.6193   -0.2249    7.1454 C   0  0  2  0  0  3  0  0  0  0  0  0
    0.7936   -1.2754    6.5274 C   0  0  0  0  0  0  0  0  0  0  0  0
    1.2077   -1.1552    8.9865 C   0  0  0  0  0  0  0  0  0  0  0  0
    1.8321   -2.4502    9.4314 C   0  0  0  0  0  0  0  0  0  0  0  0
    1.3168   -3.2344   10.3580 C   0  0  0  0  0  0  0  0  0  0  0  0
    3.4226    0.2751    4.8563 C   0  0  1  0  0  0  0  0  0  0  0  0
    4.2851   -0.8422    4.2566 C   0  0  0  0  0  0  0  0  0  0  0  0
    3.5099   -1.7281    3.2874 C   0  0  1  0  0  0  0  0  0  0  0  0
    2.9478   -0.8488    2.1748 C   0  0  0  0  0  0  0  0  0  0  0  0
    2.0214    0.2199    2.7460 C   0  0  0  0  0  0  0  0  0  0  0  0
    2.7327    1.1171    3.7653 C   0  0  1  0  0  0  0  0  0  0  0  0
    1.7766    2.1723    4.3609 C   0  0  0  0  0  0  0  0  0  0  0  0
    2.4793    3.0547    5.3924 C   0  0  0  0  0  0  0  0  0  0  0  0
    1.1912    3.0697    3.2694 C   0  0  0  0  0  0  0  0  0  0  0  0
    4.4107   -2.8272    2.7341 C   0  0  0  0  0  0  0  0  0  0  0  0
    7.5017    3.0838    9.4110 H   0  0  0  0  0  0  0  0  0  0  0  0
    5.7520    3.3030    9.1150 H   0  0  0  0  0  0  0  0  0  0  0  0
    7.5114    1.1856    7.7101 H   0  0  0  0  0  0  0  0  0  0  0  0
    5.1204    2.9016    6.8381 H   0  0  0  0  0  0  0  0  0  0  0  0
    6.0619    1.6766    5.8187 H   0  0  0  0  0  0  0  0  0  0  0  0
    7.7046    1.9622   11.7040 H   0  0  0  0  0  0  0  0  0  0  0  0
    3.9694   -1.3971   10.5268 H   0  0  0  0  0  0  0  0  0  0  0  0
    3.0476   -1.9376   12.6397 H   0  0  0  0  0  0  0  0  0  0  0  0
    5.2265   -0.2585   13.9417 H   0  0  0  0  0  0  0  0  0  0  0  0
    3.8398   -0.9711   14.7788 H   0  0  0  0  0  0  0  0  0  0  0  0
    4.5826   -3.2360   14.0557 H   0  0  0  0  0  0  0  0  0  0  0  0
    5.8338   -2.4130   14.9908 H   0  0  0  0  0  0  0  0  0  0  0  0
    6.9567   -1.7148   12.9011 H   0  0  0  0  0  0  0  0  0  0  0  0
    4.8175   -3.3857   11.5172 H   0  0  0  0  0  0  0  0  0  0  0  0
    6.1682   -2.5863   10.7188 H   0  0  0  0  0  0  0  0  0  0  0  0
    7.7344   -3.9591   12.1580 H   0  0  0  0  0  0  0  0  0  0  0  0
    6.3732   -4.7122   12.9884 H   0  0  0  0  0  0  0  0  0  0  0  0
    7.6189   -3.8766   13.9171 H   0  0  0  0  0  0  0  0  0  0  0  0
    2.6863    0.3617   11.3885 H   0  0  0  0  0  0  0  0  0  0  0  0
    4.3732    1.6624   12.7645 H   0  0  0  0  0  0  0  0  0  0  0  0
    3.3343    1.4197   14.1667 H   0  0  0  0  0  0  0  0  0  0  0  0
    2.7411    2.3081   12.7622 H   0  0  0  0  0  0  0  0  0  0  0  0
    0.7672    0.7763   12.8919 H   0  0  0  0  0  0  0  0  0  0  0  0
    1.4692   -0.2951   14.1039 H   0  0  0  0  0  0  0  0  0  0  0  0
    0.9486   -0.9448   12.5466 H   0  0  0  0  0  0  0  0  0  0  0  0
   -0.1295   -1.8144    6.5831 H   0  0  0  0  0  0  0  0  0  0  0  0
    1.6049   -0.3242    9.5961 H   0  0  0  0  0  0  0  0  0  0  0  0
    0.1217   -1.1802    9.1116 H   0  0  0  0  0  0  0  0  0  0  0  0
    2.7649   -2.7077    8.9403 H   0  0  0  0  0  0  0  0  0  0  0  0
    0.3861   -3.0006   10.8497 H   0  0  0  0  0  0  0  0  0  0  0  0
    1.8061   -4.1418   10.6649 H   0  0  0  0  0  0  0  0  0  0  0  0
    4.0813    0.9208    5.4497 H   0  0  0  0  0  0  0  0  0  0  0  0
    5.1185   -0.3765    3.7255 H   0  0  0  0  0  0  0  0  0  0  0  0
    4.7035   -1.4444    5.0653 H   0  0  0  0  0  0  0  0  0  0  0  0
    2.6732   -2.1922    3.8194 H   0  0  0  0  0  0  0  0  0  0  0  0
    3.7738   -0.3742    1.6378 H   0  0  0  0  0  0  0  0  0  0  0  0
    2.3943   -1.4609    1.4600 H   0  0  0  0  0  0  0  0  0  0  0  0
    1.1698   -0.2622    3.2264 H   0  0  0  0  0  0  0  0  0  0  0  0
    1.6517    0.8333    1.9245 H   0  0  0  0  0  0  0  0  0  0  0  0
    3.5395    1.6488    3.2457 H   0  0  0  0  0  0  0  0  0  0  0  0
    0.9463    1.6520    4.8514 H   0  0  0  0  0  0  0  0  0  0  0  0
    3.3643    3.5156    4.9571 H   0  0  0  0  0  0  0  0  0  0  0  0
    2.7672    2.4908    6.2756 H   0  0  0  0  0  0  0  0  0  0  0  0
    1.8118    3.8464    5.7240 H   0  0  0  0  0  0  0  0  0  0  0  0
    0.5268    2.5198    2.6096 H   0  0  0  0  0  0  0  0  0  0  0  0
    1.9869    3.5140    2.6747 H   0  0  0  0  0  0  0  0  0  0  0  0
    0.6162    3.8739    3.7230 H   0  0  0  0  0  0  0  0  0  0  0  0
    5.2432   -2.3953    2.1821 H   0  0  0  0  0  0  0  0  0  0  0  0
    3.8529   -3.4752    2.0620 H   0  0  0  0  0  0  0  0  0  0  0  0
    4.8137   -3.4320    3.5430 H   0  0  0  0  0  0  0  0  0  0  0  0
  1  3  1  0  0  0  0
  1 10  2  0  0  0  0
  2  1  1  0  0  0  0
  4 14  1  0  0  0  0
  5 27  1  0  0  0  0
  6  9  1  0  0  0  0
  6 26  2  0  0  0  0
  7 15  1  0  0  0  0
  7  8  1  0  0  0  0
  9 25  1  0  0  0  0
 10  4  1  0  0  0  0
 10  7  1  0  0  0  0
 11 40  1  0  0  0  0
 11  4  1  0  0  0  0
 12 11  1  0  0  0  0
 13 43  1  0  0  0  0
 13 12  2  0  0  0  0
 14 45  1  0  0  0  0
 14  8  2  0  0  0  0
 15 46  1  6  0  0  0
 15 20  1  0  0  0  0
 15 16  1  0  0  0  0
 16 47  1  1  0  0  0
 16 17  1  0  0  0  0
 17 48  1  0  0  0  0
 17 18  1  0  0  0  0
 17 49  1  0  0  0  0
 18 50  1  0  0  0  0
 18 51  1  0  0  0  0
 19 52  1  1  0  0  0
 19 21  1  0  0  0  0
 19 18  1  0  0  0  0
 20 19  1  0  0  0  0
 21 57  1  0  0  0  0
 22 16  1  0  0  0  0
 22 24  1  0  0  0  0
 22 23  1  0  0  0  0
 23 60  1  0  0  0  0
 24 63  1  0  0  0  0
 25  5  1  0  0  0  0
 25  1  1  6  0  0  0
 26 65  1  0  0  0  0
 26  5  1  0  0  0  0
 27 67  1  0  0  0  0
 27 28  1  0  0  0  0
 27 66  1  0  0  0  0
 28 29  2  0  0  0  0
 29 70  1  0  0  0  0
 29 69  1  0  0  0  0
 30 71  1  1  0  0  0
 30  9  1  0  0  0  0
 31 30  1  0  0  0  0
 31 73  1  0  0  0  0
 32 74  1  1  0  0  0
 32 31  1  0  0  0  0
 33 34  1  0  0  0  0
 33 32  1  0  0  0  0
 34 77  1  0  0  0  0
 34 35  1  0  0  0  0
 35 79  1  6  0  0  0
 35 36  1  0  0  0  0
 35 30  1  0  0  0  0
 36 80  1  0  0  0  0
 36 37  1  0  0  0  0
 37 83  1  0  0  0  0
 37 82  1  0  0  0  0
 38 86  1  0  0  0  0
 38 36  1  0  0  0  0
 39 32  1  0  0  0  0
 39 89  1  0  0  0  0
 41 11  1  0  0  0  0
 42 12  1  0  0  0  0
 44 13  1  0  0  0  0
 53 20  1  0  0  0  0
 54 20  1  0  0  0  0
 55 21  1  0  0  0  0
 56 21  1  0  0  0  0
 58 22  1  0  0  0  0
 59 23  1  0  0  0  0
 61 23  1  0  0  0  0
 62 24  1  0  0  0  0
 64 24  1  0  0  0  0
 68 28  1  0  0  0  0
 72 31  1  0  0  0  0
 75 33  1  0  0  0  0
 76 33  1  0  0  0  0
 78 34  1  0  0  0  0
 81 37  1  0  0  0  0
 84 38  1  0  0  0  0
 85 38  1  0  0  0  0
 87 39  1  0  0  0  0
 88 39  1  0  0  0  0
M  END
$$$$
