CSD_code = CEJGEF | q = 0 | S = 0 | Stoichiometry = C14H12Cl2N8Zn | MND = 4
 OpenBabel04212202023D

 37 40  0  0  0  0  0  0  0  0999 V2000
    0.0342    0.7015    7.1221 C   0  0  0  0  0  3  0  0  0  0  0  0
    1.0535    0.9502    6.9010 H   0  0  0  0  0  0  0  0  0  0  0  0
   -1.7381    0.0190    8.2215 C   0  0  0  0  0  0  0  0  0  0  0  0
   -2.3005   -0.3749    9.0413 H   0  0  0  0  0  0  0  0  0  0  0  0
   -2.0944    0.4486    6.9847 C   0  0  0  0  0  0  0  0  0  0  0  0
   -3.0599    0.5055    6.5244 H   0  0  0  0  0  0  0  0  0  0  0  0
    0.4244   -0.1062    9.4010 C   0  0  0  0  0  0  0  0  0  0  0  0
    0.5746   -0.8178   11.5316 C   0  0  0  0  0  0  0  0  0  0  0  0
    0.0579   -1.1858   12.4079 H   0  0  0  0  0  0  0  0  0  0  0  0
    1.9487   -0.6256   11.5076 C   0  0  0  0  0  0  0  0  0  0  0  0
    2.5667   -0.8304   12.3649 H   0  0  0  0  0  0  0  0  0  0  0  0
    2.4814   -0.1570   10.3135 C   0  0  0  0  0  0  0  0  0  0  0  0
    3.5404    0.0197   10.1827 H   0  0  0  0  0  0  0  0  0  0  0  0
   -0.9777    0.8680    6.3146 N   0  0  0  0  0  0  0  0  0  0  0  0
   -0.3751    0.1814    8.3035 N   0  0  0  0  0  0  0  0  0  0  0  0
    1.7252    0.1006    9.2616 N   0  0  0  0  0  0  0  0  0  0  0  0
   -0.1897   -0.5608   10.4836 N   0  0  0  0  0  0  0  0  0  0  0  0
    1.1350    2.8869    4.7494 Cl  0  0  0  0  0  0  0  0  0  0  0  0
   -0.9000    2.0573    4.5888 Zn  0  0  0  0  0  0  0  0  0  0  0  0
   -1.8337    0.7018    2.0550 C   0  0  0  0  0  3  0  0  0  0  0  0
   -2.8529    0.9516    2.2753 H   0  0  0  0  0  0  0  0  0  0  0  0
   -0.0613    0.0171    0.9572 C   0  0  0  0  0  0  0  0  0  0  0  0
    0.5013   -0.3778    0.1380 H   0  0  0  0  0  0  0  0  0  0  0  0
    0.2945    0.4468    2.1941 C   0  0  0  0  0  0  0  0  0  0  0  0
    1.2598    0.5029    2.6550 H   0  0  0  0  0  0  0  0  0  0  0  0
   -2.2231   -0.1067   -0.2237 C   0  0  0  0  0  0  0  0  0  0  0  0
   -2.3726   -0.8198   -2.3539 C   0  0  0  0  0  0  0  0  0  0  0  0
   -1.8558   -1.1906   -3.2289 H   0  0  0  0  0  0  0  0  0  0  0  0
   -3.7464   -0.6255   -2.3313 C   0  0  0  0  0  0  0  0  0  0  0  0
   -4.3640   -0.8302   -3.1889 H   0  0  0  0  0  0  0  0  0  0  0  0
   -4.2794   -0.1549   -1.1380 C   0  0  0  0  0  0  0  0  0  0  0  0
   -5.3380    0.0245   -1.0085 H   0  0  0  0  0  0  0  0  0  0  0  0
   -0.8222    0.8677    2.8632 N   0  0  0  0  0  0  0  0  0  0  0  0
   -1.4241    0.1807    0.8741 N   0  0  0  0  0  0  0  0  0  0  0  0
   -3.5236    0.1026   -0.0858 N   0  0  0  0  0  0  0  0  0  0  0  0
   -1.6088   -0.5635   -1.3053 N   0  0  0  0  0  0  0  0  0  0  0  0
   -2.9349    2.8871    4.4279 Cl  0  0  0  0  0  0  0  0  0  0  0  0
  1 15  1  0  0  0  0
  2  1  1  0  0  0  0
  3 15  1  0  0  0  0
  3  4  1  0  0  0  0
  5  3  2  0  0  0  0
  6  5  1  0  0  0  0
  7 17  1  0  0  0  0
  8  9  1  0  0  0  0
 10  8  1  0  0  0  0
 10 11  1  0  0  0  0
 12 10  2  0  0  0  0
 13 12  1  0  0  0  0
 14  5  1  0  0  0  0
 14  1  1  0  0  0  0
 15  7  1  0  0  0  0
 16  7  2  0  0  0  0
 16 12  1  0  0  0  0
 17  8  2  0  0  0  0
 19 18  1  0  0  0  0
 19 14  1  0  0  0  0
 20 21  1  0  0  0  0
 20 33  1  0  0  0  0
 22 24  2  0  0  0  0
 23 22  1  0  0  0  0
 24 25  1  0  0  0  0
 24 33  1  0  0  0  0
 26 35  2  0  0  0  0
 26 34  1  0  0  0  0
 27 29  1  0  0  0  0
 27 36  2  0  0  0  0
 28 27  1  0  0  0  0
 29 31  2  0  0  0  0
 30 29  1  0  0  0  0
 31 32  1  0  0  0  0
 31 35  1  0  0  0  0
 33 19  1  0  0  0  0
 34 22  1  0  0  0  0
 34 20  1  0  0  0  0
 36 26  1  0  0  0  0
 37 19  1  0  0  0  0
M  END
$$$$
