CSD_code = CEJGOP | q = 0 | S = 0 | Stoichiometry = C14H12Cl2N8Zn | MND = 6
 OpenBabel04212202023D

 37 42  0  0  1  0  0  0  0  0999 V2000
    1.4780   -0.1707    9.0441 Zn  0  0  0  0  0  0  0  0  0  0  0  0
    3.1768    1.1714    8.2856 Cl  0  0  0  0  0  0  0  0  0  0  0  0
    5.1221   -2.0156    9.3139 C   0  0  0  0  0  3  0  0  0  0  0  0
    6.0155   -1.8600    9.8820 H   0  0  0  0  0  0  0  0  0  0  0  0
    4.8756   -2.6764    8.1419 C   0  0  0  0  0  0  0  0  0  0  0  0
    5.5749   -3.2066    7.5294 H   0  0  0  0  0  0  0  0  0  0  0  0
    3.4999   -2.4934    7.9071 C   0  0  0  0  0  0  0  0  0  0  0  0
    2.9054   -2.8490    7.0891 H   0  0  0  0  0  0  0  0  0  0  0  0
    3.7144   -0.6856   10.8149 C   0  0  1  0  0  3  0  0  0  0  0  0
    4.5123    0.3815   12.6277 C   0  0  0  0  0  0  0  0  0  0  0  0
    5.3678    0.5894   13.2564 H   0  0  0  0  0  0  0  0  0  0  0  0
    3.2626    0.9334   12.8680 C   0  0  0  0  0  0  0  0  0  0  0  0
    3.0860    1.6060   13.6895 H   0  0  0  0  0  0  0  0  0  0  0  0
    2.2476    0.5793   11.9907 C   0  0  0  0  0  0  0  0  0  0  0  0
    1.2351    0.9506   12.0774 H   0  0  0  0  0  0  0  0  0  0  0  0
    2.9567   -1.7837    8.8671 N   0  0  0  0  0  0  0  0  0  0  0  0
    3.9384   -1.4947    9.7231 N   0  0  1  0  0  0  0  0  0  0  0  0
    2.4734   -0.2344   10.9703 N   0  0  0  0  0  0  0  0  0  0  0  0
    4.7399   -0.4333   11.6103 N   0  0  0  0  0  0  0  0  0  0  0  0
   -0.2211    1.1711    9.8026 Cl  0  0  0  0  0  0  0  0  0  0  0  0
   -2.1664   -2.0156    8.7746 C   0  0  0  0  0  3  0  0  0  0  0  0
   -3.0597   -1.8600    8.2065 H   0  0  0  0  0  0  0  0  0  0  0  0
   -1.9197   -2.6763    9.9466 C   0  0  0  0  0  0  0  0  0  0  0  0
   -2.6190   -3.2066   10.5592 H   0  0  0  0  0  0  0  0  0  0  0  0
   -0.5440   -2.4933   10.1813 C   0  0  0  0  0  0  0  0  0  0  0  0
    0.0505   -2.8489   10.9993 H   0  0  0  0  0  0  0  0  0  0  0  0
   -0.7586   -0.6855    7.2736 C   0  0  1  0  0  3  0  0  0  0  0  0
   -1.5567    0.3815    5.4608 C   0  0  0  0  0  0  0  0  0  0  0  0
   -2.4121    0.5895    4.8321 H   0  0  0  0  0  0  0  0  0  0  0  0
   -0.3069    0.9334    5.2205 C   0  0  0  0  0  0  0  0  0  0  0  0
   -0.1304    1.6061    4.3989 H   0  0  0  0  0  0  0  0  0  0  0  0
    0.7080    0.5793    6.0977 C   0  0  0  0  0  0  0  0  0  0  0  0
    1.7206    0.9506    6.0109 H   0  0  0  0  0  0  0  0  0  0  0  0
   -0.0009   -1.7836    9.2214 N   0  0  0  0  0  0  0  0  0  0  0  0
   -0.9827   -1.4946    8.3654 N   0  0  1  0  0  0  0  0  0  0  0  0
    0.4823   -0.2343    7.1181 N   0  0  0  0  0  0  0  0  0  0  0  0
   -1.7842   -0.4332    6.4782 N   0  0  0  0  0  0  0  0  0  0  0  0
  1 34  1  0  0  0  0
  1 20  1  0  0  0  0
  1 18  1  0  0  0  0
  2  1  1  0  0  0  0
  3  4  1  0  0  0  0
  5  3  1  0  0  0  0
  6  5  1  0  0  0  0
  7  5  2  0  0  0  0
  7 16  1  0  0  0  0
  8  7  1  0  0  0  0
  9 18  1  0  0  0  0
  9 19  1  1  0  0  0
 10 12  1  0  0  0  0
 10 11  1  0  0  0  0
 12 13  1  0  0  0  0
 14 15  1  0  0  0  0
 14 12  2  0  0  0  0
 16  1  1  0  0  0  0
 16 17  1  0  0  0  0
 17  3  1  6  0  0  0
 17  9  1  0  0  0  0
 18 14  1  0  0  0  0
 19 10  2  0  0  0  0
 21 23  1  0  0  0  0
 22 21  1  0  0  0  0
 23 25  2  0  0  0  0
 23 24  1  0  0  0  0
 25 26  1  0  0  0  0
 27 37  1  6  0  0  0
 27 35  1  0  0  0  0
 28 37  2  0  0  0  0
 29 28  1  0  0  0  0
 30 28  1  0  0  0  0
 30 32  2  0  0  0  0
 31 30  1  0  0  0  0
 32 36  1  0  0  0  0
 33 32  1  0  0  0  0
 34 25  1  0  0  0  0
 35 21  1  1  0  0  0
 35 34  1  0  0  0  0
 36 27  1  0  0  0  0
 36  1  1  0  0  0  0
M  END
$$$$
