CSD_code = CEJXUL | q = 0 | S = 0 | Stoichiometry = C19H30ClN2Rh | MND = 6
 OpenBabel04212202023D

 53 55  0  0  1  0  0  0  0  0999 V2000
    2.9623    6.4595    1.9616 Rh  0  0  0  0  0  0  0  0  0  0  0  0
    2.3240    4.6008    3.1227 Cl  0  0  0  0  0 15  0  0  0  0  0  0
    0.0637    6.9788    2.2925 N   0  0  2  0  0  0  0  0  0  0  0  0
    0.4631    5.7723    0.5485 N   0  0  2  0  0  0  0  0  0  0  0  0
    1.0280    6.4760    1.5237 C   0  0  2  0  0  3  0  0  0  0  0  0
    0.2574    7.6584    3.5455 C   0  0  0  0  0  0  0  0  0  0  0  0
   -0.2464    6.8005    4.7051 C   0  0  0  0  0  0  0  0  0  0  0  0
   -1.6834    6.3652    4.4351 C   0  0  0  0  0  0  0  0  0  0  0  0
   -1.7259    5.5648    3.1355 C   0  0  0  0  0  0  0  0  0  0  0  0
   -1.2562    6.4447    1.9731 C   0  0  2  0  0  0  0  0  0  0  0  0
   -0.9907    5.7206    0.6329 C   0  0  2  0  0  0  0  0  0  0  0  0
   -1.4740    4.2751    0.5111 C   0  0  0  0  0  0  0  0  0  0  0  0
   -0.8667    3.6331   -0.7348 C   0  0  0  0  0  0  0  0  0  0  0  0
    0.6555    3.6535   -0.6223 C   0  0  0  0  0  0  0  0  0  0  0  0
    1.1420    5.0971   -0.5217 C   0  0  0  0  0  0  0  0  0  0  0  0
    3.2851    8.4980    1.5396 C   0  0  2  0  0  0  0  0  0  0  0  0
    3.6593    7.7436    0.4236 C   0  0  0  0  0  3  0  0  0  0  0  0
    5.1035    7.4958    0.0374 C   0  0  0  0  0  0  0  0  0  0  0  0
    5.6605    6.1933    0.6450 C   0  0  0  0  0  0  0  0  0  0  0  0
    5.0153    5.8242    1.9617 C   0  0  0  0  0  3  0  0  0  0  0  0
    4.8384    6.6900    3.0212 C   0  0  0  0  0  3  0  0  0  0  0  0
    5.3309    8.1205    3.0184 C   0  0  0  0  0  0  0  0  0  0  0  0
    4.2562    9.1087    2.5253 C   0  0  0  0  0  0  0  0  0  0  0  0
   -1.9643    7.2744    1.8445 H   0  0  0  0  0  0  0  0  0  0  0  0
   -0.2849    8.6134    3.5184 H   0  0  0  0  0  0  0  0  0  0  0  0
    1.3322    7.8512    3.6559 H   0  0  0  0  0  0  0  0  0  0  0  0
   -0.1792    7.3657    5.6353 H   0  0  0  0  0  0  0  0  0  0  0  0
    0.3926    5.9191    4.7839 H   0  0  0  0  0  0  0  0  0  0  0  0
   -2.0485    5.7487    5.2577 H   0  0  0  0  0  0  0  0  0  0  0  0
   -2.3317    7.2427    4.3566 H   0  0  0  0  0  0  0  0  0  0  0  0
   -1.0444    4.7199    3.2407 H   0  0  0  0  0  0  0  0  0  0  0  0
   -2.7322    5.1923    2.9398 H   0  0  0  0  0  0  0  0  0  0  0  0
   -1.4136    6.2980   -0.2053 H   0  0  0  0  0  0  0  0  0  0  0  0
   -1.1507    3.7028    1.3794 H   0  0  0  0  0  0  0  0  0  0  0  0
   -2.5639    4.2554    0.4650 H   0  0  0  0  0  0  0  0  0  0  0  0
   -1.1788    4.1807   -1.6283 H   0  0  0  0  0  0  0  0  0  0  0  0
   -1.2225    2.6061   -0.8281 H   0  0  0  0  0  0  0  0  0  0  0  0
    0.9631    3.1160    0.2760 H   0  0  0  0  0  0  0  0  0  0  0  0
    1.1130    3.1730   -1.4878 H   0  0  0  0  0  0  0  0  0  0  0  0
    2.2182    5.1313   -0.3050 H   0  0  0  0  0  0  0  0  0  0  0  0
    0.9462    5.6215   -1.4690 H   0  0  0  0  0  0  0  0  0  0  0  0
    2.3441    9.0462    1.4749 H   0  0  0  0  0  0  0  0  0  0  0  0
    2.9649    7.7348   -0.4163 H   0  0  0  0  0  0  0  0  0  0  0  0
    5.7067    8.3498    0.3498 H   0  0  0  0  0  0  0  0  0  0  0  0
    5.1763    7.4336   -1.0507 H   0  0  0  0  0  0  0  0  0  0  0  0
    5.4902    5.3726   -0.0571 H   0  0  0  0  0  0  0  0  0  0  0  0
    6.7441    6.2778    0.7850 H   0  0  0  0  0  0  0  0  0  0  0  0
    5.0199    4.7536    2.1705 H   0  0  0  0  0  0  0  0  0  0  0  0
    4.6776    6.2581    4.0097 H   0  0  0  0  0  0  0  0  0  0  0  0
    6.2235    8.1876    2.3945 H   0  0  0  0  0  0  0  0  0  0  0  0
    5.6253    8.3985    4.0327 H   0  0  0  0  0  0  0  0  0  0  0  0
    4.7331    9.9847    2.0702 H   0  0  0  0  0  0  0  0  0  0  0  0
    3.6830    9.4676    3.3847 H   0  0  0  0  0  0  0  0  0  0  0  0
  3  6  1  1  0  0  0
  4 15  1  1  0  0  0
  4 11  1  0  0  0  0
  4  5  1  0  0  0  0
  5  1  1  1  0  0  0
  5  3  1  0  0  0  0
  6 26  1  0  0  0  0
  6  7  1  0  0  0  0
  7 28  1  0  0  0  0
  7 27  1  0  0  0  0
  8  7  1  0  0  0  0
  8 29  1  0  0  0  0
  9 31  1  0  0  0  0
  9  8  1  0  0  0  0
 10 24  1  6  0  0  0
 10  3  1  0  0  0  0
 10  9  1  0  0  0  0
 11 33  1  6  0  0  0
 11 10  1  0  0  0  0
 12 11  1  0  0  0  0
 12 34  1  0  0  0  0
 13 14  1  0  0  0  0
 13 12  1  0  0  0  0
 14 15  1  0  0  0  0
 14 38  1  0  0  0  0
 15 40  1  0  0  0  0
 16 42  1  6  0  0  0
 16  1  1  0  0  0  0
 16 23  1  0  0  0  0
 17 16  1  0  0  0  0
 18 44  1  0  0  0  0
 18 17  1  0  0  0  0
 18 19  1  0  0  0  0
 19 47  1  0  0  0  0
 19 20  1  0  0  0  0
 20 48  1  0  0  0  0
 20 21  1  0  0  0  0
 21 49  1  0  0  0  0
 22 21  1  0  0  0  0
 22 51  1  0  0  0  0
 23 22  1  0  0  0  0
 23 53  1  0  0  0  0
 25  6  1  0  0  0  0
 30  8  1  0  0  0  0
 32  9  1  0  0  0  0
 35 12  1  0  0  0  0
 36 13  1  0  0  0  0
 37 13  1  0  0  0  0
 39 14  1  0  0  0  0
 41 15  1  0  0  0  0
 43 17  1  0  0  0  0
 45 18  1  0  0  0  0
 46 19  1  0  0  0  0
 50 22  1  0  0  0  0
 52 23  1  0  0  0  0
M  END
$$$$
