CSD_code = CEKHOR | q = 0 | S = 0 | Stoichiometry = C12H11HgI2N3O2 | MND = 3
 OpenBabel04212202023D

 31 31  0  0  0  0  0  0  0  0999 V2000
    3.5817    5.4926   -7.5367 Hg  0  0  0  0  0  0  0  0  0  0  0  0
    3.5940    3.0650   -6.6030 I   0  0  0  0  0  0  0  0  0  0  0  0
    3.4924    7.4952   -9.2075 I   0  0  0  0  0  0  0  0  0  0  0  0
    4.9893   10.4213    1.6625 C   0  0  0  0  0  0  0  0  0  0  0  0
    5.9925   10.5601    2.0769 H   0  0  0  0  0  0  0  0  0  0  0  0
    4.2575   10.4004    2.4757 H   0  0  0  0  0  0  0  0  0  0  0  0
    4.7592   11.2479    0.9920 H   0  0  0  0  0  0  0  0  0  0  0  0
    5.1611    8.0498    1.4642 C   0  0  0  0  0  0  0  0  0  0  0  0
    5.4857    7.8665    2.7978 C   0  0  0  0  0  0  0  0  0  0  0  0
    5.5632    8.7096    3.4655 H   0  0  0  0  0  0  0  0  0  0  0  0
    5.7158    6.5893    3.2891 C   0  0  0  0  0  0  0  0  0  0  0  0
    5.9680    6.4640    4.3309 H   0  0  0  0  0  0  0  0  0  0  0  0
    5.6237    5.4909    2.4565 C   0  0  0  0  0  0  0  0  0  0  0  0
    5.8031    4.4997    2.8420 H   0  0  0  0  0  0  0  0  0  0  0  0
    5.3002    5.6571    1.1203 C   0  0  0  0  0  0  0  0  0  0  0  0
    5.2258    4.8091    0.4605 H   0  0  0  0  0  0  0  0  0  0  0  0
    5.0678    6.9277    0.6151 C   0  0  0  0  0  0  0  0  0  0  0  0
    4.6072    6.3069   -1.7382 C   0  0  0  0  0  0  0  0  0  0  0  0
    4.2523    7.0049   -3.0226 C   0  0  0  0  0  0  0  0  0  0  0  0
    4.0896    6.2605   -4.1917 C   0  0  0  0  0  0  0  0  0  0  0  0
    4.2077    5.1850   -4.1648 H   0  0  0  0  0  0  0  0  0  0  0  0
    3.6482    8.1705   -5.3378 C   0  0  0  0  0  0  0  0  0  0  0  0
    3.4078    8.6533   -6.2747 H   0  0  0  0  0  0  0  0  0  0  0  0
    3.8026    8.9027   -4.1677 C   0  0  0  0  0  0  0  0  0  0  0  0
    3.6826    9.9766   -4.1548 H   0  0  0  0  0  0  0  0  0  0  0  0
    4.7385    7.1780   -0.7169 N   0  0  0  0  0  0  0  0  0  0  0  0
    4.5869    8.1573   -0.9397 H   0  0  0  0  0  0  0  0  0  0  0  0
    3.7931    6.8446   -5.3479 N   0  0  0  0  0  0  0  0  0  0  0  0
    4.1063    8.3262   -3.0198 N   0  0  0  0  0  0  0  0  0  0  0  0
    4.9143    9.2597    0.8713 O   0  0  0  0  0  0  0  0  0  0  0  0
    4.7471    5.1011   -1.6984 O   0  0  0  0  0  0  0  0  0  0  0  0
  1  2  1  0  0  0  0
  3  1  1  0  0  0  0
  4  5  1  0  0  0  0
  4  6  1  0  0  0  0
  7  4  1  0  0  0  0
  8  9  1  0  0  0  0
  9 11  2  0  0  0  0
  9 10  1  0  0  0  0
 11 12  1  0  0  0  0
 13 14  1  0  0  0  0
 13 11  1  0  0  0  0
 15 13  2  0  0  0  0
 16 15  1  0  0  0  0
 17 15  1  0  0  0  0
 17  8  2  0  0  0  0
 18 31  2  0  0  0  0
 18 26  1  0  0  0  0
 19 29  1  0  0  0  0
 19 18  1  0  0  0  0
 20 21  1  0  0  0  0
 20 19  2  0  0  0  0
 22 24  1  0  0  0  0
 23 22  1  0  0  0  0
 24 25  1  0  0  0  0
 24 29  2  0  0  0  0
 26 17  1  0  0  0  0
 27 26  1  0  0  0  0
 28 22  2  0  0  0  0
 28 20  1  0  0  0  0
 30  8  1  0  0  0  0
 30  4  1  0  0  0  0
M  END
$$$$
