CSD_code = CEKJEJ | q = 0 | S = 0 | Stoichiometry = C13H13HgI2N3O2 | MND = 3
 OpenBabel04212202023D

 34 34  0  0  0  0  0  0  0  0999 V2000
    3.4927    8.9788    3.5103 C   0  0  0  0  0  0  0  0  0  0  0  0
    4.0162    9.8406    3.1216 H   0  0  0  0  0  0  0  0  0  0  0  0
    2.9344    8.0287    2.6649 C   0  0  0  0  0  0  0  0  0  0  0  0
    3.0059    8.1223    1.5903 H   0  0  0  0  0  0  0  0  0  0  0  0
    2.2060    6.8611    4.4714 C   0  0  0  0  0  0  0  0  0  0  0  0
    1.6891    6.0106    4.8964 H   0  0  0  0  0  0  0  0  0  0  0  0
    2.7693    7.8209    5.3136 C   0  0  0  0  0  0  0  0  0  0  0  0
    2.6515    7.6655    6.8052 C   0  0  0  0  0  0  0  0  0  0  0  0
    3.3975    8.8794    8.8326 C   0  0  0  0  0  0  0  0  0  0  0  0
    2.8605    8.0346    9.7918 C   0  0  0  0  0  0  0  0  0  0  0  0
    2.3142    7.1619    9.4753 H   0  0  0  0  0  0  0  0  0  0  0  0
    3.0304    8.3179   11.1368 C   0  0  0  0  0  0  0  0  0  0  0  0
    2.6102    7.6568   11.8782 H   0  0  0  0  0  0  0  0  0  0  0  0
    3.7344    9.4413   11.5249 C   0  0  0  0  0  0  0  0  0  0  0  0
    3.8689    9.6651   12.5721 H   0  0  0  0  0  0  0  0  0  0  0  0
    4.2776   10.2959   10.5759 C   0  0  0  0  0  0  0  0  0  0  0  0
    4.8236   11.1670   10.9013 H   0  0  0  0  0  0  0  0  0  0  0  0
    4.1169   10.0273    9.2268 C   0  0  0  0  0  0  0  0  0  0  0  0
    5.3444   11.9577    8.5080 C   0  0  0  0  0  0  0  0  0  0  0  0
    6.2333   11.6947    9.0968 H   0  0  0  0  0  0  0  0  0  0  0  0
    4.7272   12.6539    9.0914 H   0  0  0  0  0  0  0  0  0  0  0  0
    5.7538   12.5942    7.1892 C   0  0  0  0  0  0  0  0  0  0  0  0
    4.8707   12.8422    6.6064 H   0  0  0  0  0  0  0  0  0  0  0  0
    6.3663   11.9032    6.6163 H   0  0  0  0  0  0  0  0  0  0  0  0
    6.3215   13.5004    7.3781 H   0  0  0  0  0  0  0  0  0  0  0  0
    3.4124    8.8764    4.8238 N   0  0  0  0  0  0  0  0  0  0  0  0
    2.2902    6.9658    3.1493 N   0  0  0  0  0  0  0  0  0  0  0  0
    3.2742    8.6662    7.4599 N   0  0  0  0  0  0  0  0  0  0  0  0
    3.7206    9.3728    6.8821 H   0  0  0  0  0  0  0  0  0  0  0  0
    2.0541    6.7272    7.2930 O   0  0  0  0  0  0  0  0  0  0  0  0
    4.6033   10.7913    8.2040 O   0  0  0  0  0  0  0  0  0  0  0  0
    0.3653    3.4723    3.3078 I   0  0  0  0  0  0  0  0  0  0  0  0
    1.8498    6.3154   -0.7030 I   0  0  0  0  0  0  0  0  0  0  0  0
    1.2696    5.1903    1.5784 Hg  0  0  0  0  0  0  0  0  0  0  0  0
  1 26  1  0  0  0  0
  2  1  1  0  0  0  0
  3 27  1  0  0  0  0
  3  1  2  0  0  0  0
  4  3  1  0  0  0  0
  5  6  1  0  0  0  0
  5  7  1  0  0  0  0
  7  8  1  0  0  0  0
  8 30  2  0  0  0  0
  8 28  1  0  0  0  0
  9 18  2  0  0  0  0
  9 10  1  0  0  0  0
 10 12  2  0  0  0  0
 11 10  1  0  0  0  0
 12 14  1  0  0  0  0
 12 13  1  0  0  0  0
 14 15  1  0  0  0  0
 16 17  1  0  0  0  0
 16 14  2  0  0  0  0
 18 16  1  0  0  0  0
 19 21  1  0  0  0  0
 19 20  1  0  0  0  0
 22 25  1  0  0  0  0
 22 19  1  0  0  0  0
 23 22  1  0  0  0  0
 24 22  1  0  0  0  0
 26  7  2  0  0  0  0
 27  5  2  0  0  0  0
 28  9  1  0  0  0  0
 29 28  1  0  0  0  0
 31 19  1  0  0  0  0
 31 18  1  0  0  0  0
 33 34  1  0  0  0  0
 34 32  1  0  0  0  0
M  END
$$$$
