CSD_code = CEKWIA | q = 0 | S = 0 | Stoichiometry = C29H24ClMnN2O2 | MND = 5
 OpenBabel04212202023D

 59 65  0  0  1  0  0  0  0  0999 V2000
    2.9321   10.3383    0.4543 Mn  0  0  0  0  0  0  0  0  0  0  0  0
    5.1075   10.5482    0.2089 Cl  0  0  0  0  0  0  0  0  0  0  0  0
    2.3481   10.9135    1.9935 O   0  0  0  0  0  0  0  0  0  0  0  0
    2.6758   10.7484    3.2448 C   0  0  0  0  0  0  0  0  0  0  0  0
    2.3484   11.7320    4.1917 C   0  0  0  0  0  0  0  0  0  0  0  0
    2.7399   11.6037    5.5048 C   0  0  0  0  0  0  0  0  0  0  0  0
    3.4536   10.4840    5.9197 C   0  0  0  0  0  0  0  0  0  0  0  0
    3.7564    9.4883    5.0174 C   0  0  0  0  0  0  0  0  0  0  0  0
    3.3695    9.5831    3.6760 C   0  0  0  0  0  0  0  0  0  0  0  0
    3.5985    8.4996    2.7423 C   0  0  2  0  0  3  0  0  0  0  0  0
    3.2963    8.6171    1.4878 N   0  0  2  0  0  0  0  0  0  0  0  0
    3.5510    7.8988   -0.7918 C   0  0  0  0  0  0  0  0  0  0  0  0
    3.2934    7.4295    0.6430 C   0  0  2  0  0  0  0  0  0  0  0  0
    2.8250    9.1429   -0.9939 N   0  0  2  0  0  0  0  0  0  0  0  0
    2.2630    9.3669   -2.1610 C   0  0  2  0  0  3  0  0  0  0  0  0
    2.2477    8.3131   -3.2146 C   0  0  0  0  0  0  0  0  0  0  0  0
    1.2363    7.3588   -3.2457 C   0  0  0  0  0  0  0  0  0  0  0  0
    1.2223    6.3947   -4.2383 C   0  0  0  0  0  0  0  0  0  0  0  0
    2.2160    6.3757   -5.2026 C   0  0  0  0  0  0  0  0  0  0  0  0
    3.2254    7.3237   -5.1736 C   0  0  0  0  0  0  0  0  0  0  0  0
    3.2435    8.2909   -4.1844 C   0  0  0  0  0  0  0  0  0  0  0  0
    1.6742   10.6260   -2.4987 C   0  0  0  0  0  0  0  0  0  0  0  0
    1.8585   11.7695   -1.6532 C   0  0  0  0  0  0  0  0  0  0  0  0
    2.5811   11.7250   -0.5880 O   0  0  0  0  0  0  0  0  0  0  0  0
    1.2807   12.9983   -2.0527 C   0  0  0  0  0  0  0  0  0  0  0  0
    0.5556   13.1015   -3.2081 C   0  0  0  0  0  0  0  0  0  0  0  0
    0.3884   11.9888   -4.0399 C   0  0  0  0  0  0  0  0  0  0  0  0
    0.9456   10.7866   -3.6945 C   0  0  0  0  0  0  0  0  0  0  0  0
    4.1503    7.2382    3.3034 C   0  0  0  0  0  0  0  0  0  0  0  0
    5.4772    6.9095    3.0396 C   0  0  0  0  0  0  0  0  0  0  0  0
    6.0187    5.7501    3.5651 C   0  0  0  0  0  0  0  0  0  0  0  0
    5.2433    4.9117    4.3496 C   0  0  0  0  0  0  0  0  0  0  0  0
    3.9245    5.2384    4.6166 C   0  0  0  0  0  0  0  0  0  0  0  0
    3.3782    6.4003    4.0995 C   0  0  0  0  0  0  0  0  0  0  0  0
    1.9175    6.7626    0.7499 C   0  0  0  0  0  0  0  0  0  0  0  0
    1.8122   12.6045    3.8489 H   0  0  0  0  0  0  0  0  0  0  0  0
    2.4979   12.3820    6.2132 H   0  0  0  0  0  0  0  0  0  0  0  0
    3.7692   10.3948    6.9476 H   0  0  0  0  0  0  0  0  0  0  0  0
    4.3082    8.6196    5.3441 H   0  0  0  0  0  0  0  0  0  0  0  0
    4.6189    8.1299   -0.9088 H   0  0  0  0  0  0  0  0  0  0  0  0
    3.2633    7.1239   -1.5080 H   0  0  0  0  0  0  0  0  0  0  0  0
    4.0686    6.7169    0.9472 H   0  0  0  0  0  0  0  0  0  0  0  0
    0.4594    7.3798   -2.4949 H   0  0  0  0  0  0  0  0  0  0  0  0
    0.4323    5.6585   -4.2596 H   0  0  0  0  0  0  0  0  0  0  0  0
    2.2020    5.6237   -5.9773 H   0  0  0  0  0  0  0  0  0  0  0  0
    4.0001    7.3122   -5.9254 H   0  0  0  0  0  0  0  0  0  0  0  0
    4.0258    9.0344   -4.1560 H   0  0  0  0  0  0  0  0  0  0  0  0
    1.4270   13.8474   -1.4017 H   0  0  0  0  0  0  0  0  0  0  0  0
    0.1145   14.0480   -3.4843 H   0  0  0  0  0  0  0  0  0  0  0  0
   -0.1786   12.0813   -4.9536 H   0  0  0  0  0  0  0  0  0  0  0  0
    0.8140    9.9299   -4.3393 H   0  0  0  0  0  0  0  0  0  0  0  0
    6.0732    7.5749    2.4321 H   0  0  0  0  0  0  0  0  0  0  0  0
    7.0496    5.5019    3.3625 H   0  0  0  0  0  0  0  0  0  0  0  0
    5.6680    4.0065    4.7571 H   0  0  0  0  0  0  0  0  0  0  0  0
    3.3197    4.5901    5.2333 H   0  0  0  0  0  0  0  0  0  0  0  0
    2.3531    6.6647    4.3176 H   0  0  0  0  0  0  0  0  0  0  0  0
    1.8619    5.9110    0.0764 H   0  0  0  0  0  0  0  0  0  0  0  0
    1.1420    7.4808    0.4841 H   0  0  0  0  0  0  0  0  0  0  0  0
    1.7419    6.4171    1.7657 H   0  0  0  0  0  0  0  0  0  0  0  0
  1  3  1  0  0  0  0
  2  1  1  0  0  0  0
  3  4  1  0  0  0  0
  4  9  2  0  0  0  0
  4  5  1  0  0  0  0
  5  6  2  0  0  0  0
  6  7  1  0  0  0  0
  6 37  1  0  0  0  0
  7 38  1  0  0  0  0
  8 39  1  0  0  0  0
  8  7  2  0  0  0  0
  9  8  1  0  0  0  0
 10 29  1  1  0  0  0
 10  9  1  0  0  0  0
 11  1  1  6  0  0  0
 11 10  1  0  0  0  0
 12 13  1  0  0  0  0
 13 35  1  0  0  0  0
 13 42  1  1  0  0  0
 13 11  1  0  0  0  0
 14 12  1  6  0  0  0
 14  1  1  0  0  0  0
 15 16  1  6  0  0  0
 15 14  1  0  0  0  0
 17 16  1  0  0  0  0
 17 43  1  0  0  0  0
 18 17  2  0  0  0  0
 19 20  2  0  0  0  0
 19 18  1  0  0  0  0
 20 21  1  0  0  0  0
 21 47  1  0  0  0  0
 21 16  2  0  0  0  0
 22 15  1  0  0  0  0
 22 23  1  0  0  0  0
 23 24  1  0  0  0  0
 24  1  1  0  0  0  0
 25 23  2  0  0  0  0
 25 48  1  0  0  0  0
 26 25  1  0  0  0  0
 27 28  1  0  0  0  0
 27 26  2  0  0  0  0
 28 22  2  0  0  0  0
 29 34  1  0  0  0  0
 30 29  2  0  0  0  0
 30 31  1  0  0  0  0
 31 32  2  0  0  0  0
 32 33  1  0  0  0  0
 32 54  1  0  0  0  0
 33 55  1  0  0  0  0
 34 56  1  0  0  0  0
 34 33  2  0  0  0  0
 35 59  1  0  0  0  0
 36  5  1  0  0  0  0
 40 12  1  0  0  0  0
 41 12  1  0  0  0  0
 44 18  1  0  0  0  0
 45 19  1  0  0  0  0
 46 20  1  0  0  0  0
 49 26  1  0  0  0  0
 50 27  1  0  0  0  0
 51 28  1  0  0  0  0
 52 30  1  0  0  0  0
 53 31  1  0  0  0  0
 57 35  1  0  0  0  0
 58 35  1  0  0  0  0
M  END
$$$$
