CSD_code = CEMFIJ | q = 0 | S = 0 | Stoichiometry = C8H24Br2O4RuS4 | MND = 6
 OpenBabel04212202023D

 43 42  0  0  0  0  0  0  0  0999 V2000
   -0.0000   -0.0000    5.5604 Ru  0  0  0  0  0  0  0  0  0  0  0  0
    0.0000   -0.0000    3.1299 Br  0  0  0  0  0  0  0  0  0  0  0  0
    2.2544    0.4360    5.5605 S   0  0  0  0  0  0  0  0  0  0  0  0
    2.8664   -0.8961    5.5605 O   0  0  0  0  0  1  0  0  0  0  0  0
    3.0427    1.3283    4.1902 C   0  0  0  0  0  0  0  0  0  0  0  0
    2.7495    0.8532    3.2595 H   0  0  0  0  0  0  0  0  0  0  0  0
    2.6968    2.3539    4.2239 H   0  0  0  0  0  0  0  0  0  0  0  0
    4.1145    1.2545    4.3301 H   0  0  0  0  0  0  0  0  0  0  0  0
    0.0000    0.0000    7.9910 Br  0  0  0  0  0  0  0  0  0  0  0  0
   -2.2544   -0.4360    5.5605 S   0  0  0  0  0  0  0  0  0  0  0  0
   -0.4360    2.2544    5.5605 S   0  0  0  0  0  0  0  0  0  0  0  0
    0.4360   -2.2544    5.5605 S   0  0  0  0  0  0  0  0  0  0  0  0
    3.0427    1.3283    6.9308 C   0  0  0  0  0  0  0  0  0  0  0  0
   -2.8664    0.8961    5.5605 O   0  0  0  0  0  1  0  0  0  0  0  0
   -3.0427   -1.3283    6.9308 C   0  0  0  0  0  0  0  0  0  0  0  0
   -3.0427   -1.3283    4.1902 C   0  0  0  0  0  0  0  0  0  0  0  0
    0.8961    2.8664    5.5605 O   0  0  0  0  0  1  0  0  0  0  0  0
   -1.3283    3.0427    4.1902 C   0  0  0  0  0  0  0  0  0  0  0  0
   -1.3283    3.0427    6.9308 C   0  0  0  0  0  0  0  0  0  0  0  0
   -0.8961   -2.8664    5.5605 O   0  0  0  0  0  1  0  0  0  0  0  0
    1.3283   -3.0427    6.9308 C   0  0  0  0  0  0  0  0  0  0  0  0
    1.3283   -3.0427    4.1902 C   0  0  0  0  0  0  0  0  0  0  0  0
    2.7495    0.8532    7.8615 H   0  0  0  0  0  0  0  0  0  0  0  0
    2.6968    2.3538    6.8971 H   0  0  0  0  0  0  0  0  0  0  0  0
    4.1145    1.2545    6.7910 H   0  0  0  0  0  0  0  0  0  0  0  0
   -2.7495   -0.8532    7.8615 H   0  0  0  0  0  0  0  0  0  0  0  0
   -2.6968   -2.3539    6.8971 H   0  0  0  0  0  0  0  0  0  0  0  0
   -4.1145   -1.2545    6.7910 H   0  0  0  0  0  0  0  0  0  0  0  0
   -2.7495   -0.8532    3.2595 H   0  0  0  0  0  0  0  0  0  0  0  0
   -2.6968   -2.3538    4.2239 H   0  0  0  0  0  0  0  0  0  0  0  0
   -4.1145   -1.2545    4.3301 H   0  0  0  0  0  0  0  0  0  0  0  0
   -0.8532    2.7495    3.2595 H   0  0  0  0  0  0  0  0  0  0  0  0
   -2.3538    2.6968    4.2239 H   0  0  0  0  0  0  0  0  0  0  0  0
   -1.2545    4.1145    4.3301 H   0  0  0  0  0  0  0  0  0  0  0  0
   -0.8532    2.7495    7.8615 H   0  0  0  0  0  0  0  0  0  0  0  0
   -2.3539    2.6968    6.8971 H   0  0  0  0  0  0  0  0  0  0  0  0
   -1.2545    4.1145    6.7910 H   0  0  0  0  0  0  0  0  0  0  0  0
    0.8532   -2.7495    7.8615 H   0  0  0  0  0  0  0  0  0  0  0  0
    2.3539   -2.6968    6.8971 H   0  0  0  0  0  0  0  0  0  0  0  0
    1.2545   -4.1145    6.7910 H   0  0  0  0  0  0  0  0  0  0  0  0
    0.8532   -2.7495    3.2595 H   0  0  0  0  0  0  0  0  0  0  0  0
    2.3539   -2.6968    4.2239 H   0  0  0  0  0  0  0  0  0  0  0  0
    1.2545   -4.1145    4.3301 H   0  0  0  0  0  0  0  0  0  0  0  0
  1  3  1  0  0  0  0
  1 12  1  0  0  0  0
  1 11  1  0  0  0  0
  1 10  1  0  0  0  0
  1  9  1  0  0  0  0
  2  1  1  0  0  0  0
  3  4  1  0  0  0  0
  3 13  1  0  0  0  0
  5  7  1  0  0  0  0
  5  8  1  0  0  0  0
  5  3  1  0  0  0  0
  6  5  1  0  0  0  0
 10 15  1  0  0  0  0
 11 17  1  0  0  0  0
 11 19  1  0  0  0  0
 12 20  1  0  0  0  0
 12 21  1  0  0  0  0
 13 23  1  0  0  0  0
 14 10  1  0  0  0  0
 15 26  1  0  0  0  0
 16 30  1  0  0  0  0
 16 31  1  0  0  0  0
 16 10  1  0  0  0  0
 18 33  1  0  0  0  0
 18 34  1  0  0  0  0
 18 11  1  0  0  0  0
 19 35  1  0  0  0  0
 21 38  1  0  0  0  0
 22 42  1  0  0  0  0
 22 43  1  0  0  0  0
 22 12  1  0  0  0  0
 24 13  1  0  0  0  0
 25 13  1  0  0  0  0
 27 15  1  0  0  0  0
 28 15  1  0  0  0  0
 29 16  1  0  0  0  0
 32 18  1  0  0  0  0
 36 19  1  0  0  0  0
 37 19  1  0  0  0  0
 39 21  1  0  0  0  0
 40 21  1  0  0  0  0
 41 22  1  0  0  0  0
M  END
$$$$
