CSD_code = CEMJUA | q = 0 | S = 0 | Stoichiometry = C14H27ClN6PRh | MND = 6
 OpenBabel04212202023D

 50 52  0  0  1  0  0  0  0  0999 V2000
   12.5156    1.2061    6.6038 Rh  0  0  0  0  0  0  0  0  0  0  0  0
   12.8214    3.2522    7.5423 P   0  0  1  0  0  0  0  0  0  0  0  0
   11.7618    2.2600    4.7743 Cl  0  0  0  0  0 15  0  0  0  0  0  0
   12.5599    3.3951    9.2395 N   0  0  0  0  0  0  0  0  0  0  0  0
   12.3436    4.7910    6.9395 N   0  0  0  0  0  0  0  0  0  0  0  0
   14.5054    3.5232    7.6337 N   0  0  0  0  0  0  0  0  0  0  0  0
   13.0364    4.6201    9.8093 N   0  0  1  0  0  0  0  0  0  0  0  0
   14.9154    4.7320    8.2747 N   0  0  2  0  0  0  0  0  0  0  0  0
   12.8517    5.8773    7.7309 N   0  0  2  0  0  0  0  0  0  0  0  0
   12.7174    0.0660    8.4260 C   0  0  0  0  0  3  0  0  0  0  0  0
   11.9794   -1.2565    8.3867 C   0  0  0  0  0  0  0  0  0  0  0  0
   11.0220   -1.3549    7.1848 C   0  0  0  0  0  0  0  0  0  0  0  0
   11.4998   -0.5877    5.9752 C   0  0  2  0  0  0  0  0  0  0  0  0
   12.7856   -0.6211    5.4670 C   0  0  0  0  0  3  0  0  0  0  0  0
   13.8853   -1.5007    6.0178 C   0  0  0  0  0  0  0  0  0  0  0  0
   14.7403   -0.7671    7.0677 C   0  0  0  0  0  0  0  0  0  0  0  0
   13.9681    0.2688    7.8524 C   0  0  1  0  0  0  0  0  0  0  0  0
   11.2709    3.0028    9.7751 C   0  0  0  0  0  0  0  0  0  0  0  0
   11.0344    5.0782    6.3930 C   0  0  0  0  0  0  0  0  0  0  0  0
   15.2887    3.2174    6.4520 C   0  0  0  0  0  0  0  0  0  0  0  0
   14.4826    4.6502    9.6607 C   0  0  0  0  0  0  0  0  0  0  0  0
   14.2987    5.8927    7.6381 C   0  0  0  0  0  0  0  0  0  0  0  0
   12.4591    5.7763    9.1280 C   0  0  0  0  0  0  0  0  0  0  0  0
   12.4777    0.6875    9.2829 H   0  0  0  0  0  0  0  0  0  0  0  0
   12.7052   -2.0705    8.3666 H   0  0  0  0  0  0  0  0  0  0  0  0
   11.3994   -1.3667    9.3053 H   0  0  0  0  0  0  0  0  0  0  0  0
   10.8704   -2.4034    6.9058 H   0  0  0  0  0  0  0  0  0  0  0  0
   10.0467   -0.9543    7.4740 H   0  0  0  0  0  0  0  0  0  0  0  0
   10.6975   -0.2754    5.3062 H   0  0  0  0  0  0  0  0  0  0  0  0
   12.9233   -0.3080    4.4322 H   0  0  0  0  0  0  0  0  0  0  0  0
   14.5311   -1.8167    5.1961 H   0  0  0  0  0  0  0  0  0  0  0  0
   13.4422   -2.4014    6.4443 H   0  0  0  0  0  0  0  0  0  0  0  0
   15.1802   -1.4887    7.7652 H   0  0  0  0  0  0  0  0  0  0  0  0
   15.5690   -0.2637    6.5626 H   0  0  0  0  0  0  0  0  0  0  0  0
   14.6016    1.0287    8.3083 H   0  0  0  0  0  0  0  0  0  0  0  0
   10.8454    2.2439    9.1154 H   0  0  0  0  0  0  0  0  0  0  0  0
   11.4085    2.5926   10.7780 H   0  0  0  0  0  0  0  0  0  0  0  0
   10.5636    3.8354    9.8411 H   0  0  0  0  0  0  0  0  0  0  0  0
   11.1103    5.9779    5.7817 H   0  0  0  0  0  0  0  0  0  0  0  0
   10.2696    5.2372    7.1614 H   0  0  0  0  0  0  0  0  0  0  0  0
   10.7506    4.2360    5.7661 H   0  0  0  0  0  0  0  0  0  0  0  0
   16.3207    3.0306    6.7529 H   0  0  0  0  0  0  0  0  0  0  0  0
   14.8597    2.3164    5.9976 H   0  0  0  0  0  0  0  0  0  0  0  0
   15.2752    4.0150    5.7034 H   0  0  0  0  0  0  0  0  0  0  0  0
   14.8687    5.5192   10.2005 H   0  0  0  0  0  0  0  0  0  0  0  0
   14.8863    3.7304   10.0901 H   0  0  0  0  0  0  0  0  0  0  0  0
   14.6737    6.7962    8.1268 H   0  0  0  0  0  0  0  0  0  0  0  0
   14.5754    5.9086    6.5816 H   0  0  0  0  0  0  0  0  0  0  0  0
   12.7929    6.6794    9.6457 H   0  0  0  0  0  0  0  0  0  0  0  0
   11.3689    5.7206    9.1857 H   0  0  0  0  0  0  0  0  0  0  0  0
  1 17  1  0  0  0  0
  2  5  1  6  0  0  0
  2  6  1  0  0  0  0
  2  4  1  0  0  0  0
  4 18  1  0  0  0  0
  4  7  1  0  0  0  0
  7 23  1  6  0  0  0
  8  6  1  6  0  0  0
  8 21  1  0  0  0  0
  9  5  1  6  0  0  0
  9 23  1  0  0  0  0
 10 24  1  0  0  0  0
 11 10  1  0  0  0  0
 11 26  1  0  0  0  0
 12 28  1  0  0  0  0
 12 11  1  0  0  0  0
 13 29  1  6  0  0  0
 13  1  1  0  0  0  0
 13 12  1  0  0  0  0
 14 13  1  0  0  0  0
 14 15  1  0  0  0  0
 15 32  1  0  0  0  0
 15 16  1  0  0  0  0
 16 33  1  0  0  0  0
 16 17  1  0  0  0  0
 17 35  1  1  0  0  0
 17 10  1  0  0  0  0
 18 38  1  0  0  0  0
 18 37  1  0  0  0  0
 19  5  1  0  0  0  0
 19 40  1  0  0  0  0
 20 42  1  0  0  0  0
 20  6  1  0  0  0  0
 21  7  1  0  0  0  0
 21 46  1  0  0  0  0
 21 45  1  0  0  0  0
 22  9  1  0  0  0  0
 22 47  1  0  0  0  0
 22  8  1  0  0  0  0
 23 50  1  0  0  0  0
 23 49  1  0  0  0  0
 25 11  1  0  0  0  0
 27 12  1  0  0  0  0
 30 14  1  0  0  0  0
 31 15  1  0  0  0  0
 34 16  1  0  0  0  0
 36 18  1  0  0  0  0
 39 19  1  0  0  0  0
 41 19  1  0  0  0  0
 43 20  1  0  0  0  0
 44 20  1  0  0  0  0
 48 22  1  0  0  0  0
M  END
$$$$
