CSD_code = CEMSEU | q = 0 | S = 0 | Stoichiometry = C21H36B9ClNP2RhS | MND = 7
 OpenBabel04212202023D

 72 75  0  0  0  0  0  0  0  0999 V2000
    2.4856    2.5053    8.3484 Rh  0  0  0  0  0  0  0  0  0  0  0  0
    1.4306    4.4415    7.6864 P   0  0  0  0  0  4  0  0  0  0  0  0
    1.0128    0.7239    7.3398 P   0  0  0  0  0  0  0  0  0  0  0  0
    3.2289    2.6283    6.0670 Cl  0  0  0  0  0 15  0  0  0  0  0  0
    0.6201    2.7978   11.0149 N   0  0  0  0  0  0  0  0  0  0  0  0
    4.2040    0.9087    8.7449 S   0  0  0  0  0  1  0  0  0  0  0  0
    4.8004    2.8202   11.0451 B   0  0  1  0  0  0  0  0  0  0  0  0
    5.3552    1.3267   10.2945 B   0  0  1  0  0  0  0  0  0  0  0  0
    4.6333    2.7108    9.3113 B   0  0  2  0  0  0  0  0  0  0  0  0
    3.3143    3.4487   10.2857 B   0  0  1  0  0  0  0  0  0  0  0  0
    3.2168    2.4943   11.8168 B   0  0  1  0  0  0  0  0  0  0  0  0
    2.8796    3.0160   12.8234 H   0  0  0  0  0  0  0  0  0  0  0  0
    4.4032    1.2061   11.7589 B   0  0  1  0  0  0  0  0  0  0  0  0
    1.9701    2.3889   10.5330 B   0  0  1  0  0  0  0  0  0  0  0  0
    2.7064    0.7987   11.3734 B   0  0  0  0  0  0  0  0  0  0  0  0
    2.0053    0.1944   12.1106 H   0  0  0  0  0  0  0  0  0  0  0  0
    4.0039    0.1060   10.4456 B   0  0  1  0  0  0  0  0  0  0  0  0
    5.5753    3.5701   11.5225 H   0  0  0  0  0  0  0  0  0  0  0  0
    6.4703    1.0001   10.1109 H   0  0  0  0  0  0  0  0  0  0  0  0
    5.3119    3.2888    8.5406 H   0  0  0  0  0  0  0  0  0  0  0  0
    3.1675    4.6271   10.3124 H   0  0  0  0  0  0  0  0  0  0  0  0
    4.8644    0.7939   12.7619 H   0  0  0  0  0  0  0  0  0  0  0  0
    4.2425   -1.0509   10.3944 H   0  0  0  0  0  0  0  0  0  0  0  0
    1.9419    1.1132   10.3234 H   0  0  0  0  0  0  0  0  0  0  0  0
    0.4149    4.0293   11.5381 C   0  0  0  0  0  3  0  0  0  0  0  0
   -0.7709    4.4044   12.1177 C   0  0  0  0  0  0  0  0  0  0  0  0
   -1.8327    3.5074   12.1691 C   0  0  0  0  0  0  0  0  0  0  0  0
   -1.6355    2.2520   11.6065 C   0  0  0  0  0  0  0  0  0  0  0  0
   -0.4207    1.9348   11.0510 C   0  0  0  0  0  0  0  0  0  0  0  0
    0.0099    5.1230    8.6210 C   0  0  0  0  0  0  0  0  0  0  0  0
   -1.1223    4.3147    8.6829 C   0  0  0  0  0  0  0  0  0  0  0  0
   -2.2831    4.7643    9.2788 C   0  0  0  0  0  0  0  0  0  0  0  0
   -2.3209    6.0303    9.8429 C   0  0  0  0  0  0  0  0  0  0  0  0
   -1.1893    6.8265    9.8211 C   0  0  0  0  0  0  0  0  0  0  0  0
   -0.0282    6.3762    9.2152 C   0  0  0  0  0  0  0  0  0  0  0  0
    2.5875    5.8565    7.5396 C   0  0  0  0  0  0  0  0  0  0  0  0
    2.0832    6.7470    7.1678 H   0  0  0  0  0  0  0  0  0  0  0  0
    3.3527    5.5487    6.8285 H   0  0  0  0  0  0  0  0  0  0  0  0
    3.0694    6.0594    8.4921 H   0  0  0  0  0  0  0  0  0  0  0  0
    0.6473    4.5844    6.0229 C   0  0  0  0  0  0  0  0  0  0  0  0
   -0.2306    3.9494    5.9551 H   0  0  0  0  0  0  0  0  0  0  0  0
    1.3717    4.2738    5.2748 H   0  0  0  0  0  0  0  0  0  0  0  0
    0.3516    5.6192    5.8523 H   0  0  0  0  0  0  0  0  0  0  0  0
   -0.1245   -0.2962    8.3483 C   0  0  0  0  0  0  0  0  0  0  0  0
    0.4182   -1.2173    9.2449 C   0  0  0  0  0  0  0  0  0  0  0  0
   -0.3932   -1.9240   10.1123 C   0  0  0  0  0  0  0  0  0  0  0  0
   -1.7632   -1.7136   10.1104 C   0  0  0  0  0  0  0  0  0  0  0  0
   -2.3987   -2.2669   10.7858 H   0  0  0  0  0  0  0  0  0  0  0  0
   -2.3117   -0.7873    9.2388 C   0  0  0  0  0  0  0  0  0  0  0  0
   -1.4992   -0.0780    8.3724 C   0  0  0  0  0  0  0  0  0  0  0  0
    2.0419   -0.6059    6.5888 C   0  0  0  0  0  0  0  0  0  0  0  0
    1.4098   -1.3615    6.1247 H   0  0  0  0  0  0  0  0  0  0  0  0
    2.6867   -1.0707    7.3298 H   0  0  0  0  0  0  0  0  0  0  0  0
    2.6722   -0.1318    5.8388 H   0  0  0  0  0  0  0  0  0  0  0  0
   -0.0224    1.0610    5.8542 C   0  0  0  0  0  0  0  0  0  0  0  0
   -0.4531    0.1373    5.4702 H   0  0  0  0  0  0  0  0  0  0  0  0
    0.6379    1.5004    5.1091 H   0  0  0  0  0  0  0  0  0  0  0  0
   -0.8169    1.7694    6.0745 H   0  0  0  0  0  0  0  0  0  0  0  0
    1.2559    4.7008   11.4981 H   0  0  0  0  0  0  0  0  0  0  0  0
   -0.8630    5.3930   12.5366 H   0  0  0  0  0  0  0  0  0  0  0  0
   -2.7694    3.7752   12.6286 H   0  0  0  0  0  0  0  0  0  0  0  0
   -2.4192    1.5114   11.6057 H   0  0  0  0  0  0  0  0  0  0  0  0
   -0.2541    0.9577   10.6274 H   0  0  0  0  0  0  0  0  0  0  0  0
   -1.0757    3.3208    8.2539 H   0  0  0  0  0  0  0  0  0  0  0  0
   -3.1601    4.1336    9.3051 H   0  0  0  0  0  0  0  0  0  0  0  0
   -3.2292    6.3911   10.3025 H   0  0  0  0  0  0  0  0  0  0  0  0
   -1.2132    7.8089   10.2706 H   0  0  0  0  0  0  0  0  0  0  0  0
    0.8457    7.0091    9.2016 H   0  0  0  0  0  0  0  0  0  0  0  0
    1.4862   -1.3802    9.2655 H   0  0  0  0  0  0  0  0  0  0  0  0
    0.0444   -2.6378   10.7943 H   0  0  0  0  0  0  0  0  0  0  0  0
   -3.3791   -0.6166    9.2336 H   0  0  0  0  0  0  0  0  0  0  0  0
   -1.9429    0.6462    7.7055 H   0  0  0  0  0  0  0  0  0  0  0  0
  2  1  1  0  0  0  0
  2 30  1  0  0  0  0
  3 44  1  0  0  0  0
  5 29  1  0  0  0  0
  5 25  1  0  0  0  0
  6  9  1  0  0  0  0
  7 18  1  1  0  0  0
  8 19  1  6  0  0  0
  8 17  1  0  0  0  0
  8  7  1  0  0  0  0
  8 13  1  0  0  0  0
  9 20  1  6  0  0  0
  9 10  1  0  0  0  0
  9  7  1  0  0  0  0
 10 21  1  6  0  0  0
 10 14  1  0  0  0  0
 10  7  1  0  0  0  0
 11 12  1  1  0  0  0
 13 11  1  0  0  0  0
 13 22  1  1  0  0  0
 14 24  1  6  0  0  0
 14  5  1  0  0  0  0
 14 11  1  0  0  0  0
 15 11  1  0  0  0  0
 15 16  1  0  0  0  0
 17 23  1  1  0  0  0
 17 15  1  0  0  0  0
 17 13  1  0  0  0  0
 25 26  1  0  0  0  0
 26 27  2  0  0  0  0
 26 60  1  0  0  0  0
 27 61  1  0  0  0  0
 28 27  1  0  0  0  0
 29 28  2  0  0  0  0
 30 31  2  0  0  0  0
 30 35  1  0  0  0  0
 31 32  1  0  0  0  0
 32 65  1  0  0  0  0
 32 33  2  0  0  0  0
 33 66  1  0  0  0  0
 34 33  1  0  0  0  0
 34 67  1  0  0  0  0
 35 34  2  0  0  0  0
 36  2  1  0  0  0  0
 36 39  1  0  0  0  0
 37 36  1  0  0  0  0
 38 36  1  0  0  0  0
 40  2  1  0  0  0  0
 41 40  1  0  0  0  0
 42 40  1  0  0  0  0
 43 40  1  0  0  0  0
 44 50  2  0  0  0  0
 44 45  1  0  0  0  0
 45 69  1  0  0  0  0
 45 46  2  0  0  0  0
 46 70  1  0  0  0  0
 47 46  1  0  0  0  0
 47 48  1  0  0  0  0
 49 47  2  0  0  0  0
 50 49  1  0  0  0  0
 51 53  1  0  0  0  0
 51  3  1  0  0  0  0
 52 51  1  0  0  0  0
 54 51  1  0  0  0  0
 55 58  1  0  0  0  0
 55  3  1  0  0  0  0
 56 55  1  0  0  0  0
 57 55  1  0  0  0  0
 59 25  1  0  0  0  0
 62 28  1  0  0  0  0
 63 29  1  0  0  0  0
 64 31  1  0  0  0  0
 68 35  1  0  0  0  0
 71 49  1  0  0  0  0
 72 50  1  0  0  0  0
M  END
$$$$
