CSD_code = CEMYEB | q = 0 | S = 0 | Stoichiometry = C21H25I2N3PdSi | MND = 4
 OpenBabel04212202023D

 53 55  0  0  0  0  0  0  0  0999 V2000
   -2.8241    0.2586    8.3905 C   0  0  0  0  0  0  0  0  0  0  0  0
   -1.7695   -0.9283    9.9397 C   0  0  0  0  0  0  0  0  0  0  0  0
   -1.5173   -1.7888   10.5241 H   0  0  0  0  0  0  0  0  0  0  0  0
   -1.2630    0.3398    9.9722 C   0  0  0  0  0  0  0  0  0  0  0  0
   -3.5414   -2.0861    8.5818 C   0  0  0  0  0  0  0  0  0  0  0  0
   -4.1345   -1.7695    7.6956 H   0  0  0  0  0  0  0  0  0  0  0  0
   -4.2335   -2.3247    9.3974 H   0  0  0  0  0  0  0  0  0  0  0  0
   -2.6794   -3.2728    8.2427 C   0  0  0  0  0  0  0  0  0  0  0  0
   -2.7042   -4.4190    9.0244 C   0  0  0  0  0  0  0  0  0  0  0  0
   -3.3698   -4.4764    9.8744 H   0  0  0  0  0  0  0  0  0  0  0  0
   -1.8836   -5.4898    8.7140 C   0  0  0  0  0  0  0  0  0  0  0  0
   -1.9105   -6.3801    9.3247 H   0  0  0  0  0  0  0  0  0  0  0  0
   -1.0292   -5.4176    7.6272 C   0  0  0  0  0  0  0  0  0  0  0  0
   -0.3880   -6.2530    7.3884 H   0  0  0  0  0  0  0  0  0  0  0  0
   -0.9989   -4.2741    6.8461 C   0  0  0  0  0  0  0  0  0  0  0  0
   -0.3368   -4.2126    5.9960 H   0  0  0  0  0  0  0  0  0  0  0  0
   -1.8218   -3.2060    7.1515 C   0  0  0  0  0  0  0  0  0  0  0  0
   -1.8011   -2.3171    6.5374 H   0  0  0  0  0  0  0  0  0  0  0  0
   -1.7448    2.4406    8.6713 C   0  0  0  0  0  0  0  0  0  0  0  0
   -2.5550    2.7504    7.9881 H   0  0  0  0  0  0  0  0  0  0  0  0
   -0.7817    2.5837    8.1754 H   0  0  0  0  0  0  0  0  0  0  0  0
   -1.7758    3.0510    9.5747 H   0  0  0  0  0  0  0  0  0  0  0  0
   -0.2714    0.9176   10.7766 C   0  0  0  0  0  0  0  0  0  0  0  0
    0.5729    1.4666   11.4466 C   0  0  0  0  0  0  0  0  0  0  0  0
    3.4304    1.1750   12.4489 C   0  0  0  0  0  0  0  0  0  0  0  0
    3.2124    0.1871   12.8437 H   0  0  0  0  0  0  0  0  0  0  0  0
    4.2340    1.5978   13.0451 H   0  0  0  0  0  0  0  0  0  0  0  0
    3.8030    1.0482   11.4368 H   0  0  0  0  0  0  0  0  0  0  0  0
    1.2062    2.4730   14.2522 C   0  0  0  0  0  0  0  0  0  0  0  0
    0.3056    3.0795   14.2686 H   0  0  0  0  0  0  0  0  0  0  0  0
    1.9335    2.9469   14.9053 H   0  0  0  0  0  0  0  0  0  0  0  0
    0.9582    1.5072   14.6822 H   0  0  0  0  0  0  0  0  0  0  0  0
    2.2371    3.9875   11.6977 C   0  0  0  0  0  0  0  0  0  0  0  0
    2.5816    3.8858   10.6728 H   0  0  0  0  0  0  0  0  0  0  0  0
    3.0034    4.5244   12.2495 H   0  0  0  0  0  0  0  0  0  0  0  0
    1.3467    4.6093   11.6848 H   0  0  0  0  0  0  0  0  0  0  0  0
   -5.4903    2.5480    5.1835 C   0  0  0  0  0  3  0  0  0  0  0  0
   -4.8286    3.2563    5.6850 H   0  0  0  0  0  0  0  0  0  0  0  0
   -6.3946    2.9625    4.2229 C   0  0  0  0  0  0  0  0  0  0  0  0
   -6.4583    4.0051    3.9550 H   0  0  0  0  0  0  0  0  0  0  0  0
   -7.2080    2.0143    3.6210 C   0  0  0  0  0  0  0  0  0  0  0  0
   -7.9247    2.3039    2.8680 H   0  0  0  0  0  0  0  0  0  0  0  0
   -7.0840    0.6876    4.0042 C   0  0  0  0  0  0  0  0  0  0  0  0
   -7.6962   -0.0819    3.5616 H   0  0  0  0  0  0  0  0  0  0  0  0
   -6.1544    0.3603    4.9748 C   0  0  0  0  0  0  0  0  0  0  0  0
   -6.0217   -0.6694    5.3103 H   0  0  0  0  0  0  0  0  0  0  0  0
   -2.7261   -0.9510    8.9626 N   0  0  0  0  0  0  0  0  0  0  0  0
   -1.9414    1.0546    9.0011 N   0  0  0  0  0  0  0  0  0  0  0  0
   -5.3792    1.2748    5.5466 N   0  0  0  0  0  0  0  0  0  0  0  0
    1.8850    2.2870   12.4823 Si  0  0  0  0  0  0  0  0  0  0  0  0
   -4.0757    0.7613    6.9763 Pd  0  0  0  0  0  0  0  0  0  0  0  0
   -2.1821    0.5401    5.2007 I   0  0  0  0  0  0  0  0  0  0  0  0
   -5.9128    1.0789    8.8008 I   0  0  0  0  0  0  0  0  0  0  0  0
  1 47  1  0  0  0  0
  1 48  1  0  0  0  0
  2  4  2  0  0  0  0
  2  3  1  0  0  0  0
  4 23  1  0  0  0  0
  5 47  1  0  0  0  0
  5  7  1  0  0  0  0
  6  5  1  0  0  0  0
  8  5  1  0  0  0  0
  8  9  1  0  0  0  0
  9 10  1  0  0  0  0
 11  9  2  0  0  0  0
 11 12  1  0  0  0  0
 13 11  1  0  0  0  0
 14 13  1  0  0  0  0
 15 17  1  0  0  0  0
 15 13  2  0  0  0  0
 16 15  1  0  0  0  0
 17  8  2  0  0  0  0
 18 17  1  0  0  0  0
 19 48  1  0  0  0  0
 19 22  1  0  0  0  0
 20 19  1  0  0  0  0
 21 19  1  0  0  0  0
 23 24  3  0  0  0  0
 24 50  1  0  0  0  0
 25 50  1  0  0  0  0
 25 26  1  0  0  0  0
 25 27  1  0  0  0  0
 28 25  1  0  0  0  0
 29 30  1  0  0  0  0
 29 32  1  0  0  0  0
 29 31  1  0  0  0  0
 33 35  1  0  0  0  0
 33 50  1  0  0  0  0
 34 33  1  0  0  0  0
 36 33  1  0  0  0  0
 37 49  1  0  0  0  0
 37 38  1  0  0  0  0
 39 37  1  0  0  0  0
 40 39  1  0  0  0  0
 41 43  1  0  0  0  0
 41 39  2  0  0  0  0
 42 41  1  0  0  0  0
 43 45  2  0  0  0  0
 44 43  1  0  0  0  0
 45 46  1  0  0  0  0
 45 49  1  0  0  0  0
 47  2  1  0  0  0  0
 48  4  1  0  0  0  0
 49 51  1  0  0  0  0
 50 29  1  0  0  0  0
 51  1  2  0  0  0  0
 51 53  1  0  0  0  0
 52 51  1  0  0  0  0
M  END
$$$$
