CSD_code = CEMYOL | q = 0 | S = 0 | Stoichiometry = C21H25Br2N3PdSi | MND = 4
 OpenBabel04212202023D

 53 55  0  0  0  0  0  0  0  0999 V2000
    3.0976    9.6417    3.9299 C   0  0  0  0  0  0  0  0  0  0  0  0
    3.9922    7.6219    4.1538 C   0  0  0  0  0  0  0  0  0  0  0  0
    4.1901    6.5957    3.9214 H   0  0  0  0  0  0  0  0  0  0  0  0
    4.4594    8.3960    5.1774 C   0  0  0  0  0  0  0  0  0  0  0  0
    2.4099    7.9880    2.2361 C   0  0  0  0  0  0  0  0  0  0  0  0
    1.3662    7.8148    2.5285 H   0  0  0  0  0  0  0  0  0  0  0  0
    2.8403    7.0520    1.8707 H   0  0  0  0  0  0  0  0  0  0  0  0
    2.4884    9.0692    1.1834 C   0  0  0  0  0  0  0  0  0  0  0  0
    3.6711    9.2677    0.4818 C   0  0  0  0  0  0  0  0  0  0  0  0
    4.5187    8.6232    0.6679 H   0  0  0  0  0  0  0  0  0  0  0  0
    3.7766   10.2978   -0.4365 C   0  0  0  0  0  0  0  0  0  0  0  0
    4.7060   10.4553   -0.9612 H   0  0  0  0  0  0  0  0  0  0  0  0
    2.6986   11.1344   -0.6672 C   0  0  0  0  0  0  0  0  0  0  0  0
    2.7854   11.9433   -1.3767 H   0  0  0  0  0  0  0  0  0  0  0  0
    1.5101   10.9404    0.0181 C   0  0  0  0  0  0  0  0  0  0  0  0
    0.6625   11.5797   -0.1899 H   0  0  0  0  0  0  0  0  0  0  0  0
    1.4012    9.9185    0.9560 C   0  0  0  0  0  0  0  0  0  0  0  0
    0.4472    9.7107    1.4383 H   0  0  0  0  0  0  0  0  0  0  0  0
    4.0927   10.7831    5.8653 C   0  0  0  0  0  0  0  0  0  0  0  0
    3.1904   11.4182    5.8405 H   0  0  0  0  0  0  0  0  0  0  0  0
    4.9492   11.3648    5.5106 H   0  0  0  0  0  0  0  0  0  0  0  0
    4.2796   10.4478    6.8853 H   0  0  0  0  0  0  0  0  0  0  0  0
    5.3368    8.0982    6.2291 C   0  0  0  0  0  0  0  0  0  0  0  0
    6.0866    7.8899    7.1555 C   0  0  0  0  0  0  0  0  0  0  0  0
    6.9720    5.7617    9.1448 C   0  0  0  0  0  0  0  0  0  0  0  0
    5.9461    5.5957    9.4595 H   0  0  0  0  0  0  0  0  0  0  0  0
    7.6177    5.5110    9.9816 H   0  0  0  0  0  0  0  0  0  0  0  0
    7.1863    5.0614    8.3429 H   0  0  0  0  0  0  0  0  0  0  0  0
    9.0223    7.8305    7.9643 C   0  0  0  0  0  0  0  0  0  0  0  0
    9.2660    7.1508    7.1532 H   0  0  0  0  0  0  0  0  0  0  0  0
    9.7434    7.6654    8.7597 H   0  0  0  0  0  0  0  0  0  0  0  0
    9.1642    8.8424    7.5966 H   0  0  0  0  0  0  0  0  0  0  0  0
    6.7957    8.7949    9.9612 C   0  0  0  0  0  0  0  0  0  0  0  0
    6.9234    9.8214    9.6301 H   0  0  0  0  0  0  0  0  0  0  0  0
    7.4255    8.6515   10.8345 H   0  0  0  0  0  0  0  0  0  0  0  0
    5.7637    8.6777   10.2784 H   0  0  0  0  0  0  0  0  0  0  0  0
    1.4387   14.0205    3.6794 C   0  0  0  0  0  3  0  0  0  0  0  0
    2.3930   13.9581    4.1986 H   0  0  0  0  0  0  0  0  0  0  0  0
    0.7224   15.2043    3.6665 C   0  0  0  0  0  0  0  0  0  0  0  0
    1.1052   16.0677    4.1871 H   0  0  0  0  0  0  0  0  0  0  0  0
   -0.4794   15.2538    2.9786 C   0  0  0  0  0  0  0  0  0  0  0  0
   -1.0610   16.1625    2.9457 H   0  0  0  0  0  0  0  0  0  0  0  0
   -0.9209   14.1051    2.3413 C   0  0  0  0  0  0  0  0  0  0  0  0
   -1.8548   14.0891    1.8022 H   0  0  0  0  0  0  0  0  0  0  0  0
   -0.1479   12.9602    2.4138 C   0  0  0  0  0  0  0  0  0  0  0  0
   -0.4829   12.0373    1.9535 H   0  0  0  0  0  0  0  0  0  0  0  0
    3.1590    8.4046    3.4052 N   0  0  0  0  0  0  0  0  0  0  0  0
    3.8808    9.6397    5.0152 N   0  0  0  0  0  0  0  0  0  0  0  0
    1.0152   12.9198    3.0589 N   0  0  0  0  0  0  0  0  0  0  0  0
    7.2398    7.5603    8.5789 Si  0  0  0  0  0  0  0  0  0  0  0  0
    4.1418   12.2257    2.5510 Br  0  0  0  0  0  0  0  0  0  0  0  0
    0.1414   10.2246    4.5265 Br  0  0  0  0  0  0  0  0  0  0  0  0
    2.0728   11.2202    3.3934 Pd  0  0  0  0  0  0  0  0  0  0  0  0
  1 48  1  0  0  0  0
  2  4  2  0  0  0  0
  3  2  1  0  0  0  0
  4 23  1  0  0  0  0
  5  6  1  0  0  0  0
  5 47  1  0  0  0  0
  7  5  1  0  0  0  0
  8  5  1  0  0  0  0
  9 10  1  0  0  0  0
  9  8  2  0  0  0  0
 11  9  1  0  0  0  0
 12 11  1  0  0  0  0
 13 11  2  0  0  0  0
 13 15  1  0  0  0  0
 14 13  1  0  0  0  0
 15 17  2  0  0  0  0
 16 15  1  0  0  0  0
 17  8  1  0  0  0  0
 17 18  1  0  0  0  0
 19 22  1  0  0  0  0
 20 19  1  0  0  0  0
 21 19  1  0  0  0  0
 23 24  3  0  0  0  0
 24 50  1  0  0  0  0
 25 26  1  0  0  0  0
 25 27  1  0  0  0  0
 28 25  1  0  0  0  0
 29 50  1  0  0  0  0
 29 31  1  0  0  0  0
 30 29  1  0  0  0  0
 32 29  1  0  0  0  0
 33 36  1  0  0  0  0
 33 35  1  0  0  0  0
 34 33  1  0  0  0  0
 37 38  1  0  0  0  0
 39 37  1  0  0  0  0
 39 40  1  0  0  0  0
 41 39  2  0  0  0  0
 42 41  1  0  0  0  0
 43 45  2  0  0  0  0
 43 41  1  0  0  0  0
 44 43  1  0  0  0  0
 45 49  1  0  0  0  0
 46 45  1  0  0  0  0
 47  1  1  0  0  0  0
 47  2  1  0  0  0  0
 48  4  1  0  0  0  0
 48 19  1  0  0  0  0
 49 53  1  0  0  0  0
 49 37  1  0  0  0  0
 50 25  1  0  0  0  0
 50 33  1  0  0  0  0
 51 53  1  0  0  0  0
 53  1  2  0  0  0  0
 53 52  1  0  0  0  0
M  END
$$$$
