CSD_code = CENCOS | q = 1 | S = 0 | Stoichiometry = C4H16Cl2CoN4(1+) | MND = 6
 OpenBabel04212202023D

 27 28  0  0  0  0  0  0  0  0999 V2000
    1.7737    3.4870    0.7078 Co  0  0  0  0  0  0  0  0  0  0  0  0
    2.7708    2.5630    2.4562 Cl  0  0  0  0  0  0  0  0  0  0  0  0
    0.7757    4.4107   -1.0405 Cl  0  0  0  0  0  0  0  0  0  0  0  0
    0.5372    4.4107    1.9174 N   0  0  0  0  0  4  0  0  0  0  0  0
    2.8941    5.0845    0.8971 N   0  0  0  0  0  4  0  0  0  0  0  0
    0.6532    1.8886    0.5180 N   0  0  0  0  0  4  0  0  0  0  0  0
    3.0101    2.5638   -0.5021 N   0  0  0  0  0  4  0  0  0  0  0  0
    0.9061    5.8347    1.9984 C   0  0  0  0  0  0  0  0  0  0  0  0
    2.4253    5.8758    2.0479 C   0  0  0  0  0  0  0  0  0  0  0  0
    1.1247    1.0963   -0.6311 C   0  0  0  0  0  0  0  0  0  0  0  0
    2.6437    1.1390   -0.5787 C   0  0  0  0  0  0  0  0  0  0  0  0
   -0.4516    4.3421    1.6743 H   0  0  0  0  0  0  0  0  0  0  0  0
    0.5504    6.3344    1.0942 H   0  0  0  0  0  0  0  0  0  0  0  0
    0.4638    6.3186    2.8734 H   0  0  0  0  0  0  0  0  0  0  0  0
    2.7996    6.9025    2.0129 H   0  0  0  0  0  0  0  0  0  0  0  0
    2.7801    5.3959    2.9631 H   0  0  0  0  0  0  0  0  0  0  0  0
    2.7623    5.6386    0.0458 H   0  0  0  0  0  0  0  0  0  0  0  0
    3.8943    4.9117    1.0042 H   0  0  0  0  0  0  0  0  0  0  0  0
    0.7841    1.3357    1.3703 H   0  0  0  0  0  0  0  0  0  0  0  0
   -0.3469    2.0606    0.4091 H   0  0  0  0  0  0  0  0  0  0  0  0
    0.7512    0.0694   -0.5961 H   0  0  0  0  0  0  0  0  0  0  0  0
    0.7713    1.5751   -1.5472 H   0  0  0  0  0  0  0  0  0  0  0  0
    2.9979    0.6434    0.3282 H   0  0  0  0  0  0  0  0  0  0  0  0
    3.0888    0.6523   -1.4506 H   0  0  0  0  0  0  0  0  0  0  0  0
    3.9997    2.6351   -0.2631 H   0  0  0  0  0  0  0  0  0  0  0  0
    2.8813    2.9830   -1.4278 H   0  0  0  0  0  0  0  0  0  0  0  0
    0.6614    3.9890    2.8426 H   0  0  0  0  0  0  0  0  0  0  0  0
  1  5  1  0  0  0  0
  1  4  1  0  0  0  0
  1  2  1  0  0  0  0
  3  1  1  0  0  0  0
  4  8  1  0  0  0  0
  4 27  1  0  0  0  0
  5 18  1  0  0  0  0
  5  9  1  0  0  0  0
  6  1  1  0  0  0  0
  6 19  1  0  0  0  0
  7 25  1  0  0  0  0
  7  1  1  0  0  0  0
  8  9  1  0  0  0  0
  8 14  1  0  0  0  0
  9 16  1  0  0  0  0
 10 21  1  0  0  0  0
 10 11  1  0  0  0  0
 10  6  1  0  0  0  0
 11  7  1  0  0  0  0
 11 23  1  0  0  0  0
 12  4  1  0  0  0  0
 13  8  1  0  0  0  0
 15  9  1  0  0  0  0
 17  5  1  0  0  0  0
 20  6  1  0  0  0  0
 22 10  1  0  0  0  0
 24 11  1  0  0  0  0
 26  7  1  0  0  0  0
M  END
$$$$
