CSD_code = CENNUF | q = 1 | S = 0 | Stoichiometry = C16H38Cl2N6Nb(1+) | MND = 7
 OpenBabel04212202023D

 63 63  0  0  0  0  0  0  0  0999 V2000
    8.5889    4.4721   14.2646 Nb  0  0  0  0  0  0  0  0  0  0  0  0
    7.8683    6.6468   13.5718 Cl  0  0  0  0  0  0  0  0  0  0  0  0
   10.3490    4.4675   12.7057 Cl  0  0  0  0  0  0  0  0  0  0  0  0
    8.9699    5.8302   16.2471 N   0  0  0  0  0  0  0  0  0  0  0  0
    8.5593    6.6916   15.8649 H   0  0  0  0  0  0  0  0  0  0  0  0
    9.1494    5.9742   17.2483 H   0  0  0  0  0  0  0  0  0  0  0  0
   10.1673    5.5556   15.5271 N   0  0  0  0  0  4  0  0  0  0  0  0
   11.0913    4.7474   16.3284 C   0  0  0  0  0  0  0  0  0  0  0  0
   11.8486    4.3653   15.6373 H   0  0  0  0  0  0  0  0  0  0  0  0
   10.5288    3.8979   16.7295 H   0  0  0  0  0  0  0  0  0  0  0  0
   11.7639    5.5285   17.4607 C   0  0  0  0  0  0  0  0  0  0  0  0
   11.0262    5.8333   18.2089 H   0  0  0  0  0  0  0  0  0  0  0  0
   12.4740    4.8710   17.9618 H   0  0  0  0  0  0  0  0  0  0  0  0
   12.4748    6.7599   16.9091 C   0  0  0  0  0  0  0  0  0  0  0  0
   12.8997    7.3462   17.7238 H   0  0  0  0  0  0  0  0  0  0  0  0
   13.2924    6.4490   16.2567 H   0  0  0  0  0  0  0  0  0  0  0  0
   11.4797    7.5981   16.1141 C   0  0  0  0  0  0  0  0  0  0  0  0
   10.7058    7.9910   16.7801 H   0  0  0  0  0  0  0  0  0  0  0  0
   11.9800    8.4512   15.6566 H   0  0  0  0  0  0  0  0  0  0  0  0
   10.8518    6.7480   15.0124 C   0  0  0  0  0  0  0  0  0  0  0  0
   10.1348    7.3360   14.4318 H   0  0  0  0  0  0  0  0  0  0  0  0
   11.6268    6.3957   14.3239 H   0  0  0  0  0  0  0  0  0  0  0  0
    9.0024    2.8795   14.9587 N   0  0  0  0  0  2  0  0  0  0  0  0
    9.5041    1.7500   15.2955 N   0  0  0  0  0  0  0  0  0  0  0  0
    9.0769    0.9727   16.4451 C   0  0  0  0  0  0  0  0  0  0  0  0
    8.1617    1.4129   16.8434 H   0  0  0  0  0  0  0  0  0  0  0  0
    9.8533    1.0115   17.2207 H   0  0  0  0  0  0  0  0  0  0  0  0
    8.8613   -0.4818   16.0260 C   0  0  0  0  0  0  0  0  0  0  0  0
    8.0463   -0.5342   15.3018 H   0  0  0  0  0  0  0  0  0  0  0  0
    8.5798   -1.0729   16.8972 H   0  0  0  0  0  0  0  0  0  0  0  0
   10.1393   -1.0342   15.3994 C   0  0  0  0  0  0  0  0  0  0  0  0
   10.9356   -1.0420   16.1458 H   0  0  0  0  0  0  0  0  0  0  0  0
    9.9792   -2.0609   15.0716 H   0  0  0  0  0  0  0  0  0  0  0  0
   10.5587   -0.1668   14.2147 C   0  0  0  0  0  0  0  0  0  0  0  0
   11.4980   -0.5269   13.7965 H   0  0  0  0  0  0  0  0  0  0  0  0
    9.7994   -0.2202   13.4331 H   0  0  0  0  0  0  0  0  0  0  0  0
   10.7291    1.2834   14.6638 C   0  0  0  0  0  0  0  0  0  0  0  0
   11.5563    1.3479   15.3818 H   0  0  0  0  0  0  0  0  0  0  0  0
   10.9325    1.9484   13.8200 H   0  0  0  0  0  0  0  0  0  0  0  0
    6.2141    4.2612   15.0213 N   0  0  0  0  0  0  0  0  0  0  0  0
    5.9535    3.0912   15.8644 C   0  0  0  0  0  0  0  0  0  0  0  0
    6.4782    3.2149   16.8110 H   0  0  0  0  0  0  0  0  0  0  0  0
    6.3192    2.1857   15.3863 H   0  0  0  0  0  0  0  0  0  0  0  0
    4.8809    2.9848   16.0670 H   0  0  0  0  0  0  0  0  0  0  0  0
    5.7491    5.4425   15.7553 C   0  0  0  0  0  0  0  0  0  0  0  0
    4.6697    5.3896   15.9393 H   0  0  0  0  0  0  0  0  0  0  0  0
    5.9616    6.3437   15.1820 H   0  0  0  0  0  0  0  0  0  0  0  0
    6.2648    5.5018   16.7138 H   0  0  0  0  0  0  0  0  0  0  0  0
    5.4534    4.1690   13.7664 C   0  0  0  0  0  0  0  0  0  0  0  0
    4.3999    3.9287   13.9738 H   0  0  0  0  0  0  0  0  0  0  0  0
    5.4858    5.1503   13.2855 H   0  0  0  0  0  0  0  0  0  0  0  0
    6.0252    3.1187   12.8183 C   0  0  0  0  0  0  0  0  0  0  0  0
    5.3676    3.0367   11.9417 H   0  0  0  0  0  0  0  0  0  0  0  0
    6.0400    2.1467   13.3178 H   0  0  0  0  0  0  0  0  0  0  0  0
    7.3990    3.4406   12.3927 N   0  0  0  0  0  0  0  0  0  0  0  0
    7.3575    4.3769   11.2621 C   0  0  0  0  0  0  0  0  0  0  0  0
    6.8498    3.9265   10.4020 H   0  0  0  0  0  0  0  0  0  0  0  0
    8.3754    4.6402   10.9716 H   0  0  0  0  0  0  0  0  0  0  0  0
    6.8322    5.2900   11.5360 H   0  0  0  0  0  0  0  0  0  0  0  0
    8.0475    2.2076   11.9247 C   0  0  0  0  0  0  0  0  0  0  0  0
    7.4762    1.7553   11.1064 H   0  0  0  0  0  0  0  0  0  0  0  0
    8.1268    1.5010   12.7508 H   0  0  0  0  0  0  0  0  0  0  0  0
    9.0520    2.4405   11.5711 H   0  0  0  0  0  0  0  0  0  0  0  0
  1 23  1  0  0  0  0
  1  7  1  0  0  0  0
  2  1  1  0  0  0  0
  3  1  1  0  0  0  0
  4  6  1  0  0  0  0
  5  4  1  0  0  0  0
  7  4  1  0  0  0  0
  7  8  1  0  0  0  0
  8 10  1  0  0  0  0
  8 11  1  0  0  0  0
  9  8  1  0  0  0  0
 11 13  1  0  0  0  0
 11 12  1  0  0  0  0
 14 11  1  0  0  0  0
 14 15  1  0  0  0  0
 16 14  1  0  0  0  0
 17 18  1  0  0  0  0
 17 14  1  0  0  0  0
 19 17  1  0  0  0  0
 20  7  1  0  0  0  0
 20 17  1  0  0  0  0
 21 20  1  0  0  0  0
 22 20  1  0  0  0  0
 23 24  1  0  0  0  0
 24 25  1  0  0  0  0
 25 26  1  0  0  0  0
 25 27  1  0  0  0  0
 28 25  1  0  0  0  0
 28 30  1  0  0  0  0
 29 28  1  0  0  0  0
 31 28  1  0  0  0  0
 31 32  1  0  0  0  0
 33 31  1  0  0  0  0
 34 37  1  0  0  0  0
 34 31  1  0  0  0  0
 35 34  1  0  0  0  0
 36 34  1  0  0  0  0
 37 24  1  0  0  0  0
 37 38  1  0  0  0  0
 39 37  1  0  0  0  0
 40 45  1  0  0  0  0
 40 41  1  0  0  0  0
 41 44  1  0  0  0  0
 41 42  1  0  0  0  0
 43 41  1  0  0  0  0
 45 46  1  0  0  0  0
 45 48  1  0  0  0  0
 47 45  1  0  0  0  0
 49 50  1  0  0  0  0
 49 40  1  0  0  0  0
 51 49  1  0  0  0  0
 52 54  1  0  0  0  0
 52 49  1  0  0  0  0
 53 52  1  0  0  0  0
 55 52  1  0  0  0  0
 56 59  1  0  0  0  0
 56 55  1  0  0  0  0
 57 56  1  0  0  0  0
 58 56  1  0  0  0  0
 60 55  1  0  0  0  0
 60 62  1  0  0  0  0
 61 60  1  0  0  0  0
 63 60  1  0  0  0  0
M  END
$$$$
