CSD_code = CENXAW | q = 0 | S = 0 | Stoichiometry = C38H48Br2N4Pd | MND = 4
 OpenBabel04212202023D

 93 97  0  0  1  0  0  0  0  0999 V2000
    8.6558    3.3127    2.7372 Pd  0  0  0  0  0  0  0  0  0  0  0  0
   10.8644    3.3175    1.6999 Br  0  0  0  0  0  0  0  0  0  0  0  0
    6.3462    3.3553    3.5414 Br  0  0  0  0  0  0  0  0  0  0  0  0
    9.0909    2.2984    5.5915 N   0  0  0  0  0  0  0  0  0  0  0  0
    9.4349    0.7440    4.1454 N   0  0  0  0  0  0  0  0  0  0  0  0
    8.4678    5.8091    1.2530 N   0  0  0  0  0  0  0  0  0  0  0  0
    8.1423    6.4377    0.0810 N   0  0  0  0  0  0  0  0  0  0  0  0
    9.1841    2.0688    4.2611 C   0  0  1  0  0  3  0  0  0  0  0  0
    9.2722    1.1303    6.2924 C   0  0  0  0  0  0  0  0  0  0  0  0
    9.2496    1.1009    7.3615 H   0  0  0  0  0  0  0  0  0  0  0  0
    9.4832    0.1551    5.3855 C   0  0  0  0  0  0  0  0  0  0  0  0
    9.6526   -0.8948    5.5056 H   0  0  0  0  0  0  0  0  0  0  0  0
    9.1079    3.5640    6.2472 C   0  0  0  0  0  0  0  0  0  0  0  0
   10.2958    4.3085    6.1942 C   0  0  0  0  0  0  0  0  0  0  0  0
   10.3762    5.4648    6.9570 C   0  0  0  0  0  0  0  0  0  0  0  0
   11.2872    6.0417    6.9518 H   0  0  0  0  0  0  0  0  0  0  0  0
    9.3153    5.8748    7.7416 C   0  0  0  0  0  0  0  0  0  0  0  0
    9.4002    6.7731    8.3366 H   0  0  0  0  0  0  0  0  0  0  0  0
    8.1544    5.1291    7.7801 C   0  0  0  0  0  0  0  0  0  0  0  0
    7.3388    5.4509    8.4082 H   0  0  0  0  0  0  0  0  0  0  0  0
    8.0283    3.9567    7.0445 C   0  0  0  0  0  0  0  0  0  0  0  0
   11.5143    3.8206    5.4437 C   0  0  0  0  0  0  0  0  0  0  0  0
   11.2123    3.0848    4.6926 H   0  0  0  0  0  0  0  0  0  0  0  0
   12.4619    3.1357    6.4336 C   0  0  0  0  0  0  0  0  0  0  0  0
   12.7878    3.8401    7.1965 H   0  0  0  0  0  0  0  0  0  0  0  0
   13.3385    2.7611    5.9104 H   0  0  0  0  0  0  0  0  0  0  0  0
   11.9705    2.2994    6.9294 H   0  0  0  0  0  0  0  0  0  0  0  0
   12.2322    4.9311    4.6818 C   0  0  0  0  0  0  0  0  0  0  0  0
   11.5318    5.4404    4.0255 H   0  0  0  0  0  0  0  0  0  0  0  0
   13.0133    4.4960    4.0633 H   0  0  0  0  0  0  0  0  0  0  0  0
   12.6865    5.6590    5.3494 H   0  0  0  0  0  0  0  0  0  0  0  0
    6.7751    3.1243    7.1794 C   0  0  0  0  0  0  0  0  0  0  0  0
    6.7689    2.3574    6.4007 H   0  0  0  0  0  0  0  0  0  0  0  0
    6.7500    2.4403    8.5506 C   0  0  0  0  0  0  0  0  0  0  0  0
    7.6293    1.8192    8.7067 H   0  0  0  0  0  0  0  0  0  0  0  0
    5.8676    1.8101    8.6322 H   0  0  0  0  0  0  0  0  0  0  0  0
    6.7178    3.1831    9.3449 H   0  0  0  0  0  0  0  0  0  0  0  0
    5.5089    3.9634    7.0030 C   0  0  0  0  0  0  0  0  0  0  0  0
    5.3844    4.6755    7.8146 H   0  0  0  0  0  0  0  0  0  0  0  0
    4.6419    3.3085    6.9872 H   0  0  0  0  0  0  0  0  0  0  0  0
    5.5387    4.4978    6.0592 H   0  0  0  0  0  0  0  0  0  0  0  0
    9.8282    0.0389    2.9687 C   0  0  0  0  0  0  0  0  0  0  0  0
   11.1845   -0.2715    2.8043 C   0  0  0  0  0  0  0  0  0  0  0  0
   11.5548   -0.9964    1.6806 C   0  0  0  0  0  0  0  0  0  0  0  0
   12.5933   -1.2431    1.5272 H   0  0  0  0  0  0  0  0  0  0  0  0
   10.6173   -1.4052    0.7526 C   0  0  0  0  0  0  0  0  0  0  0  0
   10.9283   -1.9636   -0.1180 H   0  0  0  0  0  0  0  0  0  0  0  0
    9.2845   -1.1015    0.9383 C   0  0  0  0  0  0  0  0  0  0  0  0
    8.5573   -1.4277    0.2109 H   0  0  0  0  0  0  0  0  0  0  0  0
    8.8655   -0.3826    2.0509 C   0  0  0  0  0  0  0  0  0  0  0  0
   12.2411    0.1263    3.8099 C   0  0  0  0  0  0  0  0  0  0  0  0
   11.8041    0.7958    4.5554 H   0  0  0  0  0  0  0  0  0  0  0  0
   12.7606   -1.1164    4.5400 C   0  0  0  0  0  0  0  0  0  0  0  0
   13.2324   -1.8017    3.8399 H   0  0  0  0  0  0  0  0  0  0  0  0
   11.9515   -1.6457    5.0399 H   0  0  0  0  0  0  0  0  0  0  0  0
   13.4958   -0.8282    5.2885 H   0  0  0  0  0  0  0  0  0  0  0  0
   13.3975    0.8761    3.1466 C   0  0  0  0  0  0  0  0  0  0  0  0
   14.0817    1.2444    3.9084 H   0  0  0  0  0  0  0  0  0  0  0  0
   13.0214    1.7206    2.5758 H   0  0  0  0  0  0  0  0  0  0  0  0
   13.9560    0.2288    2.4766 H   0  0  0  0  0  0  0  0  0  0  0  0
    7.4031   -0.0488    2.2199 C   0  0  0  0  0  0  0  0  0  0  0  0
    7.2514    0.4687    3.1745 H   0  0  0  0  0  0  0  0  0  0  0  0
    6.5289   -1.3021    2.2319 C   0  0  0  0  0  0  0  0  0  0  0  0
    6.5781   -1.8279    1.2816 H   0  0  0  0  0  0  0  0  0  0  0  0
    5.4939   -1.0235    2.4163 H   0  0  0  0  0  0  0  0  0  0  0  0
    6.8486   -1.9836    3.0183 H   0  0  0  0  0  0  0  0  0  0  0  0
    6.9995    0.9093    1.0968 C   0  0  0  0  0  0  0  0  0  0  0  0
    7.7064    1.7558    1.0906 H   0  0  0  0  0  0  0  0  0  0  0  0
    5.9907    1.2833    1.2609 H   0  0  0  0  0  0  0  0  0  0  0  0
    7.0425    0.4162    0.1275 H   0  0  0  0  0  0  0  0  0  0  0  0
    8.1217    4.5137    1.2231 C   0  0  0  0  0  0  0  0  0  0  0  0
    7.5439    4.3166   -0.0477 C   0  0  0  0  0  0  0  0  0  0  0  0
    7.1489    3.3974   -0.4351 H   0  0  0  0  0  0  0  0  0  0  0  0
    7.5673    5.5157   -0.7212 C   0  0  0  0  0  0  0  0  0  0  0  0
    9.0835    6.4814    2.3296 C   0  0  0  0  0  0  0  0  0  0  0  0
   10.2548    7.2054    2.1331 C   0  0  0  0  0  0  0  0  0  0  0  0
   10.7434    7.1930    1.1707 H   0  0  0  0  0  0  0  0  0  0  0  0
   10.8031    7.9103    3.1901 C   0  0  0  0  0  0  0  0  0  0  0  0
   11.7155    8.4672    3.0406 H   0  0  0  0  0  0  0  0  0  0  0  0
   10.1871    7.8986    4.4309 C   0  0  0  0  0  0  0  0  0  0  0  0
   10.6097    8.4643    5.2471 H   0  0  0  0  0  0  0  0  0  0  0  0
    9.0352    7.1551    4.6290 C   0  0  0  0  0  0  0  0  0  0  0  0
    8.5530    7.1419    5.5931 H   0  0  0  0  0  0  0  0  0  0  0  0
    8.4830    6.4320    3.5865 C   0  0  0  0  0  0  0  0  0  0  0  0
    7.5616    5.8806    3.7314 H   0  0  0  0  0  0  0  0  0  0  0  0
    8.2837    7.8431   -0.1558 C   0  0  0  0  0  0  0  0  0  0  0  0
    7.4140    8.2079   -0.7031 H   0  0  0  0  0  0  0  0  0  0  0  0
    9.1824    8.0595   -0.7402 H   0  0  0  0  0  0  0  0  0  0  0  0
    8.3471    8.3702    0.7955 H   0  0  0  0  0  0  0  0  0  0  0  0
    7.0816    5.8544   -2.0810 C   0  0  0  0  0  0  0  0  0  0  0  0
    6.2478    6.5559   -2.0308 H   0  0  0  0  0  0  0  0  0  0  0  0
    6.7423    4.9519   -2.5806 H   0  0  0  0  0  0  0  0  0  0  0  0
    7.8758    6.3083   -2.6728 H   0  0  0  0  0  0  0  0  0  0  0  0
  1  3  1  0  0  0  0
  2  1  1  0  0  0  0
  4 13  1  0  0  0  0
  4  9  1  0  0  0  0
  5  8  1  0  0  0  0
  5 11  1  0  0  0  0
  6 75  1  0  0  0  0
  7  6  1  0  0  0  0
  8  1  1  6  0  0  0
  8  4  1  0  0  0  0
  9 10  1  0  0  0  0
 11 12  1  0  0  0  0
 11  9  2  0  0  0  0
 13 21  1  0  0  0  0
 14 13  2  0  0  0  0
 14 15  1  0  0  0  0
 15 17  2  0  0  0  0
 16 15  1  0  0  0  0
 17 19  1  0  0  0  0
 17 18  1  0  0  0  0
 19 20  1  0  0  0  0
 21 32  1  0  0  0  0
 21 19  2  0  0  0  0
 22 14  1  0  0  0  0
 22 24  1  0  0  0  0
 23 22  1  0  0  0  0
 24 27  1  0  0  0  0
 24 25  1  0  0  0  0
 26 24  1  0  0  0  0
 28 31  1  0  0  0  0
 28 22  1  0  0  0  0
 29 28  1  0  0  0  0
 30 28  1  0  0  0  0
 32 34  1  0  0  0  0
 33 32  1  0  0  0  0
 34 36  1  0  0  0  0
 34 35  1  0  0  0  0
 34 37  1  0  0  0  0
 38 32  1  0  0  0  0
 38 39  1  0  0  0  0
 40 38  1  0  0  0  0
 41 38  1  0  0  0  0
 42  5  1  0  0  0  0
 43 42  1  0  0  0  0
 43 51  1  0  0  0  0
 44 43  2  0  0  0  0
 45 44  1  0  0  0  0
 46 48  2  0  0  0  0
 46 44  1  0  0  0  0
 47 46  1  0  0  0  0
 48 50  1  0  0  0  0
 49 48  1  0  0  0  0
 50 61  1  0  0  0  0
 50 42  2  0  0  0  0
 51 53  1  0  0  0  0
 51 52  1  0  0  0  0
 53 55  1  0  0  0  0
 53 56  1  0  0  0  0
 54 53  1  0  0  0  0
 57 51  1  0  0  0  0
 57 58  1  0  0  0  0
 59 57  1  0  0  0  0
 60 57  1  0  0  0  0
 61 63  1  0  0  0  0
 61 62  1  0  0  0  0
 63 65  1  0  0  0  0
 63 66  1  0  0  0  0
 64 63  1  0  0  0  0
 67 69  1  0  0  0  0
 67 61  1  0  0  0  0
 68 67  1  0  0  0  0
 70 67  1  0  0  0  0
 71  6  1  0  0  0  0
 71  1  2  0  0  0  0
 72 71  1  0  0  0  0
 73 72  1  0  0  0  0
 74 72  2  0  0  0  0
 74  7  1  0  0  0  0
 75 84  1  0  0  0  0
 76 75  2  0  0  0  0
 76 78  1  0  0  0  0
 77 76  1  0  0  0  0
 78 80  2  0  0  0  0
 79 78  1  0  0  0  0
 80 82  1  0  0  0  0
 80 81  1  0  0  0  0
 82 83  1  0  0  0  0
 84 85  1  0  0  0  0
 84 82  2  0  0  0  0
 86  7  1  0  0  0  0
 86 89  1  0  0  0  0
 87 86  1  0  0  0  0
 88 86  1  0  0  0  0
 90 91  1  0  0  0  0
 90 74  1  0  0  0  0
 92 90  1  0  0  0  0
 93 90  1  0  0  0  0
M  END
$$$$
