CSD_code = CEPBEG | q = 0 | S = 0 | Stoichiometry = C26H42BrN5Ni | MND = 4
 OpenBabel04212202023D

 75 77  0  0  1  0  0  0  0  0999 V2000
   14.2714    0.4395    1.1817 Ni  0  0  1  0  0  0  0  0  0  0  0  0
   15.0165   -0.7507   -0.6539 Br  0  0  0  0  0  0  0  0  0  0  0  0
   14.6998   -0.9906    2.3482 C   0  0  0  0  0  0  0  0  0  0  0  0
   13.9173   -2.0378    2.6733 N   0  0  0  0  0  0  0  0  0  0  0  0
   15.9023   -1.2513    2.8969 N   0  0  0  0  0  0  0  0  0  0  0  0
   14.6204   -2.9406    3.4253 C   0  0  0  0  0  0  0  0  0  0  0  0
   14.1917   -3.8497    3.7927 H   0  0  0  0  0  0  0  0  0  0  0  0
   15.8701   -2.4454    3.5659 C   0  0  0  0  0  0  0  0  0  0  0  0
   16.7195   -2.8479    4.0774 H   0  0  0  0  0  0  0  0  0  0  0  0
   12.5638   -2.2133    2.1913 C   0  0  0  0  0  0  0  0  0  0  0  0
   12.3371   -1.2980    1.6238 H   0  0  0  0  0  0  0  0  0  0  0  0
   12.4983   -3.4044    1.2386 C   0  0  0  0  0  0  0  0  0  0  0  0
   13.2063   -3.2646    0.4244 H   0  0  0  0  0  0  0  0  0  0  0  0
   11.4997   -3.4898    0.8184 H   0  0  0  0  0  0  0  0  0  0  0  0
   12.7377   -4.3305    1.7568 H   0  0  0  0  0  0  0  0  0  0  0  0
   11.5877   -2.3399    3.3563 C   0  0  0  0  0  0  0  0  0  0  0  0
   11.6881   -1.4856    4.0229 H   0  0  0  0  0  0  0  0  0  0  0  0
   11.7754   -3.2500    3.9221 H   0  0  0  0  0  0  0  0  0  0  0  0
   10.5675   -2.3730    2.9826 H   0  0  0  0  0  0  0  0  0  0  0  0
   17.0762   -0.4283    2.6962 C   0  0  0  0  0  0  0  0  0  0  0  0
   16.7259    0.4414    2.1190 H   0  0  0  0  0  0  0  0  0  0  0  0
   17.6408    0.0433    4.0324 C   0  0  0  0  0  0  0  0  0  0  0  0
   16.8644    0.5331    4.6168 H   0  0  0  0  0  0  0  0  0  0  0  0
   18.4494    0.7500    3.8636 H   0  0  0  0  0  0  0  0  0  0  0  0
   18.0325   -0.7950    4.6045 H   0  0  0  0  0  0  0  0  0  0  0  0
   18.1069   -1.1818    1.8595 C   0  0  0  0  0  0  0  0  0  0  0  0
   17.6638   -1.4846    0.9131 H   0  0  0  0  0  0  0  0  0  0  0  0
   18.4586   -2.0686    2.3824 H   0  0  0  0  0  0  0  0  0  0  0  0
   18.9586   -0.5393    1.6529 H   0  0  0  0  0  0  0  0  0  0  0  0
   13.8096    1.9255    0.0986 C   0  0  2  0  0  3  0  0  0  0  0  0
   12.6629    2.1005   -0.5864 N   0  0  0  0  0  0  0  0  0  0  0  0
   14.6124    2.9421   -0.2708 N   0  0  0  0  0  0  0  0  0  0  0  0
   12.7441    3.2204   -1.3698 C   0  0  0  0  0  0  0  0  0  0  0  0
   11.9436    3.5482   -1.9997 H   0  0  0  0  0  0  0  0  0  0  0  0
   13.9714    3.7505   -1.1709 C   0  0  0  0  0  0  0  0  0  0  0  0
   14.4260    4.6204   -1.5971 H   0  0  0  0  0  0  0  0  0  0  0  0
   11.5591    1.1644   -0.5644 C   0  0  0  0  0  0  0  0  0  0  0  0
   11.8405    0.4007    0.1772 H   0  0  0  0  0  0  0  0  0  0  0  0
   11.4180    0.4888   -1.9261 C   0  0  0  0  0  0  0  0  0  0  0  0
   12.3524    0.0002   -2.1944 H   0  0  0  0  0  0  0  0  0  0  0  0
   11.1677    1.2154   -2.6961 H   0  0  0  0  0  0  0  0  0  0  0  0
   10.6334   -0.2622   -1.8884 H   0  0  0  0  0  0  0  0  0  0  0  0
   10.2741    1.8551   -0.1191 C   0  0  0  0  0  0  0  0  0  0  0  0
   10.4292    2.3604    0.8321 H   0  0  0  0  0  0  0  0  0  0  0  0
    9.4814    1.1209    0.0000 H   0  0  0  0  0  0  0  0  0  0  0  0
    9.9538    2.5883   -0.8562 H   0  0  0  0  0  0  0  0  0  0  0  0
   15.9885    3.0789    0.1562 C   0  0  0  0  0  0  0  0  0  0  0  0
   16.1536    2.2573    0.8696 H   0  0  0  0  0  0  0  0  0  0  0  0
   16.9273    2.8865   -1.0321 C   0  0  0  0  0  0  0  0  0  0  0  0
   16.7398    1.9212   -1.4980 H   0  0  0  0  0  0  0  0  0  0  0  0
   17.9609    2.9146   -0.6974 H   0  0  0  0  0  0  0  0  0  0  0  0
   16.7807    3.6685   -1.7740 H   0  0  0  0  0  0  0  0  0  0  0  0
   16.2038    4.4125    0.8643 C   0  0  0  0  0  0  0  0  0  0  0  0
   15.4937    4.5208    1.6818 H   0  0  0  0  0  0  0  0  0  0  0  0
   16.0730    5.2431    0.1742 H   0  0  0  0  0  0  0  0  0  0  0  0
   17.2117    4.4584    1.2688 H   0  0  0  0  0  0  0  0  0  0  0  0
   12.2813    3.6506    6.0455 N   0  0  0  0  0  0  0  0  0  0  0  0
   13.6594    1.4179    2.6936 C   0  0  0  0  0  0  0  0  0  0  0  0
   12.3301    1.3844    3.1152 C   0  0  0  0  0  0  0  0  0  0  0  0
   11.5943    0.7905    2.5842 H   0  0  0  0  0  0  0  0  0  0  0  0
   11.8798    2.0907    4.2169 C   0  0  0  0  0  0  0  0  0  0  0  0
   10.8355    2.0053    4.4759 H   0  0  0  0  0  0  0  0  0  0  0  0
   12.7400    2.8900    4.9720 C   0  0  0  0  0  0  0  0  0  0  0  0
   14.0743    2.9259    4.5627 C   0  0  0  0  0  0  0  0  0  0  0  0
   14.8016    3.5142    5.1012 H   0  0  0  0  0  0  0  0  0  0  0  0
   14.5112    2.2141    3.4593 C   0  0  0  0  0  0  0  0  0  0  0  0
   15.5634    2.2988    3.2114 H   0  0  0  0  0  0  0  0  0  0  0  0
   10.9939    3.3244    6.6121 C   0  0  0  0  0  0  0  0  0  0  0  0
   10.2097    3.4772    5.8693 H   0  0  0  0  0  0  0  0  0  0  0  0
   10.7911    3.9921    7.4476 H   0  0  0  0  0  0  0  0  0  0  0  0
   10.9376    2.2884    6.9745 H   0  0  0  0  0  0  0  0  0  0  0  0
   13.2548    4.1855    6.9682 C   0  0  0  0  0  0  0  0  0  0  0  0
   13.9135    4.8848    6.4515 H   0  0  0  0  0  0  0  0  0  0  0  0
   13.8697    3.4058    7.4391 H   0  0  0  0  0  0  0  0  0  0  0  0
   12.7389    4.7369    7.7524 H   0  0  0  0  0  0  0  0  0  0  0  0
  1  2  1  6  0  0  0
  1  3  2  0  0  0  0
  1 58  1  0  0  0  0
  3  4  1  0  0  0  0
  3  5  1  0  0  0  0
  4  6  1  0  0  0  0
  5  8  1  0  0  0  0
  6  8  2  0  0  0  0
  6  7  1  0  0  0  0
  8  9  1  0  0  0  0
 10  4  1  0  0  0  0
 10 16  1  0  0  0  0
 11 10  1  0  0  0  0
 12 15  1  0  0  0  0
 12 10  1  0  0  0  0
 13 12  1  0  0  0  0
 14 12  1  0  0  0  0
 16 18  1  0  0  0  0
 16 17  1  0  0  0  0
 19 16  1  0  0  0  0
 20  5  1  0  0  0  0
 20 22  1  0  0  0  0
 21 20  1  0  0  0  0
 22 25  1  0  0  0  0
 22 23  1  0  0  0  0
 24 22  1  0  0  0  0
 26 28  1  0  0  0  0
 26 20  1  0  0  0  0
 27 26  1  0  0  0  0
 29 26  1  0  0  0  0
 30  1  1  6  0  0  0
 31 37  1  0  0  0  0
 31 30  1  0  0  0  0
 32 30  1  0  0  0  0
 32 47  1  0  0  0  0
 33 35  2  0  0  0  0
 33 31  1  0  0  0  0
 34 33  1  0  0  0  0
 35 32  1  0  0  0  0
 36 35  1  0  0  0  0
 37 43  1  0  0  0  0
 37 38  1  0  0  0  0
 39 42  1  0  0  0  0
 39 37  1  0  0  0  0
 40 39  1  0  0  0  0
 41 39  1  0  0  0  0
 43 45  1  0  0  0  0
 43 44  1  0  0  0  0
 46 43  1  0  0  0  0
 47 53  1  0  0  0  0
 47 48  1  0  0  0  0
 49 51  1  0  0  0  0
 49 47  1  0  0  0  0
 50 49  1  0  0  0  0
 52 49  1  0  0  0  0
 53 56  1  0  0  0  0
 53 54  1  0  0  0  0
 55 53  1  0  0  0  0
 57 68  1  0  0  0  0
 57 72  1  0  0  0  0
 58 59  2  0  0  0  0
 58 66  1  0  0  0  0
 59 61  1  0  0  0  0
 60 59  1  0  0  0  0
 61 62  1  0  0  0  0
 61 63  2  0  0  0  0
 63 57  1  0  0  0  0
 64 63  1  0  0  0  0
 64 65  1  0  0  0  0
 66 64  2  0  0  0  0
 67 66  1  0  0  0  0
 68 71  1  0  0  0  0
 68 70  1  0  0  0  0
 69 68  1  0  0  0  0
 72 74  1  0  0  0  0
 72 75  1  0  0  0  0
 73 72  1  0  0  0  0
M  END
$$$$
