CSD_code = CEPBUW | q = 0 | S = 0 | Stoichiometry = C21H21AuBr2N6 | MND = 2
 OpenBabel04212202023D

 51 54  0  0  1  0  0  0  0  0999 V2000
    9.4838   10.0600    4.9986 Au  0  0  0  0  0  0  0  0  0  0  0  0
    7.4380   10.7812    4.0841 Br  0  0  0  0  0  0  0  0  0  0  0  0
    9.1022    7.9850   15.7277 Br  0  0  0  0  0  0  0  0  0  0  0  0
   11.6468    8.5043    9.1606 N   0  0  0  0  0  0  0  0  0  0  0  0
   11.7517    9.1152    6.9560 N   0  0  0  0  0  0  0  0  0  0  0  0
   12.2671    9.1602    4.8768 N   0  0  0  0  0  0  0  0  0  0  0  0
   11.1292    8.4779   10.3456 N   0  0  0  0  0  0  0  0  0  0  0  0
    9.4874    9.0664   11.8753 N   0  0  0  0  0  0  0  0  0  0  0  0
    8.3646    9.7570   12.1685 N   0  0  0  0  0  0  0  0  0  0  0  0
   11.2670    9.4270    5.7257 C   0  0  1  0  0  3  0  0  0  0  0  0
   13.0464    8.6499    6.8527 C   0  0  0  0  0  0  0  0  0  0  0  0
   13.5946    8.3456    7.7182 H   0  0  0  0  0  0  0  0  0  0  0  0
   13.3684    8.6858    5.5424 C   0  0  0  0  0  0  0  0  0  0  0  0
   14.2708    8.4200    5.0316 H   0  0  0  0  0  0  0  0  0  0  0  0
   12.1693    9.3389    3.4691 C   0  0  0  0  0  0  0  0  0  0  0  0
   11.7237    8.2784    2.6813 C   0  0  0  0  0  0  0  0  0  0  0  0
   11.6172    8.4787    1.3144 C   0  0  0  0  0  0  0  0  0  0  0  0
   11.2644    7.6699    0.6917 H   0  0  0  0  0  0  0  0  0  0  0  0
   11.9408    9.6968    0.7322 C   0  0  0  0  0  0  0  0  0  0  0  0
   12.3875   10.7303    1.5444 C   0  0  0  0  0  0  0  0  0  0  0  0
   12.6380   11.6831    1.1018 H   0  0  0  0  0  0  0  0  0  0  0  0
   12.5083   10.5726    2.9158 C   0  0  0  0  0  0  0  0  0  0  0  0
   11.3471    6.9721    3.3104 C   0  0  0  0  0  0  0  0  0  0  0  0
   12.1614    6.5787    3.9188 H   0  0  0  0  0  0  0  0  0  0  0  0
   11.0966    6.2400    2.5483 H   0  0  0  0  0  0  0  0  0  0  0  0
   10.4793    7.1040    3.9580 H   0  0  0  0  0  0  0  0  0  0  0  0
   11.7787    9.9020   -0.7408 C   0  0  0  0  0  0  0  0  0  0  0  0
   11.9263    8.9711   -1.2827 H   0  0  0  0  0  0  0  0  0  0  0  0
   12.4800   10.6457   -1.1108 H   0  0  0  0  0  0  0  0  0  0  0  0
   10.7692   10.2569   -0.9494 H   0  0  0  0  0  0  0  0  0  0  0  0
   12.9658   11.6970    3.7940 C   0  0  0  0  0  0  0  0  0  0  0  0
   12.1617   11.9995    4.4660 H   0  0  0  0  0  0  0  0  0  0  0  0
   13.2526   12.5563    3.1950 H   0  0  0  0  0  0  0  0  0  0  0  0
   13.8173   11.3967    4.4046 H   0  0  0  0  0  0  0  0  0  0  0  0
   11.0811    9.1876    8.1784 C   0  0  0  0  0  0  0  0  0  0  0  0
    9.9089    9.9391    8.3701 C   0  0  0  0  0  0  0  0  0  0  0  0
    9.4752   10.5090    7.5632 H   0  0  0  0  0  0  0  0  0  0  0  0
    9.3514    9.9095    9.6217 C   0  0  0  0  0  0  0  0  0  0  0  0
    8.4546   10.4476    9.8795 H   0  0  0  0  0  0  0  0  0  0  0  0
   10.0084    9.1381   10.6014 C   0  0  0  0  0  0  0  0  0  0  0  0
    9.9461    8.3616   12.9576 C   0  0  0  0  0  0  0  0  0  0  0  0
    9.0519    8.6400   13.9644 C   0  0  0  0  0  0  0  0  0  0  0  0
    8.0781    9.5186   13.4245 C   0  0  0  0  0  0  0  0  0  0  0  0
   11.1494    7.5045   12.9640 C   0  0  0  0  0  0  0  0  0  0  0  0
   11.2606    7.0451   13.9435 H   0  0  0  0  0  0  0  0  0  0  0  0
   12.0372    8.0909   12.7346 H   0  0  0  0  0  0  0  0  0  0  0  0
   11.0700    6.7294   12.2043 H   0  0  0  0  0  0  0  0  0  0  0  0
    6.9089   10.0996   14.1221 C   0  0  0  0  0  0  0  0  0  0  0  0
    6.3548   10.7373   13.4404 H   0  0  0  0  0  0  0  0  0  0  0  0
    7.2380   10.6828   14.9815 H   0  0  0  0  0  0  0  0  0  0  0  0
    6.2589    9.3047   14.4862 H   0  0  0  0  0  0  0  0  0  0  0  0
  2  1  1  0  0  0  0
  4  7  1  0  0  0  0
  5 35  1  0  0  0  0
  6 13  1  0  0  0  0
  6 10  1  0  0  0  0
  7 40  2  0  0  0  0
  8  9  1  0  0  0  0
  8 41  1  0  0  0  0
  9 43  2  0  0  0  0
 10  1  1  6  0  0  0
 10  5  1  0  0  0  0
 11  5  1  0  0  0  0
 11 12  1  0  0  0  0
 13 11  2  0  0  0  0
 14 13  1  0  0  0  0
 15  6  1  0  0  0  0
 16 23  1  0  0  0  0
 16 15  2  0  0  0  0
 17 16  1  0  0  0  0
 18 17  1  0  0  0  0
 19 17  2  0  0  0  0
 19 20  1  0  0  0  0
 20 22  2  0  0  0  0
 21 20  1  0  0  0  0
 22 15  1  0  0  0  0
 22 31  1  0  0  0  0
 23 24  1  0  0  0  0
 23 26  1  0  0  0  0
 25 23  1  0  0  0  0
 27 19  1  0  0  0  0
 28 27  1  0  0  0  0
 29 27  1  0  0  0  0
 30 27  1  0  0  0  0
 31 34  1  0  0  0  0
 31 32  1  0  0  0  0
 33 31  1  0  0  0  0
 35 36  1  0  0  0  0
 35  4  2  0  0  0  0
 36 38  2  0  0  0  0
 37 36  1  0  0  0  0
 38 39  1  0  0  0  0
 38 40  1  0  0  0  0
 40  8  1  0  0  0  0
 41 44  1  0  0  0  0
 41 42  2  0  0  0  0
 42  3  1  0  0  0  0
 43 42  1  0  0  0  0
 43 48  1  0  0  0  0
 44 45  1  0  0  0  0
 46 44  1  0  0  0  0
 47 44  1  0  0  0  0
 48 51  1  0  0  0  0
 48 50  1  0  0  0  0
 49 48  1  0  0  0  0
M  END
$$$$
