CSD_code = CEPBUX | q = 0 | S = 0 | Stoichiometry = C25H24Cl4NPPt | MND = 6
 OpenBabel04212202023D

 56 59  0  0  0  0  0  0  0  0999 V2000
    5.0526    6.2589    1.5658 Pt  0  0  0  0  0  0  0  0  0  0  0  0
    7.0063    7.5996    1.8236 Cl  0  0  0  0  0  0  0  0  0  0  0  0
    6.1258    4.2034    1.6509 Cl  0  0  0  0  0  0  0  0  0  0  0  0
    4.9437    6.1340    3.9177 Cl  0  0  0  0  0  0  0  0  0  0  0  0
    5.2099    6.5610   -0.7903 Cl  0  0  0  0  0  0  0  0  0  0  0  0
    3.2397    4.7430    1.3051 P   0  0  0  0  0  4  0  0  0  0  0  0
    1.6871    5.4909    0.7079 C   0  0  0  0  0  0  0  0  0  0  0  0
    0.4525    5.3005    1.3172 C   0  0  0  0  0  0  0  0  0  0  0  0
    0.3751    4.7275    2.2292 H   0  0  0  0  0  0  0  0  0  0  0  0
   -0.6861    5.8476    0.7507 C   0  0  0  0  0  0  0  0  0  0  0  0
   -1.6427    5.7006    1.2302 H   0  0  0  0  0  0  0  0  0  0  0  0
   -0.6052    6.5731   -0.4259 C   0  0  0  0  0  0  0  0  0  0  0  0
   -1.4973    6.9982   -0.8612 H   0  0  0  0  0  0  0  0  0  0  0  0
    0.6218    6.7457   -1.0481 C   0  0  0  0  0  0  0  0  0  0  0  0
    0.6879    7.3008   -1.9720 H   0  0  0  0  0  0  0  0  0  0  0  0
    1.7643    6.2067   -0.4862 C   0  0  0  0  0  0  0  0  0  0  0  0
    2.7271    6.3346   -0.9641 H   0  0  0  0  0  0  0  0  0  0  0  0
    2.8576    3.9875    2.8989 C   0  0  0  0  0  0  0  0  0  0  0  0
    2.2402    4.7669    3.8772 C   0  0  0  0  0  0  0  0  0  0  0  0
    1.9755    5.7933    3.6607 H   0  0  0  0  0  0  0  0  0  0  0  0
    1.9975    4.2316    5.1272 C   0  0  0  0  0  0  0  0  0  0  0  0
    1.5199    4.8351    5.8844 H   0  0  0  0  0  0  0  0  0  0  0  0
    2.3874    2.9324    5.4147 C   0  0  0  0  0  0  0  0  0  0  0  0
    2.2051    2.5205    6.3961 H   0  0  0  0  0  0  0  0  0  0  0  0
    3.0300    2.1698    4.4537 C   0  0  0  0  0  0  0  0  0  0  0  0
    3.3549    1.1667    4.6865 H   0  0  0  0  0  0  0  0  0  0  0  0
    3.2731    2.6945    3.1967 C   0  0  0  0  0  0  0  0  0  0  0  0
    3.7957    2.1124    2.4509 H   0  0  0  0  0  0  0  0  0  0  0  0
    3.3445    3.3728    0.1128 C   0  0  0  0  0  0  0  0  0  0  0  0
    2.2961    2.4534    0.1464 C   0  0  0  0  0  0  0  0  0  0  0  0
    1.5090    2.5608    0.8810 H   0  0  0  0  0  0  0  0  0  0  0  0
    2.2679    1.4055   -0.7528 C   0  0  0  0  0  0  0  0  0  0  0  0
    1.4592    0.6904   -0.7181 H   0  0  0  0  0  0  0  0  0  0  0  0
    3.2741    1.2748   -1.6978 C   0  0  0  0  0  0  0  0  0  0  0  0
    3.2507    0.4540   -2.3990 H   0  0  0  0  0  0  0  0  0  0  0  0
    4.3041    2.1980   -1.7431 C   0  0  0  0  0  0  0  0  0  0  0  0
    5.0849    2.1022   -2.4822 H   0  0  0  0  0  0  0  0  0  0  0  0
    4.3427    3.2495   -0.8427 C   0  0  0  0  0  0  0  0  0  0  0  0
    5.1479    3.9649   -0.8813 H   0  0  0  0  0  0  0  0  0  0  0  0
    4.1173    8.2416    1.5302 N   0  0  0  0  0  4  0  0  0  0  0  0
    4.9923    8.7691    1.6583 H   0  0  0  0  0  0  0  0  0  0  0  0
    3.7636    8.3729    0.5801 H   0  0  0  0  0  0  0  0  0  0  0  0
    3.1579    8.5339    2.5312 C   0  0  0  0  0  0  0  0  0  0  0  0
    3.5799    8.8965    3.8081 C   0  0  0  0  0  0  0  0  0  0  0  0
    4.6340    9.0018    4.0116 H   0  0  0  0  0  0  0  0  0  0  0  0
    2.6504    9.0958    4.8079 C   0  0  0  0  0  0  0  0  0  0  0  0
    2.9853    9.3649    5.7982 H   0  0  0  0  0  0  0  0  0  0  0  0
    1.2879    8.9485    4.5633 C   0  0  0  0  0  0  0  0  0  0  0  0
    0.8771    8.6215    3.2775 C   0  0  0  0  0  0  0  0  0  0  0  0
   -0.1759    8.5202    3.0584 H   0  0  0  0  0  0  0  0  0  0  0  0
    1.7984    8.4194    2.2659 C   0  0  0  0  0  0  0  0  0  0  0  0
    1.4621    8.1727    1.2702 H   0  0  0  0  0  0  0  0  0  0  0  0
    0.2964    9.1635    5.6642 C   0  0  0  0  0  0  0  0  0  0  0  0
   -0.6959    8.8335    5.3678 H   0  0  0  0  0  0  0  0  0  0  0  0
    0.2446   10.2217    5.9198 H   0  0  0  0  0  0  0  0  0  0  0  0
    0.5969    8.6221    6.5591 H   0  0  0  0  0  0  0  0  0  0  0  0
  1  3  1  0  0  0  0
  1  2  1  0  0  0  0
  1  4  1  0  0  0  0
  5  1  1  0  0  0  0
  6  1  1  0  0  0  0
  6 18  1  0  0  0  0
  7  6  1  0  0  0  0
  7  8  1  0  0  0  0
  8  9  1  0  0  0  0
 10 11  1  0  0  0  0
 10  8  2  0  0  0  0
 12 10  1  0  0  0  0
 13 12  1  0  0  0  0
 14 16  1  0  0  0  0
 14 12  2  0  0  0  0
 15 14  1  0  0  0  0
 16  7  2  0  0  0  0
 17 16  1  0  0  0  0
 18 27  2  0  0  0  0
 18 19  1  0  0  0  0
 19 21  2  0  0  0  0
 20 19  1  0  0  0  0
 21 23  1  0  0  0  0
 21 22  1  0  0  0  0
 23 24  1  0  0  0  0
 25 26  1  0  0  0  0
 25 23  2  0  0  0  0
 27 25  1  0  0  0  0
 28 27  1  0  0  0  0
 29 30  1  0  0  0  0
 29  6  1  0  0  0  0
 30 31  1  0  0  0  0
 32 33  1  0  0  0  0
 32 30  2  0  0  0  0
 34 32  1  0  0  0  0
 35 34  1  0  0  0  0
 36 34  2  0  0  0  0
 36 38  1  0  0  0  0
 37 36  1  0  0  0  0
 38 29  2  0  0  0  0
 39 38  1  0  0  0  0
 40  1  1  0  0  0  0
 40 41  1  0  0  0  0
 40 43  1  0  0  0  0
 42 40  1  0  0  0  0
 43 44  1  0  0  0  0
 44 45  1  0  0  0  0
 44 46  2  0  0  0  0
 46 47  1  0  0  0  0
 48 46  1  0  0  0  0
 48 53  1  0  0  0  0
 49 48  2  0  0  0  0
 50 49  1  0  0  0  0
 51 43  2  0  0  0  0
 51 49  1  0  0  0  0
 52 51  1  0  0  0  0
 53 55  1  0  0  0  0
 53 56  1  0  0  0  0
 54 53  1  0  0  0  0
M  END
$$$$
