CSD_code = CEPCAE | q = 0 | S = 0 | Stoichiometry = C20H18Cl4NPPt | MND = 6
 OpenBabel04212202023D

 45 47  0  0  0  0  0  0  0  0999 V2000
   -0.8801    6.2434    3.1894 Pt  0  0  0  0  0  0  0  0  0  0  0  0
   -0.0859    4.3024    4.2802 Cl  0  0  0  0  0  0  0  0  0  0  0  0
   -2.5794    6.3803    4.8127 Cl  0  0  0  0  0  0  0  0  0  0  0  0
    1.0231    6.1389    1.7707 Cl  0  0  0  0  0  0  0  0  0  0  0  0
   -1.8664    8.0538    2.0239 Cl  0  0  0  0  0  0  0  0  0  0  0  0
    0.6949    7.6564    4.0818 P   0  0  0  0  0  4  0  0  0  0  0  0
   -0.0391    8.5650    5.4809 C   0  0  0  0  0  0  0  0  0  0  0  0
    0.5705    8.6606    6.7280 C   0  0  0  0  0  0  0  0  0  0  0  0
    1.5012    8.1479    6.9251 H   0  0  0  0  0  0  0  0  0  0  0  0
   -0.0178    9.4183    7.7255 C   0  0  0  0  0  0  0  0  0  0  0  0
    0.4559    9.4823    8.6942 H   0  0  0  0  0  0  0  0  0  0  0  0
   -1.2060   10.0878    7.4869 C   0  0  0  0  0  0  0  0  0  0  0  0
   -1.6649   10.6684    8.2732 H   0  0  0  0  0  0  0  0  0  0  0  0
   -1.8018   10.0144    6.2380 C   0  0  0  0  0  0  0  0  0  0  0  0
   -2.7239   10.5410    6.0448 H   0  0  0  0  0  0  0  0  0  0  0  0
   -1.2208    9.2611    5.2359 C   0  0  0  0  0  0  0  0  0  0  0  0
   -1.6845    9.2021    4.2614 H   0  0  0  0  0  0  0  0  0  0  0  0
    1.3905    9.0356    3.1235 C   0  0  0  0  0  0  0  0  0  0  0  0
    2.2425    9.8597    3.8600 C   0  0  0  0  0  0  0  0  0  0  0  0
    2.4364    9.6395    4.9016 H   0  0  0  0  0  0  0  0  0  0  0  0
    2.8417   10.9493    3.2596 C   0  0  0  0  0  0  0  0  0  0  0  0
    3.5052   11.5798    3.8327 H   0  0  0  0  0  0  0  0  0  0  0  0
    2.5878   11.2317    1.9261 C   0  0  0  0  0  0  0  0  0  0  0  0
    3.0540   12.0860    1.4582 H   0  0  0  0  0  0  0  0  0  0  0  0
    1.7366   10.4188    1.1986 C   0  0  0  0  0  0  0  0  0  0  0  0
    1.5348   10.6372    0.1610 H   0  0  0  0  0  0  0  0  0  0  0  0
    1.1369    9.3190    1.7900 C   0  0  0  0  0  0  0  0  0  0  0  0
    0.4757    8.6910    1.2158 H   0  0  0  0  0  0  0  0  0  0  0  0
    2.0992    6.7346    4.7415 C   0  0  0  0  0  0  0  0  0  0  0  0
    1.9181    5.9439    5.8750 C   0  0  0  0  0  0  0  0  0  0  0  0
    0.9459    5.8931    6.3451 H   0  0  0  0  0  0  0  0  0  0  0  0
    2.9775    5.2086    6.3725 C   0  0  0  0  0  0  0  0  0  0  0  0
    2.8367    4.5905    7.2463 H   0  0  0  0  0  0  0  0  0  0  0  0
    4.2110    5.2525    5.7417 C   0  0  0  0  0  0  0  0  0  0  0  0
    5.0340    4.6698    6.1282 H   0  0  0  0  0  0  0  0  0  0  0  0
    4.3874    6.0306    4.6090 C   0  0  0  0  0  0  0  0  0  0  0  0
    5.3453    6.0541    4.1113 H   0  0  0  0  0  0  0  0  0  0  0  0
    3.3339    6.7698    4.1022 C   0  0  0  0  0  0  0  0  0  0  0  0
    3.4596    7.3623    3.2074 H   0  0  0  0  0  0  0  0  0  0  0  0
   -2.2010    4.9205    2.1607 N   0  0  0  0  0  2  0  0  0  0  0  0
   -3.1397    4.2657    2.2144 C   0  0  0  0  0  2  0  0  0  0  0  0
   -4.3060    3.4530    2.2711 C   0  0  0  0  0  0  0  0  0  0  0  0
   -4.7447    3.5487    3.2651 H   0  0  0  0  0  0  0  0  0  0  0  0
   -4.0378    2.4128    2.0887 H   0  0  0  0  0  0  0  0  0  0  0  0
   -5.0237    3.7866    1.5221 H   0  0  0  0  0  0  0  0  0  0  0  0
  1  6  1  0  0  0  0
  1  2  1  0  0  0  0
  1  3  1  0  0  0  0
  4  1  1  0  0  0  0
  5  1  1  0  0  0  0
  6 29  1  0  0  0  0
  6  7  1  0  0  0  0
  7  8  1  0  0  0  0
  8  9  1  0  0  0  0
  8 10  2  0  0  0  0
 10 11  1  0  0  0  0
 12 10  1  0  0  0  0
 12 13  1  0  0  0  0
 14 12  2  0  0  0  0
 15 14  1  0  0  0  0
 16  7  2  0  0  0  0
 16 14  1  0  0  0  0
 17 16  1  0  0  0  0
 18 19  1  0  0  0  0
 18  6  1  0  0  0  0
 19 20  1  0  0  0  0
 21 22  1  0  0  0  0
 21 19  2  0  0  0  0
 23 21  1  0  0  0  0
 24 23  1  0  0  0  0
 25 27  1  0  0  0  0
 25 23  2  0  0  0  0
 26 25  1  0  0  0  0
 27 18  2  0  0  0  0
 28 27  1  0  0  0  0
 29 30  1  0  0  0  0
 30 31  1  0  0  0  0
 30 32  2  0  0  0  0
 32 33  1  0  0  0  0
 34 35  1  0  0  0  0
 34 32  1  0  0  0  0
 36 34  2  0  0  0  0
 37 36  1  0  0  0  0
 38 36  1  0  0  0  0
 38 29  2  0  0  0  0
 39 38  1  0  0  0  0
 40 41  1  0  0  0  0
 40  1  1  0  0  0  0
 41 42  1  0  0  0  0
 42 43  1  0  0  0  0
 44 42  1  0  0  0  0
 45 42  1  0  0  0  0
M  END
$$$$
