CSD_code = CEPFPP | q = 0 | S = 0 | Stoichiometry = C6H15Cl2F3P2Pt | MND = 4
 OpenBabel04212202023D

 29 28  0  0  0  0  0  0  0  0999 V2000
    2.8293    3.9532    0.6969 Pt  0  0  0  0  0  0  0  0  0  0  0  0
    3.1683    1.6228    0.9470 Cl  0  0  0  0  0  0  0  0  0  0  0  0
    3.8835    4.7111    2.5399 Cl  0  0  0  0  0  0  0  0  0  0  0  0
    2.4015    6.1426    0.3181 P   0  0  0  0  0  4  0  0  0  0  0  0
    1.9357    2.6498   -0.9185 P   0  0  0  0  0  4  0  0  0  0  0  0
    2.7928    1.7554   -1.8927 F   0  0  0  0  0  0  0  0  0  0  0  0
    1.1038    3.2792   -2.1826 F   0  0  0  0  0  0  0  0  0  0  0  0
    0.7789    1.6167   -0.6375 F   0  0  0  0  0  0  0  0  0  0  0  0
    3.9186    7.1620    0.2169 C   0  0  0  0  0  0  0  0  0  0  0  0
    4.8948    6.5106   -0.7573 C   0  0  0  0  0  0  0  0  0  0  0  0
    1.4759    6.4147   -1.2518 C   0  0  0  0  0  0  0  0  0  0  0  0
    1.2001    7.8699   -1.6085 C   0  0  0  0  0  0  0  0  0  0  0  0
    1.3868    6.8717    1.6575 C   0  0  0  0  0  0  0  0  0  0  0  0
    0.2294    5.9309    1.9776 C   0  0  0  0  0  0  0  0  0  0  0  0
    3.6737    8.1859   -0.0737 H   0  0  0  0  0  0  0  0  0  0  0  0
    4.3467    7.1716    1.2218 H   0  0  0  0  0  0  0  0  0  0  0  0
    4.5214    6.5502   -1.7784 H   0  0  0  0  0  0  0  0  0  0  0  0
    5.0359    5.4616   -0.4783 H   0  0  0  0  0  0  0  0  0  0  0  0
    5.8616    7.0069   -0.7243 H   0  0  0  0  0  0  0  0  0  0  0  0
    2.0510    5.9314   -2.0460 H   0  0  0  0  0  0  0  0  0  0  0  0
    0.5381    5.8600   -1.1619 H   0  0  0  0  0  0  0  0  0  0  0  0
    0.6290    8.3677   -0.8288 H   0  0  0  0  0  0  0  0  0  0  0  0
    2.1244    8.4194   -1.7667 H   0  0  0  0  0  0  0  0  0  0  0  0
    0.6218    7.9162   -2.5288 H   0  0  0  0  0  0  0  0  0  0  0  0
    2.0438    6.9616    2.5258 H   0  0  0  0  0  0  0  0  0  0  0  0
    1.0338    7.8662    1.3763 H   0  0  0  0  0  0  0  0  0  0  0  0
   -0.4744    5.8731    1.1500 H   0  0  0  0  0  0  0  0  0  0  0  0
    0.6221    4.9270    2.1717 H   0  0  0  0  0  0  0  0  0  0  0  0
   -0.3065    6.2657    2.8623 H   0  0  0  0  0  0  0  0  0  0  0  0
  1  2  1  0  0  0  0
  1  3  1  0  0  0  0
  4  1  1  0  0  0  0
  4 13  1  0  0  0  0
  5  8  1  0  0  0  0
  5  1  1  0  0  0  0
  6  5  1  0  0  0  0
  7  5  1  0  0  0  0
  9  4  1  0  0  0  0
  9 16  1  0  0  0  0
 10 19  1  0  0  0  0
 10 18  1  0  0  0  0
 10  9  1  0  0  0  0
 11 21  1  0  0  0  0
 11  4  1  0  0  0  0
 12 11  1  0  0  0  0
 12 22  1  0  0  0  0
 13 14  1  0  0  0  0
 13 25  1  0  0  0  0
 14 28  1  0  0  0  0
 14 29  1  0  0  0  0
 15  9  1  0  0  0  0
 17 10  1  0  0  0  0
 20 11  1  0  0  0  0
 23 12  1  0  0  0  0
 24 12  1  0  0  0  0
 26 13  1  0  0  0  0
 27 14  1  0  0  0  0
M  END
$$$$
