CSD_code = CEPFEI | q = 0 | S = 0 | Stoichiometry = C10H12Cl2N4NiO | MND = 5
 OpenBabel04212202023D

 30 31  0  0  1  0  0  0  0  0999 V2000
    2.2444    1.4478    9.5625 Ni  0  0  0  0  0  0  0  0  0  0  0  0
    1.6996    2.0084   11.4300 O   0  0  0  0  0  0  0  0  0  0  0  0
    0.9341    2.5919   11.3172 H   0  0  0  0  0  0  0  0  0  0  0  0
    1.4414    1.2266   11.9370 H   0  0  0  0  0  0  0  0  0  0  0  0
    2.9248   -0.4267   10.3310 Cl  0  0  0  0  0  0  0  0  0  0  0  0
    1.1239    3.1142    8.8029 Cl  0  0  0  0  0  0  0  0  0  0  0  0
    2.5908    0.8920    7.8639 N   0  0  0  0  0  0  0  0  0  0  0  0
    1.6667    0.1778    7.2006 C   0  0  2  0  0  3  0  0  0  0  0  0
    1.8207   -0.2315    5.9574 N   0  0  0  0  0  0  0  0  0  0  0  0
    2.9383    0.0762    5.3228 C   0  0  0  0  0  0  0  0  0  0  0  0
    3.0160   -0.2745    4.3029 H   0  0  0  0  0  0  0  0  0  0  0  0
    3.9491    0.8009    5.9282 C   0  0  0  0  0  0  0  0  0  0  0  0
    4.8544    1.0453    5.4004 H   0  0  0  0  0  0  0  0  0  0  0  0
    3.7400    1.2034    7.2459 C   0  0  0  0  0  0  0  0  0  0  0  0
    4.7342    1.9691    8.0189 C   0  0  1  0  0  3  0  0  0  0  0  0
    4.3430    2.3535    9.2359 N   0  0  0  0  0  0  0  0  0  0  0  0
    5.1888    3.0447    9.9944 C   0  0  0  0  0  0  0  0  0  0  0  0
    6.4134    3.3879    9.6181 N   0  0  0  0  0  0  0  0  0  0  0  0
    6.8156    3.0105    8.4190 C   0  0  0  0  0  0  0  0  0  0  0  0
    7.8209    3.3019    8.1437 H   0  0  0  0  0  0  0  0  0  0  0  0
    6.0106    2.2833    7.5547 C   0  0  0  0  0  0  0  0  0  0  0  0
    6.3695    1.9808    6.5864 H   0  0  0  0  0  0  0  0  0  0  0  0
    0.4062   -0.1673    7.9036 C   0  0  0  0  0  0  0  0  0  0  0  0
   -0.1163    0.7543    8.1773 H   0  0  0  0  0  0  0  0  0  0  0  0
    0.6427   -0.7146    8.8213 H   0  0  0  0  0  0  0  0  0  0  0  0
   -0.2235   -0.7721    7.2586 H   0  0  0  0  0  0  0  0  0  0  0  0
    4.7156    3.4530   11.3400 C   0  0  0  0  0  0  0  0  0  0  0  0
    5.5292    3.8845   11.9132 H   0  0  0  0  0  0  0  0  0  0  0  0
    4.2993    2.5852   11.8493 H   0  0  0  0  0  0  0  0  0  0  0  0
    3.9126    4.1806   11.2274 H   0  0  0  0  0  0  0  0  0  0  0  0
  1  5  1  0  0  0  0
  2  4  1  0  0  0  0
  3  2  1  0  0  0  0
  6  1  1  0  0  0  0
  7  1  1  0  0  0  0
  8  7  1  0  0  0  0
  8 23  1  6  0  0  0
  9  8  1  0  0  0  0
 10 12  1  0  0  0  0
 10  9  2  0  0  0  0
 11 10  1  0  0  0  0
 12 14  2  0  0  0  0
 13 12  1  0  0  0  0
 14  7  1  0  0  0  0
 15 14  1  1  0  0  0
 15 16  1  0  0  0  0
 16  1  1  0  0  0  0
 16 17  1  0  0  0  0
 17 27  1  0  0  0  0
 18 17  2  0  0  0  0
 19 18  1  0  0  0  0
 20 19  1  0  0  0  0
 21 15  1  0  0  0  0
 21 19  2  0  0  0  0
 22 21  1  0  0  0  0
 23 24  1  0  0  0  0
 23 25  1  0  0  0  0
 26 23  1  0  0  0  0
 27 29  1  0  0  0  0
 27 28  1  0  0  0  0
 30 27  1  0  0  0  0
M  END
$$$$
