CSD_code = CEPQAP | q = 0 | S = 0 | Stoichiometry = C19H42Cl2OP2Ru | MND = 5
 OpenBabel04212202023D

 67 66  0  0  0  0  0  0  0  0999 V2000
    4.8080    2.0615    2.6898 Ru  0  0  0  0  0  0  0  0  0  0  0  0
    7.1418    1.8260    2.4386 P   0  0  0  0  0  4  0  0  0  0  0  0
    2.4732    1.8358    2.9444 P   0  0  0  0  0  4  0  0  0  0  0  0
    4.4873    1.7925    0.3796 Cl  0  0  0  0  0  0  0  0  0  0  0  0
    5.1290    1.7811    4.9988 Cl  0  0  0  0  0  0  0  0  0  0  0  0
    4.8120    3.8818    2.6928 C   0  0  0  0  0  2  0  0  0  0  0  0
    4.8158    5.0329    2.6937 O   0  0  0  0  0  1  0  0  0  0  0  0
    6.5632   -0.6842    1.5267 C   0  0  0  0  0  0  0  0  0  0  0  0
    7.5565    0.0048    2.4619 C   0  0  0  0  0  0  0  0  0  0  0  0
    7.4727   -0.5973    3.8634 C   0  0  0  0  0  0  0  0  0  0  0  0
    7.7765    3.8982    0.6911 C   0  0  0  0  0  0  0  0  0  0  0  0
    7.7679    2.3729    0.7642 C   0  0  0  0  0  0  0  0  0  0  0  0
    9.0871    1.7926    0.2621 C   0  0  0  0  0  0  0  0  0  0  0  0
    9.7009    2.3972    3.5934 C   0  0  0  0  0  0  0  0  0  0  0  0
    8.1965    2.5204    3.8089 C   0  0  0  0  0  0  0  0  0  0  0  0
    7.8038    3.9532    4.1608 C   0  0  0  0  0  0  0  0  0  0  0  0
    3.0132   -0.6781    3.8799 C   0  0  0  0  0  0  0  0  0  0  0  0
    2.0434    0.0183    2.9258 C   0  0  0  0  0  0  0  0  0  0  0  0
    2.1435   -0.5893    1.5275 C   0  0  0  0  0  0  0  0  0  0  0  0
    1.8229    3.9632    1.2171 C   0  0  0  0  0  0  0  0  0  0  0  0
    1.4240    2.5325    1.5708 C   0  0  0  0  0  0  0  0  0  0  0  0
   -0.0817    2.4163    1.7815 C   0  0  0  0  0  0  0  0  0  0  0  0
    1.8410    3.9178    4.6830 C   0  0  0  0  0  0  0  0  0  0  0  0
    1.8483    2.3922    4.6161 C   0  0  0  0  0  0  0  0  0  0  0  0
    0.5276    1.8156    5.1186 C   0  0  0  0  0  0  0  0  0  0  0  0
    6.6402   -0.3067    0.5078 H   0  0  0  0  0  0  0  0  0  0  0  0
    5.5371   -0.5010    1.8745 H   0  0  0  0  0  0  0  0  0  0  0  0
    6.7253   -1.7618    1.5104 H   0  0  0  0  0  0  0  0  0  0  0  0
    8.5742   -0.1297    2.0779 H   0  0  0  0  0  0  0  0  0  0  0  0
    8.3171   -0.2950    4.4784 H   0  0  0  0  0  0  0  0  0  0  0  0
    7.4813   -1.6851    3.7963 H   0  0  0  0  0  0  0  0  0  0  0  0
    6.5557   -0.2937    4.3695 H   0  0  0  0  0  0  0  0  0  0  0  0
    6.8549    4.3012    1.1128 H   0  0  0  0  0  0  0  0  0  0  0  0
    7.8405    4.2197   -0.3471 H   0  0  0  0  0  0  0  0  0  0  0  0
    8.6266    4.3151    1.2264 H   0  0  0  0  0  0  0  0  0  0  0  0
    6.9712    2.0243    0.0924 H   0  0  0  0  0  0  0  0  0  0  0  0
    9.0414    0.7114    0.1582 H   0  0  0  0  0  0  0  0  0  0  0  0
    9.9223    2.0494    0.9063 H   0  0  0  0  0  0  0  0  0  0  0  0
    9.2882    2.2064   -0.7255 H   0  0  0  0  0  0  0  0  0  0  0  0
    9.9830    1.3944    3.2797 H   0  0  0  0  0  0  0  0  0  0  0  0
   10.2169    2.6149    4.5278 H   0  0  0  0  0  0  0  0  0  0  0  0
   10.0473    3.1127    2.8514 H   0  0  0  0  0  0  0  0  0  0  0  0
    7.9070    1.8975    4.6651 H   0  0  0  0  0  0  0  0  0  0  0  0
    6.7341    4.0098    4.3616 H   0  0  0  0  0  0  0  0  0  0  0  0
    8.0473    4.6528    3.3664 H   0  0  0  0  0  0  0  0  0  0  0  0
    8.3310    4.2625    5.0620 H   0  0  0  0  0  0  0  0  0  0  0  0
    2.9283   -0.2913    4.8945 H   0  0  0  0  0  0  0  0  0  0  0  0
    4.0466   -0.5147    3.5463 H   0  0  0  0  0  0  0  0  0  0  0  0
    2.8330   -1.7526    3.9026 H   0  0  0  0  0  0  0  0  0  0  0  0
    1.0183   -0.1037    3.2938 H   0  0  0  0  0  0  0  0  0  0  0  0
    1.3054   -0.2905    0.9023 H   0  0  0  0  0  0  0  0  0  0  0  0
    2.1363   -1.6768    1.5981 H   0  0  0  0  0  0  0  0  0  0  0  0
    3.0652   -0.2858    1.0298 H   0  0  0  0  0  0  0  0  0  0  0  0
    2.8942    4.0170    1.0241 H   0  0  0  0  0  0  0  0  0  0  0  0
    1.5749    4.6661    2.0072 H   0  0  0  0  0  0  0  0  0  0  0  0
    1.3033    4.2706    0.3109 H   0  0  0  0  0  0  0  0  0  0  0  0
    1.7131    1.9068    0.7164 H   0  0  0  0  0  0  0  0  0  0  0  0
   -0.3701    1.4143    2.0919 H   0  0  0  0  0  0  0  0  0  0  0  0
   -0.5933    2.6385    0.8457 H   0  0  0  0  0  0  0  0  0  0  0  0
   -0.4271    3.1319    2.5237 H   0  0  0  0  0  0  0  0  0  0  0  0
    2.7632    4.3185    4.2610 H   0  0  0  0  0  0  0  0  0  0  0  0
    1.7756    4.2434    5.7199 H   0  0  0  0  0  0  0  0  0  0  0  0
    0.9918    4.3331    4.1450 H   0  0  0  0  0  0  0  0  0  0  0  0
    2.6440    2.0455    5.2901 H   0  0  0  0  0  0  0  0  0  0  0  0
    0.5726    0.7351    5.2294 H   0  0  0  0  0  0  0  0  0  0  0  0
   -0.3057    2.0685    4.4703 H   0  0  0  0  0  0  0  0  0  0  0  0
    0.3237    2.2358    6.1030 H   0  0  0  0  0  0  0  0  0  0  0  0
  1  6  1  0  0  0  0
  1  3  1  0  0  0  0
  1  5  1  0  0  0  0
  2  9  1  0  0  0  0
  2  1  1  0  0  0  0
  2 15  1  0  0  0  0
  3 24  1  0  0  0  0
  4  1  1  0  0  0  0
  6  7  1  0  0  0  0
  8 27  1  0  0  0  0
  8  9  1  0  0  0  0
  9 10  1  0  0  0  0
 10 32  1  0  0  0  0
 10 30  1  0  0  0  0
 11 12  1  0  0  0  0
 11 33  1  0  0  0  0
 11 35  1  0  0  0  0
 12  2  1  0  0  0  0
 13 12  1  0  0  0  0
 13 38  1  0  0  0  0
 14 15  1  0  0  0  0
 14 41  1  0  0  0  0
 15 16  1  0  0  0  0
 15 43  1  0  0  0  0
 16 44  1  0  0  0  0
 16 46  1  0  0  0  0
 17 49  1  0  0  0  0
 17 47  1  0  0  0  0
 18  3  1  0  0  0  0
 18 50  1  0  0  0  0
 18 17  1  0  0  0  0
 19 52  1  0  0  0  0
 19 18  1  0  0  0  0
 20 21  1  0  0  0  0
 20 55  1  0  0  0  0
 21 22  1  0  0  0  0
 21  3  1  0  0  0  0
 22 58  1  0  0  0  0
 22 60  1  0  0  0  0
 23 62  1  0  0  0  0
 24 23  1  0  0  0  0
 24 25  1  0  0  0  0
 24 64  1  0  0  0  0
 25 65  1  0  0  0  0
 25 67  1  0  0  0  0
 26  8  1  0  0  0  0
 28  8  1  0  0  0  0
 29  9  1  0  0  0  0
 31 10  1  0  0  0  0
 34 11  1  0  0  0  0
 36 12  1  0  0  0  0
 37 13  1  0  0  0  0
 39 13  1  0  0  0  0
 40 14  1  0  0  0  0
 42 14  1  0  0  0  0
 45 16  1  0  0  0  0
 48 17  1  0  0  0  0
 51 19  1  0  0  0  0
 53 19  1  0  0  0  0
 54 20  1  0  0  0  0
 56 20  1  0  0  0  0
 57 21  1  0  0  0  0
 59 22  1  0  0  0  0
 61 23  1  0  0  0  0
 63 23  1  0  0  0  0
 66 25  1  0  0  0  0
M  END
$$$$
