CSD_code = CEPRAR | q = 0 | S = 0 | Stoichiometry = C21H19ClOPdS2 | MND = 4
 OpenBabel04212202023D

 45 49  0  0  0  0  0  0  0  0999 V2000
   -0.3485    2.7858   19.8531 C   0  0  0  0  0  0  0  0  0  0  0  0
   -0.2945    1.8485   20.8734 C   0  0  0  0  0  0  0  0  0  0  0  0
   -1.1748    1.3065   21.1791 H   0  0  0  0  0  0  0  0  0  0  0  0
    0.9150    1.5856   21.4994 C   0  0  0  0  0  0  0  0  0  0  0  0
    0.9511    0.8435   22.2826 H   0  0  0  0  0  0  0  0  0  0  0  0
    2.0607    2.2636   21.1277 C   0  0  0  0  0  0  0  0  0  0  0  0
    3.0003    2.0471   21.6132 H   0  0  0  0  0  0  0  0  0  0  0  0
    1.9961    3.2326   20.1357 C   0  0  0  0  0  0  0  0  0  0  0  0
    2.8828    3.7808   19.8543 H   0  0  0  0  0  0  0  0  0  0  0  0
    0.7988    3.5050   19.4964 C   0  0  0  0  0  0  0  0  0  0  0  0
    0.7432    4.3056   18.7568 H   0  0  0  0  0  0  0  0  0  0  0  0
   -2.7805    1.5566   19.0939 C   0  0  0  0  0  0  0  0  0  0  0  0
   -3.1500    1.4369   20.1135 H   0  0  0  0  0  0  0  0  0  0  0  0
   -3.6399    1.6948   18.4319 H   0  0  0  0  0  0  0  0  0  0  0  0
   -1.9233    0.4142   18.6332 C   0  0  0  0  0  0  0  0  0  0  0  0
   -2.1880   -0.8859   19.0262 C   0  0  0  0  0  0  0  0  0  0  0  0
   -3.0151   -1.1176   19.6798 H   0  0  0  0  0  0  0  0  0  0  0  0
   -1.3902   -1.9347   18.5690 C   0  0  0  0  0  0  0  0  0  0  0  0
   -0.3159   -1.6667   17.7305 C   0  0  0  0  0  0  0  0  0  0  0  0
    0.3214   -2.4578   17.3663 H   0  0  0  0  0  0  0  0  0  0  0  0
   -0.0446   -0.3541   17.3577 C   0  0  0  0  0  0  0  0  0  0  0  0
   -0.8437    0.6955   17.7951 C   0  0  0  0  0  0  0  0  0  0  0  0
    1.1334   -0.0230   16.4929 C   0  0  0  0  0  0  0  0  0  0  0  0
    1.3231   -0.7713   15.7229 H   0  0  0  0  0  0  0  0  0  0  0  0
    2.0375    0.1076   17.0941 H   0  0  0  0  0  0  0  0  0  0  0  0
   -0.3743    1.1436   14.4889 C   0  0  0  0  0  0  0  0  0  0  0  0
   -1.6406    1.7140   14.5381 C   0  0  0  0  0  0  0  0  0  0  0  0
   -1.8802    2.4774   15.2943 H   0  0  0  0  0  0  0  0  0  0  0  0
   -2.5912    1.3384   13.6037 C   0  0  0  0  0  0  0  0  0  0  0  0
   -3.5754    1.7804   13.6380 H   0  0  0  0  0  0  0  0  0  0  0  0
   -2.2838    0.4025   12.6299 C   0  0  0  0  0  0  0  0  0  0  0  0
   -3.0304    0.1090   11.9075 H   0  0  0  0  0  0  0  0  0  0  0  0
   -1.0141   -0.1476   12.5747 C   0  0  0  0  0  0  0  0  0  0  0  0
   -0.7655   -0.8646   11.8066 H   0  0  0  0  0  0  0  0  0  0  0  0
   -0.0538    0.2293   13.4968 C   0  0  0  0  0  0  0  0  0  0  0  0
    0.9434   -0.1817   13.4418 H   0  0  0  0  0  0  0  0  0  0  0  0
   -0.9952   -4.2832   18.5740 C   0  0  0  0  0  0  0  0  0  0  0  0
   -1.0283   -4.3928   17.4848 H   0  0  0  0  0  0  0  0  0  0  0  0
   -1.4582   -5.1537   19.0362 H   0  0  0  0  0  0  0  0  0  0  0  0
    0.0477   -4.2133   18.9008 H   0  0  0  0  0  0  0  0  0  0  0  0
   -0.2025    4.7204   16.3615 Cl  0  0  0  0  0  0  0  0  0  0  0  0
   -1.7486   -3.1779   19.0056 O   0  0  0  0  0  0  0  0  0  0  0  0
   -0.4822    2.5697   17.2136 Pd  0  0  1  0  0  0  0  0  0  0  0  0
   -1.8734    3.1519   18.9697 S   0  0  2  0  0  3  0  0  0  0  0  0
    0.8919    1.6096   15.6717 S   0  0  1  0  0  3  0  0  0  0  0  0
  1  2  1  0  0  0  0
  2  3  1  0  0  0  0
  2  4  2  0  0  0  0
  4  5  1  0  0  0  0
  6  4  1  0  0  0  0
  6  7  1  0  0  0  0
  8  6  2  0  0  0  0
  9  8  1  0  0  0  0
 10  1  2  0  0  0  0
 10  8  1  0  0  0  0
 11 10  1  0  0  0  0
 12 13  1  0  0  0  0
 14 12  1  0  0  0  0
 15 16  1  0  0  0  0
 15 12  1  0  0  0  0
 16 17  1  0  0  0  0
 18 42  1  0  0  0  0
 18 16  2  0  0  0  0
 19 18  1  0  0  0  0
 20 19  1  0  0  0  0
 21 19  2  0  0  0  0
 21 22  1  0  0  0  0
 22 15  2  0  0  0  0
 23 25  1  0  0  0  0
 23 21  1  0  0  0  0
 24 23  1  0  0  0  0
 26 27  1  0  0  0  0
 27 28  1  0  0  0  0
 29 30  1  0  0  0  0
 29 27  2  0  0  0  0
 31 29  1  0  0  0  0
 32 31  1  0  0  0  0
 33 31  2  0  0  0  0
 33 35  1  0  0  0  0
 34 33  1  0  0  0  0
 35 26  2  0  0  0  0
 36 35  1  0  0  0  0
 37 40  1  0  0  0  0
 37 42  1  0  0  0  0
 37 39  1  0  0  0  0
 38 37  1  0  0  0  0
 43 41  1  6  0  0  0
 43 22  1  0  0  0  0
 43 44  1  0  0  0  0
 44 12  1  0  0  0  0
 44  1  1  1  0  0  0
 45 26  1  6  0  0  0
 45 23  1  0  0  0  0
 45 43  1  0  0  0  0
M  END
$$$$
