CSD_code = CEPXOM | q = 0 | S = 0 | Stoichiometry = C33H28ClN2PPd | MND = 4
 OpenBabel04212202023D

 66 72  0  0  0  0  0  0  0  0999 V2000
   -2.8533    3.6818   14.8516 Pd  0  0  1  0  0  0  0  0  0  0  0  0
   -3.7459    1.7882   14.1093 P   0  0  0  0  0  4  0  0  0  0  0  0
   -3.4069    2.8753   16.9125 Cl  0  0  0  0  0  0  0  0  0  0  0  0
   -2.0116    5.4188   15.4575 N   0  0  0  0  0  0  0  0  0  0  0  0
   -2.5559    4.1564   12.9010 N   0  0  0  0  0  0  0  0  0  0  0  0
   -1.2792    6.2420   14.7314 C   0  0  0  0  0  0  0  0  0  0  0  0
   -0.6110    7.3498   15.3437 C   0  0  0  0  0  0  0  0  0  0  0  0
   -0.7566    7.4947   16.4043 H   0  0  0  0  0  0  0  0  0  0  0  0
    0.1885    8.1939   14.6401 C   0  0  0  0  0  0  0  0  0  0  0  0
    0.6792    9.0149   15.1429 H   0  0  0  0  0  0  0  0  0  0  0  0
    0.3879    8.0108   13.2584 C   0  0  0  0  0  0  0  0  0  0  0  0
    1.0294    8.6846   12.7121 H   0  0  0  0  0  0  0  0  0  0  0  0
   -0.2423    6.9818   12.6291 C   0  0  0  0  0  3  0  0  0  0  0  0
   -0.1036    6.8376   11.5660 H   0  0  0  0  0  0  0  0  0  0  0  0
   -1.0979    6.0778   13.3113 C   0  0  0  0  0  0  0  0  0  0  0  0
   -1.7093    5.0877   12.5294 C   0  0  0  0  0  0  0  0  0  0  0  0
   -1.4256    5.1148   11.4764 H   0  0  0  0  0  0  0  0  0  0  0  0
   -3.1785    3.3590   11.9418 C   0  0  0  0  0  0  0  0  0  0  0  0
   -3.3243    3.7426   10.6014 C   0  0  0  0  0  0  0  0  0  0  0  0
   -2.9931    4.7158   10.2720 H   0  0  0  0  0  0  0  0  0  0  0  0
   -3.9317    2.9056    9.6867 C   0  0  0  0  0  0  0  0  0  0  0  0
   -4.0284    3.2293    8.6608 H   0  0  0  0  0  0  0  0  0  0  0  0
   -4.4303    1.6696   10.0692 C   0  0  0  0  0  0  0  0  0  0  0  0
   -4.9043    1.0243    9.3457 H   0  0  0  0  0  0  0  0  0  0  0  0
   -4.3459    1.2914   11.3962 C   0  0  0  0  0  0  0  0  0  0  0  0
   -4.7654    0.3518   11.7283 H   0  0  0  0  0  0  0  0  0  0  0  0
   -3.7321    2.1204   12.3228 C   0  0  0  0  0  0  0  0  0  0  0  0
   -2.0098    5.5334   16.8608 C   0  0  0  0  0  0  0  0  0  0  0  0
   -0.9829    4.9160   17.5862 C   0  0  0  0  0  0  0  0  0  0  0  0
   -0.9908    5.0235   18.9667 C   0  0  0  0  0  0  0  0  0  0  0  0
   -0.2066    4.5504   19.5401 H   0  0  0  0  0  0  0  0  0  0  0  0
   -2.0007    5.7146   19.6145 C   0  0  0  0  0  0  0  0  0  0  0  0
   -1.9923    5.7934   20.6916 H   0  0  0  0  0  0  0  0  0  0  0  0
   -3.0407    6.2715   18.8912 C   0  0  0  0  0  0  0  0  0  0  0  0
   -3.8495    6.7718   19.4043 H   0  0  0  0  0  0  0  0  0  0  0  0
   -3.0640    6.1823   17.5088 C   0  0  0  0  0  0  0  0  0  0  0  0
    0.0393    4.1077   16.8428 C   0  0  0  0  0  0  0  0  0  0  0  0
    0.6359    3.5139   17.5304 H   0  0  0  0  0  0  0  0  0  0  0  0
    0.7036    4.7514   16.2631 H   0  0  0  0  0  0  0  0  0  0  0  0
   -0.4738    3.4249   16.1372 H   0  0  0  0  0  0  0  0  0  0  0  0
   -4.1987    6.7056   16.6809 C   0  0  0  0  0  0  0  0  0  0  0  0
   -3.8835    7.5615   16.0821 H   0  0  0  0  0  0  0  0  0  0  0  0
   -5.0354    7.0015   17.3081 H   0  0  0  0  0  0  0  0  0  0  0  0
   -4.5288    5.9159   15.9906 H   0  0  0  0  0  0  0  0  0  0  0  0
   -3.2196    0.0784   14.3630 C   0  0  0  0  0  0  0  0  0  0  0  0
   -2.4841   -0.6203   13.4110 C   0  0  0  0  0  0  0  0  0  0  0  0
   -2.2444   -0.1546   12.4646 H   0  0  0  0  0  0  0  0  0  0  0  0
   -2.0631   -1.9101   13.6823 C   0  0  0  0  0  0  0  0  0  0  0  0
   -1.4989   -2.4573   12.9411 H   0  0  0  0  0  0  0  0  0  0  0  0
   -2.3583   -2.4970   14.9022 C   0  0  0  0  0  0  0  0  0  0  0  0
   -2.0267   -3.5040   15.1084 H   0  0  0  0  0  0  0  0  0  0  0  0
   -3.0658   -1.7902   15.8630 C   0  0  0  0  0  0  0  0  0  0  0  0
   -3.2790   -2.2433   16.8198 H   0  0  0  0  0  0  0  0  0  0  0  0
   -3.4929   -0.5025   15.6007 C   0  0  0  0  0  0  0  0  0  0  0  0
   -4.0229    0.0740   16.3471 H   0  0  0  0  0  0  0  0  0  0  0  0
   -5.5369    1.8060   14.4123 C   0  0  0  0  0  0  0  0  0  0  0  0
   -6.0967    3.0681   14.6031 C   0  0  0  0  0  0  0  0  0  0  0  0
   -5.4375    3.9458   14.6115 H   0  0  0  0  0  0  0  0  0  0  0  0
   -7.4574    3.2001   14.7998 C   0  0  0  0  0  0  0  0  0  0  0  0
   -7.8919    4.1764   14.9559 H   0  0  0  0  0  0  0  0  0  0  0  0
   -8.2645    2.0722   14.8054 C   0  0  0  0  0  0  0  0  0  0  0  0
   -9.3277    2.1721   14.9662 H   0  0  0  0  0  0  0  0  0  0  0  0
   -7.7108    0.8176   14.6128 C   0  0  0  0  0  0  0  0  0  0  0  0
   -8.3429   -0.0584   14.6210 H   0  0  0  0  0  0  0  0  0  0  0  0
   -6.3481    0.6787   14.4126 C   0  0  0  0  0  0  0  0  0  0  0  0
   -5.9151   -0.3017   14.2704 H   0  0  0  0  0  0  0  0  0  0  0  0
  1  4  1  0  0  0  0
  1  3  1  6  0  0  0
  2 45  1  0  0  0  0
  2 56  1  0  0  0  0
  2  1  1  0  0  0  0
  4 28  1  0  0  0  0
  5  1  1  0  0  0  0
  6  7  2  0  0  0  0
  6  4  1  0  0  0  0
  7  8  1  0  0  0  0
  9 10  1  0  0  0  0
  9  7  1  0  0  0  0
 11  9  2  0  0  0  0
 12 11  1  0  0  0  0
 13 11  1  0  0  0  0
 13 15  1  0  0  0  0
 14 13  1  0  0  0  0
 15  6  1  0  0  0  0
 16  5  1  0  0  0  0
 16 15  2  0  0  0  0
 17 16  1  0  0  0  0
 18 27  1  0  0  0  0
 18  5  1  0  0  0  0
 19 18  2  0  0  0  0
 20 19  1  0  0  0  0
 21 23  2  0  0  0  0
 21 19  1  0  0  0  0
 22 21  1  0  0  0  0
 23 25  1  0  0  0  0
 24 23  1  0  0  0  0
 25 26  1  0  0  0  0
 25 27  2  0  0  0  0
 27  2  1  0  0  0  0
 28 36  2  0  0  0  0
 28 29  1  0  0  0  0
 29 30  2  0  0  0  0
 30 31  1  0  0  0  0
 30 32  1  0  0  0  0
 32 33  1  0  0  0  0
 34 35  1  0  0  0  0
 34 32  2  0  0  0  0
 36 34  1  0  0  0  0
 37 38  1  0  0  0  0
 37 29  1  0  0  0  0
 39 37  1  0  0  0  0
 40 37  1  0  0  0  0
 41 43  1  0  0  0  0
 41 36  1  0  0  0  0
 42 41  1  0  0  0  0
 44 41  1  0  0  0  0
 45 54  1  0  0  0  0
 46 48  1  0  0  0  0
 46 45  2  0  0  0  0
 47 46  1  0  0  0  0
 48 50  2  0  0  0  0
 49 48  1  0  0  0  0
 50 51  1  0  0  0  0
 50 52  1  0  0  0  0
 52 53  1  0  0  0  0
 54 52  2  0  0  0  0
 54 55  1  0  0  0  0
 56 65  2  0  0  0  0
 56 57  1  0  0  0  0
 57 58  1  0  0  0  0
 57 59  2  0  0  0  0
 59 61  1  0  0  0  0
 59 60  1  0  0  0  0
 61 62  1  0  0  0  0
 63 64  1  0  0  0  0
 63 61  2  0  0  0  0
 65 63  1  0  0  0  0
 66 65  1  0  0  0  0
M  END
$$$$
