CSD_code = CEPXUS | q = 0 | S = 0 | Stoichiometry = C37H36ClN2NiP | MND = 4
 OpenBabel04212202023D

 78 84  0  0  1  0  0  0  0  0999 V2000
    4.3860    8.0672    4.0198 Ni  0  0  1  0  0  0  0  0  0  0  0  0
    5.4149    6.2541    3.7529 P   0  0  0  0  0  4  0  0  0  0  0  0
    5.0860    8.2770    2.0428 Cl  0  0  0  0  0  0  0  0  0  0  0  0
    3.3420    9.6867    4.0950 N   0  0  0  0  0  0  0  0  0  0  0  0
    3.8878    7.4891    5.7646 N   0  0  0  0  0  0  0  0  0  0  0  0
    2.4901   10.0410    5.0465 C   0  0  1  0  0  3  0  0  0  0  0  0
    1.8463   11.3171    5.0405 C   0  0  0  0  0  0  0  0  0  0  0  0
    2.1438   12.0304    4.2865 H   0  0  0  0  0  0  0  0  0  0  0  0
    0.8725   11.6360    5.9354 C   0  0  0  0  0  0  0  0  0  0  0  0
    0.3981   12.6060    5.8881 H   0  0  0  0  0  0  0  0  0  0  0  0
    0.4687   10.7198    6.9246 C   0  0  0  0  0  0  0  0  0  0  0  0
   -0.3183   10.9831    7.6141 H   0  0  0  0  0  0  0  0  0  0  0  0
    1.1013    9.5171    7.0097 C   0  0  0  0  0  0  0  0  0  0  0  0
    0.8286    8.8149    7.7857 H   0  0  0  0  0  0  0  0  0  0  0  0
    2.1448    9.1530    6.1232 C   0  0  0  0  0  0  0  0  0  0  0  0
    2.8335    7.9632    6.3895 C   0  0  0  0  0  0  0  0  0  0  0  0
    2.4476    7.3900    7.2329 H   0  0  0  0  0  0  0  0  0  0  0  0
    4.5443    6.3781    6.3043 C   0  0  0  0  0  0  0  0  0  0  0  0
    4.5140    6.0408    7.6609 C   0  0  0  0  0  0  0  0  0  0  0  0
    4.0020    6.6705    8.3732 H   0  0  0  0  0  0  0  0  0  0  0  0
    5.1797    4.9180    8.1150 C   0  0  0  0  0  0  0  0  0  0  0  0
    5.1457    4.6759    9.1672 H   0  0  0  0  0  0  0  0  0  0  0  0
    5.8982    4.1106    7.2467 C   0  0  0  0  0  0  0  0  0  0  0  0
    6.4114    3.2359    7.6161 H   0  0  0  0  0  0  0  0  0  0  0  0
    5.9780    4.4533    5.9083 C   0  0  0  0  0  0  0  0  0  0  0  0
    6.5601    3.8567    5.2202 H   0  0  0  0  0  0  0  0  0  0  0  0
    5.3127    5.5749    5.4448 C   0  0  0  0  0  0  0  0  0  0  0  0
    3.6271   10.6360    3.0810 C   0  0  0  0  0  0  0  0  0  0  0  0
    4.7984   11.4022    3.1739 C   0  0  0  0  0  0  0  0  0  0  0  0
    5.0312   12.3798    2.2203 C   0  0  0  0  0  0  0  0  0  0  0  0
    5.9141   12.9963    2.2854 H   0  0  0  0  0  0  0  0  0  0  0  0
    4.1422   12.5778    1.1795 C   0  0  0  0  0  0  0  0  0  0  0  0
    4.3307   13.3518    0.4498 H   0  0  0  0  0  0  0  0  0  0  0  0
    3.0300   11.7675    1.0560 C   0  0  0  0  0  0  0  0  0  0  0  0
    2.3634   11.9049    0.2178 H   0  0  0  0  0  0  0  0  0  0  0  0
    2.7569   10.7827    1.9934 C   0  0  0  0  0  0  0  0  0  0  0  0
    5.7750   11.1294    4.2958 C   0  0  0  0  0  0  0  0  0  0  0  0
    5.6280   10.0732    4.6121 H   0  0  0  0  0  0  0  0  0  0  0  0
    5.4773   12.0307    5.4958 C   0  0  0  0  0  0  0  0  0  0  0  0
    5.5796   13.0764    5.2113 H   0  0  0  0  0  0  0  0  0  0  0  0
    6.1706   11.8230    6.3088 H   0  0  0  0  0  0  0  0  0  0  0  0
    4.4637   11.8708    5.8574 H   0  0  0  0  0  0  0  0  0  0  0  0
    7.2308   11.2751    3.8560 C   0  0  0  0  0  0  0  0  0  0  0  0
    7.4047   10.7140    2.9406 H   0  0  0  0  0  0  0  0  0  0  0  0
    7.8924   10.8938    4.6324 H   0  0  0  0  0  0  0  0  0  0  0  0
    7.4876   12.3175    3.6834 H   0  0  0  0  0  0  0  0  0  0  0  0
    1.5744    9.8584    1.8197 C   0  0  0  0  0  0  0  0  0  0  0  0
    1.5865    9.1238    2.6329 H   0  0  0  0  0  0  0  0  0  0  0  0
    1.7024    9.0883    0.5031 C   0  0  0  0  0  0  0  0  0  0  0  0
    0.9068    8.3501    0.4219 H   0  0  0  0  0  0  0  0  0  0  0  0
    2.6600    8.5740    0.4682 H   0  0  0  0  0  0  0  0  0  0  0  0
    1.6390    9.7581   -0.3508 H   0  0  0  0  0  0  0  0  0  0  0  0
    0.2507   10.6213    1.8835 C   0  0  0  0  0  0  0  0  0  0  0  0
    0.1480   11.1286    2.8406 H   0  0  0  0  0  0  0  0  0  0  0  0
   -0.5838    9.9325    1.7686 H   0  0  0  0  0  0  0  0  0  0  0  0
    0.1943   11.3637    1.0906 H   0  0  0  0  0  0  0  0  0  0  0  0
    4.7234    4.9744    2.6777 C   0  0  0  0  0  0  0  0  0  0  0  0
    5.0290    4.9893    1.3188 C   0  0  0  0  0  0  0  0  0  0  0  0
    5.6948    5.7488    0.9337 H   0  0  0  0  0  0  0  0  0  0  0  0
    4.4665    4.0473    0.4784 C   0  0  0  0  0  0  0  0  0  0  0  0
    4.7042    4.0576   -0.5750 H   0  0  0  0  0  0  0  0  0  0  0  0
    3.5940    3.0955    0.9836 C   0  0  0  0  0  0  0  0  0  0  0  0
    3.1544    2.3618    0.3241 H   0  0  0  0  0  0  0  0  0  0  0  0
    3.2779    3.0891    2.3324 C   0  0  0  0  0  0  0  0  0  0  0  0
    2.5916    2.3524    2.7241 H   0  0  0  0  0  0  0  0  0  0  0  0
    3.8357    4.0289    3.1804 C   0  0  0  0  0  0  0  0  0  0  0  0
    3.5853    4.0315    4.2329 H   0  0  0  0  0  0  0  0  0  0  0  0
    7.2008    6.2132    3.4419 C   0  0  0  0  0  0  0  0  0  0  0  0
    7.9304    7.3507    3.7686 C   0  0  0  0  0  0  0  0  0  0  0  0
    7.4026    8.2270    4.1261 H   0  0  0  0  0  0  0  0  0  0  0  0
    9.3035    7.3626    3.6154 C   0  0  0  0  0  0  0  0  0  0  0  0
    9.8681    8.2494    3.8623 H   0  0  0  0  0  0  0  0  0  0  0  0
    9.9529    6.2350    3.1388 C   0  0  0  0  0  0  0  0  0  0  0  0
   11.0257    6.2419    3.0142 H   0  0  0  0  0  0  0  0  0  0  0  0
    9.2284    5.0991    2.8157 C   0  0  0  0  0  0  0  0  0  0  0  0
    9.7372    4.2224    2.4418 H   0  0  0  0  0  0  0  0  0  0  0  0
    7.8532    5.0819    2.9668 C   0  0  0  0  0  0  0  0  0  0  0  0
    7.2882    4.1978    2.7052 H   0  0  0  0  0  0  0  0  0  0  0  0
  1  3  1  1  0  0  0
  1  4  1  0  0  0  0
  1  5  1  0  0  0  0
  2  1  1  0  0  0  0
  2 27  1  0  0  0  0
  4  6  1  0  0  0  0
  5 18  1  0  0  0  0
  5 16  1  0  0  0  0
  6  7  1  6  0  0  0
  6 15  1  0  0  0  0
  7  9  2  0  0  0  0
  8  7  1  0  0  0  0
  9 11  1  0  0  0  0
 10  9  1  0  0  0  0
 11 13  2  0  0  0  0
 11 12  1  0  0  0  0
 13 14  1  0  0  0  0
 15 16  2  0  0  0  0
 15 13  1  0  0  0  0
 16 17  1  0  0  0  0
 18 19  1  0  0  0  0
 19 21  2  0  0  0  0
 19 20  1  0  0  0  0
 21 22  1  0  0  0  0
 23 24  1  0  0  0  0
 23 21  1  0  0  0  0
 25 23  2  0  0  0  0
 26 25  1  0  0  0  0
 27 25  1  0  0  0  0
 27 18  2  0  0  0  0
 28 29  1  0  0  0  0
 28  4  1  0  0  0  0
 29 37  1  0  0  0  0
 30 31  1  0  0  0  0
 30 29  2  0  0  0  0
 32 30  1  0  0  0  0
 33 32  1  0  0  0  0
 34 32  2  0  0  0  0
 34 36  1  0  0  0  0
 35 34  1  0  0  0  0
 36 28  2  0  0  0  0
 37 38  1  0  0  0  0
 37 39  1  0  0  0  0
 39 42  1  0  0  0  0
 39 41  1  0  0  0  0
 40 39  1  0  0  0  0
 43 37  1  0  0  0  0
 43 45  1  0  0  0  0
 44 43  1  0  0  0  0
 46 43  1  0  0  0  0
 47 53  1  0  0  0  0
 47 36  1  0  0  0  0
 47 48  1  0  0  0  0
 49 47  1  0  0  0  0
 50 49  1  0  0  0  0
 51 49  1  0  0  0  0
 52 49  1  0  0  0  0
 53 54  1  0  0  0  0
 55 53  1  0  0  0  0
 56 53  1  0  0  0  0
 57 66  1  0  0  0  0
 57  2  1  0  0  0  0
 58 57  2  0  0  0  0
 59 58  1  0  0  0  0
 60 62  2  0  0  0  0
 60 58  1  0  0  0  0
 61 60  1  0  0  0  0
 62 64  1  0  0  0  0
 63 62  1  0  0  0  0
 64 65  1  0  0  0  0
 64 66  2  0  0  0  0
 66 67  1  0  0  0  0
 68  2  1  0  0  0  0
 68 69  1  0  0  0  0
 69 70  1  0  0  0  0
 71 69  2  0  0  0  0
 71 72  1  0  0  0  0
 73 71  1  0  0  0  0
 74 73  1  0  0  0  0
 75 77  1  0  0  0  0
 75 73  2  0  0  0  0
 76 75  1  0  0  0  0
 77 68  2  0  0  0  0
 78 77  1  0  0  0  0
M  END
$$$$
