CSD_code = CEPYAZ | q = 0 | S = 0 | Stoichiometry = C33H28ClN2NiP | MND = 4
 OpenBabel04212202023D

 66 72  0  0  1  0  0  0  0  0999 V2000
    7.8123    3.6845    2.1902 Ni  0  0  1  0  0  0  0  0  0  0  0  0
    8.9026    2.0043    2.8353 P   0  0  0  0  0  4  0  0  0  0  0  0
    8.3336    2.8323    0.3408 Cl  0  0  0  0  0  0  0  0  0  0  0  0
    6.7299    5.1317    1.5050 N   0  0  0  0  0  0  0  0  0  0  0  0
    7.4545    4.1014    4.0115 N   0  0  0  0  0  0  0  0  0  0  0  0
    5.8895    5.8855    2.1964 C   0  0  1  0  0  3  0  0  0  0  0  0
    5.1857    6.9720    1.5909 C   0  0  0  0  0  0  0  0  0  0  0  0
    5.4317    7.2290    0.5713 H   0  0  0  0  0  0  0  0  0  0  0  0
    4.2116    7.6547    2.2513 C   0  0  0  0  0  0  0  0  0  0  0  0
    3.6853    8.4552    1.7510 H   0  0  0  0  0  0  0  0  0  0  0  0
    3.8747    7.3339    3.5799 C   0  0  0  0  0  0  0  0  0  0  0  0
    3.0861    7.8732    4.0814 H   0  0  0  0  0  0  0  0  0  0  0  0
    4.5748    6.3589    4.2230 C   0  0  0  0  0  0  0  0  0  0  0  0
    4.3565    6.1265    5.2566 H   0  0  0  0  0  0  0  0  0  0  0  0
    5.6186    5.6423    3.5879 C   0  0  0  0  0  0  0  0  0  0  0  0
    6.3946    4.7865    4.3789 C   0  0  0  0  0  0  0  0  0  0  0  0
    6.0859    4.7160    5.4224 H   0  0  0  0  0  0  0  0  0  0  0  0
    8.2213    3.4693    4.9948 C   0  0  0  0  0  0  0  0  0  0  0  0
    8.2986    3.9107    6.3190 C   0  0  0  0  0  0  0  0  0  0  0  0
    7.7785    4.8043    6.6307 H   0  0  0  0  0  0  0  0  0  0  0  0
    9.0813    3.2324    7.2341 C   0  0  0  0  0  0  0  0  0  0  0  0
    9.1321    3.5905    8.2519 H   0  0  0  0  0  0  0  0  0  0  0  0
    9.8109    2.1136    6.8623 C   0  0  0  0  0  0  0  0  0  0  0  0
   10.4188    1.5955    7.5883 H   0  0  0  0  0  0  0  0  0  0  0  0
    9.7765    1.6834    5.5473 C   0  0  0  0  0  0  0  0  0  0  0  0
   10.3609    0.8312    5.2307 H   0  0  0  0  0  0  0  0  0  0  0  0
    8.9929    2.3548    4.6249 C   0  0  0  0  0  0  0  0  0  0  0  0
    6.9776    5.4708    0.1524 C   0  0  0  0  0  0  0  0  0  0  0  0
    6.0917    5.0604   -0.8502 C   0  0  0  0  0  0  0  0  0  0  0  0
    6.3658    5.4071   -2.1636 C   0  0  0  0  0  0  0  0  0  0  0  0
    5.6861    5.0954   -2.9438 H   0  0  0  0  0  0  0  0  0  0  0  0
    7.4973    6.1356   -2.4845 C   0  0  0  0  0  0  0  0  0  0  0  0
    7.6959    6.3995   -3.5128 H   0  0  0  0  0  0  0  0  0  0  0  0
    8.3862    6.5067   -1.4914 C   0  0  0  0  0  0  0  0  0  0  0  0
    9.2830    7.0539   -1.7449 H   0  0  0  0  0  0  0  0  0  0  0  0
    8.1417    6.1783   -0.1682 C   0  0  0  0  0  0  0  0  0  0  0  0
    4.8910    4.2438   -0.4849 C   0  0  0  0  0  0  0  0  0  0  0  0
    4.1553    4.8500    0.0456 H   0  0  0  0  0  0  0  0  0  0  0  0
    5.1911    3.4307    0.1785 H   0  0  0  0  0  0  0  0  0  0  0  0
    4.4247    3.8245   -1.3726 H   0  0  0  0  0  0  0  0  0  0  0  0
    9.1057    6.5286    0.9254 C   0  0  0  0  0  0  0  0  0  0  0  0
    8.7369    7.3690    1.5150 H   0  0  0  0  0  0  0  0  0  0  0  0
   10.0814    6.7836    0.5197 H   0  0  0  0  0  0  0  0  0  0  0  0
    9.2119    5.6681    1.6076 H   0  0  0  0  0  0  0  0  0  0  0  0
    8.1481    0.3631    2.7160 C   0  0  0  0  0  0  0  0  0  0  0  0
    8.2813   -0.3561    1.5304 C   0  0  0  0  0  0  0  0  0  0  0  0
    8.8456    0.0706    0.7131 H   0  0  0  0  0  0  0  0  0  0  0  0
    7.6811   -1.5949    1.4080 C   0  0  0  0  0  0  0  0  0  0  0  0
    7.7860   -2.1542    0.4901 H   0  0  0  0  0  0  0  0  0  0  0  0
    6.9422   -2.1179    2.4582 C   0  0  0  0  0  0  0  0  0  0  0  0
    6.4744   -3.0864    2.3597 H   0  0  0  0  0  0  0  0  0  0  0  0
    6.7966   -1.3967    3.6319 C   0  0  0  0  0  0  0  0  0  0  0  0
    6.2143   -1.8007    4.4474 H   0  0  0  0  0  0  0  0  0  0  0  0
    7.3925   -0.1551    3.7624 C   0  0  0  0  0  0  0  0  0  0  0  0
    7.2749    0.4127    4.6757 H   0  0  0  0  0  0  0  0  0  0  0  0
   10.6427    1.7303    2.4036 C   0  0  0  0  0  0  0  0  0  0  0  0
   11.2642    0.5005    2.5882 C   0  0  0  0  0  0  0  0  0  0  0  0
   10.6933   -0.3502    2.9344 H   0  0  0  0  0  0  0  0  0  0  0  0
   12.6129    0.3666    2.3118 C   0  0  0  0  0  0  0  0  0  0  0  0
   13.0961   -0.5897    2.4510 H   0  0  0  0  0  0  0  0  0  0  0  0
   13.3434    1.4520    1.8556 C   0  0  0  0  0  0  0  0  0  0  0  0
   14.3955    1.3396    1.6391 H   0  0  0  0  0  0  0  0  0  0  0  0
   12.7252    2.6781    1.6708 C   0  0  0  0  0  0  0  0  0  0  0  0
   13.2936    3.5221    1.3092 H   0  0  0  0  0  0  0  0  0  0  0  0
   11.3781    2.8176    1.9459 C   0  0  0  0  0  0  0  0  0  0  0  0
   10.8758    3.7647    1.7907 H   0  0  0  0  0  0  0  0  0  0  0  0
  1  3  1  6  0  0  0
  1  2  1  0  0  0  0
  1  5  1  0  0  0  0
  2 27  1  0  0  0  0
  4  1  1  0  0  0  0
  4  6  1  0  0  0  0
  5 16  1  0  0  0  0
  5 18  1  0  0  0  0
  6  7  1  6  0  0  0
  6 15  1  0  0  0  0
  7  9  2  0  0  0  0
  8  7  1  0  0  0  0
  9 11  1  0  0  0  0
 10  9  1  0  0  0  0
 11 12  1  0  0  0  0
 11 13  2  0  0  0  0
 13 14  1  0  0  0  0
 15 13  1  0  0  0  0
 15 16  2  0  0  0  0
 16 17  1  0  0  0  0
 18 19  1  0  0  0  0
 19 20  1  0  0  0  0
 19 21  2  0  0  0  0
 21 22  1  0  0  0  0
 23 21  1  0  0  0  0
 23 24  1  0  0  0  0
 25 23  2  0  0  0  0
 26 25  1  0  0  0  0
 27 18  2  0  0  0  0
 27 25  1  0  0  0  0
 28  4  1  0  0  0  0
 29 37  1  0  0  0  0
 29 28  2  0  0  0  0
 30 29  1  0  0  0  0
 31 30  1  0  0  0  0
 32 30  2  0  0  0  0
 32 34  1  0  0  0  0
 33 32  1  0  0  0  0
 34 36  2  0  0  0  0
 35 34  1  0  0  0  0
 36 28  1  0  0  0  0
 36 41  1  0  0  0  0
 37 38  1  0  0  0  0
 37 39  1  0  0  0  0
 40 37  1  0  0  0  0
 41 42  1  0  0  0  0
 41 44  1  0  0  0  0
 43 41  1  0  0  0  0
 45  2  1  0  0  0  0
 45 54  1  0  0  0  0
 46 45  2  0  0  0  0
 47 46  1  0  0  0  0
 48 46  1  0  0  0  0
 48 50  2  0  0  0  0
 49 48  1  0  0  0  0
 50 52  1  0  0  0  0
 51 50  1  0  0  0  0
 52 54  2  0  0  0  0
 52 53  1  0  0  0  0
 54 55  1  0  0  0  0
 56 57  1  0  0  0  0
 56  2  1  0  0  0  0
 57 58  1  0  0  0  0
 59 60  1  0  0  0  0
 59 57  2  0  0  0  0
 61 59  1  0  0  0  0
 62 61  1  0  0  0  0
 63 61  2  0  0  0  0
 63 65  1  0  0  0  0
 64 63  1  0  0  0  0
 65 56  2  0  0  0  0
 66 65  1  0  0  0  0
M  END
$$$$
