CSD_code = CEQCOS | q = 0 | S = 0 | Stoichiometry = C18H36ClSi2Ta | MND = 8
 OpenBabel04212202023D

 58 58  0  0  1  0  0  0  0  0999 V2000
   -0.2132   17.0240   10.6000 Ta  0  0  2  0  0  0  0  0  0  0  0  0
   -0.8927   16.2759   13.9959 Si  0  0  0  0  0  0  0  0  0  0  0  0
   -1.0748   20.3031   11.6608 Si  0  0  0  0  0  0  0  0  0  0  0  0
   -1.3340   15.2338    9.7681 Cl  0  0  0  0  0  0  0  0  0  0  0  0
    1.1992   16.8770    8.2206 C   0  0  0  0  0  0  0  0  0  0  0  0
    1.6080   17.8467    9.2298 C   0  0  2  0  0  0  0  0  0  0  0  0
    2.6214   17.1761   10.0311 C   0  0  0  0  0  0  0  0  0  0  0  0
    2.7270   15.8670    9.5901 C   0  0  0  0  0  0  0  0  0  0  0  0
    1.8573   15.6877    8.4697 C   0  0  0  0  0  0  0  0  0  0  0  0
    0.2582   17.1656    7.0918 C   0  0  0  0  0  0  0  0  0  0  0  0
   -0.4383   17.9609    7.3594 H   0  0  0  0  0  0  0  0  0  0  0  0
   -0.3148   16.2774    6.8285 H   0  0  0  0  0  0  0  0  0  0  0  0
    0.8133   17.4821    6.2059 H   0  0  0  0  0  0  0  0  0  0  0  0
    1.6697   19.3232    8.9389 C   0  0  0  0  0  0  0  0  0  0  0  0
    1.7973   19.8935    9.8553 H   0  0  0  0  0  0  0  0  0  0  0  0
    0.7574   19.6595    8.4518 H   0  0  0  0  0  0  0  0  0  0  0  0
    2.5129   19.5367    8.2790 H   0  0  0  0  0  0  0  0  0  0  0  0
    3.4713   17.8640   11.0548 C   0  0  0  0  0  0  0  0  0  0  0  0
    2.9293   18.6853   11.5206 H   0  0  0  0  0  0  0  0  0  0  0  0
    4.3664   18.2749   10.5828 H   0  0  0  0  0  0  0  0  0  0  0  0
    3.7942   17.1753   11.8341 H   0  0  0  0  0  0  0  0  0  0  0  0
    3.6001   14.7931   10.1562 C   0  0  0  0  0  0  0  0  0  0  0  0
    3.0286   13.8816   10.3341 H   0  0  0  0  0  0  0  0  0  0  0  0
    4.0472   15.1086   11.0959 H   0  0  0  0  0  0  0  0  0  0  0  0
    4.4069   14.5510    9.4626 H   0  0  0  0  0  0  0  0  0  0  0  0
    1.6465   14.4031    7.7366 C   0  0  0  0  0  0  0  0  0  0  0  0
    2.4626   13.7088    7.9211 H   0  0  0  0  0  0  0  0  0  0  0  0
    1.5741   14.5778    6.6642 H   0  0  0  0  0  0  0  0  0  0  0  0
    0.7151   13.9313    8.0620 H   0  0  0  0  0  0  0  0  0  0  0  0
    0.4849   16.4631   12.6911 C   0  0  0  0  0  0  0  0  0  0  0  0
    1.2672   17.1153   13.0834 H   0  0  0  0  0  0  0  0  0  0  0  0
    0.9513   15.4854   12.5343 H   0  0  0  0  0  0  0  0  0  0  0  0
   -2.6189   16.3591   13.1792 C   0  0  0  0  0  0  0  0  0  0  0  0
   -3.4075   16.2028   13.9093 H   0  0  0  0  0  0  0  0  0  0  0  0
   -2.7277   15.5943   12.4145 H   0  0  0  0  0  0  0  0  0  0  0  0
   -2.7848   17.3231   12.7052 H   0  0  0  0  0  0  0  0  0  0  0  0
   -0.7315   17.6577   15.3075 C   0  0  0  0  0  0  0  0  0  0  0  0
   -1.5683   17.6375   15.9982 H   0  0  0  0  0  0  0  0  0  0  0  0
   -0.7027   18.6397   14.8481 H   0  0  0  0  0  0  0  0  0  0  0  0
    0.1756   17.5402   15.8922 H   0  0  0  0  0  0  0  0  0  0  0  0
   -0.7244   14.5800   14.8728 C   0  0  0  0  0  0  0  0  0  0  0  0
   -1.4895   14.4574   15.6328 H   0  0  0  0  0  0  0  0  0  0  0  0
    0.2400   14.4762   15.3609 H   0  0  0  0  0  0  0  0  0  0  0  0
   -0.8273   13.7583   14.1704 H   0  0  0  0  0  0  0  0  0  0  0  0
   -1.2826   18.7486   10.6331 C   0  0  0  0  0  3  0  0  0  0  0  0
   -2.2179   18.8135   10.0750 H   0  0  0  0  0  0  0  0  0  0  0  0
   -2.4944   20.4956   12.9375 C   0  0  0  0  0  0  0  0  0  0  0  0
   -2.3870   21.4124   13.5096 H   0  0  0  0  0  0  0  0  0  0  0  0
   -2.5188   19.6680   13.6384 H   0  0  0  0  0  0  0  0  0  0  0  0
   -3.4587   20.5323   12.4409 H   0  0  0  0  0  0  0  0  0  0  0  0
    0.5902   20.3223   12.6072 C   0  0  0  0  0  0  0  0  0  0  0  0
    0.4987   20.8493   13.5514 H   0  0  0  0  0  0  0  0  0  0  0  0
    1.3655   20.8232   12.0368 H   0  0  0  0  0  0  0  0  0  0  0  0
    0.9253   19.3126   12.8198 H   0  0  0  0  0  0  0  0  0  0  0  0
   -1.1215   21.8651   10.5461 C   0  0  0  0  0  0  0  0  0  0  0  0
   -0.9935   22.7697   11.1327 H   0  0  0  0  0  0  0  0  0  0  0  0
   -2.0697   21.9449   10.0247 H   0  0  0  0  0  0  0  0  0  0  0  0
   -0.3367   21.8449    9.7969 H   0  0  0  0  0  0  0  0  0  0  0  0
  1  4  1  6  0  0  0
  1 45  1  0  0  0  0
  1 30  1  0  0  0  0
  2 41  1  0  0  0  0
  2 37  1  0  0  0  0
  3 51  1  0  0  0  0
  3 47  1  0  0  0  0
  5  9  2  0  0  0  0
  5  6  1  0  0  0  0
  6 14  1  6  0  0  0
  6  7  1  0  0  0  0
  6  1  1  0  0  0  0
  7 18  1  0  0  0  0
  8  7  2  0  0  0  0
  8 22  1  0  0  0  0
  9  8  1  0  0  0  0
 10 11  1  0  0  0  0
 10  5  1  0  0  0  0
 12 10  1  0  0  0  0
 13 10  1  0  0  0  0
 14 15  1  0  0  0  0
 16 14  1  0  0  0  0
 17 14  1  0  0  0  0
 18 19  1  0  0  0  0
 18 21  1  0  0  0  0
 20 18  1  0  0  0  0
 22 23  1  0  0  0  0
 22 24  1  0  0  0  0
 25 22  1  0  0  0  0
 26 27  1  0  0  0  0
 26 29  1  0  0  0  0
 26  9  1  0  0  0  0
 28 26  1  0  0  0  0
 30 31  1  0  0  0  0
 30  2  1  0  0  0  0
 32 30  1  0  0  0  0
 33 34  1  0  0  0  0
 33  2  1  0  0  0  0
 35 33  1  0  0  0  0
 36 33  1  0  0  0  0
 37 40  1  0  0  0  0
 37 38  1  0  0  0  0
 39 37  1  0  0  0  0
 41 43  1  0  0  0  0
 41 42  1  0  0  0  0
 44 41  1  0  0  0  0
 45  3  1  0  0  0  0
 46 45  1  0  0  0  0
 47 48  1  0  0  0  0
 47 49  1  0  0  0  0
 50 47  1  0  0  0  0
 51 54  1  0  0  0  0
 51 52  1  0  0  0  0
 53 51  1  0  0  0  0
 55 56  1  0  0  0  0
 55  3  1  0  0  0  0
 57 55  1  0  0  0  0
 58 55  1  0  0  0  0
M  END
$$$$
