CSD_code = CEQHIQ | q = 0 | S = 0 | Stoichiometry = C38H43I2N2ORh | MND = 5
 OpenBabel04212202023D

 87 92  0  0  0  0  0  0  0  0999 V2000
    0.3585   16.7681   11.2485 I   0  0  0  0  0  0  0  0  0  0  0  0
    3.9480   16.6860   12.4042 I   0  0  0  0  0  0  0  0  0  0  0  0
    2.7062   17.1045   10.1363 Rh  0  0  0  0  0  0  0  0  0  0  0  0
    3.0241   19.6366    9.1298 O   0  0  0  0  0  0  0  0  0  0  0  0
    1.9220   17.0955    8.2531 N   0  0  0  0  0  0  0  0  0  0  0  0
    4.4609   17.1207    9.0754 N   0  0  0  0  0  0  0  0  0  0  0  0
    2.8486   17.2247    7.3560 C   0  0  0  0  0  0  0  0  0  0  0  0
    2.8470   17.1966    5.9015 C   0  0  0  0  0  0  0  0  0  0  0  0
    1.8889   17.1129    4.9193 C   0  0  0  0  0  0  0  0  0  0  0  0
    0.8373   17.0446    5.1519 H   0  0  0  0  0  0  0  0  0  0  0  0
    2.3091   17.1029    3.5765 C   0  0  0  0  0  0  0  0  0  0  0  0
    1.5506   17.0459    2.8097 H   0  0  0  0  0  0  0  0  0  0  0  0
    3.6315   17.1566    3.2082 C   0  0  0  0  0  0  0  0  0  0  0  0
    3.9067   17.1426    2.1640 H   0  0  0  0  0  0  0  0  0  0  0  0
    4.6446   17.2139    4.1921 C   0  0  0  0  0  0  0  0  0  0  0  0
    6.0438   17.2252    3.9930 C   0  0  0  0  0  0  0  0  0  0  0  0
    6.4361   17.2147    2.9869 H   0  0  0  0  0  0  0  0  0  0  0  0
    6.8980   17.2343    5.0690 C   0  0  0  0  0  0  0  0  0  0  0  0
    7.9640   17.2308    4.8953 H   0  0  0  0  0  0  0  0  0  0  0  0
    6.4472   17.2406    6.4018 C   0  0  0  0  0  0  0  0  0  0  0  0
    7.1621   17.2232    7.2101 H   0  0  0  0  0  0  0  0  0  0  0  0
    5.0922   17.2556    6.6311 C   0  0  0  0  0  0  0  0  0  0  0  0
    4.2119   17.2392    5.5202 C   0  0  0  0  0  0  0  0  0  0  0  0
    4.2346   17.2509    7.8065 C   0  0  0  0  0  0  0  0  0  0  0  0
    0.5964   16.8271    7.8365 C   0  0  0  0  0  0  0  0  0  0  0  0
   -0.2588   17.8633    7.4471 C   0  0  0  0  0  0  0  0  0  0  0  0
   -1.5421   17.5312    7.0347 C   0  0  0  0  0  0  0  0  0  0  0  0
   -2.2221   18.3162    6.7431 H   0  0  0  0  0  0  0  0  0  0  0  0
   -1.9632   16.2172    6.9941 C   0  0  0  0  0  0  0  0  0  0  0  0
   -2.9629   15.9800    6.6633 H   0  0  0  0  0  0  0  0  0  0  0  0
   -1.1098   15.2056    7.3917 C   0  0  0  0  0  0  0  0  0  0  0  0
   -1.4504   14.1834    7.3677 H   0  0  0  0  0  0  0  0  0  0  0  0
    0.1734   15.4900    7.8301 C   0  0  0  0  0  0  0  0  0  0  0  0
    0.1586   19.3129    7.5166 C   0  0  0  0  0  0  0  0  0  0  0  0
    1.2131   19.3739    7.7952 H   0  0  0  0  0  0  0  0  0  0  0  0
    0.0047   20.0204    6.1689 C   0  0  0  0  0  0  0  0  0  0  0  0
    0.3349   21.0526    6.2601 H   0  0  0  0  0  0  0  0  0  0  0  0
   -1.0312   20.0225    5.8392 H   0  0  0  0  0  0  0  0  0  0  0  0
    0.6108   19.5355    5.4055 H   0  0  0  0  0  0  0  0  0  0  0  0
   -0.6627   20.0228    8.5974 C   0  0  0  0  0  0  0  0  0  0  0  0
   -0.2714   21.0229    8.7697 H   0  0  0  0  0  0  0  0  0  0  0  0
   -0.6255   19.4638    9.5297 H   0  0  0  0  0  0  0  0  0  0  0  0
   -1.7045   20.1055    8.2980 H   0  0  0  0  0  0  0  0  0  0  0  0
    1.1084   14.3827    8.2618 C   0  0  0  0  0  0  0  0  0  0  0  0
    1.8947   14.8163    8.9076 H   0  0  0  0  0  0  0  0  0  0  0  0
    1.7847   13.7689    7.0331 C   0  0  0  0  0  0  0  0  0  0  0  0
    2.4413   12.9542    7.3309 H   0  0  0  0  0  0  0  0  0  0  0  0
    2.3751   14.5088    6.4931 H   0  0  0  0  0  0  0  0  0  0  0  0
    1.0329   13.3730    6.3530 H   0  0  0  0  0  0  0  0  0  0  0  0
    0.4048   13.3056    9.0859 C   0  0  0  0  0  0  0  0  0  0  0  0
    1.1436   12.6395    9.5274 H   0  0  0  0  0  0  0  0  0  0  0  0
   -0.2602   12.7060    8.4700 H   0  0  0  0  0  0  0  0  0  0  0  0
   -0.1730   13.7584    9.8882 H   0  0  0  0  0  0  0  0  0  0  0  0
    5.7854   16.9095    9.5249 C   0  0  0  0  0  0  0  0  0  0  0  0
    6.6566   17.9861    9.7261 C   0  0  0  0  0  0  0  0  0  0  0  0
    7.9373   17.7123   10.1861 C   0  0  0  0  0  0  0  0  0  0  0  0
    8.6180   18.5288   10.3688 H   0  0  0  0  0  0  0  0  0  0  0  0
    8.3540   16.4166   10.4166 C   0  0  0  0  0  0  0  0  0  0  0  0
    9.3562   16.2259   10.7694 H   0  0  0  0  0  0  0  0  0  0  0  0
    7.4848   15.3636   10.2050 C   0  0  0  0  0  0  0  0  0  0  0  0
    7.8170   14.3551   10.3900 H   0  0  0  0  0  0  0  0  0  0  0  0
    6.1887   15.5889    9.7704 C   0  0  0  0  0  0  0  0  0  0  0  0
    5.2422   14.4349    9.5270 C   0  0  0  0  0  0  0  0  0  0  0  0
    4.2060   14.8151    9.5615 H   0  0  0  0  0  0  0  0  0  0  0  0
    5.4912   13.8531    8.1326 C   0  0  0  0  0  0  0  0  0  0  0  0
    4.8371   13.0020    7.9554 H   0  0  0  0  0  0  0  0  0  0  0  0
    6.5227   13.5165    8.0485 H   0  0  0  0  0  0  0  0  0  0  0  0
    5.3114   14.5945    7.3546 H   0  0  0  0  0  0  0  0  0  0  0  0
    5.3526   13.3449   10.5920 C   0  0  0  0  0  0  0  0  0  0  0  0
    4.5303   12.6403   10.4832 H   0  0  0  0  0  0  0  0  0  0  0  0
    5.3038   13.7793   11.5876 H   0  0  0  0  0  0  0  0  0  0  0  0
    6.2824   12.7902   10.4969 H   0  0  0  0  0  0  0  0  0  0  0  0
    6.2215   19.4159    9.5093 C   0  0  0  0  0  0  0  0  0  0  0  0
    5.2541   19.4285    9.0012 H   0  0  0  0  0  0  0  0  0  0  0  0
    6.0548   20.1002   10.8691 C   0  0  0  0  0  0  0  0  0  0  0  0
    5.6582   21.1045   10.7376 H   0  0  0  0  0  0  0  0  0  0  0  0
    7.0095   20.1668   11.3851 H   0  0  0  0  0  0  0  0  0  0  0  0
    5.3711   19.5343   11.4977 H   0  0  0  0  0  0  0  0  0  0  0  0
    7.2013   20.1927    8.6282 C   0  0  0  0  0  0  0  0  0  0  0  0
    6.8087   21.1897    8.4411 H   0  0  0  0  0  0  0  0  0  0  0  0
    7.3378   19.6956    7.6693 H   0  0  0  0  0  0  0  0  0  0  0  0
    8.1716   20.2965    9.1068 H   0  0  0  0  0  0  0  0  0  0  0  0
    2.6780   19.0969   10.1408 C   0  0  0  0  0  0  0  0  0  0  0  0
    2.2026   19.8123   11.3688 C   0  0  0  0  0  0  0  0  0  0  0  0
    2.4847   19.3200   12.2962 H   0  0  0  0  0  0  0  0  0  0  0  0
    1.1128   19.8573   11.3369 H   0  0  0  0  0  0  0  0  0  0  0  0
    2.5968   20.8285   11.3480 H   0  0  0  0  0  0  0  0  0  0  0  0
  3 83  1  0  0  0  0
  3  1  1  0  0  0  0
  3  2  1  0  0  0  0
  4 83  2  0  0  0  0
  5  3  1  0  0  0  0
  6 54  1  0  0  0  0
  6  3  1  0  0  0  0
  7 24  2  0  0  0  0
  7  5  1  0  0  0  0
  8  7  1  0  0  0  0
  9 10  1  0  0  0  0
  9  8  2  0  0  0  0
 11  9  1  0  0  0  0
 12 11  1  0  0  0  0
 13 11  2  0  0  0  0
 13 15  1  0  0  0  0
 14 13  1  0  0  0  0
 15 23  1  0  0  0  0
 16 15  2  0  0  0  0
 16 18  1  0  0  0  0
 17 16  1  0  0  0  0
 18 20  2  0  0  0  0
 19 18  1  0  0  0  0
 20 22  1  0  0  0  0
 20 21  1  0  0  0  0
 22 24  1  0  0  0  0
 23  8  1  0  0  0  0
 23 22  2  0  0  0  0
 24  6  1  0  0  0  0
 25  5  1  0  0  0  0
 26 34  1  0  0  0  0
 26 25  2  0  0  0  0
 27 26  1  0  0  0  0
 28 27  1  0  0  0  0
 29 27  2  0  0  0  0
 29 31  1  0  0  0  0
 30 29  1  0  0  0  0
 31 33  2  0  0  0  0
 32 31  1  0  0  0  0
 33 25  1  0  0  0  0
 33 44  1  0  0  0  0
 34 35  1  0  0  0  0
 34 40  1  0  0  0  0
 36 37  1  0  0  0  0
 36 34  1  0  0  0  0
 38 36  1  0  0  0  0
 39 36  1  0  0  0  0
 40 41  1  0  0  0  0
 40 42  1  0  0  0  0
 43 40  1  0  0  0  0
 44 45  1  0  0  0  0
 44 50  1  0  0  0  0
 46 47  1  0  0  0  0
 46 44  1  0  0  0  0
 48 46  1  0  0  0  0
 49 46  1  0  0  0  0
 50 51  1  0  0  0  0
 50 53  1  0  0  0  0
 52 50  1  0  0  0  0
 54 55  2  0  0  0  0
 54 62  1  0  0  0  0
 55 56  1  0  0  0  0
 56 57  1  0  0  0  0
 56 58  2  0  0  0  0
 58 59  1  0  0  0  0
 60 61  1  0  0  0  0
 60 58  1  0  0  0  0
 62 60  2  0  0  0  0
 63 64  1  0  0  0  0
 63 62  1  0  0  0  0
 63 69  1  0  0  0  0
 65 63  1  0  0  0  0
 66 65  1  0  0  0  0
 67 65  1  0  0  0  0
 68 65  1  0  0  0  0
 69 71  1  0  0  0  0
 70 69  1  0  0  0  0
 72 69  1  0  0  0  0
 73 55  1  0  0  0  0
 73 75  1  0  0  0  0
 74 73  1  0  0  0  0
 75 77  1  0  0  0  0
 75 78  1  0  0  0  0
 76 75  1  0  0  0  0
 79 82  1  0  0  0  0
 79 73  1  0  0  0  0
 80 79  1  0  0  0  0
 81 79  1  0  0  0  0
 83 84  1  0  0  0  0
 84 85  1  0  0  0  0
 86 84  1  0  0  0  0
 87 84  1  0  0  0  0
M  END
$$$$
