CSD_code = CEQJAK | q = 0 | S = 0 | Stoichiometry = C32H40Cl2P2Pd | MND = 4
 OpenBabel04212202023D

 77 82  0  0  1  0  0  0  0  0999 V2000
    8.8174    3.5297    4.7448 C   0  0  2  0  0  0  0  0  0  0  0  0
    8.9760    3.5297    3.6527 H   0  0  0  0  0  0  0  0  0  0  0  0
    8.6020    3.5297    7.3170 C   0  0  1  0  0  0  0  0  0  0  0  0
    8.4941    3.5297    8.4015 H   0  0  0  0  0  0  0  0  0  0  0  0
    8.0748    2.3099    5.2705 C   0  0  0  0  0  0  0  0  0  0  0  0
    7.5346    1.2467    4.5409 C   0  0  0  0  0  0  0  0  0  0  0  0
    6.9952    0.1720    5.2474 C   0  0  0  0  0  0  0  0  0  0  0  0
    6.6158   -0.6794    4.7026 H   0  0  0  0  0  0  0  0  0  0  0  0
    6.9370    0.1743    6.6283 C   0  0  0  0  0  0  0  0  0  0  0  0
    6.5071   -0.6689    7.1485 H   0  0  0  0  0  0  0  0  0  0  0  0
    7.4129    1.2602    7.3454 C   0  0  0  0  0  0  0  0  0  0  0  0
    7.3447    1.2795    8.4232 H   0  0  0  0  0  0  0  0  0  0  0  0
    7.9876    2.3139    6.6630 C   0  0  0  0  0  0  0  0  0  0  0  0
   10.1476    3.5297    5.4658 C   0  0  0  0  0  0  0  0  0  0  0  0
   11.3890    3.5297    4.8621 C   0  0  0  0  0  0  0  0  0  0  0  0
   11.4786    3.5297    3.7859 H   0  0  0  0  0  0  0  0  0  0  0  0
   12.5236    3.5297    5.6617 C   0  0  0  0  0  0  0  0  0  0  0  0
   13.4998    3.5297    5.2005 H   0  0  0  0  0  0  0  0  0  0  0  0
   12.4134    3.5297    7.0413 C   0  0  0  0  0  0  0  0  0  0  0  0
   13.3040    3.5297    7.6520 H   0  0  0  0  0  0  0  0  0  0  0  0
   11.1652    3.5297    7.6484 C   0  0  0  0  0  0  0  0  0  0  0  0
   11.0777    3.5297    8.7251 H   0  0  0  0  0  0  0  0  0  0  0  0
   10.0376    3.5297    6.8539 C   0  0  0  0  0  0  0  0  0  0  0  0
    5.9661    0.3684    2.0301 C   0  0  0  0  0  0  0  0  0  0  0  0
    6.2611   -0.6779    1.8792 H   0  0  0  0  0  0  0  0  0  0  0  0
    4.6769    0.4260    2.8411 C   0  0  0  0  0  0  0  0  0  0  0  0
    4.3762    1.4573    3.0047 H   0  0  0  0  0  0  0  0  0  0  0  0
    4.7769   -0.0513    3.8113 H   0  0  0  0  0  0  0  0  0  0  0  0
    3.8853   -0.0811    2.2906 H   0  0  0  0  0  0  0  0  0  0  0  0
    5.7497    1.0337    0.6647 C   0  0  0  0  0  0  0  0  0  0  0  0
    4.9456    0.5453    0.1167 H   0  0  0  0  0  0  0  0  0  0  0  0
    6.6568    0.9945    0.0580 H   0  0  0  0  0  0  0  0  0  0  0  0
    5.4795    2.0919    0.8108 H   0  0  0  0  0  0  0  0  0  0  0  0
    8.8721    0.2424    2.1864 C   0  0  0  0  0  0  0  0  0  0  0  0
    8.7741    0.1309    1.0992 H   0  0  0  0  0  0  0  0  0  0  0  0
    8.8893   -1.1331    2.8447 C   0  0  0  0  0  0  0  0  0  0  0  0
    9.7132   -1.7169    2.4370 H   0  0  0  0  0  0  0  0  0  0  0  0
    7.9699   -1.6874    2.6682 H   0  0  0  0  0  0  0  0  0  0  0  0
    9.0389   -1.0401    3.9188 H   0  0  0  0  0  0  0  0  0  0  0  0
   10.1664    0.9919    2.4904 C   0  0  0  0  0  0  0  0  0  0  0  0
   10.2779    1.1421    3.5646 H   0  0  0  0  0  0  0  0  0  0  0  0
   10.1679    1.9571    1.9839 H   0  0  0  0  0  0  0  0  0  0  0  0
   11.0236    0.4224    2.1351 H   0  0  0  0  0  0  0  0  0  0  0  0
    5.5340    3.5273    3.7525 Cl  0  0  0  0  0  0  0  0  0  0  0  0
    8.7846    3.5295    0.5077 Cl  0  0  0  0  0  0  0  0  0  0  0  0
    7.4314    1.3051    2.7103 P   0  0  0  0  0  4  0  0  0  0  0  0
    7.3137    3.5299    2.2649 Pd  0  0  0  0  0  0  0  0  0  0  0  0
    8.0749    4.7496    5.2706 C   0  0  0  0  0  0  0  0  0  0  0  0
    7.5347    5.8128    4.5409 C   0  0  0  0  0  0  0  0  0  0  0  0
    6.9952    6.8875    5.2474 C   0  0  0  0  0  0  0  0  0  0  0  0
    6.6158    7.7389    4.7026 H   0  0  0  0  0  0  0  0  0  0  0  0
    6.9370    6.8852    6.6283 C   0  0  0  0  0  0  0  0  0  0  0  0
    6.5071    7.7283    7.1485 H   0  0  0  0  0  0  0  0  0  0  0  0
    7.4129    5.7993    7.3454 C   0  0  0  0  0  0  0  0  0  0  0  0
    7.3447    5.7799    8.4232 H   0  0  0  0  0  0  0  0  0  0  0  0
    7.9876    4.7455    6.6630 C   0  0  0  0  0  0  0  0  0  0  0  0
    5.9661    6.6910    2.0301 C   0  0  0  0  0  0  0  0  0  0  0  0
    6.2611    7.7373    1.8792 H   0  0  0  0  0  0  0  0  0  0  0  0
    4.6768    6.6337    2.8410 C   0  0  0  0  0  0  0  0  0  0  0  0
    4.3757    5.6025    3.0044 H   0  0  0  0  0  0  0  0  0  0  0  0
    4.7768    7.1109    3.8112 H   0  0  0  0  0  0  0  0  0  0  0  0
    3.8852    7.1410    2.2904 H   0  0  0  0  0  0  0  0  0  0  0  0
    5.7497    6.0257    0.6647 C   0  0  0  0  0  0  0  0  0  0  0  0
    4.9457    6.5142    0.1166 H   0  0  0  0  0  0  0  0  0  0  0  0
    6.6568    6.0649    0.0580 H   0  0  0  0  0  0  0  0  0  0  0  0
    5.4795    4.9676    0.8108 H   0  0  0  0  0  0  0  0  0  0  0  0
    8.8722    6.8170    2.1864 C   0  0  0  0  0  0  0  0  0  0  0  0
    8.7742    6.9286    1.0992 H   0  0  0  0  0  0  0  0  0  0  0  0
    8.8893    8.1925    2.8447 C   0  0  0  0  0  0  0  0  0  0  0  0
    9.7133    8.7763    2.4371 H   0  0  0  0  0  0  0  0  0  0  0  0
    7.9699    8.7468    2.6683 H   0  0  0  0  0  0  0  0  0  0  0  0
    9.0389    8.0994    3.9189 H   0  0  0  0  0  0  0  0  0  0  0  0
   10.1665    6.0675    2.4904 C   0  0  0  0  0  0  0  0  0  0  0  0
   10.2779    5.9173    3.5646 H   0  0  0  0  0  0  0  0  0  0  0  0
   10.1679    5.1024    1.9839 H   0  0  0  0  0  0  0  0  0  0  0  0
   11.0236    6.6370    2.1352 H   0  0  0  0  0  0  0  0  0  0  0  0
    7.4314    5.7546    2.7103 P   0  0  0  0  0  4  0  0  0  0  0  0
  1  2  1  6  0  0  0
  1  5  1  0  0  0  0
  1 48  1  0  0  0  0
  1 14  1  0  0  0  0
  3  4  1  1  0  0  0
  5 13  1  0  0  0  0
  6  7  1  0  0  0  0
  6  5  2  0  0  0  0
  7  9  2  0  0  0  0
  8  7  1  0  0  0  0
  9 10  1  0  0  0  0
  9 11  1  0  0  0  0
 11 12  1  0  0  0  0
 13  3  1  0  0  0  0
 13 11  2  0  0  0  0
 14 23  1  0  0  0  0
 15 14  2  0  0  0  0
 15 17  1  0  0  0  0
 16 15  1  0  0  0  0
 17 19  2  0  0  0  0
 18 17  1  0  0  0  0
 19 21  1  0  0  0  0
 19 20  1  0  0  0  0
 21 22  1  0  0  0  0
 23  3  1  0  0  0  0
 23 21  2  0  0  0  0
 24 46  1  0  0  0  0
 24 26  1  0  0  0  0
 25 24  1  0  0  0  0
 26 27  1  0  0  0  0
 26 28  1  0  0  0  0
 29 26  1  0  0  0  0
 30 33  1  0  0  0  0
 30 24  1  0  0  0  0
 31 30  1  0  0  0  0
 32 30  1  0  0  0  0
 34 40  1  0  0  0  0
 34 46  1  0  0  0  0
 34 36  1  0  0  0  0
 35 34  1  0  0  0  0
 36 39  1  0  0  0  0
 37 36  1  0  0  0  0
 38 36  1  0  0  0  0
 40 41  1  0  0  0  0
 42 40  1  0  0  0  0
 43 40  1  0  0  0  0
 45 47  1  0  0  0  0
 46  6  1  0  0  0  0
 47 46  1  0  0  0  0
 47 77  1  0  0  0  0
 47 44  1  0  0  0  0
 48 56  1  0  0  0  0
 49 50  1  0  0  0  0
 49 48  2  0  0  0  0
 50 52  2  0  0  0  0
 51 50  1  0  0  0  0
 52 53  1  0  0  0  0
 52 54  1  0  0  0  0
 54 55  1  0  0  0  0
 56  3  1  0  0  0  0
 56 54  2  0  0  0  0
 57 77  1  0  0  0  0
 57 59  1  0  0  0  0
 58 57  1  0  0  0  0
 59 60  1  0  0  0  0
 59 61  1  0  0  0  0
 62 59  1  0  0  0  0
 63 66  1  0  0  0  0
 63 57  1  0  0  0  0
 64 63  1  0  0  0  0
 65 63  1  0  0  0  0
 67 73  1  0  0  0  0
 67 77  1  0  0  0  0
 67 69  1  0  0  0  0
 68 67  1  0  0  0  0
 69 72  1  0  0  0  0
 70 69  1  0  0  0  0
 71 69  1  0  0  0  0
 73 74  1  0  0  0  0
 75 73  1  0  0  0  0
 76 73  1  0  0  0  0
 77 49  1  0  0  0  0
M  END
$$$$
