CSD_code = CEQSAU | q = 0 | S = 0 | Stoichiometry = C42H48Cl2FeN4 | MND = 4
 OpenBabel04212202023D

 97102  0  0  1  0  0  0  0  0999 V2000
    4.4049    2.7437    4.9162 Fe  0  0  0  0  0  0  0  0  0  0  0  0
    5.0298    1.7890    3.0906 Cl  0  0  0  0  0  0  0  0  0  0  0  0
    2.8234    2.0259    5.9718 Cl  0  0  0  0  0  0  0  0  0  0  0  0
    6.8842    2.6056    6.0743 N   0  0  0  0  0  0  0  0  0  0  0  0
    2.1280    4.1822    3.3832 N   0  0  0  0  0  0  0  0  0  0  0  0
    2.4059    5.3921    5.1182 N   0  0  0  0  0  0  0  0  0  0  0  0
    7.3539    3.9139    4.4475 N   0  0  0  0  0  0  0  0  0  0  0  0
    6.3081    3.3235    5.0704 C   0  0  1  0  0  3  0  0  0  0  0  0
    8.5420    3.5753    5.0506 C   0  0  0  0  0  0  0  0  0  0  0  0
    8.2459    2.7465    6.0746 C   0  0  0  0  0  0  0  0  0  0  0  0
    7.3102    4.8893    3.4180 C   0  0  0  0  0  0  0  0  0  0  0  0
    7.5435    4.5356    2.0898 C   0  0  0  0  0  0  0  0  0  0  0  0
    7.5266    5.5444    1.1357 C   0  0  0  0  0  0  0  0  0  0  0  0
    7.3060    6.8701    1.4764 C   0  0  0  0  0  0  0  0  0  0  0  0
    7.1252    7.1959    2.8137 C   0  0  0  0  0  0  0  0  0  0  0  0
    7.1335    6.2201    3.7972 C   0  0  0  0  0  0  0  0  0  0  0  0
    7.8069    3.1172    1.7114 C   0  0  0  0  0  0  0  0  0  0  0  0
    7.2575    7.9345    0.4226 C   0  0  0  0  0  0  0  0  0  0  0  0
    6.9978    6.5655    5.2490 C   0  0  0  0  0  0  0  0  0  0  0  0
    6.1457    1.7979    6.9825 C   0  0  0  0  0  0  0  0  0  0  0  0
    6.0989    0.4149    6.7917 C   0  0  0  0  0  0  0  0  0  0  0  0
    5.3785   -0.3463    7.7019 C   0  0  0  0  0  0  0  0  0  0  0  0
    4.7207    0.2342    8.7754 C   0  0  0  0  0  0  0  0  0  0  0  0
    4.7905    1.6121    8.9425 C   0  0  0  0  0  0  0  0  0  0  0  0
    5.4936    2.4104    8.0573 C   0  0  0  0  0  0  0  0  0  0  0  0
    6.7848   -0.2105    5.6169 C   0  0  0  0  0  0  0  0  0  0  0  0
    3.9194   -0.5964    9.7300 C   0  0  0  0  0  0  0  0  0  0  0  0
    5.5431    3.9011    8.2094 C   0  0  0  0  0  0  0  0  0  0  0  0
    3.0178    4.4370    4.3727 C   0  0  1  0  0  3  0  0  0  0  0  0
    1.0010    4.9522    3.5053 C   0  0  0  0  0  0  0  0  0  0  0  0
    1.1763    5.7203    4.6010 C   0  0  0  0  0  0  0  0  0  0  0  0
    2.3242    3.3074    2.2823 C   0  0  0  0  0  0  0  0  0  0  0  0
    1.5583    2.1487    2.1669 C   0  0  0  0  0  0  0  0  0  0  0  0
    1.7614    1.3343    1.0620 C   0  0  0  0  0  0  0  0  0  0  0  0
    2.6919    1.6520    0.0855 C   0  0  0  0  0  0  0  0  0  0  0  0
    3.4264    2.8218    0.2180 C   0  0  0  0  0  0  0  0  0  0  0  0
    3.2582    3.6593    1.3065 C   0  0  0  0  0  0  0  0  0  0  0  0
    0.5459    1.7826    3.2098 C   0  0  0  0  0  0  0  0  0  0  0  0
    2.9270    0.7372   -1.0777 C   0  0  0  0  0  0  0  0  0  0  0  0
    4.0706    4.9074    1.4585 C   0  0  0  0  0  0  0  0  0  0  0  0
    2.9674    6.1479    6.1794 C   0  0  0  0  0  0  0  0  0  0  0  0
    3.7314    7.2682    5.8447 C   0  0  0  0  0  0  0  0  0  0  0  0
    4.2540    8.0472    6.8643 C   0  0  0  0  0  0  0  0  0  0  0  0
    4.0216    7.7420    8.1983 C   0  0  0  0  0  0  0  0  0  0  0  0
    3.2197    6.6527    8.5007 C   0  0  0  0  0  0  0  0  0  0  0  0
    2.6699    5.8511    7.5089 C   0  0  0  0  0  0  0  0  0  0  0  0
    3.9355    7.6290    4.4052 C   0  0  0  0  0  0  0  0  0  0  0  0
    4.6257    8.5785    9.2848 C   0  0  0  0  0  0  0  0  0  0  0  0
    1.7520    4.7243    7.8571 C   0  0  0  0  0  0  0  0  0  0  0  0
    5.0580    4.2107    9.1302 H   0  0  0  0  0  0  0  0  0  0  0  0
    9.4808    3.9561    4.7030 H   0  0  0  0  0  0  0  0  0  0  0  0
    8.8724    2.2603    6.7947 H   0  0  0  0  0  0  0  0  0  0  0  0
    6.9351    2.5065    1.9538 H   0  0  0  0  0  0  0  0  0  0  0  0
    6.6224   -1.2847    5.6055 H   0  0  0  0  0  0  0  0  0  0  0  0
    7.6980    5.2854    0.1006 H   0  0  0  0  0  0  0  0  0  0  0  0
    1.7098    4.5798    8.9332 H   0  0  0  0  0  0  0  0  0  0  0  0
    6.9881    8.2302    3.0945 H   0  0  0  0  0  0  0  0  0  0  0  0
    8.6533    2.7185    2.2691 H   0  0  0  0  0  0  0  0  0  0  0  0
    8.0167    3.0339    0.6489 H   0  0  0  0  0  0  0  0  0  0  0  0
    7.6377    8.8789    0.8053 H   0  0  0  0  0  0  0  0  0  0  0  0
    6.2263    8.0912    0.1044 H   0  0  0  0  0  0  0  0  0  0  0  0
    7.8393    7.6464   -0.4495 H   0  0  0  0  0  0  0  0  0  0  0  0
    7.8972    6.2720    5.7915 H   0  0  0  0  0  0  0  0  0  0  0  0
    6.1543    6.0368    5.6903 H   0  0  0  0  0  0  0  0  0  0  0  0
    6.8518    7.6328    5.3803 H   0  0  0  0  0  0  0  0  0  0  0  0
    5.3206   -1.4159    7.5581 H   0  0  0  0  0  0  0  0  0  0  0  0
    4.2714    2.0724    9.7708 H   0  0  0  0  0  0  0  0  0  0  0  0
    7.8574   -0.0192    5.6423 H   0  0  0  0  0  0  0  0  0  0  0  0
    6.3964    0.2108    4.6863 H   0  0  0  0  0  0  0  0  0  0  0  0
    4.1280   -0.3097   10.7591 H   0  0  0  0  0  0  0  0  0  0  0  0
    4.1373   -1.6539    9.6068 H   0  0  0  0  0  0  0  0  0  0  0  0
    2.8563   -0.4414    9.5470 H   0  0  0  0  0  0  0  0  0  0  0  0
    5.0250    4.3706    7.3701 H   0  0  0  0  0  0  0  0  0  0  0  0
    6.5721    4.2593    8.2140 H   0  0  0  0  0  0  0  0  0  0  0  0
    0.1925    4.8985    2.8054 H   0  0  0  0  0  0  0  0  0  0  0  0
    0.5509    6.4644    5.0511 H   0  0  0  0  0  0  0  0  0  0  0  0
    1.1861    0.4235    0.9716 H   0  0  0  0  0  0  0  0  0  0  0  0
    4.1589    3.0777   -0.5336 H   0  0  0  0  0  0  0  0  0  0  0  0
   -0.3342    2.4227    3.1391 H   0  0  0  0  0  0  0  0  0  0  0  0
    0.9647    1.8979    4.2082 H   0  0  0  0  0  0  0  0  0  0  0  0
    0.2273    0.7512    3.0826 H   0  0  0  0  0  0  0  0  0  0  0  0
    3.7825    0.0955   -0.8671 H   0  0  0  0  0  0  0  0  0  0  0  0
    3.1465    1.3048   -1.9796 H   0  0  0  0  0  0  0  0  0  0  0  0
    2.0621    0.1032   -1.2586 H   0  0  0  0  0  0  0  0  0  0  0  0
    4.6914    5.0704    0.5826 H   0  0  0  0  0  0  0  0  0  0  0  0
    4.7175    4.8079    2.3298 H   0  0  0  0  0  0  0  0  0  0  0  0
    3.4282    5.7758    1.6045 H   0  0  0  0  0  0  0  0  0  0  0  0
    4.8430    8.9185    6.6159 H   0  0  0  0  0  0  0  0  0  0  0  0
    3.0015    6.4270    9.5350 H   0  0  0  0  0  0  0  0  0  0  0  0
    2.9751    7.8249    3.9273 H   0  0  0  0  0  0  0  0  0  0  0  0
    4.4140    6.8120    3.8685 H   0  0  0  0  0  0  0  0  0  0  0  0
    4.5505    8.5195    4.3148 H   0  0  0  0  0  0  0  0  0  0  0  0
    4.0612    8.4847   10.2091 H   0  0  0  0  0  0  0  0  0  0  0  0
    4.6574    9.6265    8.9950 H   0  0  0  0  0  0  0  0  0  0  0  0
    5.6487    8.2530    9.4774 H   0  0  0  0  0  0  0  0  0  0  0  0
    2.0790    3.7992    7.3860 H   0  0  0  0  0  0  0  0  0  0  0  0
    0.7445    4.9342    7.4974 H   0  0  0  0  0  0  0  0  0  0  0  0
  1  3  1  0  0  0  0
  2  1  1  0  0  0  0
  4 10  1  0  0  0  0
  4 20  1  0  0  0  0
  5 30  1  0  0  0  0
  5 29  1  0  0  0  0
  6 41  1  0  0  0  0
  7  9  1  0  0  0  0
  7  8  1  0  0  0  0
  8  1  1  6  0  0  0
  8  4  1  0  0  0  0
  9 10  2  0  0  0  0
 10 52  1  0  0  0  0
 11 16  1  0  0  0  0
 11  7  1  0  0  0  0
 12 11  2  0  0  0  0
 13 14  2  0  0  0  0
 13 12  1  0  0  0  0
 14 15  1  0  0  0  0
 15 57  1  0  0  0  0
 15 16  2  0  0  0  0
 16 19  1  0  0  0  0
 17 53  1  0  0  0  0
 17 12  1  0  0  0  0
 17 58  1  0  0  0  0
 18 60  1  0  0  0  0
 18 14  1  0  0  0  0
 19 65  1  0  0  0  0
 19 64  1  0  0  0  0
 19 63  1  0  0  0  0
 20 25  1  0  0  0  0
 21 20  2  0  0  0  0
 21 22  1  0  0  0  0
 22 23  2  0  0  0  0
 23 24  1  0  0  0  0
 23 27  1  0  0  0  0
 24 67  1  0  0  0  0
 25 28  1  0  0  0  0
 25 24  2  0  0  0  0
 26 68  1  0  0  0  0
 26 21  1  0  0  0  0
 27 70  1  0  0  0  0
 28 74  1  0  0  0  0
 28 50  1  0  0  0  0
 29  1  1  1  0  0  0
 29  6  1  0  0  0  0
 30 31  2  0  0  0  0
 31 76  1  0  0  0  0
 31  6  1  0  0  0  0
 32  5  1  0  0  0  0
 33 32  1  0  0  0  0
 33 38  1  0  0  0  0
 34 33  2  0  0  0  0
 35 36  2  0  0  0  0
 35 34  1  0  0  0  0
 36 37  1  0  0  0  0
 37 40  1  0  0  0  0
 37 32  2  0  0  0  0
 38 80  1  0  0  0  0
 39 82  1  0  0  0  0
 39 35  1  0  0  0  0
 40 87  1  0  0  0  0
 40 86  1  0  0  0  0
 41 46  1  0  0  0  0
 42 41  2  0  0  0  0
 42 43  1  0  0  0  0
 43 44  2  0  0  0  0
 44 45  1  0  0  0  0
 44 48  1  0  0  0  0
 45 89  1  0  0  0  0
 46 49  1  0  0  0  0
 46 45  2  0  0  0  0
 47 42  1  0  0  0  0
 48 95  1  0  0  0  0
 48 93  1  0  0  0  0
 49 56  1  0  0  0  0
 51  9  1  0  0  0  0
 54 26  1  0  0  0  0
 55 13  1  0  0  0  0
 59 17  1  0  0  0  0
 61 18  1  0  0  0  0
 62 18  1  0  0  0  0
 66 22  1  0  0  0  0
 69 26  1  0  0  0  0
 71 27  1  0  0  0  0
 72 27  1  0  0  0  0
 73 28  1  0  0  0  0
 75 30  1  0  0  0  0
 77 34  1  0  0  0  0
 78 36  1  0  0  0  0
 79 38  1  0  0  0  0
 81 38  1  0  0  0  0
 83 39  1  0  0  0  0
 84 39  1  0  0  0  0
 85 40  1  0  0  0  0
 88 43  1  0  0  0  0
 90 47  1  0  0  0  0
 91 47  1  0  0  0  0
 92 47  1  0  0  0  0
 94 48  1  0  0  0  0
 96 49  1  0  0  0  0
 97 49  1  0  0  0  0
M  END
$$$$
