CSD_code = CEQZOP | q = 0 | S = 0 | Stoichiometry = C47H38ClF3IrN3P2 | MND = 6
 OpenBabel04212202023D

 95104  0  0  0  0  0  0  0  0999 V2000
    9.4351    4.6194    2.9297 Ir  0  0  0  0  0  0  0  0  0  0  0  0
    7.6935    3.6441    1.6970 Cl  0  0  0  0  0  0  0  0  0  0  0  0
   11.1679    5.3949    4.2364 P   0  0  0  0  0  4  0  0  0  0  0  0
    7.5975    5.6737    3.8476 P   0  0  0  0  0  4  0  0  0  0  0  0
   10.8080    3.5603    1.7377 N   0  0  0  0  0  0  0  0  0  0  0  0
    9.7451    5.9711    1.3659 N   0  0  0  0  0  0  0  0  0  0  0  0
    9.3716    7.1937    1.0989 N   0  0  0  0  0  0  0  0  0  0  0  0
   11.2390    2.3198    1.9341 C   0  0  0  0  0  3  0  0  0  0  0  0
   10.8696    1.8202    2.8190 H   0  0  0  0  0  0  0  0  0  0  0  0
   12.1086    1.6838    1.0708 C   0  0  0  0  0  0  0  0  0  0  0  0
   12.4311    0.6765    1.2769 H   0  0  0  0  0  0  0  0  0  0  0  0
   12.5505    2.3664   -0.0562 C   0  0  0  0  0  0  0  0  0  0  0  0
   13.2346    1.9002   -0.7491 H   0  0  0  0  0  0  0  0  0  0  0  0
   12.0891    3.6450   -0.2800 C   0  0  0  0  0  0  0  0  0  0  0  0
   12.3887    4.2067   -1.1499 H   0  0  0  0  0  0  0  0  0  0  0  0
   11.2055    4.2245    0.6333 C   0  0  0  0  0  0  0  0  0  0  0  0
   10.6641    5.5449    0.4684 C   0  0  0  0  0  0  0  0  0  0  0  0
   10.8886    6.5788   -0.4470 C   0  0  0  0  0  0  0  0  0  0  0  0
   11.5436    6.6042   -1.2928 H   0  0  0  0  0  0  0  0  0  0  0  0
   10.0449    7.5896    0.0040 C   0  0  0  0  0  0  0  0  0  0  0  0
    9.8998    8.9658   -0.5201 C   0  0  0  0  0  0  0  0  0  0  0  0
    9.3421    3.2314    4.4690 C   0  0  0  0  0  0  0  0  0  0  0  0
    8.6872    2.0087    4.3427 C   0  0  0  0  0  0  0  0  0  0  0  0
    8.1867    1.7646    3.4177 H   0  0  0  0  0  0  0  0  0  0  0  0
    8.6398    1.0915    5.3797 C   0  0  0  0  0  0  0  0  0  0  0  0
    8.1155    0.1568    5.2430 H   0  0  0  0  0  0  0  0  0  0  0  0
    9.2591    1.3708    6.5833 C   0  0  0  0  0  0  0  0  0  0  0  0
    9.2267    0.6613    7.3972 H   0  0  0  0  0  0  0  0  0  0  0  0
    9.9269    2.5720    6.7349 C   0  0  0  0  0  0  0  0  0  0  0  0
   10.4217    2.8001    7.6705 H   0  0  0  0  0  0  0  0  0  0  0  0
    9.9686    3.4942    5.6977 C   0  0  0  0  0  0  0  0  0  0  0  0
   10.6959    4.8019    5.9031 C   0  0  0  0  0  0  0  0  0  0  0  0
   11.5587    4.6905    6.5670 H   0  0  0  0  0  0  0  0  0  0  0  0
   10.0187    5.5554    6.3261 H   0  0  0  0  0  0  0  0  0  0  0  0
   12.7191    4.5077    3.8704 C   0  0  0  0  0  0  0  0  0  0  0  0
   12.9650    3.2471    4.4070 C   0  0  0  0  0  0  0  0  0  0  0  0
   12.2754    2.8175    5.1183 H   0  0  0  0  0  0  0  0  0  0  0  0
   14.0855    2.5338    4.0212 C   0  0  0  0  0  0  0  0  0  0  0  0
   14.2709    1.5590    4.4480 H   0  0  0  0  0  0  0  0  0  0  0  0
   14.9611    3.0592    3.0861 C   0  0  0  0  0  0  0  0  0  0  0  0
   15.8309    2.4967    2.7814 H   0  0  0  0  0  0  0  0  0  0  0  0
   14.7164    4.3085    2.5404 C   0  0  0  0  0  0  0  0  0  0  0  0
   15.3945    4.7222    1.8086 H   0  0  0  0  0  0  0  0  0  0  0  0
   13.6019    5.0286    2.9276 C   0  0  0  0  0  0  0  0  0  0  0  0
   13.4173    6.0035    2.4993 H   0  0  0  0  0  0  0  0  0  0  0  0
   11.7812    7.0961    4.4535 C   0  0  0  0  0  0  0  0  0  0  0  0
   12.1345    7.6000    5.6998 C   0  0  0  0  0  0  0  0  0  0  0  0
   12.0361    6.9896    6.5846 H   0  0  0  0  0  0  0  0  0  0  0  0
   12.6156    8.8925    5.8127 C   0  0  0  0  0  0  0  0  0  0  0  0
   12.8872    9.2780    6.7846 H   0  0  0  0  0  0  0  0  0  0  0  0
   12.7476    9.6916    4.6894 C   0  0  0  0  0  0  0  0  0  0  0  0
   13.1199   10.7007    4.7849 H   0  0  0  0  0  0  0  0  0  0  0  0
   12.3946    9.1972    3.4441 C   0  0  0  0  0  0  0  0  0  0  0  0
   12.4810    9.8170    2.5641 H   0  0  0  0  0  0  0  0  0  0  0  0
   11.9141    7.9066    3.3290 C   0  0  0  0  0  0  0  0  0  0  0  0
   11.6202    7.5320    2.3603 H   0  0  0  0  0  0  0  0  0  0  0  0
    5.9719    8.8759    3.0264 C   0  0  0  0  0  0  0  0  0  0  0  0
    6.8171    9.1413    2.4088 H   0  0  0  0  0  0  0  0  0  0  0  0
    5.2186    9.8656    3.6306 C   0  0  0  0  0  0  0  0  0  0  0  0
    5.4813   10.9030    3.4855 H   0  0  0  0  0  0  0  0  0  0  0  0
    4.1318    9.5291    4.4195 C   0  0  0  0  0  0  0  0  0  0  0  0
    3.5451   10.3016    4.8945 H   0  0  0  0  0  0  0  0  0  0  0  0
    3.7968    8.1971    4.5914 C   0  0  0  0  0  0  0  0  0  0  0  0
    2.9449    7.9275    5.1991 H   0  0  0  0  0  0  0  0  0  0  0  0
    4.5511    7.2066    3.9886 C   0  0  0  0  0  0  0  0  0  0  0  0
    4.2848    6.1686    4.1285 H   0  0  0  0  0  0  0  0  0  0  0  0
    5.6504    7.5349    3.2039 C   0  0  0  0  0  0  0  0  0  0  0  0
    6.5059    6.4741    2.5878 C   0  0  0  0  0  0  0  0  0  0  0  0
    7.1896    6.9089    1.8523 H   0  0  0  0  0  0  0  0  0  0  0  0
    5.9220    5.6930    2.0989 H   0  0  0  0  0  0  0  0  0  0  0  0
    7.8781    7.1357    4.9026 C   0  0  0  0  0  0  0  0  0  0  0  0
    8.7794    8.0609    4.3859 C   0  0  0  0  0  0  0  0  0  0  0  0
    9.2660    7.8435    3.4456 H   0  0  0  0  0  0  0  0  0  0  0  0
    9.0094    9.2569    5.0381 C   0  0  0  0  0  0  0  0  0  0  0  0
    9.7084    9.9697    4.6265 H   0  0  0  0  0  0  0  0  0  0  0  0
    8.3329    9.5403    6.2131 C   0  0  0  0  0  0  0  0  0  0  0  0
    8.5095   10.4727    6.7287 H   0  0  0  0  0  0  0  0  0  0  0  0
    7.4115    8.6364    6.7147 C   0  0  0  0  0  0  0  0  0  0  0  0
    6.8625    8.8690    7.6155 H   0  0  0  0  0  0  0  0  0  0  0  0
    7.1753    7.4392    6.0613 C   0  0  0  0  0  0  0  0  0  0  0  0
    6.4313    6.7572    6.4449 H   0  0  0  0  0  0  0  0  0  0  0  0
    6.5629    4.5479    4.8298 C   0  0  0  0  0  0  0  0  0  0  0  0
    5.5391    3.8104    4.2455 C   0  0  0  0  0  0  0  0  0  0  0  0
    5.2959    3.9509    3.2037 H   0  0  0  0  0  0  0  0  0  0  0  0
    4.8516    2.8650    4.9855 C   0  0  0  0  0  0  0  0  0  0  0  0
    4.0582    2.2972    4.5220 H   0  0  0  0  0  0  0  0  0  0  0  0
    5.1861    2.6347    6.3088 C   0  0  0  0  0  0  0  0  0  0  0  0
    4.6518    1.8916    6.8820 H   0  0  0  0  0  0  0  0  0  0  0  0
    6.2199    3.3493    6.8912 C   0  0  0  0  0  0  0  0  0  0  0  0
    6.4982    3.1612    7.9177 H   0  0  0  0  0  0  0  0  0  0  0  0
    6.9086    4.2940    6.1553 C   0  0  0  0  0  0  0  0  0  0  0  0
    7.7296    4.8308    6.6069 H   0  0  0  0  0  0  0  0  0  0  0  0
   10.7528    9.8353    0.0848 F   0  0  0  0  0  0  0  0  0  0  0  0
   10.1773    9.0530   -1.8338 F   0  0  0  0  0  0  0  0  0  0  0  0
    8.6758    9.4829   -0.3471 F   0  0  0  0  0  0  0  0  0  0  0  0
  1  4  1  0  0  0  0
  1  3  1  0  0  0  0
  1 22  1  0  0  0  0
  2  1  1  0  0  0  0
  3 46  1  0  0  0  0
  3 32  1  0  0  0  0
  4 82  1  0  0  0  0
  4 71  1  0  0  0  0
  5  8  1  0  0  0  0
  5  1  1  0  0  0  0
  6  1  1  0  0  0  0
  7  6  1  0  0  0  0
  8  9  1  0  0  0  0
 10 11  1  0  0  0  0
 10  8  1  0  0  0  0
 12 10  2  0  0  0  0
 13 12  1  0  0  0  0
 14 12  1  0  0  0  0
 14 16  2  0  0  0  0
 15 14  1  0  0  0  0
 16  5  1  0  0  0  0
 17 16  1  0  0  0  0
 17  6  1  0  0  0  0
 18 20  1  0  0  0  0
 18 17  2  0  0  0  0
 19 18  1  0  0  0  0
 20  7  2  0  0  0  0
 21 95  1  0  0  0  0
 21 20  1  0  0  0  0
 21 93  1  0  0  0  0
 22 31  1  0  0  0  0
 23 22  2  0  0  0  0
 23 25  1  0  0  0  0
 24 23  1  0  0  0  0
 25 27  2  0  0  0  0
 26 25  1  0  0  0  0
 27 29  1  0  0  0  0
 27 28  1  0  0  0  0
 29 30  1  0  0  0  0
 31 32  1  0  0  0  0
 31 29  2  0  0  0  0
 32 34  1  0  0  0  0
 32 33  1  0  0  0  0
 35  3  1  0  0  0  0
 35 36  1  0  0  0  0
 36 37  1  0  0  0  0
 38 36  2  0  0  0  0
 38 39  1  0  0  0  0
 40 38  1  0  0  0  0
 41 40  1  0  0  0  0
 42 44  1  0  0  0  0
 42 40  2  0  0  0  0
 43 42  1  0  0  0  0
 44 35  2  0  0  0  0
 45 44  1  0  0  0  0
 46 47  1  0  0  0  0
 47 49  2  0  0  0  0
 47 48  1  0  0  0  0
 49 50  1  0  0  0  0
 51 52  1  0  0  0  0
 51 49  1  0  0  0  0
 53 51  2  0  0  0  0
 54 53  1  0  0  0  0
 55 53  1  0  0  0  0
 55 46  2  0  0  0  0
 56 55  1  0  0  0  0
 57 67  2  0  0  0  0
 57 59  1  0  0  0  0
 58 57  1  0  0  0  0
 59 61  2  0  0  0  0
 60 59  1  0  0  0  0
 61 63  1  0  0  0  0
 61 62  1  0  0  0  0
 63 64  1  0  0  0  0
 65 66  1  0  0  0  0
 65 63  2  0  0  0  0
 67 65  1  0  0  0  0
 68 67  1  0  0  0  0
 68  4  1  0  0  0  0
 69 68  1  0  0  0  0
 70 68  1  0  0  0  0
 71 80  1  0  0  0  0
 72 71  2  0  0  0  0
 72 74  1  0  0  0  0
 73 72  1  0  0  0  0
 74 76  2  0  0  0  0
 75 74  1  0  0  0  0
 76 78  1  0  0  0  0
 76 77  1  0  0  0  0
 78 79  1  0  0  0  0
 80 81  1  0  0  0  0
 80 78  2  0  0  0  0
 82 91  1  0  0  0  0
 83 82  2  0  0  0  0
 83 85  1  0  0  0  0
 84 83  1  0  0  0  0
 85 87  2  0  0  0  0
 86 85  1  0  0  0  0
 87 88  1  0  0  0  0
 87 89  1  0  0  0  0
 89 90  1  0  0  0  0
 91 92  1  0  0  0  0
 91 89  2  0  0  0  0
 94 21  1  0  0  0  0
M  END
$$$$
