CSD_code = CERCOS | q = 0 | S = 0 | Stoichiometry = C18H15Cl3Ti | MND = 8
 OpenBabel04212202023D

 37 39  0  0  1  0  0  0  0  0999 V2000
    4.3016   18.4718   14.8711 Ti  0  0  0  0  0  0  0  0  0  0  0  0
    4.9332   16.5871   15.6917 Cl  0  0  0  0  0  0  0  0  0  0  0  0
    5.7132   18.6012   13.2549 Cl  0  0  0  0  0  0  0  0  0  0  0  0
    5.3590   19.7978   16.2064 Cl  0  0  0  0  0  0  0  0  0  0  0  0
    2.5758   18.9989   13.5102 C   0  0  1  0  0  0  0  0  0  0  0  0
    2.3036   17.7235   14.1042 C   0  0  2  0  0  3  0  0  0  0  0  0
    2.1382   17.9263   15.5020 C   0  0  0  0  0  0  0  0  0  0  0  0
    1.8609   17.1591   16.2160 H   0  0  0  0  0  0  0  0  0  0  0  0
    2.3088   19.2985   15.7881 C   0  0  0  0  0  0  0  0  0  0  0  0
    2.5911   19.9584   14.5667 C   0  0  0  0  0  3  0  0  0  0  0  0
    2.6452   21.0334   14.4387 H   0  0  0  0  0  0  0  0  0  0  0  0
    2.6696   19.3246   12.0835 C   0  0  0  0  0  0  0  0  0  0  0  0
    1.9121   18.6339   11.1378 C   0  0  0  0  0  0  0  0  0  0  0  0
    1.2513   17.8420   11.4587 H   0  0  0  0  0  0  0  0  0  0  0  0
    1.9959   18.9651    9.7981 C   0  0  0  0  0  0  0  0  0  0  0  0
    1.4061   18.4206    9.0757 H   0  0  0  0  0  0  0  0  0  0  0  0
    2.8289   19.9900    9.3825 C   0  0  0  0  0  0  0  0  0  0  0  0
    2.8961   20.2433    8.3352 H   0  0  0  0  0  0  0  0  0  0  0  0
    3.5758   20.6908   10.3161 C   0  0  0  0  0  0  0  0  0  0  0  0
    4.2265   21.4908    9.9958 H   0  0  0  0  0  0  0  0  0  0  0  0
    3.4968   20.3661   11.6567 C   0  0  0  0  0  0  0  0  0  0  0  0
    4.0990   20.9023   12.3819 H   0  0  0  0  0  0  0  0  0  0  0  0
    2.2474   16.4136   13.4421 C   0  0  0  0  0  0  0  0  0  0  0  0
    1.2234   15.5158   13.7392 C   0  0  0  0  0  0  0  0  0  0  0  0
    0.4491   15.8045   14.4357 H   0  0  0  0  0  0  0  0  0  0  0  0
    1.1884   14.2715   13.1360 C   0  0  0  0  0  0  0  0  0  0  0  0
    0.3892   13.5842   13.3713 H   0  0  0  0  0  0  0  0  0  0  0  0
    2.1751   13.9065   12.2362 C   0  0  0  0  0  0  0  0  0  0  0  0
    2.1489   12.9329   11.7702 H   0  0  0  0  0  0  0  0  0  0  0  0
    3.2000   14.7917   11.9391 C   0  0  0  0  0  0  0  0  0  0  0  0
    3.9754   14.5058   11.2442 H   0  0  0  0  0  0  0  0  0  0  0  0
    3.2409   16.0378   12.5353 C   0  0  0  0  0  0  0  0  0  0  0  0
    4.0505   16.7254   12.3114 H   0  0  0  0  0  0  0  0  0  0  0  0
    2.1246   19.9530   17.1218 C   0  0  0  0  0  0  0  0  0  0  0  0
    2.8461   20.7582   17.2578 H   0  0  0  0  0  0  0  0  0  0  0  0
    2.2504   19.2279   17.9248 H   0  0  0  0  0  0  0  0  0  0  0  0
    1.1206   20.3770   17.1921 H   0  0  0  0  0  0  0  0  0  0  0  0
  1  2  1  0  0  0  0
  1  4  1  0  0  0  0
  3  1  1  0  0  0  0
  5  6  1  0  0  0  0
  5 10  1  0  0  0  0
  5  1  1  1  0  0  0
  6 23  1  1  0  0  0
  6  7  1  0  0  0  0
  7  9  2  0  0  0  0
  7  8  1  0  0  0  0
  9 34  1  0  0  0  0
 10  9  1  0  0  0  0
 11 10  1  0  0  0  0
 12  5  1  0  0  0  0
 13 14  1  0  0  0  0
 13 12  2  0  0  0  0
 15 13  1  0  0  0  0
 16 15  1  0  0  0  0
 17 15  2  0  0  0  0
 17 19  1  0  0  0  0
 18 17  1  0  0  0  0
 19 21  2  0  0  0  0
 20 19  1  0  0  0  0
 21 12  1  0  0  0  0
 21 22  1  0  0  0  0
 23 24  1  0  0  0  0
 24 25  1  0  0  0  0
 26 27  1  0  0  0  0
 26 24  2  0  0  0  0
 28 26  1  0  0  0  0
 29 28  1  0  0  0  0
 30 28  2  0  0  0  0
 30 32  1  0  0  0  0
 31 30  1  0  0  0  0
 32 23  2  0  0  0  0
 33 32  1  0  0  0  0
 34 37  1  0  0  0  0
 34 35  1  0  0  0  0
 34 36  1  0  0  0  0
M  END
$$$$
