CSD_code = CERGUC | q = 1 | S = 0 | Stoichiometry = C9H10AuCl2N4O(1+) | MND = 4
 OpenBabel04212202023D

 27 29  0  0  1  0  0  0  0  0999 V2000
   -0.8826    8.1025    5.0319 Au  0  0  0  0  0  0  0  0  0  0  0  0
   -1.7549    6.8342    6.6421 Cl  0  0  0  0  0  0  0  0  0  0  0  0
    0.8933    6.7639    5.1603 Cl  0  0  0  0  0  0  0  0  0  0  0  0
   -0.0190    9.2406    3.5563 N   0  0  0  0  0  0  0  0  0  0  0  0
    0.3813   10.8439    2.1074 N   0  0  0  0  0  0  0  0  0  0  0  0
   -2.5449    9.3071    4.9686 N   0  0  0  0  0  0  0  0  0  0  0  0
   -3.9252   10.9550    4.5115 N   0  0  0  0  0  0  0  0  0  0  0  0
   -2.0651   12.0812    2.7297 O   0  0  0  0  0  0  0  0  0  0  0  0
   -0.5044   10.3697    3.0173 C   0  0  1  0  0  3  0  0  0  0  0  0
    1.4302    9.9978    2.0764 C   0  0  0  0  0  0  0  0  0  0  0  0
    2.2763   10.1417    1.4348 H   0  0  0  0  0  0  0  0  0  0  0  0
    1.1769    8.9994    2.9824 C   0  0  0  0  0  0  0  0  0  0  0  0
    1.7668    8.1464    3.2532 H   0  0  0  0  0  0  0  0  0  0  0  0
    0.2616   12.0276    1.3035 C   0  0  0  0  0  0  0  0  0  0  0  0
    1.1479   12.1240    0.6802 H   0  0  0  0  0  0  0  0  0  0  0  0
    0.1601   12.9100    1.9362 H   0  0  0  0  0  0  0  0  0  0  0  0
   -0.6259   11.9730    0.6721 H   0  0  0  0  0  0  0  0  0  0  0  0
   -1.7769   11.0407    3.2940 C   0  0  0  0  0  0  0  0  0  0  0  0
   -2.7051   10.4272    4.2470 C   0  0  2  0  0  3  0  0  0  0  0  0
   -4.5341   10.1522    5.4068 C   0  0  0  0  0  0  0  0  0  0  0  0
   -5.5181   10.3428    5.7860 H   0  0  0  0  0  0  0  0  0  0  0  0
   -3.6694    9.1256    5.6899 C   0  0  0  0  0  0  0  0  0  0  0  0
   -3.7811    8.2913    6.3535 H   0  0  0  0  0  0  0  0  0  0  0  0
   -4.5002   12.1503    3.9614 C   0  0  0  0  0  0  0  0  0  0  0  0
   -5.5009   12.2817    4.3672 H   0  0  0  0  0  0  0  0  0  0  0  0
   -4.5510   12.0851    2.8740 H   0  0  0  0  0  0  0  0  0  0  0  0
   -3.8873   13.0176    4.2096 H   0  0  0  0  0  0  0  0  0  0  0  0
  1  3  1  0  0  0  0
  1  2  1  0  0  0  0
  4  1  1  0  0  0  0
  5  9  1  0  0  0  0
  6  1  1  0  0  0  0
  6 22  1  0  0  0  0
  7 20  1  0  0  0  0
  8 18  2  0  0  0  0
  9 18  1  6  0  0  0
  9  4  1  0  0  0  0
 10  5  1  0  0  0  0
 10 12  2  0  0  0  0
 11 10  1  0  0  0  0
 12 13  1  0  0  0  0
 12  4  1  0  0  0  0
 14 16  1  0  0  0  0
 14  5  1  0  0  0  0
 15 14  1  0  0  0  0
 17 14  1  0  0  0  0
 19 18  1  6  0  0  0
 19  7  1  0  0  0  0
 19  6  1  0  0  0  0
 20 22  2  0  0  0  0
 20 21  1  0  0  0  0
 22 23  1  0  0  0  0
 24 27  1  0  0  0  0
 24 25  1  0  0  0  0
 24  7  1  0  0  0  0
 26 24  1  0  0  0  0
M  END
$$$$
