CSD_code = CERGOW | q = 1 | S = 0 | Stoichiometry = C9H12AuCl2N4O(1+) | MND = 4
 OpenBabel04212202023D

 29 31  0  0  1  0  0  0  0  0999 V2000
    5.8530   22.5201    0.0867 Au  0  0  0  0  0  0  0  0  0  0  0  0
    5.0250   21.3222   -1.5976 Cl  0  0  0  0  0  0  0  0  0  0  0  0
    7.7011   21.2946   -0.1095 Cl  0  0  0  0  0  0  0  0  0  0  0  0
    6.6590   23.6121    1.6217 N   0  0  0  0  0  0  0  0  0  0  0  0
    7.0437   25.2366    3.0327 N   0  0  0  0  0  0  0  0  0  0  0  0
    4.1411   23.6384    0.2205 N   0  0  0  0  0  0  0  0  0  0  0  0
    2.7667   25.2835    0.6483 N   0  0  0  0  0  0  0  0  0  0  0  0
    5.4576   26.7279    0.8782 O   0  0  0  0  0  0  0  0  0  0  0  0
    5.9099   26.4785    0.0618 H   0  0  0  0  0  0  0  0  0  0  0  0
    6.2215   24.7859    2.0713 C   0  0  1  0  0  3  0  0  0  0  0  0
    8.0247   24.3097    3.2072 C   0  0  0  0  0  0  0  0  0  0  0  0
    8.8111   24.4301    3.9233 H   0  0  0  0  0  0  0  0  0  0  0  0
    7.7797   23.2992    2.3288 C   0  0  0  0  0  0  0  0  0  0  0  0
    8.3186   22.3937    2.1410 H   0  0  0  0  0  0  0  0  0  0  0  0
    6.9255   26.4793    3.7497 C   0  0  0  0  0  0  0  0  0  0  0  0
    7.8613   26.6807    4.2660 H   0  0  0  0  0  0  0  0  0  0  0  0
    6.1251   26.4206    4.4897 H   0  0  0  0  0  0  0  0  0  0  0  0
    6.7157   27.2952    3.0585 H   0  0  0  0  0  0  0  0  0  0  0  0
    5.0416   25.5880    1.6023 C   0  0  2  0  0  0  0  0  0  0  0  0
    4.5495   26.0083    2.4933 H   0  0  0  0  0  0  0  0  0  0  0  0
    4.0090   24.8098    0.8383 C   0  0  2  0  0  3  0  0  0  0  0  0
    2.0865   24.3739   -0.1013 C   0  0  0  0  0  0  0  0  0  0  0  0
    1.0661   24.5139   -0.3925 H   0  0  0  0  0  0  0  0  0  0  0  0
    2.9450   23.3505   -0.3629 C   0  0  0  0  0  0  0  0  0  0  0  0
    2.8057   22.4516   -0.9270 H   0  0  0  0  0  0  0  0  0  0  0  0
    2.2409   26.5319    1.1354 C   0  0  0  0  0  0  0  0  0  0  0  0
    1.3115   26.7518    0.6151 H   0  0  0  0  0  0  0  0  0  0  0  0
    2.9520   27.3374    0.9535 H   0  0  0  0  0  0  0  0  0  0  0  0
    2.0347   26.4699    2.2056 H   0  0  0  0  0  0  0  0  0  0  0  0
  1  6  1  0  0  0  0
  1  4  1  0  0  0  0
  2  1  1  0  0  0  0
  3  1  1  0  0  0  0
  4 13  1  0  0  0  0
  5 11  1  0  0  0  0
  5 15  1  0  0  0  0
  7 21  1  0  0  0  0
  7 26  1  0  0  0  0
  8 19  1  0  0  0  0
  9  8  1  0  0  0  0
 10  4  1  6  0  0  0
 10  5  1  0  0  0  0
 11 12  1  0  0  0  0
 13 11  2  0  0  0  0
 14 13  1  0  0  0  0
 15 16  1  0  0  0  0
 15 17  1  0  0  0  0
 18 15  1  0  0  0  0
 19 10  1  0  0  0  0
 19 20  1  1  0  0  0
 21  6  1  6  0  0  0
 21 19  1  0  0  0  0
 22  7  1  0  0  0  0
 23 22  1  0  0  0  0
 24 22  2  0  0  0  0
 24  6  1  0  0  0  0
 25 24  1  0  0  0  0
 26 29  1  0  0  0  0
 27 26  1  0  0  0  0
 28 26  1  0  0  0  0
M  END
$$$$
