CSD_code = CERHAJ | q = 1 | S = 0 | Stoichiometry = C10H14AuCl2N4O(1+) | MND = 4
 OpenBabel04212202023D

 32 34  0  0  1  0  0  0  0  0999 V2000
   11.9321    0.6820   15.7085 Au  0  0  0  0  0  0  0  0  0  0  0  0
   10.0313    0.8763   14.5785 Cl  0  0  0  0  0  0  0  0  0  0  0  0
   12.6296    2.6323   14.9070 Cl  0  0  0  0  0  0  0  0  0  0  0  0
   13.6699    0.4570   16.7763 N   0  0  0  0  0  0  0  0  0  0  0  0
   14.7613    0.0329   18.6208 N   0  0  0  0  0  0  0  0  0  0  0  0
   11.3193   -1.0891   16.5292 N   0  0  0  0  0  0  0  0  0  0  0  0
   10.9195   -2.3702   18.2528 N   0  0  0  0  0  0  0  0  0  0  0  0
   11.3821    0.9871   18.3701 O   0  0  0  0  0  0  0  0  0  0  0  0
   13.5527    0.0741   18.0412 C   0  0  1  0  0  3  0  0  0  0  0  0
   15.6748    0.4009   17.6733 C   0  0  0  0  0  0  0  0  0  0  0  0
   16.7241    0.4467   17.8796 H   0  0  0  0  0  0  0  0  0  0  0  0
   14.9860    0.6691   16.5276 C   0  0  0  0  0  0  0  0  0  0  0  0
   15.3301    1.0019   15.5704 H   0  0  0  0  0  0  0  0  0  0  0  0
   15.0654   -0.3226   19.9827 C   0  0  0  0  0  0  0  0  0  0  0  0
   16.1271   -0.1648   20.1597 H   0  0  0  0  0  0  0  0  0  0  0  0
   14.8330   -1.3720   20.1695 H   0  0  0  0  0  0  0  0  0  0  0  0
   14.5006    0.2993   20.6779 H   0  0  0  0  0  0  0  0  0  0  0  0
   12.1834   -0.1560   18.6213 C   0  0  2  0  0  0  0  0  0  0  0  0
   12.2299   -0.3857   19.6946 H   0  0  0  0  0  0  0  0  0  0  0  0
   11.5025   -1.2390   17.8352 C   0  0  2  0  0  3  0  0  0  0  0  0
   10.3522   -2.9586   17.1586 C   0  0  0  0  0  0  0  0  0  0  0  0
    9.8223   -3.8868   17.2199 H   0  0  0  0  0  0  0  0  0  0  0  0
   10.5997   -2.1505   16.0887 C   0  0  0  0  0  0  0  0  0  0  0  0
   10.3115   -2.2469   15.0624 H   0  0  0  0  0  0  0  0  0  0  0  0
   10.8680   -2.8818   19.5976 C   0  0  0  0  0  0  0  0  0  0  0  0
   10.2068   -3.7453   19.6215 H   0  0  0  0  0  0  0  0  0  0  0  0
   10.4773   -2.1253   20.2785 H   0  0  0  0  0  0  0  0  0  0  0  0
   11.8590   -3.1920   19.9328 H   0  0  0  0  0  0  0  0  0  0  0  0
   11.7436    2.1556   19.0909 C   0  0  0  0  0  0  0  0  0  0  0  0
   11.0154    2.9092   18.8017 H   0  0  0  0  0  0  0  0  0  0  0  0
   12.7462    2.5013   18.8252 H   0  0  0  0  0  0  0  0  0  0  0  0
   11.6809    1.9804   20.1687 H   0  0  0  0  0  0  0  0  0  0  0  0
  1  6  1  0  0  0  0
  1  4  1  0  0  0  0
  2  1  1  0  0  0  0
  3  1  1  0  0  0  0
  5 14  1  0  0  0  0
  7 25  1  0  0  0  0
  8 18  1  0  0  0  0
  8 29  1  0  0  0  0
  9  4  1  1  0  0  0
  9  5  1  0  0  0  0
  9 18  1  0  0  0  0
 10 11  1  0  0  0  0
 10  5  1  0  0  0  0
 12  4  1  0  0  0  0
 12 10  2  0  0  0  0
 13 12  1  0  0  0  0
 14 15  1  0  0  0  0
 14 16  1  0  0  0  0
 14 17  1  0  0  0  0
 18 19  1  1  0  0  0
 20  6  1  1  0  0  0
 20  7  1  0  0  0  0
 20 18  1  0  0  0  0
 21 22  1  0  0  0  0
 21  7  1  0  0  0  0
 23  6  1  0  0  0  0
 23 21  2  0  0  0  0
 24 23  1  0  0  0  0
 25 26  1  0  0  0  0
 25 28  1  0  0  0  0
 25 27  1  0  0  0  0
 29 32  1  0  0  0  0
 30 29  1  0  0  0  0
 31 29  1  0  0  0  0
M  END
$$$$
