CSD_code = CERQIB | q = 0 | S = 0 | Stoichiometry = C22H28AuClN2 | MND = 2
 OpenBabel04212202023D

 54 56  0  0  0  0  0  0  0  0999 V2000
  -11.2775    0.7200   -2.3706 C   0  0  0  0  0  3  0  0  0  0  0  0
  -10.3212   -1.0530   -0.9626 C   0  0  0  0  0  0  0  0  0  0  0  0
   -9.3132   -1.4734   -0.9390 H   0  0  0  0  0  0  0  0  0  0  0  0
  -11.0324   -1.8871   -0.9046 H   0  0  0  0  0  0  0  0  0  0  0  0
  -10.5491   -0.0930    0.1970 C   0  0  0  0  0  0  0  0  0  0  0  0
   -9.7724    0.6745    0.1909 H   0  0  0  0  0  0  0  0  0  0  0  0
  -10.5091   -0.6219    1.1487 H   0  0  0  0  0  0  0  0  0  0  0  0
  -11.9119    0.5573   -0.0004 C   0  0  0  0  0  0  0  0  0  0  0  0
  -12.7060   -0.1917    0.1094 H   0  0  0  0  0  0  0  0  0  0  0  0
  -12.0876    1.3436    0.7384 H   0  0  0  0  0  0  0  0  0  0  0  0
   -9.7370   -0.8166   -3.3310 C   0  0  0  0  0  0  0  0  0  0  0  0
  -10.3230   -1.7003   -4.2368 C   0  0  0  0  0  0  0  0  0  0  0  0
   -9.5578   -2.1697   -5.2922 C   0  0  0  0  0  0  0  0  0  0  0  0
  -10.0049   -2.8475   -6.0048 H   0  0  0  0  0  0  0  0  0  0  0  0
   -8.2365   -1.7801   -5.4613 C   0  0  0  0  0  0  0  0  0  0  0  0
   -7.6815   -0.8943   -4.5500 C   0  0  0  0  0  0  0  0  0  0  0  0
   -6.6587   -0.5707   -4.6788 H   0  0  0  0  0  0  0  0  0  0  0  0
   -8.4144   -0.4009   -3.4818 C   0  0  0  0  0  0  0  0  0  0  0  0
  -11.7631   -2.0926   -4.1065 C   0  0  0  0  0  0  0  0  0  0  0  0
  -12.0221   -2.3385   -3.0784 H   0  0  0  0  0  0  0  0  0  0  0  0
  -11.9847   -2.9493   -4.7371 H   0  0  0  0  0  0  0  0  0  0  0  0
  -12.3930   -1.2602   -4.4247 H   0  0  0  0  0  0  0  0  0  0  0  0
   -7.4431   -2.2796   -6.6285 C   0  0  0  0  0  0  0  0  0  0  0  0
   -6.3757   -2.1911   -6.4426 H   0  0  0  0  0  0  0  0  0  0  0  0
   -7.6844   -1.6900   -7.5129 H   0  0  0  0  0  0  0  0  0  0  0  0
   -7.6818   -3.3187   -6.8439 H   0  0  0  0  0  0  0  0  0  0  0  0
   -7.8057    0.5787   -2.5239 C   0  0  0  0  0  0  0  0  0  0  0  0
   -8.4992    1.3943   -2.3247 H   0  0  0  0  0  0  0  0  0  0  0  0
   -6.8918    0.9946   -2.9387 H   0  0  0  0  0  0  0  0  0  0  0  0
   -7.5602    0.0993   -1.5753 H   0  0  0  0  0  0  0  0  0  0  0  0
  -12.8518    2.2649   -1.4830 C   0  0  0  0  0  0  0  0  0  0  0  0
  -12.3599    3.5569   -1.2934 C   0  0  0  0  0  0  0  0  0  0  0  0
  -13.2323    4.6240   -1.4257 C   0  0  0  0  0  0  0  0  0  0  0  0
  -12.8598    5.6291   -1.2907 H   0  0  0  0  0  0  0  0  0  0  0  0
  -14.5707    4.4314   -1.7410 C   0  0  0  0  0  0  0  0  0  0  0  0
  -15.0318    3.1373   -1.9267 C   0  0  0  0  0  0  0  0  0  0  0  0
  -16.0685    2.9741   -2.1833 H   0  0  0  0  0  0  0  0  0  0  0  0
  -14.1895    2.0423   -1.8029 C   0  0  0  0  0  0  0  0  0  0  0  0
  -10.9089    3.7805   -0.9930 C   0  0  0  0  0  0  0  0  0  0  0  0
  -10.5956    3.2261   -0.1090 H   0  0  0  0  0  0  0  0  0  0  0  0
  -10.7116    4.8360   -0.8282 H   0  0  0  0  0  0  0  0  0  0  0  0
  -10.3054    3.4443   -1.8370 H   0  0  0  0  0  0  0  0  0  0  0  0
  -15.4842    5.6052   -1.9115 C   0  0  0  0  0  0  0  0  0  0  0  0
  -15.2598    6.3809   -1.1826 H   0  0  0  0  0  0  0  0  0  0  0  0
  -16.5250    5.3094   -1.8069 H   0  0  0  0  0  0  0  0  0  0  0  0
  -15.3497    6.0307   -2.9059 H   0  0  0  0  0  0  0  0  0  0  0  0
  -14.7126    0.6537   -2.0160 C   0  0  0  0  0  0  0  0  0  0  0  0
  -13.9664    0.0301   -2.5045 H   0  0  0  0  0  0  0  0  0  0  0  0
  -15.6041    0.6777   -2.6367 H   0  0  0  0  0  0  0  0  0  0  0  0
  -14.9773    0.1941   -1.0626 H   0  0  0  0  0  0  0  0  0  0  0  0
  -10.4953   -0.3395   -2.2179 N   0  0  0  0  0  0  0  0  0  0  0  0
  -11.9701    1.1517   -1.3260 N   0  0  0  0  0  0  0  0  0  0  0  0
  -11.5660    2.6998   -6.1451 Cl  0  0  0  0  0  0  0  0  0  0  0  0
  -11.4131    1.6592   -4.1574 Au  0  0  0  0  0  0  0  0  0  0  0  0
  1 51  1  0  0  0  0
  1 52  1  0  0  0  0
  2  3  1  0  0  0  0
  2  4  1  0  0  0  0
  2  5  1  0  0  0  0
  5  7  1  0  0  0  0
  6  5  1  0  0  0  0
  8  9  1  0  0  0  0
  8  5  1  0  0  0  0
  8 10  1  0  0  0  0
 11 51  1  0  0  0  0
 12 19  1  0  0  0  0
 12 11  2  0  0  0  0
 13 12  1  0  0  0  0
 14 13  1  0  0  0  0
 15 13  2  0  0  0  0
 15 16  1  0  0  0  0
 16 18  2  0  0  0  0
 17 16  1  0  0  0  0
 18 11  1  0  0  0  0
 18 27  1  0  0  0  0
 19 20  1  0  0  0  0
 21 19  1  0  0  0  0
 22 19  1  0  0  0  0
 23 24  1  0  0  0  0
 23 15  1  0  0  0  0
 25 23  1  0  0  0  0
 26 23  1  0  0  0  0
 27 28  1  0  0  0  0
 27 30  1  0  0  0  0
 29 27  1  0  0  0  0
 31 52  1  0  0  0  0
 31 32  1  0  0  0  0
 32 39  1  0  0  0  0
 33 32  2  0  0  0  0
 33 34  1  0  0  0  0
 35 33  1  0  0  0  0
 36 38  1  0  0  0  0
 36 35  2  0  0  0  0
 37 36  1  0  0  0  0
 38 31  2  0  0  0  0
 39 41  1  0  0  0  0
 39 40  1  0  0  0  0
 42 39  1  0  0  0  0
 43 45  1  0  0  0  0
 43 35  1  0  0  0  0
 43 44  1  0  0  0  0
 46 43  1  0  0  0  0
 47 38  1  0  0  0  0
 47 50  1  0  0  0  0
 48 47  1  0  0  0  0
 49 47  1  0  0  0  0
 51  2  1  0  0  0  0
 52  8  1  0  0  0  0
 53 54  1  0  0  0  0
 54  1  1  0  0  0  0
M  END
$$$$
