CSD_code = CERQAT | q = 0 | S = 0 | Stoichiometry = C29H42AuClN2 | MND = 2
 OpenBabel04212202023D

 75 77  0  0  0  0  0  0  0  0999 V2000
    1.5597    5.3891    4.0752 C   0  0  0  0  0  3  0  0  0  0  0  0
   -0.3868    6.9394    3.9202 C   0  0  0  0  0  0  0  0  0  0  0  0
   -0.4590    8.0231    4.0360 H   0  0  0  0  0  0  0  0  0  0  0  0
   -0.8742    6.4859    4.7902 H   0  0  0  0  0  0  0  0  0  0  0  0
   -1.1146    6.5250    2.6430 C   0  0  0  0  0  0  0  0  0  0  0  0
   -2.1840    6.6586    2.8190 H   0  0  0  0  0  0  0  0  0  0  0  0
   -0.8314    7.1853    1.8223 H   0  0  0  0  0  0  0  0  0  0  0  0
   -0.8266    5.0735    2.2474 C   0  0  0  0  0  0  0  0  0  0  0  0
    0.0417    5.0319    1.5866 H   0  0  0  0  0  0  0  0  0  0  0  0
   -1.6746    4.6772    1.6866 H   0  0  0  0  0  0  0  0  0  0  0  0
   -0.5552    4.1700    3.4461 C   0  0  0  0  0  0  0  0  0  0  0  0
   -1.2761    4.3530    4.2495 H   0  0  0  0  0  0  0  0  0  0  0  0
   -0.6697    3.1260    3.1427 H   0  0  0  0  0  0  0  0  0  0  0  0
    1.9177    7.7262    4.0558 C   0  0  0  0  0  0  0  0  0  0  0  0
    2.5192    8.2251    2.8985 C   0  0  0  0  0  0  0  0  0  0  0  0
    3.3235    9.3514    3.0054 C   0  0  0  0  0  0  0  0  0  0  0  0
    3.8044    9.7497    2.1257 H   0  0  0  0  0  0  0  0  0  0  0  0
    3.5205    9.9671    4.2255 C   0  0  0  0  0  0  0  0  0  0  0  0
    4.1445   10.8456    4.2916 H   0  0  0  0  0  0  0  0  0  0  0  0
    2.9359    9.4489    5.3644 C   0  0  0  0  0  0  0  0  0  0  0  0
    3.1141    9.9262    6.3152 H   0  0  0  0  0  0  0  0  0  0  0  0
    2.1336    8.3181    5.3034 C   0  0  0  0  0  0  0  0  0  0  0  0
    2.3440    7.5470    1.5611 C   0  0  0  0  0  0  0  0  0  0  0  0
    1.6530    6.7085    1.6817 H   0  0  0  0  0  0  0  0  0  0  0  0
    1.7525    8.5045    0.5241 C   0  0  0  0  0  0  0  0  0  0  0  0
    0.8268    8.9452    0.8903 H   0  0  0  0  0  0  0  0  0  0  0  0
    1.5409    7.9712   -0.4005 H   0  0  0  0  0  0  0  0  0  0  0  0
    2.4457    9.3105    0.2992 H   0  0  0  0  0  0  0  0  0  0  0  0
    3.6829    6.9804    1.0843 C   0  0  0  0  0  0  0  0  0  0  0  0
    4.3995    7.7770    0.9042 H   0  0  0  0  0  0  0  0  0  0  0  0
    3.5479    6.4227    0.1598 H   0  0  0  0  0  0  0  0  0  0  0  0
    4.0974    6.3133    1.8386 H   0  0  0  0  0  0  0  0  0  0  0  0
    1.5500    7.7411    6.5717 C   0  0  0  0  0  0  0  0  0  0  0  0
    1.0366    6.8046    6.3337 H   0  0  0  0  0  0  0  0  0  0  0  0
    0.5349    8.7033    7.1939 C   0  0  0  0  0  0  0  0  0  0  0  0
    1.0142    9.6374    7.4750 H   0  0  0  0  0  0  0  0  0  0  0  0
    0.0982    8.2608    8.0866 H   0  0  0  0  0  0  0  0  0  0  0  0
   -0.2669    8.9294    6.4932 H   0  0  0  0  0  0  0  0  0  0  0  0
    2.6646    7.4095    7.5664 C   0  0  0  0  0  0  0  0  0  0  0  0
    3.4106    6.7721    7.0955 H   0  0  0  0  0  0  0  0  0  0  0  0
    2.2542    6.8864    8.4273 H   0  0  0  0  0  0  0  0  0  0  0  0
    3.1582    8.3109    7.9183 H   0  0  0  0  0  0  0  0  0  0  0  0
    1.4411    3.0363    4.2249 C   0  0  0  0  0  0  0  0  0  0  0  0
    1.3087    2.5184    5.5148 C   0  0  0  0  0  0  0  0  0  0  0  0
    1.8374    1.2625    5.7791 C   0  0  0  0  0  0  0  0  0  0  0  0
    1.7505    0.8434    6.7695 H   0  0  0  0  0  0  0  0  0  0  0  0
    2.4766    0.5427    4.7892 C   0  0  0  0  0  0  0  0  0  0  0  0
    2.8761   -0.4363    5.0074 H   0  0  0  0  0  0  0  0  0  0  0  0
    2.6215    1.0804    3.5251 C   0  0  0  0  0  0  0  0  0  0  0  0
    3.1407    0.5168    2.7659 H   0  0  0  0  0  0  0  0  0  0  0  0
    2.1151    2.3362    3.2210 C   0  0  0  0  0  0  0  0  0  0  0  0
    0.6429    3.3069    6.6179 C   0  0  0  0  0  0  0  0  0  0  0  0
    0.3049    4.2668    6.2145 H   0  0  0  0  0  0  0  0  0  0  0  0
    1.6519    3.6064    7.7283 C   0  0  0  0  0  0  0  0  0  0  0  0
    1.9842    2.6909    8.2096 H   0  0  0  0  0  0  0  0  0  0  0  0
    1.2004    4.2472    8.4828 H   0  0  0  0  0  0  0  0  0  0  0  0
    2.5230    4.1116    7.3156 H   0  0  0  0  0  0  0  0  0  0  0  0
   -0.5787    2.5666    7.1666 C   0  0  0  0  0  0  0  0  0  0  0  0
   -1.2844    2.3450    6.3678 H   0  0  0  0  0  0  0  0  0  0  0  0
   -1.0817    3.1759    7.9148 H   0  0  0  0  0  0  0  0  0  0  0  0
   -0.2863    1.6293    7.6316 H   0  0  0  0  0  0  0  0  0  0  0  0
    2.3189    2.9210    1.8438 C   0  0  0  0  0  0  0  0  0  0  0  0
    1.9743    3.9591    1.8504 H   0  0  0  0  0  0  0  0  0  0  0  0
    1.5094    2.1458    0.8008 C   0  0  0  0  0  0  0  0  0  0  0  0
    1.8324    1.1086    0.7597 H   0  0  0  0  0  0  0  0  0  0  0  0
    1.6468    2.5868   -0.1841 H   0  0  0  0  0  0  0  0  0  0  0  0
    0.4477    2.1629    1.0409 H   0  0  0  0  0  0  0  0  0  0  0  0
    3.8038    2.9396    1.4759 C   0  0  0  0  0  0  0  0  0  0  0  0
    4.1913    1.9331    1.3464 H   0  0  0  0  0  0  0  0  0  0  0  0
    4.3786    3.4316    2.2580 H   0  0  0  0  0  0  0  0  0  0  0  0
    3.9495    3.4834    0.5450 H   0  0  0  0  0  0  0  0  0  0  0  0
    1.0333    6.6020    3.9522 N   0  0  0  0  0  0  0  0  0  0  0  0
    0.8230    4.2963    3.9272 N   0  0  0  0  0  0  0  0  0  0  0  0
    5.7126    4.9803    5.0594 Cl  0  0  0  0  0  0  0  0  0  0  0  0
    3.5316    5.1986    4.5354 Au  0  0  0  0  0  0  0  0  0  0  0  0
  1 75  1  0  0  0  0
  2 72  1  0  0  0  0
  2  3  1  0  0  0  0
  2  4  1  0  0  0  0
  5  6  1  0  0  0  0
  5  2  1  0  0  0  0
  7  5  1  0  0  0  0
  8  5  1  0  0  0  0
  8 11  1  0  0  0  0
  9  8  1  0  0  0  0
 10  8  1  0  0  0  0
 11 73  1  0  0  0  0
 11 12  1  0  0  0  0
 13 11  1  0  0  0  0
 14 22  1  0  0  0  0
 15 16  1  0  0  0  0
 15 14  2  0  0  0  0
 16 18  2  0  0  0  0
 17 16  1  0  0  0  0
 18 19  1  0  0  0  0
 18 20  1  0  0  0  0
 20 21  1  0  0  0  0
 22 20  2  0  0  0  0
 22 33  1  0  0  0  0
 23 24  1  0  0  0  0
 23 15  1  0  0  0  0
 25 26  1  0  0  0  0
 25 23  1  0  0  0  0
 27 25  1  0  0  0  0
 28 25  1  0  0  0  0
 29 23  1  0  0  0  0
 29 32  1  0  0  0  0
 30 29  1  0  0  0  0
 31 29  1  0  0  0  0
 33 35  1  0  0  0  0
 33 39  1  0  0  0  0
 34 33  1  0  0  0  0
 35 36  1  0  0  0  0
 35 37  1  0  0  0  0
 38 35  1  0  0  0  0
 39 42  1  0  0  0  0
 39 41  1  0  0  0  0
 40 39  1  0  0  0  0
 43 44  1  0  0  0  0
 44 45  2  0  0  0  0
 44 52  1  0  0  0  0
 45 46  1  0  0  0  0
 47 48  1  0  0  0  0
 47 45  1  0  0  0  0
 49 47  2  0  0  0  0
 50 49  1  0  0  0  0
 51 49  1  0  0  0  0
 51 43  2  0  0  0  0
 52 58  1  0  0  0  0
 52 54  1  0  0  0  0
 53 52  1  0  0  0  0
 54 55  1  0  0  0  0
 54 56  1  0  0  0  0
 57 54  1  0  0  0  0
 58 61  1  0  0  0  0
 58 60  1  0  0  0  0
 59 58  1  0  0  0  0
 62 63  1  0  0  0  0
 62 51  1  0  0  0  0
 64 67  1  0  0  0  0
 64 62  1  0  0  0  0
 65 64  1  0  0  0  0
 66 64  1  0  0  0  0
 68 62  1  0  0  0  0
 68 70  1  0  0  0  0
 69 68  1  0  0  0  0
 71 68  1  0  0  0  0
 72 14  1  0  0  0  0
 72  1  1  0  0  0  0
 73  1  1  0  0  0  0
 73 43  1  0  0  0  0
 75 74  1  0  0  0  0
M  END
$$$$
