CSD_code = CERVED | q = 0 | S = 0 | Stoichiometry = C47H46Cl2P3Re | MND = 6
 OpenBabel04212202023D

 99105  0  0  0  0  0  0  0  0999 V2000
    3.8614    4.8913    3.9155 Re  0  0  0  0  0  0  0  0  0  0  0  0
    1.7949    5.9479    3.9291 Cl  0  0  0  0  0  0  0  0  0  0  0  0
    2.8512    3.2243    5.3597 Cl  0  0  0  0  0  0  0  0  0  0  0  0
    4.6609    5.9290    6.0129 P   0  0  0  0  0  4  0  0  0  0  0  0
    4.2296    6.7708    2.4107 P   0  0  0  0  0  4  0  0  0  0  0  0
    2.7708    3.3069    2.3939 P   0  0  0  0  0  4  0  0  0  0  0  0
    5.5198    4.0597    3.7538 C   0  0  0  0  0  2  0  0  0  0  0  0
    6.7827    3.3544    3.6100 C   0  0  0  0  0  0  0  0  0  0  0  0
    7.6022    4.0661    3.4591 H   0  0  0  0  0  0  0  0  0  0  0  0
    6.7278    2.7127    2.7209 H   0  0  0  0  0  0  0  0  0  0  0  0
    7.0542    2.4895    4.8201 C   0  0  0  0  0  0  0  0  0  0  0  0
    8.2816    2.5281    5.4661 C   0  0  0  0  0  0  0  0  0  0  0  0
    9.0643    3.1749    5.0937 H   0  0  0  0  0  0  0  0  0  0  0  0
    8.5100    1.7394    6.5815 C   0  0  0  0  0  0  0  0  0  0  0  0
    9.4693    1.7759    7.0777 H   0  0  0  0  0  0  0  0  0  0  0  0
    7.5113    0.9102    7.0617 C   0  0  0  0  0  0  0  0  0  0  0  0
    7.6893    0.2987    7.9341 H   0  0  0  0  0  0  0  0  0  0  0  0
    6.2838    0.8693    6.4203 C   0  0  0  0  0  0  0  0  0  0  0  0
    5.4976    0.2294    6.7919 H   0  0  0  0  0  0  0  0  0  0  0  0
    6.0556    1.6533    5.3042 C   0  0  0  0  0  0  0  0  0  0  0  0
    5.0959    1.6388    4.8118 H   0  0  0  0  0  0  0  0  0  0  0  0
    4.9170    4.6534    7.3030 C   0  0  0  0  0  0  0  0  0  0  0  0
    3.9381    4.3292    7.6543 H   0  0  0  0  0  0  0  0  0  0  0  0
    5.4868    5.0821    8.1282 H   0  0  0  0  0  0  0  0  0  0  0  0
    5.4255    3.7901    6.8751 H   0  0  0  0  0  0  0  0  0  0  0  0
    3.6134    7.0687    6.9729 C   0  0  0  0  0  0  0  0  0  0  0  0
    2.2750    6.7004    7.0886 C   0  0  0  0  0  0  0  0  0  0  0  0
    1.9274    5.7952    6.6087 H   0  0  0  0  0  0  0  0  0  0  0  0
    1.3919    7.4857    7.8041 C   0  0  0  0  0  0  0  0  0  0  0  0
    0.3526    7.1999    7.8766 H   0  0  0  0  0  0  0  0  0  0  0  0
    1.8426    8.6395    8.4241 C   0  0  0  0  0  0  0  0  0  0  0  0
    1.1542    9.2611    8.9784 H   0  0  0  0  0  0  0  0  0  0  0  0
    3.1805    8.9889    8.3440 C   0  0  0  0  0  0  0  0  0  0  0  0
    3.5380    9.8762    8.8475 H   0  0  0  0  0  0  0  0  0  0  0  0
    4.0681    8.2088    7.6238 C   0  0  0  0  0  0  0  0  0  0  0  0
    5.1118    8.4830    7.5835 H   0  0  0  0  0  0  0  0  0  0  0  0
    2.9846    7.0325    1.0916 C   0  0  0  0  0  0  0  0  0  0  0  0
    2.9459    6.1653    0.4329 H   0  0  0  0  0  0  0  0  0  0  0  0
    3.2358    7.9343    0.5321 H   0  0  0  0  0  0  0  0  0  0  0  0
    2.0141    7.1668    1.5681 H   0  0  0  0  0  0  0  0  0  0  0  0
    6.3037    6.7066    5.9115 C   0  0  0  0  0  0  0  0  0  0  0  0
    6.4545    8.0364    5.5255 C   0  0  0  0  0  0  0  0  0  0  0  0
    5.5833    8.6485    5.3557 H   0  0  0  0  0  0  0  0  0  0  0  0
    7.7142    8.5798    5.3509 C   0  0  0  0  0  0  0  0  0  0  0  0
    7.8115    9.6141    5.0545 H   0  0  0  0  0  0  0  0  0  0  0  0
    8.8422    7.8008    5.5465 C   0  0  0  0  0  0  0  0  0  0  0  0
    9.8257    8.2252    5.4072 H   0  0  0  0  0  0  0  0  0  0  0  0
    8.7011    6.4736    5.9167 C   0  0  0  0  0  0  0  0  0  0  0  0
    9.5771    5.8589    6.0680 H   0  0  0  0  0  0  0  0  0  0  0  0
    7.4431    5.9272    6.0953 C   0  0  0  0  0  0  0  0  0  0  0  0
    7.3461    4.8879    6.3680 H   0  0  0  0  0  0  0  0  0  0  0  0
    0.9552    3.2203    2.5091 C   0  0  0  0  0  0  0  0  0  0  0  0
    0.6789    3.2424    3.5640 H   0  0  0  0  0  0  0  0  0  0  0  0
    0.5886    2.3031    2.0470 H   0  0  0  0  0  0  0  0  0  0  0  0
    0.5310    4.0975    2.0191 H   0  0  0  0  0  0  0  0  0  0  0  0
    4.2574    8.4675    3.1019 C   0  0  0  0  0  0  0  0  0  0  0  0
    5.1416    9.4238    2.6094 C   0  0  0  0  0  0  0  0  0  0  0  0
    5.8371    9.1661    1.8240 H   0  0  0  0  0  0  0  0  0  0  0  0
    5.1411   10.7055    3.1289 C   0  0  0  0  0  0  0  0  0  0  0  0
    5.8340   11.4384    2.7405 H   0  0  0  0  0  0  0  0  0  0  0  0
    4.2610   11.0524    4.1412 C   0  0  0  0  0  0  0  0  0  0  0  0
    4.2679   12.0538    4.5464 H   0  0  0  0  0  0  0  0  0  0  0  0
    3.3719   10.1099    4.6288 C   0  0  0  0  0  0  0  0  0  0  0  0
    2.6808   10.3670    5.4186 H   0  0  0  0  0  0  0  0  0  0  0  0
    3.3707    8.8269    4.1116 C   0  0  0  0  0  0  0  0  0  0  0  0
    2.6725    8.1012    4.5011 H   0  0  0  0  0  0  0  0  0  0  0  0
    5.8162    6.7564    1.5096 C   0  0  0  0  0  0  0  0  0  0  0  0
    5.9552    6.8912    0.1343 C   0  0  0  0  0  0  0  0  0  0  0  0
    5.0886    7.0139   -0.4976 H   0  0  0  0  0  0  0  0  0  0  0  0
    7.2159    6.8651   -0.4395 C   0  0  0  0  0  0  0  0  0  0  0  0
    7.3177    6.9714   -1.5104 H   0  0  0  0  0  0  0  0  0  0  0  0
    8.3428    6.7099    0.3491 C   0  0  0  0  0  0  0  0  0  0  0  0
    9.3226    6.6950   -0.1054 H   0  0  0  0  0  0  0  0  0  0  0  0
    8.2090    6.5715    1.7223 C   0  0  0  0  0  0  0  0  0  0  0  0
    9.0846    6.4525    2.3442 H   0  0  0  0  0  0  0  0  0  0  0  0
    6.9530    6.5876    2.2958 C   0  0  0  0  0  0  0  0  0  0  0  0
    6.8224    6.4685    3.3624 H   0  0  0  0  0  0  0  0  0  0  0  0
    3.0922    3.4786    0.6045 C   0  0  0  0  0  0  0  0  0  0  0  0
    2.1712    3.1573   -0.3842 C   0  0  0  0  0  0  0  0  0  0  0  0
    1.1825    2.8108   -0.1229 H   0  0  0  0  0  0  0  0  0  0  0  0
    2.5172    3.2819   -1.7191 C   0  0  0  0  0  0  0  0  0  0  0  0
    1.7941    3.0375   -2.4840 H   0  0  0  0  0  0  0  0  0  0  0  0
    3.7841    3.7113   -2.0775 C   0  0  0  0  0  0  0  0  0  0  0  0
    4.0487    3.7998   -3.1211 H   0  0  0  0  0  0  0  0  0  0  0  0
    4.7083    4.0317   -1.0956 C   0  0  0  0  0  0  0  0  0  0  0  0
    5.6976    4.3706   -1.3669 H   0  0  0  0  0  0  0  0  0  0  0  0
    4.3594    3.9251    0.2376 C   0  0  0  0  0  0  0  0  0  0  0  0
    5.0541    4.2053    1.0232 H   0  0  0  0  0  0  0  0  0  0  0  0
    3.2908    1.5720    2.6121 C   0  0  0  0  0  0  0  0  0  0  0  0
    2.5839    0.7144    3.4486 C   0  0  0  0  0  0  0  0  0  0  0  0
    1.7007    1.0616    3.9619 H   0  0  0  0  0  0  0  0  0  0  0  0
    3.0315   -0.5777    3.6581 C   0  0  0  0  0  0  0  0  0  0  0  0
    2.4795   -1.2331    4.3160 H   0  0  0  0  0  0  0  0  0  0  0  0
    4.1838   -1.0282    3.0373 C   0  0  0  0  0  0  0  0  0  0  0  0
    4.5345   -2.0354    3.2083 H   0  0  0  0  0  0  0  0  0  0  0  0
    4.8870   -0.1812    2.1971 C   0  0  0  0  0  0  0  0  0  0  0  0
    5.7858   -0.5277    1.7074 H   0  0  0  0  0  0  0  0  0  0  0  0
    4.4448    1.1113    1.9859 C   0  0  0  0  0  0  0  0  0  0  0  0
    4.9922    1.7681    1.3253 H   0  0  0  0  0  0  0  0  0  0  0  0
  1  2  1  0  0  0  0
  1  3  1  0  0  0  0
  1  4  1  0  0  0  0
  4 26  1  0  0  0  0
  4 22  1  0  0  0  0
  5 56  1  0  0  0  0
  5  1  1  0  0  0  0
  6 52  1  0  0  0  0
  6 89  1  0  0  0  0
  6  1  1  0  0  0  0
  7  1  1  0  0  0  0
  8  7  1  0  0  0  0
  8 11  1  0  0  0  0
  9  8  1  0  0  0  0
 10  8  1  0  0  0  0
 11 20  2  0  0  0  0
 11 12  1  0  0  0  0
 12 14  2  0  0  0  0
 13 12  1  0  0  0  0
 14 16  1  0  0  0  0
 14 15  1  0  0  0  0
 16 17  1  0  0  0  0
 18 19  1  0  0  0  0
 18 16  2  0  0  0  0
 20 18  1  0  0  0  0
 21 20  1  0  0  0  0
 22 23  1  0  0  0  0
 22 24  1  0  0  0  0
 25 22  1  0  0  0  0
 26 27  2  0  0  0  0
 26 35  1  0  0  0  0
 27 29  1  0  0  0  0
 28 27  1  0  0  0  0
 29 30  1  0  0  0  0
 29 31  2  0  0  0  0
 31 32  1  0  0  0  0
 33 31  1  0  0  0  0
 33 34  1  0  0  0  0
 35 33  2  0  0  0  0
 36 35  1  0  0  0  0
 37 40  1  0  0  0  0
 37  5  1  0  0  0  0
 38 37  1  0  0  0  0
 39 37  1  0  0  0  0
 41  4  1  0  0  0  0
 41 50  1  0  0  0  0
 42 41  2  0  0  0  0
 43 42  1  0  0  0  0
 44 42  1  0  0  0  0
 44 46  2  0  0  0  0
 45 44  1  0  0  0  0
 46 48  1  0  0  0  0
 47 46  1  0  0  0  0
 48 49  1  0  0  0  0
 48 50  2  0  0  0  0
 50 51  1  0  0  0  0
 52 53  1  0  0  0  0
 54 52  1  0  0  0  0
 55 52  1  0  0  0  0
 56 65  1  0  0  0  0
 57 56  2  0  0  0  0
 57 59  1  0  0  0  0
 58 57  1  0  0  0  0
 59 61  2  0  0  0  0
 60 59  1  0  0  0  0
 61 62  1  0  0  0  0
 61 63  1  0  0  0  0
 63 64  1  0  0  0  0
 65 66  1  0  0  0  0
 65 63  2  0  0  0  0
 67 76  1  0  0  0  0
 67  5  1  0  0  0  0
 68 67  2  0  0  0  0
 69 68  1  0  0  0  0
 70 68  1  0  0  0  0
 70 72  2  0  0  0  0
 71 70  1  0  0  0  0
 72 74  1  0  0  0  0
 73 72  1  0  0  0  0
 74 76  2  0  0  0  0
 74 75  1  0  0  0  0
 76 77  1  0  0  0  0
 78  6  1  0  0  0  0
 79 80  1  0  0  0  0
 79 78  2  0  0  0  0
 81 79  1  0  0  0  0
 82 81  1  0  0  0  0
 83 81  2  0  0  0  0
 83 85  1  0  0  0  0
 84 83  1  0  0  0  0
 85 87  2  0  0  0  0
 86 85  1  0  0  0  0
 87 78  1  0  0  0  0
 87 88  1  0  0  0  0
 89 90  1  0  0  0  0
 90 92  2  0  0  0  0
 90 91  1  0  0  0  0
 92 93  1  0  0  0  0
 94 95  1  0  0  0  0
 94 92  1  0  0  0  0
 96 94  2  0  0  0  0
 97 96  1  0  0  0  0
 98 96  1  0  0  0  0
 98 89  2  0  0  0  0
 99 98  1  0  0  0  0
M  END
$$$$
