CSD_code = CESBAF | q = 0 | S = 0 | Stoichiometry = C20H30Br2N2O4Pd | MND = 4
 OpenBabel04212202023D

 59 60  0  0  0  0  0  0  0  0999 V2000
    3.9296    4.2140    0.0001 Pd  0  0  0  0  0  0  0  0  0  0  0  0
    4.6922    2.3625    1.3791 Br  0  0  0  0  0  0  0  0  0  0  0  0
    2.7208    4.8601    1.5283 N   0  0  0  0  0  4  0  0  0  0  0  0
    3.1349    4.6423    2.4441 H   0  0  0  0  0  0  0  0  0  0  0  0
    2.5371    5.8686    1.4922 H   0  0  0  0  0  0  0  0  0  0  0  0
    1.4528    4.1241    1.4169 C   0  0  0  0  0  0  0  0  0  0  0  0
    1.6861    3.0520    1.3517 H   0  0  0  0  0  0  0  0  0  0  0  0
    0.9434    4.4333    0.4950 H   0  0  0  0  0  0  0  0  0  0  0  0
    0.5482    4.3773    2.6319 C   0  0  0  0  0  0  0  0  0  0  0  0
    0.1566    5.3961    2.5919 H   0  0  0  0  0  0  0  0  0  0  0  0
   -0.2995    3.6908    2.5823 H   0  0  0  0  0  0  0  0  0  0  0  0
    1.3028    4.1831    3.9233 C   0  0  0  0  0  0  0  0  0  0  0  0
    1.9232    2.9626    4.1973 C   0  0  0  0  0  0  0  0  0  0  0  0
    1.8296    2.1541    3.4906 H   0  0  0  0  0  0  0  0  0  0  0  0
    2.6521    2.7744    5.3577 C   0  0  0  0  0  0  0  0  0  0  0  0
    2.7578    3.8361    6.2891 C   0  0  0  0  0  0  0  0  0  0  0  0
    2.1418    5.0417    6.0106 C   0  0  0  0  0  0  0  0  0  0  0  0
    2.2115    5.8660    6.7019 H   0  0  0  0  0  0  0  0  0  0  0  0
    1.4269    5.2155    4.8317 C   0  0  0  0  0  0  0  0  0  0  0  0
    0.9587    6.1696    4.6374 H   0  0  0  0  0  0  0  0  0  0  0  0
    3.3286    0.5756    4.7675 C   0  0  0  0  0  0  0  0  0  0  0  0
    2.3278    0.1750    4.5752 H   0  0  0  0  0  0  0  0  0  0  0  0
    3.9406   -0.1974    5.2281 H   0  0  0  0  0  0  0  0  0  0  0  0
    3.7897    0.8877    3.8260 H   0  0  0  0  0  0  0  0  0  0  0  0
    3.2917    1.6316    5.7007 O   0  0  0  0  0  0  0  0  0  0  0  0
    3.6290    4.5709    8.3725 C   0  0  0  0  0  0  0  0  0  0  0  0
    4.1489    5.4456    7.9666 H   0  0  0  0  0  0  0  0  0  0  0  0
    4.2318    4.1325    9.1662 H   0  0  0  0  0  0  0  0  0  0  0  0
    2.6623    4.8824    8.7831 H   0  0  0  0  0  0  0  0  0  0  0  0
    3.4819    3.5613    7.4075 O   0  0  0  0  0  0  0  0  0  0  0  0
    3.1666    6.0650   -1.3791 Br  0  0  0  0  0  0  0  0  0  0  0  0
    5.1382    3.5682   -1.5285 N   0  0  0  0  0  4  0  0  0  0  0  0
    4.7243    3.7862   -2.4444 H   0  0  0  0  0  0  0  0  0  0  0  0
    5.3219    2.5597   -1.4925 H   0  0  0  0  0  0  0  0  0  0  0  0
    6.4060    4.3043   -1.4164 C   0  0  0  0  0  0  0  0  0  0  0  0
    6.1727    5.3763   -1.3510 H   0  0  0  0  0  0  0  0  0  0  0  0
    6.9151    3.9948   -0.4942 H   0  0  0  0  0  0  0  0  0  0  0  0
    7.3113    4.0513   -2.6309 C   0  0  0  0  0  0  0  0  0  0  0  0
    7.7031    3.0325   -2.5908 H   0  0  0  0  0  0  0  0  0  0  0  0
    8.1589    4.7379   -2.5807 H   0  0  0  0  0  0  0  0  0  0  0  0
    6.5576    4.2456   -3.9227 C   0  0  0  0  0  0  0  0  0  0  0  0
    5.9366    5.4659   -4.1967 C   0  0  0  0  0  0  0  0  0  0  0  0
    6.0289    6.2740   -3.4895 H   0  0  0  0  0  0  0  0  0  0  0  0
    5.2085    5.6540   -5.3577 C   0  0  0  0  0  0  0  0  0  0  0  0
    5.1041    4.5927   -6.2894 C   0  0  0  0  0  0  0  0  0  0  0  0
    5.7207    3.3873   -6.0111 C   0  0  0  0  0  0  0  0  0  0  0  0
    5.6523    2.5633   -6.7029 H   0  0  0  0  0  0  0  0  0  0  0  0
    6.4349    3.2135   -4.8317 C   0  0  0  0  0  0  0  0  0  0  0  0
    6.9036    2.2597   -4.6375 H   0  0  0  0  0  0  0  0  0  0  0  0
    4.5301    7.8522   -4.7671 C   0  0  0  0  0  0  0  0  0  0  0  0
    5.5306    8.2533   -4.5739 H   0  0  0  0  0  0  0  0  0  0  0  0
    3.9181    8.6251   -5.2278 H   0  0  0  0  0  0  0  0  0  0  0  0
    4.0685    7.5395   -3.8261 H   0  0  0  0  0  0  0  0  0  0  0  0
    4.5683    6.7965   -5.7006 O   0  0  0  0  0  0  0  0  0  0  0  0
    4.2352    3.8582   -8.3740 C   0  0  0  0  0  0  0  0  0  0  0  0
    3.7156    2.9828   -7.9689 H   0  0  0  0  0  0  0  0  0  0  0  0
    3.6328    4.2966   -9.1679 H   0  0  0  0  0  0  0  0  0  0  0  0
    5.2025    3.5477   -8.7840 H   0  0  0  0  0  0  0  0  0  0  0  0
    4.3808    4.8676   -7.4084 O   0  0  0  0  0  0  0  0  0  0  0  0
  1  2  1  0  0  0  0
  1  3  1  0  0  0  0
  3  4  1  0  0  0  0
  5  3  1  0  0  0  0
  6  3  1  0  0  0  0
  6  9  1  0  0  0  0
  7  6  1  0  0  0  0
  8  6  1  0  0  0  0
  9 12  1  0  0  0  0
 10  9  1  0  0  0  0
 11  9  1  0  0  0  0
 12 13  2  0  0  0  0
 12 19  1  0  0  0  0
 13 15  1  0  0  0  0
 14 13  1  0  0  0  0
 15 25  1  0  0  0  0
 15 16  2  0  0  0  0
 16 30  1  0  0  0  0
 17 16  1  0  0  0  0
 17 18  1  0  0  0  0
 19 17  2  0  0  0  0
 20 19  1  0  0  0  0
 21 23  1  0  0  0  0
 21 25  1  0  0  0  0
 22 21  1  0  0  0  0
 24 21  1  0  0  0  0
 26 29  1  0  0  0  0
 26 28  1  0  0  0  0
 27 26  1  0  0  0  0
 30 26  1  0  0  0  0
 31  1  1  0  0  0  0
 32 34  1  0  0  0  0
 32 35  1  0  0  0  0
 32  1  1  0  0  0  0
 33 32  1  0  0  0  0
 35 36  1  0  0  0  0
 35 37  1  0  0  0  0
 38 39  1  0  0  0  0
 38 40  1  0  0  0  0
 38 35  1  0  0  0  0
 41 38  1  0  0  0  0
 42 41  1  0  0  0  0
 42 43  1  0  0  0  0
 44 42  2  0  0  0  0
 45 46  2  0  0  0  0
 45 44  1  0  0  0  0
 46 48  1  0  0  0  0
 47 46  1  0  0  0  0
 48 49  1  0  0  0  0
 48 41  2  0  0  0  0
 50 51  1  0  0  0  0
 50 53  1  0  0  0  0
 52 50  1  0  0  0  0
 54 44  1  0  0  0  0
 54 50  1  0  0  0  0
 55 56  1  0  0  0  0
 55 59  1  0  0  0  0
 57 55  1  0  0  0  0
 58 55  1  0  0  0  0
 59 45  1  0  0  0  0
M  END
$$$$
