CSD_code = CESDAG | q = 0 | S = 0 | Stoichiometry = C17H21BCl2N6S3Zr | MND = 10
 OpenBabel04212202023D

 51 53  0  0  1  0  0  0  0  0999 V2000
   12.1442    9.4285    1.6236 C   0  0  0  0  0  0  0  0  0  0  0  0
   12.6110    8.8467    0.8386 H   0  0  0  0  0  0  0  0  0  0  0  0
   12.1179   10.8324    1.7069 C   0  0  0  0  0  0  0  0  0  0  0  0
   12.5594   11.5195    0.9966 H   0  0  0  0  0  0  0  0  0  0  0  0
   11.4986   11.1918    2.9206 C   0  0  0  0  0  0  0  0  0  0  0  0
   11.4151   12.2018    3.3029 H   0  0  0  0  0  0  0  0  0  0  0  0
   11.1519   10.0009    3.6013 C   0  0  2  0  0  0  0  0  0  0  0  0
   10.7668    9.9210    4.6112 H   0  0  0  0  0  0  0  0  0  0  0  0
   11.5494    8.9087    2.7935 C   0  0  0  0  0  0  0  0  0  0  0  0
   11.4931    7.8622    3.0690 H   0  0  0  0  0  0  0  0  0  0  0  0
    9.6420   10.0179    1.6361 Zr  0  0  0  0  0  0  0  0  0  0  0  0
    9.7544    8.1963    0.1312 Cl  0  0  0  0  0  0  0  0  0  0  0  0
    9.7894   11.6888   -0.0316 Cl  0  0  0  0  0  0  0  0  0  0  0  0
    5.4873   10.1310    3.4289 B   0  0  0  0  0  0  0  0  0  0  0  0
    4.4055   10.1513    3.9231 H   0  0  0  0  0  0  0  0  0  0  0  0
    8.4377    8.4110    3.4652 S   0  0  0  0  0  0  0  0  0  0  0  0
    7.1665    9.8506    0.4843 S   0  0  0  0  0  0  0  0  0  0  0  0
    8.3473   11.9837    3.0506 S   0  0  0  0  0  0  0  0  0  0  0  0
    5.7652    8.7116    2.9026 N   0  0  0  0  0  0  0  0  0  0  0  0
    6.6966    6.8820    2.1314 N   0  0  0  0  0  0  0  0  0  0  0  0
    5.5211   11.1400    2.2692 N   0  0  0  0  0  0  0  0  0  0  0  0
    5.9569   12.2394    0.4222 N   0  0  0  0  0  0  0  0  0  0  0  0
    6.5187   10.5319    4.5070 N   0  0  0  0  0  0  0  0  0  0  0  0
    8.1698   11.3892    5.6647 N   0  0  0  0  0  0  0  0  0  0  0  0
    6.9212    8.0291    2.8044 C   0  0  0  0  0  0  0  0  0  0  0  0
    4.8102    7.9832    2.2437 C   0  0  0  0  0  0  0  0  0  0  0  0
    3.8030    8.3349    2.1694 H   0  0  0  0  0  0  0  0  0  0  0  0
    5.3812    6.8533    1.7648 C   0  0  0  0  0  0  0  0  0  0  0  0
    4.9665    6.0458    1.1985 H   0  0  0  0  0  0  0  0  0  0  0  0
    7.7117    5.9181    1.8111 C   0  0  0  0  0  0  0  0  0  0  0  0
    8.1907    5.5703    2.7279 H   0  0  0  0  0  0  0  0  0  0  0  0
    8.4732    6.3829    1.1747 H   0  0  0  0  0  0  0  0  0  0  0  0
    7.2570    5.0808    1.2885 H   0  0  0  0  0  0  0  0  0  0  0  0
    6.2011   11.0994    1.1047 C   0  0  0  0  0  0  0  0  0  0  0  0
    4.8669   12.3432    2.3164 C   0  0  0  0  0  0  0  0  0  0  0  0
    4.2679   12.6134    3.1602 H   0  0  0  0  0  0  0  0  0  0  0  0
    5.1327   13.0242    1.1776 C   0  0  0  0  0  0  0  0  0  0  0  0
    4.8105   13.9910    0.8510 H   0  0  0  0  0  0  0  0  0  0  0  0
    6.5090   12.5490   -0.8667 C   0  0  0  0  0  0  0  0  0  0  0  0
    7.5979   12.4506   -0.8328 H   0  0  0  0  0  0  0  0  0  0  0  0
    6.2392   13.5670   -1.1358 H   0  0  0  0  0  0  0  0  0  0  0  0
    6.1254   11.8518   -1.6139 H   0  0  0  0  0  0  0  0  0  0  0  0
    7.6474   11.2613    4.4203 C   0  0  0  0  0  0  0  0  0  0  0  0
    6.3584   10.1741    5.8189 C   0  0  0  0  0  0  0  0  0  0  0  0
    5.5309    9.5714    6.1277 H   0  0  0  0  0  0  0  0  0  0  0  0
    7.3728   10.7007    6.5399 C   0  0  0  0  0  0  0  0  0  0  0  0
    7.5953   10.6469    7.5851 H   0  0  0  0  0  0  0  0  0  0  0  0
    9.3350   12.1486    6.0163 C   0  0  0  0  0  0  0  0  0  0  0  0
    9.7216   12.6149    5.1105 H   0  0  0  0  0  0  0  0  0  0  0  0
   10.0982   11.5020    6.4519 H   0  0  0  0  0  0  0  0  0  0  0  0
    9.0726   12.9250    6.7365 H   0  0  0  0  0  0  0  0  0  0  0  0
  1  3  1  0  0  0  0
  1  9  2  0  0  0  0
  2  1  1  0  0  0  0
  3  5  2  0  0  0  0
  4  3  1  0  0  0  0
  5  6  1  0  0  0  0
  5  7  1  0  0  0  0
  7  8  1  1  0  0  0
  9 10  1  0  0  0  0
  9  7  1  0  0  0  0
 11  7  1  0  0  0  0
 12 11  1  0  0  0  0
 13 11  1  0  0  0  0
 14 15  1  0  0  0  0
 14 23  1  0  0  0  0
 17 34  2  0  0  0  0
 18 43  2  0  0  0  0
 19 14  1  0  0  0  0
 20 25  1  0  0  0  0
 21 35  1  0  0  0  0
 21 14  1  0  0  0  0
 22 34  1  0  0  0  0
 22 37  1  0  0  0  0
 23 44  1  0  0  0  0
 24 48  1  0  0  0  0
 24 46  1  0  0  0  0
 25 19  1  0  0  0  0
 25 16  2  0  0  0  0
 26 19  1  0  0  0  0
 27 26  1  0  0  0  0
 28 20  1  0  0  0  0
 28 26  2  0  0  0  0
 29 28  1  0  0  0  0
 30 20  1  0  0  0  0
 30 31  1  0  0  0  0
 32 30  1  0  0  0  0
 33 30  1  0  0  0  0
 34 21  1  0  0  0  0
 35 36  1  0  0  0  0
 37 35  2  0  0  0  0
 38 37  1  0  0  0  0
 39 40  1  0  0  0  0
 39 22  1  0  0  0  0
 41 39  1  0  0  0  0
 42 39  1  0  0  0  0
 43 23  1  0  0  0  0
 43 24  1  0  0  0  0
 44 45  1  0  0  0  0
 44 46  2  0  0  0  0
 46 47  1  0  0  0  0
 48 50  1  0  0  0  0
 48 51  1  0  0  0  0
 49 48  1  0  0  0  0
M  END
$$$$
