CSD_code = CESFUD | q = 0 | S = 0 | Stoichiometry = C12H14Cl2N2PtSi | MND = 4
 OpenBabel04212202023D

 32 34  0  0  1  0  0  0  0  0999 V2000
    1.0226    2.7101    4.3214 Pt  0  0  0  0  0  0  0  0  0  0  0  0
    0.8103    0.8236    3.0843 Cl  0  0  0  0  0  0  0  0  0  0  0  0
    2.3990    1.6937    5.8073 Cl  0  0  0  0  0  0  0  0  0  0  0  0
    1.2679    4.3749    5.3897 N   0  0  0  0  0  0  0  0  0  0  0  0
    1.0369    4.4160    6.7000 C   0  0  0  0  0  3  0  0  0  0  0  0
    0.5887    3.5352    7.1405 H   0  0  0  0  0  0  0  0  0  0  0  0
    1.3647    5.5167    7.4701 C   0  0  0  0  0  0  0  0  0  0  0  0
    1.1650    5.5107    8.5295 H   0  0  0  0  0  0  0  0  0  0  0  0
    1.9583    6.6090    6.8562 C   0  0  0  0  0  0  0  0  0  0  0  0
    2.2377    7.4807    7.4286 H   0  0  0  0  0  0  0  0  0  0  0  0
    2.1898    6.5529    5.4914 C   0  0  0  0  0  0  0  0  0  0  0  0
    2.6540    7.3788    4.9769 H   0  0  0  0  0  0  0  0  0  0  0  0
    1.8354    5.4202    4.7721 C   0  0  0  0  0  0  0  0  0  0  0  0
    2.1124    5.2038    2.8901 Si  0  0  0  0  0  0  0  0  0  0  0  0
    2.5070    6.8970    2.1206 C   0  0  0  0  0  0  0  0  0  0  0  0
    3.4584    7.2695    2.4841 H   0  0  0  0  0  0  0  0  0  0  0  0
    1.7502    7.6426    2.3435 H   0  0  0  0  0  0  0  0  0  0  0  0
    2.5886    6.8177    1.0421 H   0  0  0  0  0  0  0  0  0  0  0  0
    3.4525    3.9079    2.5183 C   0  0  0  0  0  0  0  0  0  0  0  0
    3.5561    3.7462    1.4492 H   0  0  0  0  0  0  0  0  0  0  0  0
    3.2103    2.9442    2.9760 H   0  0  0  0  0  0  0  0  0  0  0  0
    4.4183    4.2209    2.9048 H   0  0  0  0  0  0  0  0  0  0  0  0
    0.3841    4.6331    2.2960 C   0  0  1  0  0  3  0  0  0  0  0  0
   -0.3081    5.2023    1.2364 C   0  0  0  0  0  0  0  0  0  0  0  0
    0.1370    6.0228    0.6973 H   0  0  0  0  0  0  0  0  0  0  0  0
   -1.5507    4.7084    0.8739 C   0  0  0  0  0  0  0  0  0  0  0  0
   -2.0955    5.1368    0.0462 H   0  0  0  0  0  0  0  0  0  0  0  0
   -2.0750    3.6469    1.5954 C   0  0  0  0  0  0  0  0  0  0  0  0
   -3.0368    3.2253    1.3513 H   0  0  0  0  0  0  0  0  0  0  0  0
   -1.3363    3.1213    2.6394 C   0  0  0  0  0  0  0  0  0  0  0  0
   -1.6988    2.2818    3.2177 H   0  0  0  0  0  0  0  0  0  0  0  0
   -0.1426    3.6052    2.9756 N   0  0  0  0  0  0  0  0  0  0  0  0
  1  4  1  0  0  0  0
  1  3  1  0  0  0  0
  2  1  1  0  0  0  0
  4  5  1  0  0  0  0
  5  6  1  0  0  0  0
  5  7  1  0  0  0  0
  7  8  1  0  0  0  0
  9 10  1  0  0  0  0
  9  7  2  0  0  0  0
 11  9  1  0  0  0  0
 12 11  1  0  0  0  0
 13  4  1  0  0  0  0
 13 11  2  0  0  0  0
 14 13  1  0  0  0  0
 15 17  1  0  0  0  0
 15 16  1  0  0  0  0
 15 14  1  0  0  0  0
 18 15  1  0  0  0  0
 19 14  1  0  0  0  0
 19 22  1  0  0  0  0
 19 21  1  0  0  0  0
 20 19  1  0  0  0  0
 23 24  1  6  0  0  0
 23 14  1  0  0  0  0
 23 32  1  0  0  0  0
 25 24  1  0  0  0  0
 26 24  2  0  0  0  0
 26 28  1  0  0  0  0
 27 26  1  0  0  0  0
 28 30  2  0  0  0  0
 29 28  1  0  0  0  0
 30 32  1  0  0  0  0
 30 31  1  0  0  0  0
 32  1  1  0  0  0  0
M  END
$$$$
