CSD_code = CESGEO | q = 0 | S = 0 | Stoichiometry = C13H19IN2Pt | MND = 6
 OpenBabel04212202023D

 36 37  0  0  0  0  0  0  0  0999 V2000
   11.0405    6.5173    3.1449 Pt  0  0  0  0  0  0  0  0  0  0  0  0
    8.7803    5.0707    3.6777 I   0  0  0  0  0  0  0  0  0  0  0  0
   11.4248    5.3178    1.5181 C   0  0  0  0  0  0  0  0  0  0  0  0
   12.3123    5.6066    0.9530 H   0  0  0  0  0  0  0  0  0  0  0  0
   10.5518    5.3738    0.8605 H   0  0  0  0  0  0  0  0  0  0  0  0
   11.5412    4.2789    1.8331 H   0  0  0  0  0  0  0  0  0  0  0  0
   12.2854    5.3186    4.2651 C   0  0  0  0  0  0  0  0  0  0  0  0
   11.7572    4.4072    4.5502 H   0  0  0  0  0  0  0  0  0  0  0  0
   12.5742    5.8581    5.1715 H   0  0  0  0  0  0  0  0  0  0  0  0
   13.1938    5.0356    3.7332 H   0  0  0  0  0  0  0  0  0  0  0  0
   12.7128    7.6745    2.7685 C   0  0  0  0  0  0  0  0  0  0  0  0
   13.1134    8.0564    3.7097 H   0  0  0  0  0  0  0  0  0  0  0  0
   12.4255    8.5302    2.1522 H   0  0  0  0  0  0  0  0  0  0  0  0
   13.5204    7.1527    2.2578 H   0  0  0  0  0  0  0  0  0  0  0  0
   10.5698    7.8378    4.9347 N   0  0  0  0  0  0  0  0  0  0  0  0
   10.2228    7.2861    6.0929 C   0  0  0  0  0  3  0  0  0  0  0  0
   10.2417    6.2061    6.1443 H   0  0  0  0  0  0  0  0  0  0  0  0
    9.8339    8.0323    7.1931 C   0  0  0  0  0  0  0  0  0  0  0  0
    9.5573    7.5344    8.1086 H   0  0  0  0  0  0  0  0  0  0  0  0
    9.8005    9.4126    7.0866 C   0  0  0  0  0  0  0  0  0  0  0  0
    9.4949   10.0263    7.9207 H   0  0  0  0  0  0  0  0  0  0  0  0
   10.1694    9.9882    5.8808 C   0  0  0  0  0  0  0  0  0  0  0  0
   10.1629   11.0587    5.7469 H   0  0  0  0  0  0  0  0  0  0  0  0
   10.5491    9.1626    4.8369 C   0  0  0  0  0  0  0  0  0  0  0  0
   10.8460    9.5865    3.8862 H   0  0  0  0  0  0  0  0  0  0  0  0
    9.7286    7.9058    1.8740 N   0  0  0  0  0  0  0  0  0  0  0  0
    8.5564    8.3404    2.3234 C   0  0  0  0  0  3  0  0  0  0  0  0
    8.3015    8.1030    3.3475 H   0  0  0  0  0  0  0  0  0  0  0  0
    7.6656    9.0535    1.5395 C   0  0  0  0  0  0  0  0  0  0  0  0
    6.7247    9.3776    1.9547 H   0  0  0  0  0  0  0  0  0  0  0  0
    8.0026    9.3230    0.2234 C   0  0  0  0  0  0  0  0  0  0  0  0
    7.3281    9.8666   -0.4211 H   0  0  0  0  0  0  0  0  0  0  0  0
    9.2265    8.8742   -0.2460 C   0  0  0  0  0  0  0  0  0  0  0  0
    9.5363    9.0562   -1.2630 H   0  0  0  0  0  0  0  0  0  0  0  0
   10.0553    8.1736    0.6137 C   0  0  0  0  0  0  0  0  0  0  0  0
   11.0161    7.8100    0.2748 H   0  0  0  0  0  0  0  0  0  0  0  0
  1  2  1  0  0  0  0
  1  7  1  0  0  0  0
  1 15  1  0  0  0  0
  3  6  1  0  0  0  0
  3  1  1  0  0  0  0
  4  3  1  0  0  0  0
  5  3  1  0  0  0  0
  7  8  1  0  0  0  0
  7  9  1  0  0  0  0
 10  7  1  0  0  0  0
 11  1  1  0  0  0  0
 11 12  1  0  0  0  0
 13 11  1  0  0  0  0
 14 11  1  0  0  0  0
 15 16  1  0  0  0  0
 16 17  1  0  0  0  0
 16 18  1  0  0  0  0
 18 19  1  0  0  0  0
 20 18  2  0  0  0  0
 20 21  1  0  0  0  0
 22 20  1  0  0  0  0
 23 22  1  0  0  0  0
 24 15  1  0  0  0  0
 24 22  2  0  0  0  0
 25 24  1  0  0  0  0
 26 27  1  0  0  0  0
 26  1  1  0  0  0  0
 27 28  1  0  0  0  0
 29 30  1  0  0  0  0
 29 27  1  0  0  0  0
 31 29  2  0  0  0  0
 32 31  1  0  0  0  0
 33 31  1  0  0  0  0
 33 35  2  0  0  0  0
 34 33  1  0  0  0  0
 35 26  1  0  0  0  0
 36 35  1  0  0  0  0
M  END
$$$$
