CSD_code = CESNEU | q = 0 | S = 0 | Stoichiometry = C21H15AuCl2N2 | MND = 4
 OpenBabel04212202023D

 41 45  0  0  1  0  0  0  0  0999 V2000
    0.1098   11.9478   -3.8050 Au  0  0  0  0  0  0  0  0  0  0  0  0
   -0.4679   13.6932   -5.0764 Cl  0  0  0  0  0  0  0  0  0  0  0  0
   -0.3103   10.6103   -5.5485 Cl  0  0  0  0  0  0  0  0  0  0  0  0
    0.5463   12.9664   -2.1661 N   0  0  0  0  0  0  0  0  0  0  0  0
    0.8382   10.4266   -2.6626 N   0  0  0  0  0  0  0  0  0  0  0  0
    2.5329   13.3248    2.0461 C   0  0  0  0  0  0  0  0  0  0  0  0
    1.6047   13.8394    2.2460 H   0  0  0  0  0  0  0  0  0  0  0  0
    3.4431   13.1063    3.0637 C   0  0  0  0  0  0  0  0  0  0  0  0
    3.2268   13.4579    4.0618 H   0  0  0  0  0  0  0  0  0  0  0  0
    4.6305   12.4414    2.8059 C   0  0  0  0  0  0  0  0  0  0  0  0
    5.3415   12.2736    3.6010 H   0  0  0  0  0  0  0  0  0  0  0  0
    4.9072   11.9993    1.5224 C   0  0  0  0  0  0  0  0  0  0  0  0
    5.8379   11.4925    1.3135 H   0  0  0  0  0  0  0  0  0  0  0  0
    3.9972   12.2100    0.5032 C   0  0  0  0  0  0  0  0  0  0  0  0
    4.2218   11.8847   -0.5030 H   0  0  0  0  0  0  0  0  0  0  0  0
    2.7947   12.8693    0.7559 C   0  0  0  0  0  0  0  0  0  0  0  0
    1.4458   10.8652   -1.5290 C   0  0  0  0  0  0  0  0  0  0  0  0
    1.3757   12.2592   -1.3156 C   0  0  0  0  0  0  0  0  0  0  0  0
    1.8473   13.1354   -0.3213 C   0  0  0  0  0  0  0  0  0  0  0  0
    1.2631   14.3733   -0.5939 C   0  0  0  0  0  0  0  0  0  0  0  0
    1.3909   15.2760   -0.0296 H   0  0  0  0  0  0  0  0  0  0  0  0
    0.4652   14.2387   -1.7298 C   0  0  2  0  0  3  0  0  0  0  0  0
    2.0192    9.9264   -0.6508 C   0  0  0  0  0  0  0  0  0  0  0  0
    2.4752   10.2819    0.2585 H   0  0  0  0  0  0  0  0  0  0  0  0
   -0.4158   15.2519   -2.2916 C   0  0  0  0  0  0  0  0  0  0  0  0
    0.0365   16.5569   -2.4682 C   0  0  0  0  0  0  0  0  0  0  0  0
    1.0623   16.7990   -2.2315 H   0  0  0  0  0  0  0  0  0  0  0  0
   -0.8122   17.5248   -2.9711 C   0  0  0  0  0  0  0  0  0  0  0  0
   -0.4503   18.5316   -3.1196 H   0  0  0  0  0  0  0  0  0  0  0  0
   -2.1217   17.2051   -3.2886 C   0  0  0  0  0  0  0  0  0  0  0  0
   -2.7825   17.9622   -3.6840 H   0  0  0  0  0  0  0  0  0  0  0  0
   -2.5835   15.9130   -3.0983 C   0  0  0  0  0  0  0  0  0  0  0  0
   -3.6053   15.6618   -3.3411 H   0  0  0  0  0  0  0  0  0  0  0  0
   -1.7381   14.9404   -2.6024 C   0  0  0  0  0  0  0  0  0  0  0  0
   -2.0976   13.9330   -2.4445 H   0  0  0  0  0  0  0  0  0  0  0  0
    0.7949    9.1279   -2.9593 C   0  0  0  0  0  0  0  0  0  0  0  0
    0.3021    8.8748   -3.8872 H   0  0  0  0  0  0  0  0  0  0  0  0
    1.9723    8.5908   -0.9574 C   0  0  0  0  0  0  0  0  0  0  0  0
    2.4063    7.8634   -0.2884 H   0  0  0  0  0  0  0  0  0  0  0  0
    1.3523    8.1760   -2.1405 C   0  0  0  0  0  0  0  0  0  0  0  0
    1.3012    7.1354   -2.4124 H   0  0  0  0  0  0  0  0  0  0  0  0
  1  5  1  0  0  0  0
  1  4  1  0  0  0  0
  2  1  1  0  0  0  0
  3  1  1  0  0  0  0
  4 22  1  0  0  0  0
  4 18  1  0  0  0  0
  5 17  1  0  0  0  0
  6  7  1  0  0  0  0
  6  8  1  0  0  0  0
  8  9  1  0  0  0  0
 10  8  2  0  0  0  0
 10 11  1  0  0  0  0
 12 10  1  0  0  0  0
 13 12  1  0  0  0  0
 14 16  1  0  0  0  0
 14 12  2  0  0  0  0
 15 14  1  0  0  0  0
 16  6  2  0  0  0  0
 17 18  2  0  0  0  0
 17 23  1  0  0  0  0
 18 19  1  0  0  0  0
 19 16  1  0  0  0  0
 20 19  2  0  0  0  0
 20 21  1  0  0  0  0
 22 25  1  1  0  0  0
 22 20  1  0  0  0  0
 23 24  1  0  0  0  0
 26 25  1  0  0  0  0
 26 27  1  0  0  0  0
 28 26  2  0  0  0  0
 29 28  1  0  0  0  0
 30 32  2  0  0  0  0
 30 28  1  0  0  0  0
 31 30  1  0  0  0  0
 32 34  1  0  0  0  0
 33 32  1  0  0  0  0
 34 35  1  0  0  0  0
 34 25  2  0  0  0  0
 36  5  1  0  0  0  0
 36 40  2  0  0  0  0
 37 36  1  0  0  0  0
 38 23  2  0  0  0  0
 38 39  1  0  0  0  0
 40 38  1  0  0  0  0
 41 40  1  0  0  0  0
M  END
$$$$
