CSD_code = CETCUA | q = 0 | S = 0 | Stoichiometry = C30H33BCl2N8Ru | MND = 6
 OpenBabel04212202023D

 75 83  0  0  1  0  0  0  0  0999 V2000
    1.2268    3.1943    3.6124 Ru  0  0  0  0  0  0  0  0  0  0  0  0
    0.5464    3.5292    1.3926 Cl  0  0  0  0  0  0  0  0  0  0  0  0
   -1.6235    1.2264    7.2164 Cl  0  0  0  0  0  0  0  0  0  0  0  0
   -0.6200    1.9184    5.8738 B   0  0  2  0  0  0  0  0  0  0  0  0
    0.7843    2.2566    6.3854 N   0  0  0  0  0  0  0  0  0  0  0  0
    1.6714    2.8270    5.5666 N   0  0  2  0  0  0  0  0  0  0  0  0
    2.7123    3.1982    6.2999 C   0  0  0  0  0  3  0  0  0  0  0  0
    3.5524    3.6990    5.8526 H   0  0  0  0  0  0  0  0  0  0  0  0
    2.4973    2.8526    7.6347 C   0  0  0  0  0  0  0  0  0  0  0  0
    3.1510    3.0152    8.4664 H   0  0  0  0  0  0  0  0  0  0  0  0
    1.2570    2.2568    7.6456 C   0  0  0  0  0  0  0  0  0  0  0  0
    0.6874    1.8427    8.4522 H   0  0  0  0  0  0  0  0  0  0  0  0
   -1.2331    3.2262    5.3423 N   0  0  0  0  0  0  0  0  0  0  0  0
   -0.6094    3.8756    4.3504 N   0  0  2  0  0  0  0  0  0  0  0  0
   -1.3636    4.9043    4.0055 C   0  0  0  0  0  3  0  0  0  0  0  0
   -1.0613    5.5654    3.2137 H   0  0  0  0  0  0  0  0  0  0  0  0
   -2.5152    4.9305    4.7954 C   0  0  0  0  0  0  0  0  0  0  0  0
   -3.3183    5.6368    4.7573 H   0  0  0  0  0  0  0  0  0  0  0  0
   -2.3928    3.8436    5.6309 C   0  0  0  0  0  0  0  0  0  0  0  0
   -3.0416    3.4731    6.3987 H   0  0  0  0  0  0  0  0  0  0  0  0
   -0.5610    0.9606    4.6824 N   0  0  0  0  0  0  0  0  0  0  0  0
    0.0411    1.3612    3.5491 N   0  0  1  0  0  0  0  0  0  0  0  0
   -0.3802    0.5721    2.5778 C   0  0  0  0  0  3  0  0  0  0  0  0
   -0.0730    0.7338    1.5640 H   0  0  0  0  0  0  0  0  0  0  0  0
   -1.2608   -0.3851    3.0853 C   0  0  0  0  0  0  0  0  0  0  0  0
   -1.7616   -1.1625    2.5464 H   0  0  0  0  0  0  0  0  0  0  0  0
   -1.3509   -0.0995    4.4264 C   0  0  0  0  0  0  0  0  0  0  0  0
   -1.9205   -0.5649    5.2053 H   0  0  0  0  0  0  0  0  0  0  0  0
    3.0024    2.6249    2.9471 C   0  0  1  0  0  3  0  0  0  0  0  0
    3.8213    3.3830    2.1913 N   0  0  0  0  0  0  0  0  0  0  0  0
    3.6551    1.4973    3.2899 N   0  0  0  0  0  0  0  0  0  0  0  0
    5.1281    2.7512    1.9868 C   0  0  0  0  0  0  0  0  0  0  0  0
    5.9247    3.4367    2.2844 H   0  0  0  0  0  0  0  0  0  0  0  0
    5.2715    2.4729    0.9419 H   0  0  0  0  0  0  0  0  0  0  0  0
    5.0540    1.5101    2.8748 C   0  0  0  0  0  0  0  0  0  0  0  0
    5.3149    0.5914    2.3448 H   0  0  0  0  0  0  0  0  0  0  0  0
    5.6993    1.5879    3.7580 H   0  0  0  0  0  0  0  0  0  0  0  0
    3.6024    4.7209    1.8562 C   0  0  0  0  0  0  0  0  0  0  0  0
    2.8236    5.5240    2.7375 C   0  0  0  0  0  0  0  0  0  0  0  0
    2.8136    6.9199    2.5489 C   0  0  0  0  0  0  0  0  0  0  0  0
    2.2457    7.5224    3.2438 H   0  0  0  0  0  0  0  0  0  0  0  0
    3.4458    7.5134    1.4812 C   0  0  0  0  0  0  0  0  0  0  0  0
    4.0805    6.6851    0.5582 C   0  0  0  0  0  0  0  0  0  0  0  0
    4.5135    7.1316   -0.3258 H   0  0  0  0  0  0  0  0  0  0  0  0
    4.1675    5.3102    0.7175 C   0  0  0  0  0  0  0  0  0  0  0  0
    1.9860    4.9421    3.7115 C   0  0  0  0  0  3  0  0  0  0  0  0
    1.6098    5.6749    4.4424 H   0  0  0  0  0  0  0  0  0  0  0  0
    3.4104    8.9958    1.2664 C   0  0  0  0  0  0  0  0  0  0  0  0
    3.0597    9.5089    2.1581 H   0  0  0  0  0  0  0  0  0  0  0  0
    2.7375    9.2378    0.4440 H   0  0  0  0  0  0  0  0  0  0  0  0
    4.3999    9.3700    1.0097 H   0  0  0  0  0  0  0  0  0  0  0  0
    4.7782    4.5213   -0.4068 C   0  0  0  0  0  0  0  0  0  0  0  0
    4.7489    5.1171   -1.3161 H   0  0  0  0  0  0  0  0  0  0  0  0
    4.2067    3.6139   -0.5855 H   0  0  0  0  0  0  0  0  0  0  0  0
    5.8206    4.2674   -0.2149 H   0  0  0  0  0  0  0  0  0  0  0  0
    2.9968    0.2455    3.4535 C   0  0  0  0  0  0  0  0  0  0  0  0
    2.9799   -0.4041    4.6847 C   0  0  0  0  0  0  0  0  0  0  0  0
    2.2980   -1.6093    4.7931 C   0  0  0  0  0  0  0  0  0  0  0  0
    2.2584   -2.1006    5.7549 H   0  0  0  0  0  0  0  0  0  0  0  0
    1.6796   -2.1942    3.7004 C   0  0  0  0  0  0  0  0  0  0  0  0
    1.7785   -1.5652    2.4667 C   0  0  0  0  0  0  0  0  0  0  0  0
    1.3296   -2.0290    1.6001 H   0  0  0  0  0  0  0  0  0  0  0  0
    2.4273   -0.3497    2.3210 C   0  0  0  0  0  0  0  0  0  0  0  0
    3.7208    0.1299    5.8722 C   0  0  0  0  0  0  0  0  0  0  0  0
    4.0305    1.1581    5.7135 H   0  0  0  0  0  0  0  0  0  0  0  0
    4.6082   -0.4789    6.0501 H   0  0  0  0  0  0  0  0  0  0  0  0
    3.1013    0.0826    6.7654 H   0  0  0  0  0  0  0  0  0  0  0  0
    0.9078   -3.4687    3.8481 C   0  0  0  0  0  0  0  0  0  0  0  0
    0.9037   -4.0321    2.9182 H   0  0  0  0  0  0  0  0  0  0  0  0
   -0.1258   -3.2392    4.1092 H   0  0  0  0  0  0  0  0  0  0  0  0
    1.3248   -4.0888    4.6381 H   0  0  0  0  0  0  0  0  0  0  0  0
    2.5235    0.3073    0.9769 C   0  0  0  0  0  0  0  0  0  0  0  0
    1.9711   -0.2639    0.2353 H   0  0  0  0  0  0  0  0  0  0  0  0
    3.5622    0.3680    0.6507 H   0  0  0  0  0  0  0  0  0  0  0  0
    2.1190    1.3209    1.0071 H   0  0  0  0  0  0  0  0  0  0  0  0
  1 46  1  0  0  0  0
  1 14  1  0  0  0  0
  1  6  1  0  0  0  0
  2  1  1  0  0  0  0
  4  5  1  0  0  0  0
  4  3  1  1  0  0  0
  5 11  1  0  0  0  0
  6  7  1  1  0  0  0
  6  5  1  0  0  0  0
  7  9  1  0  0  0  0
  8  7  1  0  0  0  0
  9 11  2  0  0  0  0
  9 10  1  0  0  0  0
 11 12  1  0  0  0  0
 13 19  1  0  0  0  0
 13  4  1  0  0  0  0
 14 15  1  6  0  0  0
 14 13  1  0  0  0  0
 15 17  1  0  0  0  0
 16 15  1  0  0  0  0
 17 19  2  0  0  0  0
 18 17  1  0  0  0  0
 19 20  1  0  0  0  0
 21  4  1  0  0  0  0
 22 23  1  6  0  0  0
 22  1  1  0  0  0  0
 22 21  1  0  0  0  0
 23 25  1  0  0  0  0
 24 23  1  0  0  0  0
 25 27  2  0  0  0  0
 26 25  1  0  0  0  0
 27 21  1  0  0  0  0
 27 28  1  0  0  0  0
 29 30  1  1  0  0  0
 29 31  1  0  0  0  0
 29  1  1  0  0  0  0
 31 56  1  0  0  0  0
 32 30  1  0  0  0  0
 32 33  1  0  0  0  0
 32 35  1  0  0  0  0
 34 32  1  0  0  0  0
 35 31  1  0  0  0  0
 35 37  1  0  0  0  0
 36 35  1  0  0  0  0
 38 30  1  0  0  0  0
 38 39  1  0  0  0  0
 39 46  1  0  0  0  0
 40 39  2  0  0  0  0
 40 41  1  0  0  0  0
 42 40  1  0  0  0  0
 43 45  1  0  0  0  0
 43 42  2  0  0  0  0
 44 43  1  0  0  0  0
 45 38  2  0  0  0  0
 46 47  1  0  0  0  0
 48 42  1  0  0  0  0
 48 49  1  0  0  0  0
 50 48  1  0  0  0  0
 51 48  1  0  0  0  0
 52 55  1  0  0  0  0
 52 45  1  0  0  0  0
 53 52  1  0  0  0  0
 54 52  1  0  0  0  0
 56 57  1  0  0  0  0
 57 58  2  0  0  0  0
 57 64  1  0  0  0  0
 58 59  1  0  0  0  0
 60 68  1  0  0  0  0
 60 58  1  0  0  0  0
 61 60  2  0  0  0  0
 62 61  1  0  0  0  0
 63 61  1  0  0  0  0
 63 56  2  0  0  0  0
 64 66  1  0  0  0  0
 64 67  1  0  0  0  0
 65 64  1  0  0  0  0
 68 70  1  0  0  0  0
 68 71  1  0  0  0  0
 69 68  1  0  0  0  0
 72 75  1  0  0  0  0
 72 63  1  0  0  0  0
 73 72  1  0  0  0  0
 74 72  1  0  0  0  0
M  END
$$$$
