CSD_code = CETFEP | q = 0 | S = 0 | Stoichiometry = C8H6Br2I2N4OZn | MND = 4
 OpenBabel04212202023D

 24 24  0  0  0  0  0  0  0  0999 V2000
   -5.1374    0.3926    6.4579 Zn  0  0  0  0  0  0  0  0  0  0  0  0
   -6.1792    2.7208    5.8822 I   0  0  0  0  0  0  0  0  0  0  0  0
   -3.0815   -0.4140    7.5983 I   0  0  0  0  0  0  0  0  0  0  0  0
   -3.3752   -3.6837    2.5088 Br  0  0  0  0  0  0  0  0  0  0  0  0
   -7.5477   -3.6849   10.0490 Br  0  0  0  0  0  0  0  0  0  0  0  0
   -7.6417    1.8597    5.0735 O   0  0  0  0  0  1  0  0  0  0  0  0
   -6.4284   -0.9354    2.5429 N   0  0  0  0  0  0  0  0  0  0  0  0
   -5.2694   -0.6745    4.5676 N   0  0  0  0  0  0  0  0  0  0  0  0
   -9.1436   -0.9201    7.4635 N   0  0  0  0  0  0  0  0  0  0  0  0
   -6.8115   -0.6770    7.3485 N   0  0  0  0  0  0  0  0  0  0  0  0
   -6.2405   -0.3539    3.7078 C   0  0  0  0  0  3  0  0  0  0  0  0
   -5.6134   -1.9014    2.1747 C   0  0  0  0  0  0  0  0  0  0  0  0
   -4.5658   -2.3025    3.0017 C   0  0  0  0  0  0  0  0  0  0  0  0
   -4.4308   -1.6461    4.2160 C   0  0  0  0  0  0  0  0  0  0  0  0
   -8.0567   -0.3473    6.9934 C   0  0  0  0  0  3  0  0  0  0  0  0
   -9.0220   -1.8870    8.3485 C   0  0  0  0  0  0  0  0  0  0  0  0
   -7.7638   -2.2996    8.7831 C   0  0  0  0  0  0  0  0  0  0  0  0
   -6.6632   -1.6510    8.2430 C   0  0  0  0  0  0  0  0  0  0  0  0
   -6.9265    0.4506    3.9845 H   0  0  0  0  0  0  0  0  0  0  0  0
   -5.7940   -2.3611    1.2123 H   0  0  0  0  0  0  0  0  0  0  0  0
   -3.6384   -1.9042    4.9078 H   0  0  0  0  0  0  0  0  0  0  0  0
   -8.1872    0.4569    6.2653 H   0  0  0  0  0  0  0  0  0  0  0  0
   -9.9336   -2.3383    8.7166 H   0  0  0  0  0  0  0  0  0  0  0  0
   -5.6555   -1.9175    8.5373 H   0  0  0  0  0  0  0  0  0  0  0  0
  1 10  1  0  0  0  0
  1  3  1  0  0  0  0
  4 13  1  0  0  0  0
  6  2  1  0  0  0  0
  7 11  1  0  0  0  0
  8  1  1  0  0  0  0
  9 16  2  0  0  0  0
 10 18  1  0  0  0  0
 11 19  1  0  0  0  0
 11  8  1  0  0  0  0
 12  7  2  0  0  0  0
 12 13  1  0  0  0  0
 13 14  2  0  0  0  0
 14  8  1  0  0  0  0
 14 21  1  0  0  0  0
 15 10  1  0  0  0  0
 15  9  1  0  0  0  0
 16 23  1  0  0  0  0
 16 17  1  0  0  0  0
 17  5  1  0  0  0  0
 18 24  1  0  0  0  0
 18 17  2  0  0  0  0
 20 12  1  0  0  0  0
 22 15  1  0  0  0  0
M  END
$$$$
