CSD_code = CETXOP | q = 0 | S = 0 | Stoichiometry = C15H24ClN4PPd | MND = 4
 OpenBabel04212202023D

 46 50  0  0  1  0  0  0  0  0999 V2000
    3.5095    3.8997    6.3072 Pd  0  0  2  0  0  0  0  0  0  0  0  0
    2.5510    5.7872    5.5699 P   0  0  2  0  0  4  0  0  0  0  0  0
    1.9635    4.1950    8.0455 Cl  0  0  0  0  0  0  0  0  0  0  0  0
    4.4623    2.2724    7.2442 N   0  0  0  0  0  4  0  0  0  0  0  0
    2.3113    8.3967    6.4445 N   0  0  2  0  0  0  0  0  0  0  0  0
    0.3408    7.4182    5.4055 N   0  0  1  0  0  0  0  0  0  0  0  0
    2.2381    8.0699    4.0372 N   0  0  1  0  0  0  0  0  0  0  0  0
    4.7632    3.4263    4.8109 C   0  0  0  0  0  0  0  0  0  0  0  0
    4.6724    3.7518    3.4627 C   0  0  0  0  0  0  0  0  0  0  0  0
    3.9148    4.4457    3.1216 H   0  0  0  0  0  0  0  0  0  0  0  0
    5.5386    3.1999    2.5286 C   0  0  0  0  0  0  0  0  0  0  0  0
    5.4503    3.4765    1.4873 H   0  0  0  0  0  0  0  0  0  0  0  0
    6.5087    2.2977    2.9235 C   0  0  0  0  0  0  0  0  0  0  0  0
    7.1842    1.8690    2.1978 H   0  0  0  0  0  0  0  0  0  0  0  0
    6.6011    1.9349    4.2563 C   0  0  0  0  0  0  0  0  0  0  0  0
    7.3453    1.2167    4.5738 H   0  0  0  0  0  0  0  0  0  0  0  0
    5.7371    2.4891    5.1877 C   0  0  0  0  0  0  0  0  0  0  0  0
    5.8000    2.1220    6.6479 C   0  0  0  0  0  0  0  0  0  0  0  0
    6.1758    1.0977    6.7984 H   0  0  0  0  0  0  0  0  0  0  0  0
    6.4830    2.8121    7.1601 H   0  0  0  0  0  0  0  0  0  0  0  0
    3.6061    1.1431    6.8724 C   0  0  0  0  0  0  0  0  0  0  0  0
    3.9792    0.2079    7.3140 H   0  0  0  0  0  0  0  0  0  0  0  0
    3.5849    1.0358    5.7828 H   0  0  0  0  0  0  0  0  0  0  0  0
    2.5887    1.3243    7.2357 H   0  0  0  0  0  0  0  0  0  0  0  0
    4.5582    2.3589    8.6996 C   0  0  0  0  0  0  0  0  0  0  0  0
    3.5597    2.4565    9.1288 H   0  0  0  0  0  0  0  0  0  0  0  0
    5.1382    3.2421    8.9786 H   0  0  0  0  0  0  0  0  0  0  0  0
    5.0423    1.4633    9.1125 H   0  0  0  0  0  0  0  0  0  0  0  0
    2.8828    6.7722    4.0114 C   0  0  0  0  0  0  0  0  0  0  0  0
    3.9635    6.9118    3.8938 H   0  0  0  0  0  0  0  0  0  0  0  0
    2.5062    6.2245    3.1403 H   0  0  0  0  0  0  0  0  0  0  0  0
    2.9731    7.1487    6.7681 C   0  0  0  0  0  0  0  0  0  0  0  0
    2.6745    6.8329    7.7747 H   0  0  0  0  0  0  0  0  0  0  0  0
    4.0608    7.3034    6.7599 H   0  0  0  0  0  0  0  0  0  0  0  0
    0.7018    6.0259    5.5770 C   0  0  0  0  0  0  0  0  0  0  0  0
    0.2557    5.4370    4.7663 H   0  0  0  0  0  0  0  0  0  0  0  0
    0.3036    5.6632    6.5301 H   0  0  0  0  0  0  0  0  0  0  0  0
    0.8641    8.2508    6.4768 C   0  0  0  0  0  0  0  0  0  0  0  0
    0.4206    9.2471    6.3787 H   0  0  0  0  0  0  0  0  0  0  0  0
    0.5722    7.8198    7.4372 H   0  0  0  0  0  0  0  0  0  0  0  0
    0.7918    7.9467    4.1313 C   0  0  0  0  0  0  0  0  0  0  0  0
    0.3590    8.9442    4.0030 H   0  0  0  0  0  0  0  0  0  0  0  0
    0.4350    7.2981    3.3263 H   0  0  0  0  0  0  0  0  0  0  0  0
    2.7110    8.8921    5.1394 C   0  0  0  0  0  0  0  0  0  0  0  0
    3.8021    8.9511    5.0971 H   0  0  0  0  0  0  0  0  0  0  0  0
    2.2942    9.8967    5.0132 H   0  0  0  0  0  0  0  0  0  0  0  0
  1  4  1  0  0  0  0
  1  3  1  6  0  0  0
  2 29  1  6  0  0  0
  2 35  1  0  0  0  0
  2  1  1  0  0  0  0
  2 32  1  0  0  0  0
  4 25  1  0  0  0  0
  5 44  1  6  0  0  0
  5 38  1  0  0  0  0
  5 32  1  0  0  0  0
  6 41  1  6  0  0  0
  6 35  1  0  0  0  0
  6 38  1  0  0  0  0
  7 29  1  1  0  0  0
  7 41  1  0  0  0  0
  7 44  1  0  0  0  0
  8 17  1  0  0  0  0
  8  1  1  0  0  0  0
  9  8  2  0  0  0  0
 10  9  1  0  0  0  0
 11 13  2  0  0  0  0
 11  9  1  0  0  0  0
 12 11  1  0  0  0  0
 13 15  1  0  0  0  0
 14 13  1  0  0  0  0
 15 16  1  0  0  0  0
 15 17  2  0  0  0  0
 17 18  1  0  0  0  0
 18 19  1  0  0  0  0
 18 20  1  0  0  0  0
 18  4  1  0  0  0  0
 21 24  1  0  0  0  0
 21  4  1  0  0  0  0
 21 22  1  0  0  0  0
 23 21  1  0  0  0  0
 25 27  1  0  0  0  0
 25 28  1  0  0  0  0
 25 26  1  0  0  0  0
 30 29  1  0  0  0  0
 31 29  1  0  0  0  0
 32 33  1  0  0  0  0
 34 32  1  0  0  0  0
 35 37  1  0  0  0  0
 36 35  1  0  0  0  0
 38 40  1  0  0  0  0
 39 38  1  0  0  0  0
 42 41  1  0  0  0  0
 43 41  1  0  0  0  0
 45 44  1  0  0  0  0
 46 44  1  0  0  0  0
M  END
$$$$
