CSD_code = CEVBAI | q = 0 | S = 0 | Stoichiometry = C43H35BrFeN2O2P2 | MND = 6
 OpenBabel04212202023D

 86 93  0  0  0  0  0  0  0  0999 V2000
    6.1856    5.3653    2.2022 C   0  0  0  0  0  3  0  0  0  0  0  0
    5.5520    5.2878    1.3317 H   0  0  0  0  0  0  0  0  0  0  0  0
    7.5355    5.1134    2.1010 C   0  0  0  0  0  0  0  0  0  0  0  0
    7.9576    4.8404    1.1487 H   0  0  0  0  0  0  0  0  0  0  0  0
    8.3272    5.2184    3.2387 C   0  0  0  0  0  0  0  0  0  0  0  0
    9.3885    5.0275    3.1926 H   0  0  0  0  0  0  0  0  0  0  0  0
    7.7321    5.5707    4.4281 C   0  0  0  0  0  0  0  0  0  0  0  0
    8.2972    5.6668    5.3421 H   0  0  0  0  0  0  0  0  0  0  0  0
    6.3552    5.8101    4.4438 C   0  0  0  0  0  0  0  0  0  0  0  0
    4.2950    6.3961    5.4993 C   0  0  0  0  0  0  0  0  0  0  0  0
    2.0220    6.5107    4.3550 C   0  0  0  0  0  2  0  0  0  0  0  0
    4.5776    2.9670    3.4610 C   0  0  0  0  0  0  0  0  0  0  0  0
    5.7746    2.7853    4.1513 C   0  0  0  0  0  0  0  0  0  0  0  0
    5.8791    3.1758    5.1560 H   0  0  0  0  0  0  0  0  0  0  0  0
    6.8252    2.1128    3.5568 C   0  0  0  0  0  0  0  0  0  0  0  0
    7.7474    1.9682    4.1017 H   0  0  0  0  0  0  0  0  0  0  0  0
    6.6984    1.6330    2.2629 C   0  0  0  0  0  0  0  0  0  0  0  0
    7.5218    1.1089    1.8005 H   0  0  0  0  0  0  0  0  0  0  0  0
    5.5212    1.8354    1.5623 C   0  0  0  0  0  0  0  0  0  0  0  0
    5.4251    1.4767    0.5484 H   0  0  0  0  0  0  0  0  0  0  0  0
    4.4649    2.5053    2.1531 C   0  0  0  0  0  0  0  0  0  0  0  0
    3.5536    2.6817    1.5990 H   0  0  0  0  0  0  0  0  0  0  0  0
    3.1156    3.3916    5.8938 C   0  0  0  0  0  0  0  0  0  0  0  0
    3.6425    2.1814    6.3368 C   0  0  0  0  0  0  0  0  0  0  0  0
    4.2325    1.5624    5.6756 H   0  0  0  0  0  0  0  0  0  0  0  0
    3.4179    1.7579    7.6344 C   0  0  0  0  0  0  0  0  0  0  0  0
    3.8380    0.8198    7.9687 H   0  0  0  0  0  0  0  0  0  0  0  0
    2.6584    2.5264    8.5002 C   0  0  0  0  0  0  0  0  0  0  0  0
    2.4910    2.1928    9.5138 H   0  0  0  0  0  0  0  0  0  0  0  0
    2.1099    3.7186    8.0589 C   0  0  0  0  0  0  0  0  0  0  0  0
    1.5089    4.3198    8.7245 H   0  0  0  0  0  0  0  0  0  0  0  0
    2.3318    4.1454    6.7630 C   0  0  0  0  0  0  0  0  0  0  0  0
    1.9071    5.0773    6.4274 H   0  0  0  0  0  0  0  0  0  0  0  0
    1.7544    3.1700    3.5490 C   0  0  0  0  0  0  0  0  0  0  0  0
    1.6958    1.7784    3.6076 C   0  0  0  0  0  0  0  0  0  0  0  0
    2.5497    1.2182    3.9625 H   0  0  0  0  0  0  0  0  0  0  0  0
    0.5559    1.1118    3.2049 C   0  0  0  0  0  0  0  0  0  0  0  0
    0.5226    0.0327    3.2475 H   0  0  0  0  0  0  0  0  0  0  0  0
   -0.5419    1.8244    2.7483 C   0  0  0  0  0  0  0  0  0  0  0  0
   -1.4326    1.3008    2.4339 H   0  0  0  0  0  0  0  0  0  0  0  0
   -0.4918    3.2056    2.6944 C   0  0  0  0  0  0  0  0  0  0  0  0
   -1.3421    3.7660    2.3359 H   0  0  0  0  0  0  0  0  0  0  0  0
    0.6501    3.8774    3.0949 C   0  0  0  0  0  0  0  0  0  0  0  0
    0.6810    4.9530    3.0307 H   0  0  0  0  0  0  0  0  0  0  0  0
    5.5452    8.4472    2.3940 C   0  0  0  0  0  0  0  0  0  0  0  0
    6.7354    8.5465    3.1121 C   0  0  0  0  0  0  0  0  0  0  0  0
    6.7041    8.6160    4.1926 H   0  0  0  0  0  0  0  0  0  0  0  0
    7.9480    8.5582    2.4498 C   0  0  0  0  0  0  0  0  0  0  0  0
    8.8669    8.6452    3.0122 H   0  0  0  0  0  0  0  0  0  0  0  0
    7.9851    8.4517    1.0684 C   0  0  0  0  0  0  0  0  0  0  0  0
    8.9345    8.4615    0.5536 H   0  0  0  0  0  0  0  0  0  0  0  0
    6.8067    8.3229    0.3523 C   0  0  0  0  0  0  0  0  0  0  0  0
    6.8342    8.2235   -0.7225 H   0  0  0  0  0  0  0  0  0  0  0  0
    5.5896    8.3113    1.0096 C   0  0  0  0  0  0  0  0  0  0  0  0
    4.6703    8.1892    0.4537 H   0  0  0  0  0  0  0  0  0  0  0  0
    4.0432    9.5315    4.5799 C   0  0  0  0  0  0  0  0  0  0  0  0
    4.8952   10.6313    4.5200 C   0  0  0  0  0  0  0  0  0  0  0  0
    5.6163   10.7254    3.7203 H   0  0  0  0  0  0  0  0  0  0  0  0
    4.8307   11.6150    5.4899 C   0  0  0  0  0  0  0  0  0  0  0  0
    5.5013   12.4610    5.4366 H   0  0  0  0  0  0  0  0  0  0  0  0
    3.9112   11.5217    6.5213 C   0  0  0  0  0  0  0  0  0  0  0  0
    3.8672   12.2918    7.2775 H   0  0  0  0  0  0  0  0  0  0  0  0
    3.0463   10.4422    6.5747 C   0  0  0  0  0  0  0  0  0  0  0  0
    2.3219   10.3651    7.3716 H   0  0  0  0  0  0  0  0  0  0  0  0
    3.1074    9.4563    5.6072 C   0  0  0  0  0  0  0  0  0  0  0  0
    2.4371    8.6145    5.6595 H   0  0  0  0  0  0  0  0  0  0  0  0
    2.8024    9.1591    2.1978 C   0  0  0  0  0  0  0  0  0  0  0  0
    3.2189   10.3483    1.6030 C   0  0  0  0  0  0  0  0  0  0  0  0
    4.2376   10.6876    1.7288 H   0  0  0  0  0  0  0  0  0  0  0  0
    2.3378   11.0908    0.8418 C   0  0  0  0  0  0  0  0  0  0  0  0
    2.6722   12.0071    0.3771 H   0  0  0  0  0  0  0  0  0  0  0  0
    1.0303   10.6630    0.6745 C   0  0  0  0  0  0  0  0  0  0  0  0
    0.3441   11.2447    0.0770 H   0  0  0  0  0  0  0  0  0  0  0  0
    0.6081    9.4893    1.2729 C   0  0  0  0  0  0  0  0  0  0  0  0
   -0.4088    9.1499    1.1444 H   0  0  0  0  0  0  0  0  0  0  0  0
    1.4886    8.7415    2.0343 C   0  0  0  0  0  0  0  0  0  0  0  0
    1.1529    7.8206    2.4837 H   0  0  0  0  0  0  0  0  0  0  0  0
    3.0162    5.7544    1.5173 Br  0  0  0  0  0  0  0  0  0  0  0  0
    3.6085    6.1321    3.7562 Fe  0  0  0  0  0  0  0  0  0  0  0  0
    5.5910    5.7083    3.3454 N   0  0  0  0  0  0  0  0  0  0  0  0
    5.6795    6.1631    5.5626 N   0  0  0  0  0  0  0  0  0  0  0  0
    6.1578    6.2723    6.4490 H   0  0  0  0  0  0  0  0  0  0  0  0
    3.7350    6.7215    6.5207 O   0  0  0  0  0  0  0  0  0  0  0  0
    1.0118    6.7693    4.8402 O   0  0  0  0  0  1  0  0  0  0  0  0
    3.2602    4.0045    4.1736 P   0  0  0  0  0  4  0  0  0  0  0  0
    3.9654    8.2459    3.2778 P   0  0  0  0  0  4  0  0  0  0  0  0
  1 80  1  0  0  0  0
  2  1  1  0  0  0  0
  3  1  1  0  0  0  0
  3  5  2  0  0  0  0
  4  3  1  0  0  0  0
  5  7  1  0  0  0  0
  6  5  1  0  0  0  0
  7  9  2  0  0  0  0
  7  8  1  0  0  0  0
  9 81  1  0  0  0  0
 10 81  1  0  0  0  0
 10 83  2  0  0  0  0
 11 84  1  0  0  0  0
 12 13  1  0  0  0  0
 12 85  1  0  0  0  0
 13 14  1  0  0  0  0
 15 16  1  0  0  0  0
 15 13  2  0  0  0  0
 17 15  1  0  0  0  0
 18 17  1  0  0  0  0
 19 21  1  0  0  0  0
 19 17  2  0  0  0  0
 20 19  1  0  0  0  0
 21 12  2  0  0  0  0
 22 21  1  0  0  0  0
 23 24  2  0  0  0  0
 23 32  1  0  0  0  0
 24 26  1  0  0  0  0
 25 24  1  0  0  0  0
 26 27  1  0  0  0  0
 26 28  2  0  0  0  0
 28 29  1  0  0  0  0
 30 28  1  0  0  0  0
 30 31  1  0  0  0  0
 32 30  2  0  0  0  0
 33 32  1  0  0  0  0
 34 35  1  0  0  0  0
 34 85  1  0  0  0  0
 35 36  1  0  0  0  0
 37 38  1  0  0  0  0
 37 35  2  0  0  0  0
 39 37  1  0  0  0  0
 40 39  1  0  0  0  0
 41 39  2  0  0  0  0
 41 43  1  0  0  0  0
 42 41  1  0  0  0  0
 43 34  2  0  0  0  0
 44 43  1  0  0  0  0
 45 46  1  0  0  0  0
 45 86  1  0  0  0  0
 46 47  1  0  0  0  0
 48 49  1  0  0  0  0
 48 46  2  0  0  0  0
 50 48  1  0  0  0  0
 51 50  1  0  0  0  0
 52 54  1  0  0  0  0
 52 50  2  0  0  0  0
 53 52  1  0  0  0  0
 54 45  2  0  0  0  0
 55 54  1  0  0  0  0
 56 65  1  0  0  0  0
 57 56  2  0  0  0  0
 57 59  1  0  0  0  0
 58 57  1  0  0  0  0
 59 61  2  0  0  0  0
 60 59  1  0  0  0  0
 61 63  1  0  0  0  0
 61 62  1  0  0  0  0
 63 64  1  0  0  0  0
 65 66  1  0  0  0  0
 65 63  2  0  0  0  0
 67 86  1  0  0  0  0
 68 69  1  0  0  0  0
 68 67  2  0  0  0  0
 70 68  1  0  0  0  0
 71 70  1  0  0  0  0
 72 70  2  0  0  0  0
 72 74  1  0  0  0  0
 73 72  1  0  0  0  0
 74 76  2  0  0  0  0
 75 74  1  0  0  0  0
 76 67  1  0  0  0  0
 76 77  1  0  0  0  0
 78 79  1  0  0  0  0
 79 85  1  0  0  0  0
 79 11  1  0  0  0  0
 79 10  1  0  0  0  0
 80 79  1  0  0  0  0
 80  9  1  0  0  0  0
 81 82  1  0  0  0  0
 85 23  1  0  0  0  0
 86 79  1  0  0  0  0
 86 56  1  0  0  0  0
M  END
$$$$
