CSD_code = CEVJIX | q = 1 | S = 0 | Stoichiometry = C21H26ClN4Ru(1+) | MND = 9
 OpenBabel04212202023D

 53 55  0  0  1  0  0  0  0  0999 V2000
    4.3214    8.4527    5.2932 Ru  0  0  0  0  0  0  0  0  0  0  0  0
    5.7131    6.9087    6.3047 Cl  0  0  0  0  0 15  0  0  0  0  0  0
    4.5732    9.5494    6.9593 N   0  0  0  0  0  0  0  0  0  0  0  0
    3.9322    9.8454    9.0584 N   0  0  0  0  0  0  0  0  0  0  0  0
    2.7147    8.3152    7.6022 N   0  0  0  0  0  0  0  0  0  0  0  0
    2.8726    7.8598    6.4097 N   0  0  0  0  0  0  0  0  0  0  0  0
    5.4249   10.4272    7.5376 C   0  0  0  0  0  0  0  0  0  0  0  0
    6.2527   10.8587    7.0111 H   0  0  0  0  0  0  0  0  0  0  0  0
    5.0334   10.6172    8.8374 C   0  0  0  0  0  0  0  0  0  0  0  0
    5.4554   11.2361    9.6022 H   0  0  0  0  0  0  0  0  0  0  0  0
    3.6786    9.1988    7.9039 C   0  0  0  0  0  0  0  0  0  0  0  0
    1.9299    6.9485    5.9569 C   0  0  0  0  0  0  0  0  0  0  0  0
    2.3530    5.8594    5.1893 C   0  0  0  0  0  0  0  0  0  0  0  0
    3.4125    5.7148    5.0177 H   0  0  0  0  0  0  0  0  0  0  0  0
    1.4299    4.9369    4.7434 C   0  0  0  0  0  0  0  0  0  0  0  0
    1.7648    4.0840    4.1725 H   0  0  0  0  0  0  0  0  0  0  0  0
    0.0739    5.0761    5.0349 C   0  0  0  0  0  0  0  0  0  0  0  0
   -0.3330    6.1609    5.8127 C   0  0  0  0  0  0  0  0  0  0  0  0
   -1.3786    6.2740    6.0559 H   0  0  0  0  0  0  0  0  0  0  0  0
    0.5764    7.0817    6.2836 C   0  0  0  0  0  0  0  0  0  0  0  0
    0.2662    7.9168    6.8925 H   0  0  0  0  0  0  0  0  0  0  0  0
    3.1972    9.7115   10.2862 C   0  0  0  0  0  0  0  0  0  0  0  0
    2.4304    8.9526   10.1482 H   0  0  0  0  0  0  0  0  0  0  0  0
    2.7292   10.6607   10.5518 H   0  0  0  0  0  0  0  0  0  0  0  0
    3.8669    9.4104   11.0921 H   0  0  0  0  0  0  0  0  0  0  0  0
   -0.9275    4.0930    4.5304 C   0  0  0  0  0  0  0  0  0  0  0  0
   -1.4653    4.5139    3.6799 H   0  0  0  0  0  0  0  0  0  0  0  0
   -1.6617    3.8629    5.2995 H   0  0  0  0  0  0  0  0  0  0  0  0
   -0.4488    3.1725    4.2081 H   0  0  0  0  0  0  0  0  0  0  0  0
    4.2818   10.1757    3.8472 C   0  0  2  0  0  0  0  0  0  0  0  0
    4.1317   11.2288    4.0588 H   0  0  0  0  0  0  0  0  0  0  0  0
    3.1728    9.3629    3.5170 C   0  0  2  0  0  3  0  0  0  0  0  0
    3.4305    8.0240    3.1244 C   0  0  0  0  0  0  0  0  0  0  0  0
    2.6063    7.3999    2.7969 H   0  0  0  0  0  0  0  0  0  0  0  0
    4.7307    7.5178    3.1160 C   0  0  0  0  0  0  0  0  0  0  0  0
    4.9110    6.4993    2.7893 H   0  0  0  0  0  0  0  0  0  0  0  0
    5.8556    8.3600    3.3737 C   0  0  0  0  0  0  0  0  0  0  0  0
    5.6096    9.6884    3.7250 C   0  0  0  0  0  0  0  0  0  0  0  0
    6.4397   10.3724    3.8608 H   0  0  0  0  0  0  0  0  0  0  0  0
    1.7677    9.9153    3.4803 C   0  0  0  0  0  0  0  0  0  0  0  0
    1.0718    9.0688    3.4429 H   0  0  0  0  0  0  0  0  0  0  0  0
    1.4477   10.7429    4.7275 C   0  0  0  0  0  0  0  0  0  0  0  0
    1.7239   10.1980    5.6329 H   0  0  0  0  0  0  0  0  0  0  0  0
    0.3825   10.9534    4.7652 H   0  0  0  0  0  0  0  0  0  0  0  0
    1.9753   11.6935    4.7184 H   0  0  0  0  0  0  0  0  0  0  0  0
    1.5849   10.7504    2.2079 C   0  0  0  0  0  0  0  0  0  0  0  0
    2.2637   11.6000    2.2031 H   0  0  0  0  0  0  0  0  0  0  0  0
    0.5662   11.1237    2.1564 H   0  0  0  0  0  0  0  0  0  0  0  0
    1.7770   10.1496    1.3222 H   0  0  0  0  0  0  0  0  0  0  0  0
    7.2380    7.8132    3.2428 C   0  0  0  0  0  0  0  0  0  0  0  0
    7.3418    7.2584    2.3114 H   0  0  0  0  0  0  0  0  0  0  0  0
    7.4366    7.1214    4.0648 H   0  0  0  0  0  0  0  0  0  0  0  0
    7.9818    8.6055    3.2743 H   0  0  0  0  0  0  0  0  0  0  0  0
  1  6  1  0  0  0  0
  1  3  1  0  0  0  0
  3  7  1  0  0  0  0
  3 11  1  0  0  0  0
  4 22  1  0  0  0  0
  5 11  2  0  0  0  0
  6  5  1  0  0  0  0
  7  9  2  0  0  0  0
  8  7  1  0  0  0  0
  9  4  1  0  0  0  0
  9 10  1  0  0  0  0
 11  4  1  0  0  0  0
 12 20  1  0  0  0  0
 12  6  1  0  0  0  0
 13 12  2  0  0  0  0
 14 13  1  0  0  0  0
 15 17  2  0  0  0  0
 15 13  1  0  0  0  0
 16 15  1  0  0  0  0
 17 18  1  0  0  0  0
 18 19  1  0  0  0  0
 18 20  2  0  0  0  0
 20 21  1  0  0  0  0
 22 24  1  0  0  0  0
 22 25  1  0  0  0  0
 23 22  1  0  0  0  0
 26 17  1  0  0  0  0
 26 28  1  0  0  0  0
 27 26  1  0  0  0  0
 29 26  1  0  0  0  0
 30 31  1  1  0  0  0
 30  1  1  0  0  0  0
 32 40  1  6  0  0  0
 32 30  1  0  0  0  0
 33 32  1  0  0  0  0
 34 33  1  0  0  0  0
 35 33  2  0  0  0  0
 35 37  1  0  0  0  0
 36 35  1  0  0  0  0
 37 38  2  0  0  0  0
 38 30  1  0  0  0  0
 38 39  1  0  0  0  0
 40 42  1  0  0  0  0
 41 40  1  0  0  0  0
 42 44  1  0  0  0  0
 42 43  1  0  0  0  0
 45 42  1  0  0  0  0
 46 40  1  0  0  0  0
 47 46  1  0  0  0  0
 48 46  1  0  0  0  0
 49 46  1  0  0  0  0
 50 53  1  0  0  0  0
 50 37  1  0  0  0  0
 50 52  1  0  0  0  0
 51 50  1  0  0  0  0
M  END
$$$$
