CSD_code = CEVLOG | q = 0 | S = 0 | Stoichiometry = C45H38BrN2PPd | MND = 4
 OpenBabel04212202023D

 88 96  0  0  1  0  0  0  0  0999 V2000
    5.4712   15.1771   14.0204 Pd  0  0  2  0  0  0  0  0  0  0  0  0
    3.5017   15.4339   15.3536 Br  0  0  0  0  0  0  0  0  0  0  0  0
    7.2206   14.3867   12.8379 P   0  0  0  0  0  4  0  0  0  0  0  0
    6.8567   14.6821   15.7355 N   0  0  1  0  0  0  0  0  0  0  0  0
    6.7928   15.5770   16.6953 N   0  0  1  0  0  0  0  0  0  0  0  0
    7.5045   12.7220   13.5323 C   0  0  0  0  0  0  0  0  0  0  0  0
    7.3980   12.4626   14.9152 C   0  0  0  0  0  0  0  0  0  0  0  0
    7.5879   11.1456   15.3549 C   0  0  0  0  0  0  0  0  0  0  0  0
    7.4987   10.9365   16.4120 H   0  0  0  0  0  0  0  0  0  0  0  0
    7.8745   10.1202   14.4796 C   0  0  0  0  0  0  0  0  0  0  0  0
    8.0033    9.1146   14.8511 H   0  0  0  0  0  0  0  0  0  0  0  0
    8.0094   10.3887   13.1264 C   0  0  0  0  0  0  0  0  0  0  0  0
    8.2561    9.5993   12.4325 H   0  0  0  0  0  0  0  0  0  0  0  0
    7.8264   11.6795   12.6674 C   0  0  0  0  0  0  0  0  0  0  0  0
    7.9382   11.8881   11.6122 H   0  0  0  0  0  0  0  0  0  0  0  0
    7.2020   13.4584   15.9471 C   0  0  0  0  0  3  0  0  0  0  0  0
    7.4023   13.1097   16.9598 H   0  0  0  0  0  0  0  0  0  0  0  0
    8.8906   15.1098   12.7973 C   0  0  0  0  0  0  0  0  0  0  0  0
    9.0390   16.3866   12.2593 C   0  0  0  0  0  0  0  0  0  0  0  0
    8.1642   16.9292   11.9265 H   0  0  0  0  0  0  0  0  0  0  0  0
   10.2941   16.9532   12.1485 C   0  0  0  0  0  0  0  0  0  0  0  0
   10.4032   17.9352   11.7126 H   0  0  0  0  0  0  0  0  0  0  0  0
   11.4090   16.2629   12.5966 C   0  0  0  0  0  0  0  0  0  0  0  0
   12.3906   16.7047   12.5077 H   0  0  0  0  0  0  0  0  0  0  0  0
   11.2622   15.0095   13.1663 C   0  0  0  0  0  0  0  0  0  0  0  0
   12.1286   14.4745   13.5280 H   0  0  0  0  0  0  0  0  0  0  0  0
   10.0095   14.4302   13.2649 C   0  0  0  0  0  0  0  0  0  0  0  0
    9.9027   13.4455   13.6989 H   0  0  0  0  0  0  0  0  0  0  0  0
    6.8431   14.0489   11.0899 C   0  0  0  0  0  0  0  0  0  0  0  0
    5.7387   13.2258   10.8638 C   0  0  0  0  0  0  0  0  0  0  0  0
    5.2499   12.7560   11.7106 H   0  0  0  0  0  0  0  0  0  0  0  0
    5.2821   13.0050    9.5810 C   0  0  0  0  0  0  0  0  0  0  0  0
    4.4281   12.3654    9.4147 H   0  0  0  0  0  0  0  0  0  0  0  0
    5.9122   13.6175    8.5087 C   0  0  0  0  0  0  0  0  0  0  0  0
    5.5476   13.4581    7.5049 H   0  0  0  0  0  0  0  0  0  0  0  0
    7.0085   14.4330    8.7262 C   0  0  0  0  0  0  0  0  0  0  0  0
    7.5039   14.9075    7.8918 H   0  0  0  0  0  0  0  0  0  0  0  0
    7.4763   14.6510   10.0112 C   0  0  0  0  0  0  0  0  0  0  0  0
    8.3373   15.2846   10.1678 H   0  0  0  0  0  0  0  0  0  0  0  0
    7.2449   15.3892   18.0635 C   0  0  1  0  0  0  0  0  0  0  0  0
    8.2774   15.0030   18.0628 H   0  0  0  0  0  0  0  0  0  0  0  0
    7.2041   16.8131   18.6498 C   0  0  0  0  0  0  0  0  0  0  0  0
    6.8691   16.8061   19.6853 H   0  0  0  0  0  0  0  0  0  0  0  0
    8.1966   17.2645   18.6064 H   0  0  0  0  0  0  0  0  0  0  0  0
    6.2461   17.5706   17.7327 C   0  0  0  0  0  0  0  0  0  0  0  0
    5.2112   17.3597   18.0021 H   0  0  0  0  0  0  0  0  0  0  0  0
    6.4093   18.6459   17.7561 H   0  0  0  0  0  0  0  0  0  0  0  0
    6.5500   16.9661   16.3584 C   0  0  1  0  0  0  0  0  0  0  0  0
    5.6753   17.0427   15.6849 H   0  0  0  0  0  0  0  0  0  0  0  0
    6.3815   14.4277   18.8495 C   0  0  0  0  0  0  0  0  0  0  0  0
    5.0161   14.3287   18.6209 C   0  0  0  0  0  0  0  0  0  0  0  0
    4.5444   14.9147   17.8479 H   0  0  0  0  0  0  0  0  0  0  0  0
    4.2482   13.4551   19.3708 C   0  0  0  0  0  0  0  0  0  0  0  0
    3.1897   13.3828   19.1738 H   0  0  0  0  0  0  0  0  0  0  0  0
    4.8321   12.6826   20.3595 C   0  0  0  0  0  0  0  0  0  0  0  0
    4.2315   12.0015   20.9440 H   0  0  0  0  0  0  0  0  0  0  0  0
    6.1931   12.7831   20.5965 C   0  0  0  0  0  0  0  0  0  0  0  0
    6.6571   12.1834   21.3661 H   0  0  0  0  0  0  0  0  0  0  0  0
    6.9639   13.6494   19.8433 C   0  0  0  0  0  0  0  0  0  0  0  0
    8.0280   13.7228   20.0267 H   0  0  0  0  0  0  0  0  0  0  0  0
    7.7309   17.6465   15.6977 C   0  0  0  0  0  0  0  0  0  0  0  0
    9.0199   17.1348   15.7550 C   0  0  0  0  0  0  0  0  0  0  0  0
    9.2123   16.1812   16.2243 H   0  0  0  0  0  0  0  0  0  0  0  0
   10.0788   17.8406   15.2111 C   0  0  0  0  0  0  0  0  0  0  0  0
   11.0785   17.4373   15.2769 H   0  0  0  0  0  0  0  0  0  0  0  0
    9.8605   19.0569   14.5902 C   0  0  0  0  0  0  0  0  0  0  0  0
   10.6898   19.6085   14.1731 H   0  0  0  0  0  0  0  0  0  0  0  0
    8.5740   19.5626   14.5056 C   0  0  0  0  0  0  0  0  0  0  0  0
    8.3948   20.5088   14.0163 H   0  0  0  0  0  0  0  0  0  0  0  0
    7.5174   18.8640   15.0587 C   0  0  0  0  0  0  0  0  0  0  0  0
    6.5156   19.2675   15.0057 H   0  0  0  0  0  0  0  0  0  0  0  0
    4.3622   15.5725   12.4141 C   0  0  0  0  0  0  0  0  0  0  0  0
    4.7361   16.7078   11.6578 C   0  0  0  0  0  0  0  0  0  0  0  0
    5.6907   17.6330   12.1351 C   0  0  0  0  0  0  0  0  0  0  0  0
    6.1139   17.4804   13.1355 H   0  0  0  0  0  0  0  0  0  0  0  0
    6.0634   18.7105   11.3807 C   0  0  0  0  0  0  0  0  0  0  0  0
    6.7928   19.4147   11.7564 H   0  0  0  0  0  0  0  0  0  0  0  0
    5.4959   18.9091   10.1127 C   0  0  0  0  0  0  0  0  0  0  0  0
    5.8042   19.7601    9.5223 H   0  0  0  0  0  0  0  0  0  0  0  0
    4.5517   18.0439    9.6337 C   0  0  0  0  0  0  0  0  0  0  0  0
    4.1020   18.2074    8.6641 H   0  0  0  0  0  0  0  0  0  0  0  0
    4.1342   16.9301   10.3903 C   0  0  0  0  0  0  0  0  0  0  0  0
    3.1384   16.0359    9.9464 C   0  0  0  0  0  0  0  0  0  0  0  0
    2.6780   16.2063    8.9835 H   0  0  0  0  0  0  0  0  0  0  0  0
    2.7494   14.9859   10.7287 C   0  0  0  0  0  0  0  0  0  0  0  0
    1.9655   14.3196   10.3972 H   0  0  0  0  0  0  0  0  0  0  0  0
    3.3682   14.7442   11.9680 C   0  0  0  0  0  0  0  0  0  0  0  0
    3.0378   13.8970   12.5631 H   0  0  0  0  0  0  0  0  0  0  0  0
  1  2  1  1  0  0  0
  1  4  1  0  0  0  0
  3  6  1  0  0  0  0
  3  1  1  0  0  0  0
  4 16  1  1  0  0  0
  5  4  1  6  0  0  0
  5 40  1  0  0  0  0
  6  7  1  0  0  0  0
  7  8  2  0  0  0  0
  7 16  1  0  0  0  0
  8  9  1  0  0  0  0
 10 11  1  0  0  0  0
 10  8  1  0  0  0  0
 12 10  2  0  0  0  0
 13 12  1  0  0  0  0
 14 12  1  0  0  0  0
 14  6  2  0  0  0  0
 15 14  1  0  0  0  0
 16 17  1  0  0  0  0
 18  3  1  0  0  0  0
 18 27  1  0  0  0  0
 19 18  2  0  0  0  0
 20 19  1  0  0  0  0
 21 19  1  0  0  0  0
 21 23  2  0  0  0  0
 22 21  1  0  0  0  0
 23 25  1  0  0  0  0
 24 23  1  0  0  0  0
 25 27  2  0  0  0  0
 25 26  1  0  0  0  0
 27 28  1  0  0  0  0
 29  3  1  0  0  0  0
 30 29  1  0  0  0  0
 30 31  1  0  0  0  0
 32 30  2  0  0  0  0
 33 32  1  0  0  0  0
 34 36  2  0  0  0  0
 34 32  1  0  0  0  0
 35 34  1  0  0  0  0
 36 38  1  0  0  0  0
 37 36  1  0  0  0  0
 38 39  1  0  0  0  0
 38 29  2  0  0  0  0
 40 41  1  6  0  0  0
 40 42  1  0  0  0  0
 40 50  1  0  0  0  0
 42 43  1  0  0  0  0
 44 42  1  0  0  0  0
 45 47  1  0  0  0  0
 45 46  1  0  0  0  0
 45 42  1  0  0  0  0
 48 49  1  6  0  0  0
 48  5  1  0  0  0  0
 48 45  1  0  0  0  0
 50 59  1  0  0  0  0
 51 50  2  0  0  0  0
 51 53  1  0  0  0  0
 52 51  1  0  0  0  0
 53 55  2  0  0  0  0
 54 53  1  0  0  0  0
 55 57  1  0  0  0  0
 55 56  1  0  0  0  0
 57 58  1  0  0  0  0
 59 60  1  0  0  0  0
 59 57  2  0  0  0  0
 61 62  1  0  0  0  0
 61 48  1  0  0  0  0
 62 63  1  0  0  0  0
 64 65  1  0  0  0  0
 64 62  2  0  0  0  0
 66 64  1  0  0  0  0
 67 66  1  0  0  0  0
 68 66  2  0  0  0  0
 68 70  1  0  0  0  0
 69 68  1  0  0  0  0
 70 61  2  0  0  0  0
 71 70  1  0  0  0  0
 72  1  1  0  0  0  0
 73 74  1  0  0  0  0
 73 72  2  0  0  0  0
 74 75  1  0  0  0  0
 76 77  1  0  0  0  0
 76 74  2  0  0  0  0
 78 76  1  0  0  0  0
 79 78  1  0  0  0  0
 80 78  2  0  0  0  0
 80 82  1  0  0  0  0
 81 80  1  0  0  0  0
 82 73  1  0  0  0  0
 83 82  2  0  0  0  0
 83 85  1  0  0  0  0
 84 83  1  0  0  0  0
 85 87  2  0  0  0  0
 86 85  1  0  0  0  0
 87 72  1  0  0  0  0
 87 88  1  0  0  0  0
M  END
$$$$
