CSD_code = CEVLOH | q = 0 | S = 0 | Stoichiometry = C24H54Cl2O2P2Zn | MND = 4
 OpenBabel04212202023D

 85 84  0  0  0  0  0  0  0  0999 V2000
    4.3782    8.2841   13.2385 Zn  0  0  0  0  0  0  0  0  0  0  0  0
    3.8179    6.9717   14.8821 Cl  0  0  0  0  0  0  0  0  0  0  0  0
    5.9835    9.7550   13.3239 Cl  0  0  0  0  0  0  0  0  0  0  0  0
    4.7394    5.4670   11.9533 P   0  0  0  0  0  4  0  0  0  0  0  0
    3.0620   10.6895   11.8412 P   0  0  0  0  0  4  0  0  0  0  0  0
    4.7542    6.9573   11.8067 O   0  0  0  0  0  0  0  0  0  0  0  0
    2.8886    9.3461   12.4815 O   0  0  0  0  0  0  0  0  0  0  0  0
    5.9352    4.8733   13.2079 C   0  0  0  0  0  0  0  0  0  0  0  0
    5.5268    5.1717   14.1758 H   0  0  0  0  0  0  0  0  0  0  0  0
    5.9923    3.7845   13.1768 H   0  0  0  0  0  0  0  0  0  0  0  0
    7.3033    5.5163   12.9880 C   0  0  0  0  0  0  0  0  0  0  0  0
    7.1621    6.5616   12.6965 H   0  0  0  0  0  0  0  0  0  0  0  0
    7.8202    5.0069   12.1703 H   0  0  0  0  0  0  0  0  0  0  0  0
    8.1746    5.4787   14.2453 C   0  0  0  0  0  0  0  0  0  0  0  0
    8.1611    4.4700   14.6662 H   0  0  0  0  0  0  0  0  0  0  0  0
    9.2046    5.7057   13.9601 H   0  0  0  0  0  0  0  0  0  0  0  0
    7.7232    6.4862   15.2959 C   0  0  0  0  0  0  0  0  0  0  0  0
    8.3848    6.4557   16.1586 H   0  0  0  0  0  0  0  0  0  0  0  0
    7.7415    7.4929   14.8841 H   0  0  0  0  0  0  0  0  0  0  0  0
    6.7116    6.2815   15.6373 H   0  0  0  0  0  0  0  0  0  0  0  0
    3.0826    4.8061   12.3939 C   0  0  0  0  0  0  0  0  0  0  0  0
    3.0038    3.7863   12.0158 H   0  0  0  0  0  0  0  0  0  0  0  0
    3.0401    4.7824   13.4858 H   0  0  0  0  0  0  0  0  0  0  0  0
    1.9620    5.6991   11.8685 C   0  0  0  0  0  0  0  0  0  0  0  0
    1.8882    5.6172   10.7816 H   0  0  0  0  0  0  0  0  0  0  0  0
    2.2080    6.7366   12.1077 H   0  0  0  0  0  0  0  0  0  0  0  0
    0.6108    5.3679   12.5005 C   0  0  0  0  0  0  0  0  0  0  0  0
    0.6985    5.4500   13.5851 H   0  0  0  0  0  0  0  0  0  0  0  0
   -0.1163    6.1128   12.1694 H   0  0  0  0  0  0  0  0  0  0  0  0
    0.1016    3.9792   12.1308 C   0  0  0  0  0  0  0  0  0  0  0  0
   -0.8961    3.8246   12.5348 H   0  0  0  0  0  0  0  0  0  0  0  0
    0.0526    3.8648   11.0493 H   0  0  0  0  0  0  0  0  0  0  0  0
    0.7502    3.2046   12.5319 H   0  0  0  0  0  0  0  0  0  0  0  0
    5.2727    4.7497   10.3473 C   0  0  0  0  0  0  0  0  0  0  0  0
    6.2828    5.1302   10.1713 H   0  0  0  0  0  0  0  0  0  0  0  0
    5.3250    3.6638   10.4332 H   0  0  0  0  0  0  0  0  0  0  0  0
    4.3557    5.1768    9.2072 C   0  0  0  0  0  0  0  0  0  0  0  0
    4.1556    6.2466    9.3011 H   0  0  0  0  0  0  0  0  0  0  0  0
    3.4034    4.6474    9.2840 H   0  0  0  0  0  0  0  0  0  0  0  0
    4.9744    4.8999    7.8384 C   0  0  0  0  0  0  0  0  0  0  0  0
    5.9143    5.4492    7.7513 H   0  0  0  0  0  0  0  0  0  0  0  0
    5.2021    3.8346    7.7518 H   0  0  0  0  0  0  0  0  0  0  0  0
    4.0405    5.3129    6.7075 C   0  0  0  0  0  0  0  0  0  0  0  0
    4.5015    5.1225    5.7414 H   0  0  0  0  0  0  0  0  0  0  0  0
    3.1076    4.7555    6.7579 H   0  0  0  0  0  0  0  0  0  0  0  0
    3.8080    6.3735    6.7744 H   0  0  0  0  0  0  0  0  0  0  0  0
    1.4664   11.1472   11.0555 C   0  0  0  0  0  0  0  0  0  0  0  0
    1.5863   12.1066   10.5520 H   0  0  0  0  0  0  0  0  0  0  0  0
    1.2594   10.3803   10.3044 H   0  0  0  0  0  0  0  0  0  0  0  0
    0.3365   11.1804   12.0787 C   0  0  0  0  0  0  0  0  0  0  0  0
    0.4588   12.0476   12.7313 H   0  0  0  0  0  0  0  0  0  0  0  0
    0.4099   10.2800   12.6938 H   0  0  0  0  0  0  0  0  0  0  0  0
   -1.0493   11.2338   11.4347 C   0  0  0  0  0  0  0  0  0  0  0  0
   -1.1686   10.3821   10.7614 H   0  0  0  0  0  0  0  0  0  0  0  0
   -1.8001   11.1397   12.2221 H   0  0  0  0  0  0  0  0  0  0  0  0
   -1.2974   12.5275   10.6670 C   0  0  0  0  0  0  0  0  0  0  0  0
   -2.3189   12.5549   10.2953 H   0  0  0  0  0  0  0  0  0  0  0  0
   -1.1470   13.3891   11.3141 H   0  0  0  0  0  0  0  0  0  0  0  0
   -0.6265   12.6134    9.8158 H   0  0  0  0  0  0  0  0  0  0  0  0
    3.5196   12.0111   13.0342 C   0  0  0  0  0  0  0  0  0  0  0  0
    4.6092   12.0901   13.0294 H   0  0  0  0  0  0  0  0  0  0  0  0
    3.1009   12.9574   12.6848 H   0  0  0  0  0  0  0  0  0  0  0  0
    3.0437   11.6832   14.4458 C   0  0  0  0  0  0  0  0  0  0  0  0
    3.4518   10.7114   14.7365 H   0  0  0  0  0  0  0  0  0  0  0  0
    1.9550   11.6007   14.4714 H   0  0  0  0  0  0  0  0  0  0  0  0
    3.5038   12.7350   15.4515 C   0  0  0  0  0  0  0  0  0  0  0  0
    4.5932   12.7990   15.4237 H   0  0  0  0  0  0  0  0  0  0  0  0
    3.1029   13.7119   15.1671 H   0  0  0  0  0  0  0  0  0  0  0  0
    3.0524   12.3887   16.8648 C   0  0  0  0  0  0  0  0  0  0  0  0
    3.3966   13.1399   17.5716 H   0  0  0  0  0  0  0  0  0  0  0  0
    1.9669   12.3363   16.9190 H   0  0  0  0  0  0  0  0  0  0  0  0
    3.4562   11.4242   17.1624 H   0  0  0  0  0  0  0  0  0  0  0  0
    4.3185   10.6866   10.5064 C   0  0  0  0  0  0  0  0  0  0  0  0
    4.3034   11.6487    9.9918 H   0  0  0  0  0  0  0  0  0  0  0  0
    5.2838   10.5692   11.0027 H   0  0  0  0  0  0  0  0  0  0  0  0
    4.0749    9.5288    9.5436 C   0  0  0  0  0  0  0  0  0  0  0  0
    3.1730    9.7226    8.9557 H   0  0  0  0  0  0  0  0  0  0  0  0
    3.9071    8.6226   10.1309 H   0  0  0  0  0  0  0  0  0  0  0  0
    5.2505    9.2906    8.5941 C   0  0  0  0  0  0  0  0  0  0  0  0
    4.9396    8.5638    7.8388 H   0  0  0  0  0  0  0  0  0  0  0  0
    5.4941   10.2208    8.0744 H   0  0  0  0  0  0  0  0  0  0  0  0
    6.4866    8.7591    9.3102 C   0  0  0  0  0  0  0  0  0  0  0  0
    7.2435    8.4605    8.5878 H   0  0  0  0  0  0  0  0  0  0  0  0
    6.9211    9.5109    9.9633 H   0  0  0  0  0  0  0  0  0  0  0  0
    6.2244    7.8977    9.9196 H   0  0  0  0  0  0  0  0  0  0  0  0
  1  3  1  0  0  0  0
  1  2  1  0  0  0  0
  4 21  1  0  0  0  0
  4  8  1  0  0  0  0
  5  7  1  0  0  0  0
  5 60  1  0  0  0  0
  6  4  1  0  0  0  0
  6  1  1  0  0  0  0
  7  1  1  0  0  0  0
  8  9  1  0  0  0  0
 10  8  1  0  0  0  0
 11  8  1  0  0  0  0
 11 14  1  0  0  0  0
 12 11  1  0  0  0  0
 13 11  1  0  0  0  0
 14 15  1  0  0  0  0
 14 17  1  0  0  0  0
 16 14  1  0  0  0  0
 17 20  1  0  0  0  0
 17 18  1  0  0  0  0
 19 17  1  0  0  0  0
 21 23  1  0  0  0  0
 22 21  1  0  0  0  0
 24 26  1  0  0  0  0
 24 21  1  0  0  0  0
 24 27  1  0  0  0  0
 25 24  1  0  0  0  0
 27 28  1  0  0  0  0
 29 27  1  0  0  0  0
 30 27  1  0  0  0  0
 30 33  1  0  0  0  0
 30 31  1  0  0  0  0
 32 30  1  0  0  0  0
 34 36  1  0  0  0  0
 34  4  1  0  0  0  0
 35 34  1  0  0  0  0
 37 39  1  0  0  0  0
 37 38  1  0  0  0  0
 37 34  1  0  0  0  0
 40 37  1  0  0  0  0
 41 40  1  0  0  0  0
 42 40  1  0  0  0  0
 43 45  1  0  0  0  0
 43 46  1  0  0  0  0
 43 40  1  0  0  0  0
 44 43  1  0  0  0  0
 47  5  1  0  0  0  0
 47 50  1  0  0  0  0
 48 47  1  0  0  0  0
 49 47  1  0  0  0  0
 50 52  1  0  0  0  0
 50 51  1  0  0  0  0
 53 50  1  0  0  0  0
 53 55  1  0  0  0  0
 54 53  1  0  0  0  0
 56 58  1  0  0  0  0
 56 53  1  0  0  0  0
 57 56  1  0  0  0  0
 59 56  1  0  0  0  0
 60 63  1  0  0  0  0
 61 60  1  0  0  0  0
 62 60  1  0  0  0  0
 63 65  1  0  0  0  0
 63 64  1  0  0  0  0
 63 66  1  0  0  0  0
 66 69  1  0  0  0  0
 67 66  1  0  0  0  0
 68 66  1  0  0  0  0
 69 71  1  0  0  0  0
 69 72  1  0  0  0  0
 69 70  1  0  0  0  0
 73 75  1  0  0  0  0
 73  5  1  0  0  0  0
 74 73  1  0  0  0  0
 76 78  1  0  0  0  0
 76 73  1  0  0  0  0
 77 76  1  0  0  0  0
 79 82  1  0  0  0  0
 79 76  1  0  0  0  0
 80 79  1  0  0  0  0
 81 79  1  0  0  0  0
 82 85  1  0  0  0  0
 82 84  1  0  0  0  0
 83 82  1  0  0  0  0
M  END
$$$$
