CSD_code = CEWGOD | q = 0 | S = 0 | Stoichiometry = C25H33Cl2N3Pd | MND = 4
 OpenBabel04212202023D

 64 66  0  0  0  0  0  0  0  0999 V2000
    1.9416    4.7653   15.1504 Pd  0  0  0  0  0  0  0  0  0  0  0  0
    1.3498    6.4158   16.5661 Cl  0  0  0  0  0  0  0  0  0  0  0  0
    2.7522    6.2416   13.5970 Cl  0  0  0  0  0  0  0  0  0  0  0  0
    3.4082    3.0031   13.1778 N   0  0  0  0  0  2  0  0  0  0  0  0
   -0.2843    3.5728   16.4177 N   0  0  0  0  0  0  0  0  0  0  0  0
   -0.8878    3.3756   17.2101 H   0  0  0  0  0  0  0  0  0  0  0  0
    1.6425    3.1684   17.6235 N   0  0  0  0  0  0  0  0  0  0  0  0
    2.7297    3.5225   13.9755 C   0  0  0  0  0  2  0  0  0  0  0  0
    4.1622    2.5488   12.1469 C   0  0  0  0  0  0  0  0  0  0  0  0
    5.1113    1.5488   12.3904 C   0  0  0  0  0  0  0  0  0  0  0  0
    5.8862    1.1138   11.3316 C   0  0  0  0  0  0  0  0  0  0  0  0
    6.6276    0.3458   11.5001 H   0  0  0  0  0  0  0  0  0  0  0  0
    5.7368    1.6483   10.0559 C   0  0  0  0  0  0  0  0  0  0  0  0
    4.7846    2.6365    9.8471 C   0  0  0  0  0  0  0  0  0  0  0  0
    4.6655    3.0586    8.8596 H   0  0  0  0  0  0  0  0  0  0  0  0
    3.9821    3.1065   10.8746 C   0  0  0  0  0  0  0  0  0  0  0  0
    5.2686    0.9969   13.7738 C   0  0  0  0  0  0  0  0  0  0  0  0
    5.5176    1.7961   14.4722 H   0  0  0  0  0  0  0  0  0  0  0  0
    6.0547    0.2474   13.8026 H   0  0  0  0  0  0  0  0  0  0  0  0
    4.3366    0.5432   14.1121 H   0  0  0  0  0  0  0  0  0  0  0  0
    6.5919    1.1495    8.9321 C   0  0  0  0  0  0  0  0  0  0  0  0
    7.6418    1.1558    9.2200 H   0  0  0  0  0  0  0  0  0  0  0  0
    6.4681    1.7645    8.0447 H   0  0  0  0  0  0  0  0  0  0  0  0
    6.3223    0.1235    8.6815 H   0  0  0  0  0  0  0  0  0  0  0  0
    2.9530    4.1665   10.6588 C   0  0  0  0  0  0  0  0  0  0  0  0
    3.0500    4.9583   11.4040 H   0  0  0  0  0  0  0  0  0  0  0  0
    1.9507    3.7489   10.7655 H   0  0  0  0  0  0  0  0  0  0  0  0
    3.0448    4.5975    9.6659 H   0  0  0  0  0  0  0  0  0  0  0  0
    1.0420    3.6484   16.5469 C   0  0  0  0  0  0  0  0  0  0  0  0
   -0.9157    4.2442   15.3247 C   0  0  0  0  0  0  0  0  0  0  0  0
   -0.7386    3.7786   14.0139 C   0  0  0  0  0  0  0  0  0  0  0  0
   -1.2614    4.5341   12.9704 C   0  0  0  0  0  0  0  0  0  0  0  0
   -1.1114    4.1937   11.9556 H   0  0  0  0  0  0  0  0  0  0  0  0
   -1.9749    5.7015   13.1997 C   0  0  0  0  0  0  0  0  0  0  0  0
   -2.2190    6.0827   14.5112 C   0  0  0  0  0  0  0  0  0  0  0  0
   -2.8036    6.9700   14.7063 H   0  0  0  0  0  0  0  0  0  0  0  0
   -1.7001    5.3739   15.5836 C   0  0  0  0  0  0  0  0  0  0  0  0
   -0.1526    2.4241   13.7087 C   0  0  0  0  0  0  0  0  0  0  0  0
    0.3786    2.0022   14.5589 H   0  0  0  0  0  0  0  0  0  0  0  0
    0.5248    2.4788   12.8593 H   0  0  0  0  0  0  0  0  0  0  0  0
   -0.9673    1.7484   13.4414 H   0  0  0  0  0  0  0  0  0  0  0  0
   -2.4671    6.5318   12.0554 C   0  0  0  0  0  0  0  0  0  0  0  0
   -1.6854    7.2289   11.7533 H   0  0  0  0  0  0  0  0  0  0  0  0
   -3.3437    7.1090   12.3393 H   0  0  0  0  0  0  0  0  0  0  0  0
   -2.7119    5.9091   11.1977 H   0  0  0  0  0  0  0  0  0  0  0  0
   -1.9470    5.8239   16.9914 C   0  0  0  0  0  0  0  0  0  0  0  0
   -2.6107    6.6837   17.0033 H   0  0  0  0  0  0  0  0  0  0  0  0
   -0.9993    6.1136   17.4470 H   0  0  0  0  0  0  0  0  0  0  0  0
   -2.3995    5.0309   17.5893 H   0  0  0  0  0  0  0  0  0  0  0  0
    0.9942    2.7029   18.8397 C   0  0  0  0  0  0  0  0  0  0  0  0
   -0.0402    2.4160   18.6450 H   0  0  0  0  0  0  0  0  0  0  0  0
    1.5262    1.8079   19.1816 H   0  0  0  0  0  0  0  0  0  0  0  0
    1.0776    3.7939   19.9080 C   0  0  0  0  0  0  0  0  0  0  0  0
    0.5694    3.4647   20.8157 H   0  0  0  0  0  0  0  0  0  0  0  0
    0.5829    4.6934   19.5367 H   0  0  0  0  0  0  0  0  0  0  0  0
    2.5439    4.1088   20.1917 C   0  0  0  0  0  0  0  0  0  0  0  0
    3.0292    3.2286   20.6232 H   0  0  0  0  0  0  0  0  0  0  0  0
    2.6177    4.9216   20.9145 H   0  0  0  0  0  0  0  0  0  0  0  0
    3.2432    4.5018   18.8935 C   0  0  0  0  0  0  0  0  0  0  0  0
    4.3069    4.6673   19.0655 H   0  0  0  0  0  0  0  0  0  0  0  0
    2.8063    5.4247   18.5033 H   0  0  0  0  0  0  0  0  0  0  0  0
    3.0604    3.4087   17.8386 C   0  0  0  0  0  0  0  0  0  0  0  0
    3.5257    2.4721   18.1682 H   0  0  0  0  0  0  0  0  0  0  0  0
    3.5191    3.7286   16.8855 H   0  0  0  0  0  0  0  0  0  0  0  0
  1 29  2  0  0  0  0
  1  2  1  0  0  0  0
  3  1  1  0  0  0  0
  4  8  1  0  0  0  0
  5 29  1  0  0  0  0
  5  6  1  0  0  0  0
  7 62  1  0  0  0  0
  7 50  1  0  0  0  0
  8  1  1  0  0  0  0
  9 10  1  0  0  0  0
  9  4  1  0  0  0  0
 10 17  1  0  0  0  0
 11 12  1  0  0  0  0
 11 10  2  0  0  0  0
 13 11  1  0  0  0  0
 14 13  2  0  0  0  0
 14 16  1  0  0  0  0
 15 14  1  0  0  0  0
 16  9  2  0  0  0  0
 17 19  1  0  0  0  0
 17 20  1  0  0  0  0
 17 18  1  0  0  0  0
 21 22  1  0  0  0  0
 21 13  1  0  0  0  0
 23 21  1  0  0  0  0
 24 21  1  0  0  0  0
 25 27  1  0  0  0  0
 25 16  1  0  0  0  0
 25 26  1  0  0  0  0
 28 25  1  0  0  0  0
 29  7  1  0  0  0  0
 30 37  1  0  0  0  0
 30  5  1  0  0  0  0
 31 30  2  0  0  0  0
 32 34  2  0  0  0  0
 32 31  1  0  0  0  0
 33 32  1  0  0  0  0
 34 35  1  0  0  0  0
 35 36  1  0  0  0  0
 35 37  2  0  0  0  0
 37 46  1  0  0  0  0
 38 31  1  0  0  0  0
 38 39  1  0  0  0  0
 40 38  1  0  0  0  0
 41 38  1  0  0  0  0
 42 44  1  0  0  0  0
 42 34  1  0  0  0  0
 43 42  1  0  0  0  0
 45 42  1  0  0  0  0
 46 47  1  0  0  0  0
 46 48  1  0  0  0  0
 46 49  1  0  0  0  0
 50 52  1  0  0  0  0
 50 53  1  0  0  0  0
 51 50  1  0  0  0  0
 53 56  1  0  0  0  0
 53 54  1  0  0  0  0
 55 53  1  0  0  0  0
 56 57  1  0  0  0  0
 56 58  1  0  0  0  0
 59 60  1  0  0  0  0
 59 56  1  0  0  0  0
 61 59  1  0  0  0  0
 62 63  1  0  0  0  0
 62 59  1  0  0  0  0
 64 62  1  0  0  0  0
M  END
$$$$
