CSD_code = CEWSUT | q = 1 | S = 0 | Stoichiometry = C21H17ClN5Ru(1+) | MND = 6
 OpenBabel04212202023D

 45 51  0  0  1  0  0  0  0  0999 V2000
   14.9307    1.4558   11.2216 Ru  0  0  0  0  0  0  0  0  0  0  0  0
   15.3269    3.7525   11.2481 Cl  0  0  0  0  0  0  0  0  0  0  0  0
   14.3136   -0.4567   11.1289 N   0  0  0  0  0  0  0  0  0  0  0  0
   14.8349   -1.3190   11.2848 H   0  0  0  0  0  0  0  0  0  0  0  0
   14.7852    1.5533   13.2339 N   0  0  0  0  0  0  0  0  0  0  0  0
   16.7800    1.2872   11.6852 N   0  0  0  0  0  0  0  0  0  0  0  0
   15.7424    1.4334    9.3721 N   0  0  0  0  0  0  0  0  0  0  0  0
   13.0581    1.6788   10.7509 N   0  0  0  0  0  0  0  0  0  0  0  0
   12.5783    2.5725   10.6040 H   0  0  0  0  0  0  0  0  0  0  0  0
   12.3138    0.6026   10.6020 C   0  0  0  0  0  0  0  0  0  0  0  0
   10.9360    0.5473   10.2642 C   0  0  0  0  0  0  0  0  0  0  0  0
   10.3977    1.4695   10.1020 H   0  0  0  0  0  0  0  0  0  0  0  0
   10.3226   -0.6639   10.1520 C   0  0  0  0  0  0  0  0  0  0  0  0
    9.2762   -0.7193    9.8961 H   0  0  0  0  0  0  0  0  0  0  0  0
   11.0350   -1.8704   10.3663 C   0  0  0  0  0  0  0  0  0  0  0  0
   10.5075   -2.8061   10.2664 H   0  0  0  0  0  0  0  0  0  0  0  0
   12.3588   -1.8677   10.6923 C   0  0  0  0  0  0  0  0  0  0  0  0
   12.8990   -2.7886   10.8550 H   0  0  0  0  0  0  0  0  0  0  0  0
   13.0436   -0.6329   10.8214 C   0  0  0  0  0  0  0  0  0  0  0  0
   13.6785    1.6980   13.9588 C   0  0  0  0  0  3  0  0  0  0  0  0
   12.7425    1.7249   13.4129 H   0  0  0  0  0  0  0  0  0  0  0  0
   13.6954    1.8187   15.3366 C   0  0  0  0  0  0  0  0  0  0  0  0
   12.7715    1.9433   15.8770 H   0  0  0  0  0  0  0  0  0  0  0  0
   14.9156    1.7850   15.9984 C   0  0  0  0  0  0  0  0  0  0  0  0
   14.9648    1.8830   17.0712 H   0  0  0  0  0  0  0  0  0  0  0  0
   16.0695    1.6280   15.2532 C   0  0  0  0  0  0  0  0  0  0  0  0
   17.0319    1.5988   15.7367 H   0  0  0  0  0  0  0  0  0  0  0  0
   15.9820    1.5181   13.8667 C   0  0  0  0  0  0  0  0  0  0  0  0
   17.1361    1.3899   12.9763 C   0  0  2  0  0  3  0  0  0  0  0  0
   18.4799    1.4261   13.3392 C   0  0  0  0  0  0  0  0  0  0  0  0
   18.7709    1.5071   14.3730 H   0  0  0  0  0  0  0  0  0  0  0  0
   19.4434    1.3829   12.3425 C   0  0  0  0  0  0  0  0  0  0  0  0
   20.4897    1.4059   12.6012 H   0  0  0  0  0  0  0  0  0  0  0  0
   19.0571    1.3542   11.0107 C   0  0  0  0  0  0  0  0  0  0  0  0
   19.7981    1.3791   10.2296 H   0  0  0  0  0  0  0  0  0  0  0  0
   17.6988    1.3198   10.7061 C   0  0  0  0  0  0  0  0  0  0  0  0
   17.0957    1.3794    9.3743 C   0  0  2  0  0  3  0  0  0  0  0  0
   17.8217    1.4106    8.1852 C   0  0  0  0  0  0  0  0  0  0  0  0
   18.8980    1.3679    8.2093 H   0  0  0  0  0  0  0  0  0  0  0  0
   17.1513    1.5076    6.9799 C   0  0  0  0  0  0  0  0  0  0  0  0
   17.6969    1.5446    6.0505 H   0  0  0  0  0  0  0  0  0  0  0  0
   15.7639    1.5613    6.9925 C   0  0  0  0  0  0  0  0  0  0  0  0
   15.2009    1.6410    6.0772 H   0  0  0  0  0  0  0  0  0  0  0  0
   15.1042    1.5198    8.2075 C   0  0  0  0  0  0  0  0  0  0  0  0
   14.0221    1.5643    8.2509 H   0  0  0  0  0  0  0  0  0  0  0  0
  1  2  1  0  0  0  0
  1  6  1  0  0  0  0
  1  5  1  0  0  0  0
  3  1  1  0  0  0  0
  3  4  1  0  0  0  0
  5 28  1  0  0  0  0
  5 20  1  0  0  0  0
  6 29  1  0  0  0  0
  7 37  1  0  0  0  0
  7  1  1  0  0  0  0
  8  1  1  0  0  0  0
  9  8  1  0  0  0  0
 10  8  1  0  0  0  0
 10 19  1  0  0  0  0
 11 10  2  0  0  0  0
 12 11  1  0  0  0  0
 13 11  1  0  0  0  0
 13 15  2  0  0  0  0
 14 13  1  0  0  0  0
 15 17  1  0  0  0  0
 16 15  1  0  0  0  0
 17 19  2  0  0  0  0
 17 18  1  0  0  0  0
 19  3  1  0  0  0  0
 20 22  1  0  0  0  0
 21 20  1  0  0  0  0
 22 23  1  0  0  0  0
 22 24  2  0  0  0  0
 24 25  1  0  0  0  0
 26 27  1  0  0  0  0
 26 24  1  0  0  0  0
 28 26  2  0  0  0  0
 29 30  1  6  0  0  0
 29 28  1  0  0  0  0
 30 31  1  0  0  0  0
 32 33  1  0  0  0  0
 32 30  2  0  0  0  0
 34 32  1  0  0  0  0
 35 34  1  0  0  0  0
 36 34  2  0  0  0  0
 36  6  1  0  0  0  0
 37 38  1  1  0  0  0
 37 36  1  0  0  0  0
 38 39  1  0  0  0  0
 40 42  1  0  0  0  0
 40 38  2  0  0  0  0
 41 40  1  0  0  0  0
 42 44  2  0  0  0  0
 43 42  1  0  0  0  0
 44 45  1  0  0  0  0
 44  7  1  0  0  0  0
M  END
$$$$
