CSD_code = CEXHUI | q = 0 | S = 0 | Stoichiometry = C12H19BClN6Ta | MND = 7
 OpenBabel04212202023D

 40 43  0  0  1  0  0  0  0  0999 V2000
   -0.0030    2.1401    3.4741 Ta  0  0  0  0  0  0  0  0  0  0  0  0
   -0.1675    0.0830    4.4646 Cl  0  0  0  0  0  0  0  0  0  0  0  0
    0.5518    2.2177    1.2388 C   0  0  0  0  0  0  0  0  0  0  0  0
    0.7189    3.9125    4.7578 C   0  0  0  0  0  0  0  0  0  0  0  0
    2.2561    1.6862    3.5860 C   0  0  0  0  0  0  0  0  0  0  0  0
   -1.2541    4.0532    2.6148 N   0  0  0  0  0  0  0  0  0  0  0  0
   -2.5827    4.1751    2.6243 N   0  0  1  0  0  0  0  0  0  0  0  0
   -2.9321    5.3457    2.0762 C   0  0  0  0  0  3  0  0  0  0  0  0
   -1.7837    6.0115    1.6951 C   0  0  0  0  0  0  0  0  0  0  0  0
   -0.7539    5.1494    2.0590 C   0  0  0  0  0  0  0  0  0  0  0  0
   -1.9701    2.5514    5.0738 N   0  0  0  0  0  0  0  0  0  0  0  0
   -3.1972    2.8763    4.6653 N   0  0  2  0  0  0  0  0  0  0  0  0
   -4.0304    2.9097    5.7156 C   0  0  0  0  0  3  0  0  0  0  0  0
   -3.3115    2.5939    6.8505 C   0  0  0  0  0  0  0  0  0  0  0  0
   -2.0154    2.3757    6.3859 C   0  0  0  0  0  0  0  0  0  0  0  0
   -2.1103    1.2311    2.3145 N   0  0  0  0  0  0  0  0  0  0  0  0
   -3.3127    1.7969    2.4261 N   0  0  0  0  0  0  0  0  0  0  0  0
   -4.2331    1.0272    1.8270 C   0  0  0  0  0  0  0  0  0  0  0  0
   -3.5990   -0.0820    1.3056 C   0  0  0  0  0  0  0  0  0  0  0  0
   -2.2587    0.0982    1.6443 C   0  0  0  0  0  0  0  0  0  0  0  0
   -3.5358    3.1096    3.1875 B   0  0  2  0  0  0  0  0  0  0  0  0
   -4.6592    3.4650    3.0743 H   0  0  0  0  0  0  0  0  0  0  0  0
   -3.9594    5.6353    1.9890 H   0  0  0  0  0  0  0  0  0  0  0  0
   -1.7064    6.9708    1.2272 H   0  0  0  0  0  0  0  0  0  0  0  0
    0.3061    5.2663    1.9479 H   0  0  0  0  0  0  0  0  0  0  0  0
   -5.0668    3.1520    5.5964 H   0  0  0  0  0  0  0  0  0  0  0  0
   -3.6688    2.5295    7.8574 H   0  0  0  0  0  0  0  0  0  0  0  0
   -1.1321    2.1030    6.9316 H   0  0  0  0  0  0  0  0  0  0  0  0
   -5.2663    1.3087    1.8067 H   0  0  0  0  0  0  0  0  0  0  0  0
   -4.0373   -0.8959    0.7660 H   0  0  0  0  0  0  0  0  0  0  0  0
   -1.4129   -0.5297    1.4382 H   0  0  0  0  0  0  0  0  0  0  0  0
    1.4787    4.5078    4.2531 H   0  0  0  0  0  0  0  0  0  0  0  0
    1.1597    3.5731    5.6950 H   0  0  0  0  0  0  0  0  0  0  0  0
   -0.0919    4.5913    5.0182 H   0  0  0  0  0  0  0  0  0  0  0  0
    0.9266    1.2564    0.8872 H   0  0  0  0  0  0  0  0  0  0  0  0
    1.3289    2.9514    1.0281 H   0  0  0  0  0  0  0  0  0  0  0  0
   -0.3011    2.4720    0.6111 H   0  0  0  0  0  0  0  0  0  0  0  0
    2.8914    2.4732    3.1820 H   0  0  0  0  0  0  0  0  0  0  0  0
    2.4972    0.7731    3.0427 H   0  0  0  0  0  0  0  0  0  0  0  0
    2.5692    1.5238    4.6168 H   0  0  0  0  0  0  0  0  0  0  0  0
  1  5  1  0  0  0  0
  1  2  1  0  0  0  0
  1  4  1  0  0  0  0
  1 11  1  0  0  0  0
  3  1  1  0  0  0  0
  4 34  1  0  0  0  0
  4 33  1  0  0  0  0
  5 40  1  0  0  0  0
  6  7  1  0  0  0  0
  6  1  1  0  0  0  0
  7  8  1  6  0  0  0
  7 21  1  0  0  0  0
  9 10  2  0  0  0  0
  9  8  1  0  0  0  0
 10  6  1  0  0  0  0
 11 15  1  0  0  0  0
 12 11  1  0  0  0  0
 12 13  1  6  0  0  0
 13 14  1  0  0  0  0
 14 27  1  0  0  0  0
 15 14  2  0  0  0  0
 15 28  1  0  0  0  0
 16 17  1  0  0  0  0
 17 21  1  0  0  0  0
 18 17  1  0  0  0  0
 19 20  1  0  0  0  0
 19 18  2  0  0  0  0
 20 16  2  0  0  0  0
 21 22  1  6  0  0  0
 21 12  1  0  0  0  0
 23  8  1  0  0  0  0
 24  9  1  0  0  0  0
 25 10  1  0  0  0  0
 26 13  1  0  0  0  0
 29 18  1  0  0  0  0
 30 19  1  0  0  0  0
 31 20  1  0  0  0  0
 32  4  1  0  0  0  0
 35  3  1  0  0  0  0
 36  3  1  0  0  0  0
 37  3  1  0  0  0  0
 38  5  1  0  0  0  0
 39  5  1  0  0  0  0
M  END
$$$$
