CSD_code = CEYHUK | q = 0 | S = 0 | Stoichiometry = C43H37ClIrNOP2 | MND = 6
 OpenBabel04212202023D

 86 94  0  0  1  0  0  0  0  0999 V2000
    8.3557    1.6372    7.7651 Ir  0  0  0  0  0  0  0  0  0  0  0  0
    9.7470   -0.1192    8.7719 Cl  0  0  0  0  0  0  0  0  0  0  0  0
    7.9029    2.4867    9.8650 P   0  0  0  0  0  4  0  0  0  0  0  0
   10.5407    2.6620    7.3273 P   0  0  0  0  0  4  0  0  0  0  0  0
    6.1279   -0.2873    7.3746 O   0  0  0  0  0  0  0  0  0  0  0  0
    8.3819    0.6565    5.9498 N   0  0  0  0  0  0  0  0  0  0  0  0
    7.9551   -0.6068    5.8278 C   0  0  2  0  0  3  0  0  0  0  0  0
    8.2386   -1.3676    4.6986 C   0  0  0  0  0  0  0  0  0  0  0  0
    8.9372   -0.8119    3.6445 C   0  0  0  0  0  0  0  0  0  0  0  0
    9.2725    0.5319    3.7289 C   0  0  0  0  0  0  0  0  0  0  0  0
    8.9750    1.2158    4.8873 C   0  0  0  0  0  0  0  0  0  0  0  0
    7.0851   -1.1995    6.9120 C   0  0  0  0  0  0  0  0  0  0  0  0
    6.6389    0.5618    8.3674 C   0  0  2  0  0  0  0  0  0  0  0  0
    5.5997    1.4373    8.9731 C   0  0  0  0  0  0  0  0  0  0  0  0
    4.2341    1.3199    8.7726 C   0  0  0  0  0  0  0  0  0  0  0  0
    3.3672    2.1757    9.4363 C   0  0  0  0  0  0  0  0  0  0  0  0
    3.8489    3.1390   10.3064 C   0  0  0  0  0  0  0  0  0  0  0  0
    5.2158    3.2719   10.5106 C   0  0  0  0  0  0  0  0  0  0  0  0
    6.0824    2.4295    9.8394 C   0  0  0  0  0  0  0  0  0  0  0  0
    8.3262    1.4729   11.3147 C   0  0  0  0  0  0  0  0  0  0  0  0
    9.6704    1.3379   11.6514 C   0  0  0  0  0  0  0  0  0  0  0  0
   10.0465    0.5181   12.6975 C   0  0  0  0  0  0  0  0  0  0  0  0
    9.0847   -0.1805   13.4103 C   0  0  0  0  0  0  0  0  0  0  0  0
    7.7473   -0.0564   13.0732 C   0  0  0  0  0  0  0  0  0  0  0  0
    7.3648    0.7630   12.0252 C   0  0  0  0  0  0  0  0  0  0  0  0
    8.2632    4.1850   10.4125 C   0  0  0  0  0  0  0  0  0  0  0  0
    8.7013    4.5144   11.6893 C   0  0  0  0  0  0  0  0  0  0  0  0
    8.9873    5.8335   11.9989 C   0  0  0  0  0  0  0  0  0  0  0  0
    8.8408    6.8249   11.0431 C   0  0  0  0  0  0  0  0  0  0  0  0
    8.3936    6.5009    9.7709 C   0  0  0  0  0  0  0  0  0  0  0  0
    8.1057    5.1868    9.4577 C   0  0  0  0  0  0  0  0  0  0  0  0
   10.6627    4.4150    6.8018 C   0  0  0  0  0  0  0  0  0  0  0  0
   11.8364    5.1510    6.9506 C   0  0  0  0  0  0  0  0  0  0  0  0
   11.8851    6.4728    6.5503 C   0  0  0  0  0  0  0  0  0  0  0  0
   10.7675    7.0753    5.9934 C   0  0  0  0  0  0  0  0  0  0  0  0
    9.6017    6.3473    5.8314 C   0  0  0  0  0  0  0  0  0  0  0  0
    9.5513    5.0234    6.2329 C   0  0  0  0  0  0  0  0  0  0  0  0
   11.6391    2.7203    8.7830 C   0  0  0  0  0  0  0  0  0  0  0  0
   12.5476    1.7105    9.0757 C   0  0  0  0  0  0  0  0  0  0  0  0
   13.2946    1.7654   10.2399 C   0  0  0  0  0  0  0  0  0  0  0  0
   13.1447    2.8236   11.1205 C   0  0  0  0  0  0  0  0  0  0  0  0
   12.2380    3.8326   10.8354 C   0  0  0  0  0  0  0  0  0  0  0  0
   11.4843    3.7786    9.6780 C   0  0  0  0  0  0  0  0  0  0  0  0
   11.6125    1.8475    6.0810 C   0  0  0  0  0  0  0  0  0  0  0  0
   12.2382    2.5431    5.0508 C   0  0  0  0  0  0  0  0  0  0  0  0
   12.9853    1.8647    4.1041 C   0  0  0  0  0  0  0  0  0  0  0  0
   13.1113    0.4874    4.1653 C   0  0  0  0  0  0  0  0  0  0  0  0
   12.4775   -0.2138    5.1774 C   0  0  0  0  0  0  0  0  0  0  0  0
   11.7274    0.4586    6.1237 C   0  0  0  0  0  0  0  0  0  0  0  0
    7.4679    2.7257    7.1543 H   0  0  0  0  0  0  0  0  0  0  0  0
    7.9067   -2.3938    4.6610 H   0  0  0  0  0  0  0  0  0  0  0  0
    9.1852   -1.3963    2.7722 H   0  0  0  0  0  0  0  0  0  0  0  0
    9.7689    1.0407    2.9186 H   0  0  0  0  0  0  0  0  0  0  0  0
    9.2195    2.2674    4.9691 H   0  0  0  0  0  0  0  0  0  0  0  0
    6.5372   -2.0538    6.5038 H   0  0  0  0  0  0  0  0  0  0  0  0
    7.7230   -1.5488    7.7390 H   0  0  0  0  0  0  0  0  0  0  0  0
    7.0357   -0.0744    9.1863 H   0  0  0  0  0  0  0  0  0  0  0  0
    3.8627    0.5650    8.0974 H   0  0  0  0  0  0  0  0  0  0  0  0
    2.3027    2.0882    9.2726 H   0  0  0  0  0  0  0  0  0  0  0  0
    3.1632    3.7984   10.8180 H   0  0  0  0  0  0  0  0  0  0  0  0
    5.6022    4.0352   11.1722 H   0  0  0  0  0  0  0  0  0  0  0  0
   10.4148    1.8703   11.0792 H   0  0  0  0  0  0  0  0  0  0  0  0
   11.0923    0.4145   12.9478 H   0  0  0  0  0  0  0  0  0  0  0  0
    9.3786   -0.8291   14.2228 H   0  0  0  0  0  0  0  0  0  0  0  0
    6.9974   -0.6074   13.6228 H   0  0  0  0  0  0  0  0  0  0  0  0
    6.3209    0.8510   11.7564 H   0  0  0  0  0  0  0  0  0  0  0  0
    8.8237    3.7432   12.4364 H   0  0  0  0  0  0  0  0  0  0  0  0
    9.3298    6.0876   12.9918 H   0  0  0  0  0  0  0  0  0  0  0  0
    9.0751    7.8504   11.2889 H   0  0  0  0  0  0  0  0  0  0  0  0
    8.2788    7.2722    9.0234 H   0  0  0  0  0  0  0  0  0  0  0  0
    7.7653    4.9096    8.4700 H   0  0  0  0  0  0  0  0  0  0  0  0
   12.7123    4.6856    7.3817 H   0  0  0  0  0  0  0  0  0  0  0  0
   12.7988    7.0366    6.6719 H   0  0  0  0  0  0  0  0  0  0  0  0
   10.8092    8.1101    5.6862 H   0  0  0  0  0  0  0  0  0  0  0  0
    8.7292    6.8111    5.3945 H   0  0  0  0  0  0  0  0  0  0  0  0
    8.6398    4.4523    6.1193 H   0  0  0  0  0  0  0  0  0  0  0  0
   12.6682    0.8769    8.4014 H   0  0  0  0  0  0  0  0  0  0  0  0
   13.9958    0.9735   10.4607 H   0  0  0  0  0  0  0  0  0  0  0  0
   13.7294    2.8612   12.0282 H   0  0  0  0  0  0  0  0  0  0  0  0
   12.1078    4.6591   11.5192 H   0  0  0  0  0  0  0  0  0  0  0  0
   10.7716    4.5627    9.4614 H   0  0  0  0  0  0  0  0  0  0  0  0
   12.1423    3.6168    4.9788 H   0  0  0  0  0  0  0  0  0  0  0  0
   13.4696    2.4177    3.3119 H   0  0  0  0  0  0  0  0  0  0  0  0
   13.6957   -0.0370    3.4232 H   0  0  0  0  0  0  0  0  0  0  0  0
   12.5611   -1.2900    5.2268 H   0  0  0  0  0  0  0  0  0  0  0  0
   11.2106   -0.0957    6.8954 H   0  0  0  0  0  0  0  0  0  0  0  0
  1 13  1  0  0  0  0
  1  2  1  0  0  0  0
  1  3  1  0  0  0  0
  3 26  1  0  0  0  0
  3 20  1  0  0  0  0
  4  1  1  0  0  0  0
  4 38  1  0  0  0  0
  5 13  1  0  0  0  0
  6  1  1  0  0  0  0
  7  8  1  6  0  0  0
  7  6  1  0  0  0  0
  7 12  1  0  0  0  0
  9 10  1  0  0  0  0
  9  8  2  0  0  0  0
 10 11  2  0  0  0  0
 11 54  1  0  0  0  0
 11  6  1  0  0  0  0
 12  5  1  0  0  0  0
 12 56  1  0  0  0  0
 13 14  1  0  0  0  0
 13 57  1  1  0  0  0
 14 19  1  0  0  0  0
 15 14  2  0  0  0  0
 15 16  1  0  0  0  0
 16 17  2  0  0  0  0
 17 18  1  0  0  0  0
 17 60  1  0  0  0  0
 18 61  1  0  0  0  0
 19  3  1  0  0  0  0
 19 18  2  0  0  0  0
 20 21  2  0  0  0  0
 20 25  1  0  0  0  0
 21 22  1  0  0  0  0
 22 63  1  0  0  0  0
 22 23  2  0  0  0  0
 23 64  1  0  0  0  0
 24 23  1  0  0  0  0
 24 65  1  0  0  0  0
 25 24  2  0  0  0  0
 26 27  1  0  0  0  0
 27 28  2  0  0  0  0
 27 67  1  0  0  0  0
 28 68  1  0  0  0  0
 29 69  1  0  0  0  0
 29 28  1  0  0  0  0
 30 29  2  0  0  0  0
 31 30  1  0  0  0  0
 31 26  2  0  0  0  0
 32 33  1  0  0  0  0
 32  4  1  0  0  0  0
 33 72  1  0  0  0  0
 34 73  1  0  0  0  0
 34 33  2  0  0  0  0
 35 34  1  0  0  0  0
 36 35  2  0  0  0  0
 36 37  1  0  0  0  0
 37 32  2  0  0  0  0
 38 39  2  0  0  0  0
 38 43  1  0  0  0  0
 39 40  1  0  0  0  0
 40 78  1  0  0  0  0
 40 41  2  0  0  0  0
 41 79  1  0  0  0  0
 42 41  1  0  0  0  0
 42 80  1  0  0  0  0
 43 42  2  0  0  0  0
 44 49  1  0  0  0  0
 44  4  1  0  0  0  0
 45 44  2  0  0  0  0
 46 47  2  0  0  0  0
 46 45  1  0  0  0  0
 47 48  1  0  0  0  0
 48 85  1  0  0  0  0
 48 49  2  0  0  0  0
 49 86  1  0  0  0  0
 50  1  1  0  0  0  0
 51  8  1  0  0  0  0
 52  9  1  0  0  0  0
 53 10  1  0  0  0  0
 55 12  1  0  0  0  0
 58 15  1  0  0  0  0
 59 16  1  0  0  0  0
 62 21  1  0  0  0  0
 66 25  1  0  0  0  0
 70 30  1  0  0  0  0
 71 31  1  0  0  0  0
 74 35  1  0  0  0  0
 75 36  1  0  0  0  0
 76 37  1  0  0  0  0
 77 39  1  0  0  0  0
 81 43  1  0  0  0  0
 82 45  1  0  0  0  0
 83 46  1  0  0  0  0
 84 47  1  0  0  0  0
M  END
$$$$
