CSD_code = CEYPIG | q = 0 | S = 0 | Stoichiometry = C28H35Cl2N2PPd | MND = 4
 OpenBabel04212202023D

 69 72  0  0  0  0  0  0  0  0999 V2000
    7.7145   11.9264    4.3684 Pd  0  0  0  0  0  0  0  0  0  0  0  0
    9.9944   12.1795    4.1796 Cl  0  0  0  0  0  0  0  0  0  0  0  0
    7.4060   14.0805    5.0434 Cl  0  0  0  0  0  0  0  0  0  0  0  0
    8.0890    9.8298    3.6841 P   0  0  0  0  0  4  0  0  0  0  0  0
    5.2613   11.5217    5.8401 N   0  0  0  0  0  0  0  0  0  0  0  0
    4.9162   12.0321    3.6153 N   0  0  0  0  0  0  0  0  0  0  0  0
    5.7400   11.7951    4.6296 C   0  0  0  0  0  0  0  0  0  0  0  0
    3.8353   11.4975    6.1215 C   0  0  0  0  0  0  0  0  0  0  0  0
    3.1312   12.4790    5.1990 C   0  0  0  0  0  0  0  0  0  0  0  0
    3.4712   12.0889    3.7699 C   0  0  0  0  0  0  0  0  0  0  0  0
    6.1663   11.3756    6.9838 C   0  0  0  0  0  0  0  0  0  0  0  0
    5.9180   10.0636    7.7256 C   0  0  0  0  0  0  0  0  0  0  0  0
    6.0802   12.5865    7.9131 C   0  0  0  0  0  0  0  0  0  0  0  0
    5.4498   12.4172    2.3066 C   0  0  0  0  0  0  0  0  0  0  0  0
    4.7601   11.6513    1.1801 C   0  0  0  0  0  0  0  0  0  0  0  0
    5.3713   13.9323    2.1141 C   0  0  0  0  0  0  0  0  0  0  0  0
    8.6072    8.7758    5.0700 C   0  0  0  0  0  0  0  0  0  0  0  0
    9.2200    9.4019    6.1527 C   0  0  0  0  0  0  0  0  0  0  0  0
    9.6206    8.6571    7.2472 C   0  0  0  0  0  0  0  0  0  0  0  0
    9.4068    7.2881    7.2693 C   0  0  0  0  0  0  0  0  0  0  0  0
    8.7958    6.6623    6.1943 C   0  0  0  0  0  0  0  0  0  0  0  0
    8.3950    7.4001    5.0945 C   0  0  0  0  0  0  0  0  0  0  0  0
    9.3642    9.6373    2.4075 C   0  0  0  0  0  0  0  0  0  0  0  0
    9.4399   10.6397    1.4437 C   0  0  0  0  0  0  0  0  0  0  0  0
   10.3778   10.5572    0.4333 C   0  0  0  0  0  0  0  0  0  0  0  0
   11.2461    9.4769    0.3842 C   0  0  0  0  0  0  0  0  0  0  0  0
   11.1767    8.4835    1.3461 C   0  0  0  0  0  0  0  0  0  0  0  0
   10.2363    8.5583    2.3599 C   0  0  0  0  0  0  0  0  0  0  0  0
    6.6917    8.8874    2.9794 C   0  0  0  0  0  0  0  0  0  0  0  0
    5.5825    8.6670    3.7930 C   0  0  0  0  0  0  0  0  0  0  0  0
    4.4645    8.0243    3.2993 C   0  0  0  0  0  0  0  0  0  0  0  0
    4.4371    7.5994    1.9791 C   0  0  0  0  0  0  0  0  0  0  0  0
    5.5332    7.8192    1.1623 C   0  0  0  0  0  0  0  0  0  0  0  0
    6.6559    8.4630    1.6562 C   0  0  0  0  0  0  0  0  0  0  0  0
    7.1969   11.3557    6.5707 H   0  0  0  0  0  0  0  0  0  0  0  0
    7.5076    8.6342    1.0132 H   0  0  0  0  0  0  0  0  0  0  0  0
    3.6679   11.7686    7.1635 H   0  0  0  0  0  0  0  0  0  0  0  0
    3.4441   10.4841    5.9609 H   0  0  0  0  0  0  0  0  0  0  0  0
    3.5007   13.4865    5.3977 H   0  0  0  0  0  0  0  0  0  0  0  0
    2.0537   12.4567    5.3583 H   0  0  0  0  0  0  0  0  0  0  0  0
    3.0389   11.1088    3.5300 H   0  0  0  0  0  0  0  0  0  0  0  0
    3.0652   12.8232    3.0736 H   0  0  0  0  0  0  0  0  0  0  0  0
    6.0041    9.2137    7.0511 H   0  0  0  0  0  0  0  0  0  0  0  0
    4.9352   10.0461    8.1916 H   0  0  0  0  0  0  0  0  0  0  0  0
    6.6659    9.9466    8.5048 H   0  0  0  0  0  0  0  0  0  0  0  0
    6.2541   13.4922    7.3348 H   0  0  0  0  0  0  0  0  0  0  0  0
    6.8534   12.5123    8.6726 H   0  0  0  0  0  0  0  0  0  0  0  0
    5.1169   12.6568    8.4136 H   0  0  0  0  0  0  0  0  0  0  0  0
    6.5253   12.1384    2.3098 H   0  0  0  0  0  0  0  0  0  0  0  0
    4.7653   10.5833    1.3854 H   0  0  0  0  0  0  0  0  0  0  0  0
    5.2956   11.8230    0.2503 H   0  0  0  0  0  0  0  0  0  0  0  0
    3.7326   11.9793    1.0413 H   0  0  0  0  0  0  0  0  0  0  0  0
    5.8967   14.4246    2.9324 H   0  0  0  0  0  0  0  0  0  0  0  0
    4.3426   14.2854    2.0902 H   0  0  0  0  0  0  0  0  0  0  0  0
    5.8502   14.2083    1.1786 H   0  0  0  0  0  0  0  0  0  0  0  0
    9.3975   10.4756    6.1160 H   0  0  0  0  0  0  0  0  0  0  0  0
   10.0997    9.1438    8.0838 H   0  0  0  0  0  0  0  0  0  0  0  0
    9.7167    6.7057    8.1245 H   0  0  0  0  0  0  0  0  0  0  0  0
    8.6311    5.5946    6.2124 H   0  0  0  0  0  0  0  0  0  0  0  0
    7.9115    6.9134    4.2579 H   0  0  0  0  0  0  0  0  0  0  0  0
    8.7792   11.5007    1.5200 H   0  0  0  0  0  0  0  0  0  0  0  0
   10.4443   11.3397   -0.3080 H   0  0  0  0  0  0  0  0  0  0  0  0
   11.9872    9.4173   -0.3995 H   0  0  0  0  0  0  0  0  0  0  0  0
   11.8627    7.6495    1.3135 H   0  0  0  0  0  0  0  0  0  0  0  0
   10.1901    7.7903    3.1193 H   0  0  0  0  0  0  0  0  0  0  0  0
    5.6160    9.0023    4.8210 H   0  0  0  0  0  0  0  0  0  0  0  0
    3.6117    7.8503    3.9402 H   0  0  0  0  0  0  0  0  0  0  0  0
    3.5627    7.0995    1.5896 H   0  0  0  0  0  0  0  0  0  0  0  0
    5.5147    7.4894    0.1339 H   0  0  0  0  0  0  0  0  0  0  0  0
  1  7  2  0  0  0  0
  1  3  1  0  0  0  0
  2  1  1  0  0  0  0
  4  1  1  0  0  0  0
  4 17  1  0  0  0  0
  5  8  1  0  0  0  0
  5 11  1  0  0  0  0
  6 10  1  0  0  0  0
  6  7  1  0  0  0  0
  7  5  1  0  0  0  0
  8 37  1  0  0  0  0
  9 40  1  0  0  0  0
  9 39  1  0  0  0  0
  9  8  1  0  0  0  0
 10  9  1  0  0  0  0
 11 12  1  0  0  0  0
 11 13  1  0  0  0  0
 12 44  1  0  0  0  0
 12 45  1  0  0  0  0
 13 48  1  0  0  0  0
 13 47  1  0  0  0  0
 14 49  1  0  0  0  0
 14  6  1  0  0  0  0
 15 50  1  0  0  0  0
 15 14  1  0  0  0  0
 16 14  1  0  0  0  0
 16 53  1  0  0  0  0
 17 22  2  0  0  0  0
 17 18  1  0  0  0  0
 18 19  2  0  0  0  0
 19 20  1  0  0  0  0
 19 57  1  0  0  0  0
 20 58  1  0  0  0  0
 21 59  1  0  0  0  0
 21 20  2  0  0  0  0
 22 21  1  0  0  0  0
 23  4  1  0  0  0  0
 24 61  1  0  0  0  0
 24 23  2  0  0  0  0
 25 24  1  0  0  0  0
 26 25  2  0  0  0  0
 26 27  1  0  0  0  0
 27 28  2  0  0  0  0
 28 23  1  0  0  0  0
 28 65  1  0  0  0  0
 29  4  1  0  0  0  0
 29 30  1  0  0  0  0
 30 66  1  0  0  0  0
 31 30  2  0  0  0  0
 31 67  1  0  0  0  0
 32 31  1  0  0  0  0
 33 34  1  0  0  0  0
 33 32  2  0  0  0  0
 34 29  2  0  0  0  0
 35 11  1  0  0  0  0
 36 34  1  0  0  0  0
 38  8  1  0  0  0  0
 41 10  1  0  0  0  0
 42 10  1  0  0  0  0
 43 12  1  0  0  0  0
 46 13  1  0  0  0  0
 51 15  1  0  0  0  0
 52 15  1  0  0  0  0
 54 16  1  0  0  0  0
 55 16  1  0  0  0  0
 56 18  1  0  0  0  0
 60 22  1  0  0  0  0
 62 25  1  0  0  0  0
 63 26  1  0  0  0  0
 64 27  1  0  0  0  0
 68 32  1  0  0  0  0
 69 33  1  0  0  0  0
M  END
$$$$
