CSD_code = CEYTAB | q = 0 | S = 0 | Stoichiometry = C8H20Cl2NO3PPtS | MND = 4
 OpenBabel04212202023D

 37 37  0  0  1  0  0  0  0  0999 V2000
    0.2397    1.2980    2.1857 Pt  0  0  0  0  0  0  0  0  0  0  0  0
   -1.7418    1.9916    3.0149 Cl  0  0  0  0  0  0  0  0  0  0  0  0
    2.3444    0.5402    1.3604 S   0  0  1  0  0  3  0  0  0  0  0  0
    0.4036   -0.3158    3.7344 Cl  0  0  0  0  0  0  0  0  0  0  0  0
    0.5101    4.7205   -1.1241 P   0  0  0  0  0  0  0  0  0  0  0  0
   -0.0258    2.8824    0.7779 N   0  0  0  0  0  4  0  0  0  0  0  0
   -0.9860    2.7738    0.4418 H   0  0  0  0  0  0  0  0  0  0  0  0
   -0.0427    3.7263    1.3583 H   0  0  0  0  0  0  0  0  0  0  0  0
    0.5676    5.6270    0.1926 O   0  0  0  0  0  0  0  0  0  0  0  0
   -1.0676    4.6651   -1.4323 O   0  0  0  0  0  0  0  0  0  0  0  0
    1.3281    5.1755   -2.2504 O   0  0  0  0  0  0  0  0  0  0  0  0
    0.8938    3.0882   -0.3302 C   0  0  2  0  0  0  0  0  0  0  0  0
    0.7505    2.2953   -1.0721 H   0  0  0  0  0  0  0  0  0  0  0  0
    2.3509    3.1077    0.1265 C   0  0  0  0  0  0  0  0  0  0  0  0
    2.9120    3.7527   -0.5566 H   0  0  0  0  0  0  0  0  0  0  0  0
    2.4050    3.5532    1.1232 H   0  0  0  0  0  0  0  0  0  0  0  0
    3.0000    1.7314    0.1220 C   0  0  0  0  0  0  0  0  0  0  0  0
    4.0690    1.8093    0.3161 H   0  0  0  0  0  0  0  0  0  0  0  0
    2.8579    1.2492   -0.8450 H   0  0  0  0  0  0  0  0  0  0  0  0
    0.8575    7.0221    0.0867 C   0  0  0  0  0  0  0  0  0  0  0  0
   -0.0525    7.5721    0.3419 H   0  0  0  0  0  0  0  0  0  0  0  0
    1.1405    7.2520   -0.9451 H   0  0  0  0  0  0  0  0  0  0  0  0
    1.9855    7.3718    1.0416 C   0  0  0  0  0  0  0  0  0  0  0  0
    2.1773    8.4400    1.0028 H   0  0  0  0  0  0  0  0  0  0  0  0
    2.8914    6.8396    0.7619 H   0  0  0  0  0  0  0  0  0  0  0  0
    1.7146    7.0976    2.0580 H   0  0  0  0  0  0  0  0  0  0  0  0
   -1.5131    4.4997   -2.7739 C   0  0  0  0  0  0  0  0  0  0  0  0
   -0.9027    5.1250   -3.4322 H   0  0  0  0  0  0  0  0  0  0  0  0
   -2.5459    4.8558   -2.7809 H   0  0  0  0  0  0  0  0  0  0  0  0
    3.3624    0.9994    2.7917 C   0  0  0  0  0  0  0  0  0  0  0  0
    4.3939    0.7259    2.5861 H   0  0  0  0  0  0  0  0  0  0  0  0
    2.9761    0.4239    3.6296 H   0  0  0  0  0  0  0  0  0  0  0  0
    3.2770    2.0616    3.0005 H   0  0  0  0  0  0  0  0  0  0  0  0
   -1.4303    3.0485   -3.2129 C   0  0  0  0  0  0  0  0  0  0  0  0
   -0.3876    2.7402   -3.2642 H   0  0  0  0  0  0  0  0  0  0  0  0
   -1.8758    2.9377   -4.1975 H   0  0  0  0  0  0  0  0  0  0  0  0
   -1.9620    2.4076   -2.5130 H   0  0  0  0  0  0  0  0  0  0  0  0
  1  2  1  0  0  0  0
  1  4  1  0  0  0  0
  3  1  1  0  0  0  0
  3 30  1  1  0  0  0
  5 12  1  0  0  0  0
  5  9  1  0  0  0  0
  6  8  1  0  0  0  0
  6  1  1  0  0  0  0
  7  6  1  0  0  0  0
 10  5  1  0  0  0  0
 11  5  2  0  0  0  0
 12 13  1  6  0  0  0
 12 14  1  0  0  0  0
 12  6  1  0  0  0  0
 14 16  1  0  0  0  0
 15 14  1  0  0  0  0
 17 14  1  0  0  0  0
 17 18  1  0  0  0  0
 17  3  1  0  0  0  0
 19 17  1  0  0  0  0
 20  9  1  0  0  0  0
 20 21  1  0  0  0  0
 20 23  1  0  0  0  0
 22 20  1  0  0  0  0
 23 26  1  0  0  0  0
 24 23  1  0  0  0  0
 25 23  1  0  0  0  0
 27 10  1  0  0  0  0
 28 27  1  0  0  0  0
 29 27  1  0  0  0  0
 30 33  1  0  0  0  0
 30 32  1  0  0  0  0
 31 30  1  0  0  0  0
 34 27  1  0  0  0  0
 34 37  1  0  0  0  0
 35 34  1  0  0  0  0
 36 34  1  0  0  0  0
M  END
$$$$
