CSD_code = CEZLIF | q = 0 | S = 0 | Stoichiometry = C15H11Cl2N3O3Zn | MND = 4
 OpenBabel04212202023D

 35 38  0  0  1  0  0  0  0  0999 V2000
    9.7392    4.2132    7.0665 Zn  0  0  0  0  0  0  0  0  0  0  0  0
    9.6066    6.2530    7.9400 Cl  0  0  0  0  0  0  0  0  0  0  0  0
    9.0403    2.2659    6.2641 Cl  0  0  0  0  0  0  0  0  0  0  0  0
    8.8068    3.3546    9.2232 O   0  0  0  0  0  0  0  0  0  0  0  0
    7.9147    3.2135    9.5659 H   0  0  0  0  0  0  0  0  0  0  0  0
   11.7271    6.7140    2.6165 O   0  0  0  0  0  0  0  0  0  0  0  0
    9.4105    5.2640    4.9029 O   0  0  0  0  0  0  0  0  0  0  0  0
   11.6997    4.5548    6.0197 N   0  0  0  0  0  0  0  0  0  0  0  0
   11.3325    3.3848    8.3325 N   0  0  0  0  0  0  0  0  0  0  0  0
   11.6830    5.2388    4.8893 N   0  0  0  0  0  0  0  0  0  0  0  0
   12.5418    5.5442    4.4305 H   0  0  0  0  0  0  0  0  0  0  0  0
   12.5663    3.4552    7.8745 C   0  0  0  0  0  0  0  0  0  0  0  0
   10.5231    6.3934    3.1588 C   0  0  0  0  0  0  0  0  0  0  0  0
    9.7265    2.6816    9.9339 C   0  0  0  0  0  0  0  0  0  0  0  0
   10.4492    5.5965    4.3759 C   0  0  0  0  0  0  0  0  0  0  0  0
   11.0716    2.7274    9.4655 C   0  0  1  0  0  3  0  0  0  0  0  0
   12.0916    2.0673   10.2073 C   0  0  0  0  0  0  0  0  0  0  0  0
   12.7477    4.1736    6.6292 C   0  0  0  0  0  3  0  0  0  0  0  0
   13.7582    4.3630    6.2627 H   0  0  0  0  0  0  0  0  0  0  0  0
   13.4088    2.1661    9.7089 C   0  0  0  0  0  0  0  0  0  0  0  0
   14.2127    1.6867   10.2487 H   0  0  0  0  0  0  0  0  0  0  0  0
   13.6504    2.8600    8.5565 C   0  0  0  0  0  0  0  0  0  0  0  0
   14.6477    2.9507    8.1541 H   0  0  0  0  0  0  0  0  0  0  0  0
   11.7513    1.3612   11.3747 C   0  0  0  0  0  0  0  0  0  0  0  0
   12.5286    0.8595   11.9305 H   0  0  0  0  0  0  0  0  0  0  0  0
    9.4364    1.9709   11.0753 C   0  0  0  0  0  0  0  0  0  0  0  0
    8.4162    1.9206   11.4295 H   0  0  0  0  0  0  0  0  0  0  0  0
   10.4469    1.3129   11.7879 C   0  0  0  0  0  0  0  0  0  0  0  0
   10.1808    0.7653   12.6792 H   0  0  0  0  0  0  0  0  0  0  0  0
   10.1389    7.6168    1.3402 C   0  0  0  0  0  0  0  0  0  0  0  0
    9.6623    8.1591    0.5503 H   0  0  0  0  0  0  0  0  0  0  0  0
   11.4802    7.4491    1.5260 C   0  0  0  0  0  0  0  0  0  0  0  0
   12.3276    7.7938    0.9660 H   0  0  0  0  0  0  0  0  0  0  0  0
    9.5118    6.9316    2.3997 C   0  0  0  0  0  0  0  0  0  0  0  0
    8.4644    6.8366    2.5969 H   0  0  0  0  0  0  0  0  0  0  0  0
  1  2  1  0  0  0  0
  1  9  1  0  0  0  0
  3  1  1  0  0  0  0
  4  5  1  0  0  0  0
  4 14  1  0  0  0  0
  6 13  1  0  0  0  0
  8 18  1  0  0  0  0
  8  1  1  0  0  0  0
  9 16  1  0  0  0  0
 10  8  1  0  0  0  0
 11 10  1  0  0  0  0
 12  9  1  0  0  0  0
 12 22  2  0  0  0  0
 13 15  1  0  0  0  0
 14 26  2  0  0  0  0
 15 10  1  0  0  0  0
 15  7  2  0  0  0  0
 16 14  1  6  0  0  0
 16 17  1  0  0  0  0
 17 24  1  0  0  0  0
 18 12  1  0  0  0  0
 19 18  1  0  0  0  0
 20 17  2  0  0  0  0
 20 21  1  0  0  0  0
 22 20  1  0  0  0  0
 23 22  1  0  0  0  0
 24 28  2  0  0  0  0
 24 25  1  0  0  0  0
 26 27  1  0  0  0  0
 26 28  1  0  0  0  0
 28 29  1  0  0  0  0
 30 32  2  0  0  0  0
 30 34  1  0  0  0  0
 31 30  1  0  0  0  0
 32  6  1  0  0  0  0
 33 32  1  0  0  0  0
 34 35  1  0  0  0  0
 34 13  2  0  0  0  0
M  END
$$$$
