CSD_code = CEZSIM | q = -1 | S = 0 | Stoichiometry = C22H15Cl5F6Rh(1-) | MND = 8
 OpenBabel04212202023D

 49 50  0  0  1  0  0  0  0  0999 V2000
    1.7132   15.3837    4.0868 Rh  0  0  0  0  0  0  0  0  0  0  0  0
    5.2243   15.5824   -0.3706 Cl  0  0  0  0  0  0  0  0  0  0  0  0
    1.7847   17.6844    3.8333 Cl  0  0  0  0  0 15  0  0  0  0  0  0
    6.5272   12.3189    3.7222 Cl  0  0  0  0  0  0  0  0  0  0  0  0
    2.7424   15.0862    9.7036 Cl  0  0  0  0  0  0  0  0  0  0  0  0
    6.3630   17.6167    6.6115 Cl  0  0  0  0  0  0  0  0  0  0  0  0
    2.9261   16.1951    1.2952 F   0  0  0  0  0  0  0  0  0  0  0  0
    4.6038   16.8553    4.4838 F   0  0  0  0  0  0  0  0  0  0  0  0
    4.0660   13.3343    4.8772 F   0  0  0  0  0  0  0  0  0  0  0  0
    6.8610   13.6306    1.1051 F   0  0  0  0  0  0  0  0  0  0  0  0
    1.4201   14.6203    7.1869 F   0  0  0  0  0  0  0  0  0  0  0  0
    5.1910   16.6267    9.1294 F   0  0  0  0  0  0  0  0  0  0  0  0
    4.4594   16.3394    8.0354 C   0  0  0  0  0  0  0  0  0  0  0  0
   -0.4188   14.5515    4.8383 C   0  0  0  0  0  0  0  0  0  0  0  0
    0.1032   14.9879    2.6173 C   0  0  2  0  0  0  0  0  0  0  0  0
   -1.4824   16.6763    3.7814 C   0  0  0  0  0  0  0  0  0  0  0  0
   -1.9220   16.8364    4.7628 H   0  0  0  0  0  0  0  0  0  0  0  0
   -2.2828   16.5353    3.0521 H   0  0  0  0  0  0  0  0  0  0  0  0
   -0.9196   17.5675    3.5043 H   0  0  0  0  0  0  0  0  0  0  0  0
    0.4487   13.5142    4.3689 C   0  0  0  0  0  0  0  0  0  0  0  0
    0.7547   12.2323    5.0797 C   0  0  0  0  0  0  0  0  0  0  0  0
    1.7258   11.8453    4.7809 H   0  0  0  0  0  0  0  0  0  0  0  0
   -0.0038   11.4823    4.8392 H   0  0  0  0  0  0  0  0  0  0  0  0
    0.7680   12.3807    6.1556 H   0  0  0  0  0  0  0  0  0  0  0  0
    4.3237   13.9075    3.6781 C   0  0  0  0  0  0  0  0  0  0  0  0
    5.4711   13.4881    3.0169 C   0  0  0  0  0  0  0  0  0  0  0  0
   -1.2076   14.5609    6.1132 C   0  0  0  0  0  0  0  0  0  0  0  0
   -0.8812   13.7678    6.7781 H   0  0  0  0  0  0  0  0  0  0  0  0
   -2.2652   14.4078    5.8829 H   0  0  0  0  0  0  0  0  0  0  0  0
   -1.1070   15.5081    6.6393 H   0  0  0  0  0  0  0  0  0  0  0  0
   -0.0835   15.5610    1.2442 C   0  0  0  0  0  0  0  0  0  0  0  0
    0.1227   16.6294    1.2474 H   0  0  0  0  0  0  0  0  0  0  0  0
   -1.1154   15.4080    0.9163 H   0  0  0  0  0  0  0  0  0  0  0  0
    0.5813   15.0884    0.5260 H   0  0  0  0  0  0  0  0  0  0  0  0
    4.8907   14.9433    1.1964 C   0  0  0  0  0  0  0  0  0  0  0  0
    3.4309   14.8488    3.1688 C   0  0  0  0  0  0  0  0  0  0  0  0
    2.8985   15.7412    5.7176 C   0  0  0  0  0  0  0  0  0  0  0  0
    3.7573   15.3313    1.9011 C   0  0  0  0  0  0  0  0  0  0  0  0
    4.8831   16.7482    6.7800 C   0  0  0  0  0  0  0  0  0  0  0  0
    3.2798   15.6230    8.1529 C   0  0  0  0  0  0  0  0  0  0  0  0
    2.5457   15.3431    7.0069 C   0  0  0  0  0  0  0  0  0  0  0  0
    4.1072   16.4449    5.6671 C   0  0  0  0  0  0  0  0  0  0  0  0
    5.7564   14.0220    1.7687 C   0  0  0  0  0  0  0  0  0  0  0  0
    1.3120   12.7523    2.0308 C   0  0  0  0  0  0  0  0  0  0  0  0
    1.7142   13.2335    1.1418 H   0  0  0  0  0  0  0  0  0  0  0  0
    0.5416   12.0424    1.7190 H   0  0  0  0  0  0  0  0  0  0  0  0
    2.1142   12.1930    2.5081 H   0  0  0  0  0  0  0  0  0  0  0  0
   -0.5835   15.4804    3.7864 C   0  0  0  0  0  0  0  0  0  0  0  0
    0.7087   13.7541    2.9706 C   0  0  0  0  0  0  0  0  0  0  0  0
  1 37  1  0  0  0  0
  2 35  1  0  0  0  0
  6 39  1  0  0  0  0
  7 38  1  0  0  0  0
  8 42  1  0  0  0  0
 10 43  1  0  0  0  0
 13 40  1  0  0  0  0
 13 12  1  0  0  0  0
 14 27  1  0  0  0  0
 15 31  1  6  0  0  0
 15 49  1  0  0  0  0
 15 48  1  0  0  0  0
 15  1  1  0  0  0  0
 16 48  1  0  0  0  0
 16 17  1  0  0  0  0
 18 16  1  0  0  0  0
 19 16  1  0  0  0  0
 20 14  1  0  0  0  0
 20 21  1  0  0  0  0
 21 24  1  0  0  0  0
 22 21  1  0  0  0  0
 23 21  1  0  0  0  0
 25  9  1  0  0  0  0
 26 25  2  0  0  0  0
 26  4  1  0  0  0  0
 27 30  1  0  0  0  0
 27 28  1  0  0  0  0
 29 27  1  0  0  0  0
 31 32  1  0  0  0  0
 33 31  1  0  0  0  0
 34 31  1  0  0  0  0
 35 43  2  0  0  0  0
 35 38  1  0  0  0  0
 36 25  1  0  0  0  0
 36  1  1  0  0  0  0
 37 41  1  0  0  0  0
 38 36  2  0  0  0  0
 39 13  2  0  0  0  0
 40  5  1  0  0  0  0
 41 11  1  0  0  0  0
 41 40  2  0  0  0  0
 42 37  2  0  0  0  0
 42 39  1  0  0  0  0
 43 26  1  0  0  0  0
 44 47  1  0  0  0  0
 44 49  1  0  0  0  0
 45 44  1  0  0  0  0
 46 44  1  0  0  0  0
 48 14  2  0  0  0  0
 49 20  2  0  0  0  0
M  END
$$$$
