CSD_code = CEZVUB | q = 0 | S = 0 | Stoichiometry = C19H24Cl2NPPd | MND = 4
 OpenBabel04212202023D

 48 50  0  0  1  0  0  0  0  0999 V2000
    4.1636    6.1209   11.4244 C   0  0  1  0  0  0  0  0  0  0  0  0
    3.5748    6.1342   12.3488 H   0  0  0  0  0  0  0  0  0  0  0  0
    5.5034    6.8323   11.6472 C   0  0  0  0  0  0  0  0  0  0  0  0
    5.9986    6.8717   10.6748 H   0  0  0  0  0  0  0  0  0  0  0  0
    5.3133    7.8660   11.9608 H   0  0  0  0  0  0  0  0  0  0  0  0
    6.4415    6.2176   12.6745 C   0  0  2  0  0  3  0  0  0  0  0  0
    5.9379    5.5523   13.7991 C   0  0  0  0  0  0  0  0  0  0  0  0
    4.8792    5.6733   14.0174 H   0  0  0  0  0  0  0  0  0  0  0  0
    6.5617    5.4501   14.6790 H   0  0  0  0  0  0  0  0  0  0  0  0
    3.3650    6.8081   10.3233 C   0  0  0  0  0  0  0  0  0  0  0  0
    3.0988    7.8201   10.6256 H   0  0  0  0  0  0  0  0  0  0  0  0
    2.4473    6.2615   10.1168 H   0  0  0  0  0  0  0  0  0  0  0  0
    3.9453    6.8682    9.4047 H   0  0  0  0  0  0  0  0  0  0  0  0
    3.0256    3.5012   10.7282 C   0  0  0  0  0  0  0  0  0  0  0  0
    1.8547    3.8412   11.4011 C   0  0  0  0  0  0  0  0  0  0  0  0
    1.8559    4.6446   12.1248 H   0  0  0  0  0  0  0  0  0  0  0  0
    0.6871    3.1427   11.1538 C   0  0  0  0  0  0  0  0  0  0  0  0
   -0.2203    3.4127   11.6742 H   0  0  0  0  0  0  0  0  0  0  0  0
    0.6829    2.0925   10.2503 C   0  0  0  0  0  0  0  0  0  0  0  0
   -0.2299    1.5467   10.0630 H   0  0  0  0  0  0  0  0  0  0  0  0
    1.8530    1.7321    9.6011 C   0  0  0  0  0  0  0  0  0  0  0  0
    1.8552    0.9004    8.9124 H   0  0  0  0  0  0  0  0  0  0  0  0
    3.0233    2.4276    9.8398 C   0  0  0  0  0  0  0  0  0  0  0  0
    3.9459    2.1342    9.3600 H   0  0  0  0  0  0  0  0  0  0  0  0
    5.4774    4.4242    9.5157 C   0  0  0  0  0  0  0  0  0  0  0  0
    4.8409    4.6061    8.2919 C   0  0  0  0  0  0  0  0  0  0  0  0
    3.7616    4.6396    8.2450 H   0  0  0  0  0  0  0  0  0  0  0  0
    5.5910    4.7210    7.1345 C   0  0  0  0  0  0  0  0  0  0  0  0
    5.0943    4.8569    6.1850 H   0  0  0  0  0  0  0  0  0  0  0  0
    6.9738    4.6561    7.1895 C   0  0  0  0  0  0  0  0  0  0  0  0
    7.5539    4.7418    6.2828 H   0  0  0  0  0  0  0  0  0  0  0  0
    7.6130    4.4645    8.4045 C   0  0  0  0  0  0  0  0  0  0  0  0
    8.6902    4.3947    8.4439 H   0  0  0  0  0  0  0  0  0  0  0  0
    6.8688    4.3482    9.5645 C   0  0  0  0  0  0  0  0  0  0  0  0
    7.3636    4.1558   10.5253 H   0  0  0  0  0  0  0  0  0  0  0  0
    8.7098    6.0218   13.5065 C   0  0  0  0  0  0  0  0  0  0  0  0
    8.5968    6.5343   14.4649 H   0  0  0  0  0  0  0  0  0  0  0  0
    9.7195    6.1853   13.1423 H   0  0  0  0  0  0  0  0  0  0  0  0
    8.5676    4.9425   13.6647 H   0  0  0  0  0  0  0  0  0  0  0  0
    8.2711    7.2470   11.4010 C   0  0  0  0  0  0  0  0  0  0  0  0
    8.1878    6.6693   10.4748 H   0  0  0  0  0  0  0  0  0  0  0  0
    9.3232    7.4609   11.5694 H   0  0  0  0  0  0  0  0  0  0  0  0
    7.7553    8.2010   11.2711 H   0  0  0  0  0  0  0  0  0  0  0  0
    7.7526    6.5247   12.5413 N   0  0  0  0  0  0  0  0  0  0  0  0
    4.5890    4.3283   11.1001 P   0  0  0  0  0  4  0  0  0  0  0  0
    7.6381    2.8878   14.0655 Cl  0  0  0  0  0  0  0  0  0  0  0  0
    5.8718    1.7684   11.5285 Cl  0  0  0  0  0  0  0  0  0  0  0  0
    6.0782    3.7461   12.6539 Pd  0  0  0  0  0  0  0  0  0  0  0  0
  1  3  1  0  0  0  0
  1  2  1  1  0  0  0
  3  5  1  0  0  0  0
  3  6  1  0  0  0  0
  4  3  1  0  0  0  0
  6 44  1  1  0  0  0
  6  7  1  0  0  0  0
  7  8  1  0  0  0  0
  7  9  1  0  0  0  0
 10 11  1  0  0  0  0
 10  1  1  0  0  0  0
 12 10  1  0  0  0  0
 13 10  1  0  0  0  0
 14 45  1  0  0  0  0
 14 15  1  0  0  0  0
 15 16  1  0  0  0  0
 17 15  2  0  0  0  0
 17 18  1  0  0  0  0
 19 17  1  0  0  0  0
 20 19  1  0  0  0  0
 21 23  1  0  0  0  0
 21 19  2  0  0  0  0
 22 21  1  0  0  0  0
 23 14  2  0  0  0  0
 24 23  1  0  0  0  0
 25 34  1  0  0  0  0
 25 45  1  0  0  0  0
 26 25  2  0  0  0  0
 27 26  1  0  0  0  0
 28 30  2  0  0  0  0
 28 26  1  0  0  0  0
 29 28  1  0  0  0  0
 30 32  1  0  0  0  0
 31 30  1  0  0  0  0
 32 33  1  0  0  0  0
 32 34  2  0  0  0  0
 34 35  1  0  0  0  0
 36 39  1  0  0  0  0
 36 37  1  0  0  0  0
 38 36  1  0  0  0  0
 40 42  1  0  0  0  0
 40 44  1  0  0  0  0
 41 40  1  0  0  0  0
 43 40  1  0  0  0  0
 44 36  1  0  0  0  0
 45  1  1  0  0  0  0
 45 48  1  0  0  0  0
 47 48  1  0  0  0  0
 48  7  1  0  0  0  0
 48 46  1  0  0  0  0
M  END
$$$$
