CSD_code = CEZWUC | q = 0 | S = 0 | Stoichiometry = C22H28Cl2NPPd | MND = 4
 OpenBabel04212202023D

 55 58  0  0  1  0  0  0  0  0999 V2000
    8.0496    5.5188    9.8638 C   0  0  2  0  0  0  0  0  0  0  0  0
    8.1066    6.4267    9.2526 H   0  0  0  0  0  0  0  0  0  0  0  0
    6.7060    4.8144    9.6375 C   0  0  0  0  0  0  0  0  0  0  0  0
    6.6131    4.5490    8.5778 H   0  0  0  0  0  0  0  0  0  0  0  0
    6.7543    3.8853   10.2112 H   0  0  0  0  0  0  0  0  0  0  0  0
    5.4529    5.5863   10.0330 C   0  0  1  0  0  3  0  0  0  0  0  0
    5.4130    6.9749    9.8955 C   0  0  0  0  0  0  0  0  0  0  0  0
    4.4620    7.4869    9.8176 H   0  0  0  0  0  0  0  0  0  0  0  0
    6.2228    7.4512    9.3494 H   0  0  0  0  0  0  0  0  0  0  0  0
    9.2097    4.6027    9.4931 C   0  0  0  0  0  0  0  0  0  0  0  0
    9.1566    3.6676   10.0474 H   0  0  0  0  0  0  0  0  0  0  0  0
   10.1611    5.0810    9.7159 H   0  0  0  0  0  0  0  0  0  0  0  0
    9.1847    4.3714    8.4290 H   0  0  0  0  0  0  0  0  0  0  0  0
    9.6302    6.8408   11.9651 C   0  0  0  0  0  0  0  0  0  0  0  0
   10.2813    7.5878   10.9868 C   0  0  0  0  0  0  0  0  0  0  0  0
    9.8547    7.6806    9.9977 H   0  0  0  0  0  0  0  0  0  0  0  0
   11.4726    8.2251   11.2816 C   0  0  0  0  0  0  0  0  0  0  0  0
   11.9771    8.7997   10.5187 H   0  0  0  0  0  0  0  0  0  0  0  0
   12.0123    8.1369   12.5544 C   0  0  0  0  0  0  0  0  0  0  0  0
   12.9407    8.6394   12.7818 H   0  0  0  0  0  0  0  0  0  0  0  0
   11.3524    7.4184   13.5387 C   0  0  0  0  0  0  0  0  0  0  0  0
   11.7622    7.3661   14.5363 H   0  0  0  0  0  0  0  0  0  0  0  0
   10.1632    6.7755   13.2512 C   0  0  0  0  0  0  0  0  0  0  0  0
    9.6272    6.2378   14.0201 H   0  0  0  0  0  0  0  0  0  0  0  0
    8.0451    4.4958   12.5454 C   0  0  0  0  0  0  0  0  0  0  0  0
    9.1958    3.7358   12.7304 C   0  0  0  0  0  0  0  0  0  0  0  0
   10.1488    4.1053   12.3788 H   0  0  0  0  0  0  0  0  0  0  0  0
    9.1190    2.5177   13.3823 C   0  0  0  0  0  0  0  0  0  0  0  0
   10.0142    1.9319   13.5315 H   0  0  0  0  0  0  0  0  0  0  0  0
    7.9004    2.0513   13.8480 C   0  0  0  0  0  0  0  0  0  0  0  0
    7.8474    1.1020   14.3599 H   0  0  0  0  0  0  0  0  0  0  0  0
    6.7522    2.8075   13.6713 C   0  0  0  0  0  0  0  0  0  0  0  0
    5.8057    2.4498   14.0482 H   0  0  0  0  0  0  0  0  0  0  0  0
    6.8223    4.0270   13.0235 C   0  0  0  0  0  0  0  0  0  0  0  0
    5.9254    4.6477   12.9104 H   0  0  0  0  0  0  0  0  0  0  0  0
    4.1867    3.4489   10.0267 C   0  0  0  0  0  0  0  0  0  0  0  0
    5.1290    2.9205    9.9010 H   0  0  0  0  0  0  0  0  0  0  0  0
    3.6326    2.9556   10.8316 H   0  0  0  0  0  0  0  0  0  0  0  0
    3.3705    3.3774    8.7299 C   0  0  0  0  0  0  0  0  0  0  0  0
    3.2293    2.3335    8.4455 H   0  0  0  0  0  0  0  0  0  0  0  0
    3.9270    3.8750    7.9321 H   0  0  0  0  0  0  0  0  0  0  0  0
    2.0199    4.0656    8.9171 C   0  0  0  0  0  0  0  0  0  0  0  0
    1.4750    4.0811    7.9718 H   0  0  0  0  0  0  0  0  0  0  0  0
    1.4245    3.4996    9.6372 H   0  0  0  0  0  0  0  0  0  0  0  0
    2.2244    5.4872    9.4376 C   0  0  0  0  0  0  0  0  0  0  0  0
    2.7189    6.0910    8.6739 H   0  0  0  0  0  0  0  0  0  0  0  0
    1.2651    5.9500    9.6678 H   0  0  0  0  0  0  0  0  0  0  0  0
    3.0883    5.4454   10.6970 C   0  0  0  0  0  0  0  0  0  0  0  0
    2.5981    4.8176   11.4477 H   0  0  0  0  0  0  0  0  0  0  0  0
    3.2237    6.4345   11.1424 H   0  0  0  0  0  0  0  0  0  0  0  0
    4.3771    4.8353   10.4043 N   0  0  0  0  0  0  0  0  0  0  0  0
    8.0237    6.0761   11.6480 P   0  0  0  0  0  4  0  0  0  0  0  0
    4.0852    8.0401   12.5598 Cl  0  0  0  0  0  0  0  0  0  0  0  0
    6.9093    7.2887   14.0420 Cl  0  0  0  0  0  0  0  0  0  0  0  0
    6.0266    7.0180   11.9606 Pd  0  0  0  0  0  0  0  0  0  0  0  0
  1  2  1  6  0  0  0
  1 52  1  0  0  0  0
  3  1  1  0  0  0  0
  3  6  1  0  0  0  0
  3  5  1  0  0  0  0
  4  3  1  0  0  0  0
  6 51  1  6  0  0  0
  7  6  1  0  0  0  0
  7 55  1  0  0  0  0
  8  7  1  0  0  0  0
  9  7  1  0  0  0  0
 10 12  1  0  0  0  0
 10  1  1  0  0  0  0
 10 11  1  0  0  0  0
 13 10  1  0  0  0  0
 14 23  1  0  0  0  0
 15 17  1  0  0  0  0
 15 14  2  0  0  0  0
 16 15  1  0  0  0  0
 17 19  2  0  0  0  0
 18 17  1  0  0  0  0
 19 20  1  0  0  0  0
 19 21  1  0  0  0  0
 21 22  1  0  0  0  0
 23 21  2  0  0  0  0
 23 24  1  0  0  0  0
 25 26  2  0  0  0  0
 25 34  1  0  0  0  0
 26 28  1  0  0  0  0
 27 26  1  0  0  0  0
 28 29  1  0  0  0  0
 28 30  2  0  0  0  0
 30 31  1  0  0  0  0
 32 30  1  0  0  0  0
 32 33  1  0  0  0  0
 34 32  2  0  0  0  0
 35 34  1  0  0  0  0
 36 51  1  0  0  0  0
 36 38  1  0  0  0  0
 37 36  1  0  0  0  0
 39 42  1  0  0  0  0
 39 36  1  0  0  0  0
 40 39  1  0  0  0  0
 41 39  1  0  0  0  0
 42 45  1  0  0  0  0
 42 44  1  0  0  0  0
 43 42  1  0  0  0  0
 45 47  1  0  0  0  0
 45 48  1  0  0  0  0
 46 45  1  0  0  0  0
 48 50  1  0  0  0  0
 48 49  1  0  0  0  0
 51 48  1  0  0  0  0
 52 55  1  0  0  0  0
 52 14  1  0  0  0  0
 52 25  1  0  0  0  0
 55 53  1  0  0  0  0
 55 54  1  0  0  0  0
M  END
$$$$
