CSD_code = CGLCOB | q = 0 | S = 0 | Stoichiometry = C11H23ClCoN4O7P | MND = 6
 OpenBabel04212202023D

 48 49  0  0  0  0  0  0  0  0999 V2000
    2.3704    6.8971    4.0675 Co  0  0  0  0  0  0  0  0  0  0  0  0
    1.1270    8.6085    3.5672 Cl  0  0  0  0  0  0  0  0  0  0  0  0
    3.6252    5.1046    4.4298 P   0  0  0  0  0  4  0  0  0  0  0  0
    0.2187    5.4783    5.1515 O   0  0  0  0  0  1  0  0  0  0  0  0
    3.3469    6.8301    1.3521 O   0  0  0  0  0  0  0  0  0  0  0  0
    4.6848    8.1312    3.0630 O   0  0  0  0  0  1  0  0  0  0  0  0
    1.3100    7.0822    6.7591 O   0  0  0  0  0  0  0  0  0  0  0  0
    3.9630    4.5963    5.9379 O   0  0  0  0  0  0  0  0  0  0  0  0
    5.0996    4.9637    3.8408 O   0  0  0  0  0  0  0  0  0  0  0  0
    2.9446    3.8436    3.7196 O   0  0  0  0  0  0  0  0  0  0  0  0
    0.8457    5.7952    4.0768 N   0  0  0  0  0  0  0  0  0  0  0  0
    2.4030    6.4533    2.2422 N   0  0  0  0  0  0  0  0  0  0  0  0
    3.8972    8.0122    4.0717 N   0  0  0  0  0  0  0  0  0  0  0  0
    2.2654    7.4481    5.8707 N   0  0  0  0  0  0  0  0  0  0  0  0
   -0.6873    4.4830    2.6790 C   0  0  0  0  0  0  0  0  0  0  0  0
    0.5050    5.3545    2.9045 C   0  0  0  0  0  0  0  0  0  0  0  0
    1.4003    5.7427    1.8505 C   0  0  0  0  0  0  0  0  0  0  0  0
    1.1894    5.3232    0.4356 C   0  0  0  0  0  0  0  0  0  0  0  0
    5.2498    9.5726    5.4070 C   0  0  0  0  0  0  0  0  0  0  0  0
    4.1103    8.6282    5.1975 C   0  0  0  0  0  0  0  0  0  0  0  0
    3.1490    8.3233    6.2199 C   0  0  0  0  0  0  0  0  0  0  0  0
    3.1853    8.9719    7.5624 C   0  0  0  0  0  0  0  0  0  0  0  0
    2.9356    4.3906    6.9023 C   0  0  0  0  0  0  0  0  0  0  0  0
    6.2146    5.7476    4.2490 C   0  0  0  0  0  0  0  0  0  0  0  0
    3.5785    2.5662    3.7046 C   0  0  0  0  0  0  0  0  0  0  0  0
   -1.2044    4.3509    3.6267 H   0  0  0  0  0  0  0  0  0  0  0  0
   -0.3840    3.5096    2.2966 H   0  0  0  0  0  0  0  0  0  0  0  0
   -1.3650    4.9424    1.9619 H   0  0  0  0  0  0  0  0  0  0  0  0
    1.9891    5.7169   -0.1855 H   0  0  0  0  0  0  0  0  0  0  0  0
    0.2341    5.7018    0.0769 H   0  0  0  0  0  0  0  0  0  0  0  0
    1.1751    4.2371    0.3662 H   0  0  0  0  0  0  0  0  0  0  0  0
    5.8066    9.6574    4.4765 H   0  0  0  0  0  0  0  0  0  0  0  0
    5.9137    9.2132    6.1923 H   0  0  0  0  0  0  0  0  0  0  0  0
    4.8799   10.5562    5.6903 H   0  0  0  0  0  0  0  0  0  0  0  0
    2.3772    8.5864    8.1780 H   0  0  0  0  0  0  0  0  0  0  0  0
    3.0663   10.0481    7.4514 H   0  0  0  0  0  0  0  0  0  0  0  0
    4.1406    8.7833    8.0494 H   0  0  0  0  0  0  0  0  0  0  0  0
    3.2256    3.5203    7.4913 H   0  0  0  0  0  0  0  0  0  0  0  0
    1.9718    4.2045    6.4273 H   0  0  0  0  0  0  0  0  0  0  0  0
    2.8557    5.2599    7.5554 H   0  0  0  0  0  0  0  0  0  0  0  0
    7.1006    5.1863    3.9542 H   0  0  0  0  0  0  0  0  0  0  0  0
    6.2145    5.8915    5.3293 H   0  0  0  0  0  0  0  0  0  0  0  0
    6.2065    6.7110    3.7369 H   0  0  0  0  0  0  0  0  0  0  0  0
    2.7857    1.8285    3.5858 H   0  0  0  0  0  0  0  0  0  0  0  0
    4.1181    2.3863    4.6353 H   0  0  0  0  0  0  0  0  0  0  0  0
    4.2736    2.5071    2.8674 H   0  0  0  0  0  0  0  0  0  0  0  0
    0.7065    6.4223    6.2316 H   0  0  0  0  0  0  0  0  0  0  0  0
    3.9944    7.4286    1.8890 H   0  0  0  0  0  0  0  0  0  0  0  0
  1 13  1  0  0  0  0
  1 11  1  0  0  0  0
  1  3  1  0  0  0  0
  1 14  1  0  0  0  0
  2  1  1  0  0  0  0
  3  8  1  0  0  0  0
  5 48  1  0  0  0  0
  5 12  1  0  0  0  0
  6 13  1  0  0  0  0
  8 23  1  0  0  0  0
  9 24  1  0  0  0  0
  9  3  1  0  0  0  0
 10  3  1  0  0  0  0
 11  4  1  0  0  0  0
 12  1  1  0  0  0  0
 13 20  1  0  0  0  0
 14 21  1  0  0  0  0
 14  7  1  0  0  0  0
 15 16  1  0  0  0  0
 15 26  1  0  0  0  0
 16 11  1  0  0  0  0
 17 12  1  0  0  0  0
 17 16  2  0  0  0  0
 18 17  1  0  0  0  0
 19 34  1  0  0  0  0
 19 33  1  0  0  0  0
 20 19  1  0  0  0  0
 20 21  2  0  0  0  0
 21 22  1  0  0  0  0
 22 37  1  0  0  0  0
 22 35  1  0  0  0  0
 23 38  1  0  0  0  0
 23 40  1  0  0  0  0
 24 42  1  0  0  0  0
 25 10  1  0  0  0  0
 25 45  1  0  0  0  0
 27 15  1  0  0  0  0
 28 15  1  0  0  0  0
 29 18  1  0  0  0  0
 30 18  1  0  0  0  0
 31 18  1  0  0  0  0
 32 19  1  0  0  0  0
 36 22  1  0  0  0  0
 39 23  1  0  0  0  0
 41 24  1  0  0  0  0
 43 24  1  0  0  0  0
 44 25  1  0  0  0  0
 46 25  1  0  0  0  0
 47  7  1  0  0  0  0
M  END
$$$$
