CSD_code = CHACMT | q = 0 | S = 0 | Stoichiometry = C28H4Cl3N4Ta | MND = 7
 OpenBabel04212202023D

 40 46  0  0  1  0  0  0  0  0999 V2000
    8.4990    5.2284    4.4348 Cl  0  0  0  0  0  0  0  0  0  0  0  0
    9.5698    2.4994    0.8611 Cl  0  0  0  0  0  0  0  0  0  0  0  0
    9.5038    5.7795    1.3261 Cl  0  0  0  0  0  0  0  0  0  0  0  0
    8.1583    1.4138    3.6229 C   0  0  0  0  0  0  0  0  0  0  0  0
    9.6881    2.0971    5.0932 C   0  0  1  0  0  0  0  0  0  0  0  0
    9.2921    0.5087    5.3876 C   0  0  2  0  0  3  0  0  0  0  0  0
   10.1810   -0.1741    6.1846 C   0  0  0  0  0  3  0  0  0  0  0  0
   11.3725    0.2737    6.3465 C   0  0  0  0  0  3  0  0  0  0  0  0
   11.7593    1.4783    5.9398 C   0  0  0  0  0  3  0  0  0  0  0  0
   11.1163    2.3328    5.2478 C   0  0  0  0  0  3  0  0  0  0  0  0
    8.2738    0.2622    4.5270 C   0  0  0  0  0  0  0  0  0  0  0  0
    6.5332    0.1137    2.9162 C   0  0  2  0  0  0  0  0  0  0  0  0
    7.3485   -0.6887    4.0326 C   0  0  0  0  0  0  0  0  0  0  0  0
    7.1744   -2.0116    4.1219 C   0  0  0  0  0  3  0  0  0  0  0  0
    6.3884   -2.5558    3.1667 C   0  0  0  0  0  3  0  0  0  0  0  0
    5.9644   -2.0332    2.1023 C   0  0  0  0  0  3  0  0  0  0  0  0
    6.1555   -0.7137    1.6706 C   0  0  0  0  0  0  0  0  0  0  0  0
    5.5115    3.2693    1.6135 C   0  0  0  0  0  0  0  0  0  0  0  0
    6.3818    1.3122    0.0540 C   0  0  2  0  0  0  0  0  0  0  0  0
    6.2003    1.6262   -1.3611 C   0  0  0  0  0  3  0  0  0  0  0  0
    5.7534    0.7378   -2.1424 C   0  0  0  0  0  3  0  0  0  0  0  0
    5.4033   -0.5153   -1.8438 C   0  0  0  0  0  3  0  0  0  0  0  0
    5.5594   -1.0068   -0.6780 C   0  0  0  0  0  3  0  0  0  0  0  0
    6.0106   -0.2561    0.4022 C   0  0  0  0  0  0  0  0  0  0  0  0
    4.3692    2.3782    1.3746 C   0  0  0  0  0  2  0  0  0  0  0  0
    5.7371    5.2798    2.7730 C   0  0  1  0  0  0  0  0  0  0  0  0
    5.9198    6.6111    2.1433 C   0  0  0  0  0  3  0  0  0  0  0  0
    5.0908    7.6265    2.3075 C   0  0  0  0  0  3  0  0  0  0  0  0
    4.0446    7.2394    3.0126 C   0  0  0  0  0  3  0  0  0  0  0  0
    3.5898    6.1630    3.6269 C   0  0  0  0  0  3  0  0  0  0  0  0
    4.4322    5.1603    3.4531 C   0  0  0  0  0  2  0  0  0  0  0  0
    9.1907    2.6859    5.8889 H   0  0  0  0  0  0  0  0  0  0  0  0
    5.5637    0.3509    3.3946 H   0  0  0  0  0  0  0  0  0  0  0  0
    7.4302    1.4683    0.3486 H   0  0  0  0  0  0  0  0  0  0  0  0
    6.4378    5.4099    3.6440 H   0  0  0  0  0  0  0  0  0  0  0  0
    9.0362    2.3980    3.8484 N   0  0  0  0  0  0  0  0  0  0  0  0
    7.2558    1.3205    2.7021 N   0  0  0  0  0  2  0  0  0  0  0  0
    5.5649    2.1411    0.8567 N   0  0  0  0  0  0  0  0  0  0  0  0
    6.2643    4.1869    2.0051 N   0  0  0  0  0  0  0  0  0  0  0  0
    9.1991    3.9780    2.5740 Ta  0  0  0  0  0  0  0  0  0  0  0  0
  2 40  1  0  0  0  0
  3 40  1  0  0  0  0
  4 36  1  0  0  0  0
  4 11  2  0  0  0  0
  5 10  1  0  0  0  0
  5  6  1  0  0  0  0
  5 32  1  1  0  0  0
  6  7  1  6  0  0  0
  7  8  2  0  0  0  0
  9  8  1  0  0  0  0
 10  9  2  0  0  0  0
 11  6  1  0  0  0  0
 12 33  1  1  0  0  0
 12 13  1  0  0  0  0
 13 14  2  0  0  0  0
 13 11  1  0  0  0  0
 15 14  1  0  0  0  0
 16 15  2  0  0  0  0
 17 16  1  0  0  0  0
 17 12  1  0  0  0  0
 18 39  2  0  0  0  0
 19 34  1  1  0  0  0
 19 24  1  0  0  0  0
 19 38  1  0  0  0  0
 20 19  1  0  0  0  0
 21 22  1  0  0  0  0
 21 20  2  0  0  0  0
 22 23  2  0  0  0  0
 23 24  1  0  0  0  0
 24 17  2  0  0  0  0
 25 18  1  0  0  0  0
 26 31  1  0  0  0  0
 26 35  1  1  0  0  0
 27 28  2  0  0  0  0
 27 26  1  0  0  0  0
 28 29  1  0  0  0  0
 29 30  2  0  0  0  0
 31 30  1  0  0  0  0
 36  5  1  0  0  0  0
 37 12  1  0  0  0  0
 37  4  1  0  0  0  0
 38 25  1  0  0  0  0
 38 18  1  0  0  0  0
 39 26  1  0  0  0  0
 40 36  1  0  0  0  0
 40  1  1  0  0  0  0
M  END
$$$$
