CSD_code = CIBBAT | q = 0 | S = 0 | Stoichiometry = C31H48ClOP2Rh | MND = 4
 OpenBabel04212202023D

 84 87  0  0  0  0  0  0  0  0999 V2000
    1.8953    9.9685    4.5591 Rh  0  0  0  0  0  0  0  0  0  0  0  0
    0.3343    8.6011    5.3951 P   0  0  0  0  0  4  0  0  0  0  0  0
    3.1730   11.1903    3.1879 P   0  0  0  0  0  4  0  0  0  0  0  0
    2.3344   11.1147    6.4766 Cl  0  0  0  0  0  0  0  0  0  0  0  0
    1.7457    8.6546    2.8226 O   0  0  0  0  0  0  0  0  0  0  0  0
    0.8173    7.6435    2.8186 C   0  0  0  0  0  0  0  0  0  0  0  0
   -0.0079    7.5122    3.9467 C   0  0  0  0  0  0  0  0  0  0  0  0
   -0.9985    6.5393    3.9320 C   0  0  0  0  0  0  0  0  0  0  0  0
   -1.6370    6.4153    4.7887 H   0  0  0  0  0  0  0  0  0  0  0  0
   -1.1774    5.7272    2.8299 C   0  0  0  0  0  0  0  0  0  0  0  0
   -1.9664    4.9903    2.8217 H   0  0  0  0  0  0  0  0  0  0  0  0
   -0.3183    5.8293    1.7519 C   0  0  0  0  0  0  0  0  0  0  0  0
   -0.4468    5.1542    0.9227 H   0  0  0  0  0  0  0  0  0  0  0  0
    0.7042    6.7666    1.7374 C   0  0  0  0  0  0  0  0  0  0  0  0
    1.7757    6.7862    0.6666 C   0  0  0  0  0  0  0  0  0  0  0  0
    2.2845    8.2044    0.5121 C   0  0  0  0  0  0  0  0  0  0  0  0
    2.8091    8.6845   -0.6788 C   0  0  0  0  0  0  0  0  0  0  0  0
    2.7634    8.0849   -1.5721 H   0  0  0  0  0  0  0  0  0  0  0  0
    3.4085    9.9286   -0.7449 C   0  0  0  0  0  0  0  0  0  0  0  0
    3.8033   10.2873   -1.6836 H   0  0  0  0  0  0  0  0  0  0  0  0
    3.5339   10.6919    0.3981 C   0  0  0  0  0  0  0  0  0  0  0  0
    4.0389   11.6412    0.3478 H   0  0  0  0  0  0  0  0  0  0  0  0
    3.0087   10.2569    1.6074 C   0  0  0  0  0  0  0  0  0  0  0  0
    2.3389    9.0249    1.6411 C   0  0  0  0  0  0  0  0  0  0  0  0
    2.9551    5.9404    1.1960 C   0  0  0  0  0  0  0  0  0  0  0  0
    3.7728    5.9473    0.4781 H   0  0  0  0  0  0  0  0  0  0  0  0
    2.6362    4.9128    1.3583 H   0  0  0  0  0  0  0  0  0  0  0  0
    3.3239    6.3381    2.1399 H   0  0  0  0  0  0  0  0  0  0  0  0
    1.2959    6.1866   -0.6562 C   0  0  0  0  0  0  0  0  0  0  0  0
    0.4631    6.7576   -1.0608 H   0  0  0  0  0  0  0  0  0  0  0  0
    0.9852    5.1553   -0.5164 H   0  0  0  0  0  0  0  0  0  0  0  0
    2.1034    6.1727   -1.3826 H   0  0  0  0  0  0  0  0  0  0  0  0
   -1.3344    9.4368    5.7334 C   0  0  0  0  0  0  0  0  0  0  0  0
   -1.1147   10.4535    6.8559 C   0  0  0  0  0  0  0  0  0  0  0  0
   -1.9077   11.2004    6.8387 H   0  0  0  0  0  0  0  0  0  0  0  0
   -0.1610   10.9653    6.7337 H   0  0  0  0  0  0  0  0  0  0  0  0
   -1.1252    9.9767    7.8317 H   0  0  0  0  0  0  0  0  0  0  0  0
   -2.5491    8.5775    6.0705 C   0  0  0  0  0  0  0  0  0  0  0  0
   -3.3700    9.2349    6.3588 H   0  0  0  0  0  0  0  0  0  0  0  0
   -2.3501    7.9143    6.9090 H   0  0  0  0  0  0  0  0  0  0  0  0
   -2.8840    7.9934    5.2176 H   0  0  0  0  0  0  0  0  0  0  0  0
   -1.5793   10.2036    4.4286 C   0  0  0  0  0  0  0  0  0  0  0  0
   -1.7652    9.5220    3.5976 H   0  0  0  0  0  0  0  0  0  0  0  0
   -0.6964   10.8124    4.1963 H   0  0  0  0  0  0  0  0  0  0  0  0
   -2.4364   10.8677    4.5282 H   0  0  0  0  0  0  0  0  0  0  0  0
    0.8740    7.3471    6.7077 C   0  0  0  0  0  0  0  0  0  0  0  0
    0.9778    8.0929    8.0370 C   0  0  0  0  0  0  0  0  0  0  0  0
   -0.0023    8.2233    8.4897 H   0  0  0  0  0  0  0  0  0  0  0  0
    1.4330    9.0717    7.8881 H   0  0  0  0  0  0  0  0  0  0  0  0
    1.5978    7.5301    8.7341 H   0  0  0  0  0  0  0  0  0  0  0  0
    0.0566    6.0711    6.8823 C   0  0  0  0  0  0  0  0  0  0  0  0
    0.4934    5.4865    7.6925 H   0  0  0  0  0  0  0  0  0  0  0  0
    0.0755    5.4598    5.9828 H   0  0  0  0  0  0  0  0  0  0  0  0
   -0.9762    6.2814    7.1482 H   0  0  0  0  0  0  0  0  0  0  0  0
    2.2843    6.9776    6.2316 C   0  0  0  0  0  0  0  0  0  0  0  0
    2.8842    7.8861    6.1140 H   0  0  0  0  0  0  0  0  0  0  0  0
    2.2463    6.4523    5.2755 H   0  0  0  0  0  0  0  0  0  0  0  0
    2.7783    6.3328    6.9567 H   0  0  0  0  0  0  0  0  0  0  0  0
    2.5857   12.9392    2.7425 C   0  0  0  0  0  0  0  0  0  0  0  0
    2.1874   13.5755    4.0768 C   0  0  0  0  0  0  0  0  0  0  0  0
    1.7138   14.5422    3.9089 H   0  0  0  0  0  0  0  0  0  0  0  0
    3.0512   13.7224    4.7199 H   0  0  0  0  0  0  0  0  0  0  0  0
    1.4858   12.9323    4.6087 H   0  0  0  0  0  0  0  0  0  0  0  0
    3.5461   13.8773    2.0184 C   0  0  0  0  0  0  0  0  0  0  0  0
    3.0509   14.8380    1.8720 H   0  0  0  0  0  0  0  0  0  0  0  0
    3.8317   13.5072    1.0375 H   0  0  0  0  0  0  0  0  0  0  0  0
    4.4425   14.0557    2.6066 H   0  0  0  0  0  0  0  0  0  0  0  0
    1.3149   12.7325    1.9127 C   0  0  0  0  0  0  0  0  0  0  0  0
    0.6826   11.9771    2.3869 H   0  0  0  0  0  0  0  0  0  0  0  0
    1.5426   12.4052    0.8998 H   0  0  0  0  0  0  0  0  0  0  0  0
    0.7479   13.6605    1.8550 H   0  0  0  0  0  0  0  0  0  0  0  0
    5.0380   11.0907    3.4967 C   0  0  0  0  0  0  0  0  0  0  0  0
    5.3497   12.0012    4.6837 C   0  0  0  0  0  0  0  0  0  0  0  0
    4.6176   11.8489    5.4765 H   0  0  0  0  0  0  0  0  0  0  0  0
    5.3399   13.0497    4.3941 H   0  0  0  0  0  0  0  0  0  0  0  0
    6.3373   11.7722    5.0830 H   0  0  0  0  0  0  0  0  0  0  0  0
    5.9777   11.3852    2.3317 C   0  0  0  0  0  0  0  0  0  0  0  0
    7.0063   11.2889    2.6806 H   0  0  0  0  0  0  0  0  0  0  0  0
    5.8516   12.3932    1.9483 H   0  0  0  0  0  0  0  0  0  0  0  0
    5.8339   10.6754    1.5196 H   0  0  0  0  0  0  0  0  0  0  0  0
    5.2241    9.6310    3.9295 C   0  0  0  0  0  0  0  0  0  0  0  0
    5.0131    8.9511    3.1022 H   0  0  0  0  0  0  0  0  0  0  0  0
    4.5473    9.4004    4.7600 H   0  0  0  0  0  0  0  0  0  0  0  0
    6.2459    9.4569    4.2631 H   0  0  0  0  0  0  0  0  0  0  0  0
  1  2  1  0  0  0  0
  1  4  1  0  0  0  0
  2 33  1  0  0  0  0
  2 46  1  0  0  0  0
  3 72  1  0  0  0  0
  3  1  1  0  0  0  0
  6  5  1  0  0  0  0
  6  7  1  0  0  0  0
  7  2  1  0  0  0  0
  8  7  2  0  0  0  0
  8  9  1  0  0  0  0
 10  8  1  0  0  0  0
 11 10  1  0  0  0  0
 12 10  2  0  0  0  0
 13 12  1  0  0  0  0
 14 12  1  0  0  0  0
 14  6  2  0  0  0  0
 15 25  1  0  0  0  0
 15 14  1  0  0  0  0
 16 15  1  0  0  0  0
 16 24  1  0  0  0  0
 17 16  2  0  0  0  0
 18 17  1  0  0  0  0
 19 17  1  0  0  0  0
 19 21  2  0  0  0  0
 20 19  1  0  0  0  0
 21 23  1  0  0  0  0
 22 21  1  0  0  0  0
 23 24  2  0  0  0  0
 23  3  1  0  0  0  0
 24  5  1  0  0  0  0
 25 27  1  0  0  0  0
 25 28  1  0  0  0  0
 26 25  1  0  0  0  0
 29 31  1  0  0  0  0
 29 15  1  0  0  0  0
 30 29  1  0  0  0  0
 32 29  1  0  0  0  0
 33 38  1  0  0  0  0
 33 34  1  0  0  0  0
 34 37  1  0  0  0  0
 35 34  1  0  0  0  0
 36 34  1  0  0  0  0
 38 39  1  0  0  0  0
 38 40  1  0  0  0  0
 41 38  1  0  0  0  0
 42 45  1  0  0  0  0
 42 33  1  0  0  0  0
 43 42  1  0  0  0  0
 44 42  1  0  0  0  0
 46 51  1  0  0  0  0
 46 47  1  0  0  0  0
 47 48  1  0  0  0  0
 47 50  1  0  0  0  0
 49 47  1  0  0  0  0
 51 54  1  0  0  0  0
 51 52  1  0  0  0  0
 53 51  1  0  0  0  0
 55 46  1  0  0  0  0
 55 58  1  0  0  0  0
 56 55  1  0  0  0  0
 57 55  1  0  0  0  0
 59  3  1  0  0  0  0
 59 60  1  0  0  0  0
 60 63  1  0  0  0  0
 60 62  1  0  0  0  0
 61 60  1  0  0  0  0
 64 67  1  0  0  0  0
 64 59  1  0  0  0  0
 65 64  1  0  0  0  0
 66 64  1  0  0  0  0
 68 69  1  0  0  0  0
 68 59  1  0  0  0  0
 70 68  1  0  0  0  0
 71 68  1  0  0  0  0
 72 81  1  0  0  0  0
 72 73  1  0  0  0  0
 73 76  1  0  0  0  0
 73 74  1  0  0  0  0
 75 73  1  0  0  0  0
 77 78  1  0  0  0  0
 77 72  1  0  0  0  0
 79 77  1  0  0  0  0
 80 77  1  0  0  0  0
 81 84  1  0  0  0  0
 81 83  1  0  0  0  0
 82 81  1  0  0  0  0
M  END
$$$$
