CSD_code = CIBGOK | q = 0 | S = 0 | Stoichiometry = C13H15Cl3N10Zn | MND = 4
 OpenBabel04212202023D

 42 45  0  0  1  0  0  0  0  0999 V2000
    2.1232    2.4729    0.1157 Zn  0  0  0  0  0  0  0  0  0  0  0  0
    0.3315    3.6583   -0.5852 Cl  0  0  0  0  0  0  0  0  0  0  0  0
    4.3438    2.2806   -0.0948 Cl  0  0  0  0  0  0  0  0  0  0  0  0
    1.3230    0.2312    0.1077 Cl  0  0  0  0  0  0  0  0  0  0  0  0
    0.7155   -0.3727    2.9688 N   0  0  0  0  0  0  0  0  0  0  0  0
    0.9804   -0.6200    2.0039 H   0  0  0  0  0  0  0  0  0  0  0  0
    1.2454   -0.7155    3.7550 H   0  0  0  0  0  0  0  0  0  0  0  0
   -0.5779    1.3120    2.0440 N   0  0  0  0  0  0  0  0  0  0  0  0
   -0.3108    0.8832    1.1296 H   0  0  0  0  0  0  0  0  0  0  0  0
   -1.3180    3.2463    3.1461 N   0  0  0  0  0  0  0  0  0  0  0  0
    0.4146    1.2999    5.5699 N   0  0  0  0  0  0  0  0  0  0  0  0
   -0.5728    3.3013    5.4615 N   0  0  0  0  0  0  0  0  0  0  0  0
    1.4550    4.6657    3.7251 N   0  0  0  0  0  0  0  0  0  0  0  0
    2.6964    3.6794    5.5818 N   0  0  0  0  0  0  0  0  0  0  0  0
    3.9646    1.7772    4.9281 N   0  0  0  0  0  0  0  0  0  0  0  0
    4.1050    0.9801    2.7661 N   0  0  0  0  0  0  0  0  0  0  0  0
    4.8449    0.3867    3.1074 H   0  0  0  0  0  0  0  0  0  0  0  0
    4.1187    1.2245    1.7733 H   0  0  0  0  0  0  0  0  0  0  0  0
    2.0452    3.2320    2.1319 N   0  0  0  0  0  0  0  0  0  0  0  0
    0.0454    0.7536    3.1156 C   0  0  2  0  0  3  0  0  0  0  0  0
   -1.2198    2.5025    2.0905 C   0  0  0  0  0  0  0  0  0  0  0  0
   -1.6414    2.8658    1.1655 H   0  0  0  0  0  0  0  0  0  0  0  0
   -0.7262    2.7348    4.2409 C   0  0  0  0  0  0  0  0  0  0  0  0
   -0.0906    1.4814    4.3135 C   0  0  0  0  0  0  0  0  0  0  0  0
    0.1178    2.3903    6.2112 C   0  0  0  0  0  0  0  0  0  0  0  0
    0.3835    2.5723    7.2330 H   0  0  0  0  0  0  0  0  0  0  0  0
   -0.9036    4.6589    5.8099 C   0  0  0  0  0  0  0  0  0  0  0  0
   -1.3127    4.6695    6.8234 H   0  0  0  0  0  0  0  0  0  0  0  0
   -1.6679    4.9955    5.1050 H   0  0  0  0  0  0  0  0  0  0  0  0
    0.3284    5.5686    5.7470 C   0  0  0  0  0  0  0  0  0  0  0  0
    0.0625    6.5306    6.1852 H   0  0  0  0  0  0  0  0  0  0  0  0
    1.1392    5.1280    6.3308 H   0  0  0  0  0  0  0  0  0  0  0  0
    0.8372    5.8246    4.3273 C   0  0  0  0  0  0  0  0  0  0  0  0
    0.0188    6.1338    3.6715 H   0  0  0  0  0  0  0  0  0  0  0  0
    1.5792    6.6303    4.3670 H   0  0  0  0  0  0  0  0  0  0  0  0
    2.3086    3.7647    4.3071 C   0  0  0  0  0  0  0  0  0  0  0  0
    3.4998    2.6501    5.7972 C   0  0  0  0  0  0  0  0  0  0  0  0
    3.8285    2.5185    6.8189 H   0  0  0  0  0  0  0  0  0  0  0  0
    3.6110    1.8622    3.6379 C   0  0  0  0  0  0  0  0  0  0  0  0
    2.6860    2.8745    3.2925 C   0  0  0  0  0  0  0  0  0  0  0  0
    1.3461    4.2967    2.4288 C   0  0  0  0  0  3  0  0  0  0  0  0
    0.7328    4.8153    1.7178 H   0  0  0  0  0  0  0  0  0  0  0  0
  1 19  1  0  0  0  0
  2  1  1  0  0  0  0
  3  1  1  0  0  0  0
  4  1  1  0  0  0  0
  5  7  1  0  0  0  0
  6  5  1  0  0  0  0
  8 21  1  0  0  0  0
  8 20  1  0  0  0  0
  9  8  1  0  0  0  0
 10 23  1  0  0  0  0
 11 25  2  0  0  0  0
 12 27  1  0  0  0  0
 12 25  1  0  0  0  0
 13 36  1  0  0  0  0
 13 33  1  0  0  0  0
 14 37  2  0  0  0  0
 15 37  1  0  0  0  0
 16 17  1  0  0  0  0
 16 39  1  0  0  0  0
 18 16  1  0  0  0  0
 19 41  1  0  0  0  0
 19 40  1  0  0  0  0
 20  5  1  6  0  0  0
 20 24  1  0  0  0  0
 21 10  2  0  0  0  0
 22 21  1  0  0  0  0
 23 24  2  0  0  0  0
 23 12  1  0  0  0  0
 24 11  1  0  0  0  0
 25 26  1  0  0  0  0
 27 28  1  0  0  0  0
 29 27  1  0  0  0  0
 30 27  1  0  0  0  0
 30 31  1  0  0  0  0
 30 32  1  0  0  0  0
 33 35  1  0  0  0  0
 33 30  1  0  0  0  0
 34 33  1  0  0  0  0
 36 14  1  0  0  0  0
 37 38  1  0  0  0  0
 39 15  2  0  0  0  0
 40 39  1  0  0  0  0
 40 36  2  0  0  0  0
 41 13  1  0  0  0  0
 42 41  1  0  0  0  0
M  END
$$$$
