CSD_code = CICXIW | q = 0 | S = 0 | Stoichiometry = C18H12CdCl2N6 | MND = 5
 OpenBabel04212202023D

 39 44  0  0  1  0  0  0  0  0999 V2000
    3.1919    7.5967    8.0642 Cd  0  0  0  0  0  0  0  0  0  0  0  0
    3.1130    8.3576   10.2619 Cl  0  0  0  0  0  0  0  0  0  0  0  0
    2.6767    9.0364    6.2677 Cl  0  0  0  0  0  0  0  0  0  0  0  0
    1.3782    5.9703    7.7109 N   0  0  0  0  0  0  0  0  0  0  0  0
    3.7289    6.0553    6.4055 N   0  0  0  0  0  0  0  0  0  0  0  0
    5.5833    7.6222    7.5159 N   0  0  0  0  0  0  0  0  0  0  0  0
    2.7364    5.1125    4.5101 N   0  0  0  0  0  0  0  0  0  0  0  0
    4.8976    6.0223    4.3792 N   0  0  0  0  0  0  0  0  0  0  0  0
    3.0686    3.9810    2.0794 N   0  0  0  0  0  0  0  0  0  0  0  0
    0.2412    5.9317    8.3845 C   0  0  0  0  0  3  0  0  0  0  0  0
    0.2479    6.4181    9.3532 H   0  0  0  0  0  0  0  0  0  0  0  0
   -0.9010    5.3084    7.8946 C   0  0  0  0  0  0  0  0  0  0  0  0
   -1.8082    5.3044    8.4780 H   0  0  0  0  0  0  0  0  0  0  0  0
   -0.8490    4.7042    6.6480 C   0  0  0  0  0  0  0  0  0  0  0  0
   -1.7189    4.2153    6.2353 H   0  0  0  0  0  0  0  0  0  0  0  0
    0.3390    4.7432    5.9366 C   0  0  0  0  0  0  0  0  0  0  0  0
    0.4461    4.3013    4.9590 H   0  0  0  0  0  0  0  0  0  0  0  0
    1.4308    5.3906    6.5087 C   0  0  0  0  0  0  0  0  0  0  0  0
    2.6958    5.5108    5.7700 C   0  0  2  0  0  3  0  0  0  0  0  0
    4.7735    6.3774    5.6481 C   0  0  0  0  0  0  0  0  0  0  0  0
    5.8155    7.2103    6.2667 C   0  0  1  0  0  3  0  0  0  0  0  0
    6.9503    7.5863    5.5539 C   0  0  0  0  0  0  0  0  0  0  0  0
    7.0859    7.2251    4.5477 H   0  0  0  0  0  0  0  0  0  0  0  0
    7.8647    8.4291    6.1645 C   0  0  0  0  0  0  0  0  0  0  0  0
    8.7518    8.7482    5.6378 H   0  0  0  0  0  0  0  0  0  0  0  0
    7.6154    8.8600    7.4577 C   0  0  0  0  0  0  0  0  0  0  0  0
    8.2982    9.5231    7.9651 H   0  0  0  0  0  0  0  0  0  0  0  0
    6.4574    8.4269    8.0943 C   0  0  0  0  0  0  0  0  0  0  0  0
    6.2180    8.7351    9.1057 H   0  0  0  0  0  0  0  0  0  0  0  0
    3.8763    5.3346    3.8664 C   0  0  0  0  0  0  0  0  0  0  0  0
    4.0062    4.8273    2.4973 C   0  0  0  0  0  0  0  0  0  0  0  0
    5.0713    5.2335    1.6927 C   0  0  0  0  0  0  0  0  0  0  0  0
    5.7981    5.9264    2.0833 H   0  0  0  0  0  0  0  0  0  0  0  0
    5.1499    4.7337    0.4040 C   0  0  0  0  0  0  0  0  0  0  0  0
    5.9583    5.0265   -0.2501 H   0  0  0  0  0  0  0  0  0  0  0  0
    4.1722    3.8527   -0.0304 C   0  0  0  0  0  0  0  0  0  0  0  0
    4.1960    3.4396   -1.0266 H   0  0  0  0  0  0  0  0  0  0  0  0
    3.1535    3.5118    0.8533 C   0  0  0  0  0  0  0  0  0  0  0  0
    2.3683    2.8265    0.5618 H   0  0  0  0  0  0  0  0  0  0  0  0
  1  2  1  0  0  0  0
  3  1  1  0  0  0  0
  4  1  1  0  0  0  0
  4 10  1  0  0  0  0
  5  1  1  0  0  0  0
  6  1  1  0  0  0  0
  6 28  1  0  0  0  0
  8 20  2  0  0  0  0
  9 31  1  0  0  0  0
 10 11  1  0  0  0  0
 12 10  1  0  0  0  0
 12 13  1  0  0  0  0
 14 12  2  0  0  0  0
 15 14  1  0  0  0  0
 16 18  2  0  0  0  0
 16 14  1  0  0  0  0
 17 16  1  0  0  0  0
 18  4  1  0  0  0  0
 19  7  1  6  0  0  0
 19  5  1  0  0  0  0
 19 18  1  0  0  0  0
 20 21  1  0  0  0  0
 20  5  1  0  0  0  0
 21 22  1  6  0  0  0
 21  6  1  0  0  0  0
 22 24  2  0  0  0  0
 23 22  1  0  0  0  0
 24 26  1  0  0  0  0
 25 24  1  0  0  0  0
 26 27  1  0  0  0  0
 26 28  2  0  0  0  0
 28 29  1  0  0  0  0
 30  8  1  0  0  0  0
 30  7  2  0  0  0  0
 31 30  1  0  0  0  0
 32 33  1  0  0  0  0
 32 31  2  0  0  0  0
 34 32  1  0  0  0  0
 35 34  1  0  0  0  0
 36 34  2  0  0  0  0
 36 38  1  0  0  0  0
 37 36  1  0  0  0  0
 38  9  2  0  0  0  0
 39 38  1  0  0  0  0
M  END
$$$$
