CSD_code = CIDJAD | q = 0 | S = 0 | Stoichiometry = C20H26ClCuN6S2 | MND = 3
 OpenBabel04212202023D

 56 57  0  0  1  0  0  0  0  0999 V2000
    4.6492    2.3039    9.7205 Cu  0  0  0  0  0  0  0  0  0  0  0  0
    6.6770    1.8254   10.5684 Cl  0  0  0  0  0  0  0  0  0  0  0  0
    3.6611    4.2722   10.3898 S   0  0  0  0  0  0  0  0  0  0  0  0
    3.7571    0.8813    8.1569 S   0  0  0  0  0  0  0  0  0  0  0  0
    4.7166    6.5767   11.1495 N   0  0  0  0  0  0  0  0  0  0  0  0
    5.5629    7.0987   11.3485 H   0  0  0  0  0  0  0  0  0  0  0  0
    6.2145    4.9860   10.5042 N   0  0  0  0  0  0  0  0  0  0  0  0
    6.4347    4.0059   10.2833 H   0  0  0  0  0  0  0  0  0  0  0  0
    7.1818    5.8885   10.7938 N   0  0  0  0  0  0  0  0  0  0  0  0
    4.8368   -0.9075    6.5385 N   0  0  0  0  0  0  0  0  0  0  0  0
    5.6873   -1.3544    6.2126 H   0  0  0  0  0  0  0  0  0  0  0  0
    6.3176    0.2324    7.8396 N   0  0  0  0  0  0  0  0  0  0  0  0
    6.5201    0.8782    8.6156 H   0  0  0  0  0  0  0  0  0  0  0  0
    7.2724   -0.5228    7.2505 N   0  0  0  0  0  0  0  0  0  0  0  0
    4.9261    5.3323   10.7150 C   0  0  2  0  0  3  0  0  0  0  0  0
    3.4399    7.1580   11.4522 C   0  0  0  0  0  0  0  0  0  0  0  0
    3.3465    8.1268   10.9595 H   0  0  0  0  0  0  0  0  0  0  0  0
    3.3208    7.2939   12.5299 H   0  0  0  0  0  0  0  0  0  0  0  0
    2.6602    6.4907   11.0904 H   0  0  0  0  0  0  0  0  0  0  0  0
    8.4199    5.6233   10.6058 C   0  0  0  0  0  0  0  0  0  0  0  0
    8.9394    4.3457   10.0222 C   0  0  0  0  0  0  0  0  0  0  0  0
    8.7382    3.5024   10.6830 H   0  0  0  0  0  0  0  0  0  0  0  0
   10.0049    4.4061    9.8268 H   0  0  0  0  0  0  0  0  0  0  0  0
    8.4234    4.1424    9.0828 H   0  0  0  0  0  0  0  0  0  0  0  0
    9.3558    6.6869   10.9883 C   0  0  0  0  0  0  0  0  0  0  0  0
   10.6222    6.3899   11.4893 C   0  0  0  0  0  0  0  0  0  0  0  0
   10.9260    5.3618   11.6171 H   0  0  0  0  0  0  0  0  0  0  0  0
   11.4841    7.4053   11.8603 C   0  0  0  0  0  0  0  0  0  0  0  0
   12.4600    7.1612   12.2537 H   0  0  0  0  0  0  0  0  0  0  0  0
   11.1016    8.7300   11.7315 C   0  0  0  0  0  0  0  0  0  0  0  0
   11.7802    9.5203   12.0161 H   0  0  0  0  0  0  0  0  0  0  0  0
    9.8433    9.0363   11.2383 C   0  0  0  0  0  0  0  0  0  0  0  0
    9.5393   10.0679   11.1369 H   0  0  0  0  0  0  0  0  0  0  0  0
    8.9765    8.0249   10.8744 C   0  0  0  0  0  0  0  0  0  0  0  0
    7.9982    8.2555   10.4814 H   0  0  0  0  0  0  0  0  0  0  0  0
    5.0327    0.0149    7.4830 C   0  0  1  0  0  3  0  0  0  0  0  0
    3.5722   -1.2975    5.9849 C   0  0  0  0  0  0  0  0  0  0  0  0
    3.5785   -1.1660    4.9015 H   0  0  0  0  0  0  0  0  0  0  0  0
    2.7951   -0.6727    6.4195 H   0  0  0  0  0  0  0  0  0  0  0  0
    3.3608   -2.3441    6.2140 H   0  0  0  0  0  0  0  0  0  0  0  0
    8.5236   -0.3682    7.4692 C   0  0  0  0  0  0  0  0  0  0  0  0
    9.1457    0.6529    8.3714 C   0  0  0  0  0  0  0  0  0  0  0  0
    9.3057    1.5816    7.8214 H   0  0  0  0  0  0  0  0  0  0  0  0
   10.1029    0.2981    8.7429 H   0  0  0  0  0  0  0  0  0  0  0  0
    8.5050    0.8803    9.2213 H   0  0  0  0  0  0  0  0  0  0  0  0
    9.3995   -1.2848    6.7283 C   0  0  0  0  0  0  0  0  0  0  0  0
    8.9336   -2.5447    6.3492 C   0  0  0  0  0  0  0  0  0  0  0  0
    7.9317   -2.8328    6.6278 H   0  0  0  0  0  0  0  0  0  0  0  0
    9.7448   -3.4173    5.6516 C   0  0  0  0  0  0  0  0  0  0  0  0
    9.3718   -4.3917    5.3717 H   0  0  0  0  0  0  0  0  0  0  0  0
   11.0368   -3.0466    5.3137 C   0  0  0  0  0  0  0  0  0  0  0  0
   11.6730   -3.7291    4.7701 H   0  0  0  0  0  0  0  0  0  0  0  0
   11.5081   -1.7963    5.6776 C   0  0  0  0  0  0  0  0  0  0  0  0
   12.5127   -1.5003    5.4129 H   0  0  0  0  0  0  0  0  0  0  0  0
   10.7006   -0.9225    6.3819 C   0  0  0  0  0  0  0  0  0  0  0  0
   11.0791    0.0540    6.6437 H   0  0  0  0  0  0  0  0  0  0  0  0
  1  3  1  0  0  0  0
  1  2  1  0  0  0  0
  4  1  1  0  0  0  0
  5  6  1  0  0  0  0
  5 16  1  0  0  0  0
  7 15  1  0  0  0  0
  7  9  1  0  0  0  0
  8  7  1  0  0  0  0
 10 36  1  0  0  0  0
 11 10  1  0  0  0  0
 12 13  1  0  0  0  0
 14 41  2  0  0  0  0
 14 12  1  0  0  0  0
 15  3  1  6  0  0  0
 15  5  1  0  0  0  0
 16 18  1  0  0  0  0
 17 16  1  0  0  0  0
 19 16  1  0  0  0  0
 20  9  2  0  0  0  0
 20 25  1  0  0  0  0
 21 20  1  0  0  0  0
 21 22  1  0  0  0  0
 23 21  1  0  0  0  0
 24 21  1  0  0  0  0
 25 26  1  0  0  0  0
 26 27  1  0  0  0  0
 26 28  2  0  0  0  0
 28 29  1  0  0  0  0
 30 28  1  0  0  0  0
 30 31  1  0  0  0  0
 32 30  2  0  0  0  0
 33 32  1  0  0  0  0
 34 25  2  0  0  0  0
 34 32  1  0  0  0  0
 35 34  1  0  0  0  0
 36 12  1  0  0  0  0
 36  4  1  6  0  0  0
 37 40  1  0  0  0  0
 37 39  1  0  0  0  0
 37 10  1  0  0  0  0
 38 37  1  0  0  0  0
 41 42  1  0  0  0  0
 42 44  1  0  0  0  0
 42 45  1  0  0  0  0
 43 42  1  0  0  0  0
 46 41  1  0  0  0  0
 47 48  1  0  0  0  0
 47 46  2  0  0  0  0
 49 47  1  0  0  0  0
 50 49  1  0  0  0  0
 51 49  2  0  0  0  0
 51 53  1  0  0  0  0
 52 51  1  0  0  0  0
 53 55  2  0  0  0  0
 54 53  1  0  0  0  0
 55 56  1  0  0  0  0
 55 46  1  0  0  0  0
M  END
$$$$
