CSD_code = CIDZIB | q = 0 | S = 0 | Stoichiometry = C30H32Cl2NNbO3 | MND = 6
 OpenBabel04212202023D

 69 71  0  0  0  0  0  0  0  0999 V2000
    1.7275    1.0858    9.1116 Nb  0  0  0  0  0  0  0  0  0  0  0  0
    3.5332    1.5312   10.6070 Cl  0  0  0  0  0  0  0  0  0  0  0  0
    1.1979    0.8005    6.8084 Cl  0  0  0  0  0  0  0  0  0  0  0  0
    0.5274    2.3572    9.6231 O   0  0  0  0  0  0  0  0  0  0  0  0
    3.1558    2.9020    7.8005 O   0  0  0  0  0  0  0  0  0  0  0  0
    3.9101    0.1298    7.9854 O   0  0  0  0  0  0  0  0  0  0  0  0
    1.3359   -0.5218    9.7629 N   0  0  0  0  0  2  0  0  0  0  0  0
    0.9251   -1.6427   10.3731 C   0  0  0  0  0  0  0  0  0  0  0  0
    0.6530   -1.6115   11.7630 C   0  0  0  0  0  0  0  0  0  0  0  0
    0.2094   -2.7586   12.3918 C   0  0  0  0  0  0  0  0  0  0  0  0
    0.0002   -2.7331   13.4520 H   0  0  0  0  0  0  0  0  0  0  0  0
    0.0305   -3.9372   11.6843 C   0  0  0  0  0  0  0  0  0  0  0  0
   -0.3205   -4.8244   12.1901 H   0  0  0  0  0  0  0  0  0  0  0  0
    0.3075   -3.9738   10.3294 C   0  0  0  0  0  0  0  0  0  0  0  0
    0.1747   -4.8941    9.7778 H   0  0  0  0  0  0  0  0  0  0  0  0
    0.7548   -2.8481    9.6585 C   0  0  0  0  0  0  0  0  0  0  0  0
    0.8759   -0.3345   12.5122 C   0  0  0  0  0  0  0  0  0  0  0  0
    0.3558    0.4914   12.0165 H   0  0  0  0  0  0  0  0  0  0  0  0
    0.5241   -0.4187   13.5371 H   0  0  0  0  0  0  0  0  0  0  0  0
    1.9404   -0.0906   12.5215 H   0  0  0  0  0  0  0  0  0  0  0  0
    1.0582   -2.9084    8.1900 C   0  0  0  0  0  0  0  0  0  0  0  0
    1.1835   -1.9049    7.7833 H   0  0  0  0  0  0  0  0  0  0  0  0
    1.9740   -3.4756    8.0160 H   0  0  0  0  0  0  0  0  0  0  0  0
    0.2529   -3.4091    7.6563 H   0  0  0  0  0  0  0  0  0  0  0  0
   -0.5073    2.9578   10.1906 C   0  0  0  0  0  0  0  0  0  0  0  0
   -0.4121    4.3141   10.5657 C   0  0  0  0  0  0  0  0  0  0  0  0
   -1.5006    4.9444   11.1522 C   0  0  0  0  0  0  0  0  0  0  0  0
   -1.4116    5.9847   11.4295 H   0  0  0  0  0  0  0  0  0  0  0  0
   -2.6689    4.2489   11.4038 C   0  0  0  0  0  0  0  0  0  0  0  0
   -3.5037    4.7454   11.8747 H   0  0  0  0  0  0  0  0  0  0  0  0
   -2.7654    2.9160   11.0460 C   0  0  0  0  0  0  0  0  0  0  0  0
   -3.6789    2.3686   11.2262 H   0  0  0  0  0  0  0  0  0  0  0  0
   -1.7096    2.2598   10.4267 C   0  0  0  0  0  0  0  0  0  0  0  0
    0.8485    5.0397   10.3266 C   0  0  0  0  0  0  0  0  0  0  0  0
    0.8577    6.2383    9.6178 C   0  0  0  0  0  0  0  0  0  0  0  0
   -0.0742    6.6456    9.2511 H   0  0  0  0  0  0  0  0  0  0  0  0
    2.0518    6.8904    9.3666 C   0  0  0  0  0  0  0  0  0  0  0  0
    2.0496    7.8178    8.8118 H   0  0  0  0  0  0  0  0  0  0  0  0
    3.2469    6.3538    9.8179 C   0  0  0  0  0  0  0  0  0  0  0  0
    4.1780    6.8622    9.6129 H   0  0  0  0  0  0  0  0  0  0  0  0
    3.2442    5.1714   10.5394 C   0  0  0  0  0  0  0  0  0  0  0  0
    4.1690    4.7499   10.9044 H   0  0  0  0  0  0  0  0  0  0  0  0
    2.0517    4.5198   10.7981 C   0  0  0  0  0  0  0  0  0  0  0  0
    2.0457    3.6150   11.3930 H   0  0  0  0  0  0  0  0  0  0  0  0
   -1.8576    0.8573    9.9924 C   0  0  0  0  0  0  0  0  0  0  0  0
   -1.6415    0.5130    8.6584 C   0  0  0  0  0  0  0  0  0  0  0  0
   -1.3862    1.2836    7.9396 H   0  0  0  0  0  0  0  0  0  0  0  0
   -1.8186   -0.7942    8.2391 C   0  0  0  0  0  0  0  0  0  0  0  0
   -1.6517   -1.0472    7.2025 H   0  0  0  0  0  0  0  0  0  0  0  0
   -2.2199   -1.7655    9.1407 C   0  0  0  0  0  0  0  0  0  0  0  0
   -2.3608   -2.7847    8.8138 H   0  0  0  0  0  0  0  0  0  0  0  0
   -2.4474   -1.4284   10.4636 C   0  0  0  0  0  0  0  0  0  0  0  0
   -2.7606   -2.1846   11.1677 H   0  0  0  0  0  0  0  0  0  0  0  0
   -2.2676   -0.1255   10.8890 C   0  0  0  0  0  0  0  0  0  0  0  0
   -2.4392    0.1368   11.9232 H   0  0  0  0  0  0  0  0  0  0  0  0
    2.4119    3.9028    7.1400 C   0  0  0  0  0  0  0  0  0  0  0  0
    1.7198    4.3234    7.8689 H   0  0  0  0  0  0  0  0  0  0  0  0
    3.0771    4.6946    6.7750 H   0  0  0  0  0  0  0  0  0  0  0  0
    1.8510    3.4810    6.2966 H   0  0  0  0  0  0  0  0  0  0  0  0
    4.0951    2.2850    6.9430 C   0  0  0  0  0  0  0  0  0  0  0  0
    4.8272    3.0326    6.6011 H   0  0  0  0  0  0  0  0  0  0  0  0
    3.5798    1.8557    6.0700 H   0  0  0  0  0  0  0  0  0  0  0  0
    4.8226    1.1748    7.6926 C   0  0  0  0  0  0  0  0  0  0  0  0
    5.6328    0.7836    7.0592 H   0  0  0  0  0  0  0  0  0  0  0  0
    5.2466    1.5743    8.6262 H   0  0  0  0  0  0  0  0  0  0  0  0
    4.5391   -0.9625    8.6331 C   0  0  0  0  0  0  0  0  0  0  0  0
    3.7603   -1.7012    8.8232 H   0  0  0  0  0  0  0  0  0  0  0  0
    5.3150   -1.3857    7.9836 H   0  0  0  0  0  0  0  0  0  0  0  0
    4.9841   -0.6485    9.5847 H   0  0  0  0  0  0  0  0  0  0  0  0
  1  4  1  0  0  0  0
  1  7  1  0  0  0  0
  1  2  1  0  0  0  0
  3  1  1  0  0  0  0
  4 25  1  0  0  0  0
  6 66  1  0  0  0  0
  7  8  1  0  0  0  0
  8  9  1  0  0  0  0
  9 10  2  0  0  0  0
  9 17  1  0  0  0  0
 10 11  1  0  0  0  0
 12 13  1  0  0  0  0
 12 10  1  0  0  0  0
 14 12  2  0  0  0  0
 15 14  1  0  0  0  0
 16 14  1  0  0  0  0
 16  8  2  0  0  0  0
 17 20  1  0  0  0  0
 17 19  1  0  0  0  0
 18 17  1  0  0  0  0
 21 16  1  0  0  0  0
 22 21  1  0  0  0  0
 23 21  1  0  0  0  0
 24 21  1  0  0  0  0
 25 33  2  0  0  0  0
 25 26  1  0  0  0  0
 26 27  2  0  0  0  0
 27 29  1  0  0  0  0
 27 28  1  0  0  0  0
 29 30  1  0  0  0  0
 31 32  1  0  0  0  0
 31 29  2  0  0  0  0
 33 31  1  0  0  0  0
 34 26  1  0  0  0  0
 34 43  1  0  0  0  0
 35 34  2  0  0  0  0
 36 35  1  0  0  0  0
 37 35  1  0  0  0  0
 37 39  2  0  0  0  0
 38 37  1  0  0  0  0
 39 41  1  0  0  0  0
 40 39  1  0  0  0  0
 41 43  2  0  0  0  0
 41 42  1  0  0  0  0
 43 44  1  0  0  0  0
 45 33  1  0  0  0  0
 45 54  1  0  0  0  0
 46 45  2  0  0  0  0
 47 46  1  0  0  0  0
 48 46  1  0  0  0  0
 48 50  2  0  0  0  0
 49 48  1  0  0  0  0
 50 52  1  0  0  0  0
 51 50  1  0  0  0  0
 52 54  2  0  0  0  0
 52 53  1  0  0  0  0
 54 55  1  0  0  0  0
 56  5  1  0  0  0  0
 56 57  1  0  0  0  0
 58 56  1  0  0  0  0
 59 56  1  0  0  0  0
 60 63  1  0  0  0  0
 60  5  1  0  0  0  0
 61 60  1  0  0  0  0
 62 60  1  0  0  0  0
 63  6  1  0  0  0  0
 63 65  1  0  0  0  0
 64 63  1  0  0  0  0
 66 67  1  0  0  0  0
 66 69  1  0  0  0  0
 68 66  1  0  0  0  0
M  END
$$$$
