CSD_code = CIFBAV | q = 0 | S = 0 | Stoichiometry = C8H13ClHgSi | MND = 2
 OpenBabel04212202023D

 24 24  0  0  1  0  0  0  0  0999 V2000
    4.7186   10.6574    4.4594 C   0  0  1  0  0  0  0  0  0  0  0  0
    4.5868   12.0727    8.5533 Cl  0  0  0  0  0  0  0  0  0  0  0  0
    4.4890   12.1229    6.2075 Hg  0  0  0  0  0  0  0  0  0  0  0  0
    4.4869   11.3822    2.7004 Si  0  0  0  0  0  0  0  0  0  0  0  0
    6.0348   10.1026    4.8061 C   0  0  0  0  0  0  0  0  0  0  0  0
    6.9694   10.5724    4.5484 H   0  0  0  0  0  0  0  0  0  0  0  0
    5.8659    8.8908    5.3925 C   0  0  0  0  0  0  0  0  0  0  0  0
    6.6434    8.2307    5.7333 H   0  0  0  0  0  0  0  0  0  0  0  0
    4.4655    8.5962    5.4567 C   0  0  0  0  0  0  0  0  0  0  0  0
    4.0523    7.6855    5.8521 H   0  0  0  0  0  0  0  0  0  0  0  0
    3.7727    9.6267    4.9098 C   0  0  0  0  0  0  0  0  0  0  0  0
    2.7093    9.6759    4.7439 H   0  0  0  0  0  0  0  0  0  0  0  0
    4.7075    9.9501    1.4620 C   0  0  0  0  0  0  0  0  0  0  0  0
    5.6903    9.4987    1.5580 H   0  0  0  0  0  0  0  0  0  0  0  0
    4.5969   10.2920    0.4377 H   0  0  0  0  0  0  0  0  0  0  0  0
    3.9729    9.1691    1.6332 H   0  0  0  0  0  0  0  0  0  0  0  0
    2.7354   12.1299    2.5838 C   0  0  0  0  0  0  0  0  0  0  0  0
    2.6025   12.6643    1.6490 H   0  0  0  0  0  0  0  0  0  0  0  0
    2.5471   12.8324    3.3938 H   0  0  0  0  0  0  0  0  0  0  0  0
    1.9710   11.3610    2.6304 H   0  0  0  0  0  0  0  0  0  0  0  0
    5.8052   12.7353    2.4329 C   0  0  0  0  0  0  0  0  0  0  0  0
    5.6280   13.2736    1.5078 H   0  0  0  0  0  0  0  0  0  0  0  0
    6.8029   12.3121    2.3770 H   0  0  0  0  0  0  0  0  0  0  0  0
    5.7998   13.4626    3.2429 H   0  0  0  0  0  0  0  0  0  0  0  0
  1  5  1  0  0  0  0
  1 11  1  0  0  0  0
  1  3  1  1  0  0  0
  3  2  1  0  0  0  0
  4  1  1  0  0  0  0
  5  7  2  0  0  0  0
  6  5  1  0  0  0  0
  7  9  1  0  0  0  0
  7  8  1  0  0  0  0
  9 10  1  0  0  0  0
 11  9  2  0  0  0  0
 12 11  1  0  0  0  0
 13 14  1  0  0  0  0
 13 16  1  0  0  0  0
 13  4  1  0  0  0  0
 15 13  1  0  0  0  0
 17 20  1  0  0  0  0
 17  4  1  0  0  0  0
 17 19  1  0  0  0  0
 18 17  1  0  0  0  0
 21  4  1  0  0  0  0
 21 24  1  0  0  0  0
 22 21  1  0  0  0  0
 23 21  1  0  0  0  0
M  END
$$$$
