CSD_code = CIFCOM | q = 0 | S = 0 | Stoichiometry = C24H24Cl2IN3Pd | MND = 4
 OpenBabel04212202023D

 55 57  0  0  0  0  0  0  0  0999 V2000
   10.4968   15.2382   11.6818 I   0  0  0  0  0  0  0  0  0  0  0  0
   12.3467    9.7490    7.8815 Pd  0  0  0  0  0  0  0  0  0  0  0  0
   14.0028   10.9076    6.8292 Cl  0  0  0  0  0  0  0  0  0  0  0  0
   13.8002    8.2982    8.7985 Cl  0  0  0  0  0  0  0  0  0  0  0  0
   10.4350    9.1804   10.0291 N   0  0  0  0  0  0  0  0  0  0  0  0
    9.8025    8.5737   10.5479 H   0  0  0  0  0  0  0  0  0  0  0  0
   10.8894   12.0769    6.5988 N   0  0  0  0  0  2  0  0  0  0  0  0
   10.7597    7.4516    8.5897 N   0  0  0  0  0  0  0  0  0  0  0  0
   11.3551    7.0499    7.8700 H   0  0  0  0  0  0  0  0  0  0  0  0
   11.0186    8.7112    8.9203 C   0  0  0  0  0  0  0  0  0  0  0  0
   11.2638   11.0748    7.0656 C   0  0  0  0  0  2  0  0  0  0  0  0
    8.5848    6.7060    9.4170 C   0  0  0  0  0  0  0  0  0  0  0  0
    7.8470    5.7949   10.1640 C   0  0  0  0  0  0  0  0  0  0  0  0
    6.7767    5.9199   10.2359 H   0  0  0  0  0  0  0  0  0  0  0  0
   11.2817   13.6967    4.9076 C   0  0  0  0  0  0  0  0  0  0  0  0
    8.4662    4.7353   10.7989 C   0  0  0  0  0  0  0  0  0  0  0  0
    7.8796    4.0367   11.3757 H   0  0  0  0  0  0  0  0  0  0  0  0
   10.5195   13.1803   11.2030 C   0  0  0  0  0  0  0  0  0  0  0  0
    9.9677    6.5315    9.3373 C   0  0  0  0  0  0  0  0  0  0  0  0
   10.5040   10.5116   10.4629 C   0  0  0  0  0  0  0  0  0  0  0  0
   10.5766   13.2735    6.0431 C   0  0  0  0  0  0  0  0  0  0  0  0
   11.6792   12.5980   10.7204 C   0  0  0  0  0  0  0  0  0  0  0  0
   12.5854   13.1761   10.6275 H   0  0  0  0  0  0  0  0  0  0  0  0
    9.8344    4.5608   10.6864 C   0  0  0  0  0  0  0  0  0  0  0  0
   10.3127    3.7240   11.1726 H   0  0  0  0  0  0  0  0  0  0  0  0
   11.6800   11.2607   10.3598 C   0  0  0  0  0  0  0  0  0  0  0  0
   12.6236   10.7913   10.0609 H   0  0  0  0  0  0  0  0  0  0  0  0
    9.9891   15.7323    4.9683 C   0  0  0  0  0  0  0  0  0  0  0  0
    9.7617   16.7004    4.5483 H   0  0  0  0  0  0  0  0  0  0  0  0
   10.6066    5.4517    9.9551 C   0  0  0  0  0  0  0  0  0  0  0  0
    9.5841   14.0560    6.6459 C   0  0  0  0  0  0  0  0  0  0  0  0
    7.8847    7.8272    8.7039 C   0  0  0  0  0  0  0  0  0  0  0  0
    6.9897    7.4478    8.2151 H   0  0  0  0  0  0  0  0  0  0  0  0
    8.5239    8.2856    7.9521 H   0  0  0  0  0  0  0  0  0  0  0  0
    7.5696    8.6016    9.4043 H   0  0  0  0  0  0  0  0  0  0  0  0
    9.3039   15.2926    6.0889 C   0  0  0  0  0  0  0  0  0  0  0  0
    8.5476   15.9171    6.5401 H   0  0  0  0  0  0  0  0  0  0  0  0
   12.3261   12.8205    4.3018 C   0  0  0  0  0  0  0  0  0  0  0  0
   13.0367   12.4827    5.0583 H   0  0  0  0  0  0  0  0  0  0  0  0
   12.8633   13.3457    3.5174 H   0  0  0  0  0  0  0  0  0  0  0  0
   11.8695   11.9270    3.8741 H   0  0  0  0  0  0  0  0  0  0  0  0
    9.3651   11.0986   11.0093 C   0  0  0  0  0  0  0  0  0  0  0  0
    8.4653   10.5139   11.1339 H   0  0  0  0  0  0  0  0  0  0  0  0
    9.3692   12.4299   11.3787 C   0  0  0  0  0  0  0  0  0  0  0  0
    8.4776   12.8799   11.7864 H   0  0  0  0  0  0  0  0  0  0  0  0
   10.9651   14.9421    4.3859 C   0  0  0  0  0  0  0  0  0  0  0  0
   11.4960   15.2965    3.5151 H   0  0  0  0  0  0  0  0  0  0  0  0
   12.0829    5.2674    9.8095 C   0  0  0  0  0  0  0  0  0  0  0  0
   12.3124    4.8567    8.8250 H   0  0  0  0  0  0  0  0  0  0  0  0
   12.4575    4.5736   10.5568 H   0  0  0  0  0  0  0  0  0  0  0  0
   12.6200    6.2116    9.8994 H   0  0  0  0  0  0  0  0  0  0  0  0
    8.8656   13.5483    7.8576 C   0  0  0  0  0  0  0  0  0  0  0  0
    8.1998   12.7275    7.5877 H   0  0  0  0  0  0  0  0  0  0  0  0
    8.2748   14.3387    8.3125 H   0  0  0  0  0  0  0  0  0  0  0  0
    9.5757   13.1665    8.5904 H   0  0  0  0  0  0  0  0  0  0  0  0
  2  4  1  0  0  0  0
  2 10  2  0  0  0  0
  3  2  1  0  0  0  0
  5 20  1  0  0  0  0
  5  6  1  0  0  0  0
  7 11  1  0  0  0  0
  8 10  1  0  0  0  0
  8 19  1  0  0  0  0
  9  8  1  0  0  0  0
 10  5  1  0  0  0  0
 11  2  1  0  0  0  0
 12 13  1  0  0  0  0
 13 14  1  0  0  0  0
 13 16  2  0  0  0  0
 15 21  1  0  0  0  0
 16 17  1  0  0  0  0
 18 44  1  0  0  0  0
 18  1  1  0  0  0  0
 19 12  2  0  0  0  0
 19 30  1  0  0  0  0
 20 42  1  0  0  0  0
 21  7  1  0  0  0  0
 21 31  2  0  0  0  0
 22 18  2  0  0  0  0
 23 22  1  0  0  0  0
 24 16  1  0  0  0  0
 24 25  1  0  0  0  0
 26 20  2  0  0  0  0
 26 22  1  0  0  0  0
 27 26  1  0  0  0  0
 28 36  2  0  0  0  0
 29 28  1  0  0  0  0
 30 24  2  0  0  0  0
 31 52  1  0  0  0  0
 32 35  1  0  0  0  0
 32 12  1  0  0  0  0
 33 32  1  0  0  0  0
 34 32  1  0  0  0  0
 36 37  1  0  0  0  0
 36 31  1  0  0  0  0
 38 15  1  0  0  0  0
 38 39  1  0  0  0  0
 40 38  1  0  0  0  0
 41 38  1  0  0  0  0
 42 43  1  0  0  0  0
 42 44  2  0  0  0  0
 44 45  1  0  0  0  0
 46 15  2  0  0  0  0
 46 28  1  0  0  0  0
 47 46  1  0  0  0  0
 48 51  1  0  0  0  0
 48 30  1  0  0  0  0
 48 50  1  0  0  0  0
 49 48  1  0  0  0  0
 52 54  1  0  0  0  0
 52 55  1  0  0  0  0
 53 52  1  0  0  0  0
M  END
$$$$
