CSD_code = CIFPIQ | q = 1 | S = 0 | Stoichiometry = C8H16ClCoN5O2(1+) | MND = 6
 OpenBabel04212202023D

 33 36  0  0  1  0  0  0  0  0999 V2000
    1.4767    2.2685   -0.3219 Co  0  0  0  0  0  0  0  0  0  0  0  0
    1.1669    4.4165   -0.4169 Cl  0  0  0  0  0  0  0  0  0  0  0  0
    1.7709    0.4162   -0.1793 O   0  0  0  0  0  0  0  0  0  0  0  0
    2.9893   -1.2424   -1.0011 O   0  0  0  0  0  0  0  0  0  0  0  0
    0.6415    2.0502   -2.0295 N   0  0  0  0  0  0  0  0  0  0  0  0
   -0.8341    2.1105   -3.6405 N   0  0  0  0  0  0  0  0  0  0  0  0
    3.1760    2.3101   -1.2804 N   0  0  0  0  0  4  0  0  0  0  0  0
    2.3389    2.4985    1.4561 N   0  0  0  0  0  4  0  0  0  0  0  0
   -0.1728    2.0192    0.7269 N   0  0  0  0  0  4  0  0  0  0  0  0
   -0.5741    2.4441   -2.3737 C   0  0  0  0  0  3  0  0  0  0  0  0
    0.2611    1.4782   -4.1392 C   0  0  0  0  0  0  0  0  0  0  0  0
    1.1882    1.4465   -3.1327 C   0  0  0  0  0  0  0  0  0  0  0  0
    2.5881    0.9271   -3.2283 C   0  0  0  0  0  0  0  0  0  0  0  0
    3.3262    0.9749   -1.8947 C   0  0  2  0  0  0  0  0  0  0  0  0
    2.6649   -0.0866   -0.9455 C   0  0  0  0  0  0  0  0  0  0  0  0
    1.4383    1.9745    2.4950 C   0  0  0  0  0  0  0  0  0  0  0  0
    0.0438    2.4465    2.1190 C   0  0  0  0  0  0  0  0  0  0  0  0
   -1.2508    3.0016   -1.7580 H   0  0  0  0  0  0  0  0  0  0  0  0
   -1.6864    2.3017   -4.1458 H   0  0  0  0  0  0  0  0  0  0  0  0
    0.3146    1.1037   -5.1398 H   0  0  0  0  0  0  0  0  0  0  0  0
    3.1252    1.5181   -3.9781 H   0  0  0  0  0  0  0  0  0  0  0  0
    2.5723   -0.1068   -3.5816 H   0  0  0  0  0  0  0  0  0  0  0  0
    4.3769    0.7108   -2.0492 H   0  0  0  0  0  0  0  0  0  0  0  0
    3.9781    2.4977   -0.6764 H   0  0  0  0  0  0  0  0  0  0  0  0
    3.1992    3.0334   -2.0053 H   0  0  0  0  0  0  0  0  0  0  0  0
    2.4393    3.5096    1.5884 H   0  0  0  0  0  0  0  0  0  0  0  0
    3.2584    2.0755    1.5828 H   0  0  0  0  0  0  0  0  0  0  0  0
    1.4811    0.8830    2.4651 H   0  0  0  0  0  0  0  0  0  0  0  0
   -1.0238    2.4577    0.3789 H   0  0  0  0  0  0  0  0  0  0  0  0
   -0.0019    3.5381    2.1533 H   0  0  0  0  0  0  0  0  0  0  0  0
   -0.7132    2.0329    2.7912 H   0  0  0  0  0  0  0  0  0  0  0  0
   -0.3195    1.0058    0.7174 H   0  0  0  0  0  0  0  0  0  0  0  0
    1.7230    2.3200    3.4928 H   0  0  0  0  0  0  0  0  0  0  0  0
  1  3  1  0  0  0  0
  1  9  1  0  0  0  0
  1  8  1  0  0  0  0
  2  1  1  0  0  0  0
  4 15  2  0  0  0  0
  5  1  1  0  0  0  0
  6 10  1  0  0  0  0
  7 24  1  0  0  0  0
  7  1  1  0  0  0  0
  8 27  1  0  0  0  0
  8 26  1  0  0  0  0
  8 16  1  0  0  0  0
  9 17  1  0  0  0  0
 10  5  1  0  0  0  0
 10 18  1  0  0  0  0
 11  6  1  0  0  0  0
 11 12  2  0  0  0  0
 12  5  1  0  0  0  0
 13 12  1  0  0  0  0
 13 14  1  0  0  0  0
 14 23  1  6  0  0  0
 14  7  1  0  0  0  0
 14 15  1  0  0  0  0
 15  3  1  0  0  0  0
 16 33  1  0  0  0  0
 17 30  1  0  0  0  0
 17 16  1  0  0  0  0
 17 31  1  0  0  0  0
 19  6  1  0  0  0  0
 20 11  1  0  0  0  0
 21 13  1  0  0  0  0
 22 13  1  0  0  0  0
 25  7  1  0  0  0  0
 28 16  1  0  0  0  0
 29  9  1  0  0  0  0
 32  9  1  0  0  0  0
M  END
$$$$
