CSD_code = CIFWIZ | q = 0 | S = 0 | Stoichiometry = C39H38Cl2N2ORu | MND = 5
 OpenBabel04212202023D

 83 88  0  0  1  0  0  0  0  0999 V2000
    1.5686   -0.1143    5.0477 Ru  0  0  0  0  0  0  0  0  0  0  0  0
    2.9067    1.4601    4.0103 Cl  0  0  0  0  0  0  0  0  0  0  0  0
   -0.3152   -1.3824    5.4546 Cl  0  0  0  0  0  0  0  0  0  0  0  0
    2.5558   -1.6196    4.2458 C   0  0  2  0  0  3  0  0  0  0  0  0
    3.7728   -2.1050    4.4952 N   0  0  0  0  0  0  0  0  0  0  0  0
    4.2006   -3.0749    3.4910 C   0  0  1  0  0  0  0  0  0  0  0  0
    4.6867   -3.9329    3.9626 H   0  0  0  0  0  0  0  0  0  0  0  0
    2.8421   -3.4776    2.8606 C   0  0  1  0  0  0  0  0  0  0  0  0
    2.4804   -4.3880    3.3590 H   0  0  0  0  0  0  0  0  0  0  0  0
    2.0045   -2.3467    3.2562 N   0  0  0  0  0  0  0  0  0  0  0  0
    5.1464   -2.4590    2.4859 C   0  0  0  0  0  0  0  0  0  0  0  0
    6.1180   -3.2503    1.8884 C   0  0  0  0  0  0  0  0  0  0  0  0
    6.2165   -4.2871    2.1781 H   0  0  0  0  0  0  0  0  0  0  0  0
    6.9533   -2.7226    0.9210 C   0  0  0  0  0  0  0  0  0  0  0  0
    7.7039   -3.3481    0.4609 H   0  0  0  0  0  0  0  0  0  0  0  0
    6.8282   -1.3960    0.5458 C   0  0  0  0  0  0  0  0  0  0  0  0
    7.4822   -0.9832   -0.2078 H   0  0  0  0  0  0  0  0  0  0  0  0
    5.8643   -0.6014    1.1412 C   0  0  0  0  0  0  0  0  0  0  0  0
    5.7617    0.4349    0.8566 H   0  0  0  0  0  0  0  0  0  0  0  0
    5.0225   -1.1299    2.1032 C   0  0  0  0  0  0  0  0  0  0  0  0
    4.2729   -0.4967    2.5571 H   0  0  0  0  0  0  0  0  0  0  0  0
    2.9127   -3.7277    1.3802 C   0  0  0  0  0  0  0  0  0  0  0  0
    3.0866   -5.0301    0.9279 C   0  0  0  0  0  0  0  0  0  0  0  0
    3.1389   -5.8413    1.6413 H   0  0  0  0  0  0  0  0  0  0  0  0
    3.1986   -5.2976   -0.4240 C   0  0  0  0  0  0  0  0  0  0  0  0
    3.3355   -6.3144   -0.7608 H   0  0  0  0  0  0  0  0  0  0  0  0
    3.1327   -4.2633   -1.3414 C   0  0  0  0  0  0  0  0  0  0  0  0
    3.2176   -4.4702   -2.3977 H   0  0  0  0  0  0  0  0  0  0  0  0
    2.9572   -2.9643   -0.8983 C   0  0  0  0  0  0  0  0  0  0  0  0
    2.9063   -2.1524   -1.6079 H   0  0  0  0  0  0  0  0  0  0  0  0
    2.8513   -2.6950    0.4542 C   0  0  0  0  0  0  0  0  0  0  0  0
    2.7236   -1.6766    0.7827 H   0  0  0  0  0  0  0  0  0  0  0  0
    4.6805   -1.7129    5.5105 C   0  0  0  0  0  0  0  0  0  0  0  0
    4.9082   -2.5820    6.5825 C   0  0  0  0  0  0  0  0  0  0  0  0
    5.8210   -2.2010    7.5566 C   0  0  0  0  0  0  0  0  0  0  0  0
    6.0023   -2.8614    8.3929 H   0  0  0  0  0  0  0  0  0  0  0  0
    6.4828   -0.9882    7.4825 C   0  0  0  0  0  0  0  0  0  0  0  0
    7.1831   -0.7105    8.2563 H   0  0  0  0  0  0  0  0  0  0  0  0
    6.2347   -0.1298    6.4264 C   0  0  0  0  0  0  0  0  0  0  0  0
    6.7361    0.8240    6.3700 H   0  0  0  0  0  0  0  0  0  0  0  0
    5.3395   -0.4937    5.4365 C   0  0  0  0  0  0  0  0  0  0  0  0
    5.1367    0.1744    4.6159 H   0  0  0  0  0  0  0  0  0  0  0  0
    4.1502   -3.8693    6.7128 C   0  0  0  0  0  0  0  0  0  0  0  0
    3.1390   -3.7550    6.3259 H   0  0  0  0  0  0  0  0  0  0  0  0
    4.0929   -4.1688    7.7565 H   0  0  0  0  0  0  0  0  0  0  0  0
    4.6447   -4.6720    6.1644 H   0  0  0  0  0  0  0  0  0  0  0  0
    0.8032   -1.9871    2.6135 C   0  0  0  0  0  0  0  0  0  0  0  0
   -0.2255   -2.9046    2.3737 C   0  0  0  0  0  0  0  0  0  0  0  0
   -1.3583   -2.4577    1.7075 C   0  0  0  0  0  0  0  0  0  0  0  0
   -2.1616   -3.1568    1.5249 H   0  0  0  0  0  0  0  0  0  0  0  0
   -1.4947   -1.1443    1.2965 C   0  0  0  0  0  0  0  0  0  0  0  0
   -2.3911   -0.8283    0.7845 H   0  0  0  0  0  0  0  0  0  0  0  0
   -0.4842   -0.2370    1.5575 C   0  0  0  0  0  0  0  0  0  0  0  0
   -0.5778    0.7929    1.2459 H   0  0  0  0  0  0  0  0  0  0  0  0
    0.6602   -0.6569    2.2121 C   0  0  0  0  0  0  0  0  0  0  0  0
    1.4822    0.0405    2.3631 H   0  0  0  0  0  0  0  0  0  0  0  0
   -0.1626   -4.3181    2.8627 C   0  0  0  0  0  0  0  0  0  0  0  0
    0.5108   -4.9159    2.2482 H   0  0  0  0  0  0  0  0  0  0  0  0
   -1.1505   -4.7696    2.8206 H   0  0  0  0  0  0  0  0  0  0  0  0
    0.1785   -4.3387    3.8962 H   0  0  0  0  0  0  0  0  0  0  0  0
    2.3105   -0.1979    6.7867 C   0  0  0  0  0  3  0  0  0  0  0  0
    2.9560   -0.9799    7.1888 H   0  0  0  0  0  0  0  0  0  0  0  0
    2.0004    0.8461    7.6909 C   0  0  0  0  0  0  0  0  0  0  0  0
    2.6015    0.9600    8.9552 C   0  0  0  0  0  0  0  0  0  0  0  0
    3.3365    0.2220    9.2423 H   0  0  0  0  0  0  0  0  0  0  0  0
    2.2719    1.9930    9.8041 C   0  0  0  0  0  0  0  0  0  0  0  0
    2.7436    2.0711   10.7720 H   0  0  0  0  0  0  0  0  0  0  0  0
    1.3298    2.9352    9.4162 C   0  0  0  0  0  0  0  0  0  0  0  0
    1.0694    3.7448   10.0813 H   0  0  0  0  0  0  0  0  0  0  0  0
    0.7101    2.8529    8.1783 C   0  0  0  0  0  0  0  0  0  0  0  0
   -0.0162    3.6032    7.9067 H   0  0  0  0  0  0  0  0  0  0  0  0
    1.0390    1.8227    7.3115 C   0  0  0  0  0  0  0  0  0  0  0  0
    0.5313    1.6395    6.0688 O   0  0  0  0  0  0  0  0  0  0  0  0
   -0.6239    2.3527    5.6319 C   0  0  0  0  0  0  0  0  0  0  0  0
   -0.4713    3.4267    5.8153 H   0  0  0  0  0  0  0  0  0  0  0  0
   -1.8641    1.8407    6.3604 C   0  0  0  0  0  0  0  0  0  0  0  0
   -1.9554    0.7676    6.1971 H   0  0  0  0  0  0  0  0  0  0  0  0
   -2.7523    2.3360    5.9777 H   0  0  0  0  0  0  0  0  0  0  0  0
   -1.7931    2.0201    7.4309 H   0  0  0  0  0  0  0  0  0  0  0  0
   -0.7186    2.0996    4.1334 C   0  0  0  0  0  0  0  0  0  0  0  0
    0.1976    2.4278    3.6405 H   0  0  0  0  0  0  0  0  0  0  0  0
   -1.5592    2.6399    3.7066 H   0  0  0  0  0  0  0  0  0  0  0  0
   -0.8671    1.0308    3.9600 H   0  0  0  0  0  0  0  0  0  0  0  0
  1  3  1  0  0  0  0
  1 61  1  0  0  0  0
  2  1  1  0  0  0  0
  4  5  1  0  0  0  0
  4  1  1  6  0  0  0
  5 33  1  0  0  0  0
  6  7  1  1  0  0  0
  6  5  1  0  0  0  0
  8 10  1  0  0  0  0
  8  9  1  1  0  0  0
  8  6  1  0  0  0  0
 10  4  1  0  0  0  0
 11  6  1  0  0  0  0
 12 13  1  0  0  0  0
 12 11  2  0  0  0  0
 14 12  1  0  0  0  0
 15 14  1  0  0  0  0
 16 14  2  0  0  0  0
 16 18  1  0  0  0  0
 17 16  1  0  0  0  0
 18 20  2  0  0  0  0
 19 18  1  0  0  0  0
 20 11  1  0  0  0  0
 20 21  1  0  0  0  0
 22  8  1  0  0  0  0
 23 22  1  0  0  0  0
 23 24  1  0  0  0  0
 25 23  2  0  0  0  0
 26 25  1  0  0  0  0
 27 29  2  0  0  0  0
 27 25  1  0  0  0  0
 28 27  1  0  0  0  0
 29 31  1  0  0  0  0
 30 29  1  0  0  0  0
 31 32  1  0  0  0  0
 31 22  2  0  0  0  0
 33 34  1  0  0  0  0
 34 43  1  0  0  0  0
 34 35  2  0  0  0  0
 35 36  1  0  0  0  0
 37 35  1  0  0  0  0
 37 38  1  0  0  0  0
 39 37  2  0  0  0  0
 40 39  1  0  0  0  0
 41 33  2  0  0  0  0
 41 39  1  0  0  0  0
 42 41  1  0  0  0  0
 43 45  1  0  0  0  0
 44 43  1  0  0  0  0
 46 43  1  0  0  0  0
 47 10  1  0  0  0  0
 48 47  1  0  0  0  0
 48 57  1  0  0  0  0
 49 48  2  0  0  0  0
 50 49  1  0  0  0  0
 51 53  2  0  0  0  0
 51 49  1  0  0  0  0
 52 51  1  0  0  0  0
 53 55  1  0  0  0  0
 54 53  1  0  0  0  0
 55 56  1  0  0  0  0
 55 47  2  0  0  0  0
 57 60  1  0  0  0  0
 58 57  1  0  0  0  0
 59 57  1  0  0  0  0
 61 62  1  0  0  0  0
 61 63  1  0  0  0  0
 63 64  1  0  0  0  0
 64 65  1  0  0  0  0
 64 66  2  0  0  0  0
 66 67  1  0  0  0  0
 68 66  1  0  0  0  0
 68 69  1  0  0  0  0
 70 68  2  0  0  0  0
 71 70  1  0  0  0  0
 72 63  2  0  0  0  0
 72 70  1  0  0  0  0
 73 72  1  0  0  0  0
 74 75  1  0  0  0  0
 74 73  1  0  0  0  0
 74 76  1  0  0  0  0
 76 79  1  0  0  0  0
 77 76  1  0  0  0  0
 78 76  1  0  0  0  0
 80 74  1  0  0  0  0
 81 80  1  0  0  0  0
 82 80  1  0  0  0  0
 83 80  1  0  0  0  0
M  END
$$$$
