CSD_code = CIGCUS | q = 0 | S = 0 | Stoichiometry = C18H21ClHf | MND = 12
 OpenBabel04212202023D

 41 42  0  0  1  0  0  0  0  0999 V2000
    2.6346    0.0399    2.9996 Hf  0  0  0  0  0  0  0  0  0  0  0  0
    1.8038    1.6006    1.4600 Cl  0  0  0  0  0  0  0  0  0  0  0  0
    0.0214   -0.2849    3.3564 C   0  0  0  0  0  0  0  0  0  0  0  0
    0.6529   -1.4703    3.7693 C   0  0  0  0  0  0  0  0  0  0  0  0
    0.4093   -2.4609    3.4141 H   0  0  0  0  0  0  0  0  0  0  0  0
    1.5275   -1.1699    4.8431 C   0  0  0  0  0  0  0  0  0  0  0  0
    2.0225   -1.8945    5.4752 H   0  0  0  0  0  0  0  0  0  0  0  0
    1.4007    0.2164    5.1161 C   0  0  0  0  0  0  0  0  0  0  0  0
    1.7642    0.7178    6.0016 H   0  0  0  0  0  0  0  0  0  0  0  0
    0.4936    0.7618    4.1787 C   0  0  0  0  0  3  0  0  0  0  0  0
    0.1132    1.7739    4.1824 H   0  0  0  0  0  0  0  0  0  0  0  0
   -1.0298   -0.1660    2.2930 C   0  0  0  0  0  0  0  0  0  0  0  0
   -0.7167    0.5208    1.5058 H   0  0  0  0  0  0  0  0  0  0  0  0
   -1.9566    0.2191    2.7187 H   0  0  0  0  0  0  0  0  0  0  0  0
   -1.2361   -1.1381    1.8494 H   0  0  0  0  0  0  0  0  0  0  0  0
    4.2962    2.0540    3.2705 C   0  0  0  0  0  0  0  0  0  0  0  0
    4.8814    0.9136    2.6729 C   0  0  0  0  0  0  0  0  0  0  0  0
    5.3696    0.9002    1.7087 H   0  0  0  0  0  0  0  0  0  0  0  0
    4.9406   -0.1206    3.6573 C   0  0  1  0  0  0  0  0  0  0  0  0
    5.5081   -1.0357    3.5763 H   0  0  0  0  0  0  0  0  0  0  0  0
    4.3842    0.3977    4.8469 C   0  0  0  0  0  0  0  0  0  0  0  0
    4.3957   -0.0931    5.8094 H   0  0  0  0  0  0  0  0  0  0  0  0
    3.9745    1.7240    4.5991 C   0  0  0  0  0  0  0  0  0  0  0  0
    3.6063    2.4214    5.3374 H   0  0  0  0  0  0  0  0  0  0  0  0
    4.1951    3.4169    2.6523 C   0  0  0  0  0  0  0  0  0  0  0  0
    5.0804    4.0044    2.9035 H   0  0  0  0  0  0  0  0  0  0  0  0
    3.3206    3.9512    3.0196 H   0  0  0  0  0  0  0  0  0  0  0  0
    4.1291    3.3491    1.5686 H   0  0  0  0  0  0  0  0  0  0  0  0
    2.5503   -1.5242    1.4108 C   0  0  1  0  0  0  0  0  0  0  0  0
    1.5111   -1.5952    1.0881 H   0  0  0  0  0  0  0  0  0  0  0  0
    3.5716   -1.0361    0.5081 C   0  0  0  0  0  0  0  0  0  0  0  0
    3.3970   -0.3228   -0.2838 H   0  0  0  0  0  0  0  0  0  0  0  0
    4.7559   -1.6848    0.7734 C   0  0  0  0  0  0  0  0  0  0  0  0
    4.5229   -2.6221    1.8126 C   0  0  0  0  0  0  0  0  0  0  0  0
    5.2681   -3.2860    2.2165 H   0  0  0  0  0  0  0  0  0  0  0  0
    3.2038   -2.5552    2.1980 C   0  0  0  0  0  0  0  0  0  0  0  0
    2.7128   -3.2423    2.8717 H   0  0  0  0  0  0  0  0  0  0  0  0
    6.0709   -1.4705    0.0958 C   0  0  0  0  0  0  0  0  0  0  0  0
    6.4147   -2.3951   -0.3674 H   0  0  0  0  0  0  0  0  0  0  0  0
    6.8330   -1.1563    0.8103 H   0  0  0  0  0  0  0  0  0  0  0  0
    5.9823   -0.7102   -0.6771 H   0  0  0  0  0  0  0  0  0  0  0  0
  1 19  1  0  0  0  0
  2  1  1  0  0  0  0
  3  4  2  0  0  0  0
  3 10  1  0  0  0  0
  4  6  1  0  0  0  0
  5  4  1  0  0  0  0
  6  8  2  0  0  0  0
  6  7  1  0  0  0  0
  8  9  1  0  0  0  0
 10 11  1  0  0  0  0
 10  8  1  0  0  0  0
 12 14  1  0  0  0  0
 12  3  1  0  0  0  0
 13 12  1  0  0  0  0
 15 12  1  0  0  0  0
 16 23  1  0  0  0  0
 17 16  2  0  0  0  0
 17 19  1  0  0  0  0
 18 17  1  0  0  0  0
 19 20  1  6  0  0  0
 19 21  1  0  0  0  0
 21 22  1  0  0  0  0
 23 21  2  0  0  0  0
 23 24  1  0  0  0  0
 25 26  1  0  0  0  0
 25 27  1  0  0  0  0
 25 16  1  0  0  0  0
 28 25  1  0  0  0  0
 29 30  1  6  0  0  0
 29 36  1  0  0  0  0
 29  1  1  0  0  0  0
 31 33  2  0  0  0  0
 31 29  1  0  0  0  0
 32 31  1  0  0  0  0
 33 34  1  0  0  0  0
 34 36  2  0  0  0  0
 34 35  1  0  0  0  0
 36 37  1  0  0  0  0
 38 33  1  0  0  0  0
 38 40  1  0  0  0  0
 39 38  1  0  0  0  0
 41 38  1  0  0  0  0
M  END
$$$$
