CSD_code = CIGFUU | q = 0 | S = 0 | Stoichiometry = C30H34Cl2Zr | MND = 12
 OpenBabel04212202023D

 67 70  0  0  1  0  0  0  0  0999 V2000
   -2.3945    1.4914    3.2364 Zr  0  0  0  0  0  0  0  0  0  0  0  0
   -0.8654   -0.2062    2.6462 Cl  0  0  0  0  0  0  0  0  0  0  0  0
   -0.6805    1.6159    5.0721 C   0  0  0  0  0  0  0  0  0  0  0  0
   -1.8693    1.1549    5.6791 C   0  0  0  0  0  0  0  0  0  0  0  0
   -2.8478    2.1884    5.5992 C   0  0  0  0  0  0  0  0  0  0  0  0
   -2.2659    3.3024    4.9347 C   0  0  0  0  0  0  0  0  0  0  0  0
   -0.9232    2.9381    4.5775 C   0  0  2  0  0  0  0  0  0  0  0  0
    0.1269    3.7467    3.9524 C   0  0  0  0  0  0  0  0  0  0  0  0
    0.4128    5.0559    4.3407 C   0  0  0  0  0  0  0  0  0  0  0  0
   -0.1533    5.5138    5.1370 H   0  0  0  0  0  0  0  0  0  0  0  0
    1.4383    5.7587    3.7338 C   0  0  0  0  0  0  0  0  0  0  0  0
    1.6465    6.7729    4.0422 H   0  0  0  0  0  0  0  0  0  0  0  0
    2.2070    5.1660    2.7459 C   0  0  0  0  0  0  0  0  0  0  0  0
    3.0083    5.7179    2.2779 H   0  0  0  0  0  0  0  0  0  0  0  0
    1.9496    3.8568    2.3688 C   0  0  0  0  0  0  0  0  0  0  0  0
    2.5537    3.3862    1.6067 H   0  0  0  0  0  0  0  0  0  0  0  0
    0.9188    3.1522    2.9620 C   0  0  0  0  0  0  0  0  0  0  0  0
    0.7075    2.1297    2.6630 H   0  0  0  0  0  0  0  0  0  0  0  0
    0.6578    0.9475    5.2203 C   0  0  0  0  0  0  0  0  0  0  0  0
    0.7768    0.6111    6.2510 H   0  0  0  0  0  0  0  0  0  0  0  0
    1.4619    1.6444    4.9913 H   0  0  0  0  0  0  0  0  0  0  0  0
    0.7603    0.0759    4.5731 H   0  0  0  0  0  0  0  0  0  0  0  0
   -2.0023   -0.1575    6.3954 C   0  0  0  0  0  0  0  0  0  0  0  0
   -1.4806   -0.1209    7.3549 H   0  0  0  0  0  0  0  0  0  0  0  0
   -1.5619   -0.9612    5.8014 H   0  0  0  0  0  0  0  0  0  0  0  0
   -3.0470   -0.3970    6.5822 H   0  0  0  0  0  0  0  0  0  0  0  0
   -4.1673    2.1617    6.3195 C   0  0  0  0  0  0  0  0  0  0  0  0
   -3.9944    2.1169    7.3969 H   0  0  0  0  0  0  0  0  0  0  0  0
   -4.7518    1.2831    6.0409 H   0  0  0  0  0  0  0  0  0  0  0  0
   -4.7488    3.0559    6.1074 H   0  0  0  0  0  0  0  0  0  0  0  0
   -2.8406    4.6938    4.9456 C   0  0  0  0  0  0  0  0  0  0  0  0
   -3.8910    4.7111    4.6584 H   0  0  0  0  0  0  0  0  0  0  0  0
   -2.2871    5.3548    4.2842 H   0  0  0  0  0  0  0  0  0  0  0  0
   -2.7713    5.1022    5.9574 H   0  0  0  0  0  0  0  0  0  0  0  0
   -3.9239   -0.2063    3.8264 Cl  0  0  0  0  0  0  0  0  0  0  0  0
   -4.1085    1.6159    1.4006 C   0  0  0  0  0  0  0  0  0  0  0  0
   -2.9196    1.1549    0.7936 C   0  0  0  0  0  0  0  0  0  0  0  0
   -1.9412    2.1884    0.8735 C   0  0  0  0  0  0  0  0  0  0  0  0
   -2.5231    3.3024    1.5381 C   0  0  0  0  0  0  0  0  0  0  0  0
   -3.8657    2.9381    1.8952 C   0  0  2  0  0  0  0  0  0  0  0  0
   -4.9159    3.7467    2.5203 C   0  0  0  0  0  0  0  0  0  0  0  0
   -5.2018    5.0559    2.1321 C   0  0  0  0  0  0  0  0  0  0  0  0
   -4.6357    5.5138    1.3357 H   0  0  0  0  0  0  0  0  0  0  0  0
   -6.2273    5.7587    2.7390 C   0  0  0  0  0  0  0  0  0  0  0  0
   -6.4355    6.7728    2.4306 H   0  0  0  0  0  0  0  0  0  0  0  0
   -6.9960    5.1660    3.7269 C   0  0  0  0  0  0  0  0  0  0  0  0
   -7.7973    5.7179    4.1948 H   0  0  0  0  0  0  0  0  0  0  0  0
   -6.7385    3.8568    4.1039 C   0  0  0  0  0  0  0  0  0  0  0  0
   -7.3426    3.3861    4.8661 H   0  0  0  0  0  0  0  0  0  0  0  0
   -5.7078    3.1521    3.5107 C   0  0  0  0  0  0  0  0  0  0  0  0
   -5.4964    2.1297    3.8096 H   0  0  0  0  0  0  0  0  0  0  0  0
   -5.4468    0.9475    1.2524 C   0  0  0  0  0  0  0  0  0  0  0  0
   -5.5658    0.6111    0.2217 H   0  0  0  0  0  0  0  0  0  0  0  0
   -6.2509    1.6444    1.4815 H   0  0  0  0  0  0  0  0  0  0  0  0
   -5.5493    0.0760    1.8996 H   0  0  0  0  0  0  0  0  0  0  0  0
   -2.7866   -0.1575    0.0773 C   0  0  0  0  0  0  0  0  0  0  0  0
   -3.3081   -0.1208   -0.8823 H   0  0  0  0  0  0  0  0  0  0  0  0
   -3.2273   -0.9612    0.6711 H   0  0  0  0  0  0  0  0  0  0  0  0
   -1.7420   -0.3971   -0.1093 H   0  0  0  0  0  0  0  0  0  0  0  0
   -0.6217    2.1617    0.1532 C   0  0  0  0  0  0  0  0  0  0  0  0
   -0.7946    2.1168   -0.9242 H   0  0  0  0  0  0  0  0  0  0  0  0
   -0.0371    1.2831    0.4318 H   0  0  0  0  0  0  0  0  0  0  0  0
   -0.0403    3.0559    0.3652 H   0  0  0  0  0  0  0  0  0  0  0  0
   -1.9484    4.6937    1.5272 C   0  0  0  0  0  0  0  0  0  0  0  0
   -0.8979    4.7111    1.8142 H   0  0  0  0  0  0  0  0  0  0  0  0
   -2.5018    5.3547    2.1887 H   0  0  0  0  0  0  0  0  0  0  0  0
   -2.0178    5.1023    0.5154 H   0  0  0  0  0  0  0  0  0  0  0  0
  1 35  1  0  0  0  0
  2  1  1  0  0  0  0
  3 19  1  0  0  0  0
  3  4  2  0  0  0  0
  4 23  1  0  0  0  0
  5  4  1  0  0  0  0
  5 27  1  0  0  0  0
  6 31  1  0  0  0  0
  6  5  2  0  0  0  0
  7  1  1  6  0  0  0
  7  6  1  0  0  0  0
  7  3  1  0  0  0  0
  8  9  1  0  0  0  0
  8  7  1  0  0  0  0
  9 10  1  0  0  0  0
 11 12  1  0  0  0  0
 11  9  2  0  0  0  0
 13 11  1  0  0  0  0
 14 13  1  0  0  0  0
 15 13  2  0  0  0  0
 15 17  1  0  0  0  0
 16 15  1  0  0  0  0
 17  8  2  0  0  0  0
 18 17  1  0  0  0  0
 19 20  1  0  0  0  0
 21 19  1  0  0  0  0
 22 19  1  0  0  0  0
 23 26  1  0  0  0  0
 23 24  1  0  0  0  0
 25 23  1  0  0  0  0
 27 28  1  0  0  0  0
 29 27  1  0  0  0  0
 30 27  1  0  0  0  0
 31 34  1  0  0  0  0
 32 31  1  0  0  0  0
 33 31  1  0  0  0  0
 36 40  1  0  0  0  0
 37 38  1  0  0  0  0
 37 36  2  0  0  0  0
 38 39  2  0  0  0  0
 39 40  1  0  0  0  0
 40 41  1  0  0  0  0
 40  1  1  1  0  0  0
 41 50  1  0  0  0  0
 42 41  2  0  0  0  0
 42 44  1  0  0  0  0
 43 42  1  0  0  0  0
 44 46  2  0  0  0  0
 45 44  1  0  0  0  0
 46 48  1  0  0  0  0
 46 47  1  0  0  0  0
 48 49  1  0  0  0  0
 50 51  1  0  0  0  0
 50 48  2  0  0  0  0
 52 36  1  0  0  0  0
 52 54  1  0  0  0  0
 52 55  1  0  0  0  0
 53 52  1  0  0  0  0
 56 58  1  0  0  0  0
 56 37  1  0  0  0  0
 57 56  1  0  0  0  0
 59 56  1  0  0  0  0
 60 63  1  0  0  0  0
 60 62  1  0  0  0  0
 60 38  1  0  0  0  0
 61 60  1  0  0  0  0
 64 39  1  0  0  0  0
 64 65  1  0  0  0  0
 64 66  1  0  0  0  0
 67 64  1  0  0  0  0
M  END
$$$$
