CSD_code = CIGLAI | q = 0 | S = 0 | Stoichiometry = C30H41ClNO2Rh | MND = 4
 OpenBabel04212202023D

 76 80  0  0  1  0  0  0  0  0999 V2000
    4.0455    9.8308    5.8153 Rh  0  0  0  0  0  0  0  0  0  0  0  0
    3.1080   11.9098    5.4821 Cl  0  0  0  0  0  0  0  0  0  0  0  0
    5.7973    7.4146    5.7019 O   0  0  0  0  0  1  0  0  0  0  0  0
    5.8440   11.2651    7.7385 O   0  0  0  0  0  1  0  0  0  0  0  0
    2.8829    9.4277    3.2357 N   0  0  0  0  0  0  0  0  0  0  0  0
    4.2375    9.0270    2.8797 C   0  0  0  0  0  0  0  0  0  0  0  0
    2.5448    9.3742    4.5079 C   0  0  0  0  0  0  0  0  0  0  0  0
    5.2973    9.9384    2.7270 C   0  0  0  0  0  0  0  0  0  0  0  0
    6.5643    9.4475    2.4255 C   0  0  0  0  0  0  0  0  0  0  0  0
    7.3805   10.1427    2.3129 H   0  0  0  0  0  0  0  0  0  0  0  0
    5.1619   11.4414    2.8210 C   0  0  0  0  0  0  0  0  0  0  0  0
    4.1639   11.6934    3.1734 H   0  0  0  0  0  0  0  0  0  0  0  0
    1.5990    7.2974    6.4770 C   0  0  0  0  0  0  0  0  0  0  0  0
    1.4192    6.2314    6.6376 H   0  0  0  0  0  0  0  0  0  0  0  0
    2.6727    7.4380    6.3254 H   0  0  0  0  0  0  0  0  0  0  0  0
    5.0414    8.2784    5.7565 C   0  0  0  0  0  2  0  0  0  0  0  0
    4.4670    7.6541    2.6597 C   0  0  0  0  0  0  0  0  0  0  0  0
    1.9873    9.8362    2.1222 C   0  0  0  0  0  0  0  0  0  0  0  0
    5.7533    7.2164    2.3737 C   0  0  0  0  0  0  0  0  0  0  0  0
    5.9322    6.1630    2.2292 H   0  0  0  0  0  0  0  0  0  0  0  0
    1.0590    9.2595    4.9099 C   0  0  2  0  0  0  0  0  0  0  0  0
    0.6029    9.2644    2.4112 C   0  0  0  0  0  0  0  0  0  0  0  0
   -0.0942    9.5961    1.6389 H   0  0  0  0  0  0  0  0  0  0  0  0
    0.6256    8.1727    2.3786 H   0  0  0  0  0  0  0  0  0  0  0  0
    6.1547   12.0334    3.8258 C   0  0  0  0  0  0  0  0  0  0  0  0
    6.1055   11.4816    4.7665 H   0  0  0  0  0  0  0  0  0  0  0  0
    5.8961   13.0710    4.0223 H   0  0  0  0  0  0  0  0  0  0  0  0
    7.1774   11.9977    3.4585 H   0  0  0  0  0  0  0  0  0  0  0  0
    1.9023   11.3722    2.0755 C   0  0  0  0  0  0  0  0  0  0  0  0
    1.9548   11.8033    3.0728 H   0  0  0  0  0  0  0  0  0  0  0  0
    0.9620   11.6717    1.6174 H   0  0  0  0  0  0  0  0  0  0  0  0
    2.7076   11.7863    1.4789 H   0  0  0  0  0  0  0  0  0  0  0  0
    6.8051    8.1005    2.2683 C   0  0  0  0  0  0  0  0  0  0  0  0
    7.8004    7.7433    2.0514 H   0  0  0  0  0  0  0  0  0  0  0  0
    5.2192   10.6568    6.9999 C   0  0  0  0  0  2  0  0  0  0  0  0
    3.3527    5.7827    1.3961 C   0  0  0  0  0  0  0  0  0  0  0  0
    3.4187    6.4219    0.5188 H   0  0  0  0  0  0  0  0  0  0  0  0
    2.4282    5.2113    1.3403 H   0  0  0  0  0  0  0  0  0  0  0  0
    4.1806    5.0801    1.3584 H   0  0  0  0  0  0  0  0  0  0  0  0
    2.4787    9.3351    0.7665 C   0  0  0  0  0  0  0  0  0  0  0  0
    3.5084    9.6265    0.5784 H   0  0  0  0  0  0  0  0  0  0  0  0
    1.8516    9.7719   -0.0082 H   0  0  0  0  0  0  0  0  0  0  0  0
    2.4030    8.2556    0.6908 H   0  0  0  0  0  0  0  0  0  0  0  0
    3.3838    6.5971    2.6970 C   0  0  0  0  0  0  0  0  0  0  0  0
    2.4162    7.0870    2.8152 H   0  0  0  0  0  0  0  0  0  0  0  0
    0.1387    9.7416    3.7741 C   0  0  0  0  0  0  0  0  0  0  0  0
   -0.8825    9.4052    3.9261 H   0  0  0  0  0  0  0  0  0  0  0  0
    0.1211   10.8318    3.7917 H   0  0  0  0  0  0  0  0  0  0  0  0
    1.4404    9.5691    7.4303 C   0  0  0  0  0  0  0  0  0  0  0  0
    2.5333    9.7202    7.2550 H   0  0  0  0  0  0  0  0  0  0  0  0
    1.1480   10.1781    8.2883 H   0  0  0  0  0  0  0  0  0  0  0  0
    3.5812    5.6409    3.8753 C   0  0  0  0  0  0  0  0  0  0  0  0
    4.5366    5.1286    3.7996 H   0  0  0  0  0  0  0  0  0  0  0  0
    2.7903    4.8935    3.8846 H   0  0  0  0  0  0  0  0  0  0  0  0
    3.5590    6.1785    4.8170 H   0  0  0  0  0  0  0  0  0  0  0  0
   -0.6718    7.4931    5.5644 C   0  0  0  0  0  0  0  0  0  0  0  0
   -1.3142    7.6903    4.7061 H   0  0  0  0  0  0  0  0  0  0  0  0
   -0.7857    6.4317    5.8015 H   0  0  0  0  0  0  0  0  0  0  0  0
   -0.3089    7.8747    7.9908 C   0  0  0  0  0  0  0  0  0  0  0  0
   -0.4993    6.8188    8.1980 H   0  0  0  0  0  0  0  0  0  0  0  0
   -0.6106    8.4476    8.8702 H   0  0  0  0  0  0  0  0  0  0  0  0
    1.1759    8.0942    7.7074 C   0  0  1  0  0  0  0  0  0  0  0  0
    1.7660    7.7681    8.5713 H   0  0  0  0  0  0  0  0  0  0  0  0
    5.3889   12.0784    1.4454 C   0  0  0  0  0  0  0  0  0  0  0  0
    6.4211   11.9496    1.1271 H   0  0  0  0  0  0  0  0  0  0  0  0
    5.1777   13.1442    1.4933 H   0  0  0  0  0  0  0  0  0  0  0  0
    4.7512   11.6327    0.6844 H   0  0  0  0  0  0  0  0  0  0  0  0
    0.6522   10.0241    6.2013 C   0  0  2  0  0  0  0  0  0  0  0  0
    0.8266   11.0914    6.0410 H   0  0  0  0  0  0  0  0  0  0  0  0
   -1.1060    8.3260    6.7693 C   0  0  1  0  0  0  0  0  0  0  0  0
   -2.1764    8.1750    6.9506 H   0  0  0  0  0  0  0  0  0  0  0  0
   -0.8318    9.8087    6.5213 C   0  0  0  0  0  0  0  0  0  0  0  0
   -1.0715   10.3723    7.4263 H   0  0  0  0  0  0  0  0  0  0  0  0
   -1.4760   10.1942    5.7319 H   0  0  0  0  0  0  0  0  0  0  0  0
    0.8060    7.7539    5.2480 C   0  0  2  0  0  0  0  0  0  0  0  0
    1.0917    7.1322    4.3947 H   0  0  0  0  0  0  0  0  0  0  0  0
  1 35  1  0  0  0  0
  2  1  1  0  0  0  0
  3 16  1  0  0  0  0
  5  7  1  0  0  0  0
  6  5  1  0  0  0  0
  7  1  2  0  0  0  0
  8 11  1  0  0  0  0
  8  6  1  0  0  0  0
  9  8  2  0  0  0  0
 10  9  1  0  0  0  0
 11 12  1  0  0  0  0
 11 25  1  0  0  0  0
 13 14  1  0  0  0  0
 13 62  1  0  0  0  0
 15 13  1  0  0  0  0
 16  1  1  0  0  0  0
 17 44  1  0  0  0  0
 17  6  2  0  0  0  0
 18 22  1  0  0  0  0
 18  5  1  0  0  0  0
 19 17  1  0  0  0  0
 20 19  1  0  0  0  0
 21  7  1  6  0  0  0
 21 75  1  0  0  0  0
 21 68  1  0  0  0  0
 22 46  1  0  0  0  0
 23 22  1  0  0  0  0
 24 22  1  0  0  0  0
 25 27  1  0  0  0  0
 25 26  1  0  0  0  0
 28 25  1  0  0  0  0
 29 18  1  0  0  0  0
 29 30  1  0  0  0  0
 31 29  1  0  0  0  0
 32 29  1  0  0  0  0
 33 19  2  0  0  0  0
 33  9  1  0  0  0  0
 34 33  1  0  0  0  0
 35  4  1  0  0  0  0
 36 44  1  0  0  0  0
 37 36  1  0  0  0  0
 38 36  1  0  0  0  0
 39 36  1  0  0  0  0
 40 18  1  0  0  0  0
 41 40  1  0  0  0  0
 42 40  1  0  0  0  0
 43 40  1  0  0  0  0
 44 45  1  0  0  0  0
 44 52  1  0  0  0  0
 46 48  1  0  0  0  0
 46 47  1  0  0  0  0
 46 21  1  0  0  0  0
 49 62  1  0  0  0  0
 49 51  1  0  0  0  0
 50 49  1  0  0  0  0
 52 54  1  0  0  0  0
 52 55  1  0  0  0  0
 53 52  1  0  0  0  0
 56 58  1  0  0  0  0
 56 70  1  0  0  0  0
 57 56  1  0  0  0  0
 59 60  1  0  0  0  0
 59 61  1  0  0  0  0
 62 59  1  0  0  0  0
 62 63  1  1  0  0  0
 64 66  1  0  0  0  0
 64 11  1  0  0  0  0
 65 64  1  0  0  0  0
 67 64  1  0  0  0  0
 68 69  1  6  0  0  0
 68 72  1  0  0  0  0
 68 49  1  0  0  0  0
 70 71  1  1  0  0  0
 70 59  1  0  0  0  0
 72 70  1  0  0  0  0
 72 73  1  0  0  0  0
 74 72  1  0  0  0  0
 75 76  1  6  0  0  0
 75 56  1  0  0  0  0
 75 13  1  0  0  0  0
M  END
$$$$
