CSD_code = CIGLOW | q = 0 | S = 0 | Stoichiometry = C28H41AuClN | MND = 2
 OpenBabel04212202023D

 72 76  0  0  1  0  0  0  0  0999 V2000
    6.0695   10.1974   11.8091 Au  0  0  0  0  0  0  0  0  0  0  0  0
    3.9420   10.8553   12.2432 Cl  0  0  0  0  0  0  0  0  0  0  0  0
    8.8998   10.4874   11.9652 N   0  0  0  0  0  0  0  0  0  0  0  0
    7.5829    6.7962   12.2756 C   0  0  0  0  0  0  0  0  0  0  0  0
    7.1104    7.5978   12.8466 H   0  0  0  0  0  0  0  0  0  0  0  0
    7.8674    6.0054   12.9749 H   0  0  0  0  0  0  0  0  0  0  0  0
    8.1764   10.0440   14.8132 C   0  0  0  0  0  0  0  0  0  0  0  0
    8.5170    9.2872   14.1022 H   0  0  0  0  0  0  0  0  0  0  0  0
    7.8092   12.5012   14.9030 C   0  0  0  0  0  0  0  0  0  0  0  0
    7.6496   12.3785   15.9622 H   0  0  0  0  0  0  0  0  0  0  0  0
    8.0175    9.6731   11.4560 C   0  0  2  0  0  3  0  0  0  0  0  0
    7.7362   13.8849   12.9651 C   0  0  0  0  0  0  0  0  0  0  0  0
    7.5210   14.8402   12.5142 H   0  0  0  0  0  0  0  0  0  0  0  0
    8.1029   12.8185   12.1551 C   0  0  0  0  0  0  0  0  0  0  0  0
    6.2027    7.3716   10.2974 C   0  0  0  0  0  0  0  0  0  0  0  0
    5.5350    6.9910    9.5220 H   0  0  0  0  0  0  0  0  0  0  0  0
    5.6549    8.1428   10.8420 H   0  0  0  0  0  0  0  0  0  0  0  0
    9.0633    9.9872   16.0612 C   0  0  0  0  0  0  0  0  0  0  0  0
   10.0804   10.3113   15.8586 H   0  0  0  0  0  0  0  0  0  0  0  0
    9.0983    8.9660   16.4345 H   0  0  0  0  0  0  0  0  0  0  0  0
    8.6601   10.6159   16.8502 H   0  0  0  0  0  0  0  0  0  0  0  0
    8.0674   13.0262   10.6556 C   0  0  0  0  0  0  0  0  0  0  0  0
    8.4416   12.1269   10.1583 H   0  0  0  0  0  0  0  0  0  0  0  0
    7.2383    5.1133   10.4582 C   0  0  0  0  0  0  0  0  0  0  0  0
    7.5264    4.2999   11.1282 H   0  0  0  0  0  0  0  0  0  0  0  0
    6.5249    4.7138    9.7347 H   0  0  0  0  0  0  0  0  0  0  0  0
    8.3889   11.5834   12.7627 C   0  0  0  0  0  0  0  0  0  0  0  0
    8.8420    7.3134   11.5753 C   0  0  1  0  0  0  0  0  0  0  0  0
    9.5457    7.6430   12.3463 H   0  0  0  0  0  0  0  0  0  0  0  0
    6.6169   13.2333   10.2049 C   0  0  0  0  0  0  0  0  0  0  0  0
    5.9911   12.3970   10.5125 H   0  0  0  0  0  0  0  0  0  0  0  0
    6.5742   13.3184    9.1213 H   0  0  0  0  0  0  0  0  0  0  0  0
    6.2022   14.1383   10.6402 H   0  0  0  0  0  0  0  0  0  0  0  0
    9.4642    6.1633   10.7812 C   0  0  0  0  0  0  0  0  0  0  0  0
   10.3947    6.4717   10.3027 H   0  0  0  0  0  0  0  0  0  0  0  0
    9.7087    5.3510   11.4707 H   0  0  0  0  0  0  0  0  0  0  0  0
    8.1724   11.3996   14.1385 C   0  0  0  0  0  0  0  0  0  0  0  0
    8.4691    5.6593    9.7372 C   0  0  2  0  0  0  0  0  0  0  0  0
    8.9344    4.8615    9.1469 H   0  0  0  0  0  0  0  0  0  0  0  0
    8.0499    6.7992    8.8071 C   0  0  0  0  0  0  0  0  0  0  0  0
    7.2861    6.4354    8.1162 H   0  0  0  0  0  0  0  0  0  0  0  0
    8.8932    7.1218    8.1965 H   0  0  0  0  0  0  0  0  0  0  0  0
   11.0088   10.1267   13.2176 C   0  0  0  0  0  0  0  0  0  0  0  0
   10.7907   10.9201   13.9265 H   0  0  0  0  0  0  0  0  0  0  0  0
   12.0885   10.0576   13.1030 H   0  0  0  0  0  0  0  0  0  0  0  0
   10.6512    9.1817   13.6167 H   0  0  0  0  0  0  0  0  0  0  0  0
    7.6280   13.7439   14.3332 C   0  0  0  0  0  0  0  0  0  0  0  0
    7.3579   14.5894   14.9472 H   0  0  0  0  0  0  0  0  0  0  0  0
    8.5019    8.4968   10.6331 C   0  0  2  0  0  0  0  0  0  0  0  0
    9.7297    9.0222    9.8647 C   0  0  0  0  0  0  0  0  0  0  0  0
   10.1176    8.2928    9.1596 H   0  0  0  0  0  0  0  0  0  0  0  0
    9.4163    9.8972    9.2868 H   0  0  0  0  0  0  0  0  0  0  0  0
    8.8947   14.2342   10.1994 C   0  0  0  0  0  0  0  0  0  0  0  0
    8.4095   15.1621   10.4898 H   0  0  0  0  0  0  0  0  0  0  0  0
    8.9785   14.2304    9.1147 H   0  0  0  0  0  0  0  0  0  0  0  0
    9.8956   14.2324   10.6221 H   0  0  0  0  0  0  0  0  0  0  0  0
   10.9318   11.8098   11.4237 C   0  0  0  0  0  0  0  0  0  0  0  0
   10.6360   12.0437   10.4060 H   0  0  0  0  0  0  0  0  0  0  0  0
   12.0187   11.7767   11.4602 H   0  0  0  0  0  0  0  0  0  0  0  0
   10.5980   12.5997   12.0899 H   0  0  0  0  0  0  0  0  0  0  0  0
   10.8400    9.3984   10.8268 C   0  0  0  0  0  0  0  0  0  0  0  0
   11.6860    9.7992   10.2655 H   0  0  0  0  0  0  0  0  0  0  0  0
   11.1946    8.5009   11.3341 H   0  0  0  0  0  0  0  0  0  0  0  0
    6.5939    6.2494   11.2501 C   0  0  1  0  0  0  0  0  0  0  0  0
    5.7023    5.8803   11.7670 H   0  0  0  0  0  0  0  0  0  0  0  0
   10.3866   10.4448   11.8561 C   0  0  0  0  0  0  0  0  0  0  0  0
    7.4518    7.9508    9.6289 C   0  0  2  0  0  0  0  0  0  0  0  0
    7.1549    8.7655    8.9583 H   0  0  0  0  0  0  0  0  0  0  0  0
    6.7405    9.6853   15.2157 C   0  0  0  0  0  0  0  0  0  0  0  0
    6.7064    8.6701   15.6053 H   0  0  0  0  0  0  0  0  0  0  0  0
    6.0695    9.7526   14.3603 H   0  0  0  0  0  0  0  0  0  0  0  0
    6.3727   10.3622   15.9819 H   0  0  0  0  0  0  0  0  0  0  0  0
  1  2  1  0  0  0  0
  3 27  1  0  0  0  0
  4  5  1  0  0  0  0
  4  6  1  0  0  0  0
  7 69  1  0  0  0  0
  7 18  1  0  0  0  0
  8  7  1  0  0  0  0
  9 10  1  0  0  0  0
 11  1  1  6  0  0  0
 11  3  1  0  0  0  0
 12 47  2  0  0  0  0
 13 12  1  0  0  0  0
 14 27  2  0  0  0  0
 14 12  1  0  0  0  0
 15 17  1  0  0  0  0
 15 64  1  0  0  0  0
 16 15  1  0  0  0  0
 18 20  1  0  0  0  0
 18 21  1  0  0  0  0
 19 18  1  0  0  0  0
 22 14  1  0  0  0  0
 23 22  1  0  0  0  0
 24 25  1  0  0  0  0
 24 64  1  0  0  0  0
 26 24  1  0  0  0  0
 27 37  1  0  0  0  0
 28  4  1  0  0  0  0
 28 29  1  1  0  0  0
 30 31  1  0  0  0  0
 30 33  1  0  0  0  0
 30 22  1  0  0  0  0
 32 30  1  0  0  0  0
 34 36  1  0  0  0  0
 34 28  1  0  0  0  0
 35 34  1  0  0  0  0
 37  7  1  0  0  0  0
 37  9  2  0  0  0  0
 38 39  1  6  0  0  0
 38 24  1  0  0  0  0
 38 34  1  0  0  0  0
 40 67  1  0  0  0  0
 40 38  1  0  0  0  0
 41 40  1  0  0  0  0
 42 40  1  0  0  0  0
 43 46  1  0  0  0  0
 43 44  1  0  0  0  0
 45 43  1  0  0  0  0
 47  9  1  0  0  0  0
 47 48  1  0  0  0  0
 49 50  1  6  0  0  0
 49 11  1  0  0  0  0
 49 28  1  0  0  0  0
 50 61  1  0  0  0  0
 51 50  1  0  0  0  0
 52 50  1  0  0  0  0
 53 54  1  0  0  0  0
 53 56  1  0  0  0  0
 53 22  1  0  0  0  0
 55 53  1  0  0  0  0
 57 59  1  0  0  0  0
 57 66  1  0  0  0  0
 57 60  1  0  0  0  0
 58 57  1  0  0  0  0
 61 63  1  0  0  0  0
 61 66  1  0  0  0  0
 62 61  1  0  0  0  0
 64 65  1  1  0  0  0
 64  4  1  0  0  0  0
 66  3  1  0  0  0  0
 66 43  1  0  0  0  0
 67 68  1  6  0  0  0
 67 15  1  0  0  0  0
 67 49  1  0  0  0  0
 69 70  1  0  0  0  0
 69 72  1  0  0  0  0
 71 69  1  0  0  0  0
M  END
$$$$
