CSD_code = CIGNAK | q = 1 | S = 0 | Stoichiometry = C26H32ClN4Ru(1+) | MND = 9
 OpenBabel04212202023D

 64 68  0  0  1  0  0  0  0  0999 V2000
    2.8626   10.5313    3.3309 Ru  0  0  1  0  0  0  0  0  0  0  0  0
    1.9164    8.9751    4.7881 Cl  0  0  0  0  0 15  0  0  0  0  0  0
    4.3783   10.5304    4.6673 N   0  0  0  0  0  0  0  0  0  0  0  0
    2.2920   11.9132    4.6619 N   0  0  0  0  0  0  0  0  0  0  0  0
    3.4675    9.2014    1.4981 C   0  0  0  0  0  3  0  0  0  0  0  0
    4.0201    8.2719    1.4130 H   0  0  0  0  0  0  0  0  0  0  0  0
    6.1185   10.1928    5.9945 C   0  0  2  0  0  3  0  0  0  0  0  0
    3.4716   11.6632    1.3915 C   0  0  2  0  0  3  0  0  0  0  0  0
    4.1611   10.4316    1.4541 C   0  0  1  0  0  0  0  0  0  0  0  0
    5.2409   10.4216    1.3491 H   0  0  0  0  0  0  0  0  0  0  0  0
    1.3642   10.3953    1.4952 C   0  0  0  0  0  0  0  0  0  0  0  0
    0.2832   10.3959    1.4574 H   0  0  0  0  0  0  0  0  0  0  0  0
    5.4336    9.7576    4.9035 N   0  0  0  0  0  0  0  0  0  0  0  0
    1.0408   12.4205    4.6536 C   0  0  1  0  0  3  0  0  0  0  0  0
    1.5330   13.7432    6.6349 C   0  0  0  0  0  0  0  0  0  0  0  0
    1.2313   14.4570    7.3856 H   0  0  0  0  0  0  0  0  0  0  0  0
    0.2388   11.9696    3.6814 N   0  0  0  0  0  0  0  0  0  0  0  0
    4.3292   11.4592    5.6366 C   0  0  0  0  0  0  0  0  0  0  0  0
    3.1256   12.2466    5.6541 C   0  0  0  0  0  0  0  0  0  0  0  0
    5.4302   11.2894    6.4833 C   0  0  0  0  0  0  0  0  0  0  0  0
    5.6709   11.8823    7.3387 H   0  0  0  0  0  0  0  0  0  0  0  0
    2.0571    9.1655    1.5093 C   0  0  0  0  0  0  0  0  0  0  0  0
    2.0599   11.6142    1.4381 C   0  0  1  0  0  0  0  0  0  0  0  0
    1.4970   12.5360    1.3412 H   0  0  0  0  0  0  0  0  0  0  0  0
    0.6109   13.3483    5.6413 C   0  0  0  0  0  0  0  0  0  0  0  0
    2.7811   13.1859    6.6442 C   0  0  0  0  0  0  0  0  0  0  0  0
    3.5049   13.4315    7.4036 H   0  0  0  0  0  0  0  0  0  0  0  0
    4.2054   12.9714    1.2119 C   0  0  0  0  0  0  0  0  0  0  0  0
    3.4644   13.7784    1.2067 H   0  0  0  0  0  0  0  0  0  0  0  0
    5.5961    8.5708    4.1117 C   0  0  0  0  0  0  0  0  0  0  0  0
    4.5960    8.2289    3.8287 H   0  0  0  0  0  0  0  0  0  0  0  0
    6.0709    7.7883    4.6952 H   0  0  0  0  0  0  0  0  0  0  0  0
    6.1907    8.7675    3.2174 H   0  0  0  0  0  0  0  0  0  0  0  0
    5.1698   13.2194    2.3749 C   0  0  0  0  0  0  0  0  0  0  0  0
    4.6357   13.1736    3.3255 H   0  0  0  0  0  0  0  0  0  0  0  0
    5.6203   14.2038    2.2810 H   0  0  0  0  0  0  0  0  0  0  0  0
    5.9694   12.4820    2.3863 H   0  0  0  0  0  0  0  0  0  0  0  0
   -0.7247   13.7896    5.5664 C   0  0  0  0  0  0  0  0  0  0  0  0
   -1.0891   14.4957    6.2976 H   0  0  0  0  0  0  0  0  0  0  0  0
   -1.0015   12.3863    3.6535 C   0  0  0  0  0  0  0  0  0  0  0  0
   -1.6191   11.9848    2.8612 H   0  0  0  0  0  0  0  0  0  0  0  0
    1.3186    7.8690    1.5275 C   0  0  0  0  0  0  0  0  0  0  0  0
    1.9134    7.0696    1.0917 H   0  0  0  0  0  0  0  0  0  0  0  0
    0.3745    7.9520    0.9942 H   0  0  0  0  0  0  0  0  0  0  0  0
    1.0948    7.5988    2.5628 H   0  0  0  0  0  0  0  0  0  0  0  0
   -1.5358   13.3016    4.5743 C   0  0  0  0  0  0  0  0  0  0  0  0
   -2.5662   13.6067    4.4928 H   0  0  0  0  0  0  0  0  0  0  0  0
    8.4273    9.3955    5.4308 C   0  0  0  0  0  0  0  0  0  0  0  0
    8.5642   10.3180    4.8708 H   0  0  0  0  0  0  0  0  0  0  0  0
    8.1551    8.6034    4.7417 H   0  0  0  0  0  0  0  0  0  0  0  0
    9.3817    9.1289    5.8767 H   0  0  0  0  0  0  0  0  0  0  0  0
    7.3887    9.5943    6.5431 C   0  0  0  0  0  0  0  0  0  0  0  0
    7.0838    8.2677    7.2542 C   0  0  0  0  0  0  0  0  0  0  0  0
    7.9845    7.9068    7.7432 H   0  0  0  0  0  0  0  0  0  0  0  0
    6.7435    7.4939    6.5723 H   0  0  0  0  0  0  0  0  0  0  0  0
    6.3177    8.4139    8.0116 H   0  0  0  0  0  0  0  0  0  0  0  0
    4.9434   12.9885   -0.1300 C   0  0  0  0  0  0  0  0  0  0  0  0
    5.4019   13.9612   -0.2853 H   0  0  0  0  0  0  0  0  0  0  0  0
    4.2531   12.7999   -0.9487 H   0  0  0  0  0  0  0  0  0  0  0  0
    5.7265   12.2349   -0.1580 H   0  0  0  0  0  0  0  0  0  0  0  0
    7.9811   10.5605    7.5776 C   0  0  0  0  0  0  0  0  0  0  0  0
    8.1693   11.5360    7.1365 H   0  0  0  0  0  0  0  0  0  0  0  0
    8.9249   10.1657    7.9431 H   0  0  0  0  0  0  0  0  0  0  0  0
    7.3170   10.6762    8.4292 H   0  0  0  0  0  0  0  0  0  0  0  0
  1  4  1  6  0  0  0
  1  3  1  0  0  0  0
  3 13  1  0  0  0  0
  3 18  1  0  0  0  0
  4 19  1  0  0  0  0
  5 22  1  0  0  0  0
  6  5  1  0  0  0  0
  7 20  1  0  0  0  0
  7 52  1  6  0  0  0
  8 28  1  6  0  0  0
  8 23  1  0  0  0  0
  8  9  1  0  0  0  0
  9 10  1  1  0  0  0
  9  5  1  0  0  0  0
  9  1  1  0  0  0  0
 11 22  2  0  0  0  0
 12 11  1  0  0  0  0
 13  7  1  0  0  0  0
 14 17  1  1  0  0  0
 14  4  1  0  0  0  0
 14 25  1  0  0  0  0
 15 26  1  0  0  0  0
 15 16  1  0  0  0  0
 18 19  1  0  0  0  0
 18 20  2  0  0  0  0
 19 26  2  0  0  0  0
 20 21  1  0  0  0  0
 22 42  1  0  0  0  0
 23 24  1  1  0  0  0
 23 11  1  0  0  0  0
 23  1  1  0  0  0  0
 25 15  2  0  0  0  0
 26 27  1  0  0  0  0
 28 34  1  0  0  0  0
 29 28  1  0  0  0  0
 30 32  1  0  0  0  0
 30 13  1  0  0  0  0
 31 30  1  0  0  0  0
 33 30  1  0  0  0  0
 34 37  1  0  0  0  0
 34 35  1  0  0  0  0
 36 34  1  0  0  0  0
 38 25  1  0  0  0  0
 38 39  1  0  0  0  0
 40 17  2  0  0  0  0
 40 46  1  0  0  0  0
 41 40  1  0  0  0  0
 42 45  1  0  0  0  0
 43 42  1  0  0  0  0
 44 42  1  0  0  0  0
 46 38  2  0  0  0  0
 47 46  1  0  0  0  0
 48 51  1  0  0  0  0
 48 52  1  0  0  0  0
 49 48  1  0  0  0  0
 50 48  1  0  0  0  0
 52 53  1  0  0  0  0
 52 61  1  0  0  0  0
 53 54  1  0  0  0  0
 53 56  1  0  0  0  0
 55 53  1  0  0  0  0
 57 28  1  0  0  0  0
 58 57  1  0  0  0  0
 59 57  1  0  0  0  0
 60 57  1  0  0  0  0
 61 63  1  0  0  0  0
 61 64  1  0  0  0  0
 62 61  1  0  0  0  0
M  END
$$$$
