CSD_code = CIGTAN | q = 0 | S = 0 | Stoichiometry = C18H22Cl2N6NiS2 | MND = 4
 OpenBabel04212202023D

 51 52  0  0  0  0  0  0  0  0999 V2000
   -1.2408    0.4411    4.5381 Ni  0  0  0  0  0  0  0  0  0  0  0  0
   -2.2567    0.8273    6.2698 Cl  0  0  0  0  0  0  0  0  0  0  0  0
   -2.9169   -1.0488    3.4633 S   0  0  0  0  0  0  0  0  0  0  0  0
   -3.7251   -3.4359    4.1955 N   0  0  0  0  0  4  0  0  0  0  0  0
   -2.8431   -2.1478    5.8710 N   0  0  0  0  0  0  0  0  0  0  0  0
   -3.0930   -3.1672    6.7292 N   0  0  0  0  0  0  0  0  0  0  0  0
   -3.1807   -2.2774    4.5865 C   0  0  0  0  0  0  0  0  0  0  0  0
   -2.7260   -3.0768    7.9539 C   0  0  0  0  0  0  0  0  0  0  0  0
   -3.0703   -4.2212    8.8050 C   0  0  0  0  0  0  0  0  0  0  0  0
   -2.2473   -4.6237    9.8556 C   0  0  0  0  0  0  0  0  0  0  0  0
   -2.5996   -5.7009   10.6477 C   0  0  0  0  0  0  0  0  0  0  0  0
   -3.7786   -6.3880   10.4111 C   0  0  0  0  0  0  0  0  0  0  0  0
   -4.6006   -6.0010    9.3646 C   0  0  0  0  0  0  0  0  0  0  0  0
   -4.2476   -4.9313    8.5656 C   0  0  0  0  0  0  0  0  0  0  0  0
   -2.0090   -1.8996    8.5360 C   0  0  0  0  0  0  0  0  0  0  0  0
   -3.9156   -4.1224    4.9098 H   0  0  0  0  0  0  0  0  0  0  0  0
   -4.0341   -3.5525    3.2485 H   0  0  0  0  0  0  0  0  0  0  0  0
   -2.4894   -1.2247    6.1884 H   0  0  0  0  0  0  0  0  0  0  0  0
   -1.3159   -4.1103   10.0416 H   0  0  0  0  0  0  0  0  0  0  0  0
   -1.9511   -6.0050   11.4562 H   0  0  0  0  0  0  0  0  0  0  0  0
   -4.0552   -7.2223   11.0384 H   0  0  0  0  0  0  0  0  0  0  0  0
   -5.5209   -6.5338    9.1755 H   0  0  0  0  0  0  0  0  0  0  0  0
   -4.8878   -4.6155    7.7564 H   0  0  0  0  0  0  0  0  0  0  0  0
   -1.8589   -2.0156    9.6037 H   0  0  0  0  0  0  0  0  0  0  0  0
   -2.5853   -0.9900    8.3649 H   0  0  0  0  0  0  0  0  0  0  0  0
   -1.0444   -1.7594    8.0457 H   0  0  0  0  0  0  0  0  0  0  0  0
   -0.2255    0.8277    2.8062 Cl  0  0  0  0  0  0  0  0  0  0  0  0
    0.4335   -1.0494    5.6134 S   0  0  0  0  0  0  0  0  0  0  0  0
    0.6962   -2.2786    4.4906 C   0  0  0  0  0  0  0  0  0  0  0  0
    1.2379   -3.4381    4.8824 N   0  0  0  0  0  4  0  0  0  0  0  0
    0.3601   -2.1486    3.2058 N   0  0  0  0  0  0  0  0  0  0  0  0
    1.4300   -4.1241    4.1680 H   0  0  0  0  0  0  0  0  0  0  0  0
    1.5482   -3.5539    5.8291 H   0  0  0  0  0  0  0  0  0  0  0  0
    0.6098   -3.1682    2.3476 N   0  0  0  0  0  0  0  0  0  0  0  0
    0.0076   -1.2252    2.8881 H   0  0  0  0  0  0  0  0  0  0  0  0
    0.2431   -3.0775    1.1229 C   0  0  0  0  0  0  0  0  0  0  0  0
    0.5878   -4.2215    0.2714 C   0  0  0  0  0  0  0  0  0  0  0  0
   -0.4738   -1.9004    0.5408 C   0  0  0  0  0  0  0  0  0  0  0  0
   -0.2361   -4.6249   -0.7783 C   0  0  0  0  0  0  0  0  0  0  0  0
    1.7660   -4.9306    0.5094 C   0  0  0  0  0  0  0  0  0  0  0  0
   -0.6246   -2.0168   -0.5268 H   0  0  0  0  0  0  0  0  0  0  0  0
    0.1032   -0.9910    0.7110 H   0  0  0  0  0  0  0  0  0  0  0  0
   -1.4379   -1.7594    1.0317 H   0  0  0  0  0  0  0  0  0  0  0  0
    0.1163   -5.7018   -1.5706 C   0  0  0  0  0  0  0  0  0  0  0  0
   -1.1685   -4.1127   -0.9627 H   0  0  0  0  0  0  0  0  0  0  0  0
    2.1189   -6.0000   -0.2898 C   0  0  0  0  0  0  0  0  0  0  0  0
    2.4069   -4.6140    1.3178 H   0  0  0  0  0  0  0  0  0  0  0  0
    1.2960   -6.3879   -1.3353 C   0  0  0  0  0  0  0  0  0  0  0  0
   -0.5330   -6.0066   -2.3784 H   0  0  0  0  0  0  0  0  0  0  0  0
    3.0406   -6.5312   -0.1026 H   0  0  0  0  0  0  0  0  0  0  0  0
    1.5733   -7.2213   -1.9636 H   0  0  0  0  0  0  0  0  0  0  0  0
  1 28  1  0  0  0  0
  1  2  1  0  0  0  0
  3  1  1  0  0  0  0
  3  7  1  0  0  0  0
  4  7  2  0  0  0  0
  4 16  1  0  0  0  0
  5 18  1  0  0  0  0
  5  6  1  0  0  0  0
  6  8  2  0  0  0  0
  7  5  1  0  0  0  0
  8 15  1  0  0  0  0
  8  9  1  0  0  0  0
  9 10  1  0  0  0  0
 10 19  1  0  0  0  0
 10 11  2  0  0  0  0
 11 20  1  0  0  0  0
 12 11  1  0  0  0  0
 12 21  1  0  0  0  0
 13 12  2  0  0  0  0
 14  9  2  0  0  0  0
 14 13  1  0  0  0  0
 15 24  1  0  0  0  0
 17  4  1  0  0  0  0
 22 13  1  0  0  0  0
 23 14  1  0  0  0  0
 25 15  1  0  0  0  0
 26 15  1  0  0  0  0
 27  1  1  0  0  0  0
 29 30  2  0  0  0  0
 29 28  1  0  0  0  0
 30 33  1  0  0  0  0
 31 29  1  0  0  0  0
 32 30  1  0  0  0  0
 34 31  1  0  0  0  0
 35 31  1  0  0  0  0
 36 34  2  0  0  0  0
 37 40  1  0  0  0  0
 37 36  1  0  0  0  0
 38 42  1  0  0  0  0
 38 43  1  0  0  0  0
 38 36  1  0  0  0  0
 39 37  2  0  0  0  0
 40 47  1  0  0  0  0
 41 38  1  0  0  0  0
 44 48  2  0  0  0  0
 44 39  1  0  0  0  0
 45 39  1  0  0  0  0
 46 50  1  0  0  0  0
 46 40  2  0  0  0  0
 48 46  1  0  0  0  0
 49 44  1  0  0  0  0
 51 48  1  0  0  0  0
M  END
$$$$
