CSD_code = CIGXAT | q = 0 | S = 0 | Stoichiometry = C10H29Cl4N5NbP | MND = 7
 OpenBabel04212202023D

 50 44  0  0  0  0  0  0  0  0999 V2000
    0.2751    8.7290    9.8949 Nb  0  0  0  0  0  0  0  0  0  0  0  0
    1.3364    8.8199    7.7140 Cl  0  0  0  0  0 15  0  0  0  0  0  0
    0.5754   11.0763   10.2778 Cl  0  0  0  0  0 15  0  0  0  0  0  0
   -1.6600    8.7482   11.2728 Cl  0  0  0  0  0 15  0  0  0  0  0  0
   -0.2516    6.3842    9.2966 Cl  0  0  0  0  0 15  0  0  0  0  0  0
    1.6697    5.8533   11.3669 P   0  0  0  0  0  4  0  0  0  0  0  0
    2.4137    5.1867   10.0148 N   0  0  0  0  0  0  0  0  0  0  0  0
    0.4830    4.9491   12.0699 N   0  0  0  0  0  0  0  0  0  0  0  0
    2.9151    5.5611   12.4841 N   0  0  0  0  0  0  0  0  0  0  0  0
    2.0269    8.4451   10.6885 N   0  0  0  0  0  0  0  0  0  0  0  0
   -1.4474    9.5526    8.3432 N   0  0  0  0  0  0  0  0  0  0  0  0
   -0.8486    9.9972    7.6380 H   0  0  0  0  0  0  0  0  0  0  0  0
    3.1788    6.0823    9.1570 C   0  0  0  0  0  0  0  0  0  0  0  0
    3.9220    5.4912    8.6171 H   0  0  0  0  0  0  0  0  0  0  0  0
    3.6908    6.8296    9.7605 H   0  0  0  0  0  0  0  0  0  0  0  0
    2.5424    6.5956    8.4272 H   0  0  0  0  0  0  0  0  0  0  0  0
    1.7553    4.1401    9.2520 C   0  0  0  0  0  0  0  0  0  0  0  0
    1.2912    4.5303    8.3440 H   0  0  0  0  0  0  0  0  0  0  0  0
    0.9842    3.6678    9.8517 H   0  0  0  0  0  0  0  0  0  0  0  0
    2.5054    3.3944    8.9780 H   0  0  0  0  0  0  0  0  0  0  0  0
   -0.9175    5.3241   12.1173 C   0  0  0  0  0  0  0  0  0  0  0  0
   -1.5065    4.7721   11.3803 H   0  0  0  0  0  0  0  0  0  0  0  0
   -1.0328    6.3902   11.9249 H   0  0  0  0  0  0  0  0  0  0  0  0
   -1.3057    5.1047   13.1148 H   0  0  0  0  0  0  0  0  0  0  0  0
    0.7405    3.5689   12.4346 C   0  0  0  0  0  0  0  0  0  0  0  0
    0.4940    3.4150   13.4892 H   0  0  0  0  0  0  0  0  0  0  0  0
    1.7947    3.3456   12.2826 H   0  0  0  0  0  0  0  0  0  0  0  0
    0.1338    2.8787   11.8419 H   0  0  0  0  0  0  0  0  0  0  0  0
    4.3096    5.3409   12.1752 C   0  0  0  0  0  0  0  0  0  0  0  0
    4.9064    6.2570   12.2564 H   0  0  0  0  0  0  0  0  0  0  0  0
    4.4059    4.9355   11.1733 H   0  0  0  0  0  0  0  0  0  0  0  0
    4.7151    4.6136   12.8843 H   0  0  0  0  0  0  0  0  0  0  0  0
    2.7040    6.0239   13.8395 C   0  0  0  0  0  0  0  0  0  0  0  0
    3.0826    5.2744   14.5399 H   0  0  0  0  0  0  0  0  0  0  0  0
    1.6372    6.1536   14.0165 H   0  0  0  0  0  0  0  0  0  0  0  0
    3.2200    6.9694   14.0418 H   0  0  0  0  0  0  0  0  0  0  0  0
    3.1752    9.1723   11.1449 C   0  0  0  0  0  0  0  0  0  0  0  0
    2.8911    9.8431   11.9720 H   0  0  0  0  0  0  0  0  0  0  0  0
    3.5535    9.7781   10.3195 H   0  0  0  0  0  0  0  0  0  0  0  0
    3.9687    8.5023   11.4964 H   0  0  0  0  0  0  0  0  0  0  0  0
    1.2604    7.6419   11.5076 C   0  0  0  0  0  3  0  0  0  0  0  0
    1.2549    7.9168   12.5801 H   0  0  0  0  0  0  0  0  0  0  0  0
   -2.1772    8.4759    7.6684 C   0  0  0  0  0  0  0  0  0  0  0  0
   -2.7610    7.9235    8.4087 H   0  0  0  0  0  0  0  0  0  0  0  0
   -1.4678    7.7949    7.1934 H   0  0  0  0  0  0  0  0  0  0  0  0
   -2.8559    8.8738    6.9041 H   0  0  0  0  0  0  0  0  0  0  0  0
   -2.3785   10.5832    8.8110 C   0  0  0  0  0  0  0  0  0  0  0  0
   -2.9528   11.0038    7.9772 H   0  0  0  0  0  0  0  0  0  0  0  0
   -1.8189   11.3814    9.3008 H   0  0  0  0  0  0  0  0  0  0  0  0
   -3.0714   10.1476    9.5318 H   0  0  0  0  0  0  0  0  0  0  0  0
  1 10  1  0  0  0  0
  6 41  1  0  0  0  0
  6  8  1  0  0  0  0
  6  9  1  0  0  0  0
  7  6  1  0  0  0  0
  8 21  1  0  0  0  0
  8 25  1  0  0  0  0
  9 33  1  0  0  0  0
 10 37  1  0  0  0  0
 10 41  1  0  0  0  0
 11 47  1  0  0  0  0
 12 11  1  0  0  0  0
 13 15  1  0  0  0  0
 13  7  1  0  0  0  0
 14 13  1  0  0  0  0
 16 13  1  0  0  0  0
 17 19  1  0  0  0  0
 17  7  1  0  0  0  0
 18 17  1  0  0  0  0
 20 17  1  0  0  0  0
 21 24  1  0  0  0  0
 22 21  1  0  0  0  0
 23 21  1  0  0  0  0
 25 26  1  0  0  0  0
 27 25  1  0  0  0  0
 28 25  1  0  0  0  0
 29 30  1  0  0  0  0
 29  9  1  0  0  0  0
 29 32  1  0  0  0  0
 31 29  1  0  0  0  0
 33 35  1  0  0  0  0
 33 36  1  0  0  0  0
 33 34  1  0  0  0  0
 37 40  1  0  0  0  0
 37 38  1  0  0  0  0
 39 37  1  0  0  0  0
 41 42  1  0  0  0  0
 43 11  1  0  0  0  0
 43 44  1  0  0  0  0
 45 43  1  0  0  0  0
 46 43  1  0  0  0  0
 47 49  1  0  0  0  0
 47 50  1  0  0  0  0
 48 47  1  0  0  0  0
M  END
$$$$
