CSD_code = CIHJAF | q = 0 | S = 0 | Stoichiometry = C10H10FV | MND = 11
 OpenBabel04212202023D

 22 23  0  0  1  0  0  0  0  0999 V2000
    0.5985    0.7061    4.5923 C   0  0  0  0  0  0  0  0  0  0  0  0
    0.8310    2.0185    5.0609 C   0  0  0  0  0  0  0  0  0  0  0  0
   -0.3249    2.4545    5.7201 C   0  0  0  0  0  0  0  0  0  0  0  0
   -1.2627    1.4012    5.7151 C   0  0  1  0  0  0  0  0  0  0  0  0
   -0.7011    0.3387    4.9735 C   0  0  0  0  0  0  0  0  0  0  0  0
    0.4935   -0.9913    6.8654 F   0  0  0  0  0  0  0  0  0  0  0  0
    0.4948    0.6869    6.8679 V   0  0  0  0  0  0  0  0  0  0  0  0
    1.2712    0.1200    3.9806 H   0  0  0  0  0  0  0  0  0  0  0  0
    1.7029    2.6189    4.8381 H   0  0  0  0  0  0  0  0  0  0  0  0
   -0.5156    3.4581    6.0728 H   0  0  0  0  0  0  0  0  0  0  0  0
   -2.2877    1.4596    6.0577 H   0  0  0  0  0  0  0  0  0  0  0  0
   -1.1945   -0.5908    4.7232 H   0  0  0  0  0  0  0  0  0  0  0  0
    0.3911    0.7063    9.1434 C   0  0  0  0  0  0  0  0  0  0  0  0
    0.1585    2.0186    8.6746 C   0  0  0  0  0  0  0  0  0  0  0  0
    1.3144    2.4547    8.0154 C   0  0  0  0  0  0  0  0  0  0  0  0
    2.2523    1.4015    8.0206 C   0  0  1  0  0  0  0  0  0  0  0  0
    1.6908    0.3391    8.7624 C   0  0  0  0  0  0  0  0  0  0  0  0
   -0.2816    0.1202    9.7551 H   0  0  0  0  0  0  0  0  0  0  0  0
   -0.7134    2.6190    8.8973 H   0  0  0  0  0  0  0  0  0  0  0  0
    1.5050    3.4582    7.6625 H   0  0  0  0  0  0  0  0  0  0  0  0
    3.2772    1.4599    7.6779 H   0  0  0  0  0  0  0  0  0  0  0  0
    2.1842   -0.5905    9.0126 H   0  0  0  0  0  0  0  0  0  0  0  0
  1  5  2  0  0  0  0
  1  2  1  0  0  0  0
  2  3  2  0  0  0  0
  3 10  1  0  0  0  0
  4  3  1  0  0  0  0
  4 11  1  1  0  0  0
  4  7  1  0  0  0  0
  5  4  1  0  0  0  0
  6  7  1  0  0  0  0
  7 16  1  0  0  0  0
  8  1  1  0  0  0  0
  9  2  1  0  0  0  0
 12  5  1  0  0  0  0
 13 18  1  0  0  0  0
 14 19  1  0  0  0  0
 14 13  1  0  0  0  0
 15 16  1  0  0  0  0
 15 14  2  0  0  0  0
 16 21  1  6  0  0  0
 16 17  1  0  0  0  0
 17 22  1  0  0  0  0
 17 13  2  0  0  0  0
 20 15  1  0  0  0  0
M  END
$$$$
