CSD_code = CIHVEV | q = 0 | S = 0 | Stoichiometry = C28H45ClP2Pt | MND = 4
 OpenBabel04212202023D

 77 80  0  0  0  0  0  0  0  0999 V2000
    6.6226    7.6047    3.3408 Pt  0  0  1  0  0  0  0  0  0  0  0  0
    5.1914    5.8947    2.9393 P   0  0  0  0  0  4  0  0  0  0  0  0
    8.1662    9.0729    4.1266 P   0  0  0  0  0  4  0  0  0  0  0  0
    6.1161    8.8454    1.3552 Cl  0  0  0  0  0  0  0  0  0  0  0  0
    7.0272    6.5688    5.0380 C   0  0  0  0  0  0  0  0  0  0  0  0
    8.1164    6.9604    5.8604 C   0  0  0  0  0  0  0  0  0  0  0  0
    8.3688    6.3191    7.0424 C   0  0  0  0  0  0  0  0  0  0  0  0
    9.2020    6.6250    7.6623 H   0  0  0  0  0  0  0  0  0  0  0  0
    7.5629    5.2526    7.4824 C   0  0  0  0  0  0  0  0  0  0  0  0
    7.8145    4.5965    8.7038 C   0  0  0  0  0  0  0  0  0  0  0  0
    8.6500    4.9285    9.3043 H   0  0  0  0  0  0  0  0  0  0  0  0
    7.0226    3.5653    9.1227 C   0  0  0  0  0  0  0  0  0  0  0  0
    7.2202    3.0649   10.0594 H   0  0  0  0  0  0  0  0  0  0  0  0
    5.9403    3.1549    8.3325 C   0  0  0  0  0  0  0  0  0  0  0  0
    5.3127    2.3436    8.6730 H   0  0  0  0  0  0  0  0  0  0  0  0
    5.6730    3.7725    7.1421 C   0  0  0  0  0  0  0  0  0  0  0  0
    4.8262    3.4399    6.5609 H   0  0  0  0  0  0  0  0  0  0  0  0
    6.4754    4.8355    6.6710 C   0  0  0  0  0  0  0  0  0  0  0  0
    6.2370    5.5097    5.4425 C   0  0  0  0  0  0  0  0  0  0  0  0
    5.0674    5.0825    4.5906 C   0  0  0  0  0  0  0  0  0  0  0  0
    4.1435    5.4114    5.0755 H   0  0  0  0  0  0  0  0  0  0  0  0
    5.0167    3.9961    4.4832 H   0  0  0  0  0  0  0  0  0  0  0  0
    9.0366    8.0572    5.3960 C   0  0  0  0  0  0  0  0  0  0  0  0
    9.8975    7.5891    4.9076 H   0  0  0  0  0  0  0  0  0  0  0  0
    9.4149    8.6535    6.2301 H   0  0  0  0  0  0  0  0  0  0  0  0
    3.4042    6.2919    2.5104 C   0  0  0  0  0  0  0  0  0  0  0  0
    5.9839    4.5962    1.8342 C   0  0  0  0  0  0  0  0  0  0  0  0
    3.2881    6.6547    1.0316 C   0  0  0  0  0  0  0  0  0  0  0  0
    2.3298    7.1380    0.8439 H   0  0  0  0  0  0  0  0  0  0  0  0
    3.3448    5.7703    0.4009 H   0  0  0  0  0  0  0  0  0  0  0  0
    4.0780    7.3486    0.7495 H   0  0  0  0  0  0  0  0  0  0  0  0
    3.1301    7.5464    3.3482 C   0  0  0  0  0  0  0  0  0  0  0  0
    2.1241    7.9194    3.1626 H   0  0  0  0  0  0  0  0  0  0  0  0
    3.8409    8.3303    3.0765 H   0  0  0  0  0  0  0  0  0  0  0  0
    3.2275    7.3460    4.4154 H   0  0  0  0  0  0  0  0  0  0  0  0
    2.4039    5.1906    2.8590 C   0  0  0  0  0  0  0  0  0  0  0  0
    2.3902    4.9728    3.9242 H   0  0  0  0  0  0  0  0  0  0  0  0
    2.6170    4.2706    2.3218 H   0  0  0  0  0  0  0  0  0  0  0  0
    1.4040    5.5195    2.5764 H   0  0  0  0  0  0  0  0  0  0  0  0
    7.3061    4.2638    2.5343 C   0  0  0  0  0  0  0  0  0  0  0  0
    7.1506    3.7597    3.4857 H   0  0  0  0  0  0  0  0  0  0  0  0
    7.8648    5.1864    2.7208 H   0  0  0  0  0  0  0  0  0  0  0  0
    7.9128    3.6173    1.9017 H   0  0  0  0  0  0  0  0  0  0  0  0
    6.3156    5.2495    0.4913 C   0  0  0  0  0  0  0  0  0  0  0  0
    7.0355    4.6407   -0.0542 H   0  0  0  0  0  0  0  0  0  0  0  0
    6.7520    6.2360    0.6526 H   0  0  0  0  0  0  0  0  0  0  0  0
    5.4344    5.3673   -0.1319 H   0  0  0  0  0  0  0  0  0  0  0  0
    5.1575    3.3316    1.6261 C   0  0  0  0  0  0  0  0  0  0  0  0
    4.2731    3.5347    1.0263 H   0  0  0  0  0  0  0  0  0  0  0  0
    4.8469    2.8915    2.5720 H   0  0  0  0  0  0  0  0  0  0  0  0
    5.7560    2.5921    1.0948 H   0  0  0  0  0  0  0  0  0  0  0  0
    7.3688   10.4699    5.0993 C   0  0  0  0  0  0  0  0  0  0  0  0
    9.5541    9.6228    2.9824 C   0  0  0  0  0  0  0  0  0  0  0  0
    6.4385   11.2364    4.1576 C   0  0  0  0  0  0  0  0  0  0  0  0
    5.7444   11.8486    4.7321 H   0  0  0  0  0  0  0  0  0  0  0  0
    5.8601   10.5370    3.5527 H   0  0  0  0  0  0  0  0  0  0  0  0
    6.9877   11.8897    3.4865 H   0  0  0  0  0  0  0  0  0  0  0  0
    6.5013    9.7572    6.1421 C   0  0  0  0  0  0  0  0  0  0  0  0
    7.1017    9.2308    6.8809 H   0  0  0  0  0  0  0  0  0  0  0  0
    5.8494    9.0310    5.6466 H   0  0  0  0  0  0  0  0  0  0  0  0
    5.8744   10.4788    6.6642 H   0  0  0  0  0  0  0  0  0  0  0  0
    8.3471   11.4193    5.7824 C   0  0  0  0  0  0  0  0  0  0  0  0
    9.0636   10.8813    6.4006 H   0  0  0  0  0  0  0  0  0  0  0  0
    7.7962   12.1031    6.4277 H   0  0  0  0  0  0  0  0  0  0  0  0
    8.8901   12.0167    5.0536 H   0  0  0  0  0  0  0  0  0  0  0  0
    9.0730   10.7604    2.0845 C   0  0  0  0  0  0  0  0  0  0  0  0
    9.7716   10.9015    1.2603 H   0  0  0  0  0  0  0  0  0  0  0  0
    9.0090   11.6983    2.6317 H   0  0  0  0  0  0  0  0  0  0  0  0
    8.0975   10.5217    1.6640 H   0  0  0  0  0  0  0  0  0  0  0  0
   10.8421   10.0255    3.6991 C   0  0  0  0  0  0  0  0  0  0  0  0
   11.5855   10.3120    2.9555 H   0  0  0  0  0  0  0  0  0  0  0  0
   11.2562    9.2067    4.2825 H   0  0  0  0  0  0  0  0  0  0  0  0
   10.6856   10.8744    4.3588 H   0  0  0  0  0  0  0  0  0  0  0  0
    9.7948    8.3821    2.1143 C   0  0  0  0  0  0  0  0  0  0  0  0
    8.8677    8.1030    1.6082 H   0  0  0  0  0  0  0  0  0  0  0  0
   10.1346    7.5339    2.7089 H   0  0  0  0  0  0  0  0  0  0  0  0
   10.5483    8.5870    1.3554 H   0  0  0  0  0  0  0  0  0  0  0  0
  1  4  1  1  0  0  0
  1  3  1  0  0  0  0
  1  5  1  0  0  0  0
  2  1  1  0  0  0  0
  2 20  1  0  0  0  0
  3 52  1  0  0  0  0
  3 23  1  0  0  0  0
  5 19  2  0  0  0  0
  5  6  1  0  0  0  0
  6  7  2  0  0  0  0
  7  9  1  0  0  0  0
  7  8  1  0  0  0  0
  9 10  1  0  0  0  0
 10 12  2  0  0  0  0
 10 11  1  0  0  0  0
 12 13  1  0  0  0  0
 14 15  1  0  0  0  0
 14 12  1  0  0  0  0
 16 14  2  0  0  0  0
 17 16  1  0  0  0  0
 18 16  1  0  0  0  0
 18  9  2  0  0  0  0
 19 18  1  0  0  0  0
 20 21  1  0  0  0  0
 20 19  1  0  0  0  0
 22 20  1  0  0  0  0
 23  6  1  0  0  0  0
 23 25  1  0  0  0  0
 24 23  1  0  0  0  0
 26 36  1  0  0  0  0
 26  2  1  0  0  0  0
 26 32  1  0  0  0  0
 27 40  1  0  0  0  0
 27  2  1  0  0  0  0
 28 26  1  0  0  0  0
 29 28  1  0  0  0  0
 30 28  1  0  0  0  0
 31 28  1  0  0  0  0
 32 35  1  0  0  0  0
 33 32  1  0  0  0  0
 34 32  1  0  0  0  0
 36 37  1  0  0  0  0
 38 36  1  0  0  0  0
 39 36  1  0  0  0  0
 40 42  1  0  0  0  0
 40 41  1  0  0  0  0
 43 40  1  0  0  0  0
 44 46  1  0  0  0  0
 44 27  1  0  0  0  0
 45 44  1  0  0  0  0
 47 44  1  0  0  0  0
 48 27  1  0  0  0  0
 48 50  1  0  0  0  0
 49 48  1  0  0  0  0
 51 48  1  0  0  0  0
 52 62  1  0  0  0  0
 52 58  1  0  0  0  0
 53 70  1  0  0  0  0
 53  3  1  0  0  0  0
 54 55  1  0  0  0  0
 54 52  1  0  0  0  0
 56 54  1  0  0  0  0
 57 54  1  0  0  0  0
 58 61  1  0  0  0  0
 58 59  1  0  0  0  0
 60 58  1  0  0  0  0
 62 63  1  0  0  0  0
 62 64  1  0  0  0  0
 65 62  1  0  0  0  0
 66 68  1  0  0  0  0
 66 53  1  0  0  0  0
 67 66  1  0  0  0  0
 69 66  1  0  0  0  0
 70 72  1  0  0  0  0
 70 73  1  0  0  0  0
 71 70  1  0  0  0  0
 74 76  1  0  0  0  0
 74 53  1  0  0  0  0
 75 74  1  0  0  0  0
 77 74  1  0  0  0  0
M  END
$$$$
