CSD_code = CIJCAZ | q = 0 | S = 0 | Stoichiometry = C12H10Cl2N2O4Pd | MND = 4
 OpenBabel04212202023D

 31 32  0  0  0  0  0  0  0  0999 V2000
   -0.7074    6.7673    6.6720 Pd  0  0  0  0  0  0  0  0  0  0  0  0
    1.0037    5.9318    7.9387 Cl  0  0  0  0  0  0  0  0  0  0  0  0
    1.0682   11.8874    6.3139 O   0  0  0  0  0  0  0  0  0  0  0  0
    0.4142   12.9650    8.1561 O   0  0  0  0  0  0  0  0  0  0  0  0
    0.8378   13.7241    7.7248 H   0  0  0  0  0  0  0  0  0  0  0  0
   -0.6927    8.3837    7.7220 N   0  0  0  0  0  0  0  0  0  0  0  0
   -0.1473    9.4985    7.2487 C   0  0  0  0  0  3  0  0  0  0  0  0
    0.2815    9.4696    6.2469 H   0  0  0  0  0  0  0  0  0  0  0  0
   -0.1188   10.6782    7.9865 C   0  0  0  0  0  0  0  0  0  0  0  0
    0.5174   11.8802    7.3821 C   0  0  0  0  0  0  0  0  0  0  0  0
   -0.6841   10.6915    9.2597 C   0  0  0  0  0  0  0  0  0  0  0  0
   -0.6741   11.5952    9.8481 H   0  0  0  0  0  0  0  0  0  0  0  0
   -1.2491    9.5204    9.7392 C   0  0  0  0  0  0  0  0  0  0  0  0
   -1.6971    9.4837   10.7193 H   0  0  0  0  0  0  0  0  0  0  0  0
   -1.2322    8.3881    8.9434 C   0  0  0  0  0  0  0  0  0  0  0  0
   -1.6577    7.4446    9.2849 H   0  0  0  0  0  0  0  0  0  0  0  0
   -2.4176    7.6029    5.4050 Cl  0  0  0  0  0  0  0  0  0  0  0  0
   -0.7223    5.1516    5.6208 N   0  0  0  0  0  0  0  0  0  0  0  0
   -1.2676    4.0369    6.0942 C   0  0  0  0  0  3  0  0  0  0  0  0
   -1.6963    4.0659    7.0961 H   0  0  0  0  0  0  0  0  0  0  0  0
   -1.2959    2.8570    5.3567 C   0  0  0  0  0  0  0  0  0  0  0  0
   -1.9321    1.6552    5.9613 C   0  0  0  0  0  0  0  0  0  0  0  0
   -2.4829    1.6481    7.0295 O   0  0  0  0  0  0  0  0  0  0  0  0
   -1.8289    0.5703    5.1875 O   0  0  0  0  0  0  0  0  0  0  0  0
   -2.2525   -0.1888    5.6189 H   0  0  0  0  0  0  0  0  0  0  0  0
   -0.7306    2.8436    4.0835 C   0  0  0  0  0  0  0  0  0  0  0  0
   -0.7406    1.9399    3.4952 H   0  0  0  0  0  0  0  0  0  0  0  0
   -0.1657    4.0147    3.6038 C   0  0  0  0  0  0  0  0  0  0  0  0
    0.2824    4.0512    2.6237 H   0  0  0  0  0  0  0  0  0  0  0  0
   -0.1827    5.1472    4.3995 C   0  0  0  0  0  0  0  0  0  0  0  0
    0.2429    6.0906    4.0578 H   0  0  0  0  0  0  0  0  0  0  0  0
  1  6  1  0  0  0  0
  1  2  1  0  0  0  0
  3 10  2  0  0  0  0
  5  4  1  0  0  0  0
  6 15  1  0  0  0  0
  7  6  1  0  0  0  0
  7  9  1  0  0  0  0
  8  7  1  0  0  0  0
  9 11  2  0  0  0  0
 10  9  1  0  0  0  0
 10  4  1  0  0  0  0
 11 13  1  0  0  0  0
 11 12  1  0  0  0  0
 13 14  1  0  0  0  0
 15 16  1  0  0  0  0
 15 13  2  0  0  0  0
 17  1  1  0  0  0  0
 18 19  1  0  0  0  0
 18  1  1  0  0  0  0
 19 20  1  0  0  0  0
 21 22  1  0  0  0  0
 21 19  1  0  0  0  0
 22 23  2  0  0  0  0
 24 25  1  0  0  0  0
 24 22  1  0  0  0  0
 26 21  2  0  0  0  0
 27 26  1  0  0  0  0
 28 26  1  0  0  0  0
 28 30  2  0  0  0  0
 29 28  1  0  0  0  0
 30 18  1  0  0  0  0
 31 30  1  0  0  0  0
M  END
$$$$
