CSD_code = CIJDUU | q = 0 | S = 0 | Stoichiometry = C32H22Cl2N2O4Pd | MND = 4
 OpenBabel04212202023D

 63 68  0  0  1  0  0  0  0  0999 V2000
   -0.0000    0.0000    0.0001 Pd  0  0  0  0  0  0  0  0  0  0  0  0
    1.1509   -0.7826    1.8396 Cl  0  0  0  0  0  0  0  0  0  0  0  0
   -2.7984   -5.5015   -3.2501 O   0  0  0  0  0  0  0  0  0  0  0  0
   -0.8028   -5.2687   -4.2003 O   0  0  0  0  0  0  0  0  0  0  0  0
   -0.3169   -1.7924   -0.7545 N   0  0  0  0  0  0  0  0  0  0  0  0
    0.2908   -2.0921   -1.8912 C   0  0  0  0  0  0  0  0  0  0  0  0
   -0.1581   -3.1370   -2.7138 C   0  0  0  0  0  0  0  0  0  0  0  0
   -1.2531   -3.8911   -2.3549 C   0  0  0  0  0  0  0  0  0  0  0  0
   -1.8900   -3.6151   -1.1118 C   0  0  0  0  0  0  0  0  0  0  0  0
   -1.3665   -2.5419   -0.3326 C   0  0  0  0  0  0  0  0  0  0  0  0
   -1.9421   -2.2528    0.9222 C   0  0  0  0  0  0  0  0  0  0  0  0
   -3.0013   -2.9857    1.3834 C   0  0  0  0  0  0  0  0  0  0  0  0
   -3.5316   -4.0270    0.6105 C   0  0  0  0  0  0  0  0  0  0  0  0
   -2.9867   -4.3395   -0.6058 C   0  0  0  0  0  3  0  0  0  0  0  0
   -1.7245   -4.9550   -3.2766 C   0  0  0  0  0  0  0  0  0  0  0  0
    1.4781   -1.3104   -2.2875 C   0  0  0  0  0  0  0  0  0  0  0  0
    1.6085   -0.8322   -3.5901 C   0  0  0  0  0  0  0  0  0  0  0  0
    2.7511   -0.1493   -3.9672 C   0  0  0  0  0  0  0  0  0  0  0  0
    3.7798    0.0446   -3.0597 C   0  0  0  0  0  0  0  0  0  0  0  0
    3.6586   -0.4282   -1.7622 C   0  0  0  0  0  0  0  0  0  0  0  0
    2.5115   -1.0966   -1.3666 C   0  0  0  0  0  0  0  0  0  0  0  0
   -1.1530   -5.9561   -4.7889 H   0  0  0  0  0  0  0  0  0  0  0  0
    0.3618   -3.3348   -3.6372 H   0  0  0  0  0  0  0  0  0  0  0  0
   -1.4993   -1.4653    1.5297 H   0  0  0  0  0  0  0  0  0  0  0  0
   -3.4260   -2.7658    2.3507 H   0  0  0  0  0  0  0  0  0  0  0  0
   -4.3708   -4.5937    0.9844 H   0  0  0  0  0  0  0  0  0  0  0  0
   -3.3914   -5.1447   -1.1960 H   0  0  0  0  0  0  0  0  0  0  0  0
    0.8019   -0.9734   -4.2936 H   0  0  0  0  0  0  0  0  0  0  0  0
    2.8404    0.2255   -4.9760 H   0  0  0  0  0  0  0  0  0  0  0  0
    4.6797    0.5580   -3.3652 H   0  0  0  0  0  0  0  0  0  0  0  0
    4.4605   -0.2824   -1.0542 H   0  0  0  0  0  0  0  0  0  0  0  0
    2.4464   -1.5135   -0.3666 H   0  0  0  0  0  0  0  0  0  0  0  0
   -1.1507    0.7822   -1.8397 Cl  0  0  0  0  0  0  0  0  0  0  0  0
    0.3168    1.7925    0.7545 N   0  0  0  0  0  0  0  0  0  0  0  0
   -0.2909    2.0922    1.8911 C   0  0  0  0  0  0  0  0  0  0  0  0
    0.1580    3.1372    2.7137 C   0  0  0  0  0  0  0  0  0  0  0  0
    1.2530    3.8912    2.3547 C   0  0  0  0  0  0  0  0  0  0  0  0
    1.8899    3.6152    1.1116 C   0  0  0  0  0  0  0  0  0  0  0  0
    1.3664    2.5419    0.3325 C   0  0  2  0  0  3  0  0  0  0  0  0
    1.9421    2.2528   -0.9222 C   0  0  0  0  0  0  0  0  0  0  0  0
    3.0012    2.9857   -1.3835 C   0  0  0  0  0  0  0  0  0  0  0  0
    3.5314    4.0272   -0.6108 C   0  0  0  0  0  0  0  0  0  0  0  0
    2.9865    4.3397    0.6055 C   0  0  0  0  0  0  0  0  0  0  0  0
    3.3911    5.1449    1.1957 H   0  0  0  0  0  0  0  0  0  0  0  0
    4.3705    4.5939   -0.9847 H   0  0  0  0  0  0  0  0  0  0  0  0
    3.4259    2.7658   -2.3508 H   0  0  0  0  0  0  0  0  0  0  0  0
    1.4994    1.4651   -1.5297 H   0  0  0  0  0  0  0  0  0  0  0  0
    1.7244    4.9552    3.2763 C   0  0  0  0  0  0  0  0  0  0  0  0
    2.7984    5.5015    3.2500 O   0  0  0  0  0  0  0  0  0  0  0  0
    0.8028    5.2688    4.2003 O   0  0  0  0  0  0  0  0  0  0  0  0
    1.1532    5.9560    4.7889 H   0  0  0  0  0  0  0  0  0  0  0  0
   -0.3618    3.3349    3.6371 H   0  0  0  0  0  0  0  0  0  0  0  0
   -1.4781    1.3104    2.2875 C   0  0  0  0  0  0  0  0  0  0  0  0
   -1.6083    0.8322    3.5901 C   0  0  0  0  0  0  0  0  0  0  0  0
   -2.7508    0.1492    3.9674 C   0  0  0  0  0  0  0  0  0  0  0  0
   -3.7796   -0.0448    3.0600 C   0  0  0  0  0  0  0  0  0  0  0  0
   -3.6585    0.4280    1.7625 C   0  0  0  0  0  0  0  0  0  0  0  0
   -2.5116    1.0965    1.3668 C   0  0  0  0  0  0  0  0  0  0  0  0
   -2.4467    1.5133    0.3667 H   0  0  0  0  0  0  0  0  0  0  0  0
   -4.4605    0.2820    1.0546 H   0  0  0  0  0  0  0  0  0  0  0  0
   -4.6795   -0.5582    3.3656 H   0  0  0  0  0  0  0  0  0  0  0  0
   -2.8400   -0.2255    4.9762 H   0  0  0  0  0  0  0  0  0  0  0  0
   -0.8016    0.9735    4.2935 H   0  0  0  0  0  0  0  0  0  0  0  0
  1 34  1  0  0  0  0
  1  2  1  0  0  0  0
  4 15  1  0  0  0  0
  5 10  1  0  0  0  0
  5  1  1  0  0  0  0
  6  5  1  0  0  0  0
  7  8  1  0  0  0  0
  7  6  2  0  0  0  0
  8  9  2  0  0  0  0
  9 14  1  0  0  0  0
  9 10  1  0  0  0  0
 10 11  2  0  0  0  0
 11 12  1  0  0  0  0
 11 24  1  0  0  0  0
 12 25  1  0  0  0  0
 13 26  1  0  0  0  0
 13 12  2  0  0  0  0
 14 13  1  0  0  0  0
 15  3  2  0  0  0  0
 15  8  1  0  0  0  0
 16  6  1  0  0  0  0
 16 21  1  0  0  0  0
 17 16  2  0  0  0  0
 18 17  1  0  0  0  0
 18 19  2  0  0  0  0
 19 20  1  0  0  0  0
 20 21  2  0  0  0  0
 20 31  1  0  0  0  0
 21 32  1  0  0  0  0
 22  4  1  0  0  0  0
 23  7  1  0  0  0  0
 27 14  1  0  0  0  0
 28 17  1  0  0  0  0
 29 18  1  0  0  0  0
 30 19  1  0  0  0  0
 33  1  1  0  0  0  0
 34 35  1  0  0  0  0
 35 53  1  0  0  0  0
 35 36  2  0  0  0  0
 36 52  1  0  0  0  0
 37 36  1  0  0  0  0
 37 48  1  0  0  0  0
 38 37  2  0  0  0  0
 39 40  1  6  0  0  0
 39 34  1  0  0  0  0
 39 38  1  0  0  0  0
 41 40  2  0  0  0  0
 41 42  1  0  0  0  0
 42 43  2  0  0  0  0
 43 38  1  0  0  0  0
 43 44  1  0  0  0  0
 45 42  1  0  0  0  0
 46 41  1  0  0  0  0
 47 40  1  0  0  0  0
 48 50  1  0  0  0  0
 49 48  2  0  0  0  0
 50 51  1  0  0  0  0
 53 54  1  0  0  0  0
 54 55  2  0  0  0  0
 54 63  1  0  0  0  0
 55 62  1  0  0  0  0
 56 61  1  0  0  0  0
 56 55  1  0  0  0  0
 57 56  2  0  0  0  0
 58 57  1  0  0  0  0
 58 53  2  0  0  0  0
 59 58  1  0  0  0  0
 60 57  1  0  0  0  0
M  END
$$$$
