CSD_code = CIJQEU | q = 1 | S = 0 | Stoichiometry = C20H24ClN4OOsS(1+) | MND = 6
 OpenBabel04212202023D

 52 57  0  0  1  0  0  0  0  0999 V2000
   10.3309    3.2650    9.9435 Os  0  0  0  0  0  0  0  0  0  0  0  0
    7.3077    2.8244   11.6648 C   0  0  0  0  0  0  0  0  0  0  0  0
    6.3320    3.2487   11.8701 H   0  0  0  0  0  0  0  0  0  0  0  0
    7.8980    2.7235   12.5683 H   0  0  0  0  0  0  0  0  0  0  0  0
    7.1974    1.8621   11.1752 H   0  0  0  0  0  0  0  0  0  0  0  0
   10.1010    3.3070    7.8778 N   0  0  2  0  0  4  0  0  0  0  0  0
    7.3225    4.1686    9.3914 O   0  0  0  0  0  1  0  0  0  0  0  0
    8.2023    3.9413   10.5465 S   0  0  0  0  0  0  0  0  0  0  0  0
   10.5928    3.2287   12.2645 Cl  0  0  0  0  0  0  0  0  0  0  0  0
    8.1060    5.4362   11.5746 C   0  0  0  0  0  0  0  0  0  0  0  0
    7.0699    5.6147   11.8361 H   0  0  0  0  0  0  0  0  0  0  0  0
    8.4919    6.2731   11.0014 H   0  0  0  0  0  0  0  0  0  0  0  0
    8.7154    5.2657   12.4549 H   0  0  0  0  0  0  0  0  0  0  0  0
    9.7294    4.6993    7.6038 C   0  0  0  0  0  0  0  0  0  0  0  0
    8.6785    4.8349    7.8876 H   0  0  0  0  0  0  0  0  0  0  0  0
    9.8270    4.9545    6.5420 H   0  0  0  0  0  0  0  0  0  0  0  0
   10.8961    5.1782    9.6791 N   0  0  0  0  0  0  0  0  0  0  0  0
   10.5531    5.6342    8.4589 C   0  0  2  0  0  3  0  0  0  0  0  0
   10.8998    6.9066    8.0376 C   0  0  0  0  0  0  0  0  0  0  0  0
   10.6091    7.2458    7.0557 H   0  0  0  0  0  0  0  0  0  0  0  0
    9.7168    1.3559    9.7511 N   0  0  0  0  0  0  0  0  0  0  0  0
    9.0338    2.3305    7.6374 C   0  0  0  0  0  0  0  0  0  0  0  0
    8.9712    2.0342    6.5836 H   0  0  0  0  0  0  0  0  0  0  0  0
    8.0797    2.7952    7.9153 H   0  0  0  0  0  0  0  0  0  0  0  0
   11.5910    5.9717   10.4941 C   0  0  0  0  0  0  0  0  0  0  0  0
   11.8337    5.5503   11.4610 H   0  0  0  0  0  0  0  0  0  0  0  0
   11.9646    7.2568   10.1440 C   0  0  0  0  0  0  0  0  0  0  0  0
   12.5174    7.8656   10.8399 H   0  0  0  0  0  0  0  0  0  0  0  0
   11.6124    7.7368    8.8921 C   0  0  0  0  0  0  0  0  0  0  0  0
   11.8844    8.7332    8.5829 H   0  0  0  0  0  0  0  0  0  0  0  0
   12.1714    2.6220    9.4638 N   0  0  0  0  0  0  0  0  0  0  0  0
   11.3537    2.9345    7.1945 C   0  0  0  0  0  0  0  0  0  0  0  0
   11.1683    2.1464    6.4560 H   0  0  0  0  0  0  0  0  0  0  0  0
   11.7473    3.7993    6.6490 H   0  0  0  0  0  0  0  0  0  0  0  0
    9.8631    0.3357   10.5963 C   0  0  0  0  0  3  0  0  0  0  0  0
   10.2656    0.5891   11.5685 H   0  0  0  0  0  0  0  0  0  0  0  0
    9.5121   -0.9611   10.2672 C   0  0  0  0  0  0  0  0  0  0  0  0
    9.6408   -1.7534   10.9856 H   0  0  0  0  0  0  0  0  0  0  0  0
    8.9964   -1.2132    9.0051 C   0  0  0  0  0  0  0  0  0  0  0  0
    8.7128   -2.2109    8.7110 H   0  0  0  0  0  0  0  0  0  0  0  0
    8.8518   -0.1527    8.1212 C   0  0  0  0  0  0  0  0  0  0  0  0
    8.4533   -0.3112    7.1315 H   0  0  0  0  0  0  0  0  0  0  0  0
    9.2176    1.1209    8.5229 C   0  0  0  0  0  0  0  0  0  0  0  0
   13.1094    2.2561   10.3458 C   0  0  0  0  0  3  0  0  0  0  0  0
   12.8559    2.4036   11.3880 H   0  0  0  0  0  0  0  0  0  0  0  0
   14.3238    1.7231    9.9616 C   0  0  0  0  0  0  0  0  0  0  0  0
   15.0477    1.4437   10.7088 H   0  0  0  0  0  0  0  0  0  0  0  0
   14.5872    1.5538    8.6092 C   0  0  0  0  0  0  0  0  0  0  0  0
   15.5221    1.1355    8.2734 H   0  0  0  0  0  0  0  0  0  0  0  0
   13.6186    1.9371    7.6952 C   0  0  0  0  0  0  0  0  0  0  0  0
   13.7845    1.8273    6.6349 H   0  0  0  0  0  0  0  0  0  0  0  0
   12.4238    2.4696    8.1537 C   0  0  0  0  0  0  0  0  0  0  0  0
  1  8  1  0  0  0  0
  1  9  1  0  0  0  0
  2  3  1  0  0  0  0
  2  4  1  0  0  0  0
  5  2  1  0  0  0  0
  6 32  1  6  0  0  0
  6  1  1  0  0  0  0
  7  8  1  0  0  0  0
  8 10  1  0  0  0  0
  8  2  1  0  0  0  0
 10 11  1  0  0  0  0
 10 13  1  0  0  0  0
 12 10  1  0  0  0  0
 14  6  1  0  0  0  0
 14 15  1  0  0  0  0
 14 18  1  0  0  0  0
 16 14  1  0  0  0  0
 17  1  1  0  0  0  0
 17 25  1  0  0  0  0
 18 19  1  1  0  0  0
 18 17  1  0  0  0  0
 19 29  2  0  0  0  0
 20 19  1  0  0  0  0
 21  1  1  0  0  0  0
 21 35  1  0  0  0  0
 22  6  1  0  0  0  0
 22 24  1  0  0  0  0
 22 43  1  0  0  0  0
 23 22  1  0  0  0  0
 25 26  1  0  0  0  0
 27 25  2  0  0  0  0
 27 28  1  0  0  0  0
 29 27  1  0  0  0  0
 30 29  1  0  0  0  0
 31  1  1  0  0  0  0
 31 44  1  0  0  0  0
 32 52  1  0  0  0  0
 33 32  1  0  0  0  0
 34 32  1  0  0  0  0
 35 36  1  0  0  0  0
 37 35  1  0  0  0  0
 37 38  1  0  0  0  0
 39 37  2  0  0  0  0
 40 39  1  0  0  0  0
 41 43  2  0  0  0  0
 41 39  1  0  0  0  0
 42 41  1  0  0  0  0
 43 21  1  0  0  0  0
 44 45  1  0  0  0  0
 46 44  1  0  0  0  0
 46 47  1  0  0  0  0
 48 46  2  0  0  0  0
 49 48  1  0  0  0  0
 50 52  2  0  0  0  0
 50 48  1  0  0  0  0
 51 50  1  0  0  0  0
 52 31  1  0  0  0  0
M  END
$$$$
