CSD_code = CIJQIX | q = 1 | S = 0 | Stoichiometry = C18H23ClN3RuS(1+) | MND = 9
 OpenBabel04212202023D

 47 47  0  0  1  0  0  0  0  0999 V2000
   -1.0217   10.0292   10.4919 Ru  0  0  0  0  0  0  0  0  0  0  0  0
    1.0402   10.7330   11.3214 Cl  0  0  0  0  0 15  0  0  0  0  0  0
    0.2298    8.3668    9.3719 S   0  0  0  0  0  0  0  0  0  0  0  0
   -2.1852    8.3251   11.4458 C   0  0  1  0  0  0  0  0  0  0  0  0
   -1.9227    7.2716   11.4010 H   0  0  0  0  0  0  0  0  0  0  0  0
   -1.7119    9.1094   12.5065 C   0  0  0  0  0  3  0  0  0  0  0  0
   -1.0839    8.6571   13.2676 H   0  0  0  0  0  0  0  0  0  0  0  0
   -2.2011   10.4306   12.7129 C   0  0  0  0  0  0  0  0  0  0  0  0
   -3.0539   10.9642   11.7443 C   0  0  0  0  0  0  0  0  0  0  0  0
   -3.4854   11.9465   11.8874 H   0  0  0  0  0  0  0  0  0  0  0  0
   -3.0463    8.8670   10.4581 C   0  0  0  0  0  0  0  0  0  0  0  0
   -3.4082   10.2194   10.5945 C   0  0  0  0  0  0  0  0  0  0  0  0
   -4.0994   10.6639    9.8879 H   0  0  0  0  0  0  0  0  0  0  0  0
   -1.8195   11.1868   13.9413 C   0  0  0  0  0  0  0  0  0  0  0  0
   -0.7499   11.4003   13.9291 H   0  0  0  0  0  0  0  0  0  0  0  0
   -2.0224   10.5892   14.8292 H   0  0  0  0  0  0  0  0  0  0  0  0
   -2.3637   12.1248   14.0101 H   0  0  0  0  0  0  0  0  0  0  0  0
   -3.6015    8.0044    9.3505 C   0  0  0  0  0  0  0  0  0  0  0  0
   -3.0817    7.0406    9.3746 H   0  0  0  0  0  0  0  0  0  0  0  0
   -0.5685   11.1312    8.8769 N   0  0  0  0  0  0  0  0  0  0  0  0
    0.3104   10.5756    7.9748 N   0  0  0  0  0  0  0  0  0  0  0  0
    0.6331   11.1725    7.2134 H   0  0  0  0  0  0  0  0  0  0  0  0
    1.6726    8.8557    7.2229 N   0  0  0  0  0  0  0  0  0  0  0  0
    2.0919    9.4353    6.5138 H   0  0  0  0  0  0  0  0  0  0  0  0
    2.0664    7.9413    7.3781 H   0  0  0  0  0  0  0  0  0  0  0  0
   -1.3169   13.3017   10.7887 C   0  0  0  0  0  0  0  0  0  0  0  0
   -0.4289   12.7733   11.1143 H   0  0  0  0  0  0  0  0  0  0  0  0
   -1.7792   13.1365    9.4777 C   0  0  0  0  0  0  0  0  0  0  0  0
   -1.0490   12.2858    8.5572 C   0  0  0  0  0  3  0  0  0  0  0  0
   -0.8546   12.6900    7.5635 H   0  0  0  0  0  0  0  0  0  0  0  0
   -2.8694   13.8897    9.0332 C   0  0  0  0  0  0  0  0  0  0  0  0
   -3.2192   13.7756    8.0179 H   0  0  0  0  0  0  0  0  0  0  0  0
   -3.5070   14.7625    9.8935 C   0  0  0  0  0  0  0  0  0  0  0  0
   -4.3567   15.3311    9.5486 H   0  0  0  0  0  0  0  0  0  0  0  0
    0.8006    9.3284    8.1163 C   0  0  0  0  0  0  0  0  0  0  0  0
   -1.9417   14.2048   11.6291 C   0  0  0  0  0  0  0  0  0  0  0  0
   -1.5586   14.3576   12.6266 H   0  0  0  0  0  0  0  0  0  0  0  0
   -3.0423   14.9260   11.1905 C   0  0  0  0  0  0  0  0  0  0  0  0
   -3.5277   15.6271   11.8516 H   0  0  0  0  0  0  0  0  0  0  0  0
   -3.3630    8.6387    7.9782 C   0  0  0  0  0  0  0  0  0  0  0  0
   -3.6568    7.9449    7.1956 H   0  0  0  0  0  0  0  0  0  0  0  0
   -2.3045    8.8745    7.8507 H   0  0  0  0  0  0  0  0  0  0  0  0
   -3.9439    9.5498    7.8573 H   0  0  0  0  0  0  0  0  0  0  0  0
   -5.0943    7.7565    9.5894 C   0  0  0  0  0  0  0  0  0  0  0  0
   -5.6543    8.6877    9.5484 H   0  0  0  0  0  0  0  0  0  0  0  0
   -5.2559    7.2989   10.5625 H   0  0  0  0  0  0  0  0  0  0  0  0
   -5.4827    7.0876    8.8267 H   0  0  0  0  0  0  0  0  0  0  0  0
  1  4  1  0  0  0  0
  4  5  1  6  0  0  0
  4  6  1  0  0  0  0
  6  8  1  0  0  0  0
  6  7  1  0  0  0  0
  8 14  1  0  0  0  0
  9 10  1  0  0  0  0
  9  8  2  0  0  0  0
 11 12  2  0  0  0  0
 11  4  1  0  0  0  0
 12  9  1  0  0  0  0
 13 12  1  0  0  0  0
 14 17  1  0  0  0  0
 14 16  1  0  0  0  0
 15 14  1  0  0  0  0
 18 19  1  0  0  0  0
 18 44  1  0  0  0  0
 18 11  1  0  0  0  0
 20  1  1  0  0  0  0
 21 35  1  0  0  0  0
 21 20  1  0  0  0  0
 22 21  1  0  0  0  0
 23 25  1  0  0  0  0
 23 35  1  0  0  0  0
 24 23  1  0  0  0  0
 26 27  1  0  0  0  0
 26 36  1  0  0  0  0
 28 26  2  0  0  0  0
 29 20  1  0  0  0  0
 29 28  1  0  0  0  0
 30 29  1  0  0  0  0
 31 28  1  0  0  0  0
 31 33  2  0  0  0  0
 32 31  1  0  0  0  0
 33 38  1  0  0  0  0
 34 33  1  0  0  0  0
 35  3  2  0  0  0  0
 36 37  1  0  0  0  0
 38 36  2  0  0  0  0
 38 39  1  0  0  0  0
 40 18  1  0  0  0  0
 41 40  1  0  0  0  0
 42 40  1  0  0  0  0
 43 40  1  0  0  0  0
 44 46  1  0  0  0  0
 45 44  1  0  0  0  0
 47 44  1  0  0  0  0
M  END
$$$$
