CSD_code = CIKBOQ | q = 0 | S = 0 | Stoichiometry = C22H24Br4N6Pd | MND = 4
 OpenBabel04212202023D

 57 60  0  0  1  0  0  0  0  0999 V2000
   -1.9038    9.4796    4.0244 Pd  0  0  0  0  0  0  0  0  0  0  0  0
   -1.2017    9.2163    1.6894 Br  0  0  0  0  0  0  0  0  0  0  0  0
   -0.6207   14.7348    1.2350 Br  0  0  0  0  0  0  0  0  0  0  0  0
    0.7797    9.5639    5.3667 N   0  0  0  0  0  0  0  0  0  0  0  0
    0.4551   11.3414    4.2500 N   0  0  0  0  0  0  0  0  0  0  0  0
    1.6493   11.5037    4.8543 N   0  0  0  0  0  0  0  0  0  0  0  0
   -0.1077   10.1698    4.5353 C   0  0  0  0  0  0  0  0  0  0  0  0
    1.8273   10.4212    5.5362 C   0  0  0  0  0  0  0  0  0  0  0  0
    2.6886   10.2158    6.1367 H   0  0  0  0  0  0  0  0  0  0  0  0
    0.5861    8.2902    5.9408 C   0  0  0  0  0  0  0  0  0  0  0  0
    0.9366    8.0610    7.2642 C   0  0  0  0  0  0  0  0  0  0  0  0
    1.3578    8.8596    7.8561 H   0  0  0  0  0  0  0  0  0  0  0  0
    0.7096    6.8152    7.8218 C   0  0  0  0  0  0  0  0  0  0  0  0
    0.9721    6.6391    8.8535 H   0  0  0  0  0  0  0  0  0  0  0  0
    0.1414    5.8040    7.0652 C   0  0  0  0  0  0  0  0  0  0  0  0
   -0.0399    4.8340    7.5016 H   0  0  0  0  0  0  0  0  0  0  0  0
   -0.2006    6.0344    5.7422 C   0  0  0  0  0  0  0  0  0  0  0  0
   -0.6311    5.2382    5.1534 H   0  0  0  0  0  0  0  0  0  0  0  0
    0.0127    7.2786    5.1714 C   0  0  0  0  0  0  0  0  0  0  0  0
   -0.2104    7.4433    4.1138 H   0  0  0  0  0  0  0  0  0  0  0  0
   -0.0678   12.3222    3.3382 C   0  0  0  0  0  0  0  0  0  0  0  0
   -0.0124   13.3081    3.8069 H   0  0  0  0  0  0  0  0  0  0  0  0
   -1.1220   12.0589    3.1559 H   0  0  0  0  0  0  0  0  0  0  0  0
    0.7077   12.3042    2.0160 C   0  0  0  0  0  0  0  0  0  0  0  0
    1.6520   12.8386    2.1359 H   0  0  0  0  0  0  0  0  0  0  0  0
    0.9287   11.2677    1.7453 H   0  0  0  0  0  0  0  0  0  0  0  0
   -0.1079   12.8860    0.8813 C   0  0  0  0  0  0  0  0  0  0  0  0
   -1.0353   12.3319    0.7381 H   0  0  0  0  0  0  0  0  0  0  0  0
    0.4594   12.9004   -0.0473 H   0  0  0  0  0  0  0  0  0  0  0  0
   -2.6056    9.7442    6.3589 Br  0  0  0  0  0  0  0  0  0  0  0  0
   -3.1872    4.2254    6.8133 Br  0  0  0  0  0  0  0  0  0  0  0  0
   -4.5876    9.3965    2.6816 N   0  0  0  0  0  0  0  0  0  0  0  0
   -4.2631    7.6188    3.7982 N   0  0  0  0  0  0  0  0  0  0  0  0
   -5.4573    7.4567    3.1940 N   0  0  0  0  0  0  0  0  0  0  0  0
   -3.7002    8.7904    3.5130 C   0  0  1  0  0  3  0  0  0  0  0  0
   -5.6352    8.5392    2.5120 C   0  0  0  0  0  0  0  0  0  0  0  0
   -6.4965    8.7447    1.9116 H   0  0  0  0  0  0  0  0  0  0  0  0
   -4.3939   10.6702    2.1076 C   0  0  0  0  0  0  0  0  0  0  0  0
   -4.7444   10.8994    0.7842 C   0  0  0  0  0  0  0  0  0  0  0  0
   -5.1656   10.1009    0.1922 H   0  0  0  0  0  0  0  0  0  0  0  0
   -4.5175   12.1453    0.2267 C   0  0  0  0  0  0  0  0  0  0  0  0
   -4.7800   12.3215   -0.8050 H   0  0  0  0  0  0  0  0  0  0  0  0
   -3.9492   13.1565    0.9833 C   0  0  0  0  0  0  0  0  0  0  0  0
   -3.7679   14.1265    0.5470 H   0  0  0  0  0  0  0  0  0  0  0  0
   -3.6072   12.9260    2.3063 C   0  0  0  0  0  0  0  0  0  0  0  0
   -3.1766   13.7221    2.8952 H   0  0  0  0  0  0  0  0  0  0  0  0
   -3.8205   11.6817    2.8771 C   0  0  0  0  0  0  0  0  0  0  0  0
   -3.5976   11.5171    3.9347 H   0  0  0  0  0  0  0  0  0  0  0  0
   -3.7402    6.6380    4.7100 C   0  0  0  0  0  0  0  0  0  0  0  0
   -3.7956    5.6521    4.2412 H   0  0  0  0  0  0  0  0  0  0  0  0
   -2.6860    6.9012    4.8923 H   0  0  0  0  0  0  0  0  0  0  0  0
   -4.5157    6.6560    6.0322 C   0  0  0  0  0  0  0  0  0  0  0  0
   -5.4600    6.1216    5.9123 H   0  0  0  0  0  0  0  0  0  0  0  0
   -4.7367    7.6925    6.3029 H   0  0  0  0  0  0  0  0  0  0  0  0
   -3.7001    6.0741    7.1669 C   0  0  0  0  0  0  0  0  0  0  0  0
   -2.7726    6.6283    7.3101 H   0  0  0  0  0  0  0  0  0  0  0  0
   -4.2673    6.0598    8.0955 H   0  0  0  0  0  0  0  0  0  0  0  0
  1  7  2  0  0  0  0
  1 30  1  0  0  0  0
  2  1  1  0  0  0  0
  4  8  1  0  0  0  0
  4 10  1  0  0  0  0
  5  7  1  0  0  0  0
  5  6  1  0  0  0  0
  6  8  2  0  0  0  0
  7  4  1  0  0  0  0
  8  9  1  0  0  0  0
 10 11  1  0  0  0  0
 11 13  2  0  0  0  0
 11 12  1  0  0  0  0
 13 14  1  0  0  0  0
 15 16  1  0  0  0  0
 15 13  1  0  0  0  0
 17 15  2  0  0  0  0
 18 17  1  0  0  0  0
 19 17  1  0  0  0  0
 19 10  2  0  0  0  0
 20 19  1  0  0  0  0
 21 22  1  0  0  0  0
 21  5  1  0  0  0  0
 23 21  1  0  0  0  0
 24 25  1  0  0  0  0
 24 21  1  0  0  0  0
 26 24  1  0  0  0  0
 27  3  1  0  0  0  0
 27 24  1  0  0  0  0
 28 27  1  0  0  0  0
 29 27  1  0  0  0  0
 31 55  1  0  0  0  0
 32 35  1  0  0  0  0
 33 49  1  0  0  0  0
 34 33  1  0  0  0  0
 35 33  1  0  0  0  0
 35  1  1  6  0  0  0
 36 32  1  0  0  0  0
 36 34  2  0  0  0  0
 37 36  1  0  0  0  0
 38 32  1  0  0  0  0
 38 47  1  0  0  0  0
 39 38  2  0  0  0  0
 40 39  1  0  0  0  0
 41 39  1  0  0  0  0
 41 43  2  0  0  0  0
 42 41  1  0  0  0  0
 43 45  1  0  0  0  0
 44 43  1  0  0  0  0
 45 47  2  0  0  0  0
 45 46  1  0  0  0  0
 47 48  1  0  0  0  0
 49 51  1  0  0  0  0
 49 52  1  0  0  0  0
 50 49  1  0  0  0  0
 52 54  1  0  0  0  0
 52 55  1  0  0  0  0
 53 52  1  0  0  0  0
 55 56  1  0  0  0  0
 55 57  1  0  0  0  0
M  END
$$$$
