CSD_code = CIKBUW | q = 0 | S = 0 | Stoichiometry = C22H36Br4N6Pd | MND = 4
 OpenBabel04212202023D

 69 72  0  0  1  0  0  0  0  0999 V2000
    6.2733    4.1282    9.7643 Pd  0  0  0  0  0  0  0  0  0  0  0  0
    8.3909    2.9251    9.5123 Br  0  0  0  0  0  0  0  0  0  0  0  0
    4.8208    3.4904    3.3318 Br  0  0  0  0  0  0  0  0  0  0  0  0
    4.4358    1.7856    9.0888 N   0  0  0  0  0  0  0  0  0  0  0  0
    5.4022    2.5834    7.3718 N   0  0  0  0  0  0  0  0  0  0  0  0
    4.6297    1.5777    6.9200 N   0  0  0  0  0  0  0  0  0  0  0  0
    5.3104    2.7435    8.6910 C   0  0  1  0  0  3  0  0  0  0  0  0
    4.0556    1.1014    7.9760 C   0  0  0  0  0  0  0  0  0  0  0  0
    3.3744    0.2784    7.9556 H   0  0  0  0  0  0  0  0  0  0  0  0
    3.9755    1.6142   10.4587 C   0  0  0  0  0  0  0  0  0  0  0  0
    3.4950    2.5596   10.7554 H   0  0  0  0  0  0  0  0  0  0  0  0
    2.9582    0.4838   10.5713 C   0  0  0  0  0  0  0  0  0  0  0  0
    2.0988    0.6897    9.9293 H   0  0  0  0  0  0  0  0  0  0  0  0
    3.4171   -0.4561   10.2528 H   0  0  0  0  0  0  0  0  0  0  0  0
    2.4928    0.3481   12.0190 C   0  0  0  0  0  0  0  0  0  0  0  0
    1.7637   -0.4603   12.0907 H   0  0  0  0  0  0  0  0  0  0  0  0
    2.0009    1.2723   12.3298 H   0  0  0  0  0  0  0  0  0  0  0  0
    3.6795    0.0685   12.9342 C   0  0  0  0  0  0  0  0  0  0  0  0
    3.3395   -0.0201   13.9668 H   0  0  0  0  0  0  0  0  0  0  0  0
    4.1442   -0.8788   12.6512 H   0  0  0  0  0  0  0  0  0  0  0  0
    4.7045    1.1927   12.8242 C   0  0  0  0  0  0  0  0  0  0  0  0
    5.5623    0.9708   13.4609 H   0  0  0  0  0  0  0  0  0  0  0  0
    4.2521    2.1255   13.1700 H   0  0  0  0  0  0  0  0  0  0  0  0
    5.1730    1.3591   11.3821 C   0  0  0  0  0  0  0  0  0  0  0  0
    5.8762    2.2122   11.3131 H   0  0  0  0  0  0  0  0  0  0  0  0
    5.6967    0.4569   11.0533 H   0  0  0  0  0  0  0  0  0  0  0  0
    6.1201    3.4253    6.4525 C   0  0  0  0  0  0  0  0  0  0  0  0
    6.4460    2.8083    5.6117 H   0  0  0  0  0  0  0  0  0  0  0  0
    7.0004    3.8280    6.9734 H   0  0  0  0  0  0  0  0  0  0  0  0
    5.2200    4.5665    5.9669 C   0  0  0  0  0  0  0  0  0  0  0  0
    4.7644    5.0585    6.8349 H   0  0  0  0  0  0  0  0  0  0  0  0
    5.8304    5.2994    5.4379 H   0  0  0  0  0  0  0  0  0  0  0  0
    4.1082    4.0738    5.0597 C   0  0  0  0  0  0  0  0  0  0  0  0
    3.3928    4.8651    4.8417 H   0  0  0  0  0  0  0  0  0  0  0  0
    3.5935    3.2095    5.4781 H   0  0  0  0  0  0  0  0  0  0  0  0
    4.1583    5.3301   10.0149 Br  0  0  0  0  0  0  0  0  0  0  0  0
    7.7260    4.7665   16.1959 Br  0  0  0  0  0  0  0  0  0  0  0  0
    8.1109    6.4714   10.4390 N   0  0  0  0  0  0  0  0  0  0  0  0
    7.1445    5.6737   12.1560 N   0  0  0  0  0  0  0  0  0  0  0  0
    7.9172    6.6792   12.6078 N   0  0  0  0  0  0  0  0  0  0  0  0
    7.2359    5.5139   10.8368 C   0  0  0  0  0  0  0  0  0  0  0  0
    8.4912    7.1555   11.5517 C   0  0  0  0  0  0  0  0  0  0  0  0
    9.1726    7.9784   11.5721 H   0  0  0  0  0  0  0  0  0  0  0  0
    8.5713    6.6427    9.0690 C   0  0  0  0  0  0  0  0  0  0  0  0
    9.0519    5.6973    8.7724 H   0  0  0  0  0  0  0  0  0  0  0  0
    9.5887    7.7731    8.9565 C   0  0  0  0  0  0  0  0  0  0  0  0
   10.4481    7.5672    9.5985 H   0  0  0  0  0  0  0  0  0  0  0  0
    9.1298    8.7130    9.2749 H   0  0  0  0  0  0  0  0  0  0  0  0
   10.0541    7.9088    7.5088 C   0  0  0  0  0  0  0  0  0  0  0  0
   10.7832    8.7173    7.4371 H   0  0  0  0  0  0  0  0  0  0  0  0
   10.5460    6.9846    7.1979 H   0  0  0  0  0  0  0  0  0  0  0  0
    8.8675    8.1885    6.5936 C   0  0  0  0  0  0  0  0  0  0  0  0
    9.2075    8.2770    5.5609 H   0  0  0  0  0  0  0  0  0  0  0  0
    8.4027    9.1357    6.8765 H   0  0  0  0  0  0  0  0  0  0  0  0
    7.8425    7.0642    6.7034 C   0  0  0  0  0  0  0  0  0  0  0  0
    6.9847    7.2861    6.0667 H   0  0  0  0  0  0  0  0  0  0  0  0
    8.2949    6.1314    6.3577 H   0  0  0  0  0  0  0  0  0  0  0  0
    7.3740    6.8979    8.1455 C   0  0  0  0  0  0  0  0  0  0  0  0
    6.6706    6.0450    8.2142 H   0  0  0  0  0  0  0  0  0  0  0  0
    6.8503    7.8001    8.4742 H   0  0  0  0  0  0  0  0  0  0  0  0
    6.4268    4.8316   13.0753 C   0  0  0  0  0  0  0  0  0  0  0  0
    6.1009    5.4486   13.9162 H   0  0  0  0  0  0  0  0  0  0  0  0
    5.5465    4.4290   12.5545 H   0  0  0  0  0  0  0  0  0  0  0  0
    7.3269    3.6904   13.5608 C   0  0  0  0  0  0  0  0  0  0  0  0
    7.7825    3.1984   12.6928 H   0  0  0  0  0  0  0  0  0  0  0  0
    6.7166    2.9575   14.0899 H   0  0  0  0  0  0  0  0  0  0  0  0
    8.4387    4.1831   14.4680 C   0  0  0  0  0  0  0  0  0  0  0  0
    9.1541    3.3919   14.6861 H   0  0  0  0  0  0  0  0  0  0  0  0
    8.9534    5.0475   14.0497 H   0  0  0  0  0  0  0  0  0  0  0  0
  1 36  1  0  0  0  0
  1 41  2  0  0  0  0
  2  1  1  0  0  0  0
  3 33  1  0  0  0  0
  4 10  1  0  0  0  0
  5  7  1  0  0  0  0
  6  5  1  0  0  0  0
  6  8  2  0  0  0  0
  7  4  1  0  0  0  0
  7  1  1  6  0  0  0
  8  4  1  0  0  0  0
  9  8  1  0  0  0  0
 10 12  1  0  0  0  0
 10 11  1  0  0  0  0
 10 24  1  0  0  0  0
 12 15  1  0  0  0  0
 13 12  1  0  0  0  0
 14 12  1  0  0  0  0
 15 16  1  0  0  0  0
 15 17  1  0  0  0  0
 15 18  1  0  0  0  0
 18 19  1  0  0  0  0
 20 18  1  0  0  0  0
 21 18  1  0  0  0  0
 21 23  1  0  0  0  0
 21 22  1  0  0  0  0
 24 21  1  0  0  0  0
 25 24  1  0  0  0  0
 26 24  1  0  0  0  0
 27 29  1  0  0  0  0
 27  5  1  0  0  0  0
 28 27  1  0  0  0  0
 30 27  1  0  0  0  0
 30 31  1  0  0  0  0
 32 30  1  0  0  0  0
 33 35  1  0  0  0  0
 33 30  1  0  0  0  0
 34 33  1  0  0  0  0
 38 41  1  0  0  0  0
 38 42  1  0  0  0  0
 39 40  1  0  0  0  0
 39 61  1  0  0  0  0
 41 39  1  0  0  0  0
 42 43  1  0  0  0  0
 42 40  2  0  0  0  0
 44 38  1  0  0  0  0
 45 44  1  0  0  0  0
 46 44  1  0  0  0  0
 46 48  1  0  0  0  0
 46 47  1  0  0  0  0
 49 46  1  0  0  0  0
 50 49  1  0  0  0  0
 51 49  1  0  0  0  0
 52 55  1  0  0  0  0
 52 54  1  0  0  0  0
 52 49  1  0  0  0  0
 53 52  1  0  0  0  0
 55 58  1  0  0  0  0
 56 55  1  0  0  0  0
 57 55  1  0  0  0  0
 58 59  1  0  0  0  0
 58 60  1  0  0  0  0
 58 44  1  0  0  0  0
 61 64  1  0  0  0  0
 61 62  1  0  0  0  0
 63 61  1  0  0  0  0
 64 66  1  0  0  0  0
 64 67  1  0  0  0  0
 65 64  1  0  0  0  0
 67 68  1  0  0  0  0
 67 37  1  0  0  0  0
 69 67  1  0  0  0  0
M  END
$$$$
