CSD_code = CIKFUY | q = 0 | S = 0 | Stoichiometry = C12H12Br2N4O2Pt | MND = 6
 OpenBabel04212202023D

 33 35  0  0  0  0  0  0  0  0999 V2000
    1.9704    1.8391    2.8740 Pt  0  0  0  0  0  0  0  0  0  0  0  0
    3.7124    3.5850    2.3550 Br  0  0  0  0  0  0  0  0  0  0  0  0
    0.2450    0.0732    3.3875 Br  0  0  0  0  0  0  0  0  0  0  0  0
    1.1457    3.0522    4.4144 N   0  0  0  0  0  0  0  0  0  0  0  0
    0.6929    2.7247    1.4234 N   0  0  0  0  0  0  0  0  0  0  0  0
    2.8739    0.6213    1.5667 N   0  0  0  0  0  0  0  0  0  0  0  0
    3.2385    0.8854    4.0944 N   0  0  0  0  0  0  0  0  0  0  0  0
    4.5821   -0.8185    1.3061 O   0  0  0  0  0  0  0  0  0  0  0  0
    4.7062   -0.8139    4.2257 O   0  0  0  0  0  0  0  0  0  0  0  0
    1.9717    3.5916    5.3114 C   0  0  0  0  0  3  0  0  0  0  0  0
    1.5134    4.3165    6.3976 C   0  0  0  0  0  0  0  0  0  0  0  0
    0.1488    4.4925    6.5618 C   0  0  0  0  0  0  0  0  0  0  0  0
   -0.7051    3.9333    5.6236 C   0  0  0  0  0  0  0  0  0  0  0  0
   -0.1677    3.2193    4.5682 C   0  0  0  0  0  0  0  0  0  0  0  0
    0.5142    4.0429    1.3407 C   0  0  0  0  0  3  0  0  0  0  0  0
   -0.2478    4.6266    0.3451 C   0  0  0  0  0  0  0  0  0  0  0  0
   -0.8444    3.8156   -0.6080 C   0  0  0  0  0  0  0  0  0  0  0  0
   -0.6558    2.4458   -0.5184 C   0  0  0  0  0  0  0  0  0  0  0  0
    0.1180    1.9398    0.5117 C   0  0  0  0  0  0  0  0  0  0  0  0
    3.8766   -0.1444    2.0287 C   0  0  0  0  0  0  0  0  0  0  0  0
    3.9952   -0.0879    3.5609 C   0  0  0  0  0  0  0  0  0  0  0  0
    3.0331    3.4500    5.1538 H   0  0  0  0  0  0  0  0  0  0  0  0
    2.2207    4.7306    7.0976 H   0  0  0  0  0  0  0  0  0  0  0  0
   -0.2403    5.0486    7.4004 H   0  0  0  0  0  0  0  0  0  0  0  0
   -1.7747    4.0363    5.7073 H   0  0  0  0  0  0  0  0  0  0  0  0
   -0.8149    2.7541    3.8362 H   0  0  0  0  0  0  0  0  0  0  0  0
    1.0086    4.6569    2.0823 H   0  0  0  0  0  0  0  0  0  0  0  0
   -0.3598    5.6983    0.3190 H   0  0  0  0  0  0  0  0  0  0  0  0
   -1.4391    4.2416   -1.4012 H   0  0  0  0  0  0  0  0  0  0  0  0
   -1.0977    1.7710   -1.2333 H   0  0  0  0  0  0  0  0  0  0  0  0
    0.2696    0.8727    0.6112 H   0  0  0  0  0  0  0  0  0  0  0  0
    2.8165    0.6879    0.5526 H   0  0  0  0  0  0  0  0  0  0  0  0
    3.2131    0.9018    5.1118 H   0  0  0  0  0  0  0  0  0  0  0  0
  1  3  1  0  0  0  0
  1  7  1  0  0  0  0
  1  4  1  0  0  0  0
  2  1  1  0  0  0  0
  4 14  1  0  0  0  0
  4 10  1  0  0  0  0
  5  1  1  0  0  0  0
  6 20  1  0  0  0  0
  6  1  1  0  0  0  0
  7 33  1  0  0  0  0
  8 20  2  0  0  0  0
 10 11  1  0  0  0  0
 11 12  2  0  0  0  0
 11 23  1  0  0  0  0
 12 24  1  0  0  0  0
 13 25  1  0  0  0  0
 13 12  1  0  0  0  0
 14 13  2  0  0  0  0
 15  5  1  0  0  0  0
 15 27  1  0  0  0  0
 16 15  1  0  0  0  0
 17 18  1  0  0  0  0
 17 16  2  0  0  0  0
 18 19  2  0  0  0  0
 19 31  1  0  0  0  0
 19  5  1  0  0  0  0
 20 21  1  0  0  0  0
 21  7  1  0  0  0  0
 21  9  2  0  0  0  0
 22 10  1  0  0  0  0
 26 14  1  0  0  0  0
 28 16  1  0  0  0  0
 29 17  1  0  0  0  0
 30 18  1  0  0  0  0
 32  6  1  0  0  0  0
M  END
$$$$
