CSD_code = CIKTIC | q = 0 | S = 0 | Stoichiometry = C28H27BrN4Pd | MND = 4
 OpenBabel04212202023D

 61 67  0  0  1  0  0  0  0  0999 V2000
   -0.3273    4.0388    3.7934 Br  0  0  0  0  0  0  0  0  0  0  0  0
   -1.1903    5.5828    7.7671 C   0  0  0  0  0  0  0  0  0  0  0  0
   -0.3496    6.5295    8.3418 C   0  0  0  0  0  0  0  0  0  0  0  0
   -0.7744    7.2879    9.4176 C   0  0  0  0  0  0  0  0  0  0  0  0
   -0.1367    8.0264    9.8817 H   0  0  0  0  0  0  0  0  0  0  0  0
   -2.0765    7.1007    9.8766 C   0  0  0  0  0  0  0  0  0  0  0  0
   -2.4290    7.7047   10.6996 H   0  0  0  0  0  0  0  0  0  0  0  0
   -2.9382    6.1819    9.3001 C   0  0  0  0  0  0  0  0  0  0  0  0
   -3.9510    6.0950    9.6659 H   0  0  0  0  0  0  0  0  0  0  0  0
   -2.4861    5.3944    8.2398 C   0  0  0  0  0  0  0  0  0  0  0  0
   -3.1663    4.3668    7.4567 C   0  0  2  0  0  3  0  0  0  0  0  0
   -4.6192    2.8194    6.6160 C   0  0  0  0  0  0  0  0  0  0  0  0
   -5.4808    3.2168    6.0664 H   0  0  0  0  0  0  0  0  0  0  0  0
   -4.8550    1.8079    6.9529 H   0  0  0  0  0  0  0  0  0  0  0  0
   -3.3373    2.8939    5.7611 C   0  0  2  0  0  0  0  0  0  0  0  0
   -3.5705    3.0641    4.7052 H   0  0  0  0  0  0  0  0  0  0  0  0
   -2.4243    1.6374    5.8689 C   0  0  0  0  0  0  0  0  0  0  0  0
   -3.0532    0.7459    5.9025 H   0  0  0  0  0  0  0  0  0  0  0  0
   -1.8009    1.5919    4.9743 H   0  0  0  0  0  0  0  0  0  0  0  0
   -1.5449    1.7387    7.0875 C   0  0  0  0  0  0  0  0  0  0  0  0
   -2.0457    1.5005    8.3608 C   0  0  0  0  0  0  0  0  0  0  0  0
   -3.0519    1.1239    8.4842 H   0  0  0  0  0  0  0  0  0  0  0  0
   -1.2693    1.7329    9.4840 C   0  0  0  0  0  0  0  0  0  0  0  0
   -1.6765    1.5353   10.4653 H   0  0  0  0  0  0  0  0  0  0  0  0
    0.0200    2.2187    9.3515 C   0  0  0  0  0  0  0  0  0  0  0  0
    0.6174    2.4157   10.2297 H   0  0  0  0  0  0  0  0  0  0  0  0
    0.5505    2.4227    8.0878 C   0  0  0  0  0  0  0  0  0  0  0  0
    1.5794    2.7416    7.9761 H   0  0  0  0  0  0  0  0  0  0  0  0
   -0.2240    2.1837    6.9562 C   0  0  0  0  0  0  0  0  0  0  0  0
    0.2397    2.2224    5.9701 H   0  0  0  0  0  0  0  0  0  0  0  0
   -4.9363    3.5192    8.9836 C   0  0  0  0  0  0  0  0  0  0  0  0
   -6.3054    3.2694    9.0254 C   0  0  0  0  0  0  0  0  0  0  0  0
   -6.8741    3.2336    8.1087 H   0  0  0  0  0  0  0  0  0  0  0  0
   -6.9424    3.0773   10.2371 C   0  0  0  0  0  0  0  0  0  0  0  0
   -8.0063    2.8892   10.2492 H   0  0  0  0  0  0  0  0  0  0  0  0
   -6.2393    3.1240   11.4328 C   0  0  0  0  0  0  0  0  0  0  0  0
   -4.8688    3.3573   11.3806 C   0  0  0  0  0  0  0  0  0  0  0  0
   -4.2993    3.3804   12.2987 H   0  0  0  0  0  0  0  0  0  0  0  0
   -4.2182    3.5435   10.1784 C   0  0  0  0  0  0  0  0  0  0  0  0
   -3.1503    3.6956   10.1571 H   0  0  0  0  0  0  0  0  0  0  0  0
   -6.9238    2.9244   12.7502 C   0  0  0  0  0  0  0  0  0  0  0  0
   -6.8532    3.8288   13.3539 H   0  0  0  0  0  0  0  0  0  0  0  0
   -6.4508    2.1167   13.3071 H   0  0  0  0  0  0  0  0  0  0  0  0
   -7.9745    2.6833   12.6109 H   0  0  0  0  0  0  0  0  0  0  0  0
    0.9944    5.8119    6.5319 C   0  0  2  0  0  3  0  0  0  0  0  0
    2.0229    7.2928    7.8646 C   0  0  0  0  0  0  0  0  0  0  0  0
    2.1512    7.9661    8.6869 H   0  0  0  0  0  0  0  0  0  0  0  0
    2.8752    6.9495    6.8677 C   0  0  0  0  0  0  0  0  0  0  0  0
    3.8769    7.2723    6.6699 H   0  0  0  0  0  0  0  0  0  0  0  0
    2.7841    5.4919    4.8501 C   0  0  0  0  0  0  0  0  0  0  0  0
    2.3067    4.5254    4.6639 H   0  0  0  0  0  0  0  0  0  0  0  0
    3.8583    5.3456    4.9902 H   0  0  0  0  0  0  0  0  0  0  0  0
    2.5101    6.4214    3.6731 C   0  0  0  0  0  0  0  0  0  0  0  0
    2.9189    5.9907    2.7646 H   0  0  0  0  0  0  0  0  0  0  0  0
    2.9537    7.4017    3.8365 H   0  0  0  0  0  0  0  0  0  0  0  0
    1.4359    6.5325    3.5420 H   0  0  0  0  0  0  0  0  0  0  0  0
   -2.6415    4.0435    6.3082 N   0  0  2  0  0  0  0  0  0  0  0  0
   -4.3028    3.6790    7.7505 N   0  0  0  0  0  0  0  0  0  0  0  0
    0.8727    6.5890    7.6493 N   0  0  0  0  0  0  0  0  0  0  0  0
    2.2332    6.0400    6.0681 N   0  0  0  0  0  0  0  0  0  0  0  0
   -0.6523    4.7532    6.0983 Pd  0  0  2  0  0  0  0  0  0  0  0  0
  1 61  1  0  0  0  0
  2 10  2  0  0  0  0
  2  3  1  0  0  0  0
  3  4  2  0  0  0  0
  4  6  1  0  0  0  0
  4  5  1  0  0  0  0
  6  7  1  0  0  0  0
  8  9  1  0  0  0  0
  8  6  2  0  0  0  0
 10  8  1  0  0  0  0
 11 58  1  0  0  0  0
 11 10  1  6  0  0  0
 12 14  1  0  0  0  0
 12 58  1  0  0  0  0
 13 12  1  0  0  0  0
 15 16  1  6  0  0  0
 15 17  1  0  0  0  0
 15 57  1  0  0  0  0
 15 12  1  0  0  0  0
 17 18  1  0  0  0  0
 17 20  1  0  0  0  0
 19 17  1  0  0  0  0
 20 21  1  0  0  0  0
 21 22  1  0  0  0  0
 21 23  2  0  0  0  0
 23 24  1  0  0  0  0
 25 23  1  0  0  0  0
 25 26  1  0  0  0  0
 27 25  2  0  0  0  0
 28 27  1  0  0  0  0
 29 20  2  0  0  0  0
 29 27  1  0  0  0  0
 30 29  1  0  0  0  0
 31 32  2  0  0  0  0
 31 39  1  0  0  0  0
 32 34  1  0  0  0  0
 33 32  1  0  0  0  0
 34 35  1  0  0  0  0
 34 36  2  0  0  0  0
 36 41  1  0  0  0  0
 37 36  1  0  0  0  0
 37 38  1  0  0  0  0
 39 37  2  0  0  0  0
 40 39  1  0  0  0  0
 41 43  1  0  0  0  0
 41 42  1  0  0  0  0
 44 41  1  0  0  0  0
 45 60  1  6  0  0  0
 45 59  1  0  0  0  0
 46 47  1  0  0  0  0
 48 46  2  0  0  0  0
 49 48  1  0  0  0  0
 50 52  1  0  0  0  0
 50 60  1  0  0  0  0
 51 50  1  0  0  0  0
 53 55  1  0  0  0  0
 53 50  1  0  0  0  0
 54 53  1  0  0  0  0
 56 53  1  0  0  0  0
 57 11  1  0  0  0  0
 58 31  1  0  0  0  0
 59 46  1  0  0  0  0
 59  3  1  0  0  0  0
 60 48  1  0  0  0  0
 61 57  1  0  0  0  0
 61 45  1  0  0  0  0
 61  2  1  0  0  0  0
M  END
$$$$
