CSD_code = CIKYOM | q = 0 | S = 0 | Stoichiometry = C27H53Cl2FeP3Si | MND = 4
 OpenBabel04212202023D

 87 88  0  0  0  0  0  0  0  0999 V2000
    5.3626    1.2981   11.3747 C   0  0  0  0  0  0  0  0  0  0  0  0
    5.0972    1.8912   12.6078 C   0  0  0  0  0  0  0  0  0  0  0  0
    4.9208    2.9565   12.6526 H   0  0  0  0  0  0  0  0  0  0  0  0
    5.0427    1.1469   13.7710 C   0  0  0  0  0  0  0  0  0  0  0  0
    4.8399    1.6326   14.7146 H   0  0  0  0  0  0  0  0  0  0  0  0
    5.2460   -0.2222   13.7263 C   0  0  0  0  0  0  0  0  0  0  0  0
    5.2078   -0.8076   14.6332 H   0  0  0  0  0  0  0  0  0  0  0  0
    5.4873   -0.8353   12.5096 C   0  0  0  0  0  0  0  0  0  0  0  0
    5.6326   -1.9051   12.4628 H   0  0  0  0  0  0  0  0  0  0  0  0
    5.5396   -0.0812   11.3504 C   0  0  0  0  0  0  0  0  0  0  0  0
    5.7180   -0.5768   10.4100 H   0  0  0  0  0  0  0  0  0  0  0  0
    6.6507    3.8233   10.0846 C   0  0  0  0  0  0  0  0  0  0  0  0
    6.4569    4.5882    9.3319 H   0  0  0  0  0  0  0  0  0  0  0  0
    6.5132    4.2816   11.0652 H   0  0  0  0  0  0  0  0  0  0  0  0
    5.6162    1.4444    8.1910 C   0  0  0  0  0  0  0  0  0  0  0  0
    5.0938    0.4882    8.2105 H   0  0  0  0  0  0  0  0  0  0  0  0
    5.1486    2.0588    7.4207 H   0  0  0  0  0  0  0  0  0  0  0  0
    3.6368    3.1939    9.8036 C   0  0  0  0  0  0  0  0  0  0  0  0
    2.9811    2.5300   10.3667 H   0  0  0  0  0  0  0  0  0  0  0  0
    3.6255    4.1596   10.3096 H   0  0  0  0  0  0  0  0  0  0  0  0
    9.1842    5.0164   10.4177 C   0  0  0  0  0  0  0  0  0  0  0  0
    8.6231    5.3567   11.2991 H   0  0  0  0  0  0  0  0  0  0  0  0
   10.6661    4.9007   10.7633 C   0  0  0  0  0  0  0  0  0  0  0  0
   11.2038    4.3998    9.9615 H   0  0  0  0  0  0  0  0  0  0  0  0
   10.8267    4.3507   11.6867 H   0  0  0  0  0  0  0  0  0  0  0  0
   11.0926    5.8956   10.8887 H   0  0  0  0  0  0  0  0  0  0  0  0
    9.0052    6.0265    9.2857 C   0  0  0  0  0  0  0  0  0  0  0  0
    9.3874    7.0019    9.5834 H   0  0  0  0  0  0  0  0  0  0  0  0
    7.9609    6.1401    9.0039 H   0  0  0  0  0  0  0  0  0  0  0  0
    9.5579    5.6991    8.4054 H   0  0  0  0  0  0  0  0  0  0  0  0
    8.6799    2.2230   11.3149 C   0  0  0  0  0  0  0  0  0  0  0  0
    7.9035    1.4647   11.1403 H   0  0  0  0  0  0  0  0  0  0  0  0
   10.0403    1.5343   11.2308 C   0  0  0  0  0  0  0  0  0  0  0  0
   10.8283    2.1664   11.6296 H   0  0  0  0  0  0  0  0  0  0  0  0
   10.2865    1.3063   10.1956 H   0  0  0  0  0  0  0  0  0  0  0  0
   10.0320    0.6062   11.8004 H   0  0  0  0  0  0  0  0  0  0  0  0
    8.4451    2.8155   12.6997 C   0  0  0  0  0  0  0  0  0  0  0  0
    8.5145    2.0227   13.4436 H   0  0  0  0  0  0  0  0  0  0  0  0
    7.4555    3.2557   12.7807 H   0  0  0  0  0  0  0  0  0  0  0  0
    9.1875    3.5708   12.9423 H   0  0  0  0  0  0  0  0  0  0  0  0
    7.8858   -0.3520    8.4788 C   0  0  0  0  0  0  0  0  0  0  0  0
    7.7906   -0.0931    9.5416 H   0  0  0  0  0  0  0  0  0  0  0  0
    7.0546   -1.6005    8.1951 C   0  0  0  0  0  0  0  0  0  0  0  0
    7.2852   -2.0083    7.2133 H   0  0  0  0  0  0  0  0  0  0  0  0
    5.9852   -1.4073    8.2383 H   0  0  0  0  0  0  0  0  0  0  0  0
    7.2903   -2.3676    8.9320 H   0  0  0  0  0  0  0  0  0  0  0  0
    9.3604   -0.6271    8.1906 C   0  0  0  0  0  0  0  0  0  0  0  0
    9.7772   -1.3010    8.9369 H   0  0  0  0  0  0  0  0  0  0  0  0
    9.9352    0.3008    8.2055 H   0  0  0  0  0  0  0  0  0  0  0  0
    9.4832   -1.0925    7.2148 H   0  0  0  0  0  0  0  0  0  0  0  0
    7.1622    0.6928    5.8311 C   0  0  0  0  0  0  0  0  0  0  0  0
    6.9803   -0.3880    5.8086 H   0  0  0  0  0  0  0  0  0  0  0  0
    8.4967    0.9984    5.1461 C   0  0  0  0  0  0  0  0  0  0  0  0
    8.4976    0.6335    4.1199 H   0  0  0  0  0  0  0  0  0  0  0  0
    9.3336    0.5412    5.6730 H   0  0  0  0  0  0  0  0  0  0  0  0
    8.6564    2.0799    5.1175 H   0  0  0  0  0  0  0  0  0  0  0  0
    6.0301    1.4070    5.0995 C   0  0  0  0  0  0  0  0  0  0  0  0
    6.1101    2.4836    5.2397 H   0  0  0  0  0  0  0  0  0  0  0  0
    5.0549    1.0716    5.4449 H   0  0  0  0  0  0  0  0  0  0  0  0
    6.0982    1.1960    4.0328 H   0  0  0  0  0  0  0  0  0  0  0  0
    1.3100    4.2977    8.6358 C   0  0  0  0  0  0  0  0  0  0  0  0
    1.5916    5.1583    9.2535 H   0  0  0  0  0  0  0  0  0  0  0  0
    0.5549    4.7738    7.3984 C   0  0  0  0  0  0  0  0  0  0  0  0
    0.3570    3.9345    6.7335 H   0  0  0  0  0  0  0  0  0  0  0  0
    1.1216    5.5194    6.8480 H   0  0  0  0  0  0  0  0  0  0  0  0
   -0.3989    5.2171    7.6839 H   0  0  0  0  0  0  0  0  0  0  0  0
    0.4098    3.3708    9.4501 C   0  0  0  0  0  0  0  0  0  0  0  0
   -0.5338    3.8669    9.6748 H   0  0  0  0  0  0  0  0  0  0  0  0
    0.8727    3.0868   10.3921 H   0  0  0  0  0  0  0  0  0  0  0  0
    0.1932    2.4649    8.8862 H   0  0  0  0  0  0  0  0  0  0  0  0
    3.9747    4.7059    7.4155 C   0  0  0  0  0  0  0  0  0  0  0  0
    4.9839    4.3097    7.5801 H   0  0  0  0  0  0  0  0  0  0  0  0
    3.7964    4.8031    5.9011 C   0  0  0  0  0  0  0  0  0  0  0  0
    2.9039    5.3628    5.6321 H   0  0  0  0  0  0  0  0  0  0  0  0
    3.7194    3.8092    5.4635 H   0  0  0  0  0  0  0  0  0  0  0  0
    4.6597    5.3011    5.4647 H   0  0  0  0  0  0  0  0  0  0  0  0
    3.9010    6.0810    8.0672 C   0  0  0  0  0  0  0  0  0  0  0  0
    4.7065    6.6997    7.6743 H   0  0  0  0  0  0  0  0  0  0  0  0
    4.0202    6.0210    9.1473 H   0  0  0  0  0  0  0  0  0  0  0  0
    2.9588    6.5788    7.8482 H   0  0  0  0  0  0  0  0  0  0  0  0
    5.3893    2.4103    9.8252 Si  0  0  0  0  0  0  0  0  0  0  0  0
    8.4265    3.3903    9.8727 P   0  0  0  0  0  4  0  0  0  0  0  0
    7.3425    1.2285    7.6246 P   0  0  0  0  0  4  0  0  0  0  0  0
    2.8632    3.3603    8.1183 P   0  0  0  0  0  0  0  0  0  0  0  0
   10.8038    3.0386    7.7813 Cl  0  0  0  0  0  0  0  0  0  0  0  0
    7.4884    4.1354    6.7861 Cl  0  0  0  0  0  0  0  0  0  0  0  0
    8.8149    2.8010    7.7941 Fe  0  0  0  0  0  0  0  0  0  0  0  0
  1  2  1  0  0  0  0
  2  3  1  0  0  0  0
  2  4  2  0  0  0  0
  4  5  1  0  0  0  0
  6  4  1  0  0  0  0
  6  7  1  0  0  0  0
  8  6  2  0  0  0  0
  9  8  1  0  0  0  0
 10  1  2  0  0  0  0
 10  8  1  0  0  0  0
 11 10  1  0  0  0  0
 12 14  1  0  0  0  0
 13 12  1  0  0  0  0
 15 16  1  0  0  0  0
 15 81  1  0  0  0  0
 17 15  1  0  0  0  0
 18 81  1  0  0  0  0
 18 20  1  0  0  0  0
 18 19  1  0  0  0  0
 21 23  1  0  0  0  0
 21 22  1  0  0  0  0
 23 26  1  0  0  0  0
 23 25  1  0  0  0  0
 24 23  1  0  0  0  0
 27 28  1  0  0  0  0
 27 21  1  0  0  0  0
 29 27  1  0  0  0  0
 30 27  1  0  0  0  0
 31 37  1  0  0  0  0
 32 31  1  0  0  0  0
 33 31  1  0  0  0  0
 33 34  1  0  0  0  0
 33 36  1  0  0  0  0
 35 33  1  0  0  0  0
 37 39  1  0  0  0  0
 37 40  1  0  0  0  0
 37 38  1  0  0  0  0
 41 42  1  0  0  0  0
 43 45  1  0  0  0  0
 43 41  1  0  0  0  0
 43 46  1  0  0  0  0
 44 43  1  0  0  0  0
 47 49  1  0  0  0  0
 47 41  1  0  0  0  0
 47 48  1  0  0  0  0
 50 47  1  0  0  0  0
 51 83  1  0  0  0  0
 52 51  1  0  0  0  0
 53 55  1  0  0  0  0
 53 51  1  0  0  0  0
 54 53  1  0  0  0  0
 56 53  1  0  0  0  0
 57 58  1  0  0  0  0
 57 59  1  0  0  0  0
 57 51  1  0  0  0  0
 60 57  1  0  0  0  0
 61 62  1  0  0  0  0
 61 67  1  0  0  0  0
 63 66  1  0  0  0  0
 63 61  1  0  0  0  0
 64 63  1  0  0  0  0
 65 63  1  0  0  0  0
 67 68  1  0  0  0  0
 67 69  1  0  0  0  0
 70 67  1  0  0  0  0
 71 72  1  0  0  0  0
 71 77  1  0  0  0  0
 71 84  1  0  0  0  0
 73 71  1  0  0  0  0
 74 73  1  0  0  0  0
 75 73  1  0  0  0  0
 76 73  1  0  0  0  0
 77 79  1  0  0  0  0
 78 77  1  0  0  0  0
 80 77  1  0  0  0  0
 81 12  1  0  0  0  0
 81  1  1  0  0  0  0
 82 12  1  0  0  0  0
 82 21  1  0  0  0  0
 82 31  1  0  0  0  0
 83 87  1  0  0  0  0
 83 15  1  0  0  0  0
 83 41  1  0  0  0  0
 84 61  1  0  0  0  0
 84 18  1  0  0  0  0
 85 87  1  0  0  0  0
 86 87  1  0  0  0  0
 87 82  1  0  0  0  0
M  END
$$$$
