CSD_code = CIKZIH | q = 0 | S = 0 | Stoichiometry = C45H41Cl2FeP3Si | MND = 4
 OpenBabel04212202023D

 93100  0  0  0  0  0  0  0  0999 V2000
    6.4364    2.2484    3.3127 C   0  0  0  0  0  0  0  0  0  0  0  0
    7.2867    1.4438    4.0696 C   0  0  0  0  0  0  0  0  0  0  0  0
    7.3309    1.5789    5.1413 H   0  0  0  0  0  0  0  0  0  0  0  0
    8.0753    0.4772    3.4741 C   0  0  0  0  0  0  0  0  0  0  0  0
    8.7286   -0.1344    4.0799 H   0  0  0  0  0  0  0  0  0  0  0  0
    8.0276    0.2928    2.1022 C   0  0  0  0  0  0  0  0  0  0  0  0
    8.6449   -0.4601    1.6340 H   0  0  0  0  0  0  0  0  0  0  0  0
    7.1834    1.0779    1.3357 C   0  0  0  0  0  0  0  0  0  0  0  0
    7.1391    0.9389    0.2654 H   0  0  0  0  0  0  0  0  0  0  0  0
    6.3972    2.0427    1.9395 C   0  0  0  0  0  0  0  0  0  0  0  0
    5.7413    2.6534    1.3362 H   0  0  0  0  0  0  0  0  0  0  0  0
    4.3655    2.6831    5.5137 C   0  0  0  0  0  0  0  0  0  0  0  0
    3.7525    1.8807    5.1038 H   0  0  0  0  0  0  0  0  0  0  0  0
    5.0476    2.2719    6.2585 H   0  0  0  0  0  0  0  0  0  0  0  0
    6.6018    4.8035    5.0091 C   0  0  0  0  0  0  0  0  0  0  0  0
    7.6459    4.5239    4.8620 H   0  0  0  0  0  0  0  0  0  0  0  0
    6.4605    5.7955    4.5788 H   0  0  0  0  0  0  0  0  0  0  0  0
    4.1214    4.5045    3.0833 C   0  0  0  0  0  0  0  0  0  0  0  0
    3.2777    3.8396    2.8850 H   0  0  0  0  0  0  0  0  0  0  0  0
    3.7601    5.3799    3.6317 H   0  0  0  0  0  0  0  0  0  0  0  0
    3.4369    6.2425    0.9536 C   0  0  0  0  0  0  0  0  0  0  0  0
    2.1119    6.1137    1.3506 C   0  0  0  0  0  0  0  0  0  0  0  0
    1.8186    5.3347    2.0382 H   0  0  0  0  0  0  0  0  0  0  0  0
    1.1547    6.9909    0.8711 C   0  0  0  0  0  0  0  0  0  0  0  0
    0.1277    6.8885    1.1922 H   0  0  0  0  0  0  0  0  0  0  0  0
    1.5035    7.9925   -0.0177 C   0  0  0  0  0  0  0  0  0  0  0  0
    0.7532    8.6769   -0.3862 H   0  0  0  0  0  0  0  0  0  0  0  0
    2.8191    8.1115   -0.4371 C   0  0  0  0  0  0  0  0  0  0  0  0
    3.0963    8.8870   -1.1368 H   0  0  0  0  0  0  0  0  0  0  0  0
    3.7756    7.2360    0.0371 C   0  0  0  0  0  0  0  0  0  0  0  0
    4.8037    7.3213   -0.2912 H   0  0  0  0  0  0  0  0  0  0  0  0
    6.0032    6.2603    2.0357 C   0  0  0  0  0  0  0  0  0  0  0  0
    5.6533    7.4456    2.6737 C   0  0  0  0  0  0  0  0  0  0  0  0
    4.6140    7.6997    2.8183 H   0  0  0  0  0  0  0  0  0  0  0  0
    6.6413    8.2927    3.1414 C   0  0  0  0  0  0  0  0  0  0  0  0
    6.3635    9.2121    3.6358 H   0  0  0  0  0  0  0  0  0  0  0  0
    7.9788    7.9637    2.9843 C   0  0  0  0  0  0  0  0  0  0  0  0
    8.7468    8.6258    3.3574 H   0  0  0  0  0  0  0  0  0  0  0  0
    8.3304    6.7842    2.3498 C   0  0  0  0  0  0  0  0  0  0  0  0
    9.3725    6.5266    2.2245 H   0  0  0  0  0  0  0  0  0  0  0  0
    7.3452    5.9373    1.8730 C   0  0  0  0  0  0  0  0  0  0  0  0
    7.6097    5.0141    1.3747 H   0  0  0  0  0  0  0  0  0  0  0  0
    1.7761    3.8750    5.3700 C   0  0  0  0  0  0  0  0  0  0  0  0
    1.1132    2.6671    5.1663 C   0  0  0  0  0  0  0  0  0  0  0  0
    1.5223    1.7512    5.5713 H   0  0  0  0  0  0  0  0  0  0  0  0
   -0.0738    2.6370    4.4600 C   0  0  0  0  0  0  0  0  0  0  0  0
   -0.5807    1.6961    4.3001 H   0  0  0  0  0  0  0  0  0  0  0  0
   -0.6182    3.8114    3.9630 C   0  0  0  0  0  0  0  0  0  0  0  0
   -1.5467    3.7836    3.4118 H   0  0  0  0  0  0  0  0  0  0  0  0
    0.0245    5.0173    4.1831 C   0  0  0  0  0  0  0  0  0  0  0  0
   -0.4017    5.9362    3.8084 H   0  0  0  0  0  0  0  0  0  0  0  0
    1.2165    5.0523    4.8873 C   0  0  0  0  0  0  0  0  0  0  0  0
    1.7245    5.9917    5.0528 H   0  0  0  0  0  0  0  0  0  0  0  0
    2.6855    3.0545    7.8365 C   0  0  0  0  0  0  0  0  0  0  0  0
    2.9140    1.7235    8.1602 C   0  0  0  0  0  0  0  0  0  0  0  0
    3.4911    1.0913    7.5009 H   0  0  0  0  0  0  0  0  0  0  0  0
    2.4064    1.2034    9.3388 C   0  0  0  0  0  0  0  0  0  0  0  0
    2.5857    0.1669    9.5864 H   0  0  0  0  0  0  0  0  0  0  0  0
    1.6750    2.0034   10.2003 C   0  0  0  0  0  0  0  0  0  0  0  0
    1.2859    1.5917   11.1197 H   0  0  0  0  0  0  0  0  0  0  0  0
    1.4467    3.3345    9.8858 C   0  0  0  0  0  0  0  0  0  0  0  0
    0.8811    3.9613   10.5593 H   0  0  0  0  0  0  0  0  0  0  0  0
    1.9515    3.8554    8.7111 C   0  0  0  0  0  0  0  0  0  0  0  0
    1.7851    4.8983    8.4501 H   0  0  0  0  0  0  0  0  0  0  0  0
    7.5380    6.2718    7.2107 C   0  0  0  0  0  0  0  0  0  0  0  0
    8.5106    6.0866    8.1874 C   0  0  0  0  0  0  0  0  0  0  0  0
    8.5731    5.1479    8.7200 H   0  0  0  0  0  0  0  0  0  0  0  0
    9.3967    7.1080    8.4825 C   0  0  0  0  0  0  0  0  0  0  0  0
   10.1528    6.9572    9.2396 H   0  0  0  0  0  0  0  0  0  0  0  0
    9.3119    8.3207    7.8198 C   0  0  0  0  0  0  0  0  0  0  0  0
   10.0041    9.1153    8.0571 H   0  0  0  0  0  0  0  0  0  0  0  0
    8.3246    8.5204    6.8676 C   0  0  0  0  0  0  0  0  0  0  0  0
    8.2413    9.4732    6.3654 H   0  0  0  0  0  0  0  0  0  0  0  0
    7.4367    7.5055    6.5695 C   0  0  0  0  0  0  0  0  0  0  0  0
    6.6485    7.6682    5.8469 H   0  0  0  0  0  0  0  0  0  0  0  0
    6.9568    3.5203    7.5677 C   0  0  0  0  0  0  0  0  0  0  0  0
    8.1794    2.9711    7.1917 C   0  0  0  0  0  0  0  0  0  0  0  0
    8.7743    3.4478    6.4255 H   0  0  0  0  0  0  0  0  0  0  0  0
    8.6420    1.8232    7.8097 C   0  0  0  0  0  0  0  0  0  0  0  0
    9.5913    1.4006    7.5140 H   0  0  0  0  0  0  0  0  0  0  0  0
    7.8937    1.2159    8.8063 C   0  0  0  0  0  0  0  0  0  0  0  0
    8.2588    0.3183    9.2832 H   0  0  0  0  0  0  0  0  0  0  0  0
    6.6837    1.7659    9.1963 C   0  0  0  0  0  0  0  0  0  0  0  0
    6.1015    1.3026    9.9793 H   0  0  0  0  0  0  0  0  0  0  0  0
    6.2204    2.9150    8.5811 C   0  0  0  0  0  0  0  0  0  0  0  0
    5.2782    3.3593    8.8807 H   0  0  0  0  0  0  0  0  0  0  0  0
    5.3901    3.5822    4.1647 Si  0  0  0  0  0  0  0  0  0  0  0  0
    6.2707    5.0265    6.7971 P   0  0  0  0  0  4  0  0  0  0  0  0
    3.3221    3.9247    6.3575 P   0  0  0  0  0  4  0  0  0  0  0  0
    4.7548    5.0613    1.4299 P   0  0  0  0  0  0  0  0  0  0  0  0
    4.7210    6.3662    9.0462 Cl  0  0  0  0  0  0  0  0  0  0  0  0
    3.8898    7.0269    5.6843 Cl  0  0  0  0  0  0  0  0  0  0  0  0
    4.2520    5.6477    7.2493 Fe  0  0  0  0  0  0  0  0  0  0  0  0
  1  2  1  0  0  0  0
  1 87  1  0  0  0  0
  2  3  1  0  0  0  0
  4  2  2  0  0  0  0
  4  5  1  0  0  0  0
  6  4  1  0  0  0  0
  7  6  1  0  0  0  0
  8 10  1  0  0  0  0
  8  6  2  0  0  0  0
  9  8  1  0  0  0  0
 10  1  2  0  0  0  0
 11 10  1  0  0  0  0
 12 14  1  0  0  0  0
 12 89  1  0  0  0  0
 13 12  1  0  0  0  0
 15 88  1  0  0  0  0
 16 15  1  0  0  0  0
 17 15  1  0  0  0  0
 18 20  1  0  0  0  0
 18 87  1  0  0  0  0
 19 18  1  0  0  0  0
 21 22  1  0  0  0  0
 21 90  1  0  0  0  0
 22 23  1  0  0  0  0
 24 25  1  0  0  0  0
 24 22  2  0  0  0  0
 26 24  1  0  0  0  0
 27 26  1  0  0  0  0
 28 26  2  0  0  0  0
 28 30  1  0  0  0  0
 29 28  1  0  0  0  0
 30 21  2  0  0  0  0
 31 30  1  0  0  0  0
 32 33  1  0  0  0  0
 33 34  1  0  0  0  0
 33 35  2  0  0  0  0
 35 36  1  0  0  0  0
 37 35  1  0  0  0  0
 37 38  1  0  0  0  0
 39 37  2  0  0  0  0
 40 39  1  0  0  0  0
 41 32  2  0  0  0  0
 41 39  1  0  0  0  0
 42 41  1  0  0  0  0
 43 89  1  0  0  0  0
 44 43  1  0  0  0  0
 44 45  1  0  0  0  0
 46 44  2  0  0  0  0
 47 46  1  0  0  0  0
 48 50  2  0  0  0  0
 48 46  1  0  0  0  0
 49 48  1  0  0  0  0
 50 52  1  0  0  0  0
 51 50  1  0  0  0  0
 52 53  1  0  0  0  0
 52 43  2  0  0  0  0
 54 55  2  0  0  0  0
 54 63  1  0  0  0  0
 55 57  1  0  0  0  0
 56 55  1  0  0  0  0
 57 58  1  0  0  0  0
 57 59  2  0  0  0  0
 59 60  1  0  0  0  0
 61 59  1  0  0  0  0
 61 62  1  0  0  0  0
 63 61  2  0  0  0  0
 64 63  1  0  0  0  0
 65 66  1  0  0  0  0
 66 68  2  0  0  0  0
 66 67  1  0  0  0  0
 68 69  1  0  0  0  0
 70 71  1  0  0  0  0
 70 68  1  0  0  0  0
 72 70  2  0  0  0  0
 73 72  1  0  0  0  0
 74 72  1  0  0  0  0
 74 65  2  0  0  0  0
 75 74  1  0  0  0  0
 76 85  1  0  0  0  0
 77 76  2  0  0  0  0
 77 79  1  0  0  0  0
 78 77  1  0  0  0  0
 79 81  2  0  0  0  0
 80 79  1  0  0  0  0
 81 83  1  0  0  0  0
 81 82  1  0  0  0  0
 83 84  1  0  0  0  0
 85 86  1  0  0  0  0
 85 83  2  0  0  0  0
 87 15  1  0  0  0  0
 87 12  1  0  0  0  0
 88 65  1  0  0  0  0
 88 93  1  0  0  0  0
 88 76  1  0  0  0  0
 89 93  1  0  0  0  0
 89 54  1  0  0  0  0
 90 32  1  0  0  0  0
 90 18  1  0  0  0  0
 92 93  1  0  0  0  0
 93 91  1  0  0  0  0
M  END
$$$$
