CSD_code = CILXOL | q = 0 | S = 0 | Stoichiometry = C23H38BrN3P2Pt | MND = 4
 OpenBabel04212202023D

 68 69  0  0  0  0  0  0  0  0999 V2000
    0.7875    2.7310    2.6309 Pt  0  0  0  0  0  0  0  0  0  0  0  0
   -0.9100    2.2657    4.3877 Br  0  0  0  0  0  0  0  0  0  0  0  0
    0.7924    0.4751    2.2354 P   0  0  0  0  0  4  0  0  0  0  0  0
    0.7664    4.9866    3.0499 P   0  0  0  0  0  4  0  0  0  0  0  0
    2.2027    3.0297    1.2321 C   0  0  0  0  0  0  0  0  0  0  0  0
    1.8741    3.2495   -0.1099 C   0  0  0  0  0  0  0  0  0  0  0  0
    0.8329    3.2754   -0.4105 H   0  0  0  0  0  0  0  0  0  0  0  0
    2.8441    3.4357   -1.0674 C   0  0  0  0  0  0  0  0  0  0  0  0
    2.5868    3.6082   -2.1026 H   0  0  0  0  0  0  0  0  0  0  0  0
    4.2001    3.4041   -0.7087 C   0  0  0  0  0  0  0  0  0  0  0  0
    4.5425    3.1767    0.6298 C   0  0  0  0  0  0  0  0  0  0  0  0
    5.5887    3.1483    0.8964 H   0  0  0  0  0  0  0  0  0  0  0  0
    3.5574    2.9916    1.5749 C   0  0  0  0  0  0  0  0  0  0  0  0
    3.8487    2.8071    2.6029 H   0  0  0  0  0  0  0  0  0  0  0  0
    5.2478    3.5945   -1.5787 N   0  0  0  0  0  0  0  0  0  0  0  0
    4.9670    3.7226   -2.8059 N   0  0  0  0  0  0  0  0  0  0  0  0
    5.9473    4.0641   -3.6947 C   0  0  0  0  0  0  0  0  0  0  0  0
    5.9188    3.5223   -4.9871 C   0  0  0  0  0  0  0  0  0  0  0  0
    5.2123    2.7439   -5.2293 H   0  0  0  0  0  0  0  0  0  0  0  0
    6.8289    3.9872   -5.9137 C   0  0  0  0  0  0  0  0  0  0  0  0
    6.8479    3.5876   -6.9198 H   0  0  0  0  0  0  0  0  0  0  0  0
    7.7197    4.9369   -5.6642 N   0  0  0  0  0  0  0  0  0  0  0  0
    7.7379    5.4588   -4.4474 C   0  0  0  0  0  0  0  0  0  0  0  0
    8.4820    6.2283   -4.2833 H   0  0  0  0  0  0  0  0  0  0  0  0
    6.8921    5.0668   -3.4295 C   0  0  0  0  0  0  0  0  0  0  0  0
    6.9267    5.5190   -2.4500 H   0  0  0  0  0  0  0  0  0  0  0  0
    1.9280   -0.1620    0.9235 C   0  0  0  0  0  0  0  0  0  0  0  0
    1.5975    0.3025   -0.0104 H   0  0  0  0  0  0  0  0  0  0  0  0
    2.9221    0.2415    1.1357 H   0  0  0  0  0  0  0  0  0  0  0  0
    1.1031   -0.6072    3.6867 C   0  0  0  0  0  0  0  0  0  0  0  0
    0.3089   -0.4064    4.4108 H   0  0  0  0  0  0  0  0  0  0  0  0
    1.0361   -1.6557    3.3864 H   0  0  0  0  0  0  0  0  0  0  0  0
   -0.8807   -0.0353    1.6683 C   0  0  0  0  0  0  0  0  0  0  0  0
   -0.8527   -1.0346    1.2275 H   0  0  0  0  0  0  0  0  0  0  0  0
   -1.5267   -0.0639    2.5499 H   0  0  0  0  0  0  0  0  0  0  0  0
    2.0007   -1.6745    0.7633 C   0  0  0  0  0  0  0  0  0  0  0  0
    2.4641   -2.1410    1.6291 H   0  0  0  0  0  0  0  0  0  0  0  0
    2.6027   -1.9195   -0.1098 H   0  0  0  0  0  0  0  0  0  0  0  0
    1.0138   -2.1102    0.6221 H   0  0  0  0  0  0  0  0  0  0  0  0
    2.4580   -0.2806    4.3036 C   0  0  0  0  0  0  0  0  0  0  0  0
    2.4955    0.7790    4.5616 H   0  0  0  0  0  0  0  0  0  0  0  0
    3.2699   -0.4923    3.6099 H   0  0  0  0  0  0  0  0  0  0  0  0
    2.6184   -0.8575    5.2119 H   0  0  0  0  0  0  0  0  0  0  0  0
   -1.4077    0.9962    0.6758 C   0  0  0  0  0  0  0  0  0  0  0  0
   -1.3540    1.9947    1.1255 H   0  0  0  0  0  0  0  0  0  0  0  0
   -2.4451    0.7949    0.4169 H   0  0  0  0  0  0  0  0  0  0  0  0
   -0.8165    0.9981   -0.2387 H   0  0  0  0  0  0  0  0  0  0  0  0
    2.3062    5.4141    3.9612 C   0  0  0  0  0  0  0  0  0  0  0  0
    3.1280    5.3458    3.2425 H   0  0  0  0  0  0  0  0  0  0  0  0
    2.2664    6.4386    4.3379 H   0  0  0  0  0  0  0  0  0  0  0  0
   -0.5937    5.6396    4.1083 C   0  0  0  0  0  0  0  0  0  0  0  0
   -1.5337    5.3146    3.6514 H   0  0  0  0  0  0  0  0  0  0  0  0
   -0.5191    5.1122    5.0634 H   0  0  0  0  0  0  0  0  0  0  0  0
    0.8185    6.1349    1.6120 C   0  0  0  0  0  0  0  0  0  0  0  0
    0.9776    7.1585    1.9592 H   0  0  0  0  0  0  0  0  0  0  0  0
    1.6819    5.8438    1.0072 H   0  0  0  0  0  0  0  0  0  0  0  0
    2.5120    4.4135    5.0940 C   0  0  0  0  0  0  0  0  0  0  0  0
    1.7658    4.5472    5.8746 H   0  0  0  0  0  0  0  0  0  0  0  0
    3.4993    4.5183    5.5394 H   0  0  0  0  0  0  0  0  0  0  0  0
    2.4118    3.3946    4.7040 H   0  0  0  0  0  0  0  0  0  0  0  0
   -0.6081    7.1447    4.3375 C   0  0  0  0  0  0  0  0  0  0  0  0
    0.3269    7.4919    4.7717 H   0  0  0  0  0  0  0  0  0  0  0  0
   -1.4097    7.3935    5.0302 H   0  0  0  0  0  0  0  0  0  0  0  0
   -0.7840    7.6901    3.4134 H   0  0  0  0  0  0  0  0  0  0  0  0
   -0.4586    6.0180    0.7883 C   0  0  0  0  0  0  0  0  0  0  0  0
   -0.6688    4.9689    0.5781 H   0  0  0  0  0  0  0  0  0  0  0  0
   -0.3588    6.5452   -0.1582 H   0  0  0  0  0  0  0  0  0  0  0  0
   -1.3107    6.4315    1.3235 H   0  0  0  0  0  0  0  0  0  0  0  0
  1  4  1  0  0  0  0
  1  2  1  0  0  0  0
  3  1  1  0  0  0  0
  3 30  1  0  0  0  0
  4 48  1  0  0  0  0
  4 51  1  0  0  0  0
  5 13  1  0  0  0  0
  5  1  1  0  0  0  0
  6  5  2  0  0  0  0
  7  6  1  0  0  0  0
  8 10  2  0  0  0  0
  8  6  1  0  0  0  0
  9  8  1  0  0  0  0
 10 11  1  0  0  0  0
 11 12  1  0  0  0  0
 11 13  2  0  0  0  0
 13 14  1  0  0  0  0
 15 10  1  0  0  0  0
 16 15  2  0  0  0  0
 17 25  1  0  0  0  0
 17 16  1  0  0  0  0
 18 17  2  0  0  0  0
 19 18  1  0  0  0  0
 20 22  2  0  0  0  0
 20 18  1  0  0  0  0
 21 20  1  0  0  0  0
 22 23  1  0  0  0  0
 23 24  1  0  0  0  0
 23 25  2  0  0  0  0
 25 26  1  0  0  0  0
 27 29  1  0  0  0  0
 27  3  1  0  0  0  0
 28 27  1  0  0  0  0
 30 40  1  0  0  0  0
 30 31  1  0  0  0  0
 32 30  1  0  0  0  0
 33  3  1  0  0  0  0
 33 35  1  0  0  0  0
 34 33  1  0  0  0  0
 36 27  1  0  0  0  0
 36 37  1  0  0  0  0
 38 36  1  0  0  0  0
 39 36  1  0  0  0  0
 40 41  1  0  0  0  0
 40 43  1  0  0  0  0
 42 40  1  0  0  0  0
 44 45  1  0  0  0  0
 44 33  1  0  0  0  0
 46 44  1  0  0  0  0
 47 44  1  0  0  0  0
 48 50  1  0  0  0  0
 48 57  1  0  0  0  0
 49 48  1  0  0  0  0
 51 61  1  0  0  0  0
 51 53  1  0  0  0  0
 52 51  1  0  0  0  0
 54 55  1  0  0  0  0
 54  4  1  0  0  0  0
 56 54  1  0  0  0  0
 57 59  1  0  0  0  0
 57 58  1  0  0  0  0
 60 57  1  0  0  0  0
 61 62  1  0  0  0  0
 61 63  1  0  0  0  0
 64 61  1  0  0  0  0
 65 68  1  0  0  0  0
 65 54  1  0  0  0  0
 66 65  1  0  0  0  0
 67 65  1  0  0  0  0
M  END
$$$$
