CSD_code = CILYAY | q = 0 | S = 0 | Stoichiometry = C27H32BrN2ORh | MND = 6
 OpenBabel04212202023D

 64 66  0  0  1  0  0  0  0  0999 V2000
    2.2995    8.3511    6.4794 Rh  0  0  0  0  0  0  0  0  0  0  0  0
    2.0867    8.1763    4.0627 Br  0  0  0  0  0 15  0  0  0  0  0  0
    5.0562    6.4130    6.3754 O   0  0  0  0  0  0  0  0  0  0  0  0
    3.8553    5.7601    6.4277 N   0  0  0  0  0  0  0  0  0  0  0  0
    1.7572    5.3957    6.5383 N   0  0  0  0  0  0  0  0  0  0  0  0
    2.6680    6.3871    6.4825 C   0  0  2  0  0  3  0  0  0  0  0  0
    3.7136    4.3882    6.4502 C   0  0  0  0  0  0  0  0  0  0  0  0
    2.3754    4.1600    6.5260 C   0  0  0  0  0  0  0  0  0  0  0  0
    4.8828    3.4751    6.3994 C   0  0  0  0  0  0  0  0  0  0  0  0
    4.6890    2.5758    6.9791 H   0  0  0  0  0  0  0  0  0  0  0  0
    5.7564    3.9796    6.8080 H   0  0  0  0  0  0  0  0  0  0  0  0
    5.1012    3.1794    5.3723 H   0  0  0  0  0  0  0  0  0  0  0  0
    1.6350    2.8748    6.5980 C   0  0  0  0  0  0  0  0  0  0  0  0
    2.3309    2.0634    6.7933 H   0  0  0  0  0  0  0  0  0  0  0  0
    1.1169    2.6710    5.6614 H   0  0  0  0  0  0  0  0  0  0  0  0
    0.8923    2.9018    7.3938 H   0  0  0  0  0  0  0  0  0  0  0  0
    5.5045    6.6865    5.0345 C   0  0  0  0  0  0  0  0  0  0  0  0
    4.6331    6.7984    4.3784 H   0  0  0  0  0  0  0  0  0  0  0  0
    6.1235    5.8542    4.6779 H   0  0  0  0  0  0  0  0  0  0  0  0
    6.2768    7.9737    5.0629 C   0  0  0  0  0  0  0  0  0  0  0  0
    7.6148    8.0312    4.7046 C   0  0  0  0  0  0  0  0  0  0  0  0
    8.1291    7.1328    4.3942 H   0  0  0  0  0  0  0  0  0  0  0  0
    8.2897    9.2400    4.7354 C   0  0  0  0  0  0  0  0  0  0  0  0
    9.3309    9.2809    4.4504 H   0  0  0  0  0  0  0  0  0  0  0  0
    7.6343   10.3929    5.1308 C   0  0  0  0  0  0  0  0  0  0  0  0
    8.1632   11.3346    5.1524 H   0  0  0  0  0  0  0  0  0  0  0  0
    6.2990   10.3373    5.4964 C   0  0  0  0  0  0  0  0  0  0  0  0
    5.7855   11.2380    5.7995 H   0  0  0  0  0  0  0  0  0  0  0  0
    5.6245    9.1325    5.4620 C   0  0  0  0  0  0  0  0  0  0  0  0
    4.5731    9.0713    5.7431 H   0  0  0  0  0  0  0  0  0  0  0  0
    0.3304    5.6244    6.5925 C   0  0  0  0  0  0  0  0  0  0  0  0
    0.1941    6.7141    6.4808 H   0  0  0  0  0  0  0  0  0  0  0  0
   -0.0535    5.3237    7.5745 H   0  0  0  0  0  0  0  0  0  0  0  0
   -0.4171    4.9046    5.5009 C   0  0  0  0  0  0  0  0  0  0  0  0
   -1.5285    4.1284    5.8009 C   0  0  0  0  0  0  0  0  0  0  0  0
   -1.8631    4.0402    6.8256 H   0  0  0  0  0  0  0  0  0  0  0  0
   -2.2138    3.4693    4.7955 C   0  0  0  0  0  0  0  0  0  0  0  0
   -3.0781    2.8690    5.0393 H   0  0  0  0  0  0  0  0  0  0  0  0
   -1.7899    3.5774    3.4820 C   0  0  0  0  0  0  0  0  0  0  0  0
   -2.3230    3.0601    2.6980 H   0  0  0  0  0  0  0  0  0  0  0  0
   -0.6857    4.3556    3.1769 C   0  0  0  0  0  0  0  0  0  0  0  0
   -0.3563    4.4539    2.1537 H   0  0  0  0  0  0  0  0  0  0  0  0
   -0.0022    5.0190    4.1797 C   0  0  0  0  0  0  0  0  0  0  0  0
    0.8455    5.6395    3.9332 H   0  0  0  0  0  0  0  0  0  0  0  0
    1.0316   10.0891    6.5300 C   0  0  0  0  0  3  0  0  0  0  0  0
    0.4590   10.1102    5.6016 H   0  0  0  0  0  0  0  0  0  0  0  0
    2.3391   10.5312    6.4959 C   0  0  0  0  0  3  0  0  0  0  0  0
    2.7330   10.8602    5.5337 H   0  0  0  0  0  0  0  0  0  0  0  0
    3.0564   11.0943    7.7034 C   0  0  0  0  0  0  0  0  0  0  0  0
    2.3276   11.5977    8.3423 H   0  0  0  0  0  0  0  0  0  0  0  0
    3.7677   11.8539    7.3722 H   0  0  0  0  0  0  0  0  0  0  0  0
    3.8163   10.0166    8.5025 C   0  0  0  0  0  0  0  0  0  0  0  0
    4.8507    9.9723    8.1543 H   0  0  0  0  0  0  0  0  0  0  0  0
    3.8456   10.2908    9.5638 H   0  0  0  0  0  0  0  0  0  0  0  0
    3.2189    8.6349    8.3707 C   0  0  1  0  0  0  0  0  0  0  0  0
    3.9418    7.8392    8.5528 H   0  0  0  0  0  0  0  0  0  0  0  0
    1.8689    8.3446    8.5737 C   0  0  0  0  0  3  0  0  0  0  0  0
    1.6209    7.3342    8.8996 H   0  0  0  0  0  0  0  0  0  0  0  0
    0.8561    9.3944    8.9805 C   0  0  0  0  0  0  0  0  0  0  0  0
    1.3552   10.1551    9.5834 H   0  0  0  0  0  0  0  0  0  0  0  0
    0.0951    8.9321    9.6136 H   0  0  0  0  0  0  0  0  0  0  0  0
    0.1631   10.0417    7.7665 C   0  0  0  0  0  0  0  0  0  0  0  0
   -0.7394    9.4722    7.5262 H   0  0  0  0  0  0  0  0  0  0  0  0
   -0.1579   11.0597    8.0152 H   0  0  0  0  0  0  0  0  0  0  0  0
  1 55  1  0  0  0  0
  3  4  1  0  0  0  0
  4  7  1  0  0  0  0
  4  6  1  0  0  0  0
  5 31  1  0  0  0  0
  6  1  1  6  0  0  0
  6  5  1  0  0  0  0
  7  8  2  0  0  0  0
  8  5  1  0  0  0  0
  8 13  1  0  0  0  0
  9  7  1  0  0  0  0
  9 11  1  0  0  0  0
  9 10  1  0  0  0  0
 12  9  1  0  0  0  0
 13 14  1  0  0  0  0
 13 16  1  0  0  0  0
 15 13  1  0  0  0  0
 17 20  1  0  0  0  0
 17  3  1  0  0  0  0
 18 17  1  0  0  0  0
 19 17  1  0  0  0  0
 20 29  1  0  0  0  0
 21 23  1  0  0  0  0
 21 20  2  0  0  0  0
 22 21  1  0  0  0  0
 23 25  2  0  0  0  0
 24 23  1  0  0  0  0
 25 26  1  0  0  0  0
 25 27  1  0  0  0  0
 27 28  1  0  0  0  0
 29 27  2  0  0  0  0
 29 30  1  0  0  0  0
 31 33  1  0  0  0  0
 32 31  1  0  0  0  0
 34 35  1  0  0  0  0
 34 31  1  0  0  0  0
 35 36  1  0  0  0  0
 37 38  1  0  0  0  0
 37 35  2  0  0  0  0
 39 37  1  0  0  0  0
 40 39  1  0  0  0  0
 41 39  2  0  0  0  0
 41 43  1  0  0  0  0
 42 41  1  0  0  0  0
 43 34  2  0  0  0  0
 44 43  1  0  0  0  0
 45 62  1  0  0  0  0
 46 45  1  0  0  0  0
 47 45  1  0  0  0  0
 47 49  1  0  0  0  0
 48 47  1  0  0  0  0
 49 50  1  0  0  0  0
 49 52  1  0  0  0  0
 51 49  1  0  0  0  0
 52 54  1  0  0  0  0
 53 52  1  0  0  0  0
 55 52  1  0  0  0  0
 55 56  1  1  0  0  0
 55 57  1  0  0  0  0
 57 58  1  0  0  0  0
 57 59  1  0  0  0  0
 59 60  1  0  0  0  0
 59 61  1  0  0  0  0
 62 64  1  0  0  0  0
 62 59  1  0  0  0  0
 63 62  1  0  0  0  0
M  END
$$$$
