CSD_code = CIMFIO | q = 0 | S = 0 | Stoichiometry = C24H30ClNPd | MND = 5
 OpenBabel04212202023D

 57 58  0  0  1  0  0  0  0  0999 V2000
    1.7448    3.1408   10.6869 Pd  0  0  0  0  0  0  0  0  0  0  0  0
    1.0619    1.4795    9.3393 Cl  0  0  0  0  0 15  0  0  0  0  0  0
    2.0247    4.3554    8.7362 N   0  0  0  0  0  0  0  0  0  0  0  0
    2.7761    5.0354    8.6463 H   0  0  0  0  0  0  0  0  0  0  0  0
    2.0497    3.6426    8.0073 H   0  0  0  0  0  0  0  0  0  0  0  0
    0.7436    4.9464    8.8640 C   0  0  0  0  0  0  0  0  0  0  0  0
   -0.3806    4.3397    8.3043 C   0  0  0  0  0  0  0  0  0  0  0  0
   -0.2730    3.3947    7.7909 H   0  0  0  0  0  0  0  0  0  0  0  0
   -1.6236    4.9337    8.4215 C   0  0  0  0  0  0  0  0  0  0  0  0
   -2.4872    4.4469    7.9951 H   0  0  0  0  0  0  0  0  0  0  0  0
   -1.7591    6.1532    9.0649 C   0  0  0  0  0  0  0  0  0  0  0  0
   -2.7269    6.6248    9.1416 H   0  0  0  0  0  0  0  0  0  0  0  0
   -0.6476    6.7636    9.6165 C   0  0  0  0  0  0  0  0  0  0  0  0
   -0.7420    7.7086   10.1327 H   0  0  0  0  0  0  0  0  0  0  0  0
    0.6054    6.1662    9.5405 C   0  0  0  0  0  0  0  0  0  0  0  0
    1.7688    6.8252   10.1744 C   0  0  0  0  0  0  0  0  0  0  0  0
    2.1749    8.0640    9.6887 C   0  0  0  0  0  0  0  0  0  0  0  0
    1.6487    8.4882    8.8451 H   0  0  0  0  0  0  0  0  0  0  0  0
    3.2282    8.7469   10.2664 C   0  0  0  0  0  0  0  0  0  0  0  0
    3.5326    9.7059    9.8748 H   0  0  0  0  0  0  0  0  0  0  0  0
    3.8744    8.1998   11.3618 C   0  0  0  0  0  0  0  0  0  0  0  0
    4.6815    8.7343   11.8404 H   0  0  0  0  0  0  0  0  0  0  0  0
    3.4756    6.9721   11.8556 C   0  0  0  0  0  0  0  0  0  0  0  0
    3.9561    6.5705   12.7356 H   0  0  0  0  0  0  0  0  0  0  0  0
    2.4391    6.2503   11.2636 C   0  0  0  0  0  0  0  0  0  0  0  0
    2.0053    4.9718   11.8951 C   0  0  2  0  0  3  0  0  0  0  0  0
    0.6346    5.0768   12.5559 C   0  0  0  0  0  0  0  0  0  0  0  0
   -0.1326    5.2657   11.7958 H   0  0  0  0  0  0  0  0  0  0  0  0
    0.3854    4.1402   13.0646 H   0  0  0  0  0  0  0  0  0  0  0  0
    0.6066    6.2155   13.5783 C   0  0  0  0  0  0  0  0  0  0  0  0
    0.7878    7.1757   13.1003 H   0  0  0  0  0  0  0  0  0  0  0  0
    1.3702    6.0595   14.3376 H   0  0  0  0  0  0  0  0  0  0  0  0
   -0.3635    6.2513   14.0679 H   0  0  0  0  0  0  0  0  0  0  0  0
    2.9192    3.9998   12.2509 C   0  0  2  0  0  0  0  0  0  0  0  0
    4.3780    4.0094   11.8437 C   0  0  0  0  0  0  0  0  0  0  0  0
    4.9943    4.1128   12.7423 H   0  0  0  0  0  0  0  0  0  0  0  0
    4.5900    4.8576   11.1871 H   0  0  0  0  0  0  0  0  0  0  0  0
    4.7587    2.7111   11.1192 C   0  0  0  0  0  0  0  0  0  0  0  0
    4.6244    1.8514   11.7745 H   0  0  0  0  0  0  0  0  0  0  0  0
    5.7991    2.7485   10.8018 H   0  0  0  0  0  0  0  0  0  0  0  0
    4.1260    2.5675   10.2248 H   0  0  0  0  0  0  0  0  0  0  0  0
    2.4894    2.8543   13.1269 C   0  0  0  0  0  0  0  0  0  0  0  0
    2.9362    2.7411   14.5603 C   0  0  0  0  0  0  0  0  0  0  0  0
    3.2141    3.7338   14.9235 H   0  0  0  0  0  0  0  0  0  0  0  0
    2.0935    2.3860   15.1596 H   0  0  0  0  0  0  0  0  0  0  0  0
    4.1117    1.7825   14.7530 C   0  0  0  0  0  0  0  0  0  0  0  0
    3.8548    0.7919   14.3866 H   0  0  0  0  0  0  0  0  0  0  0  0
    4.3613    1.7044   15.8094 H   0  0  0  0  0  0  0  0  0  0  0  0
    4.9921    2.1314   14.2189 H   0  0  0  0  0  0  0  0  0  0  0  0
    1.6787    2.0926   12.4010 C   0  0  0  0  0  0  0  0  0  0  0  0
    0.9916    0.8105   12.7289 C   0  0  0  0  0  0  0  0  0  0  0  0
   -0.0000    0.7903   12.2656 H   0  0  0  0  0  0  0  0  0  0  0  0
    0.8686    0.7383   13.8163 H   0  0  0  0  0  0  0  0  0  0  0  0
    1.7988   -0.3856   12.2159 C   0  0  0  0  0  0  0  0  0  0  0  0
    1.9362   -0.2981   11.1400 H   0  0  0  0  0  0  0  0  0  0  0  0
    1.2744   -1.3144   12.4274 H   0  0  0  0  0  0  0  0  0  0  0  0
    2.7779   -0.4203   12.6895 H   0  0  0  0  0  0  0  0  0  0  0  0
  1 34  1  0  0  0  0
  1 50  1  0  0  0  0
  3  6  1  0  0  0  0
  4  3  1  0  0  0  0
  5  3  1  0  0  0  0
  6 15  1  0  0  0  0
  7  9  1  0  0  0  0
  7  6  2  0  0  0  0
  8  7  1  0  0  0  0
  9 11  2  0  0  0  0
 10  9  1  0  0  0  0
 11 12  1  0  0  0  0
 11 13  1  0  0  0  0
 13 14  1  0  0  0  0
 15 13  2  0  0  0  0
 15 16  1  0  0  0  0
 16 25  1  0  0  0  0
 17 16  2  0  0  0  0
 17 19  1  0  0  0  0
 18 17  1  0  0  0  0
 19 21  2  0  0  0  0
 20 19  1  0  0  0  0
 21 22  1  0  0  0  0
 21 23  1  0  0  0  0
 23 24  1  0  0  0  0
 25 23  2  0  0  0  0
 25 26  1  0  0  0  0
 26 34  1  0  0  0  0
 26 27  1  1  0  0  0
 27 29  1  0  0  0  0
 27 30  1  0  0  0  0
 28 27  1  0  0  0  0
 30 33  1  0  0  0  0
 30 32  1  0  0  0  0
 31 30  1  0  0  0  0
 34 35  1  6  0  0  0
 34 42  1  0  0  0  0
 35 36  1  0  0  0  0
 37 35  1  0  0  0  0
 38 39  1  0  0  0  0
 38 35  1  0  0  0  0
 40 38  1  0  0  0  0
 41 38  1  0  0  0  0
 42 43  1  0  0  0  0
 43 46  1  0  0  0  0
 43 44  1  0  0  0  0
 43 45  1  0  0  0  0
 46 48  1  0  0  0  0
 47 46  1  0  0  0  0
 49 46  1  0  0  0  0
 50 51  1  0  0  0  0
 50 42  2  0  0  0  0
 51 53  1  0  0  0  0
 52 51  1  0  0  0  0
 54 56  1  0  0  0  0
 54 57  1  0  0  0  0
 54 51  1  0  0  0  0
 55 54  1  0  0  0  0
M  END
$$$$
