CSD_code = CIMLIU | q = 0 | S = 0 | Stoichiometry = C25H42ClN2Rh | MND = 6
 OpenBabel04212202023D

 71 73  0  0  1  0  0  0  0  0999 V2000
    5.6573    7.6504   15.4901 Rh  0  0  0  0  0  0  0  0  0  0  0  0
    7.8870    7.9165   14.9695 Cl  0  0  0  0  0 15  0  0  0  0  0  0
    6.5604    7.5523   18.2761 N   0  0  1  0  0  0  0  0  0  0  0  0
    6.3796    6.8009   17.1768 C   0  0  2  0  0  3  0  0  0  0  0  0
    6.7374    5.5134   17.1542 N   0  0  2  0  0  0  0  0  0  0  0  0
    6.7608    7.0748   19.6406 C   0  0  0  0  0  0  0  0  0  0  0  0
    6.3340    7.8324   20.2996 H   0  0  0  0  0  0  0  0  0  0  0  0
    7.8223    6.9834   19.8965 H   0  0  0  0  0  0  0  0  0  0  0  0
    6.0306    5.7590   19.8965 C   0  0  0  0  0  0  0  0  0  0  0  0
    5.0839    5.7815   19.3526 H   0  0  0  0  0  0  0  0  0  0  0  0
    5.8000    5.6687   20.9592 H   0  0  0  0  0  0  0  0  0  0  0  0
    6.8641    4.5625   19.4453 C   0  0  0  0  0  0  0  0  0  0  0  0
    7.6019    4.3070   20.2084 H   0  0  0  0  0  0  0  0  0  0  0  0
    6.2167    3.6962   19.3014 H   0  0  0  0  0  0  0  0  0  0  0  0
    7.5998    4.8979   18.1497 C   0  0  0  0  0  0  0  0  0  0  0  0
    8.4349    5.5748   18.3489 H   0  0  0  0  0  0  0  0  0  0  0  0
    8.0214    3.9867   17.7283 H   0  0  0  0  0  0  0  0  0  0  0  0
    6.6482    9.0021   18.0927 C   0  0  0  0  0  0  0  0  0  0  0  0
    6.3360    9.1847   17.0462 H   0  0  0  0  0  0  0  0  0  0  0  0
    8.0968    9.4804   18.2180 C   0  0  0  0  0  0  0  0  0  0  0  0
    8.4451    9.3712   19.2485 H   0  0  0  0  0  0  0  0  0  0  0  0
    8.7259    8.8722   17.5660 H   0  0  0  0  0  0  0  0  0  0  0  0
    8.1855   10.9422   17.7904 C   0  0  0  0  0  0  0  0  0  0  0  0
    9.2125   11.2962   17.8971 H   0  0  0  0  0  0  0  0  0  0  0  0
    7.9165   11.0130   16.7350 H   0  0  0  0  0  0  0  0  0  0  0  0
    7.2457   11.8120   18.6201 C   0  0  0  0  0  0  0  0  0  0  0  0
    7.2905   12.8451   18.2700 H   0  0  0  0  0  0  0  0  0  0  0  0
    7.5666   11.8006   19.6650 H   0  0  0  0  0  0  0  0  0  0  0  0
    5.8127   11.2955   18.5272 C   0  0  0  0  0  0  0  0  0  0  0  0
    5.4728   11.3609   17.4916 H   0  0  0  0  0  0  0  0  0  0  0  0
    5.1516   11.9131   19.1396 H   0  0  0  0  0  0  0  0  0  0  0  0
    5.7453    9.8428   18.9954 C   0  0  0  0  0  0  0  0  0  0  0  0
    4.7176    9.4772   18.9519 H   0  0  0  0  0  0  0  0  0  0  0  0
    6.0789    9.8091   20.0353 H   0  0  0  0  0  0  0  0  0  0  0  0
    6.4746    4.7247   15.9538 C   0  0  0  0  0  0  0  0  0  0  0  0
    5.8662    5.3726   15.2964 H   0  0  0  0  0  0  0  0  0  0  0  0
    7.7384    4.3832   15.1613 C   0  0  0  0  0  0  0  0  0  0  0  0
    8.2885    5.3051   14.9665 H   0  0  0  0  0  0  0  0  0  0  0  0
    8.3878    3.7008   15.7140 H   0  0  0  0  0  0  0  0  0  0  0  0
    7.3312    3.7258   13.8459 C   0  0  0  0  0  0  0  0  0  0  0  0
    6.7471    4.4365   13.2577 H   0  0  0  0  0  0  0  0  0  0  0  0
    8.2227    3.4713   13.2702 H   0  0  0  0  0  0  0  0  0  0  0  0
    6.5033    2.4698   14.1051 C   0  0  0  0  0  0  0  0  0  0  0  0
    7.1153    1.7366   14.6364 H   0  0  0  0  0  0  0  0  0  0  0  0
    6.1982    2.0224   13.1570 H   0  0  0  0  0  0  0  0  0  0  0  0
    5.2691    2.7969   14.9415 C   0  0  0  0  0  0  0  0  0  0  0  0
    4.7024    1.8851   15.1432 H   0  0  0  0  0  0  0  0  0  0  0  0
    4.6223    3.4764   14.3820 H   0  0  0  0  0  0  0  0  0  0  0  0
    5.6729    3.4594   16.2565 C   0  0  0  0  0  0  0  0  0  0  0  0
    4.7828    3.7138   16.8373 H   0  0  0  0  0  0  0  0  0  0  0  0
    6.2708    2.7582   16.8435 H   0  0  0  0  0  0  0  0  0  0  0  0
    3.7595    8.0784   16.3193 C   0  0  2  0  0  0  0  0  0  0  0  0
    3.7801    8.0254   17.4079 H   0  0  0  0  0  0  0  0  0  0  0  0
    3.6794    6.8652   15.6324 C   0  0  0  0  0  3  0  0  0  0  0  0
    3.6653    5.9618   16.2408 H   0  0  0  0  0  0  0  0  0  0  0  0
    2.9949    6.7159   14.2885 C   0  0  0  0  0  0  0  0  0  0  0  0
    2.1709    7.4293   14.2305 H   0  0  0  0  0  0  0  0  0  0  0  0
    2.5570    5.7170   14.2206 H   0  0  0  0  0  0  0  0  0  0  0  0
    3.9589    6.9160   13.1025 C   0  0  0  0  0  0  0  0  0  0  0  0
    4.3736    5.9466   12.8127 H   0  0  0  0  0  0  0  0  0  0  0  0
    3.4101    7.3007   12.2354 H   0  0  0  0  0  0  0  0  0  0  0  0
    5.1099    7.8456   13.4150 C   0  0  0  0  0  3  0  0  0  0  0  0
    6.0095    7.6489   12.8314 H   0  0  0  0  0  0  0  0  0  0  0  0
    4.9802    9.0868   14.0028 C   0  0  0  0  0  3  0  0  0  0  0  0
    5.8000    9.7939   13.8750 H   0  0  0  0  0  0  0  0  0  0  0  0
    3.6457    9.7057   14.3562 C   0  0  0  0  0  0  0  0  0  0  0  0
    3.7113   10.7894   14.2358 H   0  0  0  0  0  0  0  0  0  0  0  0
    2.8923    9.3498   13.6514 H   0  0  0  0  0  0  0  0  0  0  0  0
    3.2162    9.3913   15.8021 C   0  0  0  0  0  0  0  0  0  0  0  0
    2.1219    9.3818   15.8735 H   0  0  0  0  0  0  0  0  0  0  0  0
    3.5713   10.1875   16.4613 H   0  0  0  0  0  0  0  0  0  0  0  0
  1 52  1  0  0  0  0
  3 18  1  6  0  0  0
  3  6  1  0  0  0  0
  4  1  1  6  0  0  0
  4  3  1  0  0  0  0
  5 35  1  6  0  0  0
  5  4  1  0  0  0  0
  5 15  1  0  0  0  0
  6  9  1  0  0  0  0
  6  8  1  0  0  0  0
  6  7  1  0  0  0  0
  9 11  1  0  0  0  0
 10  9  1  0  0  0  0
 12  9  1  0  0  0  0
 12 13  1  0  0  0  0
 14 12  1  0  0  0  0
 15 16  1  0  0  0  0
 15 12  1  0  0  0  0
 17 15  1  0  0  0  0
 18 20  1  0  0  0  0
 18 32  1  0  0  0  0
 19 18  1  0  0  0  0
 20 21  1  0  0  0  0
 22 20  1  0  0  0  0
 23 24  1  0  0  0  0
 23 20  1  0  0  0  0
 23 26  1  0  0  0  0
 25 23  1  0  0  0  0
 26 28  1  0  0  0  0
 27 26  1  0  0  0  0
 29 26  1  0  0  0  0
 29 32  1  0  0  0  0
 29 31  1  0  0  0  0
 30 29  1  0  0  0  0
 32 34  1  0  0  0  0
 33 32  1  0  0  0  0
 35 49  1  0  0  0  0
 36 35  1  0  0  0  0
 37 39  1  0  0  0  0
 37 35  1  0  0  0  0
 38 37  1  0  0  0  0
 40 43  1  0  0  0  0
 40 37  1  0  0  0  0
 41 40  1  0  0  0  0
 42 40  1  0  0  0  0
 43 44  1  0  0  0  0
 43 46  1  0  0  0  0
 45 43  1  0  0  0  0
 46 47  1  0  0  0  0
 46 49  1  0  0  0  0
 48 46  1  0  0  0  0
 49 50  1  0  0  0  0
 49 51  1  0  0  0  0
 52 53  1  1  0  0  0
 54 55  1  0  0  0  0
 54 52  1  0  0  0  0
 56 54  1  0  0  0  0
 57 56  1  0  0  0  0
 58 56  1  0  0  0  0
 59 62  1  0  0  0  0
 59 56  1  0  0  0  0
 60 59  1  0  0  0  0
 61 59  1  0  0  0  0
 62 64  1  0  0  0  0
 63 62  1  0  0  0  0
 64 66  1  0  0  0  0
 65 64  1  0  0  0  0
 66 69  1  0  0  0  0
 67 66  1  0  0  0  0
 68 66  1  0  0  0  0
 69 70  1  0  0  0  0
 69 52  1  0  0  0  0
 69 71  1  0  0  0  0
M  END
$$$$
