CSD_code = CIMMOB | q = 0 | S = 0 | Stoichiometry = C17H15Cl2N3Ni | MND = 5
 OpenBabel04212202023D

 38 42  0  0  1  0  0  0  0  0999 V2000
   -1.1584    1.3705    2.4125 Ni  0  0  0  0  0  0  0  0  0  0  0  0
   -3.0130    1.4148    3.5325 Cl  0  0  0  0  0  0  0  0  0  0  0  0
    0.6730    2.1237    1.5445 Cl  0  0  0  0  0  0  0  0  0  0  0  0
   -0.1831    0.7015    3.8739 N   0  0  0  0  0  0  0  0  0  0  0  0
   -1.0614   -0.6370    1.7760 N   0  0  0  0  0  0  0  0  0  0  0  0
   -2.0436    1.5406    0.7371 N   0  0  0  0  0  0  0  0  0  0  0  0
   -0.0680    2.8750    4.8874 C   0  0  0  0  0  0  0  0  0  0  0  0
   -1.0907    3.0177    4.5218 H   0  0  0  0  0  0  0  0  0  0  0  0
    0.6048    3.3856    4.1950 H   0  0  0  0  0  0  0  0  0  0  0  0
    0.0375    3.3109    5.8767 H   0  0  0  0  0  0  0  0  0  0  0  0
    0.2569    1.4229    4.8858 C   0  0  0  0  0  0  0  0  0  0  0  0
    1.0269    0.8408    5.9125 C   0  0  0  0  0  0  0  0  0  0  0  0
    1.3696    1.4666    6.7216 H   0  0  0  0  0  0  0  0  0  0  0  0
    1.3200   -0.4923    5.8792 C   0  0  0  0  0  0  0  0  0  0  0  0
    1.8991   -0.9581    6.6630 H   0  0  0  0  0  0  0  0  0  0  0  0
    0.8645   -1.2759    4.7972 C   0  0  0  0  0  0  0  0  0  0  0  0
    1.1110   -2.6592    4.6802 C   0  0  0  0  0  0  0  0  0  0  0  0
    1.6750   -3.1504    5.4588 H   0  0  0  0  0  0  0  0  0  0  0  0
    0.6376   -3.3678    3.6062 C   0  0  0  0  0  0  0  0  0  0  0  0
    0.8232   -4.4291    3.5355 H   0  0  0  0  0  0  0  0  0  0  0  0
   -0.0728   -2.7337    2.5848 C   0  0  0  0  0  0  0  0  0  0  0  0
   -0.4501   -3.3036    1.7490 H   0  0  0  0  0  0  0  0  0  0  0  0
   -0.3250   -1.3762    2.6541 C   0  0  0  0  0  0  0  0  0  0  0  0
    0.1167   -0.6224    3.7904 C   0  0  2  0  0  3  0  0  0  0  0  0
   -1.2143   -0.6777    0.5091 C   0  0  0  0  0  3  0  0  0  0  0  0
   -0.7404   -1.3966   -0.1607 H   0  0  0  0  0  0  0  0  0  0  0  0
   -1.9759    0.4361   -0.0429 C   0  0  2  0  0  3  0  0  0  0  0  0
   -2.5524    0.4122   -1.3079 C   0  0  0  0  0  0  0  0  0  0  0  0
   -2.4772   -0.4788   -1.9110 H   0  0  0  0  0  0  0  0  0  0  0  0
   -3.2220    1.5353   -1.7615 C   0  0  0  0  0  0  0  0  0  0  0  0
   -3.6839    1.5409   -2.7372 H   0  0  0  0  0  0  0  0  0  0  0  0
   -3.2805    2.6533   -0.9490 C   0  0  0  0  0  0  0  0  0  0  0  0
   -3.7812    3.5502   -1.2774 H   0  0  0  0  0  0  0  0  0  0  0  0
   -2.6717    2.6291    0.3046 C   0  0  0  0  0  0  0  0  0  0  0  0
   -2.6826    3.8073    1.2145 C   0  0  0  0  0  0  0  0  0  0  0  0
   -1.7088    3.8858    1.7104 H   0  0  0  0  0  0  0  0  0  0  0  0
   -3.4327    3.6491    1.9917 H   0  0  0  0  0  0  0  0  0  0  0  0
   -2.9031    4.7267    0.6798 H   0  0  0  0  0  0  0  0  0  0  0  0
  1  2  1  0  0  0  0
  1  4  1  0  0  0  0
  3  1  1  0  0  0  0
  4 11  1  0  0  0  0
  5  1  1  0  0  0  0
  5 23  1  0  0  0  0
  6  1  1  0  0  0  0
  7 10  1  0  0  0  0
  8  7  1  0  0  0  0
  9  7  1  0  0  0  0
 11  7  1  0  0  0  0
 11 12  2  0  0  0  0
 12 13  1  0  0  0  0
 14 12  1  0  0  0  0
 14 15  1  0  0  0  0
 16 14  2  0  0  0  0
 17 16  1  0  0  0  0
 17 18  1  0  0  0  0
 19 17  2  0  0  0  0
 20 19  1  0  0  0  0
 21 23  2  0  0  0  0
 21 19  1  0  0  0  0
 22 21  1  0  0  0  0
 24 23  1  6  0  0  0
 24  4  1  0  0  0  0
 24 16  1  0  0  0  0
 25  5  1  0  0  0  0
 26 25  1  0  0  0  0
 27 28  1  6  0  0  0
 27 25  1  0  0  0  0
 27  6  1  0  0  0  0
 29 28  1  0  0  0  0
 30 28  2  0  0  0  0
 30 32  1  0  0  0  0
 31 30  1  0  0  0  0
 32 34  2  0  0  0  0
 33 32  1  0  0  0  0
 34  6  1  0  0  0  0
 34 35  1  0  0  0  0
 35 36  1  0  0  0  0
 35 37  1  0  0  0  0
 38 35  1  0  0  0  0
M  END
$$$$
