CSD_code = CIMMUH | q = 0 | S = 0 | Stoichiometry = C19H19Cl2N3Ni | MND = 5
 OpenBabel04212202023D

 44 48  0  0  1  0  0  0  0  0999 V2000
    7.5467    3.2345    0.9119 N   0  0  0  0  0  0  0  0  0  0  0  0
    8.3333    4.2507    0.6272 C   0  0  0  0  0  0  0  0  0  0  0  0
    9.7262    3.9466    0.1476 C   0  0  0  0  0  0  0  0  0  0  0  0
    9.8261    2.8440    0.1219 H   0  0  0  0  0  0  0  0  0  0  0  0
    9.9370    4.4783   -1.2697 C   0  0  0  0  0  0  0  0  0  0  0  0
    9.2200    4.0182   -1.9453 H   0  0  0  0  0  0  0  0  0  0  0  0
   10.9387    4.2277   -1.6092 H   0  0  0  0  0  0  0  0  0  0  0  0
    9.8193    5.5590   -1.3090 H   0  0  0  0  0  0  0  0  0  0  0  0
   10.7606    4.4946    1.1311 C   0  0  0  0  0  0  0  0  0  0  0  0
   10.7023    5.5784    1.2027 H   0  0  0  0  0  0  0  0  0  0  0  0
   11.7600    4.2246    0.7992 H   0  0  0  0  0  0  0  0  0  0  0  0
   10.5971    4.0661    2.1172 H   0  0  0  0  0  0  0  0  0  0  0  0
    7.8825    5.5774    0.7717 C   0  0  0  0  0  0  0  0  0  0  0  0
    8.5544    6.3868    0.5352 H   0  0  0  0  0  0  0  0  0  0  0  0
    6.6102    5.8281    1.1985 C   0  0  0  0  0  0  0  0  0  0  0  0
    6.2461    6.8392    1.3083 H   0  0  0  0  0  0  0  0  0  0  0  0
    5.7549    4.7486    1.5056 C   0  0  0  0  0  0  0  0  0  0  0  0
    4.4219    4.9078    1.9368 C   0  0  0  0  0  0  0  0  0  0  0  0
    4.0285    5.9078    2.0405 H   0  0  0  0  0  0  0  0  0  0  0  0
    3.6383    3.8161    2.2081 C   0  0  0  0  0  0  0  0  0  0  0  0
    2.6151    3.9516    2.5252 H   0  0  0  0  0  0  0  0  0  0  0  0
    4.1468    2.5204    2.0940 C   0  0  0  0  0  0  0  0  0  0  0  0
    3.5153    1.6682    2.2959 H   0  0  0  0  0  0  0  0  0  0  0  0
    5.4536    2.3206    1.6897 C   0  0  0  0  0  0  0  0  0  0  0  0
    6.2793    3.4440    1.3577 C   0  0  2  0  0  3  0  0  0  0  0  0
    6.0628    1.1226    1.4594 N   0  0  0  0  0  0  0  0  0  0  0  0
    5.9789   -0.0225    2.0174 C   0  0  0  0  0  3  0  0  0  0  0  0
    5.3275   -0.2692    2.8570 H   0  0  0  0  0  0  0  0  0  0  0  0
    6.9613   -0.9949    1.5534 C   0  0  1  0  0  3  0  0  0  0  0  0
    8.0641   -0.4771    0.9642 N   0  0  0  0  0  0  0  0  0  0  0  0
    9.0455   -1.2774    0.5594 C   0  0  0  0  0  0  0  0  0  0  0  0
   10.2392   -0.6251   -0.0450 C   0  0  0  0  0  0  0  0  0  0  0  0
    9.9642   -0.2101   -1.0174 H   0  0  0  0  0  0  0  0  0  0  0  0
   11.0620   -1.3236   -0.1661 H   0  0  0  0  0  0  0  0  0  0  0  0
   10.5506    0.2086    0.5924 H   0  0  0  0  0  0  0  0  0  0  0  0
    8.9525   -2.6590    0.7156 C   0  0  0  0  0  0  0  0  0  0  0  0
    9.7633   -3.2860    0.3804 H   0  0  0  0  0  0  0  0  0  0  0  0
    7.8316   -3.2082    1.3122 C   0  0  0  0  0  0  0  0  0  0  0  0
    7.7473   -4.2762    1.4441 H   0  0  0  0  0  0  0  0  0  0  0  0
    6.8248   -2.3650    1.7482 C   0  0  0  0  0  0  0  0  0  0  0  0
    5.9371   -2.7493    2.2254 H   0  0  0  0  0  0  0  0  0  0  0  0
    8.0516    1.4198    0.8214 Ni  0  0  0  0  0  0  0  0  0  0  0  0
    8.9870    1.5825    2.7651 Cl  0  0  0  0  0  0  0  0  0  0  0  0
    7.8420    1.3822   -1.3331 Cl  0  0  0  0  0  0  0  0  0  0  0  0
  1 25  1  0  0  0  0
  2 13  2  0  0  0  0
  2  1  1  0  0  0  0
  3  2  1  0  0  0  0
  3  9  1  0  0  0  0
  4  3  1  0  0  0  0
  5  3  1  0  0  0  0
  6  5  1  0  0  0  0
  7  5  1  0  0  0  0
  8  5  1  0  0  0  0
  9 10  1  0  0  0  0
  9 12  1  0  0  0  0
 11  9  1  0  0  0  0
 13 15  1  0  0  0  0
 14 13  1  0  0  0  0
 15 16  1  0  0  0  0
 15 17  2  0  0  0  0
 17 18  1  0  0  0  0
 18 19  1  0  0  0  0
 18 20  2  0  0  0  0
 20 21  1  0  0  0  0
 22 20  1  0  0  0  0
 22 23  1  0  0  0  0
 24 22  2  0  0  0  0
 25 17  1  1  0  0  0
 25 24  1  0  0  0  0
 26 24  1  0  0  0  0
 26 27  1  0  0  0  0
 27 28  1  0  0  0  0
 29 40  1  1  0  0  0
 29 27  1  0  0  0  0
 30 29  1  0  0  0  0
 31 36  2  0  0  0  0
 31 30  1  0  0  0  0
 32 31  1  0  0  0  0
 32 35  1  0  0  0  0
 33 32  1  0  0  0  0
 34 32  1  0  0  0  0
 36 38  1  0  0  0  0
 37 36  1  0  0  0  0
 38 39  1  0  0  0  0
 38 40  2  0  0  0  0
 40 41  1  0  0  0  0
 42  1  1  0  0  0  0
 42 30  1  0  0  0  0
 42 26  1  0  0  0  0
 42 43  1  0  0  0  0
 44 42  1  0  0  0  0
M  END
$$$$
