CSD_code = CIMNAO | q = 0 | S = 0 | Stoichiometry = C19H19Br2N3Ni | MND = 5
 OpenBabel04212202023D

 44 48  0  0  1  0  0  0  0  0999 V2000
    7.0178    1.3559    7.6346 Br  0  0  0  0  0  0  0  0  0  0  0  0
    6.9222    1.4177    5.2736 Ni  0  0  0  0  0  0  0  0  0  0  0  0
    5.6960    1.5923    3.2540 Br  0  0  0  0  0  0  0  0  0  0  0  0
    7.4065    3.2567    5.2048 N   0  0  0  0  0  0  0  0  0  0  0  0
    6.6260    4.2752    5.5085 C   0  0  0  0  0  0  0  0  0  0  0  0
    5.2227    3.9957    5.9717 C   0  0  0  0  0  0  0  0  0  0  0  0
    5.0835    2.8999    5.9793 H   0  0  0  0  0  0  0  0  0  0  0  0
    4.2085    4.5955    4.9963 C   0  0  0  0  0  0  0  0  0  0  0  0
    4.2873    5.6795    4.9626 H   0  0  0  0  0  0  0  0  0  0  0  0
    3.2027    4.3335    5.3144 H   0  0  0  0  0  0  0  0  0  0  0  0
    4.3636    4.2005    3.9952 H   0  0  0  0  0  0  0  0  0  0  0  0
    5.0095    4.5132    7.3946 C   0  0  0  0  0  0  0  0  0  0  0  0
    5.7128    4.0435    8.0777 H   0  0  0  0  0  0  0  0  0  0  0  0
    4.0022    4.2683    7.7209 H   0  0  0  0  0  0  0  0  0  0  0  0
    5.1350    5.5922    7.4452 H   0  0  0  0  0  0  0  0  0  0  0  0
    7.0878    5.6018    5.3973 C   0  0  0  0  0  0  0  0  0  0  0  0
    6.4186    6.4072    5.6526 H   0  0  0  0  0  0  0  0  0  0  0  0
    8.3601    5.8574    4.9769 C   0  0  0  0  0  0  0  0  0  0  0  0
    8.7293    6.8686    4.8900 H   0  0  0  0  0  0  0  0  0  0  0  0
    9.2079    4.7796    4.6456 C   0  0  0  0  0  0  0  0  0  0  0  0
   10.5412    4.9406    4.2175 C   0  0  0  0  0  3  0  0  0  0  0  0
   10.9381    5.9414    4.1370 H   0  0  0  0  0  0  0  0  0  0  0  0
   11.3227    3.8532    3.9224 C   0  0  0  0  0  0  0  0  0  0  0  0
   12.3461    3.9924    3.6082 H   0  0  0  0  0  0  0  0  0  0  0  0
   10.8105    2.5581    4.0146 C   0  0  0  0  0  0  0  0  0  0  0  0
   11.4385    1.7074    3.7956 H   0  0  0  0  0  0  0  0  0  0  0  0
    9.5033    2.3593    4.4168 C   0  0  0  0  0  0  0  0  0  0  0  0
    8.6784    3.4752    4.7673 C   0  0  0  0  0  0  0  0  0  0  0  0
    8.8772    1.1617    4.6121 N   0  0  0  0  0  0  0  0  0  0  0  0
    9.0447   -0.0068    4.1205 C   0  0  0  0  0  3  0  0  0  0  0  0
    9.8022   -0.2817    3.3863 H   0  0  0  0  0  0  0  0  0  0  0  0
    8.0451   -0.9779    4.5294 C   0  0  1  0  0  3  0  0  0  0  0  0
    6.9275   -0.4749    5.1128 N   0  0  0  0  0  0  0  0  0  0  0  0
    5.9455   -1.2948    5.4804 C   0  0  0  0  0  0  0  0  0  0  0  0
    4.7302   -0.6993    6.1018 C   0  0  0  0  0  0  0  0  0  0  0  0
    4.8818   -0.6053    7.1785 H   0  0  0  0  0  0  0  0  0  0  0  0
    3.8550   -1.3173    5.9217 H   0  0  0  0  0  0  0  0  0  0  0  0
    4.5561    0.3049    5.7024 H   0  0  0  0  0  0  0  0  0  0  0  0
    6.0511   -2.6715    5.2886 C   0  0  0  0  0  0  0  0  0  0  0  0
    5.2380   -3.3076    5.5997 H   0  0  0  0  0  0  0  0  0  0  0  0
    7.1822   -3.2018    4.6955 C   0  0  0  0  0  0  0  0  0  0  0  0
    7.2730   -4.2653    4.5364 H   0  0  0  0  0  0  0  0  0  0  0  0
    8.1907   -2.3420    4.3005 C   0  0  0  0  0  0  0  0  0  0  0  0
    9.0882   -2.7063    3.8260 H   0  0  0  0  0  0  0  0  0  0  0  0
  2  1  1  0  0  0  0
  3  2  1  0  0  0  0
  4  2  1  0  0  0  0
  4  5  1  0  0  0  0
  5  6  1  0  0  0  0
  6  7  1  0  0  0  0
  6 12  1  0  0  0  0
  8 10  1  0  0  0  0
  8  6  1  0  0  0  0
  9  8  1  0  0  0  0
 11  8  1  0  0  0  0
 12 15  1  0  0  0  0
 12 14  1  0  0  0  0
 12 13  1  0  0  0  0
 16  5  2  0  0  0  0
 16 17  1  0  0  0  0
 18 16  1  0  0  0  0
 19 18  1  0  0  0  0
 20 28  1  0  0  0  0
 20 18  2  0  0  0  0
 21 20  1  0  0  0  0
 22 21  1  0  0  0  0
 23 25  2  0  0  0  0
 23 21  1  0  0  0  0
 24 23  1  0  0  0  0
 25 27  1  0  0  0  0
 26 25  1  0  0  0  0
 27 29  1  0  0  0  0
 27 28  2  0  0  0  0
 28  4  1  0  0  0  0
 29  2  1  0  0  0  0
 30 29  1  0  0  0  0
 31 30  1  0  0  0  0
 32 30  1  6  0  0  0
 32 33  1  0  0  0  0
 33  2  1  0  0  0  0
 33 34  1  0  0  0  0
 34 35  1  0  0  0  0
 35 36  1  0  0  0  0
 37 35  1  0  0  0  0
 38 35  1  0  0  0  0
 39 34  2  0  0  0  0
 39 40  1  0  0  0  0
 41 39  1  0  0  0  0
 42 41  1  0  0  0  0
 43 32  1  0  0  0  0
 43 41  2  0  0  0  0
 44 43  1  0  0  0  0
M  END
$$$$
