CSD_code = CIMVUS | q = 0 | S = 0 | Stoichiometry = C13H28Cl2N4Zn | MND = 4
 OpenBabel04212202023D

 48 49  0  0  1  0  0  0  0  0999 V2000
    6.1719    5.5814    7.2641 Zn  0  0  0  0  0  0  0  0  0  0  0  0
    7.6710    6.4097    5.8393 Cl  0  0  0  0  0  0  0  0  0  0  0  0
    5.1030    7.2014    8.9787 H   0  0  0  0  0  0  0  0  0  0  0  0
    5.0558    8.0154    7.5601 H   0  0  0  0  0  0  0  0  0  0  0  0
    3.4648    4.9299    6.2484 C   0  0  1  0  0  0  0  0  0  0  0  0
    2.8762    4.4817    5.4426 H   0  0  0  0  0  0  0  0  0  0  0  0
    3.0237    4.3471    7.6036 C   0  0  0  0  0  0  0  0  0  0  0  0
    1.9849    4.0229    7.5408 H   0  0  0  0  0  0  0  0  0  0  0  0
    3.6305    3.4798    7.8562 H   0  0  0  0  0  0  0  0  0  0  0  0
    3.1907    5.4645    8.6380 C   0  0  0  0  0  0  0  0  0  0  0  0
    4.0344    5.2483    9.2913 H   0  0  0  0  0  0  0  0  0  0  0  0
    2.3015    5.5540    9.2608 H   0  0  0  0  0  0  0  0  0  0  0  0
    3.4493    6.7721    7.8662 C   0  0  1  0  0  0  0  0  0  0  0  0
    3.1272    6.4408    6.3795 C   0  0  0  0  0  0  0  0  0  0  0  0
    5.2479    3.8387    5.0741 C   0  0  0  0  0  3  0  0  0  0  0  0
    4.8654    4.6082    6.0521 N   0  0  0  0  0  0  0  0  0  0  0  0
    4.4719    3.5617    3.9690 N   0  0  0  0  0  0  0  0  0  0  0  0
    3.9154    4.5960    3.1315 C   0  0  0  0  0  0  0  0  0  0  0  0
    4.3535    4.5387    2.1284 H   0  0  0  0  0  0  0  0  0  0  0  0
    4.1492    5.5669    3.5521 H   0  0  0  0  0  0  0  0  0  0  0  0
    2.8308    4.4861    3.0335 H   0  0  0  0  0  0  0  0  0  0  0  0
    4.4831    2.2492    3.3671 C   0  0  0  0  0  0  0  0  0  0  0  0
    3.4517    1.9693    3.1353 H   0  0  0  0  0  0  0  0  0  0  0  0
    4.8914    1.5263    4.0677 H   0  0  0  0  0  0  0  0  0  0  0  0
    5.0604    2.2139    2.4369 H   0  0  0  0  0  0  0  0  0  0  0  0
    1.6254    6.5971    6.1028 C   0  0  0  0  0  0  0  0  0  0  0  0
    1.3394    7.6451    6.1209 H   0  0  0  0  0  0  0  0  0  0  0  0
    1.0269    6.0581    6.8307 H   0  0  0  0  0  0  0  0  0  0  0  0
    1.3911    6.2067    5.1146 H   0  0  0  0  0  0  0  0  0  0  0  0
    3.8774    7.3532    5.4079 C   0  0  0  0  0  0  0  0  0  0  0  0
    3.4353    7.2876    4.4163 H   0  0  0  0  0  0  0  0  0  0  0  0
    4.9321    7.1000    5.3372 H   0  0  0  0  0  0  0  0  0  0  0  0
    3.7872    8.3917    5.7229 H   0  0  0  0  0  0  0  0  0  0  0  0
    2.6397    7.9375    8.4444 C   0  0  0  0  0  0  0  0  0  0  0  0
    2.7786    8.8417    7.8537 H   0  0  0  0  0  0  0  0  0  0  0  0
    2.9758    8.1394    9.4606 H   0  0  0  0  0  0  0  0  0  0  0  0
    1.5792    7.7121    8.4842 H   0  0  0  0  0  0  0  0  0  0  0  0
    4.8807    7.1079    7.9880 N   0  0  0  0  0  4  0  0  0  0  0  0
    6.4167    3.1541    5.1355 N   0  0  0  0  0  0  0  0  0  0  0  0
    7.3048    3.1248    3.9925 C   0  0  0  0  0  0  0  0  0  0  0  0
    6.8297    3.5725    3.1252 H   0  0  0  0  0  0  0  0  0  0  0  0
    7.6010    2.0987    3.7611 H   0  0  0  0  0  0  0  0  0  0  0  0
    8.1999    3.7098    4.2209 H   0  0  0  0  0  0  0  0  0  0  0  0
    7.0677    2.8083    6.3764 C   0  0  0  0  0  0  0  0  0  0  0  0
    7.5357    1.8288    6.2498 H   0  0  0  0  0  0  0  0  0  0  0  0
    6.3374    2.7471    7.1796 H   0  0  0  0  0  0  0  0  0  0  0  0
    7.8490    3.5235    6.6527 H   0  0  0  0  0  0  0  0  0  0  0  0
    6.6835    4.6924    9.2475 Cl  0  0  0  0  0  0  0  0  0  0  0  0
  1 38  1  0  0  0  0
  1 48  1  0  0  0  0
  2  1  1  0  0  0  0
  4 38  1  0  0  0  0
  5  6  1  6  0  0  0
  5 14  1  0  0  0  0
  5  7  1  0  0  0  0
  7  9  1  0  0  0  0
  7 10  1  0  0  0  0
  8  7  1  0  0  0  0
 10 12  1  0  0  0  0
 10 11  1  0  0  0  0
 13 38  1  0  0  0  0
 13 34  1  1  0  0  0
 13 10  1  0  0  0  0
 14 13  1  0  0  0  0
 15 39  1  0  0  0  0
 15 16  1  0  0  0  0
 16  5  1  0  0  0  0
 16  1  1  0  0  0  0
 17 15  1  0  0  0  0
 18 20  1  0  0  0  0
 18 17  1  0  0  0  0
 19 18  1  0  0  0  0
 21 18  1  0  0  0  0
 22 17  1  0  0  0  0
 22 24  1  0  0  0  0
 23 22  1  0  0  0  0
 25 22  1  0  0  0  0
 26 27  1  0  0  0  0
 26 14  1  0  0  0  0
 26 28  1  0  0  0  0
 29 26  1  0  0  0  0
 30 33  1  0  0  0  0
 30 14  1  0  0  0  0
 31 30  1  0  0  0  0
 32 30  1  0  0  0  0
 34 37  1  0  0  0  0
 34 36  1  0  0  0  0
 35 34  1  0  0  0  0
 38  3  1  0  0  0  0
 39 44  1  0  0  0  0
 40 43  1  0  0  0  0
 40 39  1  0  0  0  0
 41 40  1  0  0  0  0
 42 40  1  0  0  0  0
 44 47  1  0  0  0  0
 44 46  1  0  0  0  0
 45 44  1  0  0  0  0
M  END
$$$$
