CSD_code = CIMWAZ | q = 0 | S = 0 | Stoichiometry = C13H26Cl2N4Zn | MND = 4
 OpenBabel04212202023D

 46 48  0  0  1  0  0  0  0  0999 V2000
    6.4222    0.6034    3.6181 C   0  0  0  0  0  0  0  0  0  0  0  0
    6.1026    0.0848    2.7097 H   0  0  0  0  0  0  0  0  0  0  0  0
    6.3801   -0.1041    4.4533 H   0  0  0  0  0  0  0  0  0  0  0  0
    6.7652    5.7442    3.3325 Zn  0  0  0  0  0  0  0  0  0  0  0  0
    7.2751    5.1311    1.2469 Cl  0  0  0  0  0  0  0  0  0  0  0  0
    6.2625    2.9041    3.9307 C   0  0  0  0  0  3  0  0  0  0  0  0
    8.0615    6.9636    4.6694 Cl  0  0  0  0  0  0  0  0  0  0  0  0
    7.8058    1.2296    3.4569 C   0  0  0  0  0  0  0  0  0  0  0  0
    8.5458    0.7834    4.1282 H   0  0  0  0  0  0  0  0  0  0  0  0
    8.1837    1.1576    2.4294 H   0  0  0  0  0  0  0  0  0  0  0  0
    5.3971    7.9715    3.3365 H   0  0  0  0  0  0  0  0  0  0  0  0
    4.7647    7.0206    2.1656 H   0  0  0  0  0  0  0  0  0  0  0  0
    4.5844    4.4449    4.7486 C   0  0  1  0  0  0  0  0  0  0  0  0
    4.1359    3.5292    5.1449 H   0  0  0  0  0  0  0  0  0  0  0  0
    4.8549    5.4074    5.9244 C   0  0  0  0  0  0  0  0  0  0  0  0
    4.2880    5.0942    6.8006 H   0  0  0  0  0  0  0  0  0  0  0  0
    5.9119    5.3772    6.1804 H   0  0  0  0  0  0  0  0  0  0  0  0
    3.5671    5.2085    3.8476 C   0  0  0  0  0  0  0  0  0  0  0  0
    5.8560    4.1227    4.1307 N   0  0  2  0  0  0  0  0  0  0  0  0
    4.4431    6.8139    5.4784 C   0  0  0  0  0  0  0  0  0  0  0  0
    5.2873    7.4984    5.5438 H   0  0  0  0  0  0  0  0  0  0  0  0
    3.6479    7.2045    6.1128 H   0  0  0  0  0  0  0  0  0  0  0  0
    3.9552    6.7047    4.0264 C   0  0  2  0  0  0  0  0  0  0  0  0
    4.2077    1.5558    3.3617 C   0  0  0  0  0  0  0  0  0  0  0  0
    4.2207    1.5108    2.2659 H   0  0  0  0  0  0  0  0  0  0  0  0
    3.5504    2.3568    3.6706 H   0  0  0  0  0  0  0  0  0  0  0  0
    3.8125    0.6141    3.7466 H   0  0  0  0  0  0  0  0  0  0  0  0
    2.8236    7.6966    3.7368 C   0  0  0  0  0  0  0  0  0  0  0  0
    2.4389    7.5681    2.7264 H   0  0  0  0  0  0  0  0  0  0  0  0
    3.2039    8.7130    3.8295 H   0  0  0  0  0  0  0  0  0  0  0  0
    2.0008    7.5864    4.4353 H   0  0  0  0  0  0  0  0  0  0  0  0
    5.5377    1.7302    3.8952 N   0  0  0  0  0  0  0  0  0  0  0  0
    7.5731    2.6073    3.8167 N   0  0  0  0  0  0  0  0  0  0  0  0
    8.7007    3.4693    4.0347 C   0  0  0  0  0  0  0  0  0  0  0  0
    9.0715    3.8916    3.0965 H   0  0  0  0  0  0  0  0  0  0  0  0
    9.5007    2.8850    4.4932 H   0  0  0  0  0  0  0  0  0  0  0  0
    8.4328    4.2779    4.7132 H   0  0  0  0  0  0  0  0  0  0  0  0
    3.5794    4.7902    2.3759 C   0  0  0  0  0  0  0  0  0  0  0  0
    3.0724    5.5391    1.7696 H   0  0  0  0  0  0  0  0  0  0  0  0
    3.0421    3.8563    2.2364 H   0  0  0  0  0  0  0  0  0  0  0  0
    4.5901    4.6599    1.9989 H   0  0  0  0  0  0  0  0  0  0  0  0
    5.0836    7.0229    3.1332 N   0  0  0  0  0  4  0  0  0  0  0  0
    2.1644    4.9539    4.4155 C   0  0  0  0  0  0  0  0  0  0  0  0
    1.9507    3.8866    4.4288 H   0  0  0  0  0  0  0  0  0  0  0  0
    1.4074    5.4313    3.7994 H   0  0  0  0  0  0  0  0  0  0  0  0
    2.0780    5.3252    5.4325 H   0  0  0  0  0  0  0  0  0  0  0  0
  1 32  1  0  0  0  0
  1  3  1  0  0  0  0
  2  1  1  0  0  0  0
  4 19  1  0  0  0  0
  4  7  1  0  0  0  0
  5  4  1  0  0  0  0
  8  1  1  0  0  0  0
  8 33  1  0  0  0  0
  8  9  1  0  0  0  0
 10  8  1  0  0  0  0
 12 42  1  0  0  0  0
 13 14  1  1  0  0  0
 13 15  1  0  0  0  0
 15 17  1  0  0  0  0
 15 16  1  0  0  0  0
 18 23  1  0  0  0  0
 18 43  1  0  0  0  0
 18 13  1  0  0  0  0
 19  6  1  6  0  0  0
 19 13  1  0  0  0  0
 20 21  1  0  0  0  0
 20 15  1  0  0  0  0
 20 22  1  0  0  0  0
 23 28  1  6  0  0  0
 23 20  1  0  0  0  0
 24 26  1  0  0  0  0
 24 27  1  0  0  0  0
 24 32  1  0  0  0  0
 25 24  1  0  0  0  0
 28 30  1  0  0  0  0
 28 31  1  0  0  0  0
 29 28  1  0  0  0  0
 32  6  1  0  0  0  0
 33  6  1  0  0  0  0
 33 34  1  0  0  0  0
 34 36  1  0  0  0  0
 34 37  1  0  0  0  0
 35 34  1  0  0  0  0
 38 18  1  0  0  0  0
 39 38  1  0  0  0  0
 40 38  1  0  0  0  0
 41 38  1  0  0  0  0
 42  4  1  0  0  0  0
 42 11  1  0  0  0  0
 42 23  1  0  0  0  0
 43 44  1  0  0  0  0
 43 46  1  0  0  0  0
 45 43  1  0  0  0  0
M  END
$$$$
