CSD_code = CIMWAW | q = 0 | S = 0 | Stoichiometry = C11H15Cl4MoNO | MND = 6
 OpenBabel04212202023D

 33 33  0  0  0  0  0  0  0  0999 V2000
    8.9226    6.4207    4.2410 Mo  0  0  0  0  0  0  0  0  0  0  0  0
    7.4834    5.0682    5.4627 Cl  0  0  0  0  0  0  0  0  0  0  0  0
   10.0943    4.5035    3.6116 Cl  0  0  0  0  0  0  0  0  0  0  0  0
    8.0835    8.2761    5.3807 Cl  0  0  0  0  0  0  0  0  0  0  0  0
   10.7671    7.6945    3.6366 Cl  0  0  0  0  0  0  0  0  0  0  0  0
    7.9797    6.5940    2.7956 N   0  0  0  0  0  2  0  0  0  0  0  0
    7.2526    6.7259    1.6955 C   0  0  0  0  0  0  0  0  0  0  0  0
    5.8622    6.5115    1.7277 C   0  0  0  0  0  0  0  0  0  0  0  0
    5.1166    6.6541    0.5811 C   0  0  0  0  0  0  0  0  0  0  0  0
    5.7115    7.0070   -0.6295 C   0  0  0  0  0  0  0  0  0  0  0  0
    7.0874    7.2163   -0.6595 C   0  0  0  0  0  0  0  0  0  0  0  0
    7.8543    7.0834    0.4762 C   0  0  0  0  0  0  0  0  0  0  0  0
    4.8816    7.1386   -1.8670 C   0  0  0  0  0  0  0  0  0  0  0  0
   10.1679    6.1885    6.1524 O   0  0  0  0  0  0  0  0  0  0  0  0
    9.7185    6.5103    7.4749 C   0  0  0  0  0  0  0  0  0  0  0  0
   10.7379    5.8941    8.4262 C   0  0  0  0  0  0  0  0  0  0  0  0
   12.0214    6.0143    7.6103 C   0  0  0  0  0  0  0  0  0  0  0  0
   11.5154    5.7017    6.2064 C   0  0  0  0  0  0  0  0  0  0  0  0
    5.4093    6.2395    2.6707 H   0  0  0  0  0  0  0  0  0  0  0  0
    4.0495    6.4898    0.6171 H   0  0  0  0  0  0  0  0  0  0  0  0
    7.5630    7.4894   -1.5903 H   0  0  0  0  0  0  0  0  0  0  0  0
    8.9228    7.2451    0.4615 H   0  0  0  0  0  0  0  0  0  0  0  0
    3.9754    7.7053   -1.6626 H   0  0  0  0  0  0  0  0  0  0  0  0
    5.4369    7.6332   -2.6595 H   0  0  0  0  0  0  0  0  0  0  0  0
    4.5824    6.1520   -2.2215 H   0  0  0  0  0  0  0  0  0  0  0  0
    9.6923    7.6038    7.5762 H   0  0  0  0  0  0  0  0  0  0  0  0
    8.7074    6.1116    7.6061 H   0  0  0  0  0  0  0  0  0  0  0  0
   10.7809    6.4211    9.3757 H   0  0  0  0  0  0  0  0  0  0  0  0
   10.5013    4.8457    8.6103 H   0  0  0  0  0  0  0  0  0  0  0  0
   12.4074    7.0329    7.6577 H   0  0  0  0  0  0  0  0  0  0  0  0
   12.7988    5.3241    7.9271 H   0  0  0  0  0  0  0  0  0  0  0  0
   11.5000    4.6189    6.0228 H   0  0  0  0  0  0  0  0  0  0  0  0
   12.0958    6.1929    5.4185 H   0  0  0  0  0  0  0  0  0  0  0  0
  1  4  1  0  0  0  0
  1  2  1  0  0  0  0
  3  1  1  0  0  0  0
  5  1  1  0  0  0  0
  6  1  1  0  0  0  0
  7  8  1  0  0  0  0
  7  6  1  0  0  0  0
  8 19  1  0  0  0  0
  9 20  1  0  0  0  0
  9  8  2  0  0  0  0
 10  9  1  0  0  0  0
 11 10  2  0  0  0  0
 11 12  1  0  0  0  0
 12  7  2  0  0  0  0
 13 23  1  0  0  0  0
 13 10  1  0  0  0  0
 14 18  1  0  0  0  0
 14 15  1  0  0  0  0
 15 26  1  0  0  0  0
 15 27  1  0  0  0  0
 15 16  1  0  0  0  0
 16 29  1  0  0  0  0
 16 28  1  0  0  0  0
 17 30  1  0  0  0  0
 17 31  1  0  0  0  0
 17 16  1  0  0  0  0
 18 17  1  0  0  0  0
 21 11  1  0  0  0  0
 22 12  1  0  0  0  0
 24 13  1  0  0  0  0
 25 13  1  0  0  0  0
 32 18  1  0  0  0  0
 33 18  1  0  0  0  0
M  END
$$$$
