CSD_code = CIMWEA | q = 0 | S = 0 | Stoichiometry = C18H24Cl2N6O2Ru | MND = 6
 OpenBabel04212202023D

 53 56  0  0  0  0  0  0  0  0999 V2000
    0.0001    0.0001    0.0001 Ru  0  0  0  0  0  0  0  0  0  0  0  0
    1.9581    0.6667    1.1312 Cl  0  0  0  0  0  0  0  0  0  0  0  0
    1.0877   -0.3199   -1.6013 O   0  0  0  0  0  0  0  0  0  0  0  0
    1.7753   -1.4222   -1.4688 N   0  0  0  0  0  0  0  0  0  0  0  0
    1.5322   -2.2416   -0.5183 N   0  0  0  0  0  2  0  0  0  0  0  0
   -0.5734    1.8544   -0.2615 N   0  0  0  0  0  0  0  0  0  0  0  0
   -0.2247    2.7011   -1.2937 C   0  0  0  0  0  0  0  0  0  0  0  0
   -1.1284    3.6287   -1.8198 C   0  0  0  0  0  0  0  0  0  0  0  0
   -0.7524    4.4264   -2.8786 C   0  0  0  0  0  0  0  0  0  0  0  0
    0.5218    4.3352   -3.4318 C   0  0  0  0  0  0  0  0  0  0  0  0
    1.4197    3.4210   -2.8880 C   0  0  0  0  0  0  0  0  0  0  0  0
    1.0608    2.6130   -1.8306 C   0  0  0  0  0  0  0  0  0  0  0  0
    0.9290    5.2226   -4.5664 C   0  0  0  0  0  0  0  0  0  0  0  0
    2.8335   -1.6871   -2.4106 C   0  0  0  0  0  0  0  0  0  0  0  0
    4.0645   -0.8682   -2.0339 C   0  0  0  0  0  0  0  0  0  0  0  0
   -2.1228    3.6855   -1.4048 H   0  0  0  0  0  0  0  0  0  0  0  0
   -1.4612    5.1302   -3.2908 H   0  0  0  0  0  0  0  0  0  0  0  0
    2.4168    3.3506   -3.2986 H   0  0  0  0  0  0  0  0  0  0  0  0
    1.7665    1.9264   -1.3874 H   0  0  0  0  0  0  0  0  0  0  0  0
    1.6435    4.7207   -5.2148 H   0  0  0  0  0  0  0  0  0  0  0  0
    1.4039    6.1249   -4.1790 H   0  0  0  0  0  0  0  0  0  0  0  0
    0.0655    5.5233   -5.1548 H   0  0  0  0  0  0  0  0  0  0  0  0
    3.0436   -2.7569   -2.3761 H   0  0  0  0  0  0  0  0  0  0  0  0
    2.4723   -1.4035   -3.4028 H   0  0  0  0  0  0  0  0  0  0  0  0
    4.4097   -1.1436   -1.0406 H   0  0  0  0  0  0  0  0  0  0  0  0
    4.8625   -1.0439   -2.7493 H   0  0  0  0  0  0  0  0  0  0  0  0
    3.8197    0.1911   -2.0305 H   0  0  0  0  0  0  0  0  0  0  0  0
   -1.9580   -0.6668   -1.1311 Cl  0  0  0  0  0  0  0  0  0  0  0  0
   -1.0874    0.3201    1.6014 O   0  0  0  0  0  0  0  0  0  0  0  0
    0.5735   -1.8543    0.2616 N   0  0  0  0  0  0  0  0  0  0  0  0
   -1.5320    2.2417    0.5185 N   0  0  0  0  0  2  0  0  0  0  0  0
   -1.7750    1.4224    1.4690 N   0  0  0  0  0  0  0  0  0  0  0  0
    0.2247   -2.7010    1.2937 C   0  0  0  0  0  0  0  0  0  0  0  0
   -2.8331    1.6874    2.4109 C   0  0  0  0  0  0  0  0  0  0  0  0
    1.1283   -3.6287    1.8197 C   0  0  0  0  0  0  0  0  0  0  0  0
   -1.0609   -2.6130    1.8304 C   0  0  0  0  0  0  0  0  0  0  0  0
   -4.0642    0.8685    2.0344 C   0  0  0  0  0  0  0  0  0  0  0  0
   -3.0432    2.7572    2.3764 H   0  0  0  0  0  0  0  0  0  0  0  0
   -2.4718    1.4038    3.4031 H   0  0  0  0  0  0  0  0  0  0  0  0
    0.7522   -4.4266    2.8784 C   0  0  0  0  0  0  0  0  0  0  0  0
    2.1228   -3.6855    1.4049 H   0  0  0  0  0  0  0  0  0  0  0  0
   -1.4199   -3.4212    2.8877 C   0  0  0  0  0  0  0  0  0  0  0  0
   -1.7666   -1.9263    1.3872 H   0  0  0  0  0  0  0  0  0  0  0  0
   -4.4096    1.1439    1.0412 H   0  0  0  0  0  0  0  0  0  0  0  0
   -4.8621    1.0443    2.7500 H   0  0  0  0  0  0  0  0  0  0  0  0
   -3.8194   -0.1908    2.0311 H   0  0  0  0  0  0  0  0  0  0  0  0
   -0.5221   -4.3355    3.4314 C   0  0  0  0  0  0  0  0  0  0  0  0
    1.4609   -5.1305    3.2906 H   0  0  0  0  0  0  0  0  0  0  0  0
   -2.4170   -3.3508    3.2981 H   0  0  0  0  0  0  0  0  0  0  0  0
   -0.9295   -5.2230    4.5659 C   0  0  0  0  0  0  0  0  0  0  0  0
   -1.6440   -4.7212    5.2142 H   0  0  0  0  0  0  0  0  0  0  0  0
   -1.4044   -6.1252    4.1782 H   0  0  0  0  0  0  0  0  0  0  0  0
   -0.0660   -5.5239    5.1543 H   0  0  0  0  0  0  0  0  0  0  0  0
  1 30  1  0  0  0  0
  1  2  1  0  0  0  0
  1 29  1  0  0  0  0
  3  4  1  0  0  0  0
  3  1  1  0  0  0  0
  4  5  1  0  0  0  0
  5 30  1  0  0  0  0
  6  1  1  0  0  0  0
  6 31  1  0  0  0  0
  7  6  1  0  0  0  0
  8 16  1  0  0  0  0
  8  7  1  0  0  0  0
  9  8  2  0  0  0  0
 10 11  2  0  0  0  0
 10  9  1  0  0  0  0
 11 12  1  0  0  0  0
 12 19  1  0  0  0  0
 12  7  2  0  0  0  0
 13 21  1  0  0  0  0
 13 10  1  0  0  0  0
 14 23  1  0  0  0  0
 14 15  1  0  0  0  0
 14  4  1  0  0  0  0
 15 27  1  0  0  0  0
 15 25  1  0  0  0  0
 17  9  1  0  0  0  0
 18 11  1  0  0  0  0
 20 13  1  0  0  0  0
 22 13  1  0  0  0  0
 24 14  1  0  0  0  0
 26 15  1  0  0  0  0
 28  1  1  0  0  0  0
 30 33  1  0  0  0  0
 31 32  1  0  0  0  0
 32 29  1  0  0  0  0
 32 34  1  0  0  0  0
 33 35  2  0  0  0  0
 33 36  1  0  0  0  0
 34 39  1  0  0  0  0
 35 40  1  0  0  0  0
 36 42  2  0  0  0  0
 37 34  1  0  0  0  0
 37 45  1  0  0  0  0
 38 34  1  0  0  0  0
 40 48  1  0  0  0  0
 40 47  2  0  0  0  0
 41 35  1  0  0  0  0
 42 49  1  0  0  0  0
 42 47  1  0  0  0  0
 43 36  1  0  0  0  0
 44 37  1  0  0  0  0
 46 37  1  0  0  0  0
 47 50  1  0  0  0  0
 50 53  1  0  0  0  0
 50 51  1  0  0  0  0
 52 50  1  0  0  0  0
M  END
$$$$
