CSD_code = CINVOL | q = 0 | S = 0 | Stoichiometry = C13H30Cl2HgN6 | MND = 4
 OpenBabel04212202023D

 52 52  0  0  0  0  0  0  0  0999 V2000
    0.1681    4.1709   -3.1998 Hg  0  0  0  0  0  0  0  0  0  0  0  0
   -0.2262    5.9794   -1.8334 Cl  0  0  0  0  0  0  0  0  0  0  0  0
    2.0035    4.1328   -4.5823 Cl  0  0  0  0  0  0  0  0  0  0  0  0
   -0.2259    2.4963   -1.7136 N   0  0  0  0  0  0  0  0  0  0  0  0
    0.8638    2.0807    0.3353 N   0  0  0  0  0  0  0  0  0  0  0  0
    1.7749    1.3457   -1.6716 N   0  0  0  0  0  0  0  0  0  0  0  0
   -1.9222    3.8513   -4.0267 N   0  0  0  0  0  0  0  0  0  0  0  0
   -1.6310    4.0422   -6.3081 N   0  0  0  0  0  0  0  0  0  0  0  0
   -3.2521    5.3460   -5.2725 N   0  0  0  0  0  0  0  0  0  0  0  0
    0.5172    3.2747    1.0735 C   0  0  0  0  0  0  0  0  0  0  0  0
    0.3460    4.1030    0.3894 H   0  0  0  0  0  0  0  0  0  0  0  0
    1.3505    3.5438    1.7289 H   0  0  0  0  0  0  0  0  0  0  0  0
   -0.3729    3.1249    1.6911 H   0  0  0  0  0  0  0  0  0  0  0  0
    1.5243    1.0537    1.1035 C   0  0  0  0  0  0  0  0  0  0  0  0
    1.6952    0.1825    0.4769 H   0  0  0  0  0  0  0  0  0  0  0  0
    0.8770    0.7697    1.9382 H   0  0  0  0  0  0  0  0  0  0  0  0
    2.4803    1.3921    1.5175 H   0  0  0  0  0  0  0  0  0  0  0  0
    3.1622    1.6935   -1.4360 C   0  0  0  0  0  0  0  0  0  0  0  0
    3.2671    2.2425   -0.5051 H   0  0  0  0  0  0  0  0  0  0  0  0
    3.5315    2.3260   -2.2503 H   0  0  0  0  0  0  0  0  0  0  0  0
    3.7707    0.7879   -1.3931 H   0  0  0  0  0  0  0  0  0  0  0  0
    1.5327    0.8404   -3.0061 C   0  0  0  0  0  0  0  0  0  0  0  0
    0.4844    0.5676   -3.0977 H   0  0  0  0  0  0  0  0  0  0  0  0
    2.1567   -0.0432   -3.1504 H   0  0  0  0  0  0  0  0  0  0  0  0
    1.7780    1.5727   -3.7815 H   0  0  0  0  0  0  0  0  0  0  0  0
    0.7824    2.0366   -1.0298 C   0  0  0  0  0  3  0  0  0  0  0  0
   -1.5145    2.6971   -1.0667 C   0  0  0  0  0  0  0  0  0  0  0  0
   -1.5918    3.6906   -0.6127 H   0  0  0  0  0  0  0  0  0  0  0  0
   -1.6301    1.9472   -0.2739 H   0  0  0  0  0  0  0  0  0  0  0  0
   -2.6556    2.5462   -2.0787 C   0  0  0  0  0  0  0  0  0  0  0  0
   -2.4523    1.6939   -2.7282 H   0  0  0  0  0  0  0  0  0  0  0  0
   -3.5734    2.3494   -1.5211 H   0  0  0  0  0  0  0  0  0  0  0  0
   -2.8862    3.7949   -2.9373 C   0  0  0  0  0  0  0  0  0  0  0  0
   -3.8970    3.7616   -3.3632 H   0  0  0  0  0  0  0  0  0  0  0  0
   -2.8171    4.6731   -2.2867 H   0  0  0  0  0  0  0  0  0  0  0  0
   -2.2389    4.4346   -5.1473 C   0  0  0  0  0  3  0  0  0  0  0  0
   -1.0873    5.0344   -7.2135 C   0  0  0  0  0  0  0  0  0  0  0  0
   -1.5132    6.0125   -7.0114 H   0  0  0  0  0  0  0  0  0  0  0  0
   -1.3001    4.7531   -8.2471 H   0  0  0  0  0  0  0  0  0  0  0  0
   -0.0019    5.1003   -7.0844 H   0  0  0  0  0  0  0  0  0  0  0  0
   -0.9164    2.7842   -6.3428 C   0  0  0  0  0  0  0  0  0  0  0  0
   -1.4028    2.0805   -5.6718 H   0  0  0  0  0  0  0  0  0  0  0  0
    0.1314    2.8912   -6.0462 H   0  0  0  0  0  0  0  0  0  0  0  0
   -0.9529    2.4034   -7.3649 H   0  0  0  0  0  0  0  0  0  0  0  0
   -4.0496    5.4572   -6.4695 C   0  0  0  0  0  0  0  0  0  0  0  0
   -3.8868    4.5863   -7.0986 H   0  0  0  0  0  0  0  0  0  0  0  0
   -3.8196    6.3625   -7.0416 H   0  0  0  0  0  0  0  0  0  0  0  0
   -5.1050    5.4972   -6.1849 H   0  0  0  0  0  0  0  0  0  0  0  0
   -3.4266    6.4147   -4.3144 C   0  0  0  0  0  0  0  0  0  0  0  0
   -2.5872    6.4395   -3.6230 H   0  0  0  0  0  0  0  0  0  0  0  0
   -4.3571    6.3048   -3.7503 H   0  0  0  0  0  0  0  0  0  0  0  0
   -3.4561    7.3703   -4.8459 H   0  0  0  0  0  0  0  0  0  0  0  0
  1  2  1  0  0  0  0
  1  4  1  0  0  0  0
  3  1  1  0  0  0  0
  4 27  1  0  0  0  0
  4 26  1  0  0  0  0
  5 10  1  0  0  0  0
  5 14  1  0  0  0  0
  6 18  1  0  0  0  0
  6 26  1  0  0  0  0
  7  1  1  0  0  0  0
  7 33  1  0  0  0  0
  8 36  1  0  0  0  0
  9 36  1  0  0  0  0
  9 49  1  0  0  0  0
 10 13  1  0  0  0  0
 10 12  1  0  0  0  0
 11 10  1  0  0  0  0
 14 17  1  0  0  0  0
 14 16  1  0  0  0  0
 15 14  1  0  0  0  0
 18 21  1  0  0  0  0
 18 19  1  0  0  0  0
 20 18  1  0  0  0  0
 22  6  1  0  0  0  0
 23 22  1  0  0  0  0
 24 22  1  0  0  0  0
 25 22  1  0  0  0  0
 26  5  1  0  0  0  0
 27 28  1  0  0  0  0
 27 29  1  0  0  0  0
 30 32  1  0  0  0  0
 30 27  1  0  0  0  0
 31 30  1  0  0  0  0
 33 35  1  0  0  0  0
 33 30  1  0  0  0  0
 34 33  1  0  0  0  0
 36  7  1  0  0  0  0
 37 40  1  0  0  0  0
 37 38  1  0  0  0  0
 37  8  1  0  0  0  0
 39 37  1  0  0  0  0
 41  8  1  0  0  0  0
 41 43  1  0  0  0  0
 41 42  1  0  0  0  0
 44 41  1  0  0  0  0
 45 48  1  0  0  0  0
 45  9  1  0  0  0  0
 46 45  1  0  0  0  0
 47 45  1  0  0  0  0
 49 51  1  0  0  0  0
 49 50  1  0  0  0  0
 52 49  1  0  0  0  0
M  END
$$$$
