CSD_code = CIQGEO | q = 0 | S = 0 | Stoichiometry = C18H20I2N4Pd | MND = 4
 OpenBabel04212202023D

 45 48  0  0  0  0  0  0  0  0999 V2000
    2.9472    2.6662    3.4558 Pd  0  0  0  0  0  0  0  0  0  0  0  0
    3.6458    2.9553    0.9484 I   0  0  0  0  0  0  0  0  0  0  0  0
    4.9344    4.0149    4.4965 I   0  0  0  0  0  0  0  0  0  0  0  0
    1.9925    0.0855    2.4788 N   0  0  0  0  0  0  0  0  0  0  0  0
    0.4059    1.5605    2.2418 N   0  0  0  0  0  0  0  0  0  0  0  0
    2.3876    1.8933    6.3357 N   0  0  0  0  0  0  0  0  0  0  0  0
    1.4888    3.7821    5.7265 N   0  0  0  0  0  0  0  0  0  0  0  0
    1.6450    1.3643    2.7280 C   0  0  0  0  0  3  0  0  0  0  0  0
    0.9641   -0.5556    1.8223 C   0  0  0  0  0  0  0  0  0  0  0  0
   -0.0616    0.3936    1.6733 C   0  0  0  0  0  0  0  0  0  0  0  0
   -1.2553    0.0702    1.0500 C   0  0  0  0  0  0  0  0  0  0  0  0
   -2.0469    0.7934    0.9333 H   0  0  0  0  0  0  0  0  0  0  0  0
   -1.3885   -1.2236    0.5803 C   0  0  0  0  0  0  0  0  0  0  0  0
   -2.3037   -1.5130    0.0875 H   0  0  0  0  0  0  0  0  0  0  0  0
   -0.3697   -2.1629    0.7239 C   0  0  0  0  0  0  0  0  0  0  0  0
   -0.5166   -3.1596    0.3378 H   0  0  0  0  0  0  0  0  0  0  0  0
    0.8245   -1.8487    1.3462 C   0  0  0  0  0  0  0  0  0  0  0  0
    1.6126   -2.5771    1.4523 H   0  0  0  0  0  0  0  0  0  0  0  0
    3.3074   -0.4612    2.7006 C   0  0  0  0  0  0  0  0  0  0  0  0
    3.2828   -1.2482    3.4585 H   0  0  0  0  0  0  0  0  0  0  0  0
    3.9832    0.3513    3.0271 H   0  0  0  0  0  0  0  0  0  0  0  0
    3.6957   -0.8725    1.7667 H   0  0  0  0  0  0  0  0  0  0  0  0
   -0.2511    2.8392    2.2002 C   0  0  0  0  0  0  0  0  0  0  0  0
   -0.7700    2.9525    1.2486 H   0  0  0  0  0  0  0  0  0  0  0  0
    0.5120    3.6254    2.2769 H   0  0  0  0  0  0  0  0  0  0  0  0
   -0.9701    2.9416    3.0180 H   0  0  0  0  0  0  0  0  0  0  0  0
    2.1938    2.7185    5.2906 C   0  0  0  0  0  0  0  0  0  0  0  0
    1.7989    2.4244    7.4649 C   0  0  0  0  0  0  0  0  0  0  0  0
    1.2236    3.6449    7.0719 C   0  0  0  0  0  0  0  0  0  0  0  0
    0.5547    4.4518    7.9776 C   0  0  0  0  0  0  0  0  0  0  0  0
    0.1169    5.3914    7.6801 H   0  0  0  0  0  0  0  0  0  0  0  0
    0.4775    4.0009    9.2823 C   0  0  0  0  0  0  0  0  0  0  0  0
   -0.0323    4.6025   10.0187 H   0  0  0  0  0  0  0  0  0  0  0  0
    1.0442    2.7892    9.6715 C   0  0  0  0  0  0  0  0  0  0  0  0
    0.9608    2.4777   10.7012 H   0  0  0  0  0  0  0  0  0  0  0  0
    1.7142    1.9786    8.7736 C   0  0  0  0  0  0  0  0  0  0  0  0
    2.1526    1.0428    9.0824 H   0  0  0  0  0  0  0  0  0  0  0  0
    3.2072    0.7125    6.2926 C   0  0  0  0  0  0  0  0  0  0  0  0
    3.8082    0.6512    7.1997 H   0  0  0  0  0  0  0  0  0  0  0  0
    3.8828    0.7894    5.4305 H   0  0  0  0  0  0  0  0  0  0  0  0
    2.5959   -0.1900    6.2032 H   0  0  0  0  0  0  0  0  0  0  0  0
    1.2159    4.9594    4.9414 C   0  0  0  0  0  0  0  0  0  0  0  0
    0.1437    5.0711    4.7611 H   0  0  0  0  0  0  0  0  0  0  0  0
    1.7510    4.8792    3.9769 H   0  0  0  0  0  0  0  0  0  0  0  0
    1.5868    5.8428    5.4650 H   0  0  0  0  0  0  0  0  0  0  0  0
  1  3  1  0  0  0  0
  1 27  2  0  0  0  0
  2  1  1  0  0  0  0
  4 19  1  0  0  0  0
  4  8  1  0  0  0  0
  5  8  1  0  0  0  0
  6 28  1  0  0  0  0
  7 29  1  0  0  0  0
  8  1  1  0  0  0  0
  9  4  1  0  0  0  0
 10  9  1  0  0  0  0
 10  5  1  0  0  0  0
 11 10  2  0  0  0  0
 12 11  1  0  0  0  0
 13 15  2  0  0  0  0
 13 11  1  0  0  0  0
 14 13  1  0  0  0  0
 15 17  1  0  0  0  0
 16 15  1  0  0  0  0
 17 18  1  0  0  0  0
 17  9  2  0  0  0  0
 19 21  1  0  0  0  0
 19 20  1  0  0  0  0
 22 19  1  0  0  0  0
 23  5  1  0  0  0  0
 23 25  1  0  0  0  0
 23 26  1  0  0  0  0
 24 23  1  0  0  0  0
 27  7  1  0  0  0  0
 27  6  1  0  0  0  0
 28 36  1  0  0  0  0
 29 28  2  0  0  0  0
 29 30  1  0  0  0  0
 30 32  2  0  0  0  0
 31 30  1  0  0  0  0
 32 34  1  0  0  0  0
 32 33  1  0  0  0  0
 34 35  1  0  0  0  0
 36 37  1  0  0  0  0
 36 34  2  0  0  0  0
 38  6  1  0  0  0  0
 38 39  1  0  0  0  0
 40 38  1  0  0  0  0
 41 38  1  0  0  0  0
 42 45  1  0  0  0  0
 42  7  1  0  0  0  0
 43 42  1  0  0  0  0
 44 42  1  0  0  0  0
M  END
$$$$
