CSD_code = CIQSED | q = 0 | S = 0 | Stoichiometry = C27H36ClN3Ni | MND = 5
 OpenBabel04212202023D

 68 69  0  0  1  0  0  0  0  0999 V2000
    3.1845    6.0786   16.2221 Ni  0  0  0  0  0  0  0  0  0  0  0  0
    2.4783    5.1837   18.0276 Cl  0  0  0  0  0 15  0  0  0  0  0  0
    1.4841    8.4923   15.8268 N   0  0  0  0  0  0  0  0  0  0  0  0
    2.5455    8.5618   17.6914 N   0  0  0  0  0  0  0  0  0  0  0  0
    5.4745    7.2954   19.5678 N   0  0  0  0  0  0  0  0  0  0  0  0
    4.9409    6.5111   19.9335 H   0  0  0  0  0  0  0  0  0  0  0  0
    3.8889    4.3189   15.4731 C   0  0  0  0  0  3  0  0  0  0  0  0
    2.9101    4.1214   15.0134 H   0  0  0  0  0  0  0  0  0  0  0  0
    4.6165    5.4084   14.9856 C   0  0  0  0  0  3  0  0  0  0  0  0
    5.6684    5.5209   15.2288 H   0  0  0  0  0  0  0  0  0  0  0  0
    3.9145    6.4855   14.4307 C   0  0  0  0  0  0  0  0  0  0  0  0
    3.0358    6.2816   13.8197 H   0  0  0  0  0  0  0  0  0  0  0  0
    4.4644    7.3671   14.1227 H   0  0  0  0  0  0  0  0  0  0  0  0
    2.3942    7.8216   16.5722 C   0  0  1  0  0  3  0  0  0  0  0  0
    4.4469    3.1806   16.1938 C   0  0  0  0  0  0  0  0  0  0  0  0
    3.5755    2.2063   16.6913 C   0  0  0  0  0  0  0  0  0  0  0  0
    2.5118    2.3235   16.5411 H   0  0  0  0  0  0  0  0  0  0  0  0
    4.0518    1.1216   17.3982 C   0  0  0  0  0  0  0  0  0  0  0  0
    3.3600    0.3864   17.7831 H   0  0  0  0  0  0  0  0  0  0  0  0
    5.4120    0.9758   17.6182 C   0  0  0  0  0  0  0  0  0  0  0  0
    5.7865    0.1278   18.1729 H   0  0  0  0  0  0  0  0  0  0  0  0
    6.2891    1.9262   17.1227 C   0  0  0  0  0  0  0  0  0  0  0  0
    7.3521    1.8186   17.2870 H   0  0  0  0  0  0  0  0  0  0  0  0
    5.8158    3.0169   16.4201 C   0  0  0  0  0  0  0  0  0  0  0  0
    6.5226    3.7395   16.0395 H   0  0  0  0  0  0  0  0  0  0  0  0
    1.0701    9.6243   16.4752 C   0  0  0  0  0  0  0  0  0  0  0  0
    0.3369   10.2844   16.0603 H   0  0  0  0  0  0  0  0  0  0  0  0
    1.7386    9.6632   17.6508 C   0  0  0  0  0  0  0  0  0  0  0  0
    1.7002   10.3750   18.4493 H   0  0  0  0  0  0  0  0  0  0  0  0
    1.0440    8.1299   14.5255 C   0  0  0  0  0  0  0  0  0  0  0  0
    0.2650    6.9828   14.3491 C   0  0  0  0  0  0  0  0  0  0  0  0
   -0.1590    6.6663   13.0682 C   0  0  0  0  0  0  0  0  0  0  0  0
   -0.7614    5.7819   12.9179 H   0  0  0  0  0  0  0  0  0  0  0  0
    0.1724    7.4549   11.9738 C   0  0  0  0  0  0  0  0  0  0  0  0
    0.9592    8.5776   12.1771 C   0  0  0  0  0  0  0  0  0  0  0  0
    1.2387    9.1921   11.3334 H   0  0  0  0  0  0  0  0  0  0  0  0
    1.4076    8.9297   13.4427 C   0  0  0  0  0  0  0  0  0  0  0  0
   -0.0749    6.1070   15.5110 C   0  0  0  0  0  0  0  0  0  0  0  0
   -0.7359    5.2990   15.2106 H   0  0  0  0  0  0  0  0  0  0  0  0
   -0.5480    6.6762   16.3098 H   0  0  0  0  0  0  0  0  0  0  0  0
    0.8443    5.6688   15.9309 H   0  0  0  0  0  0  0  0  0  0  0  0
   -0.3004    7.0764   10.6037 C   0  0  0  0  0  0  0  0  0  0  0  0
    0.1790    6.1519   10.2828 H   0  0  0  0  0  0  0  0  0  0  0  0
   -0.0673    7.8540    9.8811 H   0  0  0  0  0  0  0  0  0  0  0  0
   -1.3760    6.9088   10.6050 H   0  0  0  0  0  0  0  0  0  0  0  0
    2.2819   10.1341   13.6275 C   0  0  0  0  0  0  0  0  0  0  0  0
    1.6976   10.9894   13.9666 H   0  0  0  0  0  0  0  0  0  0  0  0
    2.7552   10.4032   12.6866 H   0  0  0  0  0  0  0  0  0  0  0  0
    3.0566    9.9410   14.3674 H   0  0  0  0  0  0  0  0  0  0  0  0
    3.3695    8.2086   18.8224 C   0  0  0  0  0  0  0  0  0  0  0  0
    2.9070    7.3538   19.3291 H   0  0  0  0  0  0  0  0  0  0  0  0
    3.4113    9.0559   19.5086 H   0  0  0  0  0  0  0  0  0  0  0  0
    4.7840    7.7970   18.4040 C   0  0  0  0  0  0  0  0  0  0  0  0
    4.6810    7.0354   17.5862 H   0  0  0  0  0  0  0  0  0  0  0  0
    5.3227    8.6600   18.0043 H   0  0  0  0  0  0  0  0  0  0  0  0
    6.8655    6.8719   19.4040 C   0  0  0  0  0  0  0  0  0  0  0  0
    7.0536    5.8573   18.2657 C   0  0  0  0  0  0  0  0  0  0  0  0
    6.3135    5.0620   18.3445 H   0  0  0  0  0  0  0  0  0  0  0  0
    8.0447    5.4135   18.3165 H   0  0  0  0  0  0  0  0  0  0  0  0
    6.9465    6.3413   17.2971 H   0  0  0  0  0  0  0  0  0  0  0  0
    7.7418    8.1054   19.1626 C   0  0  0  0  0  0  0  0  0  0  0  0
    7.5498    8.5415   18.1856 H   0  0  0  0  0  0  0  0  0  0  0  0
    8.7922    7.8303   19.2092 H   0  0  0  0  0  0  0  0  0  0  0  0
    7.5388    8.8532   19.9243 H   0  0  0  0  0  0  0  0  0  0  0  0
    7.2689    6.2217   20.7308 C   0  0  0  0  0  0  0  0  0  0  0  0
    7.0690    6.9054   21.5515 H   0  0  0  0  0  0  0  0  0  0  0  0
    8.3267    5.9724   20.7294 H   0  0  0  0  0  0  0  0  0  0  0  0
    6.6992    5.3093   20.8933 H   0  0  0  0  0  0  0  0  0  0  0  0
  3 26  1  0  0  0  0
  3 14  1  0  0  0  0
  4 50  1  0  0  0  0
  5  6  1  0  0  0  0
  7 15  1  0  0  0  0
  8  7  1  0  0  0  0
  9 10  1  0  0  0  0
  9  7  1  0  0  0  0
 11  9  1  0  0  0  0
 11  1  1  0  0  0  0
 12 11  1  0  0  0  0
 13 11  1  0  0  0  0
 14  1  1  1  0  0  0
 14  4  1  0  0  0  0
 15 24  2  0  0  0  0
 15 16  1  0  0  0  0
 16 18  2  0  0  0  0
 17 16  1  0  0  0  0
 18 20  1  0  0  0  0
 18 19  1  0  0  0  0
 20 21  1  0  0  0  0
 22 23  1  0  0  0  0
 22 20  2  0  0  0  0
 24 22  1  0  0  0  0
 25 24  1  0  0  0  0
 26 28  2  0  0  0  0
 27 26  1  0  0  0  0
 28  4  1  0  0  0  0
 28 29  1  0  0  0  0
 30  3  1  0  0  0  0
 31 30  1  0  0  0  0
 31 38  1  0  0  0  0
 32 31  2  0  0  0  0
 33 32  1  0  0  0  0
 34 35  2  0  0  0  0
 34 32  1  0  0  0  0
 35 37  1  0  0  0  0
 36 35  1  0  0  0  0
 37 46  1  0  0  0  0
 37 30  2  0  0  0  0
 38 41  1  0  0  0  0
 38 40  1  0  0  0  0
 39 38  1  0  0  0  0
 42 45  1  0  0  0  0
 42 34  1  0  0  0  0
 43 42  1  0  0  0  0
 44 42  1  0  0  0  0
 46 47  1  0  0  0  0
 46 49  1  0  0  0  0
 48 46  1  0  0  0  0
 50 51  1  0  0  0  0
 50 52  1  0  0  0  0
 53 50  1  0  0  0  0
 53  5  1  0  0  0  0
 54 53  1  0  0  0  0
 55 53  1  0  0  0  0
 56  5  1  0  0  0  0
 56 65  1  0  0  0  0
 57 59  1  0  0  0  0
 57 58  1  0  0  0  0
 57 56  1  0  0  0  0
 60 57  1  0  0  0  0
 61 63  1  0  0  0  0
 61 56  1  0  0  0  0
 61 64  1  0  0  0  0
 62 61  1  0  0  0  0
 65 68  1  0  0  0  0
 65 66  1  0  0  0  0
 67 65  1  0  0  0  0
M  END
$$$$
