CSD_code = CIRDOX | q = 0 | S = 0 | Stoichiometry = C33H31Cl2NOP2Pd | MND = 4
 OpenBabel04212202023D

 71 76  0  0  0  0  0  0  0  0999 V2000
    1.9803    2.2116    6.2216 Pd  0  0  0  0  0  0  0  0  0  0  0  0
    4.2313    2.1757    5.9850 P   0  0  0  0  0  4  0  0  0  0  0  0
   -0.1728    2.6640    6.7035 Cl  0  0  0  0  0  0  0  0  0  0  0  0
    2.8266    2.9583    8.1805 P   0  0  0  0  0  4  0  0  0  0  0  0
    1.4729    1.1594    4.2970 Cl  0  0  0  0  0  0  0  0  0  0  0  0
    8.4011    2.8477    7.0250 O   0  0  0  0  0  0  0  0  0  0  0  0
    4.4312    2.7413    7.5999 N   0  0  0  0  0  0  0  0  0  0  0  0
    5.5083    0.9185    5.7477 C   0  0  0  0  0  0  0  0  0  0  0  0
    2.6761    1.6546    9.4404 C   0  0  0  0  0  0  0  0  0  0  0  0
    4.7071    3.6204    4.9805 C   0  0  0  0  0  0  0  0  0  0  0  0
    7.7366    4.0209    8.9547 C   0  0  0  0  0  0  0  0  0  0  0  0
    2.8146    4.5588    9.0215 C   0  0  0  0  0  0  0  0  0  0  0  0
   10.0111    3.2206    8.8151 C   0  0  0  0  0  0  0  0  0  0  0  0
    6.5915   -1.0748    6.5419 C   0  0  0  0  0  0  0  0  0  0  0  0
    2.6290    7.1045   10.0999 C   0  0  0  0  0  0  0  0  0  0  0  0
   10.2735    3.7536   10.0669 C   0  0  0  0  0  0  0  0  0  0  0  0
    3.3737    5.6453    8.3510 C   0  0  0  0  0  0  0  0  0  0  0  0
    8.7481    3.3458    8.2528 C   0  0  0  0  0  0  0  0  0  0  0  0
    2.5214   -0.5330   11.1347 C   0  0  0  0  0  0  0  0  0  0  0  0
    3.1424    0.6305   11.5605 C   0  0  0  0  0  0  0  0  0  0  0  0
    2.0270    6.0345   10.7419 C   0  0  0  0  0  0  0  0  0  0  0  0
    8.0233    4.5411   10.2043 C   0  0  0  0  0  0  0  0  0  0  0  0
    6.0207    4.0483    4.8101 C   0  0  0  0  0  0  0  0  0  0  0  0
    6.2752    5.2181    4.1163 C   0  0  0  0  0  0  0  0  0  0  0  0
    5.6793   -0.0545    6.7308 C   0  0  0  0  0  0  0  0  0  0  0  0
    5.6601    2.7824    8.3731 C   0  0  0  0  0  0  0  0  0  0  0  0
    3.6551    4.3729    4.4588 C   0  0  0  0  0  0  0  0  0  0  0  0
    7.3141   -1.1486    5.3608 C   0  0  0  0  0  0  0  0  0  0  0  0
    9.2833    4.4141   10.7663 C   0  0  0  0  0  0  0  0  0  0  0  0
    2.0565    0.4797    9.0126 C   0  0  0  0  0  0  0  0  0  0  0  0
    2.1069    4.7631   10.2016 C   0  0  0  0  0  0  0  0  0  0  0  0
    3.2932    6.9112    8.8977 C   0  0  0  0  0  0  0  0  0  0  0  0
    6.3637    4.1468    8.3593 C   0  0  0  0  0  0  0  0  0  0  0  0
    7.1080   -0.2122    4.3606 C   0  0  0  0  0  0  0  0  0  0  0  0
    6.2023    0.8172    4.5464 C   0  0  0  0  0  0  0  0  0  0  0  0
    5.2283    5.9616    3.5931 C   0  0  0  0  0  0  0  0  0  0  0  0
    3.2229    1.7260   10.7183 C   0  0  0  0  0  0  0  0  0  0  0  0
    9.3695    2.1443    6.2852 C   0  0  0  0  0  0  0  0  0  0  0  0
    3.9189    5.5404    3.7639 C   0  0  0  0  0  0  0  0  0  0  0  0
    1.9775   -0.6092    9.8615 C   0  0  0  0  0  0  0  0  0  0  0  0
   10.8015    2.7097    8.2885 H   0  0  0  0  0  0  0  0  0  0  0  0
    6.7327   -1.8208    7.3102 H   0  0  0  0  0  0  0  0  0  0  0  0
    2.5640    8.0945   10.5260 H   0  0  0  0  0  0  0  0  0  0  0  0
   11.2612    3.6470   10.4895 H   0  0  0  0  0  0  0  0  0  0  0  0
    3.8620    5.4841    7.3976 H   0  0  0  0  0  0  0  0  0  0  0  0
    2.4581   -1.3816   11.7995 H   0  0  0  0  0  0  0  0  0  0  0  0
    3.5644    0.6857   12.5533 H   0  0  0  0  0  0  0  0  0  0  0  0
    1.4851    6.1927   11.6625 H   0  0  0  0  0  0  0  0  0  0  0  0
    7.2442    5.0600   10.7441 H   0  0  0  0  0  0  0  0  0  0  0  0
    6.8333    3.4704    5.2265 H   0  0  0  0  0  0  0  0  0  0  0  0
    7.2940    5.5527    3.9847 H   0  0  0  0  0  0  0  0  0  0  0  0
    5.0858   -0.0075    7.6361 H   0  0  0  0  0  0  0  0  0  0  0  0
    6.3472    2.0427    7.9544 H   0  0  0  0  0  0  0  0  0  0  0  0
    5.4395    2.4963    9.4071 H   0  0  0  0  0  0  0  0  0  0  0  0
    2.6176    4.0280    4.5898 H   0  0  0  0  0  0  0  0  0  0  0  0
    8.0249   -1.9480    5.2129 H   0  0  0  0  0  0  0  0  0  0  0  0
    9.4868    4.8291   11.7413 H   0  0  0  0  0  0  0  0  0  0  0  0
    1.6168    0.4325    8.0044 H   0  0  0  0  0  0  0  0  0  0  0  0
    1.6138    3.9312   10.6840 H   0  0  0  0  0  0  0  0  0  0  0  0
    3.7370    7.7506    8.3829 H   0  0  0  0  0  0  0  0  0  0  0  0
    5.7781    4.8727    8.9245 H   0  0  0  0  0  0  0  0  0  0  0  0
    6.4414    4.4869    7.3257 H   0  0  0  0  0  0  0  0  0  0  0  0
    7.6501   -0.2889    3.4293 H   0  0  0  0  0  0  0  0  0  0  0  0
    6.0234    1.5381    3.7614 H   0  0  0  0  0  0  0  0  0  0  0  0
    5.4349    6.8723    3.0507 H   0  0  0  0  0  0  0  0  0  0  0  0
    3.6978    2.6370   11.0565 H   0  0  0  0  0  0  0  0  0  0  0  0
   10.2215    2.7818    6.0288 H   0  0  0  0  0  0  0  0  0  0  0  0
    8.8698    1.8222    5.3721 H   0  0  0  0  0  0  0  0  0  0  0  0
    9.7233    1.2606    6.8253 H   0  0  0  0  0  0  0  0  0  0  0  0
    3.1054    6.1208    3.3554 H   0  0  0  0  0  0  0  0  0  0  0  0
    1.4901   -1.5152    9.5343 H   0  0  0  0  0  0  0  0  0  0  0  0
  1  3  1  0  0  0  0
  1  4  1  0  0  0  0
  2  1  1  0  0  0  0
  2  7  1  0  0  0  0
  4 12  1  0  0  0  0
  4  9  1  0  0  0  0
  5  1  1  0  0  0  0
  6 18  1  0  0  0  0
  7  4  1  0  0  0  0
  7 26  1  0  0  0  0
  8  2  1  0  0  0  0
  8 25  1  0  0  0  0
  9 37  1  0  0  0  0
 10  2  1  0  0  0  0
 11 22  1  0  0  0  0
 12 31  1  0  0  0  0
 13 16  2  0  0  0  0
 14 25  2  0  0  0  0
 14 42  1  0  0  0  0
 15 43  1  0  0  0  0
 15 21  1  0  0  0  0
 16 44  1  0  0  0  0
 16 29  1  0  0  0  0
 17 32  1  0  0  0  0
 17 12  2  0  0  0  0
 18 13  1  0  0  0  0
 18 11  2  0  0  0  0
 19 20  1  0  0  0  0
 19 46  1  0  0  0  0
 20 47  1  0  0  0  0
 21 48  1  0  0  0  0
 22 49  1  0  0  0  0
 22 29  2  0  0  0  0
 23 10  1  0  0  0  0
 23 50  1  0  0  0  0
 24 23  2  0  0  0  0
 25 52  1  0  0  0  0
 26 54  1  0  0  0  0
 27 55  1  0  0  0  0
 27 10  2  0  0  0  0
 28 14  1  0  0  0  0
 29 57  1  0  0  0  0
 30  9  2  0  0  0  0
 30 40  1  0  0  0  0
 31 59  1  0  0  0  0
 31 21  2  0  0  0  0
 32 15  2  0  0  0  0
 33 26  1  0  0  0  0
 33 61  1  0  0  0  0
 33 11  1  0  0  0  0
 34 35  1  0  0  0  0
 34 28  2  0  0  0  0
 35  8  2  0  0  0  0
 36 39  2  0  0  0  0
 36 24  1  0  0  0  0
 37 66  1  0  0  0  0
 37 20  2  0  0  0  0
 38 69  1  0  0  0  0
 38  6  1  0  0  0  0
 39 27  1  0  0  0  0
 40 19  2  0  0  0  0
 41 13  1  0  0  0  0
 45 17  1  0  0  0  0
 51 24  1  0  0  0  0
 53 26  1  0  0  0  0
 56 28  1  0  0  0  0
 58 30  1  0  0  0  0
 60 32  1  0  0  0  0
 62 33  1  0  0  0  0
 63 34  1  0  0  0  0
 64 35  1  0  0  0  0
 65 36  1  0  0  0  0
 67 38  1  0  0  0  0
 68 38  1  0  0  0  0
 70 39  1  0  0  0  0
 71 40  1  0  0  0  0
M  END
$$$$
