CSD_code = CIRFAN | q = -1 | S = 0 | Stoichiometry = C2H6Cl3OPdS(1-) | MND = 4
 OpenBabel04212202023D

 14 13  0  0  0  0  0  0  0  0999 V2000
    6.4649    9.1248    2.8115 Pd  0  0  0  0  0  0  0  0  0  0  0  0
    6.1959    9.3834    5.0698 Cl  0  0  0  0  0  0  0  0  0  0  0  0
    6.5329   11.3198    2.4938 Cl  0  0  0  0  0  0  0  0  0  0  0  0
    6.8353    8.7124    0.5907 Cl  0  0  0  0  0  0  0  0  0  0  0  0
    6.2765    6.9412    3.1189 S   0  0  0  0  0  0  0  0  0  0  0  0
    4.9032    6.4622    3.0431 O   0  0  0  0  0  1  0  0  0  0  0  0
    7.2511    5.8571    2.0113 C   0  0  0  0  0  0  0  0  0  0  0  0
    6.9617    6.2787    4.6822 C   0  0  0  0  0  0  0  0  0  0  0  0
    8.3019    6.0695    2.1740 H   0  0  0  0  0  0  0  0  0  0  0  0
    7.0063    4.8249    2.2329 H   0  0  0  0  0  0  0  0  0  0  0  0
    6.9763    6.1152    0.9939 H   0  0  0  0  0  0  0  0  0  0  0  0
    8.0227    6.5026    4.7015 H   0  0  0  0  0  0  0  0  0  0  0  0
    6.4598    6.7985    5.4915 H   0  0  0  0  0  0  0  0  0  0  0  0
    6.7715    5.2126    4.7242 H   0  0  0  0  0  0  0  0  0  0  0  0
  1  5  1  0  0  0  0
  1  2  1  0  0  0  0
  3  1  1  0  0  0  0
  4  1  1  0  0  0  0
  5  8  1  0  0  0  0
  6  5  1  0  0  0  0
  7  9  1  0  0  0  0
  7 10  1  0  0  0  0
  7  5  1  0  0  0  0
  8 12  1  0  0  0  0
  8 14  1  0  0  0  0
  8 13  1  0  0  0  0
 11  7  1  0  0  0  0
M  END
$$$$
