CSD_code = CIRGUI | q = 0 | S = 0 | Stoichiometry = C13H17Cl2N3O2Zn | MND = 4
 OpenBabel04212202023D

 38 40  0  0  1  0  0  0  0  0999 V2000
    9.0894   -0.2606   -0.7118 Zn  0  0  0  0  0  0  0  0  0  0  0  0
    8.3054    0.3264   -2.6696 Cl  0  0  0  0  0  0  0  0  0  0  0  0
    7.8981    0.3318    0.9116 N   0  0  0  0  0  0  0  0  0  0  0  0
   10.2227    1.3455   -0.3205 O   0  0  0  0  0  0  0  0  0  0  0  0
    7.6580   -0.7462    1.6376 C   0  0  0  0  0  3  0  0  0  0  0  0
    6.3645   -1.9323   -0.1040 C   0  0  0  0  0  0  0  0  0  0  0  0
    5.3983   -2.4320   -0.0170 H   0  0  0  0  0  0  0  0  0  0  0  0
    7.0172   -2.5316   -0.7455 H   0  0  0  0  0  0  0  0  0  0  0  0
    6.2216   -0.9513   -0.5535 H   0  0  0  0  0  0  0  0  0  0  0  0
    7.1519   -2.9472    2.0415 C   0  0  0  0  0  0  0  0  0  0  0  0
    7.8123   -3.6488    1.5191 H   0  0  0  0  0  0  0  0  0  0  0  0
    6.2025   -3.4380    2.2666 H   0  0  0  0  0  0  0  0  0  0  0  0
    7.8260   -2.3502    3.2835 C   0  0  0  0  0  0  0  0  0  0  0  0
    7.1645   -2.3475    4.1575 H   0  0  0  0  0  0  0  0  0  0  0  0
    8.7480   -2.8774    3.5393 H   0  0  0  0  0  0  0  0  0  0  0  0
    6.9288   -1.7822    1.2076 N   0  0  0  0  0  0  0  0  0  0  0  0
    9.1484   -0.2193    3.5316 C   0  0  0  0  0  0  0  0  0  0  0  0
    9.8308   -0.8965    4.0442 H   0  0  0  0  0  0  0  0  0  0  0  0
    8.7217    0.4794    4.2573 H   0  0  0  0  0  0  0  0  0  0  0  0
    9.7128    0.3460    2.7895 H   0  0  0  0  0  0  0  0  0  0  0  0
    9.9351    3.4796   -0.8706 O   0  0  0  0  0  0  0  0  0  0  0  0
    9.8709   -2.1957    0.0435 Cl  0  0  0  0  0  0  0  0  0  0  0  0
    8.1201   -0.9856    2.8825 N   0  0  0  0  0  0  0  0  0  0  0  0
    7.5799    4.2285    2.3924 C   0  0  0  0  0  0  0  0  0  0  0  0
    7.4565    5.2371    2.7539 H   0  0  0  0  0  0  0  0  0  0  0  0
   10.8512    3.2794   -1.9431 C   0  0  0  0  0  0  0  0  0  0  0  0
   10.9498    4.2431   -2.4353 H   0  0  0  0  0  0  0  0  0  0  0  0
   10.4553    2.5322   -2.6344 H   0  0  0  0  0  0  0  0  0  0  0  0
   11.8154    2.9376   -1.5623 H   0  0  0  0  0  0  0  0  0  0  0  0
    9.6411    2.4171   -0.1423 C   0  0  2  0  0  3  0  0  0  0  0  0
    8.4557    3.9580    1.3670 C   0  0  0  0  0  0  0  0  0  0  0  0
    9.0351    4.7496    0.9189 H   0  0  0  0  0  0  0  0  0  0  0  0
    6.9951    1.9016    2.4882 C   0  0  0  0  0  0  0  0  0  0  0  0
    6.3953    1.1029    2.9006 H   0  0  0  0  0  0  0  0  0  0  0  0
    7.8899    1.5927    1.4476 C   0  0  0  0  0  0  0  0  0  0  0  0
    6.8511    3.1860    2.9561 C   0  0  0  0  0  0  0  0  0  0  0  0
    6.1564    3.3863    3.7588 H   0  0  0  0  0  0  0  0  0  0  0  0
    8.6416    2.6536    0.8956 C   0  0  0  0  0  0  0  0  0  0  0  0
  1  4  1  0  0  0  0
  1 22  1  0  0  0  0
  1  3  1  0  0  0  0
  2  1  1  0  0  0  0
  3 35  1  0  0  0  0
  3  5  1  0  0  0  0
  4 30  1  0  0  0  0
  5 23  1  0  0  0  0
  6  7  1  0  0  0  0
  6 16  1  0  0  0  0
  8  6  1  0  0  0  0
  9  6  1  0  0  0  0
 10 12  1  0  0  0  0
 10 13  1  0  0  0  0
 11 10  1  0  0  0  0
 13 15  1  0  0  0  0
 13 14  1  0  0  0  0
 16  5  1  0  0  0  0
 16 10  1  0  0  0  0
 17 18  1  0  0  0  0
 17 19  1  0  0  0  0
 20 17  1  0  0  0  0
 23 13  1  0  0  0  0
 23 17  1  0  0  0  0
 24 25  1  0  0  0  0
 24 36  1  0  0  0  0
 26 29  1  0  0  0  0
 26 21  1  0  0  0  0
 27 26  1  0  0  0  0
 28 26  1  0  0  0  0
 30 21  1  1  0  0  0
 30 38  1  0  0  0  0
 31 24  2  0  0  0  0
 32 31  1  0  0  0  0
 33 34  1  0  0  0  0
 33 36  2  0  0  0  0
 35 33  1  0  0  0  0
 36 37  1  0  0  0  0
 38 31  1  0  0  0  0
 38 35  2  0  0  0  0
M  END
$$$$
