CSD_code = CIRHET | q = 0 | S = 0 | Stoichiometry = C13H17Br2N3O2Zn | MND = 4
 OpenBabel04212202023D

 38 40  0  0  1  0  0  0  0  0999 V2000
    7.8907    0.1852    5.8929 Br  0  0  0  0  0  0  0  0  0  0  0  0
   10.0292    1.3713    8.1844 O   0  0  0  0  0  0  0  0  0  0  0  0
    7.5671   -0.7538   10.2834 C   0  0  0  0  0  3  0  0  0  0  0  0
    7.8105    0.3121    9.5386 N   0  0  0  0  0  0  0  0  0  0  0  0
    9.0167   -0.3262    7.8825 Zn  0  0  0  0  0  0  0  0  0  0  0  0
   10.1012   -2.1622    8.8917 Br  0  0  0  0  0  0  0  0  0  0  0  0
    9.8875    3.5575    7.8361 O   0  0  0  0  0  0  0  0  0  0  0  0
    9.1511   -0.3172   12.1275 C   0  0  0  0  0  0  0  0  0  0  0  0
   10.0815   -0.8387   11.8795 H   0  0  0  0  0  0  0  0  0  0  0  0
    9.0242   -0.3036   13.2101 H   0  0  0  0  0  0  0  0  0  0  0  0
    9.2079    0.7065   11.7660 H   0  0  0  0  0  0  0  0  0  0  0  0
    6.8663   -1.8002    9.8394 N   0  0  0  0  0  0  0  0  0  0  0  0
    7.7578    1.5825   10.0402 C   0  0  0  0  0  0  0  0  0  0  0  0
    6.1357   -1.8898    8.6077 C   0  0  0  0  0  0  0  0  0  0  0  0
    5.1514   -2.3192    8.8041 H   0  0  0  0  0  0  0  0  0  0  0  0
    6.6536   -2.5307    7.8877 H   0  0  0  0  0  0  0  0  0  0  0  0
    6.0068   -0.8960    8.1826 H   0  0  0  0  0  0  0  0  0  0  0  0
    6.9662   -2.9354   10.7317 C   0  0  0  0  0  0  0  0  0  0  0  0
    7.4463   -3.7751   10.2201 H   0  0  0  0  0  0  0  0  0  0  0  0
    5.9674   -3.2402   11.0602 H   0  0  0  0  0  0  0  0  0  0  0  0
    6.8399    1.8815   11.0663 C   0  0  0  0  0  0  0  0  0  0  0  0
    6.2677    1.0679   11.4892 H   0  0  0  0  0  0  0  0  0  0  0  0
    6.6491    3.1656   11.5109 C   0  0  0  0  0  0  0  0  0  0  0  0
    5.9368    3.3561   12.2999 H   0  0  0  0  0  0  0  0  0  0  0  0
    7.3563    4.2218   10.9409 C   0  0  0  0  0  0  0  0  0  0  0  0
    7.1972    5.2315   11.2844 H   0  0  0  0  0  0  0  0  0  0  0  0
    8.2551    3.9625    9.9358 C   0  0  0  0  0  0  0  0  0  0  0  0
    8.8168    4.7651    9.4853 H   0  0  0  0  0  0  0  0  0  0  0  0
    8.4881    2.6567    9.4801 C   0  0  0  0  0  0  0  0  0  0  0  0
    9.5048    2.4522    8.4584 C   0  0  2  0  0  3  0  0  0  0  0  0
   10.8492    3.4064    6.7990 C   0  0  0  0  0  0  0  0  0  0  0  0
   11.0566    4.4094    6.4358 H   0  0  0  0  0  0  0  0  0  0  0  0
   10.4430    2.7891    5.9945 H   0  0  0  0  0  0  0  0  0  0  0  0
   11.7583    2.9398    7.1836 H   0  0  0  0  0  0  0  0  0  0  0  0
    7.8272   -2.3924   11.8780 C   0  0  0  0  0  0  0  0  0  0  0  0
    7.3370   -2.4695   12.8520 H   0  0  0  0  0  0  0  0  0  0  0  0
    8.7970   -2.8984   11.9212 H   0  0  0  0  0  0  0  0  0  0  0  0
    8.0242   -0.9913   11.5349 N   0  0  0  0  0  0  0  0  0  0  0  0
  1  5  1  0  0  0  0
  2 30  1  0  0  0  0
  3 38  1  0  0  0  0
  4 13  1  0  0  0  0
  4  3  1  0  0  0  0
  5  2  1  0  0  0  0
  5  6  1  0  0  0  0
  5  4  1  0  0  0  0
  8 10  1  0  0  0  0
  9  8  1  0  0  0  0
 11  8  1  0  0  0  0
 12  3  1  0  0  0  0
 12 18  1  0  0  0  0
 13 21  1  0  0  0  0
 14 15  1  0  0  0  0
 14 12  1  0  0  0  0
 16 14  1  0  0  0  0
 17 14  1  0  0  0  0
 18 20  1  0  0  0  0
 18 35  1  0  0  0  0
 19 18  1  0  0  0  0
 21 22  1  0  0  0  0
 21 23  2  0  0  0  0
 23 24  1  0  0  0  0
 25 26  1  0  0  0  0
 25 23  1  0  0  0  0
 27 25  2  0  0  0  0
 28 27  1  0  0  0  0
 29 27  1  0  0  0  0
 29 13  2  0  0  0  0
 30  7  1  1  0  0  0
 30 29  1  0  0  0  0
 31 34  1  0  0  0  0
 31  7  1  0  0  0  0
 32 31  1  0  0  0  0
 33 31  1  0  0  0  0
 35 37  1  0  0  0  0
 35 36  1  0  0  0  0
 38 35  1  0  0  0  0
 38  8  1  0  0  0  0
M  END
$$$$
