CSD_code = CIRHIX | q = 0 | S = 0 | Stoichiometry = C13H19Br2N3O2Zn | MND = 4
 OpenBabel04212202023D

 40 41  0  0  1  0  0  0  0  0999 V2000
    3.8451    1.9139    1.1851 Br  0  0  0  0  0  0  0  0  0  0  0  0
    1.3045    3.2980   -2.1881 Br  0  0  0  0  0  0  0  0  0  0  0  0
    2.4371    3.2609   -0.1332 Zn  0  0  0  0  0  0  0  0  0  0  0  0
    1.1492    3.8986    1.2984 O   0  0  0  0  0  0  0  0  0  0  0  0
    1.1314    4.0278    3.5134 O   0  0  0  0  0  0  0  0  0  0  0  0
    3.2153    5.2303    0.0122 N   0  0  0  0  0  0  0  0  0  0  0  0
    3.9964    5.4122   -2.1563 N   0  0  0  0  0  0  0  0  0  0  0  0
    2.6699    7.1042   -1.2719 N   0  0  0  0  0  0  0  0  0  0  0  0
    3.3080    5.9167   -1.1200 C   0  0  0  0  0  3  0  0  0  0  0  0
    4.9761    4.3689   -1.9518 C   0  0  0  0  0  0  0  0  0  0  0  0
    5.8288    4.5623   -2.6052 H   0  0  0  0  0  0  0  0  0  0  0  0
    4.5757    3.3819   -2.2029 H   0  0  0  0  0  0  0  0  0  0  0  0
    5.3162    4.3663   -0.9181 H   0  0  0  0  0  0  0  0  0  0  0  0
    3.5996    5.5937   -3.5367 C   0  0  0  0  0  0  0  0  0  0  0  0
    3.4586    4.6126   -3.9932 H   0  0  0  0  0  0  0  0  0  0  0  0
    4.3635    6.1377   -4.0966 H   0  0  0  0  0  0  0  0  0  0  0  0
    2.6498    6.1149   -3.5927 H   0  0  0  0  0  0  0  0  0  0  0  0
    3.1780    8.1821   -2.0871 C   0  0  0  0  0  0  0  0  0  0  0  0
    3.2772    9.0759   -1.4637 H   0  0  0  0  0  0  0  0  0  0  0  0
    2.5005    8.4140   -2.9124 H   0  0  0  0  0  0  0  0  0  0  0  0
    4.1567    7.9290   -2.4837 H   0  0  0  0  0  0  0  0  0  0  0  0
    1.5292    7.4448   -0.4555 C   0  0  0  0  0  0  0  0  0  0  0  0
    0.8090    7.9796   -1.0767 H   0  0  0  0  0  0  0  0  0  0  0  0
    1.8045    8.0781    0.3947 H   0  0  0  0  0  0  0  0  0  0  0  0
    1.0567    6.5380   -0.0837 H   0  0  0  0  0  0  0  0  0  0  0  0
    3.3046    5.8690    1.2260 C   0  0  0  0  0  0  0  0  0  0  0  0
    4.2244    6.9232    1.3672 C   0  0  0  0  0  0  0  0  0  0  0  0
    4.7806    7.2369    0.4944 H   0  0  0  0  0  0  0  0  0  0  0  0
    4.4527    7.5256    2.5806 C   0  0  0  0  0  0  0  0  0  0  0  0
    5.1703    8.3298    2.6502 H   0  0  0  0  0  0  0  0  0  0  0  0
    3.7776    7.0924    3.7177 C   0  0  0  0  0  0  0  0  0  0  0  0
    3.9672    7.5562    4.6727 H   0  0  0  0  0  0  0  0  0  0  0  0
    2.8737    6.0632    3.6112 C   0  0  0  0  0  0  0  0  0  0  0  0
    2.3414    5.7131    4.4808 H   0  0  0  0  0  0  0  0  0  0  0  0
    2.6074    5.4485    2.3804 C   0  0  0  0  0  0  0  0  0  0  0  0
    1.5962    4.3992    2.3305 C   0  0  2  0  0  3  0  0  0  0  0  0
    0.1869    2.9648    3.5215 C   0  0  0  0  0  0  0  0  0  0  0  0
   -0.1231    2.8482    4.5563 H   0  0  0  0  0  0  0  0  0  0  0  0
    0.6535    2.0457    3.1600 H   0  0  0  0  0  0  0  0  0  0  0  0
   -0.6680    3.2055    2.8863 H   0  0  0  0  0  0  0  0  0  0  0  0
  2  3  1  0  0  0  0
  3  6  1  0  0  0  0
  3  1  1  0  0  0  0
  3  4  1  0  0  0  0
  4 36  1  0  0  0  0
  5 37  1  0  0  0  0
  6 26  1  0  0  0  0
  7 10  1  0  0  0  0
  7  9  1  0  0  0  0
  8  9  1  0  0  0  0
  8 22  1  0  0  0  0
  9  6  1  0  0  0  0
 10 13  1  0  0  0  0
 11 10  1  0  0  0  0
 12 10  1  0  0  0  0
 14  7  1  0  0  0  0
 15 14  1  0  0  0  0
 16 14  1  0  0  0  0
 17 14  1  0  0  0  0
 18 19  1  0  0  0  0
 18  8  1  0  0  0  0
 20 18  1  0  0  0  0
 21 18  1  0  0  0  0
 22 25  1  0  0  0  0
 22 24  1  0  0  0  0
 23 22  1  0  0  0  0
 26 27  2  0  0  0  0
 26 35  1  0  0  0  0
 27 29  1  0  0  0  0
 28 27  1  0  0  0  0
 29 30  1  0  0  0  0
 29 31  2  0  0  0  0
 31 32  1  0  0  0  0
 33 31  1  0  0  0  0
 33 34  1  0  0  0  0
 35 33  2  0  0  0  0
 36 35  1  0  0  0  0
 36  5  1  6  0  0  0
 37 38  1  0  0  0  0
 39 37  1  0  0  0  0
 40 37  1  0  0  0  0
M  END
$$$$
