CSD_code = CIRPAU | q = 0 | S = 0 | Stoichiometry = C8H12IORe | MND = 6
 OpenBabel04212202023D

 23 21  0  0  0  0  0  0  0  0999 V2000
    1.1847    2.2915    5.7458 Re  0  0  0  0  0  0  0  0  0  0  0  0
   -0.9872    1.0070    6.5781 I   0  0  0  0  0 15  0  0  0  0  0  0
    2.4864    1.3616    6.2278 O   0  0  0  0  0  1  0  0  0  0  0  0
    1.3769    2.8662    3.6995 C   0  0  0  0  0  0  0  0  0  0  0  0
    0.5401    1.9025    3.7309 C   0  0  0  0  0  3  0  0  0  0  0  0
    0.6847    3.8604    7.1287 C   0  0  0  0  0  3  0  0  0  0  0  0
    1.4821    4.3425    6.2558 C   0  0  0  0  0  0  0  0  0  0  0  0
    2.1686    3.7909    2.8698 C   0  0  0  0  0  0  0  0  0  0  0  0
   -0.3363    0.9636    3.0136 C   0  0  0  0  0  0  0  0  0  0  0  0
   -0.1079    4.0424    8.3546 C   0  0  0  0  0  0  0  0  0  0  0  0
    2.2939    5.4931    5.8232 C   0  0  0  0  0  0  0  0  0  0  0  0
    3.1615    3.9374    3.2892 H   0  0  0  0  0  0  0  0  0  0  0  0
    1.6721    4.7589    2.7980 H   0  0  0  0  0  0  0  0  0  0  0  0
    2.2664    3.3755    1.8664 H   0  0  0  0  0  0  0  0  0  0  0  0
   -1.3842    1.2037    3.1959 H   0  0  0  0  0  0  0  0  0  0  0  0
   -0.1643   -0.0542    3.3625 H   0  0  0  0  0  0  0  0  0  0  0  0
   -0.1354    1.0190    1.9435 H   0  0  0  0  0  0  0  0  0  0  0  0
    0.1599    4.9878    8.8271 H   0  0  0  0  0  0  0  0  0  0  0  0
    0.0792    3.2241    9.0494 H   0  0  0  0  0  0  0  0  0  0  0  0
   -1.1736    4.0443    8.1240 H   0  0  0  0  0  0  0  0  0  0  0  0
    2.3390    6.2237    6.6314 H   0  0  0  0  0  0  0  0  0  0  0  0
    1.8559    5.9684    4.9462 H   0  0  0  0  0  0  0  0  0  0  0  0
    3.3055    5.1758    5.5777 H   0  0  0  0  0  0  0  0  0  0  0  0
  1  3  1  0  0  0  0
  1  7  1  0  0  0  0
  4  5  2  0  0  0  0
  4  1  1  0  0  0  0
  6 10  1  0  0  0  0
  7  6  2  0  0  0  0
  8 12  1  0  0  0  0
  8  4  1  0  0  0  0
  9 15  1  0  0  0  0
  9 16  1  0  0  0  0
  9  5  1  0  0  0  0
 10 18  1  0  0  0  0
 10 19  1  0  0  0  0
 11  7  1  0  0  0  0
 11 21  1  0  0  0  0
 13  8  1  0  0  0  0
 14  8  1  0  0  0  0
 17  9  1  0  0  0  0
 20 10  1  0  0  0  0
 22 11  1  0  0  0  0
 23 11  1  0  0  0  0
M  END
$$$$
