CSD_code = CISCUE | q = 0 | S = 0 | Stoichiometry = C9H6AuClN6O6 | MND = 2
 OpenBabel04212202023D

 29 30  0  0  1  0  0  0  0  0999 V2000
   -1.2673    5.4700    8.2069 O   0  0  0  0  0  0  0  0  0  0  0  0
   -0.5265    4.9860    6.2383 O   0  0  0  0  0  0  0  0  0  0  0  0
    3.1517   11.5301    8.2757 O   0  0  0  0  0  0  0  0  0  0  0  0
    2.3851    9.8972    7.0958 O   0  0  0  0  0  0  0  0  0  0  0  0
    0.3189   14.6136   10.3935 O   0  0  0  0  0  0  0  0  0  0  0  0
   -1.7726   14.1795   10.6433 O   0  0  0  0  0  0  0  0  0  0  0  0
   -0.1548    9.1658    7.2721 N   0  0  0  0  0  0  0  0  0  0  0  0
   -0.5783    8.0415    7.8485 N   0  0  0  0  0  0  0  0  0  0  0  0
    0.0486    7.6709    5.7714 N   0  0  0  0  0  0  0  0  0  0  0  0
   -0.7698    5.7497    7.1473 N   0  0  0  0  0  0  0  0  0  0  0  0
    2.2519   10.8506    7.8464 N   0  0  0  0  0  0  0  0  0  0  0  0
   -0.6639   13.9348   10.2325 N   0  0  0  0  0  0  0  0  0  0  0  0
    0.2207    8.9872    5.9880 C   0  0  2  0  0  3  0  0  0  0  0  0
   -0.4380    7.1277    6.9336 C   0  0  0  0  0  0  0  0  0  0  0  0
   -0.2080   10.3706    8.0003 C   0  0  0  0  0  0  0  0  0  0  0  0
    0.9058   11.1875    8.2565 C   0  0  0  0  0  0  0  0  0  0  0  0
    0.7444   12.3594    8.9862 C   0  0  0  0  0  0  0  0  0  0  0  0
    1.6017   12.9919    9.1777 H   0  0  0  0  0  0  0  0  0  0  0  0
   -0.5034   12.7002    9.4733 C   0  0  0  0  0  0  0  0  0  0  0  0
   -1.6042   11.8743    9.2711 C   0  0  0  0  0  0  0  0  0  0  0  0
   -2.5615   12.1551    9.6837 H   0  0  0  0  0  0  0  0  0  0  0  0
   -1.4462   10.7138    8.5420 C   0  0  0  0  0  0  0  0  0  0  0  0
   -2.2837   10.0539    8.3783 H   0  0  0  0  0  0  0  0  0  0  0  0
    0.3462    6.9893    4.5428 C   0  0  0  0  0  0  0  0  0  0  0  0
    0.6675    7.7305    3.8135 H   0  0  0  0  0  0  0  0  0  0  0  0
   -0.5341    6.4588    4.1794 H   0  0  0  0  0  0  0  0  0  0  0  0
    1.1417    6.2605    4.7012 H   0  0  0  0  0  0  0  0  0  0  0  0
    0.9422   10.4217    4.8116 Au  0  0  0  0  0  0  0  0  0  0  0  0
    1.7027   12.0810    3.5404 Cl  0  0  0  0  0  0  0  0  0  0  0  0
  2 10  2  0  0  0  0
  4 11  2  0  0  0  0
  7  8  1  0  0  0  0
  7 15  1  0  0  0  0
  9 13  1  0  0  0  0
  9 14  1  0  0  0  0
 10  1  2  0  0  0  0
 11 16  1  0  0  0  0
 11  3  2  0  0  0  0
 12  5  2  0  0  0  0
 12  6  2  0  0  0  0
 13 28  1  1  0  0  0
 13  7  1  0  0  0  0
 14 10  1  0  0  0  0
 14  8  2  0  0  0  0
 15 16  2  0  0  0  0
 15 22  1  0  0  0  0
 16 17  1  0  0  0  0
 17 18  1  0  0  0  0
 17 19  2  0  0  0  0
 19 12  1  0  0  0  0
 20 19  1  0  0  0  0
 20 21  1  0  0  0  0
 22 20  2  0  0  0  0
 23 22  1  0  0  0  0
 24 27  1  0  0  0  0
 24  9  1  0  0  0  0
 25 24  1  0  0  0  0
 26 24  1  0  0  0  0
 29 28  1  0  0  0  0
M  END
$$$$
