CSD_code = CISFAN | q = 0 | S = 0 | Stoichiometry = C18H18ClN6O4Rh | MND = 6
 OpenBabel04212202023D

 48 49  0  0  1  0  0  0  0  0999 V2000
    9.5881    3.8444   19.1233 C   0  0  1  0  0  3  0  0  0  0  0  0
   11.6615    3.5588   18.4450 C   0  0  0  0  0  0  0  0  0  0  0  0
    9.8654    2.3920   17.1374 C   0  0  0  0  0  0  0  0  0  0  0  0
   10.4465    1.4702   17.1043 H   0  0  0  0  0  0  0  0  0  0  0  0
    9.9397    2.8964   16.1719 H   0  0  0  0  0  0  0  0  0  0  0  0
    8.8190    2.1555   17.3561 H   0  0  0  0  0  0  0  0  0  0  0  0
   12.7411    3.0880   17.6727 C   0  0  0  0  0  0  0  0  0  0  0  0
   10.2023    5.2972   21.0046 C   0  0  0  0  0  0  0  0  0  0  0  0
   10.9196    6.4806   21.2415 C   0  0  0  0  0  0  0  0  0  0  0  0
   10.6907    7.2224   22.3875 C   0  0  0  0  0  0  0  0  0  0  0  0
   11.2547    8.1253   22.5761 H   0  0  0  0  0  0  0  0  0  0  0  0
    9.7073    6.8088   23.2740 C   0  0  0  0  0  0  0  0  0  0  0  0
    8.9591    5.6576   23.0316 C   0  0  0  0  0  0  0  0  0  0  0  0
    8.2027    5.3669   23.7449 H   0  0  0  0  0  0  0  0  0  0  0  0
    9.2156    4.8975   21.9108 C   0  0  0  0  0  0  0  0  0  0  0  0
    8.6780    3.9693   21.7318 H   0  0  0  0  0  0  0  0  0  0  0  0
    7.1256    5.0548   17.9186 C   0  0  2  0  0  0  0  0  0  0  0  0
    7.9662    5.2442   17.2495 H   0  0  0  0  0  0  0  0  0  0  0  0
    7.1361    5.7052   19.1507 C   0  0  0  0  0  3  0  0  0  0  0  0
    8.0017    6.3320   19.3659 H   0  0  0  0  0  0  0  0  0  0  0  0
    5.8823    6.0990   19.9022 C   0  0  0  0  0  0  0  0  0  0  0  0
    5.0952    6.3229   19.1813 H   0  0  0  0  0  0  0  0  0  0  0  0
    6.0775    7.0173   20.4590 H   0  0  0  0  0  0  0  0  0  0  0  0
    5.4136    5.0151   20.8936 C   0  0  0  0  0  0  0  0  0  0  0  0
    5.8775    5.1994   21.8655 H   0  0  0  0  0  0  0  0  0  0  0  0
    4.3304    5.0850   21.0363 H   0  0  0  0  0  0  0  0  0  0  0  0
    5.7609    3.6089   20.4633 C   0  0  0  0  0  3  0  0  0  0  0  0
    5.8827    2.9085   21.2898 H   0  0  0  0  0  0  0  0  0  0  0  0
    5.5523    3.0912   19.2070 C   0  0  0  0  0  3  0  0  0  0  0  0
    5.5535    2.0071   19.0957 H   0  0  0  0  0  0  0  0  0  0  0  0
    4.8774    3.8540   18.0897 C   0  0  0  0  0  0  0  0  0  0  0  0
    4.1658    4.5587   18.5207 H   0  0  0  0  0  0  0  0  0  0  0  0
    4.3076    3.1539   17.4761 H   0  0  0  0  0  0  0  0  0  0  0  0
    5.8872    4.5894   17.1889 C   0  0  0  0  0  0  0  0  0  0  0  0
    6.2024    3.9165   16.3868 H   0  0  0  0  0  0  0  0  0  0  0  0
    5.4072    5.4518   16.7141 H   0  0  0  0  0  0  0  0  0  0  0  0
   11.5097    6.8763   19.0887 O   0  0  0  0  0  0  0  0  0  0  0  0
   12.7797    7.6455   20.6490 O   0  0  0  0  0  0  0  0  0  0  0  0
    8.5394    7.2255   25.1762 O   0  0  0  0  0  0  0  0  0  0  0  0
   10.1313    8.5726   24.6437 O   0  0  0  0  0  0  0  0  0  0  0  0
   10.4871    4.5036   19.8999 N   0  0  0  0  0  0  0  0  0  0  0  0
   11.7529    4.3348   19.4836 N   0  0  0  0  0  0  0  0  0  0  0  0
   10.3510    3.2422   18.1887 N   0  0  0  0  0  0  0  0  0  0  0  0
   13.5861    2.6795   17.0183 N   0  0  0  0  0  0  0  0  0  0  0  0
   11.8247    7.0295   20.2497 N   0  0  0  0  0  0  0  0  0  0  0  0
    9.4410    7.5963   24.4569 N   0  0  0  0  0  0  0  0  0  0  0  0
    7.6639    3.6467   19.4213 Rh  0  0  0  0  0  0  0  0  0  0  0  0
    8.2349    1.6250   20.2991 Cl  0  0  0  0  0 15  0  0  0  0  0  0
  1 47  1  1  0  0  0
  1 41  1  0  0  0  0
  2 42  2  0  0  0  0
  3  6  1  0  0  0  0
  3 43  1  0  0  0  0
  4  3  1  0  0  0  0
  5  3  1  0  0  0  0
  7  2  1  0  0  0  0
  8  9  2  0  0  0  0
  8 15  1  0  0  0  0
  9 10  1  0  0  0  0
 10 11  1  0  0  0  0
 10 12  2  0  0  0  0
 12 46  1  0  0  0  0
 13 12  1  0  0  0  0
 13 14  1  0  0  0  0
 15 13  2  0  0  0  0
 16 15  1  0  0  0  0
 17 18  1  6  0  0  0
 17 19  1  0  0  0  0
 17 47  1  0  0  0  0
 19 20  1  0  0  0  0
 19 21  1  0  0  0  0
 21 23  1  0  0  0  0
 21 24  1  0  0  0  0
 22 21  1  0  0  0  0
 24 26  1  0  0  0  0
 24 25  1  0  0  0  0
 27 24  1  0  0  0  0
 27 28  1  0  0  0  0
 29 27  1  0  0  0  0
 30 29  1  0  0  0  0
 31 32  1  0  0  0  0
 31 29  1  0  0  0  0
 33 31  1  0  0  0  0
 34 17  1  0  0  0  0
 34 31  1  0  0  0  0
 35 34  1  0  0  0  0
 36 34  1  0  0  0  0
 37 45  2  0  0  0  0
 41  8  1  0  0  0  0
 42 41  1  0  0  0  0
 43  2  1  0  0  0  0
 43  1  1  0  0  0  0
 44  7  3  0  0  0  0
 45 38  2  0  0  0  0
 45  9  1  0  0  0  0
 46 40  2  0  0  0  0
 46 39  2  0  0  0  0
M  END
$$$$
