CSD_code = CISQUQ | q = 0 | S = 0 | Stoichiometry = C41H40ClNOP2Pt | MND = 4
 OpenBabel04212202023D

 87 92  0  0  0  0  0  0  0  0999 V2000
    2.2232    1.6362    3.7153 Pt  0  0  0  0  0  0  0  0  0  0  0  0
    0.0944    2.6936    4.4262 Cl  0  0  0  0  0  0  0  0  0  0  0  0
    3.8574    0.8116    2.8870 C   0  0  0  0  0  0  0  0  0  0  0  0
    3.7089   -0.1531    2.1580 O   0  0  0  0  0  0  0  0  0  0  0  0
    5.0647    1.3847    3.0920 N   0  0  0  0  0  0  0  0  0  0  0  0
    6.2195    0.8694    2.3736 C   0  0  0  0  0  0  0  0  0  0  0  0
    6.9795    1.6540    2.3463 H   0  0  0  0  0  0  0  0  0  0  0  0
    5.9011    0.6525    1.3493 H   0  0  0  0  0  0  0  0  0  0  0  0
    5.2484    2.5285    3.9514 C   0  0  0  0  0  0  0  0  0  0  0  0
    4.2423    2.8783    4.2405 H   0  0  0  0  0  0  0  0  0  0  0  0
    5.7435    3.3280    3.3855 H   0  0  0  0  0  0  0  0  0  0  0  0
    6.0448    2.2108    5.2145 C   0  0  0  0  0  0  0  0  0  0  0  0
    6.0569    3.0784    5.8696 H   0  0  0  0  0  0  0  0  0  0  0  0
    7.0720    1.9499    4.9725 H   0  0  0  0  0  0  0  0  0  0  0  0
    5.5854    1.3785    5.7428 H   0  0  0  0  0  0  0  0  0  0  0  0
    6.7787   -0.4090    2.9895 C   0  0  0  0  0  0  0  0  0  0  0  0
    7.6485   -0.7390    2.4268 H   0  0  0  0  0  0  0  0  0  0  0  0
    6.0198   -1.1845    2.9513 H   0  0  0  0  0  0  0  0  0  0  0  0
    7.0652   -0.2573    4.0268 H   0  0  0  0  0  0  0  0  0  0  0  0
    2.0662    3.1497    2.0153 P   0  0  0  0  0  4  0  0  0  0  0  0
    1.3308    4.7546    2.4410 C   0  0  0  0  0  0  0  0  0  0  0  0
    1.9057    5.4419    3.5076 C   0  0  0  0  0  0  0  0  0  0  0  0
    2.7488    5.0019    4.0278 H   0  0  0  0  0  0  0  0  0  0  0  0
    1.3888    6.6552    3.9159 C   0  0  0  0  0  0  0  0  0  0  0  0
    1.8351    7.1816    4.7472 H   0  0  0  0  0  0  0  0  0  0  0  0
    0.2866    7.1887    3.2665 C   0  0  0  0  0  0  0  0  0  0  0  0
   -0.1248    8.1337    3.5894 H   0  0  0  0  0  0  0  0  0  0  0  0
   -0.2987    6.4998    2.2185 C   0  0  0  0  0  0  0  0  0  0  0  0
   -1.1708    6.9052    1.7264 H   0  0  0  0  0  0  0  0  0  0  0  0
    0.2171    5.2836    1.8045 C   0  0  0  0  0  0  0  0  0  0  0  0
   -0.2623    4.7377    1.0052 H   0  0  0  0  0  0  0  0  0  0  0  0
    3.5174    3.6073    1.0067 C   0  0  0  0  0  0  0  0  0  0  0  0
    4.1362    4.8493    1.0845 C   0  0  0  0  0  0  0  0  0  0  0  0
    3.7223    5.6209    1.7188 H   0  0  0  0  0  0  0  0  0  0  0  0
    5.2766    5.1046    0.3421 C   0  0  0  0  0  0  0  0  0  0  0  0
    5.7505    6.0738    0.4044 H   0  0  0  0  0  0  0  0  0  0  0  0
    5.8084    4.1245   -0.4782 C   0  0  0  0  0  0  0  0  0  0  0  0
    6.6980    4.3273   -1.0563 H   0  0  0  0  0  0  0  0  0  0  0  0
    5.1966    2.8827   -0.5568 C   0  0  0  0  0  0  0  0  0  0  0  0
    5.6088    2.1166   -1.1973 H   0  0  0  0  0  0  0  0  0  0  0  0
    4.0603    2.6225    0.1841 C   0  0  0  0  0  0  0  0  0  0  0  0
    3.5847    1.6523    0.1343 H   0  0  0  0  0  0  0  0  0  0  0  0
    0.9943    2.3872    0.7702 C   0  0  0  0  0  0  0  0  0  0  0  0
    0.7812    2.9497   -0.4858 C   0  0  0  0  0  0  0  0  0  0  0  0
    1.2709    3.8777   -0.7516 H   0  0  0  0  0  0  0  0  0  0  0  0
   -0.0440    2.3089   -1.3912 C   0  0  0  0  0  0  0  0  0  0  0  0
   -0.2152    2.7455   -2.3648 H   0  0  0  0  0  0  0  0  0  0  0  0
   -0.6480    1.1067   -1.0549 C   0  0  0  0  0  0  0  0  0  0  0  0
   -1.2926    0.6128   -1.7674 H   0  0  0  0  0  0  0  0  0  0  0  0
   -0.4183    0.5337    0.1851 C   0  0  0  0  0  0  0  0  0  0  0  0
   -0.8759   -0.4108    0.4396 H   0  0  0  0  0  0  0  0  0  0  0  0
    0.4038    1.1712    1.0961 C   0  0  0  0  0  0  0  0  0  0  0  0
    0.6047    0.7294    2.0711 H   0  0  0  0  0  0  0  0  0  0  0  0
    2.1499    0.1302    5.4275 P   0  0  0  0  0  4  0  0  0  0  0  0
    3.6166   -0.8805    5.8050 C   0  0  0  0  0  0  0  0  0  0  0  0
    4.4014   -0.6687    6.9328 C   0  0  0  0  0  0  0  0  0  0  0  0
    4.1275    0.0996    7.6433 H   0  0  0  0  0  0  0  0  0  0  0  0
    5.5260   -1.4465    7.1510 C   0  0  0  0  0  0  0  0  0  0  0  0
    6.1316   -1.2783    8.0299 H   0  0  0  0  0  0  0  0  0  0  0  0
    5.8714   -2.4388    6.2495 C   0  0  0  0  0  0  0  0  0  0  0  0
    6.7453   -3.0484    6.4258 H   0  0  0  0  0  0  0  0  0  0  0  0
    5.0965   -2.6474    5.1186 C   0  0  0  0  0  0  0  0  0  0  0  0
    5.3676   -3.4202    4.4143 H   0  0  0  0  0  0  0  0  0  0  0  0
    3.9799   -1.8665    4.8900 C   0  0  0  0  0  0  0  0  0  0  0  0
    3.3814   -2.0078    4.0005 H   0  0  0  0  0  0  0  0  0  0  0  0
    0.8321   -1.1186    5.3095 C   0  0  0  0  0  0  0  0  0  0  0  0
    0.9555   -2.4000    5.8395 C   0  0  0  0  0  0  0  0  0  0  0  0
    1.8722   -2.7025    6.3271 H   0  0  0  0  0  0  0  0  0  0  0  0
   -0.0968   -3.2919    5.7372 C   0  0  0  0  0  0  0  0  0  0  0  0
    0.0025   -4.2856    6.1502 H   0  0  0  0  0  0  0  0  0  0  0  0
   -1.2736   -2.9160    5.1096 C   0  0  0  0  0  0  0  0  0  0  0  0
   -2.0904   -3.6188    5.0315 H   0  0  0  0  0  0  0  0  0  0  0  0
   -1.4012   -1.6399    4.5865 C   0  0  0  0  0  0  0  0  0  0  0  0
   -2.3191   -1.3418    4.1013 H   0  0  0  0  0  0  0  0  0  0  0  0
   -0.3537   -0.7427    4.6856 C   0  0  0  0  0  0  0  0  0  0  0  0
   -0.4542    0.2637    4.3006 H   0  0  0  0  0  0  0  0  0  0  0  0
    1.8103    0.9662    7.0042 C   0  0  0  0  0  0  0  0  0  0  0  0
    1.2224    0.3207    8.0852 C   0  0  0  0  0  0  0  0  0  0  0  0
    0.9322   -0.7175    8.0018 H   0  0  0  0  0  0  0  0  0  0  0  0
    1.0010    1.0153    9.2608 C   0  0  0  0  0  0  0  0  0  0  0  0
    0.5389    0.5160   10.1001 H   0  0  0  0  0  0  0  0  0  0  0  0
    1.3623    2.3493    9.3618 C   0  0  0  0  0  0  0  0  0  0  0  0
    1.1807    2.8879   10.2804 H   0  0  0  0  0  0  0  0  0  0  0  0
    1.9454    2.9959    8.2840 C   0  0  0  0  0  0  0  0  0  0  0  0
    2.2157    4.0390    8.3601 H   0  0  0  0  0  0  0  0  0  0  0  0
    2.1682    2.3057    7.1078 C   0  0  0  0  0  0  0  0  0  0  0  0
    2.6004    2.8016    6.2442 H   0  0  0  0  0  0  0  0  0  0  0  0
  1  2  1  0  0  0  0
  1 54  1  0  0  0  0
  3  5  1  0  0  0  0
  3  1  1  0  0  0  0
  4  3  2  0  0  0  0
  5  9  1  0  0  0  0
  6 16  1  0  0  0  0
  6  5  1  0  0  0  0
  7  6  1  0  0  0  0
  8  6  1  0  0  0  0
  9 10  1  0  0  0  0
  9 12  1  0  0  0  0
 11  9  1  0  0  0  0
 12 15  1  0  0  0  0
 12 13  1  0  0  0  0
 14 12  1  0  0  0  0
 16 19  1  0  0  0  0
 17 16  1  0  0  0  0
 18 16  1  0  0  0  0
 20 21  1  0  0  0  0
 20  1  1  0  0  0  0
 21 22  1  0  0  0  0
 22 24  2  0  0  0  0
 22 23  1  0  0  0  0
 24 25  1  0  0  0  0
 26 27  1  0  0  0  0
 26 24  1  0  0  0  0
 28 26  2  0  0  0  0
 29 28  1  0  0  0  0
 30 28  1  0  0  0  0
 30 21  2  0  0  0  0
 31 30  1  0  0  0  0
 32 33  1  0  0  0  0
 32 20  1  0  0  0  0
 33 34  1  0  0  0  0
 35 36  1  0  0  0  0
 35 33  2  0  0  0  0
 37 35  1  0  0  0  0
 38 37  1  0  0  0  0
 39 37  2  0  0  0  0
 39 41  1  0  0  0  0
 40 39  1  0  0  0  0
 41 32  2  0  0  0  0
 42 41  1  0  0  0  0
 43 52  1  0  0  0  0
 43 20  1  0  0  0  0
 44 43  2  0  0  0  0
 45 44  1  0  0  0  0
 46 48  2  0  0  0  0
 46 44  1  0  0  0  0
 47 46  1  0  0  0  0
 48 50  1  0  0  0  0
 49 48  1  0  0  0  0
 50 51  1  0  0  0  0
 50 52  2  0  0  0  0
 52 53  1  0  0  0  0
 54 55  1  0  0  0  0
 54 77  1  0  0  0  0
 55 56  1  0  0  0  0
 56 58  2  0  0  0  0
 56 57  1  0  0  0  0
 58 59  1  0  0  0  0
 60 61  1  0  0  0  0
 60 58  1  0  0  0  0
 62 60  2  0  0  0  0
 63 62  1  0  0  0  0
 64 62  1  0  0  0  0
 64 55  2  0  0  0  0
 65 64  1  0  0  0  0
 66 54  1  0  0  0  0
 66 67  1  0  0  0  0
 67 68  1  0  0  0  0
 69 67  2  0  0  0  0
 69 70  1  0  0  0  0
 71 69  1  0  0  0  0
 72 71  1  0  0  0  0
 73 75  1  0  0  0  0
 73 71  2  0  0  0  0
 74 73  1  0  0  0  0
 75 66  2  0  0  0  0
 76 75  1  0  0  0  0
 77 86  2  0  0  0  0
 77 78  1  0  0  0  0
 78 80  2  0  0  0  0
 79 78  1  0  0  0  0
 80 82  1  0  0  0  0
 80 81  1  0  0  0  0
 82 83  1  0  0  0  0
 84 85  1  0  0  0  0
 84 82  2  0  0  0  0
 86 84  1  0  0  0  0
 87 86  1  0  0  0  0
M  END
$$$$
