CSD_code = CISZIO | q = 0 | S = 0 | Stoichiometry = C16H28Cl2F6P2Pt | MND = 4
 OpenBabel04212202023D

 55 54  0  0  0  0  0  0  0  0999 V2000
   -0.0003    0.0000   -0.0001 Pt  0  0  0  0  0  0  0  0  0  0  0  0
   -0.3229   -1.6906    1.5674 Cl  0  0  0  0  0  0  0  0  0  0  0  0
    0.5212    1.3728    1.7470 P   0  0  0  0  0  4  0  0  0  0  0  0
    0.9970    4.0787    1.8161 F   0  0  0  0  0  0  0  0  0  0  0  0
   -1.3972    4.6901    0.4705 F   0  0  0  0  0  0  0  0  0  0  0  0
   -1.8667    2.5626    0.3956 F   0  0  0  0  0  0  0  0  0  0  0  0
    0.1287    3.1307    1.4165 C   0  0  0  0  0  0  0  0  0  0  0  0
   -0.9820    3.4746    0.7758 C   0  0  0  0  0  0  0  0  0  0  0  0
    2.3433    1.4459    2.0361 C   0  0  0  0  0  0  0  0  0  0  0  0
    2.5801    2.3038    2.6756 H   0  0  0  0  0  0  0  0  0  0  0  0
    2.7907    0.1421    2.6918 C   0  0  0  0  0  0  0  0  0  0  0  0
    2.4202   -0.7089    2.1191 H   0  0  0  0  0  0  0  0  0  0  0  0
    2.4244    0.0567    3.7125 H   0  0  0  0  0  0  0  0  0  0  0  0
    3.8775    0.0905    2.7144 H   0  0  0  0  0  0  0  0  0  0  0  0
    3.0083    1.6160    0.6719 C   0  0  0  0  0  0  0  0  0  0  0  0
    4.0901    1.6652    0.7786 H   0  0  0  0  0  0  0  0  0  0  0  0
    2.6684    2.5239    0.1753 H   0  0  0  0  0  0  0  0  0  0  0  0
    2.7607    0.7625    0.0349 H   0  0  0  0  0  0  0  0  0  0  0  0
   -0.2777    1.1235    3.4032 C   0  0  0  0  0  0  0  0  0  0  0  0
    0.0243    0.1148    3.7062 H   0  0  0  0  0  0  0  0  0  0  0  0
    0.1809    2.1432    4.4400 C   0  0  0  0  0  0  0  0  0  0  0  0
   -0.0677    3.1570    4.1305 H   0  0  0  0  0  0  0  0  0  0  0  0
    1.2527    2.0877    4.6149 H   0  0  0  0  0  0  0  0  0  0  0  0
   -0.3239    1.9490    5.3848 H   0  0  0  0  0  0  0  0  0  0  0  0
   -1.7947    1.1346    3.2333 C   0  0  0  0  0  0  0  0  0  0  0  0
   -2.2752    0.8087    4.1532 H   0  0  0  0  0  0  0  0  0  0  0  0
   -2.0880    0.4528    2.4352 H   0  0  0  0  0  0  0  0  0  0  0  0
   -2.1580    2.1325    2.9945 H   0  0  0  0  0  0  0  0  0  0  0  0
    0.3231    1.6906   -1.5674 Cl  0  0  0  0  0  0  0  0  0  0  0  0
   -0.5212   -1.3728   -1.7471 P   0  0  0  0  0  4  0  0  0  0  0  0
   -0.9970   -4.0787   -1.8161 F   0  0  0  0  0  0  0  0  0  0  0  0
    1.3971   -4.6901   -0.4705 F   0  0  0  0  0  0  0  0  0  0  0  0
    1.8668   -2.5626   -0.3957 F   0  0  0  0  0  0  0  0  0  0  0  0
   -0.1287   -3.1307   -1.4165 C   0  0  0  0  0  0  0  0  0  0  0  0
    0.9820   -3.4745   -0.7758 C   0  0  0  0  0  0  0  0  0  0  0  0
   -2.3433   -1.4459   -2.0360 C   0  0  0  0  0  0  0  0  0  0  0  0
   -2.5801   -2.3037   -2.6757 H   0  0  0  0  0  0  0  0  0  0  0  0
   -2.7908   -0.1420   -2.6915 C   0  0  0  0  0  0  0  0  0  0  0  0
   -2.4203    0.7089   -2.1186 H   0  0  0  0  0  0  0  0  0  0  0  0
   -2.4244   -0.0564   -3.7122 H   0  0  0  0  0  0  0  0  0  0  0  0
   -3.8775   -0.0905   -2.7141 H   0  0  0  0  0  0  0  0  0  0  0  0
   -3.0082   -1.6163   -0.6719 C   0  0  0  0  0  0  0  0  0  0  0  0
   -4.0900   -1.6654   -0.7785 H   0  0  0  0  0  0  0  0  0  0  0  0
   -2.6683   -2.5242   -0.1755 H   0  0  0  0  0  0  0  0  0  0  0  0
   -2.7605   -0.7629   -0.0348 H   0  0  0  0  0  0  0  0  0  0  0  0
    0.2776   -1.1235   -3.4033 C   0  0  0  0  0  0  0  0  0  0  0  0
   -0.0242   -0.1147   -3.7062 H   0  0  0  0  0  0  0  0  0  0  0  0
   -0.1810   -2.1431   -4.4402 C   0  0  0  0  0  0  0  0  0  0  0  0
    0.0674   -3.1570   -4.1306 H   0  0  0  0  0  0  0  0  0  0  0  0
   -1.2528   -2.0874   -4.6150 H   0  0  0  0  0  0  0  0  0  0  0  0
    0.3239   -1.9489   -5.3849 H   0  0  0  0  0  0  0  0  0  0  0  0
    1.7947   -1.1347   -3.2334 C   0  0  0  0  0  0  0  0  0  0  0  0
    2.2752   -0.8088   -4.1534 H   0  0  0  0  0  0  0  0  0  0  0  0
    2.0881   -0.4529   -2.4354 H   0  0  0  0  0  0  0  0  0  0  0  0
    2.1579   -2.1326   -2.9947 H   0  0  0  0  0  0  0  0  0  0  0  0
  1  2  1  0  0  0  0
  1  3  1  0  0  0  0
  3  9  1  0  0  0  0
  3 19  1  0  0  0  0
  5  8  1  0  0  0  0
  6  8  1  0  0  0  0
  7  3  1  0  0  0  0
  7  4  1  0  0  0  0
  8  7  2  0  0  0  0
  9 10  1  0  0  0  0
  9 11  1  0  0  0  0
 11 14  1  0  0  0  0
 11 13  1  0  0  0  0
 12 11  1  0  0  0  0
 15 16  1  0  0  0  0
 15  9  1  0  0  0  0
 17 15  1  0  0  0  0
 18 15  1  0  0  0  0
 19 20  1  0  0  0  0
 19 21  1  0  0  0  0
 21 23  1  0  0  0  0
 21 24  1  0  0  0  0
 22 21  1  0  0  0  0
 25 19  1  0  0  0  0
 25 26  1  0  0  0  0
 27 25  1  0  0  0  0
 28 25  1  0  0  0  0
 29  1  1  0  0  0  0
 30 34  1  0  0  0  0
 30  1  1  0  0  0  0
 31 34  1  0  0  0  0
 34 35  2  0  0  0  0
 35 32  1  0  0  0  0
 35 33  1  0  0  0  0
 36 30  1  0  0  0  0
 36 42  1  0  0  0  0
 37 36  1  0  0  0  0
 38 39  1  0  0  0  0
 38 36  1  0  0  0  0
 40 38  1  0  0  0  0
 41 38  1  0  0  0  0
 42 44  1  0  0  0  0
 42 45  1  0  0  0  0
 43 42  1  0  0  0  0
 46 52  1  0  0  0  0
 46 30  1  0  0  0  0
 47 46  1  0  0  0  0
 48 49  1  0  0  0  0
 48 46  1  0  0  0  0
 50 48  1  0  0  0  0
 51 48  1  0  0  0  0
 52 55  1  0  0  0  0
 52 54  1  0  0  0  0
 53 52  1  0  0  0  0
M  END
$$$$
