CSD_code = CISZUA | q = 0 | S = 0 | Stoichiometry = C16H28F6I2P2Pt | MND = 4
 OpenBabel04212202023D

 55 54  0  0  0  0  0  0  0  0999 V2000
    6.3222   -0.0001    7.2839 Pt  0  0  0  0  0  0  0  0  0  0  0  0
    8.2078    0.5864    9.0299 I   0  0  0  0  0  0  0  0  0  0  0  0
    5.3504   -1.5514    8.6990 P   0  0  0  0  0  4  0  0  0  0  0  0
    5.8956   -2.2685   11.2980 F   0  0  0  0  0  0  0  0  0  0  0  0
    5.4099    0.3319   12.2742 F   0  0  0  0  0  0  0  0  0  0  0  0
    5.0416    0.9909   10.2264 F   0  0  0  0  0  0  0  0  0  0  0  0
    5.5760   -1.2391   10.4941 C   0  0  0  0  0  0  0  0  0  0  0  0
    5.3575   -0.0353   11.0092 C   0  0  0  0  0  0  0  0  0  0  0  0
    3.5141   -1.8856    8.7145 C   0  0  0  0  0  0  0  0  0  0  0  0
    3.2726   -2.2250    7.7018 H   0  0  0  0  0  0  0  0  0  0  0  0
    2.7487   -0.5903    8.9790 C   0  0  0  0  0  0  0  0  0  0  0  0
    1.6995   -0.7234    8.7244 H   0  0  0  0  0  0  0  0  0  0  0  0
    3.1383    0.2294    8.3752 H   0  0  0  0  0  0  0  0  0  0  0  0
    2.8076   -0.3048   10.0276 H   0  0  0  0  0  0  0  0  0  0  0  0
    3.1123   -2.9698    9.7098 C   0  0  0  0  0  0  0  0  0  0  0  0
    3.3879   -2.7037   10.7288 H   0  0  0  0  0  0  0  0  0  0  0  0
    3.5589   -3.9310    9.4671 H   0  0  0  0  0  0  0  0  0  0  0  0
    2.0305   -3.0891    9.6799 H   0  0  0  0  0  0  0  0  0  0  0  0
    6.1418   -3.2164    8.5276 C   0  0  0  0  0  0  0  0  0  0  0  0
    5.8229   -3.8285    9.3794 H   0  0  0  0  0  0  0  0  0  0  0  0
    7.6585   -3.0505    8.5607 C   0  0  0  0  0  0  0  0  0  0  0  0
    8.1425   -4.0199    8.4590 H   0  0  0  0  0  0  0  0  0  0  0  0
    7.9926   -2.5998    9.4941 H   0  0  0  0  0  0  0  0  0  0  0  0
    7.9848   -2.4221    7.7272 H   0  0  0  0  0  0  0  0  0  0  0  0
    5.7138   -3.8726    7.2178 C   0  0  0  0  0  0  0  0  0  0  0  0
    6.0328   -3.2702    6.3676 H   0  0  0  0  0  0  0  0  0  0  0  0
    4.6360   -4.0091    7.1590 H   0  0  0  0  0  0  0  0  0  0  0  0
    6.1845   -4.8499    7.1281 H   0  0  0  0  0  0  0  0  0  0  0  0
    4.4366   -0.5863    5.5381 I   0  0  0  0  0  0  0  0  0  0  0  0
    7.2931    1.5513    5.8680 P   0  0  0  0  0  4  0  0  0  0  0  0
    6.7481    2.2685    3.2690 F   0  0  0  0  0  0  0  0  0  0  0  0
    7.2338   -0.3319    2.2929 F   0  0  0  0  0  0  0  0  0  0  0  0
    7.6021   -0.9909    4.3407 F   0  0  0  0  0  0  0  0  0  0  0  0
    7.0676    1.2392    4.0730 C   0  0  0  0  0  0  0  0  0  0  0  0
    7.2862    0.0353    3.5579 C   0  0  0  0  0  0  0  0  0  0  0  0
    9.1294    1.8856    5.8528 C   0  0  0  0  0  0  0  0  0  0  0  0
    9.3710    2.2250    6.8655 H   0  0  0  0  0  0  0  0  0  0  0  0
    9.8950    0.5904    5.5883 C   0  0  0  0  0  0  0  0  0  0  0  0
   10.9442    0.7235    5.8428 H   0  0  0  0  0  0  0  0  0  0  0  0
    9.5055   -0.2294    6.1919 H   0  0  0  0  0  0  0  0  0  0  0  0
    9.8361    0.3049    4.5396 H   0  0  0  0  0  0  0  0  0  0  0  0
    9.5313    2.9698    4.8576 C   0  0  0  0  0  0  0  0  0  0  0  0
    9.2558    2.7038    3.8385 H   0  0  0  0  0  0  0  0  0  0  0  0
    9.0847    3.9310    5.1002 H   0  0  0  0  0  0  0  0  0  0  0  0
   10.6131    3.0892    4.8875 H   0  0  0  0  0  0  0  0  0  0  0  0
    6.5019    3.2163    6.0398 C   0  0  0  0  0  0  0  0  0  0  0  0
    6.8207    3.8285    5.1879 H   0  0  0  0  0  0  0  0  0  0  0  0
    4.9852    3.0504    6.0066 C   0  0  0  0  0  0  0  0  0  0  0  0
    4.5012    4.0199    6.1083 H   0  0  0  0  0  0  0  0  0  0  0  0
    4.6511    2.5998    5.0732 H   0  0  0  0  0  0  0  0  0  0  0  0
    4.6589    2.4220    6.8401 H   0  0  0  0  0  0  0  0  0  0  0  0
    6.9299    3.8725    7.3496 C   0  0  0  0  0  0  0  0  0  0  0  0
    6.6109    3.2702    8.1998 H   0  0  0  0  0  0  0  0  0  0  0  0
    8.0077    4.0090    7.4084 H   0  0  0  0  0  0  0  0  0  0  0  0
    6.4592    4.8499    7.4393 H   0  0  0  0  0  0  0  0  0  0  0  0
  1  3  1  0  0  0  0
  1  2  1  0  0  0  0
  3  9  1  0  0  0  0
  3  7  1  0  0  0  0
  6  8  1  0  0  0  0
  7  8  2  0  0  0  0
  7  4  1  0  0  0  0
  8  5  1  0  0  0  0
  9 11  1  0  0  0  0
  9 15  1  0  0  0  0
 10  9  1  0  0  0  0
 11 14  1  0  0  0  0
 12 11  1  0  0  0  0
 13 11  1  0  0  0  0
 15 16  1  0  0  0  0
 17 15  1  0  0  0  0
 18 15  1  0  0  0  0
 19 21  1  0  0  0  0
 19  3  1  0  0  0  0
 19 20  1  0  0  0  0
 21 23  1  0  0  0  0
 22 21  1  0  0  0  0
 24 21  1  0  0  0  0
 25 19  1  0  0  0  0
 26 25  1  0  0  0  0
 27 25  1  0  0  0  0
 28 25  1  0  0  0  0
 29  1  1  0  0  0  0
 30 46  1  0  0  0  0
 30  1  1  0  0  0  0
 31 34  1  0  0  0  0
 32 35  1  0  0  0  0
 34 30  1  0  0  0  0
 35 34  2  0  0  0  0
 35 33  1  0  0  0  0
 36 30  1  0  0  0  0
 36 37  1  0  0  0  0
 38 39  1  0  0  0  0
 38 36  1  0  0  0  0
 38 40  1  0  0  0  0
 41 38  1  0  0  0  0
 42 45  1  0  0  0  0
 42 44  1  0  0  0  0
 42 36  1  0  0  0  0
 43 42  1  0  0  0  0
 46 52  1  0  0  0  0
 47 46  1  0  0  0  0
 48 46  1  0  0  0  0
 48 49  1  0  0  0  0
 48 51  1  0  0  0  0
 50 48  1  0  0  0  0
 52 54  1  0  0  0  0
 52 55  1  0  0  0  0
 52 53  1  0  0  0  0
M  END
$$$$
