CSD_code = CISZAG | q = 0 | S = 0 | Stoichiometry = C20H10Br2F12P2Pd | MND = 4
 OpenBabel04212202023D

 47 48  0  0  0  0  0  0  0  0999 V2000
    4.5501   -0.0032    0.0027 Pd  0  0  0  0  0  0  0  0  0  0  0  0
    3.1310   -0.1741    1.9783 Br  0  0  0  0  0  0  0  0  0  0  0  0
    5.5703    1.6012    1.1820 P   0  0  0  0  0  4  0  0  0  0  0  0
    6.2286    0.8805    2.7410 C   0  0  0  0  0  0  0  0  0  0  0  0
    6.4058   -0.4312    2.8796 C   0  0  0  0  0  0  0  0  0  0  0  0
    7.1519    2.3398    0.5953 C   0  0  0  0  0  0  0  0  0  0  0  0
    8.1311    1.5076    0.2494 C   0  0  0  0  0  0  0  0  0  0  0  0
    4.6146    3.0584    1.6324 C   0  0  0  0  0  0  0  0  0  0  0  0
    3.3564    3.1816    1.0454 C   0  0  0  0  0  0  0  0  0  0  0  0
    2.9840    2.4036    0.3821 H   0  0  0  0  0  0  0  0  0  0  0  0
    2.5813    4.2928    1.3182 C   0  0  0  0  0  0  0  0  0  0  0  0
    1.6050    4.3898    0.8692 H   0  0  0  0  0  0  0  0  0  0  0  0
    3.0604    5.2750    2.1699 C   0  0  0  0  0  0  0  0  0  0  0  0
    2.4529    6.1405    2.3873 H   0  0  0  0  0  0  0  0  0  0  0  0
    4.3176    5.1556    2.7423 C   0  0  0  0  0  0  0  0  0  0  0  0
    4.6883    5.9268    3.4001 H   0  0  0  0  0  0  0  0  0  0  0  0
    5.1063    4.0526    2.4748 C   0  0  0  0  0  0  0  0  0  0  0  0
    6.0874    3.9694    2.9176 H   0  0  0  0  0  0  0  0  0  0  0  0
    6.6055    1.7201    3.7168 F   0  0  0  0  0  0  0  0  0  0  0  0
    6.8958   -1.0768    3.9104 F   0  0  0  0  0  0  0  0  0  0  0  0
    6.0803   -1.2760    1.8973 F   0  0  0  0  0  0  0  0  0  0  0  0
    7.2361    3.6593    0.3978 F   0  0  0  0  0  0  0  0  0  0  0  0
    9.3202    1.7645   -0.2336 F   0  0  0  0  0  0  0  0  0  0  0  0
    7.9553    0.2052    0.4709 F   0  0  0  0  0  0  0  0  0  0  0  0
    5.9653    0.1649   -1.9769 Br  0  0  0  0  0  0  0  0  0  0  0  0
    3.5302   -1.6041   -1.1819 P   0  0  0  0  0  4  0  0  0  0  0  0
    2.8684   -0.8755   -2.7358 C   0  0  0  0  0  0  0  0  0  0  0  0
    2.6886    0.4368   -2.8658 C   0  0  0  0  0  0  0  0  0  0  0  0
    1.9510   -2.3529   -0.6012 C   0  0  0  0  0  0  0  0  0  0  0  0
    0.9667   -1.5280   -0.2524 C   0  0  0  0  0  0  0  0  0  0  0  0
    4.4924   -3.0558   -1.6363 C   0  0  0  0  0  0  0  0  0  0  0  0
    5.7420   -3.1830   -1.0318 C   0  0  0  0  0  0  0  0  0  0  0  0
    6.1034   -2.4103   -0.3560 H   0  0  0  0  0  0  0  0  0  0  0  0
    6.5226   -4.2905   -1.3034 C   0  0  0  0  0  0  0  0  0  0  0  0
    7.4920   -4.3909   -0.8402 H   0  0  0  0  0  0  0  0  0  0  0  0
    6.0580   -5.2647   -2.1723 C   0  0  0  0  0  0  0  0  0  0  0  0
    6.6701   -6.1270   -2.3892 H   0  0  0  0  0  0  0  0  0  0  0  0
    4.8098   -5.1410   -2.7628 C   0  0  0  0  0  0  0  0  0  0  0  0
    4.4507   -5.9056   -3.4346 H   0  0  0  0  0  0  0  0  0  0  0  0
    4.0149   -4.0421   -2.4958 C   0  0  0  0  0  0  0  0  0  0  0  0
    3.0405   -3.9560   -2.9526 H   0  0  0  0  0  0  0  0  0  0  0  0
    2.4877   -1.7095   -3.7149 F   0  0  0  0  0  0  0  0  0  0  0  0
    2.1941    1.0876   -3.8912 F   0  0  0  0  0  0  0  0  0  0  0  0
    3.0164    1.2767   -1.8798 F   0  0  0  0  0  0  0  0  0  0  0  0
    1.8730   -3.6741   -0.4132 F   0  0  0  0  0  0  0  0  0  0  0  0
   -0.2219   -1.7943    0.2267 F   0  0  0  0  0  0  0  0  0  0  0  0
    1.1356   -0.2236   -0.4659 F   0  0  0  0  0  0  0  0  0  0  0  0
  1  3  1  0  0  0  0
  1  2  1  0  0  0  0
  3  8  1  0  0  0  0
  3  4  1  0  0  0  0
  4  5  2  0  0  0  0
  4 19  1  0  0  0  0
  5 20  1  0  0  0  0
  6  3  1  0  0  0  0
  7 24  1  0  0  0  0
  7  6  2  0  0  0  0
  8 17  1  0  0  0  0
  9 11  1  0  0  0  0
  9  8  2  0  0  0  0
 10  9  1  0  0  0  0
 11 13  2  0  0  0  0
 12 11  1  0  0  0  0
 13 14  1  0  0  0  0
 13 15  1  0  0  0  0
 15 16  1  0  0  0  0
 17 15  2  0  0  0  0
 17 18  1  0  0  0  0
 21  5  1  0  0  0  0
 22  6  1  0  0  0  0
 23  7  1  0  0  0  0
 25  1  1  0  0  0  0
 26 29  1  0  0  0  0
 26  1  1  0  0  0  0
 27 26  1  0  0  0  0
 28 27  2  0  0  0  0
 28 44  1  0  0  0  0
 29 45  1  0  0  0  0
 29 30  2  0  0  0  0
 30 46  1  0  0  0  0
 31 26  1  0  0  0  0
 31 32  1  0  0  0  0
 32 33  1  0  0  0  0
 34 32  2  0  0  0  0
 34 35  1  0  0  0  0
 36 34  1  0  0  0  0
 37 36  1  0  0  0  0
 38 40  1  0  0  0  0
 38 36  2  0  0  0  0
 39 38  1  0  0  0  0
 40 31  2  0  0  0  0
 41 40  1  0  0  0  0
 42 27  1  0  0  0  0
 43 28  1  0  0  0  0
 47 30  1  0  0  0  0
M  END
$$$$
