CSD_code = CITBEN | q = 0 | S = 0 | Stoichiometry = C20H10Br2F12P2Pt | MND = 4
 OpenBabel04212202023D

 47 48  0  0  0  0  0  0  0  0999 V2000
    1.5684   -1.1706    5.4076 Pt  0  0  0  0  0  0  0  0  0  0  0  0
    2.8536   -2.1828    7.1629 Br  0  0  0  0  0  0  0  0  0  0  0  0
   -0.4116   -2.4768    5.9342 Br  0  0  0  0  0  0  0  0  0  0  0  0
    3.4688   -0.1091    4.6940 P   0  0  0  0  0  4  0  0  0  0  0  0
   -0.0215   -0.2313    4.0378 P   0  0  0  0  0  4  0  0  0  0  0  0
    5.4930   -1.7077    3.9991 F   0  0  0  0  0  0  0  0  0  0  0  0
    7.0160   -1.3119    6.2944 F   0  0  0  0  0  0  0  0  0  0  0  0
    5.5118    0.0598    7.0633 F   0  0  0  0  0  0  0  0  0  0  0  0
    5.0209    2.0754    5.1219 F   0  0  0  0  0  0  0  0  0  0  0  0
    3.1153    3.3562    6.7410 F   0  0  0  0  0  0  0  0  0  0  0  0
    1.7752    1.6669    6.4681 F   0  0  0  0  0  0  0  0  0  0  0  0
    1.4567    1.8878    3.5923 F   0  0  0  0  0  0  0  0  0  0  0  0
    0.9075    2.4034    0.9796 F   0  0  0  0  0  0  0  0  0  0  0  0
   -0.5326    0.7791    0.8844 F   0  0  0  0  0  0  0  0  0  0  0  0
    0.0097   -1.6492    1.7993 F   0  0  0  0  0  0  0  0  0  0  0  0
   -2.5268   -2.6813    1.9545 F   0  0  0  0  0  0  0  0  0  0  0  0
   -2.9282   -1.5616    3.7704 F   0  0  0  0  0  0  0  0  0  0  0  0
    5.1069   -0.8730    4.9785 C   0  0  0  0  0  0  0  0  0  0  0  0
    5.8548   -0.7426    6.0731 C   0  0  0  0  0  0  0  0  0  0  0  0
    3.5526    0.0612    2.8895 C   0  0  0  0  0  0  0  0  0  0  0  0
    3.0060   -1.0061    2.1799 C   0  0  0  0  0  0  0  0  0  0  0  0
    2.5922   -1.8542    2.7192 H   0  0  0  0  0  0  0  0  0  0  0  0
    2.9982   -0.9873    0.7983 C   0  0  0  0  0  0  0  0  0  0  0  0
    2.5708   -1.8137    0.2527 H   0  0  0  0  0  0  0  0  0  0  0  0
    3.5258    0.1042    0.1260 C   0  0  0  0  0  0  0  0  0  0  0  0
    3.5109    0.1293   -0.9529 H   0  0  0  0  0  0  0  0  0  0  0  0
    4.0709    1.1648    0.8323 C   0  0  0  0  0  0  0  0  0  0  0  0
    4.4796    2.0127    0.3045 H   0  0  0  0  0  0  0  0  0  0  0  0
    4.0924    1.1506    2.2164 C   0  0  0  0  0  0  0  0  0  0  0  0
    4.5151    1.9835    2.7560 H   0  0  0  0  0  0  0  0  0  0  0  0
    3.8197    1.5401    5.3925 C   0  0  0  0  0  0  0  0  0  0  0  0
    2.9614    2.1813    6.1799 C   0  0  0  0  0  0  0  0  0  0  0  0
    0.5754    1.1070    2.9156 C   0  0  0  0  0  0  0  0  0  0  0  0
    0.3386    1.4147    1.6450 C   0  0  0  0  0  0  0  0  0  0  0  0
   -0.8293   -1.2883    2.7932 C   0  0  0  0  0  0  0  0  0  0  0  0
   -2.0395   -1.8422    2.8417 C   0  0  0  0  0  0  0  0  0  0  0  0
   -1.3476    0.6902    4.8575 C   0  0  0  0  0  0  0  0  0  0  0  0
   -2.3441    1.3036    4.0999 C   0  0  0  0  0  0  0  0  0  0  0  0
   -2.3528    1.1979    3.0233 H   0  0  0  0  0  0  0  0  0  0  0  0
   -3.3275    2.0343    4.7373 C   0  0  0  0  0  0  0  0  0  0  0  0
   -4.1085    2.5006    4.1564 H   0  0  0  0  0  0  0  0  0  0  0  0
   -3.3118    2.1684    6.1181 C   0  0  0  0  0  0  0  0  0  0  0  0
   -4.0854    2.7389    6.6090 H   0  0  0  0  0  0  0  0  0  0  0  0
   -2.3089    1.5761    6.8667 C   0  0  0  0  0  0  0  0  0  0  0  0
   -2.2943    1.6843    7.9399 H   0  0  0  0  0  0  0  0  0  0  0  0
   -1.3220    0.8373    6.2392 C   0  0  0  0  0  0  0  0  0  0  0  0
   -0.5379    0.3702    6.8222 H   0  0  0  0  0  0  0  0  0  0  0  0
  1  3  1  0  0  0  0
  1  2  1  0  0  0  0
  4 18  1  0  0  0  0
  4 31  1  0  0  0  0
  4  1  1  0  0  0  0
  5 37  1  0  0  0  0
  5  1  1  0  0  0  0
  6 18  1  0  0  0  0
  9 31  1  0  0  0  0
 13 34  1  0  0  0  0
 14 34  1  0  0  0  0
 15 35  1  0  0  0  0
 16 36  1  0  0  0  0
 18 19  2  0  0  0  0
 19  7  1  0  0  0  0
 19  8  1  0  0  0  0
 20  4  1  0  0  0  0
 21 22  1  0  0  0  0
 21 20  2  0  0  0  0
 23 21  1  0  0  0  0
 24 23  1  0  0  0  0
 25 23  2  0  0  0  0
 25 27  1  0  0  0  0
 26 25  1  0  0  0  0
 27 29  2  0  0  0  0
 28 27  1  0  0  0  0
 29 30  1  0  0  0  0
 29 20  1  0  0  0  0
 31 32  2  0  0  0  0
 32 11  1  0  0  0  0
 32 10  1  0  0  0  0
 33 12  1  0  0  0  0
 33  5  1  0  0  0  0
 34 33  2  0  0  0  0
 35 36  2  0  0  0  0
 35  5  1  0  0  0  0
 36 17  1  0  0  0  0
 37 46  1  0  0  0  0
 38 40  1  0  0  0  0
 38 37  2  0  0  0  0
 39 38  1  0  0  0  0
 40 42  2  0  0  0  0
 41 40  1  0  0  0  0
 42 43  1  0  0  0  0
 42 44  1  0  0  0  0
 44 45  1  0  0  0  0
 46 47  1  0  0  0  0
 46 44  2  0  0  0  0
M  END
$$$$
