CSD_code = CITFOB | q = 0 | S = 0 | Stoichiometry = C20H12BrN2O5Re | MND = 6
 OpenBabel04212202023D

 41 46  0  0  1  0  0  0  0  0999 V2000
    0.9569    2.0017    5.9241 Re  0  0  0  0  0  0  0  0  0  0  0  0
    2.1310    0.2055    7.0482 Br  0  0  0  0  0  0  0  0  0  0  0  0
    0.2824    3.7176    4.6796 N   0  0  0  0  0  0  0  0  0  0  0  0
    0.4812    2.8378    7.9728 N   0  0  0  0  0  0  0  0  0  0  0  0
   -0.5062    1.2448    5.8262 O   0  0  0  0  0  1  0  0  0  0  0  0
    1.9590    1.7069    4.1887 O   0  0  0  0  0  0  0  0  0  0  0  0
    2.6238    2.6498    2.2985 O   0  0  0  0  0  0  0  0  0  0  0  0
    2.3160    3.3408    6.2984 O   0  0  0  0  0  0  0  0  0  0  0  0
    2.8229    5.3251    7.2014 O   0  0  0  0  0  0  0  0  0  0  0  0
    1.0868    3.8476    3.6498 C   0  0  0  0  0  0  0  0  0  0  0  0
    1.1309    5.0069    2.8609 C   0  0  0  0  0  0  0  0  0  0  0  0
    1.8170    5.0248    2.0289 H   0  0  0  0  0  0  0  0  0  0  0  0
    0.3376    6.0655    3.2085 C   0  0  0  0  0  0  0  0  0  0  0  0
    0.3794    6.9981    2.6651 H   0  0  0  0  0  0  0  0  0  0  0  0
   -0.5565    5.9377    4.2928 C   0  0  0  0  0  0  0  0  0  0  0  0
   -1.4296    6.9682    4.6964 C   0  0  0  0  0  3  0  0  0  0  0  0
   -1.4025    7.9051    4.1606 H   0  0  0  0  0  0  0  0  0  0  0  0
   -2.2962    6.7777    5.7366 C   0  0  0  0  0  0  0  0  0  0  0  0
   -2.9608    7.5712    6.0421 H   0  0  0  0  0  0  0  0  0  0  0  0
   -2.3454    5.5430    6.4039 C   0  0  0  0  0  0  0  0  0  0  0  0
   -3.0579    5.3996    7.2019 H   0  0  0  0  0  0  0  0  0  0  0  0
   -1.5077    4.5223    6.0466 C   0  0  0  0  0  0  0  0  0  0  0  0
   -1.5564    3.5555    6.5264 H   0  0  0  0  0  0  0  0  0  0  0  0
   -0.5785    4.7054    5.0047 C   0  0  0  0  0  0  0  0  0  0  0  0
    1.9811    2.6504    3.3225 C   0  0  0  0  0  0  0  0  0  0  0  0
    1.2074    3.9036    8.2430 C   0  0  0  0  0  0  0  0  0  0  0  0
    1.0933    4.6498    9.4208 C   0  0  0  0  0  0  0  0  0  0  0  0
    1.7248    5.5157    9.5379 H   0  0  0  0  0  0  0  0  0  0  0  0
    0.1974    4.2316   10.3655 C   0  0  0  0  0  0  0  0  0  0  0  0
    0.0755    4.7674   11.2950 H   0  0  0  0  0  0  0  0  0  0  0  0
   -0.5627    3.0670   10.1335 C   0  0  0  0  0  0  0  0  0  0  0  0
   -1.4694    2.5617   11.0876 C   0  0  0  0  0  0  0  0  0  0  0  0
   -1.5889    3.0997   12.0160 H   0  0  0  0  0  0  0  0  0  0  0  0
   -2.1695    1.4126   10.8458 C   0  0  0  0  0  0  0  0  0  0  0  0
   -2.8562    1.0283   11.5841 H   0  0  0  0  0  0  0  0  0  0  0  0
   -1.9927    0.7211    9.6376 C   0  0  0  0  0  0  0  0  0  0  0  0
   -2.5395   -0.1918    9.4630 H   0  0  0  0  0  0  0  0  0  0  0  0
   -1.1309    1.1878    8.6817 C   0  0  0  0  0  0  0  0  0  0  0  0
   -0.9923    0.6506    7.7536 H   0  0  0  0  0  0  0  0  0  0  0  0
   -0.3967    2.3683    8.9002 C   0  0  2  0  0  3  0  0  0  0  0  0
    2.2296    4.2734    7.1749 C   0  0  0  0  0  0  0  0  0  0  0  0
  1  8  1  0  0  0  0
  1  2  1  0  0  0  0
  1  4  1  0  0  0  0
  3 24  1  0  0  0  0
  3  1  1  0  0  0  0
  4 26  1  0  0  0  0
  4 40  1  0  0  0  0
  5  1  1  0  0  0  0
  6  1  1  0  0  0  0
  7 25  2  0  0  0  0
  8 41  1  0  0  0  0
 10  3  1  0  0  0  0
 11 13  1  0  0  0  0
 11 10  2  0  0  0  0
 12 11  1  0  0  0  0
 13 15  2  0  0  0  0
 14 13  1  0  0  0  0
 15 16  1  0  0  0  0
 15 24  1  0  0  0  0
 16 18  1  0  0  0  0
 17 16  1  0  0  0  0
 18 19  1  0  0  0  0
 18 20  2  0  0  0  0
 20 21  1  0  0  0  0
 22 20  1  0  0  0  0
 22 23  1  0  0  0  0
 24 22  2  0  0  0  0
 25 10  1  0  0  0  0
 25  6  1  0  0  0  0
 26 27  2  0  0  0  0
 27 28  1  0  0  0  0
 27 29  1  0  0  0  0
 29 30  1  0  0  0  0
 31 29  2  0  0  0  0
 31 32  1  0  0  0  0
 32 33  1  0  0  0  0
 34 32  2  0  0  0  0
 34 35  1  0  0  0  0
 36 34  1  0  0  0  0
 37 36  1  0  0  0  0
 38 36  2  0  0  0  0
 39 38  1  0  0  0  0
 40 38  1  1  0  0  0
 40 31  1  0  0  0  0
 41  9  2  0  0  0  0
 41 26  1  0  0  0  0
M  END
$$$$
