CSD_code = CITGAO | q = 0 | S = 0 | Stoichiometry = C32H29Cl2NP2Pt | MND = 4
 OpenBabel04212202023D

 67 72  0  0  0  0  0  0  0  0999 V2000
    3.1532    3.4777    7.0866 Pt  0  0  0  0  0  0  0  0  0  0  0  0
    0.3603    2.7754    7.4154 N   0  0  0  0  0  0  0  0  0  0  0  0
    1.3641    2.5119    6.0356 P   0  0  0  0  0  4  0  0  0  0  0  0
    1.4611    3.3267    8.6295 P   0  0  0  0  0  4  0  0  0  0  0  0
    4.6026    3.4597    5.3446 Cl  0  0  0  0  0  0  0  0  0  0  0  0
    4.6841    4.5089    8.3972 Cl  0  0  0  0  0  0  0  0  0  0  0  0
   -1.0519    2.7698    7.5423 C   0  0  0  0  0  0  0  0  0  0  0  0
   -1.6507    1.7064    8.2145 C   0  0  0  0  0  0  0  0  0  0  0  0
   -1.0192    0.9390    8.6399 H   0  0  0  0  0  0  0  0  0  0  0  0
   -3.0238    1.6357    8.3462 C   0  0  0  0  0  0  0  0  0  0  0  0
   -3.4737    0.8052    8.8692 H   0  0  0  0  0  0  0  0  0  0  0  0
   -3.8119    2.6306    7.7933 C   0  0  0  0  0  0  0  0  0  0  0  0
   -4.8875    2.5752    7.8677 H   0  0  0  0  0  0  0  0  0  0  0  0
   -3.2179    3.7055    7.1601 C   0  0  0  0  0  0  0  0  0  0  0  0
   -3.8409    4.4848    6.7482 H   0  0  0  0  0  0  0  0  0  0  0  0
   -1.8363    3.8166    7.0437 C   0  0  0  0  0  0  0  0  0  0  0  0
   -1.2316    5.0483    6.4296 C   0  0  0  0  0  0  0  0  0  0  0  0
   -1.4411    5.0628    5.3567 H   0  0  0  0  0  0  0  0  0  0  0  0
   -0.1450    5.0232    6.5560 H   0  0  0  0  0  0  0  0  0  0  0  0
   -1.7642    6.3383    7.0526 C   0  0  0  0  0  0  0  0  0  0  0  0
   -2.8149    6.4877    6.8188 H   0  0  0  0  0  0  0  0  0  0  0  0
   -1.2071    7.1873    6.6643 H   0  0  0  0  0  0  0  0  0  0  0  0
   -1.6511    6.3169    8.1330 H   0  0  0  0  0  0  0  0  0  0  0  0
    1.3020    0.7357    5.6514 C   0  0  0  0  0  0  0  0  0  0  0  0
    2.4524    0.2229    5.0568 C   0  0  0  0  0  0  0  0  0  0  0  0
    3.2917    0.8847    4.8841 H   0  0  0  0  0  0  0  0  0  0  0  0
    2.5124   -1.1132    4.7070 C   0  0  0  0  0  0  0  0  0  0  0  0
    3.4041   -1.5109    4.2466 H   0  0  0  0  0  0  0  0  0  0  0  0
    1.4292   -1.9416    4.9558 C   0  0  0  0  0  0  0  0  0  0  0  0
    1.4758   -2.9868    4.6880 H   0  0  0  0  0  0  0  0  0  0  0  0
    0.2864   -1.4339    5.5528 C   0  0  0  0  0  0  0  0  0  0  0  0
   -0.5554   -2.0822    5.7485 H   0  0  0  0  0  0  0  0  0  0  0  0
    0.2160   -0.0961    5.9000 C   0  0  0  0  0  0  0  0  0  0  0  0
   -0.6741    0.2968    6.3701 H   0  0  0  0  0  0  0  0  0  0  0  0
    0.5451    3.2286    4.5821 C   0  0  0  0  0  0  0  0  0  0  0  0
   -0.6239    2.6993    4.0469 C   0  0  0  0  0  0  0  0  0  0  0  0
   -1.0825    1.8298    4.4954 H   0  0  0  0  0  0  0  0  0  0  0  0
   -1.1972    3.2980    2.9399 C   0  0  0  0  0  0  0  0  0  0  0  0
   -2.1095    2.8957    2.5243 H   0  0  0  0  0  0  0  0  0  0  0  0
   -0.6010    4.4078    2.3601 C   0  0  0  0  0  0  0  0  0  0  0  0
   -1.0521    4.8665    1.4926 H   0  0  0  0  0  0  0  0  0  0  0  0
    0.5731    4.9247    2.8843 C   0  0  0  0  0  0  0  0  0  0  0  0
    1.0405    5.7822    2.4245 H   0  0  0  0  0  0  0  0  0  0  0  0
    1.1471    4.3373    3.9971 C   0  0  0  0  0  0  0  0  0  0  0  0
    2.0693    4.7185    4.4200 H   0  0  0  0  0  0  0  0  0  0  0  0
    1.4507    2.0065    9.8752 C   0  0  0  0  0  0  0  0  0  0  0  0
    1.5886    0.6935    9.4303 C   0  0  0  0  0  0  0  0  0  0  0  0
    1.6332    0.4957    8.3655 H   0  0  0  0  0  0  0  0  0  0  0  0
    1.6728   -0.3428   10.3395 C   0  0  0  0  0  0  0  0  0  0  0  0
    1.7711   -1.3601    9.9899 H   0  0  0  0  0  0  0  0  0  0  0  0
    1.6450   -0.0726   11.6994 C   0  0  0  0  0  0  0  0  0  0  0  0
    1.7154   -0.8816   12.4111 H   0  0  0  0  0  0  0  0  0  0  0  0
    1.5455    1.2349   12.1458 C   0  0  0  0  0  0  0  0  0  0  0  0
    1.5441    1.4452   13.2051 H   0  0  0  0  0  0  0  0  0  0  0  0
    1.4554    2.2767   11.2394 C   0  0  0  0  0  0  0  0  0  0  0  0
    1.3927    3.2984   11.5863 H   0  0  0  0  0  0  0  0  0  0  0  0
    0.6330    4.7224    9.4351 C   0  0  0  0  0  0  0  0  0  0  0  0
    1.2241    5.9754    9.3163 C   0  0  0  0  0  0  0  0  0  0  0  0
    2.1514    6.0680    8.7643 H   0  0  0  0  0  0  0  0  0  0  0  0
    0.6364    7.0737    9.9189 C   0  0  0  0  0  0  0  0  0  0  0  0
    1.0974    8.0463    9.8362 H   0  0  0  0  0  0  0  0  0  0  0  0
   -0.5421    6.9214   10.6318 C   0  0  0  0  0  0  0  0  0  0  0  0
   -1.0017    7.7772   11.1038 H   0  0  0  0  0  0  0  0  0  0  0  0
   -1.1363    5.6726   10.7431 C   0  0  0  0  0  0  0  0  0  0  0  0
   -2.0568    5.5590   11.2969 H   0  0  0  0  0  0  0  0  0  0  0  0
   -0.5514    4.5686   10.1501 C   0  0  0  0  0  0  0  0  0  0  0  0
   -1.0060    3.5922   10.2425 H   0  0  0  0  0  0  0  0  0  0  0  0
  1  6  1  0  0  0  0
  1  4  1  0  0  0  0
  2  7  1  0  0  0  0
  2  4  1  0  0  0  0
  3  1  1  0  0  0  0
  3  2  1  0  0  0  0
  4 57  1  0  0  0  0
  4 46  1  0  0  0  0
  5  1  1  0  0  0  0
  7  8  1  0  0  0  0
  8 10  2  0  0  0  0
  8  9  1  0  0  0  0
 10 11  1  0  0  0  0
 12 13  1  0  0  0  0
 12 10  1  0  0  0  0
 14 12  2  0  0  0  0
 15 14  1  0  0  0  0
 16 14  1  0  0  0  0
 16  7  2  0  0  0  0
 17 19  1  0  0  0  0
 17 16  1  0  0  0  0
 17 20  1  0  0  0  0
 18 17  1  0  0  0  0
 20 23  1  0  0  0  0
 21 20  1  0  0  0  0
 22 20  1  0  0  0  0
 24 33  1  0  0  0  0
 24  3  1  0  0  0  0
 25 24  2  0  0  0  0
 26 25  1  0  0  0  0
 27 29  2  0  0  0  0
 27 25  1  0  0  0  0
 28 27  1  0  0  0  0
 29 31  1  0  0  0  0
 30 29  1  0  0  0  0
 31 32  1  0  0  0  0
 31 33  2  0  0  0  0
 33 34  1  0  0  0  0
 35  3  1  0  0  0  0
 36 37  1  0  0  0  0
 36 35  1  0  0  0  0
 38 36  2  0  0  0  0
 39 38  1  0  0  0  0
 40 42  2  0  0  0  0
 40 38  1  0  0  0  0
 41 40  1  0  0  0  0
 42 44  1  0  0  0  0
 43 42  1  0  0  0  0
 44 45  1  0  0  0  0
 44 35  2  0  0  0  0
 46 55  1  0  0  0  0
 47 46  2  0  0  0  0
 47 49  1  0  0  0  0
 48 47  1  0  0  0  0
 49 51  2  0  0  0  0
 50 49  1  0  0  0  0
 51 53  1  0  0  0  0
 51 52  1  0  0  0  0
 53 54  1  0  0  0  0
 55 56  1  0  0  0  0
 55 53  2  0  0  0  0
 57 66  1  0  0  0  0
 58 57  2  0  0  0  0
 58 60  1  0  0  0  0
 59 58  1  0  0  0  0
 60 62  2  0  0  0  0
 61 60  1  0  0  0  0
 62 64  1  0  0  0  0
 62 63  1  0  0  0  0
 64 65  1  0  0  0  0
 66 67  1  0  0  0  0
 66 64  2  0  0  0  0
M  END
$$$$
