CSD_code = CIVFIZ | q = 0 | S = 0 | Stoichiometry = C41H41CuINP2 | MND = 4
 OpenBabel04212202023D

 87 93  0  0  0  0  0  0  0  0999 V2000
    6.3601    5.0786    4.2447 I   0  0  0  0  0  0  0  0  0  0  0  0
    8.4769    4.2451    3.1734 Cu  0  0  0  0  0  0  0  0  0  0  0  0
    9.9757    3.0974    4.4559 P   0  0  0  0  0  4  0  0  0  0  0  0
    9.6815    5.7816    1.9646 P   0  0  0  0  0  4  0  0  0  0  0  0
    7.6997    2.8457    1.6866 N   0  0  0  0  0  4  0  0  0  0  0  0
    6.9997    2.3696    2.2554 H   0  0  0  0  0  0  0  0  0  0  0  0
    9.4789    1.3440    4.5486 C   0  0  0  0  0  0  0  0  0  0  0  0
    8.1282    1.1386    4.8267 C   0  0  0  0  0  0  0  0  0  0  0  0
    7.4847    1.9960    4.9804 H   0  0  0  0  0  0  0  0  0  0  0  0
    7.6198   -0.1424    4.9095 C   0  0  0  0  0  0  0  0  0  0  0  0
    6.5729   -0.2942    5.1276 H   0  0  0  0  0  0  0  0  0  0  0  0
    8.4556   -1.2303    4.7088 C   0  0  0  0  0  0  0  0  0  0  0  0
    8.0609   -2.2339    4.7674 H   0  0  0  0  0  0  0  0  0  0  0  0
    9.7983   -1.0307    4.4351 C   0  0  0  0  0  0  0  0  0  0  0  0
   10.4513   -1.8786    4.2852 H   0  0  0  0  0  0  0  0  0  0  0  0
   10.3148    0.2511    4.3551 C   0  0  0  0  0  0  0  0  0  0  0  0
   11.3653    0.3973    4.1436 H   0  0  0  0  0  0  0  0  0  0  0  0
    9.9810    3.4466    6.2489 C   0  0  0  0  0  0  0  0  0  0  0  0
   10.6096    2.5775    7.1383 C   0  0  0  0  0  0  0  0  0  0  0  0
   11.1170    1.6980    6.7634 H   0  0  0  0  0  0  0  0  0  0  0  0
   10.5838    2.8435    8.4930 C   0  0  0  0  0  0  0  0  0  0  0  0
   11.0746    2.1705    9.1816 H   0  0  0  0  0  0  0  0  0  0  0  0
    9.9261    3.9678    8.9701 C   0  0  0  0  0  0  0  0  0  0  0  0
    9.9056    4.1680   10.0314 H   0  0  0  0  0  0  0  0  0  0  0  0
    9.2924    4.8269    8.0898 C   0  0  0  0  0  0  0  0  0  0  0  0
    8.7696    5.6971    8.4573 H   0  0  0  0  0  0  0  0  0  0  0  0
    9.3183    4.5682    6.7303 C   0  0  0  0  0  0  0  0  0  0  0  0
    8.8151    5.2339    6.0446 H   0  0  0  0  0  0  0  0  0  0  0  0
   11.7524    3.0217    4.0594 C   0  0  0  0  0  0  0  0  0  0  0  0
   12.1158    2.4848    2.8251 C   0  0  0  0  0  0  0  0  0  0  0  0
   11.3519    2.0728    2.1791 H   0  0  0  0  0  0  0  0  0  0  0  0
   13.4384    2.4696    2.4300 C   0  0  0  0  0  0  0  0  0  0  0  0
   13.7119    2.0316    1.4813 H   0  0  0  0  0  0  0  0  0  0  0  0
   14.4108    3.0249    3.2462 C   0  0  0  0  0  0  0  0  0  0  0  0
   15.4451    3.0173    2.9360 H   0  0  0  0  0  0  0  0  0  0  0  0
   14.0524    3.5969    4.4549 C   0  0  0  0  0  0  0  0  0  0  0  0
   14.8067    4.0421    5.0874 H   0  0  0  0  0  0  0  0  0  0  0  0
   12.7309    3.5991    4.8628 C   0  0  0  0  0  0  0  0  0  0  0  0
   12.4605    4.0425    5.8117 H   0  0  0  0  0  0  0  0  0  0  0  0
    9.9919    7.0578    3.2249 C   0  0  0  0  0  0  0  0  0  0  0  0
   10.6040    6.6288    4.4011 C   0  0  0  0  0  0  0  0  0  0  0  0
   10.9083    5.5911    4.4888 H   0  0  0  0  0  0  0  0  0  0  0  0
   10.8197    7.5071    5.4440 C   0  0  0  0  0  0  0  0  0  0  0  0
   11.2905    7.1597    6.3526 H   0  0  0  0  0  0  0  0  0  0  0  0
   10.4140    8.8269    5.3256 C   0  0  0  0  0  0  0  0  0  0  0  0
   10.5709    9.5154    6.1425 H   0  0  0  0  0  0  0  0  0  0  0  0
    9.7987    9.2586    4.1627 C   0  0  0  0  0  0  0  0  0  0  0  0
    9.4766   10.2855    4.0720 H   0  0  0  0  0  0  0  0  0  0  0  0
    9.5851    8.3821    3.1133 C   0  0  0  0  0  0  0  0  0  0  0  0
    9.0958    8.7277    2.2142 H   0  0  0  0  0  0  0  0  0  0  0  0
    8.8626    6.7436    0.6509 C   0  0  0  0  0  0  0  0  0  0  0  0
    7.5201    7.0485    0.8754 C   0  0  0  0  0  0  0  0  0  0  0  0
    7.0509    6.7355    1.7979 H   0  0  0  0  0  0  0  0  0  0  0  0
    6.7977    7.7539   -0.0667 C   0  0  0  0  0  0  0  0  0  0  0  0
    5.7604    7.9895    0.1187 H   0  0  0  0  0  0  0  0  0  0  0  0
    7.4062    8.1536   -1.2463 C   0  0  0  0  0  0  0  0  0  0  0  0
    6.8433    8.7021   -1.9872 H   0  0  0  0  0  0  0  0  0  0  0  0
    8.7385    7.8516   -1.4740 C   0  0  0  0  0  0  0  0  0  0  0  0
    9.2158    8.1684   -2.3905 H   0  0  0  0  0  0  0  0  0  0  0  0
    9.4697    7.1491   -0.5321 C   0  0  0  0  0  0  0  0  0  0  0  0
   10.5112    6.9254   -0.7162 H   0  0  0  0  0  0  0  0  0  0  0  0
   11.3428    5.4875    1.2723 C   0  0  0  0  0  0  0  0  0  0  0  0
   12.5202    5.9852    1.8171 C   0  0  0  0  0  0  0  0  0  0  0  0
   12.4876    6.6386    2.6771 H   0  0  0  0  0  0  0  0  0  0  0  0
   13.7380    5.6548    1.2501 C   0  0  0  0  0  0  0  0  0  0  0  0
   14.6483    6.0518    1.6753 H   0  0  0  0  0  0  0  0  0  0  0  0
   13.7956    4.8269    0.1423 C   0  0  0  0  0  0  0  0  0  0  0  0
   14.7495    4.5770   -0.2983 H   0  0  0  0  0  0  0  0  0  0  0  0
   12.6261    4.3172   -0.3998 C   0  0  0  0  0  0  0  0  0  0  0  0
   12.6655    3.6692   -1.2640 H   0  0  0  0  0  0  0  0  0  0  0  0
   11.4101    4.6380    0.1682 C   0  0  0  0  0  0  0  0  0  0  0  0
   10.4915    4.2467   -0.2527 H   0  0  0  0  0  0  0  0  0  0  0  0
    7.0105    3.5667    0.6218 C   0  0  0  0  0  0  0  0  0  0  0  0
    7.7621    4.1375    0.0635 H   0  0  0  0  0  0  0  0  0  0  0  0
    6.3163    4.2758    1.0769 H   0  0  0  0  0  0  0  0  0  0  0  0
    6.2596    2.6321   -0.3256 C   0  0  0  0  0  0  0  0  0  0  0  0
    5.7979    3.2159   -1.1230 H   0  0  0  0  0  0  0  0  0  0  0  0
    5.4629    2.1259    0.2256 H   0  0  0  0  0  0  0  0  0  0  0  0
    7.2176    1.5954   -0.9076 C   0  0  0  0  0  0  0  0  0  0  0  0
    6.6746    0.8910   -1.5405 H   0  0  0  0  0  0  0  0  0  0  0  0
    7.9629    2.0986   -1.5296 H   0  0  0  0  0  0  0  0  0  0  0  0
    7.9212    0.8522    0.2258 C   0  0  0  0  0  0  0  0  0  0  0  0
    7.1881    0.2829    0.8039 H   0  0  0  0  0  0  0  0  0  0  0  0
    8.6535    0.1480   -0.1732 H   0  0  0  0  0  0  0  0  0  0  0  0
    8.6175    1.8535    1.1482 C   0  0  0  0  0  0  0  0  0  0  0  0
    9.0880    1.3255    1.9834 H   0  0  0  0  0  0  0  0  0  0  0  0
    9.3945    2.3878    0.5906 H   0  0  0  0  0  0  0  0  0  0  0  0
  2  1  1  0  0  0  0
  2  3  1  0  0  0  0
  3  7  1  0  0  0  0
  3 18  1  0  0  0  0
  4  2  1  0  0  0  0
  4 40  1  0  0  0  0
  5  6  1  0  0  0  0
  5  2  1  0  0  0  0
  7  8  1  0  0  0  0
  8 10  2  0  0  0  0
  8  9  1  0  0  0  0
 10 11  1  0  0  0  0
 12 13  1  0  0  0  0
 12 10  1  0  0  0  0
 14 12  2  0  0  0  0
 15 14  1  0  0  0  0
 16 14  1  0  0  0  0
 16  7  2  0  0  0  0
 17 16  1  0  0  0  0
 18 27  2  0  0  0  0
 18 19  1  0  0  0  0
 19 21  2  0  0  0  0
 20 19  1  0  0  0  0
 21 23  1  0  0  0  0
 21 22  1  0  0  0  0
 23 24  1  0  0  0  0
 25 26  1  0  0  0  0
 25 23  2  0  0  0  0
 27 25  1  0  0  0  0
 28 27  1  0  0  0  0
 29  3  1  0  0  0  0
 29 38  1  0  0  0  0
 30 29  2  0  0  0  0
 31 30  1  0  0  0  0
 32 30  1  0  0  0  0
 32 34  2  0  0  0  0
 33 32  1  0  0  0  0
 34 36  1  0  0  0  0
 35 34  1  0  0  0  0
 36 38  2  0  0  0  0
 36 37  1  0  0  0  0
 38 39  1  0  0  0  0
 40 41  1  0  0  0  0
 41 42  1  0  0  0  0
 41 43  2  0  0  0  0
 43 44  1  0  0  0  0
 45 43  1  0  0  0  0
 45 46  1  0  0  0  0
 47 45  2  0  0  0  0
 48 47  1  0  0  0  0
 49 40  2  0  0  0  0
 49 47  1  0  0  0  0
 50 49  1  0  0  0  0
 51 52  1  0  0  0  0
 51  4  1  0  0  0  0
 52 53  1  0  0  0  0
 54 55  1  0  0  0  0
 54 52  2  0  0  0  0
 56 54  1  0  0  0  0
 57 56  1  0  0  0  0
 58 56  2  0  0  0  0
 58 60  1  0  0  0  0
 59 58  1  0  0  0  0
 60 51  2  0  0  0  0
 61 60  1  0  0  0  0
 62 63  1  0  0  0  0
 62  4  1  0  0  0  0
 63 64  1  0  0  0  0
 65 66  1  0  0  0  0
 65 63  2  0  0  0  0
 67 65  1  0  0  0  0
 68 67  1  0  0  0  0
 69 67  2  0  0  0  0
 69 71  1  0  0  0  0
 70 69  1  0  0  0  0
 71 62  2  0  0  0  0
 72 71  1  0  0  0  0
 73 75  1  0  0  0  0
 73  5  1  0  0  0  0
 74 73  1  0  0  0  0
 76 78  1  0  0  0  0
 76 73  1  0  0  0  0
 77 76  1  0  0  0  0
 79 76  1  0  0  0  0
 79 82  1  0  0  0  0
 80 79  1  0  0  0  0
 81 79  1  0  0  0  0
 82 83  1  0  0  0  0
 82 85  1  0  0  0  0
 84 82  1  0  0  0  0
 85  5  1  0  0  0  0
 85 86  1  0  0  0  0
 87 85  1  0  0  0  0
M  END
$$$$
