CSD_code = CIVJOH | q = 0 | S = 0 | Stoichiometry = C26H26Cl2O2Ti | MND = 12
 OpenBabel04212202023D

 57 60  0  0  1  0  0  0  0  0999 V2000
   -1.4455    3.5632    3.3629 Ti  0  0  0  0  0  0  0  0  0  0  0  0
   -2.0758    5.1428    4.8104 Cl  0  0  0  0  0  0  0  0  0  0  0  0
   -0.2291    2.7872    5.1851 C   0  0  2  0  0  0  0  0  0  0  0  0
    0.5698    3.7704    4.5468 C   0  0  0  0  0  0  0  0  0  0  0  0
    0.9136    4.6898    5.0024 H   0  0  0  0  0  0  0  0  0  0  0  0
    0.9294    3.2884    3.2733 C   0  0  0  0  0  0  0  0  0  0  0  0
    1.5997    3.7752    2.5766 H   0  0  0  0  0  0  0  0  0  0  0  0
    0.3350    2.0227    3.1010 C   0  0  0  0  0  0  0  0  0  0  0  0
    0.5148    1.3534    2.2690 H   0  0  0  0  0  0  0  0  0  0  0  0
   -0.3485    1.6984    4.2972 C   0  0  0  0  0  0  0  0  0  0  0  0
   -0.7755    0.7354    4.5430 H   0  0  0  0  0  0  0  0  0  0  0  0
   -0.7077    2.8052    6.6115 C   0  0  0  0  0  0  0  0  0  0  0  0
   -1.7603    2.5108    6.6669 H   0  0  0  0  0  0  0  0  0  0  0  0
   -0.6013    3.8150    7.0130 H   0  0  0  0  0  0  0  0  0  0  0  0
    0.1325    1.8433    7.4132 C   0  0  0  0  0  0  0  0  0  0  0  0
    1.4560    2.1889    7.7299 C   0  0  0  0  0  0  0  0  0  0  0  0
    1.8626    3.4196    7.3103 O   0  0  0  0  0  0  0  0  0  0  0  0
    3.1792    3.8271    7.5848 C   0  0  0  0  0  0  0  0  0  0  0  0
    3.9114    3.1657    7.1103 H   0  0  0  0  0  0  0  0  0  0  0  0
    3.3729    3.8725    8.6618 H   0  0  0  0  0  0  0  0  0  0  0  0
    3.2725    4.8265    7.1619 H   0  0  0  0  0  0  0  0  0  0  0  0
    2.2492    1.2931    8.4351 C   0  0  0  0  0  0  0  0  0  0  0  0
    3.2679    1.5403    8.6894 H   0  0  0  0  0  0  0  0  0  0  0  0
    1.7389    0.0636    8.8199 C   0  0  0  0  0  0  0  0  0  0  0  0
    2.3692   -0.6224    9.3661 H   0  0  0  0  0  0  0  0  0  0  0  0
    0.4388   -0.2827    8.5099 C   0  0  0  0  0  0  0  0  0  0  0  0
    0.0419   -1.2401    8.8112 H   0  0  0  0  0  0  0  0  0  0  0  0
   -0.3538    0.6102    7.8059 C   0  0  0  0  0  0  0  0  0  0  0  0
   -1.3734    0.3456    7.5634 H   0  0  0  0  0  0  0  0  0  0  0  0
   -0.8152    5.1432    1.9151 Cl  0  0  0  0  0  0  0  0  0  0  0  0
   -2.6618    2.7869    1.5407 C   0  0  2  0  0  0  0  0  0  0  0  0
   -3.4608    3.7702    2.1790 C   0  0  0  0  0  3  0  0  0  0  0  0
   -3.8046    4.6895    1.7235 H   0  0  0  0  0  0  0  0  0  0  0  0
   -3.8203    3.2880    3.4525 C   0  0  0  0  0  0  0  0  0  0  0  0
   -4.4905    3.7749    4.1493 H   0  0  0  0  0  0  0  0  0  0  0  0
   -3.2257    2.0224    3.6248 C   0  0  0  0  0  0  0  0  0  0  0  0
   -3.4055    1.3531    4.4569 H   0  0  0  0  0  0  0  0  0  0  0  0
   -2.5421    1.6982    2.4287 C   0  0  0  0  0  3  0  0  0  0  0  0
   -2.1149    0.7352    2.1830 H   0  0  0  0  0  0  0  0  0  0  0  0
   -2.1833    2.8050    0.1143 C   0  0  0  0  0  0  0  0  0  0  0  0
   -1.1307    2.5104    0.0590 H   0  0  0  0  0  0  0  0  0  0  0  0
   -2.2896    3.8148   -0.2872 H   0  0  0  0  0  0  0  0  0  0  0  0
   -3.0234    1.8431   -0.6875 C   0  0  0  0  0  0  0  0  0  0  0  0
   -4.3468    2.1889   -1.0043 C   0  0  0  0  0  0  0  0  0  0  0  0
   -4.7534    3.4196   -0.5847 O   0  0  0  0  0  0  0  0  0  0  0  0
   -6.0699    3.8273   -0.8593 C   0  0  0  0  0  0  0  0  0  0  0  0
   -6.8022    3.1658   -0.3848 H   0  0  0  0  0  0  0  0  0  0  0  0
   -6.2636    3.8727   -1.9362 H   0  0  0  0  0  0  0  0  0  0  0  0
   -6.1632    4.8266   -0.4363 H   0  0  0  0  0  0  0  0  0  0  0  0
   -5.1401    1.2932   -1.7096 C   0  0  0  0  0  0  0  0  0  0  0  0
   -6.1587    1.5404   -1.9639 H   0  0  0  0  0  0  0  0  0  0  0  0
   -4.6297    0.0637   -2.0946 C   0  0  0  0  0  0  0  0  0  0  0  0
   -5.2602   -0.6223   -2.6406 H   0  0  0  0  0  0  0  0  0  0  0  0
   -3.3298   -0.2828   -1.7844 C   0  0  0  0  0  0  0  0  0  0  0  0
   -2.9330   -1.2403   -2.0855 H   0  0  0  0  0  0  0  0  0  0  0  0
   -2.5372    0.6100   -1.0802 C   0  0  0  0  0  0  0  0  0  0  0  0
   -1.5175    0.3453   -0.8377 H   0  0  0  0  0  0  0  0  0  0  0  0
  1  2  1  0  0  0  0
  1  3  1  0  0  0  0
  3 12  1  1  0  0  0
  4  5  1  0  0  0  0
  4  3  1  0  0  0  0
  6  4  2  0  0  0  0
  7  6  1  0  0  0  0
  8  6  1  0  0  0  0
  8 10  2  0  0  0  0
  9  8  1  0  0  0  0
 10 11  1  0  0  0  0
 10  3  1  0  0  0  0
 12 13  1  0  0  0  0
 12 14  1  0  0  0  0
 12 15  1  0  0  0  0
 15 16  2  0  0  0  0
 15 28  1  0  0  0  0
 16 22  1  0  0  0  0
 17 18  1  0  0  0  0
 17 16  1  0  0  0  0
 18 20  1  0  0  0  0
 19 18  1  0  0  0  0
 21 18  1  0  0  0  0
 22 23  1  0  0  0  0
 22 24  2  0  0  0  0
 24 25  1  0  0  0  0
 26 27  1  0  0  0  0
 26 24  1  0  0  0  0
 28 26  2  0  0  0  0
 29 28  1  0  0  0  0
 30  1  1  0  0  0  0
 31 40  1  6  0  0  0
 31 32  1  0  0  0  0
 31 38  1  0  0  0  0
 31  1  1  0  0  0  0
 32 34  1  0  0  0  0
 33 32  1  0  0  0  0
 34 36  2  0  0  0  0
 34 35  1  0  0  0  0
 36 37  1  0  0  0  0
 38 36  1  0  0  0  0
 39 38  1  0  0  0  0
 41 40  1  0  0  0  0
 42 40  1  0  0  0  0
 43 40  1  0  0  0  0
 44 43  1  0  0  0  0
 44 45  1  0  0  0  0
 46 45  1  0  0  0  0
 46 49  1  0  0  0  0
 46 47  1  0  0  0  0
 48 46  1  0  0  0  0
 50 44  2  0  0  0  0
 51 50  1  0  0  0  0
 52 54  2  0  0  0  0
 52 50  1  0  0  0  0
 53 52  1  0  0  0  0
 54 56  1  0  0  0  0
 55 54  1  0  0  0  0
 56 57  1  0  0  0  0
 56 43  2  0  0  0  0
M  END
$$$$
