CSD_code = CIVJUN | q = 0 | S = 0 | Stoichiometry = C28H30Cl2O4Ti | MND = 12
 OpenBabel04212202023D

 65 68  0  0  1  0  0  0  0  0999 V2000
   10.2202    4.4925    4.4047 Ti  0  0  0  0  0  0  0  0  0  0  0  0
    9.2071    2.9148    5.6111 Cl  0  0  0  0  0  0  0  0  0  0  0  0
   11.1952    4.8084    6.5721 C   0  0  0  0  0  0  0  0  0  0  0  0
   12.1702    4.2769    5.7013 C   0  0  0  0  0  0  0  0  0  0  0  0
   12.6957    3.3388    5.8341 H   0  0  0  0  0  0  0  0  0  0  0  0
   12.4179    5.2244    4.6764 C   0  0  2  0  0  0  0  0  0  0  0  0
   13.1856    5.1449    3.9161 H   0  0  0  0  0  0  0  0  0  0  0  0
   11.5967    6.3408    4.9159 C   0  0  0  0  0  0  0  0  0  0  0  0
   11.6472    7.2867    4.3935 H   0  0  0  0  0  0  0  0  0  0  0  0
   10.8162    6.0715    6.0645 C   0  0  0  0  0  0  0  0  0  0  0  0
   10.1741    6.7741    6.5796 H   0  0  0  0  0  0  0  0  0  0  0  0
   10.7893    4.2550    7.9078 C   0  0  0  0  0  0  0  0  0  0  0  0
   11.0023    3.1838    7.9444 H   0  0  0  0  0  0  0  0  0  0  0  0
    9.7193    4.3998    8.0725 H   0  0  0  0  0  0  0  0  0  0  0  0
   11.5748    4.9797    8.9758 C   0  0  0  0  0  0  0  0  0  0  0  0
   12.9528    4.7870    9.0578 C   0  0  0  0  0  0  0  0  0  0  0  0
   13.4171    4.1031    8.3654 H   0  0  0  0  0  0  0  0  0  0  0  0
   13.7139    5.4537    9.9987 C   0  0  0  0  0  0  0  0  0  0  0  0
   15.0616    5.3265   10.1483 O   0  0  0  0  0  0  0  0  0  0  0  0
   15.7474    4.4575    9.2830 C   0  0  0  0  0  0  0  0  0  0  0  0
   15.4029    3.4236    9.3925 H   0  0  0  0  0  0  0  0  0  0  0  0
   16.7946    4.5192    9.5748 H   0  0  0  0  0  0  0  0  0  0  0  0
   15.6445    4.7651    8.2368 H   0  0  0  0  0  0  0  0  0  0  0  0
   13.0830    6.3466   10.8951 C   0  0  0  0  0  0  0  0  0  0  0  0
   13.9072    6.9588   11.7916 O   0  0  0  0  0  0  0  0  0  0  0  0
   13.3390    7.8494   12.7171 C   0  0  0  0  0  0  0  0  0  0  0  0
   12.8639    8.7018   12.2192 H   0  0  0  0  0  0  0  0  0  0  0  0
   14.1671    8.2065   13.3273 H   0  0  0  0  0  0  0  0  0  0  0  0
   12.6054    7.3510   13.3601 H   0  0  0  0  0  0  0  0  0  0  0  0
   11.7161    6.5343   10.8058 C   0  0  0  0  0  0  0  0  0  0  0  0
   11.2120    7.2095   11.4786 H   0  0  0  0  0  0  0  0  0  0  0  0
   10.9683    5.8583    9.8491 C   0  0  0  0  0  0  0  0  0  0  0  0
    9.9021    6.0228    9.8022 H   0  0  0  0  0  0  0  0  0  0  0  0
   11.2343    2.9149    3.1993 Cl  0  0  0  0  0  0  0  0  0  0  0  0
    9.2473    4.8078    2.2365 C   0  0  0  0  0  0  0  0  0  0  0  0
    8.2724    4.2733    3.1058 C   0  0  0  0  0  0  0  0  0  0  0  0
    7.7494    3.3339    2.9717 H   0  0  0  0  0  0  0  0  0  0  0  0
    8.0209    5.2196    4.1308 C   0  0  2  0  0  0  0  0  0  0  0  0
    7.2524    5.1377    4.8901 H   0  0  0  0  0  0  0  0  0  0  0  0
    8.8398    6.3381    3.8932 C   0  0  0  0  0  0  0  0  0  0  0  0
    8.7864    7.2834    4.4165 H   0  0  0  0  0  0  0  0  0  0  0  0
    9.6222    6.0716    2.7454 C   0  0  0  0  0  0  0  0  0  0  0  0
   10.2630    6.7761    2.2314 H   0  0  0  0  0  0  0  0  0  0  0  0
    9.6562    4.2564    0.9009 C   0  0  0  0  0  0  0  0  0  0  0  0
    9.4452    3.1850    0.8629 H   0  0  0  0  0  0  0  0  0  0  0  0
   10.7263    4.4033    0.7380 H   0  0  0  0  0  0  0  0  0  0  0  0
    8.8712    4.9807   -0.1677 C   0  0  0  0  0  0  0  0  0  0  0  0
    7.4930    4.7884   -0.2496 C   0  0  0  0  0  0  0  0  0  0  0  0
    7.0285    4.1054    0.4434 H   0  0  0  0  0  0  0  0  0  0  0  0
    6.7323    5.4547   -1.1910 C   0  0  0  0  0  0  0  0  0  0  0  0
    5.3845    5.3280   -1.3405 O   0  0  0  0  0  0  0  0  0  0  0  0
    4.6984    4.4602   -0.4742 C   0  0  0  0  0  0  0  0  0  0  0  0
    5.0423    3.4260   -0.5828 H   0  0  0  0  0  0  0  0  0  0  0  0
    3.6511    4.5222   -0.7659 H   0  0  0  0  0  0  0  0  0  0  0  0
    4.8017    4.7688    0.5716 H   0  0  0  0  0  0  0  0  0  0  0  0
    7.3635    6.3465   -2.0882 C   0  0  0  0  0  0  0  0  0  0  0  0
    6.5396    6.9584   -2.9852 O   0  0  0  0  0  0  0  0  0  0  0  0
    7.1082    7.8481   -3.9114 C   0  0  0  0  0  0  0  0  0  0  0  0
    7.5836    8.7006   -3.4141 H   0  0  0  0  0  0  0  0  0  0  0  0
    6.2801    8.2052   -4.5217 H   0  0  0  0  0  0  0  0  0  0  0  0
    7.8414    7.3490   -4.5541 H   0  0  0  0  0  0  0  0  0  0  0  0
    8.7305    6.5337   -1.9991 C   0  0  0  0  0  0  0  0  0  0  0  0
    9.2349    7.2081   -2.6725 H   0  0  0  0  0  0  0  0  0  0  0  0
    9.4780    5.8583   -1.0418 C   0  0  0  0  0  0  0  0  0  0  0  0
   10.5443    6.0224   -0.9950 H   0  0  0  0  0  0  0  0  0  0  0  0
  1  6  1  0  0  0  0
  1  2  1  0  0  0  0
  3 12  1  0  0  0  0
  4  5  1  0  0  0  0
  4  3  2  0  0  0  0
  6  7  1  6  0  0  0
  6  8  1  0  0  0  0
  6  4  1  0  0  0  0
  8 10  2  0  0  0  0
  9  8  1  0  0  0  0
 10  3  1  0  0  0  0
 10 11  1  0  0  0  0
 12 13  1  0  0  0  0
 12 14  1  0  0  0  0
 12 15  1  0  0  0  0
 15 16  2  0  0  0  0
 15 32  1  0  0  0  0
 16 18  1  0  0  0  0
 17 16  1  0  0  0  0
 18 19  1  0  0  0  0
 18 24  2  0  0  0  0
 20 21  1  0  0  0  0
 20 22  1  0  0  0  0
 20 19  1  0  0  0  0
 23 20  1  0  0  0  0
 24 25  1  0  0  0  0
 25 26  1  0  0  0  0
 26 28  1  0  0  0  0
 26 29  1  0  0  0  0
 27 26  1  0  0  0  0
 30 24  1  0  0  0  0
 30 31  1  0  0  0  0
 32 30  2  0  0  0  0
 33 32  1  0  0  0  0
 34  1  1  0  0  0  0
 35 42  1  0  0  0  0
 35 36  2  0  0  0  0
 36 38  1  0  0  0  0
 37 36  1  0  0  0  0
 38  1  1  0  0  0  0
 38 39  1  1  0  0  0
 40 38  1  0  0  0  0
 40 41  1  0  0  0  0
 42 40  2  0  0  0  0
 43 42  1  0  0  0  0
 44 35  1  0  0  0  0
 45 44  1  0  0  0  0
 46 44  1  0  0  0  0
 47 44  1  0  0  0  0
 48 47  1  0  0  0  0
 48 49  1  0  0  0  0
 50 48  2  0  0  0  0
 51 50  1  0  0  0  0
 51 52  1  0  0  0  0
 52 55  1  0  0  0  0
 53 52  1  0  0  0  0
 54 52  1  0  0  0  0
 56 62  2  0  0  0  0
 56 50  1  0  0  0  0
 57 56  1  0  0  0  0
 58 59  1  0  0  0  0
 58 57  1  0  0  0  0
 60 58  1  0  0  0  0
 61 58  1  0  0  0  0
 62 64  1  0  0  0  0
 63 62  1  0  0  0  0
 64 65  1  0  0  0  0
 64 47  2  0  0  0  0
M  END
$$$$
