CSD_code = CIVPED | q = 0 | S = 0 | Stoichiometry = C15H17Cl2NTi | MND = 8
 OpenBabel04212202023D

 36 38  0  0  1  0  0  0  0  0999 V2000
    5.0610   10.1098    1.2897 Ti  0  0  0  0  0  0  0  0  0  0  0  0
    6.0082   10.8512   -0.5184 Cl  0  0  0  0  0  0  0  0  0  0  0  0
    3.2044    9.3669    0.4511 Cl  0  0  0  0  0  0  0  0  0  0  0  0
    6.0239    8.5592    1.5678 N   0  0  0  0  0  0  0  0  0  0  0  0
    5.7045   10.3720    3.4071 C   0  0  2  0  0  0  0  0  0  0  0  0
    4.2822   10.4081    3.3835 C   0  0  0  0  0  0  0  0  0  0  0  0
    3.9024   11.5612    2.6523 C   0  0  0  0  0  0  0  0  0  0  0  0
    2.8871   11.9243    2.5342 H   0  0  0  0  0  0  0  0  0  0  0  0
    5.0743   12.2300    2.2140 C   0  0  0  0  0  0  0  0  0  0  0  0
    6.1965   11.4891    2.6723 C   0  0  0  0  0  0  0  0  0  0  0  0
    3.3674    9.4335    4.0615 C   0  0  0  0  0  0  0  0  0  0  0  0
    3.8778    8.4813    4.2154 H   0  0  0  0  0  0  0  0  0  0  0  0
    2.4734    9.2656    3.4588 H   0  0  0  0  0  0  0  0  0  0  0  0
    3.0568    9.8165    5.0366 H   0  0  0  0  0  0  0  0  0  0  0  0
    5.1273   13.5417    1.4910 C   0  0  0  0  0  0  0  0  0  0  0  0
    4.1412   13.8132    1.1161 H   0  0  0  0  0  0  0  0  0  0  0  0
    5.8218   13.4955    0.6504 H   0  0  0  0  0  0  0  0  0  0  0  0
    5.4696   14.3282    2.1673 H   0  0  0  0  0  0  0  0  0  0  0  0
    7.6398   11.8495    2.4844 C   0  0  0  0  0  0  0  0  0  0  0  0
    8.2766   11.0192    2.7903 H   0  0  0  0  0  0  0  0  0  0  0  0
    7.8959   12.7237    3.0871 H   0  0  0  0  0  0  0  0  0  0  0  0
    7.8446   12.0858    1.4384 H   0  0  0  0  0  0  0  0  0  0  0  0
    6.5109    9.1977    3.7973 C   0  0  0  0  0  0  0  0  0  0  0  0
    6.6503    8.2486    2.7541 C   0  0  0  0  0  0  0  0  0  0  0  0
    7.3995    7.0936    3.0101 C   0  0  0  0  0  0  0  0  0  0  0  0
    7.5371    6.3433    2.2471 H   0  0  0  0  0  0  0  0  0  0  0  0
    7.9763    6.9037    4.2541 C   0  0  0  0  0  0  0  0  0  0  0  0
    8.5511    6.0069    4.4338 H   0  0  0  0  0  0  0  0  0  0  0  0
    7.8302    7.8378    5.2650 C   0  0  0  0  0  0  0  0  0  0  0  0
    8.2867    7.6728    6.2285 H   0  0  0  0  0  0  0  0  0  0  0  0
    7.0926    8.9909    5.0313 C   0  0  0  0  0  0  0  0  0  0  0  0
    6.9692    9.7317    5.8079 H   0  0  0  0  0  0  0  0  0  0  0  0
    6.1419    7.6087    0.4787 C   0  0  0  0  0  0  0  0  0  0  0  0
    5.5823    7.9776   -0.3894 H   0  0  0  0  0  0  0  0  0  0  0  0
    5.7301    6.6312    0.7664 H   0  0  0  0  0  0  0  0  0  0  0  0
    7.1934    7.4799    0.1852 H   0  0  0  0  0  0  0  0  0  0  0  0
  1  4  1  0  0  0  0
  1  5  1  0  0  0  0
  2  1  1  0  0  0  0
  3  1  1  0  0  0  0
  4 24  1  0  0  0  0
  5 10  1  1  0  0  0
  5 23  1  0  0  0  0
  6  5  1  0  0  0  0
  6 11  1  0  0  0  0
  7  6  2  0  0  0  0
  8  7  1  0  0  0  0
  9  7  1  0  0  0  0
  9 10  2  0  0  0  0
 11 12  1  0  0  0  0
 11 14  1  0  0  0  0
 13 11  1  0  0  0  0
 15 18  1  0  0  0  0
 15  9  1  0  0  0  0
 16 15  1  0  0  0  0
 17 15  1  0  0  0  0
 19 10  1  0  0  0  0
 19 20  1  0  0  0  0
 19 21  1  0  0  0  0
 22 19  1  0  0  0  0
 23 31  1  0  0  0  0
 24 25  1  0  0  0  0
 24 23  2  0  0  0  0
 25 27  2  0  0  0  0
 26 25  1  0  0  0  0
 27 28  1  0  0  0  0
 27 29  1  0  0  0  0
 29 30  1  0  0  0  0
 31 29  2  0  0  0  0
 31 32  1  0  0  0  0
 33 35  1  0  0  0  0
 33  4  1  0  0  0  0
 34 33  1  0  0  0  0
 36 33  1  0  0  0  0
M  END
$$$$
