CSD_code = CIVRIL | q = 1 | S = 0 | Stoichiometry = C15H11ClN3O3Ru(1+) | MND = 6
 OpenBabel04212202023D

 34 36  0  0  1  0  0  0  0  0999 V2000
   10.9208    8.2961   10.1791 Ru  0  0  0  0  0  0  0  0  0  0  0  0
   13.1301    7.6980    9.6816 Cl  0  0  0  0  0  0  0  0  0  0  0  0
   12.1238    9.3150   12.7453 O   0  0  0  0  0  1  0  0  0  0  0  0
   11.2697   11.0025    8.9557 O   0  0  0  0  0  1  0  0  0  0  0  0
   10.9651    6.1479   10.8868 O   0  0  0  0  0  0  0  0  0  0  0  0
   10.1350    7.4586    8.4732 N   0  0  0  0  0  0  0  0  0  0  0  0
    8.9384    8.4209   10.5402 N   0  0  0  0  0  0  0  0  0  0  0  0
    9.3793    9.4069   12.5405 N   0  0  0  0  0  0  0  0  0  0  0  0
   11.5360    8.9682   11.8406 C   0  0  0  0  0  2  0  0  0  0  0  0
   11.0928    9.9861    9.4288 C   0  0  0  0  0  2  0  0  0  0  0  0
   10.8403    6.9784    7.4580 C   0  0  0  0  0  3  0  0  0  0  0  0
   10.2499    6.3767    6.3562 C   0  0  0  0  0  0  0  0  0  0  0  0
    8.8684    6.2755    6.3126 C   0  0  0  0  0  0  0  0  0  0  0  0
    8.1279    6.7726    7.3732 C   0  0  0  0  0  0  0  0  0  0  0  0
    8.7876    7.3622    8.4490 C   0  0  0  0  0  0  0  0  0  0  0  0
    8.1128    7.9187    9.6264 C   0  0  0  0  0  0  0  0  0  0  0  0
    6.7155    7.9496    9.8187 C   0  0  0  0  0  0  0  0  0  0  0  0
    6.1945    8.5069   10.9567 C   0  0  0  0  0  0  0  0  0  0  0  0
    7.0643    9.0330   11.9353 C   0  0  0  0  0  0  0  0  0  0  0  0
    6.6699    9.6276   13.1533 C   0  0  0  0  0  0  0  0  0  0  0  0
    7.6326   10.0895   14.0137 C   0  0  0  0  0  0  0  0  0  0  0  0
    8.9884    9.9509   13.6629 C   0  0  0  0  0  0  0  0  0  0  0  0
    8.4573    8.9579   11.6765 C   0  0  2  0  0  3  0  0  0  0  0  0
   11.8535    5.9610   10.5057 H   0  0  0  0  0  0  0  0  0  0  0  0
   11.0179    5.9328   11.8275 H   0  0  0  0  0  0  0  0  0  0  0  0
   11.9171    7.0772    7.5359 H   0  0  0  0  0  0  0  0  0  0  0  0
   10.8647    6.0001    5.5553 H   0  0  0  0  0  0  0  0  0  0  0  0
    8.3733    5.8181    5.4705 H   0  0  0  0  0  0  0  0  0  0  0  0
    7.0530    6.7006    7.3617 H   0  0  0  0  0  0  0  0  0  0  0  0
    6.0599    7.5403    9.0686 H   0  0  0  0  0  0  0  0  0  0  0  0
    5.1280    8.5480   11.1164 H   0  0  0  0  0  0  0  0  0  0  0  0
    5.6191    9.7073   13.3877 H   0  0  0  0  0  0  0  0  0  0  0  0
    7.3685   10.5505   14.9515 H   0  0  0  0  0  0  0  0  0  0  0  0
    9.7732   10.2934   14.3237 H   0  0  0  0  0  0  0  0  0  0  0  0
  1  7  1  0  0  0  0
  1  9  1  0  0  0  0
  2  1  1  0  0  0  0
  4 10  1  0  0  0  0
  5 25  1  0  0  0  0
  6  1  1  0  0  0  0
  7 23  1  0  0  0  0
  8 22  2  0  0  0  0
  9  3  1  0  0  0  0
 10  1  1  0  0  0  0
 11 26  1  0  0  0  0
 11  6  1  0  0  0  0
 12 11  1  0  0  0  0
 13 12  2  0  0  0  0
 13 14  1  0  0  0  0
 14 15  2  0  0  0  0
 15  6  1  0  0  0  0
 15 16  1  0  0  0  0
 16 17  2  0  0  0  0
 16  7  1  0  0  0  0
 17 18  1  0  0  0  0
 18 31  1  0  0  0  0
 18 19  2  0  0  0  0
 19 20  1  0  0  0  0
 20 32  1  0  0  0  0
 20 21  2  0  0  0  0
 21 33  1  0  0  0  0
 22 21  1  0  0  0  0
 22 34  1  0  0  0  0
 23 19  1  1  0  0  0
 23  8  1  0  0  0  0
 24  5  1  0  0  0  0
 27 12  1  0  0  0  0
 28 13  1  0  0  0  0
 29 14  1  0  0  0  0
 30 17  1  0  0  0  0
M  END
$$$$
