CSD_code = CIVVOV | q = 0 | S = 0 | Stoichiometry = C18H23Cl2N5Zn | MND = 4
 OpenBabel04212202023D

 49 52  0  0  1  0  0  0  0  0999 V2000
   -6.6499    5.0160    8.3773 Zn  0  0  0  0  0  0  0  0  0  0  0  0
   -7.8401    4.2560   10.1223 Cl  0  0  0  0  0  0  0  0  0  0  0  0
   -7.1940    6.3308    6.7385 Cl  0  0  0  0  0  0  0  0  0  0  0  0
   -4.9207    5.8433    9.2480 N   0  0  2  0  0  0  0  0  0  0  0  0
   -4.2259    5.3967   10.2942 N   0  0  0  0  0  0  0  0  0  0  0  0
   -4.3661    6.9853    8.8707 C   0  0  0  0  0  3  0  0  0  0  0  0
   -4.7628    7.5288    8.0360 H   0  0  0  0  0  0  0  0  0  0  0  0
   -3.2845    7.2872    9.6965 C   0  0  0  0  0  0  0  0  0  0  0  0
   -2.6418    8.1409    9.6448 H   0  0  0  0  0  0  0  0  0  0  0  0
   -3.2285    6.2420   10.5932 C   0  0  0  0  0  0  0  0  0  0  0  0
   -2.5592    6.0560   11.4094 H   0  0  0  0  0  0  0  0  0  0  0  0
   -4.5628    4.1489   10.9632 C   0  0  0  0  0  0  0  0  0  0  0  0
   -4.0159    4.1591   11.9123 H   0  0  0  0  0  0  0  0  0  0  0  0
   -5.6439    4.1606   11.1464 H   0  0  0  0  0  0  0  0  0  0  0  0
   -5.2331    2.1803    9.5992 C   0  0  0  0  0  0  0  0  0  0  0  0
   -6.2202    2.5040    9.9495 H   0  0  0  0  0  0  0  0  0  0  0  0
   -5.0704    1.1224    9.8406 H   0  0  0  0  0  0  0  0  0  0  0  0
   -5.2372    2.2695    8.1489 N   0  0  1  0  0  0  0  0  0  0  0  0
   -5.7598    3.3185    7.5146 N   0  0  0  0  0  0  0  0  0  0  0  0
   -4.6983    1.4084    7.2731 C   0  0  0  0  0  3  0  0  0  0  0  0
   -4.2239    0.5030    7.5947 H   0  0  0  0  0  0  0  0  0  0  0  0
   -4.8913    1.9246    6.0101 C   0  0  0  0  0  0  0  0  0  0  0  0
   -4.5962    1.4958    5.0754 H   0  0  0  0  0  0  0  0  0  0  0  0
   -5.5629    3.1288    6.2192 C   0  0  0  0  0  0  0  0  0  0  0  0
   -5.9071    3.8540    5.5086 H   0  0  0  0  0  0  0  0  0  0  0  0
   -4.2198    3.0017   10.1859 N   0  0  0  0  0  0  0  0  0  0  0  0
   -2.9186    2.4274   10.3211 C   0  0  0  0  0  0  0  0  0  0  0  0
   -1.9530    2.6608    9.3381 C   0  0  0  0  0  0  0  0  0  0  0  0
   -2.2051    3.5764    8.1710 C   0  0  0  0  0  0  0  0  0  0  0  0
   -2.1201    3.0049    7.2423 H   0  0  0  0  0  0  0  0  0  0  0  0
   -3.2158    3.9798    8.2215 H   0  0  0  0  0  0  0  0  0  0  0  0
   -1.2113    4.7376    8.1292 C   0  0  0  0  0  0  0  0  0  0  0  0
   -1.4715    5.4174    7.3216 H   0  0  0  0  0  0  0  0  0  0  0  0
   -0.1972    4.3828    7.9662 H   0  0  0  0  0  0  0  0  0  0  0  0
   -1.2332    5.2917    9.0646 H   0  0  0  0  0  0  0  0  0  0  0  0
   -0.7212    2.0264    9.4479 C   0  0  0  0  0  0  0  0  0  0  0  0
    0.0229    2.1818    8.6812 H   0  0  0  0  0  0  0  0  0  0  0  0
   -0.4432    1.1919   10.5126 C   0  0  0  0  0  0  0  0  0  0  0  0
    0.5166    0.7021   10.5798 H   0  0  0  0  0  0  0  0  0  0  0  0
   -1.3980    0.9822   11.4890 C   0  0  0  0  0  0  0  0  0  0  0  0
   -1.1837    0.3253   12.3192 H   0  0  0  0  0  0  0  0  0  0  0  0
   -2.6436    1.5908   11.4086 C   0  0  0  0  0  0  0  0  0  0  0  0
   -3.6489    1.3325   12.4996 C   0  0  0  0  0  0  0  0  0  0  0  0
   -4.6303    1.7169   12.2220 H   0  0  0  0  0  0  0  0  0  0  0  0
   -3.7396    0.2534   12.6474 H   0  0  0  0  0  0  0  0  0  0  0  0
   -3.2152    1.9696   13.8218 C   0  0  0  0  0  0  0  0  0  0  0  0
   -2.2650    1.5601   14.1548 H   0  0  0  0  0  0  0  0  0  0  0  0
   -3.9612    1.7807   14.5895 H   0  0  0  0  0  0  0  0  0  0  0  0
   -3.0991    3.0462   13.7148 H   0  0  0  0  0  0  0  0  0  0  0  0
  1  4  1  0  0  0  0
  1  2  1  0  0  0  0
  3  1  1  0  0  0  0
  4  6  1  1  0  0  0
  4  5  1  0  0  0  0
  5 10  1  0  0  0  0
  5 12  1  0  0  0  0
  6  8  1  0  0  0  0
  7  6  1  0  0  0  0
  8 10  2  0  0  0  0
  9  8  1  0  0  0  0
 10 11  1  0  0  0  0
 12 14  1  0  0  0  0
 12 13  1  0  0  0  0
 15 17  1  0  0  0  0
 15 16  1  0  0  0  0
 15 26  1  0  0  0  0
 18 20  1  1  0  0  0
 18 15  1  0  0  0  0
 19 18  1  0  0  0  0
 19  1  1  0  0  0  0
 20 21  1  0  0  0  0
 22 24  2  0  0  0  0
 22 20  1  0  0  0  0
 23 22  1  0  0  0  0
 24 19  1  0  0  0  0
 25 24  1  0  0  0  0
 26 27  1  0  0  0  0
 26 12  1  0  0  0  0
 27 42  1  0  0  0  0
 28 36  1  0  0  0  0
 28 27  2  0  0  0  0
 29 31  1  0  0  0  0
 29 28  1  0  0  0  0
 30 29  1  0  0  0  0
 32 29  1  0  0  0  0
 32 35  1  0  0  0  0
 33 32  1  0  0  0  0
 34 32  1  0  0  0  0
 36 38  2  0  0  0  0
 37 36  1  0  0  0  0
 38 39  1  0  0  0  0
 38 40  1  0  0  0  0
 40 41  1  0  0  0  0
 42 40  2  0  0  0  0
 42 43  1  0  0  0  0
 43 45  1  0  0  0  0
 43 46  1  0  0  0  0
 44 43  1  0  0  0  0
 46 47  1  0  0  0  0
 46 48  1  0  0  0  0
 49 46  1  0  0  0  0
M  END
$$$$
