CSD_code = CIVVUB | q = 0 | S = 0 | Stoichiometry = C20H27Cl2N5Zn | MND = 4
 OpenBabel04212202023D

 55 58  0  0  1  0  0  0  0  0999 V2000
    9.9427    2.5078    2.5354 Zn  0  0  0  0  0  0  0  0  0  0  0  0
   10.4719    4.6022    2.7468 Cl  0  0  0  0  0  0  0  0  0  0  0  0
   11.2025    0.7415    1.9428 Cl  0  0  0  0  0  0  0  0  0  0  0  0
    7.5727   -0.1418    2.6818 N   0  0  0  0  0  0  0  0  0  0  0  0
    6.2541   -0.6472    2.9197 C   0  0  0  0  0  0  0  0  0  0  0  0
    5.9926   -2.0143    2.7608 C   0  0  0  0  0  0  0  0  0  0  0  0
    4.7053   -2.4779    2.9973 C   0  0  0  0  0  0  0  0  0  0  0  0
    4.4849   -3.5278    2.8801 H   0  0  0  0  0  0  0  0  0  0  0  0
    3.6987   -1.6138    3.3816 C   0  0  0  0  0  0  0  0  0  0  0  0
    2.7029   -1.9908    3.5614 H   0  0  0  0  0  0  0  0  0  0  0  0
    3.9676   -0.2686    3.5352 C   0  0  0  0  0  0  0  0  0  0  0  0
    3.1756    0.3994    3.8356 H   0  0  0  0  0  0  0  0  0  0  0  0
    5.2423    0.2359    3.3085 C   0  0  0  0  0  0  0  0  0  0  0  0
    7.0656   -2.9954    2.3415 C   0  0  0  0  0  0  0  0  0  0  0  0
    8.0105   -2.4645    2.1993 H   0  0  0  0  0  0  0  0  0  0  0  0
    7.2835   -4.0558    3.4246 C   0  0  0  0  0  0  0  0  0  0  0  0
    7.5185   -3.5908    4.3801 H   0  0  0  0  0  0  0  0  0  0  0  0
    8.1097   -4.7057    3.1470 H   0  0  0  0  0  0  0  0  0  0  0  0
    6.3955   -4.6684    3.5557 H   0  0  0  0  0  0  0  0  0  0  0  0
    6.7000   -3.6630    1.0126 C   0  0  0  0  0  0  0  0  0  0  0  0
    5.8042   -4.2698    1.1139 H   0  0  0  0  0  0  0  0  0  0  0  0
    7.5133   -4.3055    0.6839 H   0  0  0  0  0  0  0  0  0  0  0  0
    6.5186   -2.9170    0.2413 H   0  0  0  0  0  0  0  0  0  0  0  0
    5.4983    1.7131    3.4869 C   0  0  0  0  0  0  0  0  0  0  0  0
    6.5493    1.9162    3.2651 H   0  0  0  0  0  0  0  0  0  0  0  0
    5.2208    2.1432    4.9295 C   0  0  0  0  0  0  0  0  0  0  0  0
    4.1596    2.0769    5.1569 H   0  0  0  0  0  0  0  0  0  0  0  0
    5.5386    3.1727    5.0763 H   0  0  0  0  0  0  0  0  0  0  0  0
    5.7605    1.5130    5.6323 H   0  0  0  0  0  0  0  0  0  0  0  0
    4.6376    2.5348    2.5240 C   0  0  0  0  0  0  0  0  0  0  0  0
    4.7569    2.1837    1.5019 H   0  0  0  0  0  0  0  0  0  0  0  0
    4.9321    3.5807    2.5650 H   0  0  0  0  0  0  0  0  0  0  0  0
    3.5852    2.4649    2.7882 H   0  0  0  0  0  0  0  0  0  0  0  0
    8.5561   -0.3650    3.6991 C   0  0  0  0  0  0  0  0  0  0  0  0
    9.5509   -0.4353    3.2419 H   0  0  0  0  0  0  0  0  0  0  0  0
    8.3385   -1.2723    4.2753 H   0  0  0  0  0  0  0  0  0  0  0  0
    7.9776    0.0218    1.3175 C   0  0  0  0  0  0  0  0  0  0  0  0
    7.4605   -0.6853    0.6579 H   0  0  0  0  0  0  0  0  0  0  0  0
    9.0639   -0.1087    1.2366 H   0  0  0  0  0  0  0  0  0  0  0  0
    8.6035    0.7182    4.6656 N   0  0  2  0  0  0  0  0  0  0  0  0
    9.0617    1.9264    4.3421 N   0  0  0  0  0  0  0  0  0  0  0  0
    8.2389    0.6820    5.9556 C   0  0  0  0  0  3  0  0  0  0  0  0
    7.8480   -0.2088    6.4057 H   0  0  0  0  0  0  0  0  0  0  0  0
    8.4752    1.9302    6.4908 C   0  0  0  0  0  0  0  0  0  0  0  0
    8.3023    2.2545    7.4956 H   0  0  0  0  0  0  0  0  0  0  0  0
    8.9891    2.6760    5.4314 C   0  0  0  0  0  0  0  0  0  0  0  0
    9.3045    3.7004    5.4044 H   0  0  0  0  0  0  0  0  0  0  0  0
    7.6649    1.3447    0.8059 N   0  0  1  0  0  0  0  0  0  0  0  0
    8.3054    2.4312    1.2346 N   0  0  0  0  0  0  0  0  0  0  0  0
    6.7588    1.6691   -0.1279 C   0  0  0  0  0  3  0  0  0  0  0  0
    6.1444    0.9274   -0.5984 H   0  0  0  0  0  0  0  0  0  0  0  0
    6.8193    3.0341   -0.3110 C   0  0  0  0  0  0  0  0  0  0  0  0
    6.2378    3.6303   -0.9826 H   0  0  0  0  0  0  0  0  0  0  0  0
    7.8061    3.4647    0.5741 C   0  0  0  0  0  0  0  0  0  0  0  0
    8.1730    4.4545    0.7621 H   0  0  0  0  0  0  0  0  0  0  0  0
  1  2  1  0  0  0  0
  1 41  1  0  0  0  0
  3  1  1  0  0  0  0
  4  5  1  0  0  0  0
  4 34  1  0  0  0  0
  5 13  1  0  0  0  0
  6  5  2  0  0  0  0
  6  7  1  0  0  0  0
  7  9  2  0  0  0  0
  8  7  1  0  0  0  0
  9 11  1  0  0  0  0
  9 10  1  0  0  0  0
 11 12  1  0  0  0  0
 13 24  1  0  0  0  0
 13 11  2  0  0  0  0
 14  6  1  0  0  0  0
 14 16  1  0  0  0  0
 15 14  1  0  0  0  0
 16 19  1  0  0  0  0
 16 17  1  0  0  0  0
 18 16  1  0  0  0  0
 20 21  1  0  0  0  0
 20 14  1  0  0  0  0
 22 20  1  0  0  0  0
 23 20  1  0  0  0  0
 24 26  1  0  0  0  0
 25 24  1  0  0  0  0
 26 28  1  0  0  0  0
 26 27  1  0  0  0  0
 26 29  1  0  0  0  0
 30 32  1  0  0  0  0
 30 33  1  0  0  0  0
 30 24  1  0  0  0  0
 31 30  1  0  0  0  0
 34 36  1  0  0  0  0
 34 40  1  0  0  0  0
 35 34  1  0  0  0  0
 37  4  1  0  0  0  0
 38 37  1  0  0  0  0
 39 37  1  0  0  0  0
 40 42  1  1  0  0  0
 41 40  1  0  0  0  0
 41 46  1  0  0  0  0
 42 43  1  0  0  0  0
 42 44  1  0  0  0  0
 44 45  1  0  0  0  0
 46 44  2  0  0  0  0
 47 46  1  0  0  0  0
 48 50  1  6  0  0  0
 48 49  1  0  0  0  0
 48 37  1  0  0  0  0
 49  1  1  0  0  0  0
 51 50  1  0  0  0  0
 52 50  1  0  0  0  0
 52 54  2  0  0  0  0
 53 52  1  0  0  0  0
 54 55  1  0  0  0  0
 54 49  1  0  0  0  0
M  END
$$$$
