CSD_code = CIXGIA | q = 0 | S = 0 | Stoichiometry = C22H12BrN4O3Re | MND = 6
 OpenBabel04212202023D

 43 48  0  0  0  0  0  0  0  0999 V2000
    6.3295   -0.0684    3.4132 Br  0  0  0  0  0  0  0  0  0  0  0  0
    6.1147    3.4887    3.3214 C   0  0  0  0  0  0  0  0  0  0  0  0
    7.1425    4.4536    3.3972 C   0  0  0  0  0  0  0  0  0  0  0  0
    7.6916    4.7556    4.6465 C   0  0  0  0  0  0  0  0  0  0  0  0
    8.4826    5.4855    4.7077 H   0  0  0  0  0  0  0  0  0  0  0  0
    7.2021    4.0979    5.7521 C   0  0  0  0  0  0  0  0  0  0  0  0
    7.5962    4.2881    6.7373 H   0  0  0  0  0  0  0  0  0  0  0  0
    6.1817    3.1635    5.5944 C   0  0  0  0  0  0  0  0  0  0  0  0
    5.7882    2.6383    6.4553 H   0  0  0  0  0  0  0  0  0  0  0  0
    4.0124    1.7942    0.9476 C   0  0  0  0  0  0  0  0  0  0  0  0
    3.2378    1.0409    1.0076 H   0  0  0  0  0  0  0  0  0  0  0  0
    4.3949    2.3048   -0.2892 C   0  0  0  0  0  0  0  0  0  0  0  0
    3.9168    1.9401   -1.1838 H   0  0  0  0  0  0  0  0  0  0  0  0
    5.3809    3.2629   -0.3492 C   0  0  0  0  0  0  0  0  0  0  0  0
    5.6991    3.6730   -1.2959 H   0  0  0  0  0  0  0  0  0  0  0  0
    5.9718    3.6935    0.8452 C   0  0  0  0  0  0  0  0  0  0  0  0
    5.5291    3.1148    2.0603 C   0  0  0  0  0  0  0  0  0  0  0  0
    6.9938    4.6667    0.9534 C   0  0  0  0  0  0  0  0  0  0  0  0
    7.5607    5.0474    2.1741 C   0  0  0  0  0  0  0  0  0  0  0  0
    8.5341    6.2133    0.6745 C   0  0  0  0  0  0  0  0  0  0  0  0
    9.4070    7.1723    0.0305 C   0  0  0  0  0  0  0  0  0  0  0  0
    9.4201    7.3632   -1.3515 C   0  0  0  0  0  0  0  0  0  0  0  0
    8.7721    6.7882   -1.9976 H   0  0  0  0  0  0  0  0  0  0  0  0
   10.2699    8.2958   -1.9155 C   0  0  0  0  0  0  0  0  0  0  0  0
   10.2738    8.4367   -2.9862 H   0  0  0  0  0  0  0  0  0  0  0  0
   11.1141    9.0475   -1.1148 C   0  0  0  0  0  0  0  0  0  0  0  0
   11.7749    9.7746   -1.5619 H   0  0  0  0  0  0  0  0  0  0  0  0
   11.1080    8.8629    0.2593 C   0  0  0  0  0  0  0  0  0  0  0  0
   11.7657    9.4471    0.8851 H   0  0  0  0  0  0  0  0  0  0  0  0
   10.2627    7.9335    0.8301 C   0  0  0  0  0  0  0  0  0  0  0  0
   10.2419    7.7738    1.8960 H   0  0  0  0  0  0  0  0  0  0  0  0
    3.1085   -0.1812    3.3941 C   0  0  0  0  0  2  0  0  0  0  0  0
    2.7233    2.4455    4.4024 C   0  0  0  0  0  2  0  0  0  0  0  0
    4.2568    0.5111    5.8135 C   0  0  0  0  0  2  0  0  0  0  0  0
    5.6469    2.8613    4.4227 N   0  0  0  0  0  0  0  0  0  0  0  0
    4.5568    2.1793    2.0909 N   0  0  0  0  0  0  0  0  0  0  0  0
    7.6312    5.4219    0.0127 N   0  0  0  0  0  0  0  0  0  0  0  0
    7.4750    5.3956   -0.9805 H   0  0  0  0  0  0  0  0  0  0  0  0
    8.5019    5.9999    1.9713 N   0  0  0  0  0  0  0  0  0  0  0  0
    2.5070   -1.0596    2.9719 O   0  0  0  0  0  1  0  0  0  0  0  0
    1.8392    3.1457    4.6145 O   0  0  0  0  0  1  0  0  0  0  0  0
    4.3577    0.0487    6.8562 O   0  0  0  0  0  1  0  0  0  0  0  0
    4.2319    1.2868    4.0218 Re  0  0  0  0  0  0  0  0  0  0  0  0
  1 43  1  0  0  0  0
  2  3  1  0  0  0  0
  2 35  1  0  0  0  0
  3  4  2  0  0  0  0
  4  5  1  0  0  0  0
  4  6  1  0  0  0  0
  6  7  1  0  0  0  0
  8  6  2  0  0  0  0
  8  9  1  0  0  0  0
 10 11  1  0  0  0  0
 10 36  1  0  0  0  0
 12 10  2  0  0  0  0
 13 12  1  0  0  0  0
 14 12  1  0  0  0  0
 14 16  2  0  0  0  0
 15 14  1  0  0  0  0
 16 18  1  0  0  0  0
 16 17  1  0  0  0  0
 17 36  1  0  0  0  0
 17  2  2  0  0  0  0
 18 19  2  0  0  0  0
 19  3  1  0  0  0  0
 20 39  2  0  0  0  0
 21 20  1  0  0  0  0
 21 30  1  0  0  0  0
 22 21  2  0  0  0  0
 23 22  1  0  0  0  0
 24 22  1  0  0  0  0
 24 26  2  0  0  0  0
 25 24  1  0  0  0  0
 26 28  1  0  0  0  0
 27 26  1  0  0  0  0
 28 30  2  0  0  0  0
 28 29  1  0  0  0  0
 30 31  1  0  0  0  0
 32 43  1  0  0  0  0
 33 41  1  0  0  0  0
 34 42  1  0  0  0  0
 35  8  1  0  0  0  0
 36 43  1  0  0  0  0
 37 20  1  0  0  0  0
 37 18  1  0  0  0  0
 38 37  1  0  0  0  0
 39 19  1  0  0  0  0
 40 32  1  0  0  0  0
 43 33  1  0  0  0  0
 43 35  1  0  0  0  0
 43 34  1  0  0  0  0
M  END
$$$$
