CSD_code = CIXHIC | q = 0 | S = 0 | Stoichiometry = C24H49ClNiP2 | MND = 4
 OpenBabel04212202023D

 77 79  0  0  1  0  0  0  0  0999 V2000
    7.5710    5.7668    0.8708 Ni  0  0  2  0  0  0  0  0  0  0  0  0
    5.6670    6.4667    0.0903 P   0  0  0  0  0  4  0  0  0  0  0  0
    6.7457    5.1210    2.7500 Cl  0  0  0  0  0  0  0  0  0  0  0  0
    8.3827    6.6188   -0.7111 C   0  0  2  0  0  0  0  0  0  0  0  0
    8.6020    7.5898   -0.2193 H   0  0  0  0  0  0  0  0  0  0  0  0
    9.5546    4.9799    1.2860 P   0  0  0  0  0  4  0  0  0  0  0  0
    7.4708    6.8950   -1.9118 C   0  0  2  0  0  0  0  0  0  0  0  0
    7.3340    5.9634   -2.4687 H   0  0  0  0  0  0  0  0  0  0  0  0
    8.1403    7.9014   -2.8579 C   0  0  0  0  0  0  0  0  0  0  0  0
    7.4834    8.0992   -3.7093 H   0  0  0  0  0  0  0  0  0  0  0  0
    8.2977    8.8466   -2.3310 H   0  0  0  0  0  0  0  0  0  0  0  0
    9.4812    7.3682   -3.3498 C   0  0  0  0  0  0  0  0  0  0  0  0
    9.9621    8.1062   -3.9964 H   0  0  0  0  0  0  0  0  0  0  0  0
    9.3179    6.4634   -3.9406 H   0  0  0  0  0  0  0  0  0  0  0  0
   10.3861    7.0444   -2.1663 C   0  0  0  0  0  0  0  0  0  0  0  0
   10.6093    7.9642   -1.6188 H   0  0  0  0  0  0  0  0  0  0  0  0
   11.3328    6.6305   -2.5238 H   0  0  0  0  0  0  0  0  0  0  0  0
    9.7070    6.0414   -1.2233 C   0  0  1  0  0  0  0  0  0  0  0  0
    9.4940    5.1390   -1.8037 H   0  0  0  0  0  0  0  0  0  0  0  0
    6.1167    7.4159   -1.4350 C   0  0  0  0  0  0  0  0  0  0  0  0
    5.3515    7.3649   -2.2117 H   0  0  0  0  0  0  0  0  0  0  0  0
    6.2376    8.4617   -1.1446 H   0  0  0  0  0  0  0  0  0  0  0  0
   10.6200    5.6968   -0.0484 C   0  0  0  0  0  0  0  0  0  0  0  0
   11.0437    6.6265    0.3372 H   0  0  0  0  0  0  0  0  0  0  0  0
   11.4438    5.0414   -0.3368 H   0  0  0  0  0  0  0  0  0  0  0  0
    4.4923    5.1163   -0.5242 C   0  0  0  0  0  0  0  0  0  0  0  0
    5.2706    4.3728   -1.6139 C   0  0  0  0  0  0  0  0  0  0  0  0
    5.3377    4.9571   -2.5285 H   0  0  0  0  0  0  0  0  0  0  0  0
    4.7780    3.4306   -1.8512 H   0  0  0  0  0  0  0  0  0  0  0  0
    6.2786    4.1480   -1.2574 H   0  0  0  0  0  0  0  0  0  0  0  0
    3.1746    5.6299   -1.0945 C   0  0  0  0  0  0  0  0  0  0  0  0
    3.3333    6.4116   -1.8349 H   0  0  0  0  0  0  0  0  0  0  0  0
    2.5272    6.0122   -0.3099 H   0  0  0  0  0  0  0  0  0  0  0  0
    2.6517    4.8077   -1.5832 H   0  0  0  0  0  0  0  0  0  0  0  0
    4.2279    4.1292    0.6128 C   0  0  0  0  0  0  0  0  0  0  0  0
    5.1689    3.8004    1.0512 H   0  0  0  0  0  0  0  0  0  0  0  0
    3.7012    3.2549    0.2315 H   0  0  0  0  0  0  0  0  0  0  0  0
    3.6281    4.5692    1.4025 H   0  0  0  0  0  0  0  0  0  0  0  0
    4.7564    7.7674    1.1202 C   0  0  0  0  0  0  0  0  0  0  0  0
    5.8939    8.5826    1.7465 C   0  0  0  0  0  0  0  0  0  0  0  0
    6.4792    9.1025    0.9889 H   0  0  0  0  0  0  0  0  0  0  0  0
    6.5582    7.9185    2.3035 H   0  0  0  0  0  0  0  0  0  0  0  0
    5.4984    9.3254    2.4375 H   0  0  0  0  0  0  0  0  0  0  0  0
    3.8432    8.6963    0.3200 C   0  0  0  0  0  0  0  0  0  0  0  0
    4.3796    9.2318   -0.4589 H   0  0  0  0  0  0  0  0  0  0  0  0
    3.4209    9.4375    0.9986 H   0  0  0  0  0  0  0  0  0  0  0  0
    3.0191    8.1581   -0.1374 H   0  0  0  0  0  0  0  0  0  0  0  0
    3.9570    7.1123    2.2457 C   0  0  0  0  0  0  0  0  0  0  0  0
    3.0531    6.6408    1.8674 H   0  0  0  0  0  0  0  0  0  0  0  0
    3.6577    7.8696    2.9700 H   0  0  0  0  0  0  0  0  0  0  0  0
    4.5633    6.3701    2.7612 H   0  0  0  0  0  0  0  0  0  0  0  0
   10.4003    5.6083    2.8581 C   0  0  0  0  0  0  0  0  0  0  0  0
   11.9283    5.6067    2.8098 C   0  0  0  0  0  0  0  0  0  0  0  0
   12.3156    6.2043    1.9887 H   0  0  0  0  0  0  0  0  0  0  0  0
   12.3297    4.6021    2.7235 H   0  0  0  0  0  0  0  0  0  0  0  0
   12.3055    6.0374    3.7374 H   0  0  0  0  0  0  0  0  0  0  0  0
    9.9281    4.8260    4.0828 C   0  0  0  0  0  0  0  0  0  0  0  0
    8.8444    4.7277    4.0770 H   0  0  0  0  0  0  0  0  0  0  0  0
   10.2165    5.3575    4.9893 H   0  0  0  0  0  0  0  0  0  0  0  0
   10.3803    3.8378    4.1205 H   0  0  0  0  0  0  0  0  0  0  0  0
    9.8937    7.0501    2.9807 C   0  0  0  0  0  0  0  0  0  0  0  0
   10.2308    7.6660    2.1477 H   0  0  0  0  0  0  0  0  0  0  0  0
   10.2498    7.5048    3.9038 H   0  0  0  0  0  0  0  0  0  0  0  0
    8.8017    7.0555    2.9972 H   0  0  0  0  0  0  0  0  0  0  0  0
    9.7494    3.1077    1.0907 C   0  0  0  0  0  0  0  0  0  0  0  0
    8.7410    2.4032    1.9983 C   0  0  0  0  0  0  0  0  0  0  0  0
    8.9906    2.5153    3.0481 H   0  0  0  0  0  0  0  0  0  0  0  0
    8.7124    1.3388    1.7667 H   0  0  0  0  0  0  0  0  0  0  0  0
    7.7451    2.8158    1.8451 H   0  0  0  0  0  0  0  0  0  0  0  0
    9.3558    2.8123   -0.3597 C   0  0  0  0  0  0  0  0  0  0  0  0
   10.1278    3.1286   -1.0571 H   0  0  0  0  0  0  0  0  0  0  0  0
    8.4229    3.3277   -0.5998 H   0  0  0  0  0  0  0  0  0  0  0  0
    9.1961    1.7433   -0.4957 H   0  0  0  0  0  0  0  0  0  0  0  0
   11.1562    2.5828    1.3574 C   0  0  0  0  0  0  0  0  0  0  0  0
   11.3988    2.6238    2.4159 H   0  0  0  0  0  0  0  0  0  0  0  0
   11.9068    3.1404    0.8003 H   0  0  0  0  0  0  0  0  0  0  0  0
   11.2142    1.5401    1.0451 H   0  0  0  0  0  0  0  0  0  0  0  0
  1  6  1  0  0  0  0
  1  3  1  1  0  0  0
  2  1  1  0  0  0  0
  2 39  1  0  0  0  0
  4  5  1  1  0  0  0
  4  1  1  0  0  0  0
  6 52  1  0  0  0  0
  7  8  1  6  0  0  0
  7 20  1  0  0  0  0
  7  4  1  0  0  0  0
  9 11  1  0  0  0  0
  9  7  1  0  0  0  0
 10  9  1  0  0  0  0
 12  9  1  0  0  0  0
 12 15  1  0  0  0  0
 13 12  1  0  0  0  0
 14 12  1  0  0  0  0
 15 16  1  0  0  0  0
 15 18  1  0  0  0  0
 17 15  1  0  0  0  0
 18 19  1  6  0  0  0
 18  4  1  0  0  0  0
 18 23  1  0  0  0  0
 20 22  1  0  0  0  0
 20  2  1  0  0  0  0
 21 20  1  0  0  0  0
 23 24  1  0  0  0  0
 23  6  1  0  0  0  0
 25 23  1  0  0  0  0
 26  2  1  0  0  0  0
 26 35  1  0  0  0  0
 27 30  1  0  0  0  0
 27 26  1  0  0  0  0
 28 27  1  0  0  0  0
 29 27  1  0  0  0  0
 31 26  1  0  0  0  0
 31 33  1  0  0  0  0
 32 31  1  0  0  0  0
 34 31  1  0  0  0  0
 35 36  1  0  0  0  0
 35 38  1  0  0  0  0
 37 35  1  0  0  0  0
 39 40  1  0  0  0  0
 39 48  1  0  0  0  0
 40 42  1  0  0  0  0
 40 43  1  0  0  0  0
 41 40  1  0  0  0  0
 44 46  1  0  0  0  0
 44 39  1  0  0  0  0
 45 44  1  0  0  0  0
 47 44  1  0  0  0  0
 48 51  1  0  0  0  0
 48 50  1  0  0  0  0
 49 48  1  0  0  0  0
 52 61  1  0  0  0  0
 52 57  1  0  0  0  0
 53 52  1  0  0  0  0
 53 56  1  0  0  0  0
 54 53  1  0  0  0  0
 55 53  1  0  0  0  0
 57 60  1  0  0  0  0
 57 59  1  0  0  0  0
 58 57  1  0  0  0  0
 61 64  1  0  0  0  0
 61 63  1  0  0  0  0
 62 61  1  0  0  0  0
 65  6  1  0  0  0  0
 65 74  1  0  0  0  0
 65 66  1  0  0  0  0
 66 67  1  0  0  0  0
 68 66  1  0  0  0  0
 69 66  1  0  0  0  0
 70 65  1  0  0  0  0
 71 70  1  0  0  0  0
 72 70  1  0  0  0  0
 73 70  1  0  0  0  0
 74 75  1  0  0  0  0
 76 74  1  0  0  0  0
 77 74  1  0  0  0  0
M  END
$$$$
