CSD_code = CIXJAW | q = 0 | S = 0 | Stoichiometry = C20H30Cl2N2O4Pd | MND = 4
 OpenBabel04212202023D

 59 62  0  0  1  0  0  0  0  0999 V2000
    2.6608    2.0804    1.7516 Pd  0  0  0  0  0  0  0  0  0  0  0  0
    3.5938    0.8894    3.4882 Cl  0  0  0  0  0  0  0  0  0  0  0  0
    1.7278    3.2727    0.0184 Cl  0  0  0  0  0  0  0  0  0  0  0  0
    1.9916    0.4875    1.0227 N   0  0  0  0  0  0  0  0  0  0  0  0
    0.7240    0.0957    1.3825 O   0  0  0  0  0  0  0  0  0  0  0  0
    0.3739    0.7813    1.9899 H   0  0  0  0  0  0  0  0  0  0  0  0
    2.6727   -0.2543    0.2419 C   0  0  2  0  0  3  0  0  0  0  0  0
    4.0415    0.1390   -0.1820 C   0  0  0  0  0  0  0  0  0  0  0  0
    4.4778   -0.9827   -1.0983 C   0  0  2  0  0  0  0  0  0  0  0  0
    3.5994   -0.7442   -2.3552 C   0  0  0  0  0  0  0  0  0  0  0  0
    3.9710   -1.3443   -3.1848 H   0  0  0  0  0  0  0  0  0  0  0  0
    3.6372    0.3019   -2.6587 H   0  0  0  0  0  0  0  0  0  0  0  0
    2.1844   -1.1677   -1.9185 C   0  0  0  0  0  0  0  0  0  0  0  0
    1.4636   -0.3570   -2.0201 H   0  0  0  0  0  0  0  0  0  0  0  0
    1.8155   -2.0183   -2.4893 H   0  0  0  0  0  0  0  0  0  0  0  0
    2.3784   -1.5526   -0.4390 C   0  0  1  0  0  0  0  0  0  0  0  0
    1.5627   -2.1223   -0.0011 H   0  0  0  0  0  0  0  0  0  0  0  0
    3.7850   -2.1971   -0.4203 C   0  0  0  0  0  0  0  0  0  0  0  0
    4.2824   -2.4454    1.0039 C   0  0  0  0  0  0  0  0  0  0  0  0
    4.2638   -1.5406    1.6092 H   0  0  0  0  0  0  0  0  0  0  0  0
    5.3025   -2.8219    0.9884 H   0  0  0  0  0  0  0  0  0  0  0  0
    3.6549   -3.1890    1.4910 H   0  0  0  0  0  0  0  0  0  0  0  0
    3.8806   -3.5005   -1.2040 C   0  0  0  0  0  0  0  0  0  0  0  0
    3.6085   -3.3837   -2.2472 H   0  0  0  0  0  0  0  0  0  0  0  0
    3.2200   -4.2415   -0.7592 H   0  0  0  0  0  0  0  0  0  0  0  0
    4.8972   -3.8837   -1.1575 H   0  0  0  0  0  0  0  0  0  0  0  0
    5.9662   -1.0412   -1.3663 C   0  0  0  0  0  0  0  0  0  0  0  0
    6.2004   -1.8508   -2.0530 H   0  0  0  0  0  0  0  0  0  0  0  0
    6.5114   -1.1929   -0.4384 H   0  0  0  0  0  0  0  0  0  0  0  0
    6.2964   -0.1024   -1.8045 H   0  0  0  0  0  0  0  0  0  0  0  0
    4.6301    1.1541    0.1247 O   0  0  0  0  0  0  0  0  0  0  0  0
    3.3294    3.6734    2.4797 N   0  0  0  0  0  0  0  0  0  0  0  0
    4.5860    4.0799    2.0980 O   0  0  0  0  0  0  0  0  0  0  0  0
    4.9367    3.3945    1.4908 H   0  0  0  0  0  0  0  0  0  0  0  0
    2.6679    4.3893    3.3005 C   0  0  2  0  0  3  0  0  0  0  0  0
    1.2990    3.9964    3.7244 C   0  0  0  0  0  0  0  0  0  0  0  0
    0.8616    5.1205    4.6371 C   0  0  1  0  0  0  0  0  0  0  0  0
    0.6456    6.2902    3.6404 C   0  0  0  0  0  0  0  0  0  0  0  0
    0.0484    5.9649    2.7887 H   0  0  0  0  0  0  0  0  0  0  0  0
    0.1095    7.1007    4.1324 H   0  0  0  0  0  0  0  0  0  0  0  0
    2.0689    6.7034    3.2213 C   0  0  0  0  0  0  0  0  0  0  0  0
    2.2169    6.6288    2.1444 H   0  0  0  0  0  0  0  0  0  0  0  0
    2.3077    7.7217    3.5236 H   0  0  0  0  0  0  0  0  0  0  0  0
    2.9584    5.6932    3.9725 C   0  0  1  0  0  0  0  0  0  0  0  0
    4.0118    5.9565    4.0230 H   0  0  0  0  0  0  0  0  0  0  0  0
   -0.3333    4.8021    5.5097 C   0  0  0  0  0  0  0  0  0  0  0  0
   -0.6090    5.6647    6.1113 H   0  0  0  0  0  0  0  0  0  0  0  0
   -0.1095    3.9665    6.1677 H   0  0  0  0  0  0  0  0  0  0  0  0
   -1.1790    4.5251    4.8849 H   0  0  0  0  0  0  0  0  0  0  0  0
    2.2121    5.4885    5.3119 C   0  0  0  0  0  0  0  0  0  0  0  0
    2.8021    4.3361    6.1251 C   0  0  0  0  0  0  0  0  0  0  0  0
    2.8364    3.4088    5.5555 H   0  0  0  0  0  0  0  0  0  0  0  0
    2.2103    4.1626    7.0209 H   0  0  0  0  0  0  0  0  0  0  0  0
    3.8169    4.5807    6.4322 H   0  0  0  0  0  0  0  0  0  0  0  0
    2.1631    6.7314    6.1919 C   0  0  0  0  0  0  0  0  0  0  0  0
    1.6939    7.5756    5.6988 H   0  0  0  0  0  0  0  0  0  0  0  0
    3.1741    7.0183    6.4729 H   0  0  0  0  0  0  0  0  0  0  0  0
    1.6080    6.5164    7.1018 H   0  0  0  0  0  0  0  0  0  0  0  0
    0.6872    3.0105    3.3711 O   0  0  0  0  0  0  0  0  0  0  0  0
  1 32  1  0  0  0  0
  1  2  1  0  0  0  0
  3  1  1  0  0  0  0
  4  5  1  0  0  0  0
  4  1  1  0  0  0  0
  5  6  1  0  0  0  0
  7  4  1  6  0  0  0
  8 31  2  0  0  0  0
  8  7  1  0  0  0  0
  9 27  1  6  0  0  0
  9 18  1  0  0  0  0
  9  8  1  0  0  0  0
 10 13  1  0  0  0  0
 10  9  1  0  0  0  0
 11 10  1  0  0  0  0
 12 10  1  0  0  0  0
 13 16  1  0  0  0  0
 14 13  1  0  0  0  0
 15 13  1  0  0  0  0
 16 18  1  0  0  0  0
 16 17  1  1  0  0  0
 16  7  1  0  0  0  0
 18 19  1  0  0  0  0
 19 22  1  0  0  0  0
 19 20  1  0  0  0  0
 21 19  1  0  0  0  0
 23 26  1  0  0  0  0
 23 25  1  0  0  0  0
 23 18  1  0  0  0  0
 24 23  1  0  0  0  0
 27 29  1  0  0  0  0
 28 27  1  0  0  0  0
 30 27  1  0  0  0  0
 33 32  1  0  0  0  0
 34 33  1  0  0  0  0
 35 32  1  6  0  0  0
 35 36  1  0  0  0  0
 35 44  1  0  0  0  0
 36 37  1  0  0  0  0
 37 50  1  0  0  0  0
 37 46  1  1  0  0  0
 38 40  1  0  0  0  0
 38 37  1  0  0  0  0
 39 38  1  0  0  0  0
 41 43  1  0  0  0  0
 41 38  1  0  0  0  0
 41 44  1  0  0  0  0
 42 41  1  0  0  0  0
 44 45  1  1  0  0  0
 44 50  1  0  0  0  0
 46 47  1  0  0  0  0
 46 48  1  0  0  0  0
 49 46  1  0  0  0  0
 50 51  1  0  0  0  0
 50 55  1  0  0  0  0
 51 54  1  0  0  0  0
 51 53  1  0  0  0  0
 52 51  1  0  0  0  0
 55 57  1  0  0  0  0
 55 58  1  0  0  0  0
 56 55  1  0  0  0  0
 59 36  2  0  0  0  0
M  END
$$$$
