CSD_code = CIXZEQ | q = 0 | S = 0 | Stoichiometry = C36H40Br2N2Ni | MND = 4
 OpenBabel04212202023D

 81 86  0  0  0  0  0  0  0  0999 V2000
   23.6321    3.0306    0.9400 Ni  0  0  0  0  0  0  0  0  0  0  0  0
   24.6661    4.2228   -0.6173 Br  0  0  0  0  0  0  0  0  0  0  0  0
   22.9176    1.5339   -0.5309 Br  0  0  0  0  0  0  0  0  0  0  0  0
   24.6597    3.7769    2.4590 N   0  0  0  0  0  0  0  0  0  0  0  0
   22.2947    2.5774    2.3190 N   0  0  0  0  0  0  0  0  0  0  0  0
   24.0266    3.5751    3.5608 C   0  0  0  0  0  0  0  0  0  0  0  0
   24.3151    3.8163    4.9672 C   0  0  0  0  0  0  0  0  0  0  0  0
   25.4083    4.2295    5.6884 C   0  0  0  0  0  0  0  0  0  0  0  0
   26.3538    4.4455    5.2137 H   0  0  0  0  0  0  0  0  0  0  0  0
   25.2734    4.3605    7.0833 C   0  0  0  0  0  0  0  0  0  0  0  0
   26.1351    4.6859    7.6475 H   0  0  0  0  0  0  0  0  0  0  0  0
   24.0973    4.1030    7.7454 C   0  0  0  0  0  0  0  0  0  0  0  0
   24.0375    4.2309    8.8161 H   0  0  0  0  0  0  0  0  0  0  0  0
   22.9571    3.6623    7.0355 C   0  0  0  0  0  0  0  0  0  0  0  0
   21.6794    3.3505    7.5532 C   0  0  0  0  0  0  0  0  0  0  0  0
   21.4994    3.4481    8.6136 H   0  0  0  0  0  0  0  0  0  0  0  0
   20.6723    2.9328    6.7169 C   0  0  0  0  0  0  0  0  0  0  0  0
   19.7010    2.7090    7.1331 H   0  0  0  0  0  0  0  0  0  0  0  0
   20.8494    2.7708    5.3300 C   0  0  0  0  0  0  0  0  0  0  0  0
   20.0263    2.4380    4.7155 H   0  0  0  0  0  0  0  0  0  0  0  0
   22.0828    3.0548    4.7963 C   0  0  0  0  0  0  0  0  0  0  0  0
   22.6785    3.0090    3.4688 C   0  0  0  0  0  0  0  0  0  0  0  0
   23.1121    3.5169    5.6544 C   0  0  0  0  0  0  0  0  0  0  0  0
   25.9473    4.3292    2.4396 C   0  0  0  0  0  0  0  0  0  0  0  0
   27.0090    3.4934    2.0632 C   0  0  0  0  0  0  0  0  0  0  0  0
   28.2894    4.0205    2.0585 C   0  0  0  0  0  0  0  0  0  0  0  0
   29.1254    3.3942    1.7935 H   0  0  0  0  0  0  0  0  0  0  0  0
   28.5068    5.3480    2.3797 C   0  0  0  0  0  0  0  0  0  0  0  0
   29.5103    5.7460    2.3702 H   0  0  0  0  0  0  0  0  0  0  0  0
   27.4416    6.1733    2.6848 C   0  0  0  0  0  0  0  0  0  0  0  0
   27.6218    7.2168    2.8906 H   0  0  0  0  0  0  0  0  0  0  0  0
   26.1432    5.6867    2.7237 C   0  0  0  0  0  0  0  0  0  0  0  0
   26.7363    2.0472    1.7157 C   0  0  0  0  0  0  0  0  0  0  0  0
   25.6964    1.9681    1.3292 H   0  0  0  0  0  0  0  0  0  0  0  0
   27.6520    1.5169    0.6159 C   0  0  0  0  0  0  0  0  0  0  0  0
   28.6710    1.3899    0.9734 H   0  0  0  0  0  0  0  0  0  0  0  0
   27.6538    2.1987   -0.2312 H   0  0  0  0  0  0  0  0  0  0  0  0
   27.2911    0.5487    0.2758 H   0  0  0  0  0  0  0  0  0  0  0  0
   26.8315    1.1809    2.9749 C   0  0  0  0  0  0  0  0  0  0  0  0
   27.8384    1.2271    3.3861 H   0  0  0  0  0  0  0  0  0  0  0  0
   26.6012    0.1446    2.7369 H   0  0  0  0  0  0  0  0  0  0  0  0
   26.1355    1.5210    3.7419 H   0  0  0  0  0  0  0  0  0  0  0  0
   24.9818    6.6259    2.9564 C   0  0  0  0  0  0  0  0  0  0  0  0
   24.0564    6.0480    3.0556 H   0  0  0  0  0  0  0  0  0  0  0  0
   24.8306    7.5373    1.7342 C   0  0  0  0  0  0  0  0  0  0  0  0
   24.7100    6.9434    0.8310 H   0  0  0  0  0  0  0  0  0  0  0  0
   25.7099    8.1646    1.6129 H   0  0  0  0  0  0  0  0  0  0  0  0
   23.9598    8.1790    1.8509 H   0  0  0  0  0  0  0  0  0  0  0  0
   25.1471    7.4514    4.2332 C   0  0  0  0  0  0  0  0  0  0  0  0
   25.2682    6.8058    5.1018 H   0  0  0  0  0  0  0  0  0  0  0  0
   24.2648    8.0691    4.3874 H   0  0  0  0  0  0  0  0  0  0  0  0
   26.0107    8.1074    4.1666 H   0  0  0  0  0  0  0  0  0  0  0  0
   21.0145    2.0354    2.1317 C   0  0  0  0  0  0  0  0  0  0  0  0
   20.0817    2.8035    1.4200 C   0  0  0  0  0  0  0  0  0  0  0  0
   18.8046    2.2948    1.2539 C   0  0  0  0  0  0  0  0  0  0  0  0
   18.0618    2.8730    0.7291 H   0  0  0  0  0  0  0  0  0  0  0  0
   18.4738    1.0449    1.7453 C   0  0  0  0  0  0  0  0  0  0  0  0
   17.4745    0.6605    1.6068 H   0  0  0  0  0  0  0  0  0  0  0  0
   19.4252    0.2746    2.3855 C   0  0  0  0  0  0  0  0  0  0  0  0
   19.1653   -0.7159    2.7253 H   0  0  0  0  0  0  0  0  0  0  0  0
   20.7123    0.7491    2.5929 C   0  0  0  0  0  0  0  0  0  0  0  0
   21.7685   -0.1406    3.2071 C   0  0  0  0  0  0  0  0  0  0  0  0
   22.6926    0.4317    3.3441 H   0  0  0  0  0  0  0  0  0  0  0  0
   22.0752   -1.2903    2.2424 C   0  0  0  0  0  0  0  0  0  0  0  0
   21.1991   -1.9177    2.1012 H   0  0  0  0  0  0  0  0  0  0  0  0
   22.8814   -1.9049    2.6372 H   0  0  0  0  0  0  0  0  0  0  0  0
   22.3750   -0.9000    1.2725 H   0  0  0  0  0  0  0  0  0  0  0  0
   21.3484   -0.6767    4.5767 C   0  0  0  0  0  0  0  0  0  0  0  0
   21.1320    0.1389    5.2651 H   0  0  0  0  0  0  0  0  0  0  0  0
   22.1520   -1.2762    4.9993 H   0  0  0  0  0  0  0  0  0  0  0  0
   20.4648   -1.3040    4.4958 H   0  0  0  0  0  0  0  0  0  0  0  0
   20.4829    4.1611    0.8876 C   0  0  0  0  0  0  0  0  0  0  0  0
   21.5779    4.1500    0.6915 H   0  0  0  0  0  0  0  0  0  0  0  0
   19.8067    4.5041   -0.4369 C   0  0  0  0  0  0  0  0  0  0  0  0
   19.9151    3.6802   -1.1382 H   0  0  0  0  0  0  0  0  0  0  0  0
   20.2761    5.3853   -0.8687 H   0  0  0  0  0  0  0  0  0  0  0  0
   18.7495    4.7187   -0.2995 H   0  0  0  0  0  0  0  0  0  0  0  0
   20.2076    5.2404    1.9386 C   0  0  0  0  0  0  0  0  0  0  0  0
   19.1429    5.2828    2.1616 H   0  0  0  0  0  0  0  0  0  0  0  0
   20.5237    6.2138    1.5692 H   0  0  0  0  0  0  0  0  0  0  0  0
   20.7406    5.0351    2.8671 H   0  0  0  0  0  0  0  0  0  0  0  0
  1  5  1  0  0  0  0
  1  4  1  0  0  0  0
  2  1  1  0  0  0  0
  3  1  1  0  0  0  0
  4  6  1  0  0  0  0
  5 22  1  0  0  0  0
  6  7  1  0  0  0  0
  7 23  2  0  0  0  0
  7  8  1  0  0  0  0
  8 10  2  0  0  0  0
  9  8  1  0  0  0  0
 10 11  1  0  0  0  0
 10 12  1  0  0  0  0
 12 13  1  0  0  0  0
 14 15  1  0  0  0  0
 14 12  2  0  0  0  0
 15 16  1  0  0  0  0
 17 18  1  0  0  0  0
 17 15  2  0  0  0  0
 19 17  1  0  0  0  0
 20 19  1  0  0  0  0
 21 19  2  0  0  0  0
 21 23  1  0  0  0  0
 22  6  2  0  0  0  0
 22 21  1  0  0  0  0
 23 14  1  0  0  0  0
 24  4  1  0  0  0  0
 24 32  1  0  0  0  0
 25 24  2  0  0  0  0
 26 25  1  0  0  0  0
 26 28  2  0  0  0  0
 27 26  1  0  0  0  0
 28 30  1  0  0  0  0
 29 28  1  0  0  0  0
 30 32  2  0  0  0  0
 30 31  1  0  0  0  0
 32 43  1  0  0  0  0
 33 25  1  0  0  0  0
 33 39  1  0  0  0  0
 34 33  1  0  0  0  0
 35 36  1  0  0  0  0
 35 33  1  0  0  0  0
 37 35  1  0  0  0  0
 38 35  1  0  0  0  0
 39 40  1  0  0  0  0
 39 42  1  0  0  0  0
 41 39  1  0  0  0  0
 43 44  1  0  0  0  0
 43 49  1  0  0  0  0
 45 48  1  0  0  0  0
 45 43  1  0  0  0  0
 46 45  1  0  0  0  0
 47 45  1  0  0  0  0
 49 51  1  0  0  0  0
 49 50  1  0  0  0  0
 52 49  1  0  0  0  0
 53  5  1  0  0  0  0
 53 61  1  0  0  0  0
 54 53  2  0  0  0  0
 55 54  1  0  0  0  0
 55 57  2  0  0  0  0
 56 55  1  0  0  0  0
 57 59  1  0  0  0  0
 58 57  1  0  0  0  0
 59 61  2  0  0  0  0
 59 60  1  0  0  0  0
 61 62  1  0  0  0  0
 62 63  1  0  0  0  0
 62 68  1  0  0  0  0
 64 66  1  0  0  0  0
 64 62  1  0  0  0  0
 65 64  1  0  0  0  0
 67 64  1  0  0  0  0
 68 70  1  0  0  0  0
 68 69  1  0  0  0  0
 71 68  1  0  0  0  0
 72 54  1  0  0  0  0
 72 78  1  0  0  0  0
 73 72  1  0  0  0  0
 74 77  1  0  0  0  0
 74 72  1  0  0  0  0
 75 74  1  0  0  0  0
 76 74  1  0  0  0  0
 78 79  1  0  0  0  0
 78 81  1  0  0  0  0
 80 78  1  0  0  0  0
M  END
$$$$
