CSD_code = CIYFEX | q = 0 | S = 0 | Stoichiometry = C16H28Cl2N2O2Zn | MND = 5
 OpenBabel04212202023D

 51 52  0  0  1  0  0  0  0  0999 V2000
    7.2032    3.3568    6.3109 Zn  0  0  0  0  0  0  0  0  0  0  0  0
    6.2885    1.4183    6.9630 Cl  0  0  0  0  0  0  0  0  0  0  0  0
    8.3387    4.1736    4.6027 Cl  0  0  0  0  0  0  0  0  0  0  0  0
    7.1952    4.5471    8.0468 O   0  0  0  0  0  0  0  0  0  0  0  0
    7.8360    4.0083    8.9451 C   0  0  0  0  0  0  0  0  0  0  0  0
    8.7907    2.9300    8.8078 C   0  0  0  0  0  0  0  0  0  0  0  0
    9.2674    2.6450   10.2170 C   0  0  1  0  0  0  0  0  0  0  0  0
    9.7193    1.6781   10.4107 H   0  0  0  0  0  0  0  0  0  0  0  0
   10.1697    3.8467   10.5648 C   0  0  0  0  0  0  0  0  0  0  0  0
   10.9190    4.0162    9.7911 H   0  0  0  0  0  0  0  0  0  0  0  0
   10.6922    3.6804   11.5061 H   0  0  0  0  0  0  0  0  0  0  0  0
    9.1693    5.0130   10.6608 C   0  0  0  0  0  0  0  0  0  0  0  0
    9.3611    5.7821    9.9129 H   0  0  0  0  0  0  0  0  0  0  0  0
    9.1861    5.4901   11.6398 H   0  0  0  0  0  0  0  0  0  0  0  0
    7.7894    4.3480   10.4187 C   0  0  1  0  0  0  0  0  0  0  0  0
    6.6008    5.1772   10.8538 C   0  0  0  0  0  0  0  0  0  0  0  0
    6.5771    6.1099   10.2945 H   0  0  0  0  0  0  0  0  0  0  0  0
    6.6628    5.4069   11.9149 H   0  0  0  0  0  0  0  0  0  0  0  0
    5.6755    4.6389   10.6631 H   0  0  0  0  0  0  0  0  0  0  0  0
    7.9812    2.9330   11.0246 C   0  0  0  0  0  0  0  0  0  0  0  0
    6.8496    1.9665   10.6765 C   0  0  0  0  0  0  0  0  0  0  0  0
    7.1000    0.9656   11.0234 H   0  0  0  0  0  0  0  0  0  0  0  0
    6.6630    1.9142    9.6060 H   0  0  0  0  0  0  0  0  0  0  0  0
    5.9286    2.2699   11.1686 H   0  0  0  0  0  0  0  0  0  0  0  0
    8.1753    2.9138   12.5377 C   0  0  0  0  0  0  0  0  0  0  0  0
    7.2308    3.1292   13.0315 H   0  0  0  0  0  0  0  0  0  0  0  0
    8.9086    3.6359   12.8796 H   0  0  0  0  0  0  0  0  0  0  0  0
    8.4997    1.9233   12.8507 H   0  0  0  0  0  0  0  0  0  0  0  0
    9.0547    2.5235    7.6105 N   0  0  0  0  0  2  0  0  0  0  0  0
    9.8648    1.5912    7.2329 N   0  0  0  0  0  0  0  0  0  0  0  0
    9.9176    1.2835    5.8261 C   0  0  0  0  0  0  0  0  0  0  0  0
    9.5717    2.1429    5.2545 H   0  0  0  0  0  0  0  0  0  0  0  0
    9.2801    0.4255    5.5964 H   0  0  0  0  0  0  0  0  0  0  0  0
   10.9447    1.0585    5.5404 H   0  0  0  0  0  0  0  0  0  0  0  0
   10.5140    0.6662    8.1349 C   0  0  0  0  0  0  0  0  0  0  0  0
   11.1774    1.1986    8.8188 H   0  0  0  0  0  0  0  0  0  0  0  0
   11.1031   -0.0368    7.5525 H   0  0  0  0  0  0  0  0  0  0  0  0
    9.7700    0.1081    8.7087 H   0  0  0  0  0  0  0  0  0  0  0  0
    5.2629    4.2853    5.7349 O   0  0  0  0  0  0  0  0  0  0  0  0
    4.1313    4.1436    6.5770 C   0  0  0  0  0  0  0  0  0  0  0  0
    4.2551    3.2361    7.1658 H   0  0  0  0  0  0  0  0  0  0  0  0
    3.2342    4.0508    5.9486 H   0  0  0  0  0  0  0  0  0  0  0  0
    4.0789    5.4285    7.4137 C   0  0  0  0  0  0  0  0  0  0  0  0
    4.5918    5.2791    8.3616 H   0  0  0  0  0  0  0  0  0  0  0  0
    3.0524    5.7301    7.6127 H   0  0  0  0  0  0  0  0  0  0  0  0
    4.8394    6.4489    6.5478 C   0  0  0  0  0  0  0  0  0  0  0  0
    4.2290    7.3092    6.2803 H   0  0  0  0  0  0  0  0  0  0  0  0
    5.7313    6.7976    7.0655 H   0  0  0  0  0  0  0  0  0  0  0  0
    5.2351    5.6373    5.3077 C   0  0  0  0  0  0  0  0  0  0  0  0
    4.4800    5.7407    4.5157 H   0  0  0  0  0  0  0  0  0  0  0  0
    6.2155    5.8905    4.9087 H   0  0  0  0  0  0  0  0  0  0  0  0
  1  2  1  0  0  0  0
  1  4  1  0  0  0  0
  3  1  1  0  0  0  0
  4  5  1  0  0  0  0
  5 15  1  0  0  0  0
  6  5  2  0  0  0  0
  6  7  1  0  0  0  0
  7  8  1  1  0  0  0
  7  9  1  0  0  0  0
  7 20  1  0  0  0  0
  9 12  1  0  0  0  0
  9 11  1  0  0  0  0
 10  9  1  0  0  0  0
 12 14  1  0  0  0  0
 13 12  1  0  0  0  0
 15 12  1  0  0  0  0
 15 16  1  1  0  0  0
 15 20  1  0  0  0  0
 16 18  1  0  0  0  0
 17 16  1  0  0  0  0
 19 16  1  0  0  0  0
 20 25  1  0  0  0  0
 21 22  1  0  0  0  0
 21 20  1  0  0  0  0
 21 24  1  0  0  0  0
 23 21  1  0  0  0  0
 25 28  1  0  0  0  0
 25 27  1  0  0  0  0
 25 26  1  0  0  0  0
 29  6  1  0  0  0  0
 30 29  1  0  0  0  0
 30 35  1  0  0  0  0
 31 30  1  0  0  0  0
 32 31  1  0  0  0  0
 33 31  1  0  0  0  0
 34 31  1  0  0  0  0
 35 38  1  0  0  0  0
 35 36  1  0  0  0  0
 37 35  1  0  0  0  0
 39 40  1  0  0  0  0
 40 41  1  0  0  0  0
 40 43  1  0  0  0  0
 42 40  1  0  0  0  0
 43 45  1  0  0  0  0
 43 44  1  0  0  0  0
 46 48  1  0  0  0  0
 46 43  1  0  0  0  0
 47 46  1  0  0  0  0
 49 39  1  0  0  0  0
 49 46  1  0  0  0  0
 50 49  1  0  0  0  0
 51 49  1  0  0  0  0
M  END
$$$$
