CSD_code = CIYFUM | q = 0 | S = 0 | Stoichiometry = C8H12Br2N4Ni | MND = 6
 OpenBabel04212202023D

 27 26  0  0  0  0  0  0  0  0999 V2000
    1.5716    3.1127    4.3039 Br  0  0  0  0  0  0  0  0  0  0  0  0
    3.4433    4.1564    5.4313 Ni  0  0  0  0  0  0  0  0  0  0  0  0
    2.1577    4.5947    7.3188 N   0  0  0  0  0  2  0  0  0  0  0  0
    3.8927    2.6296    6.0955 N   0  0  0  0  0  2  0  0  0  0  0  0
    2.3654    5.0982    8.3270 C   0  0  0  0  0  2  0  0  0  0  0  0
    2.6932    5.7364    9.5630 C   0  0  0  0  0  0  0  0  0  0  0  0
    2.5580    5.0393   10.3887 H   0  0  0  0  0  0  0  0  0  0  0  0
    2.0577    6.6079    9.7118 H   0  0  0  0  0  0  0  0  0  0  0  0
    3.7379    6.0476    9.5129 H   0  0  0  0  0  0  0  0  0  0  0  0
    4.1799    1.6111    6.5376 C   0  0  0  0  0  2  0  0  0  0  0  0
    4.5347    0.3417    7.0876 C   0  0  0  0  0  0  0  0  0  0  0  0
    4.7405    0.4507    8.1524 H   0  0  0  0  0  0  0  0  0  0  0  0
    5.4265   -0.0339    6.5860 H   0  0  0  0  0  0  0  0  0  0  0  0
    3.7128   -0.3600    6.9438 H   0  0  0  0  0  0  0  0  0  0  0  0
    5.3141    5.1998    6.5609 Br  0  0  0  0  0  0  0  0  0  0  0  0
    4.7293    3.7184    3.5438 N   0  0  0  0  0  2  0  0  0  0  0  0
    2.9937    5.6842    4.7697 N   0  0  0  0  0  2  0  0  0  0  0  0
    4.5204    3.2148    2.5358 C   0  0  0  0  0  2  0  0  0  0  0  0
    4.1912    2.5757    1.3006 C   0  0  0  0  0  0  0  0  0  0  0  0
    4.3209    3.2739    0.4751 H   0  0  0  0  0  0  0  0  0  0  0  0
    4.8301    1.7069    1.1492 H   0  0  0  0  0  0  0  0  0  0  0  0
    3.1479    2.2604    1.3540 H   0  0  0  0  0  0  0  0  0  0  0  0
    2.7082    6.7027    4.3264 C   0  0  0  0  0  2  0  0  0  0  0  0
    2.3518    7.9721    3.7773 C   0  0  0  0  0  0  0  0  0  0  0  0
    2.1461    7.8632    2.7124 H   0  0  0  0  0  0  0  0  0  0  0  0
    1.4594    8.3456    4.2793 H   0  0  0  0  0  0  0  0  0  0  0  0
    3.1724    8.6753    3.9214 H   0  0  0  0  0  0  0  0  0  0  0  0
  1  2  1  0  0  0  0
  2  4  1  0  0  0  0
  2 15  1  0  0  0  0
  2  3  1  0  0  0  0
  3  5  1  0  0  0  0
  4 10  1  0  0  0  0
  5  6  1  0  0  0  0
  6  8  1  0  0  0  0
  6  7  1  0  0  0  0
  9  6  1  0  0  0  0
 10 11  1  0  0  0  0
 11 12  1  0  0  0  0
 13 11  1  0  0  0  0
 14 11  1  0  0  0  0
 16  2  1  0  0  0  0
 17  2  1  0  0  0  0
 18 16  1  0  0  0  0
 19 22  1  0  0  0  0
 19 18  1  0  0  0  0
 20 19  1  0  0  0  0
 21 19  1  0  0  0  0
 23 17  1  0  0  0  0
 24 27  1  0  0  0  0
 24 26  1  0  0  0  0
 24 23  1  0  0  0  0
 25 24  1  0  0  0  0
M  END
$$$$
