CSD_code = CIYHUQ | q = 0 | S = 0 | Stoichiometry = C29H20Cl2F7NO2PTc | MND = 6
 OpenBabel04212202023D

 63 67  0  0  1  0  0  0  0  0999 V2000
    6.7836   13.0284    7.9396 Tc  0  0  0  0  0  0  0  0  0  0  0  0
    6.2992   14.1241    9.1860 N   0  0  0  0  0  2  0  0  0  0  0  0
    4.8873   17.4712   13.2215 F   0  0  0  0  0  0  0  0  0  0  0  0
    5.9495   14.9396   10.1771 C   0  0  0  0  0  0  0  0  0  0  0  0
    5.9186   16.3335    9.9643 C   0  0  0  0  0  0  0  0  0  0  0  0
    6.1786   16.7066    8.9861 H   0  0  0  0  0  0  0  0  0  0  0  0
    5.5662   17.1814   10.9892 C   0  0  0  0  0  0  0  0  0  0  0  0
    5.5404   18.2504   10.8482 H   0  0  0  0  0  0  0  0  0  0  0  0
    5.2388   16.6436   12.2267 C   0  0  0  0  0  0  0  0  0  0  0  0
    5.2588   15.2760   12.4658 C   0  0  0  0  0  0  0  0  0  0  0  0
    5.0012   14.9024   13.4442 H   0  0  0  0  0  0  0  0  0  0  0  0
    5.6128   14.4230   11.4455 C   0  0  0  0  0  0  0  0  0  0  0  0
    5.6467   13.3543   11.5881 H   0  0  0  0  0  0  0  0  0  0  0  0
    4.4857   12.2565    7.6245 P   0  0  0  0  0  4  0  0  0  0  0  0
    3.5798   11.5272    9.0234 C   0  0  0  0  0  0  0  0  0  0  0  0
    2.1920   11.4201    8.9466 C   0  0  0  0  0  0  0  0  0  0  0  0
    1.6743   11.7755    8.0664 H   0  0  0  0  0  0  0  0  0  0  0  0
    1.4845   10.8586    9.9925 C   0  0  0  0  0  0  0  0  0  0  0  0
    0.4098   10.7747    9.9298 H   0  0  0  0  0  0  0  0  0  0  0  0
    2.1529   10.4030   11.1189 C   0  0  0  0  0  0  0  0  0  0  0  0
    1.5965    9.9661   11.9346 H   0  0  0  0  0  0  0  0  0  0  0  0
    3.5319   10.5043   11.1946 C   0  0  0  0  0  0  0  0  0  0  0  0
    4.0540   10.1426   12.0675 H   0  0  0  0  0  0  0  0  0  0  0  0
    4.2495   11.0643   10.1501 C   0  0  0  0  0  0  0  0  0  0  0  0
    5.3273   11.1293   10.1950 H   0  0  0  0  0  0  0  0  0  0  0  0
    3.3570   13.6105    7.1592 C   0  0  0  0  0  0  0  0  0  0  0  0
    2.6696   13.6781    5.9547 C   0  0  0  0  0  0  0  0  0  0  0  0
    2.7819   12.8988    5.2160 H   0  0  0  0  0  0  0  0  0  0  0  0
    1.8328   14.7519    5.6986 C   0  0  0  0  0  0  0  0  0  0  0  0
    1.3062   14.8037    4.7574 H   0  0  0  0  0  0  0  0  0  0  0  0
    1.6725   15.7552    6.6379 C   0  0  0  0  0  0  0  0  0  0  0  0
    1.0256   16.5937    6.4284 H   0  0  0  0  0  0  0  0  0  0  0  0
    2.3416   15.6805    7.8501 C   0  0  0  0  0  0  0  0  0  0  0  0
    2.2126   16.4561    8.5902 H   0  0  0  0  0  0  0  0  0  0  0  0
    3.1773   14.6126    8.1105 C   0  0  0  0  0  0  0  0  0  0  0  0
    3.6983   14.5394    9.0558 H   0  0  0  0  0  0  0  0  0  0  0  0
    4.3628   11.0342    6.2988 C   0  0  0  0  0  0  0  0  0  0  0  0
    3.9661    9.7259    6.5544 C   0  0  0  0  0  0  0  0  0  0  0  0
    3.7077    9.4260    7.5597 H   0  0  0  0  0  0  0  0  0  0  0  0
    3.9139    8.8102    5.5180 C   0  0  0  0  0  0  0  0  0  0  0  0
    3.6106    7.7937    5.7183 H   0  0  0  0  0  0  0  0  0  0  0  0
    4.2616    9.1900    4.2327 C   0  0  0  0  0  0  0  0  0  0  0  0
    4.2256    8.4703    3.4288 H   0  0  0  0  0  0  0  0  0  0  0  0
    4.6755   10.4888    3.9788 C   0  0  0  0  0  0  0  0  0  0  0  0
    4.9696   10.7791    2.9813 H   0  0  0  0  0  0  0  0  0  0  0  0
    4.7348   11.4102    5.0072 C   0  0  0  0  0  0  0  0  0  0  0  0
    5.0870   12.4169    4.8231 H   0  0  0  0  0  0  0  0  0  0  0  0
    8.7696   13.4747    7.7003 O   0  0  0  0  0  0  0  0  0  0  0  0
    7.1418   11.5749    6.5799 O   0  0  0  0  0  0  0  0  0  0  0  0
    8.1031    9.9377    5.1764 C   0  0  0  0  0  0  0  0  0  0  0  0
    8.2228   11.1669    6.0867 C   0  0  1  0  0  3  0  0  0  0  0  0
    9.4790   11.7293    6.2510 C   0  0  0  0  0  0  0  0  0  0  0  0
   10.3368   11.2999    5.7631 H   0  0  0  0  0  0  0  0  0  0  0  0
    9.6417   12.8695    7.0538 C   0  0  0  0  0  0  0  0  0  0  0  0
   11.0708   13.4334    7.1258 C   0  0  0  0  0  0  0  0  0  0  0  0
   11.1607   14.4926    7.9246 F   0  0  0  0  0  0  0  0  0  0  0  0
   11.5077   13.8083    5.9128 F   0  0  0  0  0  0  0  0  0  0  0  0
   11.9394   12.5159    7.5736 F   0  0  0  0  0  0  0  0  0  0  0  0
    7.7693   10.2921    3.9229 F   0  0  0  0  0  0  0  0  0  0  0  0
    7.1617    9.0916    5.6024 F   0  0  0  0  0  0  0  0  0  0  0  0
    9.2431    9.2441    5.0828 F   0  0  0  0  0  0  0  0  0  0  0  0
    7.6046   11.3992    9.4216 Cl  0  0  0  0  0  0  0  0  0  0  0  0
    6.3143   14.3794    6.1004 Cl  0  0  0  0  0  0  0  0  0  0  0  0
  1  2  1  0  0  0  0
  1 62  1  0  0  0  0
  2  4  1  0  0  0  0
  4 12  1  0  0  0  0
  5  4  2  0  0  0  0
  5  7  1  0  0  0  0
  6  5  1  0  0  0  0
  7  9  2  0  0  0  0
  8  7  1  0  0  0  0
  9 10  1  0  0  0  0
  9  3  1  0  0  0  0
 10 11  1  0  0  0  0
 12 13  1  0  0  0  0
 12 10  2  0  0  0  0
 14  1  1  0  0  0  0
 14 15  1  0  0  0  0
 15 24  1  0  0  0  0
 16 15  2  0  0  0  0
 16 18  1  0  0  0  0
 17 16  1  0  0  0  0
 18 20  2  0  0  0  0
 19 18  1  0  0  0  0
 20 22  1  0  0  0  0
 20 21  1  0  0  0  0
 22 23  1  0  0  0  0
 24 25  1  0  0  0  0
 24 22  2  0  0  0  0
 26 14  1  0  0  0  0
 26 35  1  0  0  0  0
 27 26  2  0  0  0  0
 28 27  1  0  0  0  0
 29 27  1  0  0  0  0
 29 31  2  0  0  0  0
 30 29  1  0  0  0  0
 31 33  1  0  0  0  0
 32 31  1  0  0  0  0
 33 35  2  0  0  0  0
 33 34  1  0  0  0  0
 35 36  1  0  0  0  0
 37 38  1  0  0  0  0
 37 14  1  0  0  0  0
 38 39  1  0  0  0  0
 40 41  1  0  0  0  0
 40 38  2  0  0  0  0
 42 40  1  0  0  0  0
 43 42  1  0  0  0  0
 44 42  2  0  0  0  0
 44 46  1  0  0  0  0
 45 44  1  0  0  0  0
 46 37  2  0  0  0  0
 47 46  1  0  0  0  0
 48  1  1  0  0  0  0
 49  1  1  0  0  0  0
 50 60  1  0  0  0  0
 51 50  1  6  0  0  0
 51 52  1  0  0  0  0
 51 49  1  0  0  0  0
 52 54  2  0  0  0  0
 53 52  1  0  0  0  0
 54 55  1  0  0  0  0
 54 48  1  0  0  0  0
 55 58  1  0  0  0  0
 55 56  1  0  0  0  0
 57 55  1  0  0  0  0
 59 50  1  0  0  0  0
 61 50  1  0  0  0  0
 63  1  1  0  0  0  0
M  END
$$$$
