CSD_code = CIYJAY | q = 0 | S = 0 | Stoichiometry = C29H21Cl2F6NO2PTc | MND = 6
 OpenBabel04212202023D

 63 67  0  0  1  0  0  0  0  0999 V2000
   14.7083    7.5423    8.9570 Tc  0  0  0  0  0  0  0  0  0  0  0  0
   13.4215    6.4033    8.7559 N   0  0  0  0  0  2  0  0  0  0  0  0
   12.3904    5.5625    8.7514 C   0  0  0  0  0  0  0  0  0  0  0  0
   11.6504    5.3537    9.9326 C   0  0  0  0  0  0  0  0  0  0  0  0
   11.9398    5.8981   10.8180 H   0  0  0  0  0  0  0  0  0  0  0  0
   10.5833    4.4834    9.9254 C   0  0  0  0  0  0  0  0  0  0  0  0
   10.0183    4.3272   10.8317 H   0  0  0  0  0  0  0  0  0  0  0  0
   10.2281    3.8135    8.7618 C   0  0  0  0  0  0  0  0  0  0  0  0
    9.3881    3.1358    8.7649 H   0  0  0  0  0  0  0  0  0  0  0  0
   10.9470    4.0191    7.5919 C   0  0  0  0  0  0  0  0  0  0  0  0
   10.6637    3.5023    6.6876 H   0  0  0  0  0  0  0  0  0  0  0  0
   12.0223    4.8802    7.5757 C   0  0  0  0  0  0  0  0  0  0  0  0
   12.5931    5.0601    6.6776 H   0  0  0  0  0  0  0  0  0  0  0  0
   15.6487    6.1150   10.6994 P   0  0  0  0  0  4  0  0  0  0  0  0
   14.5319    5.7968   12.0961 C   0  0  0  0  0  0  0  0  0  0  0  0
   14.1034    4.5121   12.4163 C   0  0  0  0  0  0  0  0  0  0  0  0
   14.4648    3.6649   11.8520 H   0  0  0  0  0  0  0  0  0  0  0  0
   13.2106    4.3231   13.4570 C   0  0  0  0  0  0  0  0  0  0  0  0
   12.8801    3.3247   13.7025 H   0  0  0  0  0  0  0  0  0  0  0  0
   12.7389    5.4078   14.1779 C   0  0  0  0  0  0  0  0  0  0  0  0
   12.0396    5.2552   14.9864 H   0  0  0  0  0  0  0  0  0  0  0  0
   13.1572    6.6896   13.8558 C   0  0  0  0  0  0  0  0  0  0  0  0
   12.7825    7.5374   14.4086 H   0  0  0  0  0  0  0  0  0  0  0  0
   14.0473    6.8883   12.8163 C   0  0  0  0  0  0  0  0  0  0  0  0
   14.3450    7.8885   12.5376 H   0  0  0  0  0  0  0  0  0  0  0  0
   17.1788    6.7901   11.3917 C   0  0  0  0  0  0  0  0  0  0  0  0
   18.2570    6.8929   10.5116 C   0  0  0  0  0  0  0  0  0  0  0  0
   18.1382    6.5698    9.4853 H   0  0  0  0  0  0  0  0  0  0  0  0
   19.4573    7.4161   10.9509 C   0  0  0  0  0  0  0  0  0  0  0  0
   20.2859    7.5096   10.2653 H   0  0  0  0  0  0  0  0  0  0  0  0
   19.5898    7.8367   12.2659 C   0  0  0  0  0  0  0  0  0  0  0  0
   20.5251    8.2559   12.6052 H   0  0  0  0  0  0  0  0  0  0  0  0
   18.5232    7.7270   13.1413 C   0  0  0  0  0  0  0  0  0  0  0  0
   18.6270    8.0563   14.1643 H   0  0  0  0  0  0  0  0  0  0  0  0
   17.3145    7.2063   12.7101 C   0  0  0  0  0  0  0  0  0  0  0  0
   16.4849    7.1235   13.3967 H   0  0  0  0  0  0  0  0  0  0  0  0
   16.1649    4.4505   10.1729 C   0  0  0  0  0  0  0  0  0  0  0  0
   17.1574    3.7845   10.8885 C   0  0  0  0  0  0  0  0  0  0  0  0
   17.6311    4.2690   11.7308 H   0  0  0  0  0  0  0  0  0  0  0  0
   17.5388    2.5079   10.5183 C   0  0  0  0  0  0  0  0  0  0  0  0
   18.3133    1.9983   11.0718 H   0  0  0  0  0  0  0  0  0  0  0  0
   16.9327    1.8865    9.4383 C   0  0  0  0  0  0  0  0  0  0  0  0
   17.2383    0.8928    9.1470 H   0  0  0  0  0  0  0  0  0  0  0  0
   15.9389    2.5425    8.7305 C   0  0  0  0  0  0  0  0  0  0  0  0
   15.4673    2.0608    7.8874 H   0  0  0  0  0  0  0  0  0  0  0  0
   15.5530    3.8203    9.0953 C   0  0  0  0  0  0  0  0  0  0  0  0
   14.7915    4.3434    8.5360 H   0  0  0  0  0  0  0  0  0  0  0  0
   14.3787    8.9790    7.5576 O   0  0  0  0  0  0  0  0  0  0  0  0
   16.2193    8.7452    9.5792 O   0  0  0  0  0  0  0  0  0  0  0  0
   14.3618   10.9956    6.3090 C   0  0  0  0  0  0  0  0  0  0  0  0
   14.8979   10.1030    7.4399 C   0  0  0  0  0  0  0  0  0  0  0  0
   15.9309   10.6558    8.2122 C   0  0  0  0  0  0  0  0  0  0  0  0
   16.2708   11.6549    8.0014 H   0  0  0  0  0  0  0  0  0  0  0  0
   16.5059    9.9194    9.2364 C   0  0  2  0  0  3  0  0  0  0  0  0
   17.6463   10.5625   10.0354 C   0  0  0  0  0  0  0  0  0  0  0  0
   15.3272   11.2915    5.4233 F   0  0  0  0  0  0  0  0  0  0  0  0
   13.3689   10.4233    5.6341 F   0  0  0  0  0  0  0  0  0  0  0  0
   13.9078   12.1667    6.7768 F   0  0  0  0  0  0  0  0  0  0  0  0
   17.6444   11.8990    9.9749 F   0  0  0  0  0  0  0  0  0  0  0  0
   17.5938   10.2291   11.3287 F   0  0  0  0  0  0  0  0  0  0  0  0
   18.8467   10.1626    9.5808 F   0  0  0  0  0  0  0  0  0  0  0  0
   13.4283    8.9505   10.3395 Cl  0  0  0  0  0  0  0  0  0  0  0  0
   16.2829    6.6270    7.5129 Cl  0  0  0  0  0  0  0  0  0  0  0  0
  1 49  1  0  0  0  0
  1 62  1  0  0  0  0
  1 14  1  0  0  0  0
  2  1  1  0  0  0  0
  3  2  1  0  0  0  0
  3  4  1  0  0  0  0
  4  5  1  0  0  0  0
  6  4  2  0  0  0  0
  6  7  1  0  0  0  0
  8  9  1  0  0  0  0
  8  6  1  0  0  0  0
 10  8  2  0  0  0  0
 11 10  1  0  0  0  0
 12 10  1  0  0  0  0
 12  3  2  0  0  0  0
 13 12  1  0  0  0  0
 14 26  1  0  0  0  0
 14 15  1  0  0  0  0
 15 16  2  0  0  0  0
 15 24  1  0  0  0  0
 16 18  1  0  0  0  0
 17 16  1  0  0  0  0
 18 19  1  0  0  0  0
 18 20  2  0  0  0  0
 20 21  1  0  0  0  0
 22 20  1  0  0  0  0
 22 23  1  0  0  0  0
 24 22  2  0  0  0  0
 25 24  1  0  0  0  0
 26 35  1  0  0  0  0
 27 29  1  0  0  0  0
 27 26  2  0  0  0  0
 28 27  1  0  0  0  0
 29 31  2  0  0  0  0
 30 29  1  0  0  0  0
 31 32  1  0  0  0  0
 31 33  1  0  0  0  0
 33 34  1  0  0  0  0
 35 33  2  0  0  0  0
 35 36  1  0  0  0  0
 37 14  1  0  0  0  0
 37 38  1  0  0  0  0
 38 39  1  0  0  0  0
 40 38  2  0  0  0  0
 40 41  1  0  0  0  0
 42 40  1  0  0  0  0
 43 42  1  0  0  0  0
 44 46  1  0  0  0  0
 44 42  2  0  0  0  0
 45 44  1  0  0  0  0
 46 37  2  0  0  0  0
 47 46  1  0  0  0  0
 48  1  1  0  0  0  0
 50 58  1  0  0  0  0
 50 51  1  0  0  0  0
 51 48  1  0  0  0  0
 51 52  2  0  0  0  0
 52 54  1  0  0  0  0
 53 52  1  0  0  0  0
 54 49  1  0  0  0  0
 54 55  1  6  0  0  0
 55 60  1  0  0  0  0
 56 50  1  0  0  0  0
 57 50  1  0  0  0  0
 59 55  1  0  0  0  0
 61 55  1  0  0  0  0
 63  1  1  0  0  0  0
M  END
$$$$
