CSD_code = CIYJUS | q = 0 | S = 0 | Stoichiometry = C32H29Cl2F4NO2PRe | MND = 6
 OpenBabel04212202023D

 72 76  0  0  1  0  0  0  0  0999 V2000
   10.8087    3.7839   22.4592 Re  0  0  0  0  0  0  0  0  0  0  0  0
    9.6294    5.0813   22.4642 N   0  0  0  0  0  2  0  0  0  0  0  0
    5.9402    9.0178   23.1410 F   0  0  0  0  0  0  0  0  0  0  0  0
    8.7300    6.0534   22.6227 C   0  0  0  0  0  0  0  0  0  0  0  0
    8.0856    6.2144   23.8673 C   0  0  0  0  0  0  0  0  0  0  0  0
    8.3526    5.5437   24.6689 H   0  0  0  0  0  0  0  0  0  0  0  0
    7.1509    7.2094   24.0377 C   0  0  0  0  0  0  0  0  0  0  0  0
    6.6486    7.3486   24.9819 H   0  0  0  0  0  0  0  0  0  0  0  0
    6.8569    8.0496   22.9726 C   0  0  0  0  0  0  0  0  0  0  0  0
    7.4780    7.9205   21.7389 C   0  0  0  0  0  0  0  0  0  0  0  0
    7.2230    8.5981   20.9393 H   0  0  0  0  0  0  0  0  0  0  0  0
    8.4105    6.9232   21.5610 C   0  0  0  0  0  0  0  0  0  0  0  0
    8.9164    6.7898   20.6176 H   0  0  0  0  0  0  0  0  0  0  0  0
    9.1023    2.1787   23.1646 P   0  0  0  0  0  4  0  0  0  0  0  0
    7.7814    1.9020   21.9470 C   0  0  0  0  0  0  0  0  0  0  0  0
    7.1767    0.6539   21.8307 C   0  0  0  0  0  0  0  0  0  0  0  0
    7.5168   -0.1712   22.4407 H   0  0  0  0  0  0  0  0  0  0  0  0
    6.1432    0.4705   20.9292 C   0  0  0  0  0  0  0  0  0  0  0  0
    5.6806   -0.5010   20.8360 H   0  0  0  0  0  0  0  0  0  0  0  0
    5.7057    1.5262   20.1465 C   0  0  0  0  0  0  0  0  0  0  0  0
    4.9041    1.3764   19.4389 H   0  0  0  0  0  0  0  0  0  0  0  0
    6.3004    2.7722   20.2676 C   0  0  0  0  0  0  0  0  0  0  0  0
    5.9629    3.5947   19.6554 H   0  0  0  0  0  0  0  0  0  0  0  0
    7.3340    2.9623   21.1657 C   0  0  0  0  0  0  0  0  0  0  0  0
    7.8201    3.9234   21.2545 H   0  0  0  0  0  0  0  0  0  0  0  0
    8.2112    2.5930   24.6925 C   0  0  0  0  0  0  0  0  0  0  0  0
    8.9549    2.9828   25.8055 C   0  0  0  0  0  0  0  0  0  0  0  0
   10.0300    3.0636   25.7275 H   0  0  0  0  0  0  0  0  0  0  0  0
    8.3118    3.3020   26.9876 C   0  0  0  0  0  0  0  0  0  0  0  0
    8.8913    3.6055   27.8461 H   0  0  0  0  0  0  0  0  0  0  0  0
    6.9292    3.2406   27.0657 C   0  0  0  0  0  0  0  0  0  0  0  0
    6.4281    3.4939   27.9880 H   0  0  0  0  0  0  0  0  0  0  0  0
    6.1890    2.8614   25.9580 C   0  0  0  0  0  0  0  0  0  0  0  0
    5.1117    2.8188   26.0162 H   0  0  0  0  0  0  0  0  0  0  0  0
    6.8237    2.5374   24.7715 C   0  0  0  0  0  0  0  0  0  0  0  0
    6.2428    2.2445   23.9096 H   0  0  0  0  0  0  0  0  0  0  0  0
    9.8220    0.5403   23.4164 C   0  0  0  0  0  0  0  0  0  0  0  0
   10.2948   -0.1209   22.2822 C   0  0  0  0  0  0  0  0  0  0  0  0
   10.2046    0.3547   21.3138 H   0  0  0  0  0  0  0  0  0  0  0  0
   11.0135   -1.9450   23.6604 C   0  0  0  0  0  0  0  0  0  0  0  0
   11.4868   -2.9105   23.7582 H   0  0  0  0  0  0  0  0  0  0  0  0
   10.5488   -1.2861   24.7859 C   0  0  0  0  0  0  0  0  0  0  0  0
   10.6584   -1.7375   25.7604 H   0  0  0  0  0  0  0  0  0  0  0  0
   10.8871   -1.3618   22.4083 C   0  0  0  0  0  0  0  0  0  0  0  0
   11.2658   -1.8683   21.5333 H   0  0  0  0  0  0  0  0  0  0  0  0
    9.9553   -0.0404   24.6713 C   0  0  0  0  0  0  0  0  0  0  0  0
    9.6008    0.4781   25.5503 H   0  0  0  0  0  0  0  0  0  0  0  0
   12.0524    2.1665   22.7325 O   0  0  0  0  0  0  0  0  0  0  0  0
   12.5663    4.6919   21.7257 O   0  0  0  0  0  0  0  0  0  0  0  0
   13.8899    0.7500   23.0926 C   0  0  0  0  0  0  0  0  0  0  0  0
   13.3116    2.1017   22.6539 C   0  0  1  0  0  3  0  0  0  0  0  0
   14.1924    3.0585   22.2050 C   0  0  0  0  0  0  0  0  0  0  0  0
   15.2431    2.8313   22.2021 H   0  0  0  0  0  0  0  0  0  0  0  0
   13.7541    4.3325   21.7500 C   0  0  0  0  0  0  0  0  0  0  0  0
   14.8069    5.3292   21.2610 C   0  0  0  0  0  0  0  0  0  0  0  0
   15.5867    4.7173   20.0931 C   0  0  0  0  0  0  0  0  0  0  0  0
   16.1343    3.8288   20.3964 H   0  0  0  0  0  0  0  0  0  0  0  0
   14.9107    4.4463   19.2848 H   0  0  0  0  0  0  0  0  0  0  0  0
   16.3013    5.4446   19.7141 H   0  0  0  0  0  0  0  0  0  0  0  0
   15.7432    5.6475   22.4323 C   0  0  0  0  0  0  0  0  0  0  0  0
   16.3031    4.7707   22.7469 H   0  0  0  0  0  0  0  0  0  0  0  0
   16.4513    6.4170   22.1326 H   0  0  0  0  0  0  0  0  0  0  0  0
   15.1736    6.0149   23.2834 H   0  0  0  0  0  0  0  0  0  0  0  0
   14.1104    6.6104   20.7984 C   0  0  0  0  0  0  0  0  0  0  0  0
   13.4254    6.3985   19.9805 H   0  0  0  0  0  0  0  0  0  0  0  0
   13.5395    7.0489   21.6137 H   0  0  0  0  0  0  0  0  0  0  0  0
   14.8480    7.3333   20.4584 H   0  0  0  0  0  0  0  0  0  0  0  0
   13.2694    0.2635   24.1723 F   0  0  0  0  0  0  0  0  0  0  0  0
   15.1978    0.7998   23.3891 F   0  0  0  0  0  0  0  0  0  0  0  0
   13.7627   -0.1760   22.1236 F   0  0  0  0  0  0  0  0  0  0  0  0
   10.4713    2.9314   20.3046 Cl  0  0  0  0  0  0  0  0  0  0  0  0
   11.6968    4.4659   24.5500 Cl  0  0  0  0  0  0  0  0  0  0  0  0
  1  2  1  0  0  0  0
  1 48  1  0  0  0  0
  1 14  1  0  0  0  0
  1 72  1  0  0  0  0
  2  4  1  0  0  0  0
  4  5  1  0  0  0  0
  5  7  2  0  0  0  0
  5  6  1  0  0  0  0
  7  8  1  0  0  0  0
  9  3  1  0  0  0  0
  9  7  1  0  0  0  0
 10  9  2  0  0  0  0
 11 10  1  0  0  0  0
 12 10  1  0  0  0  0
 12  4  2  0  0  0  0
 13 12  1  0  0  0  0
 14 37  1  0  0  0  0
 14 26  1  0  0  0  0
 15 14  1  0  0  0  0
 16 15  1  0  0  0  0
 16 17  1  0  0  0  0
 18 16  2  0  0  0  0
 19 18  1  0  0  0  0
 20 22  2  0  0  0  0
 20 18  1  0  0  0  0
 21 20  1  0  0  0  0
 22 24  1  0  0  0  0
 23 22  1  0  0  0  0
 24 25  1  0  0  0  0
 24 15  2  0  0  0  0
 26 35  2  0  0  0  0
 26 27  1  0  0  0  0
 27 29  2  0  0  0  0
 28 27  1  0  0  0  0
 29 31  1  0  0  0  0
 29 30  1  0  0  0  0
 31 32  1  0  0  0  0
 33 34  1  0  0  0  0
 33 31  2  0  0  0  0
 35 33  1  0  0  0  0
 36 35  1  0  0  0  0
 37 46  1  0  0  0  0
 38 44  1  0  0  0  0
 38 37  2  0  0  0  0
 39 38  1  0  0  0  0
 40 41  1  0  0  0  0
 40 42  1  0  0  0  0
 42 43  1  0  0  0  0
 44 40  2  0  0  0  0
 45 44  1  0  0  0  0
 46 42  2  0  0  0  0
 46 47  1  0  0  0  0
 49 54  1  0  0  0  0
 49  1  1  0  0  0  0
 50 69  1  0  0  0  0
 50 68  1  0  0  0  0
 51 48  1  0  0  0  0
 51 50  1  6  0  0  0
 52 51  1  0  0  0  0
 53 52  1  0  0  0  0
 54 52  2  0  0  0  0
 55 54  1  0  0  0  0
 55 60  1  0  0  0  0
 56 57  1  0  0  0  0
 56 55  1  0  0  0  0
 58 56  1  0  0  0  0
 59 56  1  0  0  0  0
 60 61  1  0  0  0  0
 60 63  1  0  0  0  0
 62 60  1  0  0  0  0
 64 55  1  0  0  0  0
 64 66  1  0  0  0  0
 65 64  1  0  0  0  0
 67 64  1  0  0  0  0
 70 50  1  0  0  0  0
 71  1  1  0  0  0  0
M  END
$$$$
