CSD_code = CIYQIK | q = 0 | S = 0 | Stoichiometry = C15H12ClN3S3Ti | MND = 7
 OpenBabel04212202023D

 35 39  0  0  1  0  0  0  0  0999 V2000
    1.7775    7.8708   12.2948 Ti  0  0  0  0  0  0  0  0  0  0  0  0
   -0.2866    8.6362   12.2940 Cl  0  0  0  0  0  0  0  0  0  0  0  0
    2.7343    9.5816   10.7413 S   0  0  0  0  0  0  0  0  0  0  0  0
    3.9209    6.5184   12.2949 S   0  0  0  0  0  0  0  0  0  0  0  0
    1.5225    7.4020   10.1979 N   0  0  0  0  0  0  0  0  0  0  0  0
    1.4440    5.8591   12.2948 N   0  0  0  0  0  0  0  0  0  0  0  0
    0.9332    6.4923    9.4165 C   0  0  0  0  0  3  0  0  0  0  0  0
    0.8529    6.6239    8.0481 C   0  0  0  0  0  0  0  0  0  0  0  0
    1.4052    7.7580    7.4420 C   0  0  0  0  0  0  0  0  0  0  0  0
    2.0038    8.7072    8.2286 C   0  0  0  0  0  0  0  0  0  0  0  0
    2.0449    8.5040    9.6204 C   0  0  0  0  0  0  0  0  0  0  0  0
    0.3765    5.0613   12.2948 C   0  0  0  0  0  0  0  0  0  0  0  0
    0.4955    3.6869   12.2948 C   0  0  0  0  0  0  0  0  0  0  0  0
    1.7790    3.1257   12.2948 C   0  0  0  0  0  0  0  0  0  0  0  0
    2.8814    3.9440   12.2948 C   0  0  0  0  0  0  0  0  0  0  0  0
    2.6884    5.3378   12.2948 C   0  0  0  0  0  0  0  0  0  0  0  0
    0.5114    5.6215    9.9061 H   0  0  0  0  0  0  0  0  0  0  0  0
    0.3702    5.8612    7.4594 H   0  0  0  0  0  0  0  0  0  0  0  0
    1.3558    7.8794    6.3704 H   0  0  0  0  0  0  0  0  0  0  0  0
    2.4423    9.6058    7.8263 H   0  0  0  0  0  0  0  0  0  0  0  0
   -0.5887    5.5606   12.2948 H   0  0  0  0  0  0  0  0  0  0  0  0
   -0.3820    3.0613   12.2948 H   0  0  0  0  0  0  0  0  0  0  0  0
    1.8959    2.0524   12.2948 H   0  0  0  0  0  0  0  0  0  0  0  0
    3.8882    3.5592   12.2948 H   0  0  0  0  0  0  0  0  0  0  0  0
    2.7345    9.5815   13.8482 S   0  0  0  0  0  0  0  0  0  0  0  0
    2.0450    8.5039   14.9692 C   0  0  2  0  0  3  0  0  0  0  0  0
    1.5229    7.4018   14.3917 N   0  0  0  0  0  0  0  0  0  0  0  0
    0.9334    6.4922   15.1730 C   0  0  0  0  0  0  0  0  0  0  0  0
    0.8530    6.6239   16.5415 C   0  0  0  0  0  0  0  0  0  0  0  0
    1.4052    7.7580   17.1476 C   0  0  0  0  0  0  0  0  0  0  0  0
    2.0038    8.7072   16.3609 C   0  0  0  0  0  0  0  0  0  0  0  0
    2.4423    9.6059   16.7633 H   0  0  0  0  0  0  0  0  0  0  0  0
    1.3557    7.8795   18.2192 H   0  0  0  0  0  0  0  0  0  0  0  0
    0.3701    5.8613   17.1302 H   0  0  0  0  0  0  0  0  0  0  0  0
    0.5115    5.6215   14.6835 H   0  0  0  0  0  0  0  0  0  0  0  0
  1 25  1  0  0  0  0
  1 27  1  0  0  0  0
  2  1  1  0  0  0  0
  3  1  1  0  0  0  0
  5  1  1  0  0  0  0
  6  1  1  0  0  0  0
  7 17  1  0  0  0  0
  7  5  1  0  0  0  0
  8  7  1  0  0  0  0
  9  8  2  0  0  0  0
  9 10  1  0  0  0  0
 10 11  2  0  0  0  0
 11  5  1  0  0  0  0
 11  3  1  0  0  0  0
 12  6  1  0  0  0  0
 12 21  1  0  0  0  0
 13 22  1  0  0  0  0
 13 12  2  0  0  0  0
 14 13  1  0  0  0  0
 14 15  2  0  0  0  0
 15 24  1  0  0  0  0
 15 16  1  0  0  0  0
 16  6  1  0  0  0  0
 16  4  2  0  0  0  0
 18  8  1  0  0  0  0
 19  9  1  0  0  0  0
 20 10  1  0  0  0  0
 23 14  1  0  0  0  0
 26 25  1  6  0  0  0
 26 31  1  0  0  0  0
 27 26  1  0  0  0  0
 27 28  1  0  0  0  0
 28 29  2  0  0  0  0
 29 34  1  0  0  0  0
 29 30  1  0  0  0  0
 30 33  1  0  0  0  0
 31 32  1  0  0  0  0
 31 30  2  0  0  0  0
 35 28  1  0  0  0  0
M  END
$$$$
