CSD_code = CIYWOZ | q = 0 | S = 0 | Stoichiometry = C35H32Cl2O2P2PdS | MND = 4
 OpenBabel04212202023D

 75 81  0  0  1  0  0  0  0  0999 V2000
    7.9456   10.0165    7.0332 Pd  0  0  0  0  0  0  0  0  0  0  0  0
    8.7010    7.8753    7.2307 Cl  0  0  0  0  0  0  0  0  0  0  0  0
    8.9587   10.2326    5.0365 Cl  0  0  0  0  0  0  0  0  0  0  0  0
    6.8024    9.7360    9.1825 S   0  0  0  0  0  0  0  0  0  0  0  0
    6.9303   11.8825    6.2292 P   0  0  0  0  0  4  0  0  0  0  0  0
    7.6498   11.4899    9.4505 P   0  0  0  0  0  4  0  0  0  0  0  0
    4.8535   13.4280    7.3913 O   0  0  0  0  0  0  0  0  0  0  0  0
    4.0007   19.5559    8.4090 O   0  0  0  0  0  0  0  0  0  0  0  0
    5.7807   12.3987    7.5951 C   0  0  2  0  0  0  0  0  0  0  0  0
    5.2509   11.4700    7.9035 H   0  0  0  0  0  0  0  0  0  0  0  0
    6.6460   12.8878    8.7602 C   0  0  1  0  0  0  0  0  0  0  0  0
    7.3106   13.6754    8.3888 H   0  0  0  0  0  0  0  0  0  0  0  0
    5.5778   13.4734    9.6785 C   0  0  0  0  0  0  0  0  0  0  0  0
    5.9389   14.3100   10.2750 H   0  0  0  0  0  0  0  0  0  0  0  0
    5.1944   12.7022   10.3513 H   0  0  0  0  0  0  0  0  0  0  0  0
    4.4739   13.9240    8.6798 C   0  0  1  0  0  0  0  0  0  0  0  0
    3.5138   13.4658    8.9566 H   0  0  0  0  0  0  0  0  0  0  0  0
    4.3179   15.4205    8.6190 C   0  0  0  0  0  0  0  0  0  0  0  0
    3.1549   16.0333    9.0552 C   0  0  0  0  0  0  0  0  0  0  0  0
    2.3446   15.4307    9.4393 H   0  0  0  0  0  0  0  0  0  0  0  0
    3.0070   17.4093    9.0087 C   0  0  0  0  0  0  0  0  0  0  0  0
    2.0860   17.8477    9.3585 H   0  0  0  0  0  0  0  0  0  0  0  0
    4.0350   18.2014    8.5091 C   0  0  0  0  0  0  0  0  0  0  0  0
    5.2085   17.5868    8.0663 C   0  0  0  0  0  0  0  0  0  0  0  0
    5.9986   18.2102    7.6787 H   0  0  0  0  0  0  0  0  0  0  0  0
    5.3460   16.2186    8.1256 C   0  0  0  0  0  0  0  0  0  0  0  0
    6.2558   15.7610    7.7675 H   0  0  0  0  0  0  0  0  0  0  0  0
    2.8402   20.2351    8.8258 C   0  0  0  0  0  0  0  0  0  0  0  0
    3.0365   21.2907    8.6456 H   0  0  0  0  0  0  0  0  0  0  0  0
    2.6451   20.0807    9.8919 H   0  0  0  0  0  0  0  0  0  0  0  0
    1.9642   19.9265    8.2465 H   0  0  0  0  0  0  0  0  0  0  0  0
    5.7880   11.2036    4.9909 C   0  0  0  0  0  0  0  0  0  0  0  0
    5.3723    9.8865    5.2078 C   0  0  0  0  0  0  0  0  0  0  0  0
    5.7379    9.3202    6.0802 H   0  0  0  0  0  0  0  0  0  0  0  0
    4.5202    9.2759    4.3074 C   0  0  0  0  0  0  0  0  0  0  0  0
    4.2035    8.2567    4.4721 H   0  0  0  0  0  0  0  0  0  0  0  0
    4.0889    9.9663    3.1849 C   0  0  0  0  0  0  0  0  0  0  0  0
    3.4308    9.4846    2.4769 H   0  0  0  0  0  0  0  0  0  0  0  0
    4.5156   11.2639    2.9598 C   0  0  0  0  0  0  0  0  0  0  0  0
    4.1922   11.7935    2.0756 H   0  0  0  0  0  0  0  0  0  0  0  0
    5.3666   11.8863    3.8571 C   0  0  0  0  0  0  0  0  0  0  0  0
    5.7153   12.8908    3.6674 H   0  0  0  0  0  0  0  0  0  0  0  0
    7.5854   13.4454    5.5899 C   0  0  0  0  0  0  0  0  0  0  0  0
    6.7414   14.5316    5.3623 C   0  0  0  0  0  0  0  0  0  0  0  0
    5.6825   14.4421    5.5538 H   0  0  0  0  0  0  0  0  0  0  0  0
    7.2734   15.7271    4.9122 C   0  0  0  0  0  0  0  0  0  0  0  0
    6.6195   16.5700    4.7414 H   0  0  0  0  0  0  0  0  0  0  0  0
    8.6353   15.8440    4.6823 C   0  0  0  0  0  0  0  0  0  0  0  0
    9.0431   16.7799    4.3292 H   0  0  0  0  0  0  0  0  0  0  0  0
    9.4722   14.7613    4.9007 C   0  0  0  0  0  0  0  0  0  0  0  0
   10.5321   14.8494    4.7135 H   0  0  0  0  0  0  0  0  0  0  0  0
    8.9525   13.5625    5.3552 C   0  0  0  0  0  0  0  0  0  0  0  0
    9.5904   12.7039    5.5139 H   0  0  0  0  0  0  0  0  0  0  0  0
    7.7794   11.8709   11.2247 C   0  0  0  0  0  0  0  0  0  0  0  0
    8.3860   13.0549   11.6305 C   0  0  0  0  0  0  0  0  0  0  0  0
    8.7729   13.7427   10.8918 H   0  0  0  0  0  0  0  0  0  0  0  0
    8.4944   13.3400   12.9781 C   0  0  0  0  0  0  0  0  0  0  0  0
    8.9646   14.2582   13.2977 H   0  0  0  0  0  0  0  0  0  0  0  0
    8.0041   12.4464   13.9185 C   0  0  0  0  0  0  0  0  0  0  0  0
    8.0939   12.6718   14.9705 H   0  0  0  0  0  0  0  0  0  0  0  0
    7.4055   11.2652   13.5131 C   0  0  0  0  0  0  0  0  0  0  0  0
    7.0285   10.5684   14.2465 H   0  0  0  0  0  0  0  0  0  0  0  0
    7.2932   10.9737   12.1650 C   0  0  0  0  0  0  0  0  0  0  0  0
    6.8333   10.0540   11.8303 H   0  0  0  0  0  0  0  0  0  0  0  0
    9.3726   11.6602    8.8269 C   0  0  0  0  0  0  0  0  0  0  0  0
   10.1195   10.4728    8.7660 C   0  0  0  0  0  0  0  0  0  0  0  0
    9.7161    9.5479    9.1781 H   0  0  0  0  0  0  0  0  0  0  0  0
   11.3927   10.4898    8.2214 C   0  0  0  0  0  0  0  0  0  0  0  0
   11.9520    9.5695    8.1506 H   0  0  0  0  0  0  0  0  0  0  0  0
   11.9339   11.6812    7.7598 C   0  0  0  0  0  0  0  0  0  0  0  0
   12.9175   11.6893    7.3154 H   0  0  0  0  0  0  0  0  0  0  0  0
   11.2192   12.8608    7.8752 C   0  0  0  0  0  0  0  0  0  0  0  0
   11.6473   13.7921    7.5351 H   0  0  0  0  0  0  0  0  0  0  0  0
    9.9384   12.8584    8.4045 C   0  0  0  0  0  0  0  0  0  0  0  0
    9.3924   13.7895    8.4667 H   0  0  0  0  0  0  0  0  0  0  0  0
  1  2  1  0  0  0  0
  1  4  1  0  0  0  0
  3  1  1  0  0  0  0
  4  6  1  0  0  0  0
  5  1  1  0  0  0  0
  5  9  1  0  0  0  0
  6 54  1  0  0  0  0
  7  9  1  0  0  0  0
  7 16  1  0  0  0  0
  8 23  1  0  0  0  0
  8 28  1  0  0  0  0
  9 10  1  1  0  0  0
  9 11  1  0  0  0  0
 11 12  1  6  0  0  0
 11  6  1  0  0  0  0
 11 13  1  0  0  0  0
 13 14  1  0  0  0  0
 13 15  1  0  0  0  0
 16 17  1  1  0  0  0
 16 13  1  0  0  0  0
 18 16  1  0  0  0  0
 18 19  1  0  0  0  0
 19 20  1  0  0  0  0
 21 19  2  0  0  0  0
 21 22  1  0  0  0  0
 23 21  1  0  0  0  0
 24 26  1  0  0  0  0
 24 23  2  0  0  0  0
 25 24  1  0  0  0  0
 26 18  2  0  0  0  0
 27 26  1  0  0  0  0
 28 30  1  0  0  0  0
 29 28  1  0  0  0  0
 31 28  1  0  0  0  0
 32 33  1  0  0  0  0
 32  5  1  0  0  0  0
 33 34  1  0  0  0  0
 35 36  1  0  0  0  0
 35 33  2  0  0  0  0
 37 35  1  0  0  0  0
 38 37  1  0  0  0  0
 39 37  2  0  0  0  0
 39 41  1  0  0  0  0
 40 39  1  0  0  0  0
 41 32  2  0  0  0  0
 42 41  1  0  0  0  0
 43  5  1  0  0  0  0
 44 45  1  0  0  0  0
 44 43  1  0  0  0  0
 46 44  2  0  0  0  0
 47 46  1  0  0  0  0
 48 50  2  0  0  0  0
 48 46  1  0  0  0  0
 49 48  1  0  0  0  0
 50 52  1  0  0  0  0
 51 50  1  0  0  0  0
 52 53  1  0  0  0  0
 52 43  2  0  0  0  0
 54 55  2  0  0  0  0
 54 63  1  0  0  0  0
 55 57  1  0  0  0  0
 56 55  1  0  0  0  0
 57 58  1  0  0  0  0
 57 59  2  0  0  0  0
 59 60  1  0  0  0  0
 61 59  1  0  0  0  0
 61 62  1  0  0  0  0
 63 61  2  0  0  0  0
 64 63  1  0  0  0  0
 65  6  1  0  0  0  0
 66 65  1  0  0  0  0
 66 67  1  0  0  0  0
 68 66  2  0  0  0  0
 69 68  1  0  0  0  0
 70 72  2  0  0  0  0
 70 68  1  0  0  0  0
 71 70  1  0  0  0  0
 72 74  1  0  0  0  0
 73 72  1  0  0  0  0
 74 75  1  0  0  0  0
 74 65  2  0  0  0  0
M  END
$$$$
