CSD_code = CLPYPT | q = 0 | S = 0 | Stoichiometry = C10H10Cl2N2Pt | MND = 4
 OpenBabel04212202023D

 25 26  0  0  0  0  0  0  0  0999 V2000
   -1.0916    1.9944    0.4097 Cl  0  0  0  0  0  0  0  0  0  0  0  0
   -2.4609   -0.9667    1.1125 C   0  0  0  0  0  3  0  0  0  0  0  0
   -3.3043   -1.5920    2.0120 C   0  0  0  0  0  0  0  0  0  0  0  0
   -2.7665   -2.1599    3.1568 C   0  0  0  0  0  0  0  0  0  0  0  0
   -1.3961   -2.0784    3.3513 C   0  0  0  0  0  0  0  0  0  0  0  0
   -0.6198   -1.4398    2.4021 C   0  0  0  0  0  0  0  0  0  0  0  0
   -2.8465   -0.4991    0.2137 H   0  0  0  0  0  0  0  0  0  0  0  0
   -4.3642   -1.6295    1.8172 H   0  0  0  0  0  0  0  0  0  0  0  0
   -3.3990   -2.6533    3.8787 H   0  0  0  0  0  0  0  0  0  0  0  0
   -0.9317   -2.5056    4.2257 H   0  0  0  0  0  0  0  0  0  0  0  0
    0.4563   -1.3689    2.5128 H   0  0  0  0  0  0  0  0  0  0  0  0
   -1.1425   -0.8928    1.3033 N   0  0  0  0  0  0  0  0  0  0  0  0
   -0.0000   -0.0000   -0.0000 Pt  0  0  0  0  0  0  0  0  0  0  0  0
    1.0917   -1.9944   -0.4097 Cl  0  0  0  0  0  0  0  0  0  0  0  0
    1.1425    0.8928   -1.3033 N   0  0  0  0  0  0  0  0  0  0  0  0
    2.4609    0.9667   -1.1125 C   0  0  0  0  0  3  0  0  0  0  0  0
    0.6198    1.4398   -2.4021 C   0  0  0  0  0  0  0  0  0  0  0  0
    3.3043    1.5920   -2.0120 C   0  0  0  0  0  0  0  0  0  0  0  0
    2.8465    0.4991   -0.2137 H   0  0  0  0  0  0  0  0  0  0  0  0
    1.3961    2.0784   -3.3513 C   0  0  0  0  0  0  0  0  0  0  0  0
   -0.4563    1.3689   -2.5128 H   0  0  0  0  0  0  0  0  0  0  0  0
    2.7665    2.1599   -3.1568 C   0  0  0  0  0  0  0  0  0  0  0  0
    4.3642    1.6295   -1.8172 H   0  0  0  0  0  0  0  0  0  0  0  0
    0.9317    2.5056   -4.2257 H   0  0  0  0  0  0  0  0  0  0  0  0
    3.3990    2.6533   -3.8787 H   0  0  0  0  0  0  0  0  0  0  0  0
  2 12  1  0  0  0  0
  2  3  1  0  0  0  0
  3  4  2  0  0  0  0
  4  5  1  0  0  0  0
  4  9  1  0  0  0  0
  5 10  1  0  0  0  0
  6 11  1  0  0  0  0
  6  5  2  0  0  0  0
  7  2  1  0  0  0  0
  8  3  1  0  0  0  0
 12  6  1  0  0  0  0
 13  1  1  0  0  0  0
 13 12  1  0  0  0  0
 14 13  1  0  0  0  0
 15 16  1  0  0  0  0
 15 13  1  0  0  0  0
 16 19  1  0  0  0  0
 17 15  1  0  0  0  0
 18 23  1  0  0  0  0
 18 16  1  0  0  0  0
 20 22  1  0  0  0  0
 20 17  2  0  0  0  0
 21 17  1  0  0  0  0
 22 18  2  0  0  0  0
 24 20  1  0  0  0  0
 25 22  1  0  0  0  0
M  END
$$$$
