CSD_code = CLPZPD | q = 0 | S = 0 | Stoichiometry = C34H46Cl2N4Pd | MND = 4
 OpenBabel04212202023D

 87 90  0  0  1  0  0  0  0  0999 V2000
   -1.8373    4.6953    7.7782 Pd  0  0  0  0  0  0  0  0  0  0  0  0
   -2.6043    2.7266    8.6709 Cl  0  0  0  0  0  0  0  0  0  0  0  0
   -0.1444    4.3786    8.7482 N   0  0  0  0  0  0  0  0  0  0  0  0
    0.6568    3.3607    8.4118 N   0  0  0  0  0  0  0  0  0  0  0  0
    1.6523    3.2149    9.3209 C   0  0  2  0  0  3  0  0  0  0  0  0
    1.4628    4.2005   10.2762 C   0  0  0  0  0  0  0  0  0  0  0  0
    0.3032    4.8949    9.8804 C   0  0  0  0  0  0  0  0  0  0  0  0
    0.4411    2.6572    7.2074 C   0  0  0  0  0  0  0  0  0  0  0  0
    0.3355    3.3832    6.0191 C   0  0  0  0  0  0  0  0  0  0  0  0
    0.1787    2.7014    4.8220 C   0  0  0  0  0  0  0  0  0  0  0  0
    0.1167    1.3172    4.8081 C   0  0  0  0  0  0  0  0  0  0  0  0
    0.1856    0.6069    5.9960 C   0  0  0  0  0  0  0  0  0  0  0  0
    0.3415    1.2709    7.1995 C   0  0  0  0  0  0  0  0  0  0  0  0
    2.7754    2.2520    9.1588 C   0  0  0  0  0  0  0  0  0  0  0  0
    3.7153    2.6825    8.0243 C   0  0  0  0  0  0  0  0  0  0  0  0
    4.8763    1.7097    7.8694 C   0  0  0  0  0  0  0  0  0  0  0  0
    2.2581    4.4140   11.5396 C   0  0  0  0  0  0  0  0  0  0  0  0
    1.7208    3.4829   12.5531 C   0  0  0  0  0  3  0  0  0  0  0  0
   -0.3457    6.0891   10.4872 C   0  0  0  0  0  0  0  0  0  0  0  0
    0.4241    7.3648   10.1167 C   0  0  0  0  0  0  0  0  0  0  0  0
   -0.1768    8.5926   10.7849 C   0  0  0  0  0  0  0  0  0  0  0  0
    0.4285    4.4665    6.0283 H   0  0  0  0  0  0  0  0  0  0  0  0
    0.1107    3.2574    3.8991 H   0  0  0  0  0  0  0  0  0  0  0  0
    0.0031    0.7919    3.8717 H   0  0  0  0  0  0  0  0  0  0  0  0
    0.1086   -0.4700    5.9882 H   0  0  0  0  0  0  0  0  0  0  0  0
    0.3563    0.7247    8.1294 H   0  0  0  0  0  0  0  0  0  0  0  0
    2.3992    1.2503    8.9471 H   0  0  0  0  0  0  0  0  0  0  0  0
    3.3331    2.2093   10.0952 H   0  0  0  0  0  0  0  0  0  0  0  0
    4.0978    3.6830    8.2370 H   0  0  0  0  0  0  0  0  0  0  0  0
    3.1540    2.7314    7.0884 H   0  0  0  0  0  0  0  0  0  0  0  0
    4.5091    0.7128    7.6358 H   0  0  0  0  0  0  0  0  0  0  0  0
    5.5351    2.0293    7.0660 H   0  0  0  0  0  0  0  0  0  0  0  0
    5.4566    1.6555    8.7879 H   0  0  0  0  0  0  0  0  0  0  0  0
    2.1408    5.4500   11.8597 H   0  0  0  0  0  0  0  0  0  0  0  0
    3.3139    4.2182   11.3417 H   0  0  0  0  0  0  0  0  0  0  0  0
    2.0485    2.4613   12.5719 H   0  0  0  0  0  0  0  0  0  0  0  0
    0.8186    3.7294   13.0785 H   0  0  0  0  0  0  0  0  0  0  0  0
   -0.3914    5.9808   11.5730 H   0  0  0  0  0  0  0  0  0  0  0  0
   -1.3696    6.1625   10.0895 H   0  0  0  0  0  0  0  0  0  0  0  0
    1.4709    7.2590   10.4115 H   0  0  0  0  0  0  0  0  0  0  0  0
    0.3876    7.4859    9.0328 H   0  0  0  0  0  0  0  0  0  0  0  0
    0.3941    9.4806   10.5246 H   0  0  0  0  0  0  0  0  0  0  0  0
   -0.1723    8.4853   11.8686 H   0  0  0  0  0  0  0  0  0  0  0  0
   -1.2024    8.7336   10.4537 H   0  0  0  0  0  0  0  0  0  0  0  0
   -1.0705    6.6640    6.8855 Cl  0  0  0  0  0  0  0  0  0  0  0  0
   -3.5301    5.0121    6.8079 N   0  0  0  0  0  0  0  0  0  0  0  0
   -4.3312    6.0302    7.1440 N   0  0  0  0  0  0  0  0  0  0  0  0
   -3.9777    4.4956    5.6758 C   0  0  2  0  0  3  0  0  0  0  0  0
   -5.3265    6.1761    6.2348 C   0  0  0  0  0  0  0  0  0  0  0  0
   -4.1156    6.7339    8.3483 C   0  0  0  0  0  0  0  0  0  0  0  0
   -5.1371    5.1902    5.2797 C   0  0  0  0  0  0  0  0  0  0  0  0
   -3.3290    3.3012    5.0694 C   0  0  0  0  0  0  0  0  0  0  0  0
   -6.4495    7.1393    6.3964 C   0  0  0  0  0  0  0  0  0  0  0  0
   -4.0101    6.0079    9.5367 C   0  0  0  0  0  0  0  0  0  0  0  0
   -4.0158    8.1201    8.3562 C   0  0  0  0  0  0  0  0  0  0  0  0
   -5.9322    4.9767    4.0162 C   0  0  0  0  0  0  0  0  0  0  0  0
   -4.0988    2.0257    5.4405 C   0  0  0  0  0  0  0  0  0  0  0  0
   -3.2835    3.4091    3.9835 H   0  0  0  0  0  0  0  0  0  0  0  0
   -2.3050    3.2279    5.4669 H   0  0  0  0  0  0  0  0  0  0  0  0
   -7.3894    6.7097    7.5312 C   0  0  0  0  0  0  0  0  0  0  0  0
   -6.0730    8.1410    6.6074 H   0  0  0  0  0  0  0  0  0  0  0  0
   -7.0073    7.1815    5.4600 H   0  0  0  0  0  0  0  0  0  0  0  0
   -3.8533    6.6898   10.7337 C   0  0  0  0  0  0  0  0  0  0  0  0
   -4.1032    4.9246    9.5276 H   0  0  0  0  0  0  0  0  0  0  0  0
   -3.8599    8.7842    9.5596 C   0  0  0  0  0  0  0  0  0  0  0  0
   -4.0306    8.6663    7.4263 H   0  0  0  0  0  0  0  0  0  0  0  0
   -5.3948    5.9078    3.0027 C   0  0  0  0  0  3  0  0  0  0  0  0
   -5.8149    3.9406    3.6961 H   0  0  0  0  0  0  0  0  0  0  0  0
   -6.9881    5.1724    4.2139 H   0  0  0  0  0  0  0  0  0  0  0  0
   -3.4982    0.7975    4.7726 C   0  0  0  0  0  0  0  0  0  0  0  0
   -5.1457    2.1315    5.1459 H   0  0  0  0  0  0  0  0  0  0  0  0
   -4.0621    1.9049    6.5244 H   0  0  0  0  0  0  0  0  0  0  0  0
   -8.5503    7.6827    7.6853 C   0  0  0  0  0  0  0  0  0  0  0  0
   -7.7721    5.7090    7.3193 H   0  0  0  0  0  0  0  0  0  0  0  0
   -6.8281    6.6613    8.4671 H   0  0  0  0  0  0  0  0  0  0  0  0
   -3.7911    8.0740   10.7476 C   0  0  0  0  0  0  0  0  0  0  0  0
   -3.7853    6.1339   11.6567 H   0  0  0  0  0  0  0  0  0  0  0  0
   -3.7828    9.8611    9.5673 H   0  0  0  0  0  0  0  0  0  0  0  0
   -5.7229    6.9292    2.9835 H   0  0  0  0  0  0  0  0  0  0  0  0
   -4.4923    5.6614    2.4779 H   0  0  0  0  0  0  0  0  0  0  0  0
   -4.0688   -0.0904    5.0338 H   0  0  0  0  0  0  0  0  0  0  0  0
   -3.5034    0.9042    3.6889 H   0  0  0  0  0  0  0  0  0  0  0  0
   -2.4724    0.6569    5.1031 H   0  0  0  0  0  0  0  0  0  0  0  0
   -8.1830    8.6799    7.9180 H   0  0  0  0  0  0  0  0  0  0  0  0
   -9.2090    7.3638    8.4892 H   0  0  0  0  0  0  0  0  0  0  0  0
   -9.1307    7.7361    6.7668 H   0  0  0  0  0  0  0  0  0  0  0  0
   -3.6775    8.5994   11.6839 H   0  0  0  0  0  0  0  0  0  0  0  0
  1  2  1  0  0  0  0
  1  3  1  0  0  0  0
  3  7  1  0  0  0  0
  4  3  1  0  0  0  0
  4  5  1  0  0  0  0
  5 14  1  6  0  0  0
  5  6  1  0  0  0  0
  6 17  1  0  0  0  0
  7  6  2  0  0  0  0
  7 19  1  0  0  0  0
  8  4  1  0  0  0  0
  9 22  1  0  0  0  0
  9  8  2  0  0  0  0
 10  9  1  0  0  0  0
 11 10  2  0  0  0  0
 11 12  1  0  0  0  0
 12 13  2  0  0  0  0
 13  8  1  0  0  0  0
 13 26  1  0  0  0  0
 14 28  1  0  0  0  0
 15 29  1  0  0  0  0
 15 14  1  0  0  0  0
 16 15  1  0  0  0  0
 16 33  1  0  0  0  0
 17 34  1  0  0  0  0
 17 18  1  0  0  0  0
 18 36  1  0  0  0  0
 18 37  1  0  0  0  0
 19 38  1  0  0  0  0
 20 40  1  0  0  0  0
 20 19  1  0  0  0  0
 20 21  1  0  0  0  0
 21 43  1  0  0  0  0
 23 10  1  0  0  0  0
 24 11  1  0  0  0  0
 25 12  1  0  0  0  0
 27 14  1  0  0  0  0
 30 15  1  0  0  0  0
 31 16  1  0  0  0  0
 32 16  1  0  0  0  0
 35 17  1  0  0  0  0
 39 19  1  0  0  0  0
 41 20  1  0  0  0  0
 42 21  1  0  0  0  0
 44 21  1  0  0  0  0
 45  1  1  0  0  0  0
 46 47  1  0  0  0  0
 46  1  1  0  0  0  0
 47 50  1  0  0  0  0
 48 52  1  1  0  0  0
 48 46  1  0  0  0  0
 49 53  1  0  0  0  0
 49 47  1  0  0  0  0
 50 55  2  0  0  0  0
 50 54  1  0  0  0  0
 51 48  1  0  0  0  0
 51 49  2  0  0  0  0
 52 57  1  0  0  0  0
 52 59  1  0  0  0  0
 53 61  1  0  0  0  0
 53 60  1  0  0  0  0
 54 63  2  0  0  0  0
 55 65  1  0  0  0  0
 56 69  1  0  0  0  0
 56 51  1  0  0  0  0
 57 72  1  0  0  0  0
 58 52  1  0  0  0  0
 60 73  1  0  0  0  0
 60 75  1  0  0  0  0
 62 53  1  0  0  0  0
 63 76  1  0  0  0  0
 63 77  1  0  0  0  0
 64 54  1  0  0  0  0
 65 78  1  0  0  0  0
 65 76  2  0  0  0  0
 66 55  1  0  0  0  0
 67 56  1  0  0  0  0
 68 56  1  0  0  0  0
 70 81  1  0  0  0  0
 70 83  1  0  0  0  0
 70 57  1  0  0  0  0
 71 57  1  0  0  0  0
 73 84  1  0  0  0  0
 73 85  1  0  0  0  0
 74 60  1  0  0  0  0
 76 87  1  0  0  0  0
 79 67  1  0  0  0  0
 80 67  1  0  0  0  0
 82 70  1  0  0  0  0
 86 73  1  0  0  0  0
M  END
$$$$
