CSD_code = CMACBP | q = 0 | S = 0 | Stoichiometry = C6H14Cl2N2O2Pd | MND = 4
 OpenBabel04212202023D

 27 26  0  0  1  0  0  0  0  0999 V2000
   -2.1713    1.5248    1.6914 Cl  0  0  0  0  0  0  0  0  0  0  0  0
   -1.9376    4.9298    1.4154 Cl  0  0  0  0  0  0  0  0  0  0  0  0
    0.6134    4.6933    2.0748 C   0  0  1  0  0  3  0  0  0  0  0  0
    1.8523    6.3889    0.8051 C   0  0  0  0  0  0  0  0  0  0  0  0
    0.0493    5.2453    4.2820 C   0  0  0  0  0  0  0  0  0  0  0  0
    0.3905    1.5135    2.3298 C   0  0  0  0  0  0  0  0  0  0  0  0
    1.3401   -0.5355    1.3653 C   0  0  0  0  0  0  0  0  0  0  0  0
   -0.1958    1.4526    4.5916 C   0  0  0  0  0  0  0  0  0  0  0  0
    1.0674    4.5478    0.1376 H   0  0  0  0  0  0  0  0  0  0  0  0
   -0.2289    6.1966    4.7332 H   0  0  0  0  0  0  0  0  0  0  0  0
    0.7141    4.6975    4.9577 H   0  0  0  0  0  0  0  0  0  0  0  0
   -0.4274    0.6547    5.2954 H   0  0  0  0  0  0  0  0  0  0  0  0
   -1.1279    1.9669    4.2959 H   0  0  0  0  0  0  0  0  0  0  0  0
    0.5024    2.1614    5.0513 H   0  0  0  0  0  0  0  0  0  0  0  0
    0.8210    1.2622    0.3976 H   0  0  0  0  0  0  0  0  0  0  0  0
    1.0815    7.1364    0.6047 H   0  0  0  0  0  0  0  0  0  0  0  0
    2.3787    6.6652    1.7167 H   0  0  0  0  0  0  0  0  0  0  0  0
    2.5525    6.3569   -0.0265 H   0  0  0  0  0  0  0  0  0  0  0  0
    2.0550   -0.7341    0.5702 H   0  0  0  0  0  0  0  0  0  0  0  0
    0.4681   -1.1810    1.2417 H   0  0  0  0  0  0  0  0  0  0  0  0
    1.7972   -0.7453    2.3301 H   0  0  0  0  0  0  0  0  0  0  0  0
   -0.8632    4.6554    4.0742 H   0  0  0  0  0  0  0  0  0  0  0  0
    1.2560    5.0781    0.9817 N   0  0  0  0  0  0  0  0  0  0  0  0
    0.9489    0.8611    1.3208 N   0  0  0  0  0  0  0  0  0  0  0  0
    0.7303    5.5500    3.0775 O   0  0  0  0  0  0  0  0  0  0  0  0
    0.4045    0.8338    3.4668 O   0  0  0  0  0  0  0  0  0  0  0  0
   -0.6100    3.1630    1.9782 Pd  0  0  0  0  0  0  0  0  0  0  0  0
  1 27  1  0  0  0  0
  2 27  1  0  0  0  0
  3 25  1  6  0  0  0
  4 23  1  0  0  0  0
  4 17  1  0  0  0  0
  5 10  1  0  0  0  0
  5 11  1  0  0  0  0
  6 26  1  0  0  0  0
  7 21  1  0  0  0  0
  8 14  1  0  0  0  0
  8 12  1  0  0  0  0
  9 23  1  0  0  0  0
 13  8  1  0  0  0  0
 15 24  1  0  0  0  0
 16  4  1  0  0  0  0
 18  4  1  0  0  0  0
 19  7  1  0  0  0  0
 20  7  1  0  0  0  0
 22  5  1  0  0  0  0
 23  3  1  0  0  0  0
 24  7  1  0  0  0  0
 24  6  1  0  0  0  0
 25  5  1  0  0  0  0
 26  8  1  0  0  0  0
 27  3  1  0  0  0  0
 27  6  2  0  0  0  0
M  END
$$$$
