CSD_code = CMAPPT | q = 0 | S = 0 | Stoichiometry = C4H12Cl2N2Pt | MND = 4
 OpenBabel04212202023D

 21 21  0  0  1  0  0  0  0  0999 V2000
    3.6328    1.9831    2.1746 Cl  0  0  0  0  0  0  0  0  0  0  0  0
    2.4071    2.7944   -0.7540 Cl  0  0  0  0  0  0  0  0  0  0  0  0
   -0.8037    0.1612    0.9017 C   0  0  2  0  0  0  0  0  0  0  0  0
    0.0785   -0.6722    1.8506 C   0  0  0  0  0  0  0  0  0  0  0  0
   -1.8500   -0.7111    0.2114 C   0  0  0  0  0  0  0  0  0  0  0  0
    0.6455    0.8930    3.6541 C   0  0  0  0  0  0  0  0  0  0  0  0
   -0.3823    1.6130   -0.5349 H   0  0  0  0  0  0  0  0  0  0  0  0
    1.4812    1.4621    4.0585 H   0  0  0  0  0  0  0  0  0  0  0  0
   -0.1452    1.5905    3.3810 H   0  0  0  0  0  0  0  0  0  0  0  0
    0.2649    0.2098    4.4219 H   0  0  0  0  0  0  0  0  0  0  0  0
    0.3841    0.1833   -0.7913 H   0  0  0  0  0  0  0  0  0  0  0  0
   -1.3091    0.9408    1.4822 H   0  0  0  0  0  0  0  0  0  0  0  0
    0.5710   -1.4548    1.2655 H   0  0  0  0  0  0  0  0  0  0  0  0
   -0.5502   -1.1524    2.6121 H   0  0  0  0  0  0  0  0  0  0  0  0
    1.9041   -0.4062    2.7575 H   0  0  0  0  0  0  0  0  0  0  0  0
   -2.5049   -1.1754    0.9433 H   0  0  0  0  0  0  0  0  0  0  0  0
   -2.4607   -0.1118   -0.4596 H   0  0  0  0  0  0  0  0  0  0  0  0
   -1.3699   -1.4982   -0.3670 H   0  0  0  0  0  0  0  0  0  0  0  0
    0.0735    0.8317   -0.0667 N   0  0  0  0  0  4  0  0  0  0  0  0
    1.1090    0.1659    2.4740 N   0  0  0  0  0  4  0  0  0  0  0  0
    1.8315    1.4721    0.9565 Pt  0  0  0  0  0  0  0  0  0  0  0  0
  2 21  1  0  0  0  0
  3 12  1  1  0  0  0
  3  4  1  0  0  0  0
  4 20  1  0  0  0  0
  4 14  1  0  0  0  0
  5  3  1  0  0  0  0
  5 16  1  0  0  0  0
  6  8  1  0  0  0  0
  6 10  1  0  0  0  0
  7 19  1  0  0  0  0
  9  6  1  0  0  0  0
 11 19  1  0  0  0  0
 13  4  1  0  0  0  0
 17  5  1  0  0  0  0
 18  5  1  0  0  0  0
 19  3  1  0  0  0  0
 19 21  1  0  0  0  0
 20 15  1  0  0  0  0
 20  6  1  0  0  0  0
 21  1  1  0  0  0  0
 21 20  1  0  0  0  0
M  END
$$$$
