CSD_code = CMBZPD | q = 0 | S = 0 | Stoichiometry = C16H18Cl2N2Pd | MND = 4
 OpenBabel04212202023D

 39 40  0  0  0  0  0  0  0  0999 V2000
    6.2881   -0.0005    0.0002 Pd  0  0  0  0  0  0  0  0  0  0  0  0
    7.2178   -1.2538    1.6915 Cl  0  0  0  0  0  0  0  0  0  0  0  0
    5.4191    1.1490    1.3102 N   0  0  0  0  0  0  0  0  0  0  0  0
    5.7201    2.3727    1.4865 C   0  0  0  0  0  3  0  0  0  0  0  0
    6.8128    3.0248    0.7740 C   0  0  0  0  0  0  0  0  0  0  0  0
    8.0014    2.3469    0.4673 C   0  0  0  0  0  0  0  0  0  0  0  0
    8.9752    2.9770   -0.2883 C   0  0  0  0  0  0  0  0  0  0  0  0
    8.7818    4.2713   -0.7467 C   0  0  0  0  0  0  0  0  0  0  0  0
    7.6242    4.9562   -0.4164 C   0  0  0  0  0  0  0  0  0  0  0  0
    6.6501    4.3432    0.3487 C   0  0  0  0  0  0  0  0  0  0  0  0
    4.3030    0.5555    1.9940 C   0  0  0  0  0  0  0  0  0  0  0  0
    5.1093    2.9993    2.1430 H   0  0  0  0  0  0  0  0  0  0  0  0
    8.2006    1.3605    0.8981 H   0  0  0  0  0  0  0  0  0  0  0  0
    9.8956    2.4591   -0.5176 H   0  0  0  0  0  0  0  0  0  0  0  0
    9.5387    4.7493   -1.3504 H   0  0  0  0  0  0  0  0  0  0  0  0
    7.4783    5.9696   -0.7592 H   0  0  0  0  0  0  0  0  0  0  0  0
    5.7393    4.8714    0.5905 H   0  0  0  0  0  0  0  0  0  0  0  0
    3.8606    1.2402    2.7272 H   0  0  0  0  0  0  0  0  0  0  0  0
    3.5434    0.2745    1.2549 H   0  0  0  0  0  0  0  0  0  0  0  0
    4.6490   -0.3539    2.4973 H   0  0  0  0  0  0  0  0  0  0  0  0
    5.3581    1.2531   -1.6910 Cl  0  0  0  0  0  0  0  0  0  0  0  0
    7.1559   -1.1499   -1.3107 N   0  0  0  0  0  0  0  0  0  0  0  0
    6.8537   -2.3734   -1.4869 C   0  0  0  0  0  3  0  0  0  0  0  0
    8.2694   -0.5562   -1.9984 C   0  0  0  0  0  0  0  0  0  0  0  0
    5.7620   -3.0250   -0.7724 C   0  0  0  0  0  0  0  0  0  0  0  0
    7.4620   -2.9999   -2.1459 H   0  0  0  0  0  0  0  0  0  0  0  0
    8.7101   -1.2411   -2.7324 H   0  0  0  0  0  0  0  0  0  0  0  0
    9.0310   -0.2734   -1.2621 H   0  0  0  0  0  0  0  0  0  0  0  0
    7.9208    0.3523   -2.5016 H   0  0  0  0  0  0  0  0  0  0  0  0
    4.5736   -2.3467   -0.4655 C   0  0  0  0  0  0  0  0  0  0  0  0
    5.9245   -4.3431   -0.3464 C   0  0  0  0  0  0  0  0  0  0  0  0
    3.5998   -2.9761    0.2906 C   0  0  0  0  0  0  0  0  0  0  0  0
    4.3748   -1.3603   -0.8966 H   0  0  0  0  0  0  0  0  0  0  0  0
    4.9502   -4.9556    0.4189 C   0  0  0  0  0  0  0  0  0  0  0  0
    6.8352   -4.8716   -0.5880 H   0  0  0  0  0  0  0  0  0  0  0  0
    3.7928   -4.2704    0.7490 C   0  0  0  0  0  0  0  0  0  0  0  0
    2.6796   -2.4578    0.5199 H   0  0  0  0  0  0  0  0  0  0  0  0
    5.0958   -5.9690    0.7620 H   0  0  0  0  0  0  0  0  0  0  0  0
    3.0356   -4.7483    1.3525 H   0  0  0  0  0  0  0  0  0  0  0  0
  1  3  1  0  0  0  0
  1  2  1  0  0  0  0
  3  4  1  0  0  0  0
  3 11  1  0  0  0  0
  4 12  1  0  0  0  0
  5  4  1  0  0  0  0
  6  5  1  0  0  0  0
  6 13  1  0  0  0  0
  7  6  2  0  0  0  0
  8  9  2  0  0  0  0
  8  7  1  0  0  0  0
  9 10  1  0  0  0  0
 10 17  1  0  0  0  0
 10  5  2  0  0  0  0
 11 20  1  0  0  0  0
 11 18  1  0  0  0  0
 14  7  1  0  0  0  0
 15  8  1  0  0  0  0
 16  9  1  0  0  0  0
 19 11  1  0  0  0  0
 21  1  1  0  0  0  0
 22  1  1  0  0  0  0
 23 22  1  0  0  0  0
 23 25  1  0  0  0  0
 24 22  1  0  0  0  0
 24 28  1  0  0  0  0
 25 30  2  0  0  0  0
 25 31  1  0  0  0  0
 26 23  1  0  0  0  0
 27 24  1  0  0  0  0
 29 24  1  0  0  0  0
 30 32  1  0  0  0  0
 31 34  2  0  0  0  0
 32 37  1  0  0  0  0
 32 36  2  0  0  0  0
 33 30  1  0  0  0  0
 34 36  1  0  0  0  0
 34 38  1  0  0  0  0
 35 31  1  0  0  0  0
 36 39  1  0  0  0  0
M  END
$$$$
