CSD_code = CMPYZN | q = 0 | S = 0 | Stoichiometry = C12H14Cl2N2Zn | MND = 4
 OpenBabel04212202023D

 31 32  0  0  0  0  0  0  0  0999 V2000
    2.7249    3.6570    1.7552 Cl  0  0  0  0  0  0  0  0  0  0  0  0
    3.0911    0.3128    4.1461 Cl  0  0  0  0  0  0  0  0  0  0  0  0
    6.0978    0.5602    2.4413 C   0  0  0  0  0  3  0  0  0  0  0  0
    1.1818    0.2705   -1.2440 C   0  0  0  0  0  0  0  0  0  0  0  0
    1.8817    0.9743   -0.2835 C   0  0  0  0  0  3  0  0  0  0  0  0
    0.1345   -1.8713   -2.0451 C   0  0  0  0  0  0  0  0  0  0  0  0
    7.4663    0.5228    2.2585 C   0  0  0  0  0  0  0  0  0  0  0  0
    8.0786    1.4759    1.4486 C   0  0  0  0  0  0  0  0  0  0  0  0
    7.2539    2.4295    0.8586 C   0  0  0  0  0  0  0  0  0  0  0  0
    5.8931    2.3951    1.0951 C   0  0  0  0  0  0  0  0  0  0  0  0
    9.5569    1.4880    1.2473 C   0  0  0  0  0  0  0  0  0  0  0  0
    2.0597   -0.8741    1.0481 C   0  0  0  0  0  0  0  0  0  0  0  0
    1.3665   -1.6509    0.1398 C   0  0  0  0  0  0  0  0  0  0  0  0
    0.9083   -1.0802   -1.0442 C   0  0  0  0  0  0  0  0  0  0  0  0
    5.5912   -0.1558    3.0729 H   0  0  0  0  0  0  0  0  0  0  0  0
    0.8477    0.7703   -2.1400 H   0  0  0  0  0  0  0  0  0  0  0  0
    2.0990    2.0267   -0.3990 H   0  0  0  0  0  0  0  0  0  0  0  0
    0.3499   -1.5339   -3.0562 H   0  0  0  0  0  0  0  0  0  0  0  0
    0.3587   -2.9317   -1.9625 H   0  0  0  0  0  0  0  0  0  0  0  0
   -0.9327   -1.7360   -1.8679 H   0  0  0  0  0  0  0  0  0  0  0  0
    8.0531   -0.2401    2.7463 H   0  0  0  0  0  0  0  0  0  0  0  0
    7.6695    3.1967    0.2237 H   0  0  0  0  0  0  0  0  0  0  0  0
    5.2255    3.1283    0.6647 H   0  0  0  0  0  0  0  0  0  0  0  0
    9.9556    0.4763    1.2406 H   0  0  0  0  0  0  0  0  0  0  0  0
    9.8208    1.9866    0.3182 H   0  0  0  0  0  0  0  0  0  0  0  0
   10.0301    2.0281    2.0678 H   0  0  0  0  0  0  0  0  0  0  0  0
    2.4203   -1.2814    1.9822 H   0  0  0  0  0  0  0  0  0  0  0  0
    1.1817   -2.6921    0.3544 H   0  0  0  0  0  0  0  0  0  0  0  0
    5.3227    1.4771    1.8694 N   0  0  0  0  0  0  0  0  0  0  0  0
    2.3169    0.4137    0.8410 N   0  0  0  0  0  0  0  0  0  0  0  0
    3.2511    1.5914    2.3471 Zn  0  0  0  0  0  0  0  0  0  0  0  0
  1 31  1  0  0  0  0
  3 15  1  0  0  0  0
  4 14  2  0  0  0  0
  4  5  1  0  0  0  0
  5 30  1  0  0  0  0
  6 19  1  0  0  0  0
  6 20  1  0  0  0  0
  6 14  1  0  0  0  0
  7  3  1  0  0  0  0
  7 21  1  0  0  0  0
  8  7  2  0  0  0  0
  9 10  2  0  0  0  0
  9  8  1  0  0  0  0
 10 29  1  0  0  0  0
 11  8  1  0  0  0  0
 11 26  1  0  0  0  0
 12 27  1  0  0  0  0
 13 28  1  0  0  0  0
 13 12  2  0  0  0  0
 14 13  1  0  0  0  0
 16  4  1  0  0  0  0
 17  5  1  0  0  0  0
 18  6  1  0  0  0  0
 22  9  1  0  0  0  0
 23 10  1  0  0  0  0
 24 11  1  0  0  0  0
 25 11  1  0  0  0  0
 29 31  1  0  0  0  0
 29  3  1  0  0  0  0
 30 12  1  0  0  0  0
 30 31  1  0  0  0  0
 31  2  1  0  0  0  0
M  END
$$$$
