CSD_code = CMSLMO | q = 0 | S = 0 | Stoichiometry = C16H16Cl2MoN2O2 | MND = 6
 OpenBabel04212202023D

 39 42  0  0  0  0  0  0  0  0999 V2000
    1.3295    0.4584    2.0503 Cl  0  0  0  0  0  0  0  0  0  0  0  0
   -1.3202    2.5699    0.2688 C   0  0  0  0  0  0  0  0  0  0  0  0
   -2.4348    3.1892    0.8387 C   0  0  0  0  0  0  0  0  0  0  0  0
   -2.6385    4.5419    0.6593 C   0  0  0  0  0  0  0  0  0  0  0  0
   -1.7361    5.2955   -0.0875 C   0  0  0  0  0  0  0  0  0  0  0  0
   -0.6338    4.6993   -0.6559 C   0  0  0  0  0  0  0  0  0  0  0  0
   -0.3915    3.3258   -0.4988 C   0  0  0  0  0  0  0  0  0  0  0  0
    0.7494    2.7005   -1.0888 C   0  0  0  0  0  3  0  0  0  0  0  0
    2.2505    1.0089   -1.6695 C   0  0  0  0  0  0  0  0  0  0  0  0
   -3.1243    2.5883    1.4154 H   0  0  0  0  0  0  0  0  0  0  0  0
   -3.5012    5.0171    1.1004 H   0  0  0  0  0  0  0  0  0  0  0  0
   -1.9043    6.3531   -0.2203 H   0  0  0  0  0  0  0  0  0  0  0  0
    0.0633    5.2869   -1.2350 H   0  0  0  0  0  0  0  0  0  0  0  0
    1.4102    3.3559   -1.6585 H   0  0  0  0  0  0  0  0  0  0  0  0
    1.9910    0.2444   -2.4085 H   0  0  0  0  0  0  0  0  0  0  0  0
    2.7530    1.8391   -2.1761 H   0  0  0  0  0  0  0  0  0  0  0  0
    2.9337    0.5756   -0.9324 H   0  0  0  0  0  0  0  0  0  0  0  0
    0.0002    0.0001    0.0003 Mo  0  0  0  0  0  0  0  0  0  0  0  0
    1.0457    1.4358   -0.9954 N   0  0  0  0  0  0  0  0  0  0  0  0
   -1.0612    1.2912    0.3966 O   0  0  0  0  0  0  0  0  0  0  0  0
   -1.3293   -0.4580   -2.0495 Cl  0  0  0  0  0  0  0  0  0  0  0  0
   -1.0456   -1.4358    0.9955 N   0  0  0  0  0  0  0  0  0  0  0  0
    1.0613   -1.2911   -0.3966 O   0  0  0  0  0  0  0  0  0  0  0  0
   -0.7495   -2.7004    1.0887 C   0  0  0  0  0  3  0  0  0  0  0  0
   -2.2504   -1.0089    1.6695 C   0  0  0  0  0  0  0  0  0  0  0  0
    1.3202   -2.5699   -0.2690 C   0  0  0  0  0  0  0  0  0  0  0  0
    0.3914   -3.3258    0.4986 C   0  0  0  0  0  0  0  0  0  0  0  0
   -1.4102   -3.3558    1.6585 H   0  0  0  0  0  0  0  0  0  0  0  0
   -1.9909   -0.2452    2.4090 H   0  0  0  0  0  0  0  0  0  0  0  0
   -2.7533   -1.8391    2.1756 H   0  0  0  0  0  0  0  0  0  0  0  0
   -2.9334   -0.5749    0.9329 H   0  0  0  0  0  0  0  0  0  0  0  0
    2.4347   -3.1893   -0.8389 C   0  0  0  0  0  0  0  0  0  0  0  0
    0.6338   -4.6993    0.6557 C   0  0  0  0  0  0  0  0  0  0  0  0
    2.6384   -4.5420   -0.6595 C   0  0  0  0  0  0  0  0  0  0  0  0
    3.1243   -2.5884   -1.4155 H   0  0  0  0  0  0  0  0  0  0  0  0
    1.7360   -5.2955    0.0873 C   0  0  0  0  0  0  0  0  0  0  0  0
   -0.0634   -5.2869    1.2349 H   0  0  0  0  0  0  0  0  0  0  0  0
    3.5011   -5.0172   -1.1005 H   0  0  0  0  0  0  0  0  0  0  0  0
    1.9042   -6.3532    0.2201 H   0  0  0  0  0  0  0  0  0  0  0  0
  2 20  1  0  0  0  0
  2  3  1  0  0  0  0
  3 10  1  0  0  0  0
  4  3  2  0  0  0  0
  4 11  1  0  0  0  0
  5  4  1  0  0  0  0
  6  7  1  0  0  0  0
  6  5  2  0  0  0  0
  7  2  2  0  0  0  0
  8 19  1  0  0  0  0
  8  7  1  0  0  0  0
  9 19  1  0  0  0  0
  9 17  1  0  0  0  0
 12  5  1  0  0  0  0
 13  6  1  0  0  0  0
 14  8  1  0  0  0  0
 15  9  1  0  0  0  0
 16  9  1  0  0  0  0
 18 20  1  0  0  0  0
 18 22  1  0  0  0  0
 18  1  1  0  0  0  0
 19 18  1  0  0  0  0
 21 18  1  0  0  0  0
 22 24  1  0  0  0  0
 22 25  1  0  0  0  0
 23 26  1  0  0  0  0
 23 18  1  0  0  0  0
 24 28  1  0  0  0  0
 25 30  1  0  0  0  0
 25 29  1  0  0  0  0
 26 27  1  0  0  0  0
 27 33  2  0  0  0  0
 27 24  1  0  0  0  0
 31 25  1  0  0  0  0
 32 34  1  0  0  0  0
 32 26  2  0  0  0  0
 33 37  1  0  0  0  0
 34 36  2  0  0  0  0
 35 32  1  0  0  0  0
 36 39  1  0  0  0  0
 36 33  1  0  0  0  0
 38 34  1  0  0  0  0
M  END
$$$$
