CSD_code = COBBON | q = 0 | S = 0 | Stoichiometry = C42H47ClCoN2P | MND = 3
 OpenBabel04212202023D

 94101  0  0  1  0  0  0  0  0999 V2000
    3.6447    2.3303    4.4896 Co  0  0  0  0  0  0  0  0  0  0  0  0
    2.4791    2.0730    6.2426 Cl  0  0  0  0  0  0  0  0  0  0  0  0
    1.9134    3.0354    3.3683 P   0  0  0  0  0  4  0  0  0  0  0  0
    5.8756    1.4724    2.8540 N   0  0  0  0  0  0  0  0  0  0  0  0
    5.6027    3.6232    2.8694 N   0  0  0  0  0  0  0  0  0  0  0  0
    5.0361    2.4620    3.2665 C   0  0  2  0  0  3  0  0  0  0  0  0
    6.9707    2.0315    2.2081 C   0  0  0  0  0  0  0  0  0  0  0  0
    6.7978    3.3808    2.2288 C   0  0  0  0  0  0  0  0  0  0  0  0
    7.7007    4.4567    1.7377 C   0  0  0  0  0  0  0  0  0  0  0  0
    8.7170    4.2861    2.0900 H   0  0  0  0  0  0  0  0  0  0  0  0
    7.3610    5.4223    2.1044 H   0  0  0  0  0  0  0  0  0  0  0  0
    7.7209    4.4883    0.6479 H   0  0  0  0  0  0  0  0  0  0  0  0
    8.1562    1.3477    1.6148 C   0  0  0  0  0  0  0  0  0  0  0  0
    8.5698    1.9870    0.8371 H   0  0  0  0  0  0  0  0  0  0  0  0
    7.9110    0.3897    1.1674 H   0  0  0  0  0  0  0  0  0  0  0  0
    8.9342    1.1920    2.3644 H   0  0  0  0  0  0  0  0  0  0  0  0
    5.6215    0.0519    3.1067 C   0  0  1  0  0  0  0  0  0  0  0  0
    6.8109   -0.5747    3.8474 C   0  0  0  0  0  0  0  0  0  0  0  0
    6.9635   -0.0411    4.7890 H   0  0  0  0  0  0  0  0  0  0  0  0
    7.7234   -0.4895    3.2611 H   0  0  0  0  0  0  0  0  0  0  0  0
    6.5357   -2.0535    4.1197 C   0  0  2  0  0  0  0  0  0  0  0  0
    7.4050   -2.4883    4.6260 H   0  0  0  0  0  0  0  0  0  0  0  0
    6.3051   -2.7782    2.7936 C   0  0  0  0  0  0  0  0  0  0  0  0
    7.1921   -2.6903    2.1609 H   0  0  0  0  0  0  0  0  0  0  0  0
    6.1326   -3.8405    2.9779 H   0  0  0  0  0  0  0  0  0  0  0  0
    5.0933   -2.1743    2.0841 C   0  0  1  0  0  0  0  0  0  0  0  0
    4.9270   -2.6987    1.1361 H   0  0  0  0  0  0  0  0  0  0  0  0
    3.8598   -2.3191    2.9723 C   0  0  0  0  0  0  0  0  0  0  0  0
    2.9849   -1.9045    2.4664 H   0  0  0  0  0  0  0  0  0  0  0  0
    3.6640   -3.3754    3.1677 H   0  0  0  0  0  0  0  0  0  0  0  0
    4.1055   -1.5796    4.2862 C   0  0  2  0  0  0  0  0  0  0  0  0
    3.2168   -1.6479    4.9211 H   0  0  0  0  0  0  0  0  0  0  0  0
    4.3770   -0.1078    3.9867 C   0  0  0  0  0  0  0  0  0  0  0  0
    3.5023    0.3016    3.4640 H   0  0  0  0  0  0  0  0  0  0  0  0
    4.5187    0.4357    4.9391 H   0  0  0  0  0  0  0  0  0  0  0  0
    5.3019   -2.1945    5.0066 C   0  0  0  0  0  0  0  0  0  0  0  0
    5.1114   -3.2486    5.2184 H   0  0  0  0  0  0  0  0  0  0  0  0
    5.4652   -1.6860    5.9589 H   0  0  0  0  0  0  0  0  0  0  0  0
    5.3504   -0.6950    1.7917 C   0  0  0  0  0  0  0  0  0  0  0  0
    6.1938   -0.6057    1.1065 H   0  0  0  0  0  0  0  0  0  0  0  0
    4.4779   -0.2539    1.3033 H   0  0  0  0  0  0  0  0  0  0  0  0
    5.0652    4.9106    3.1169 C   0  0  0  0  0  0  0  0  0  0  0  0
    4.6610    5.7197    2.0566 C   0  0  0  0  0  0  0  0  0  0  0  0
    4.2269    7.0098    2.3323 C   0  0  0  0  0  0  0  0  0  0  0  0
    3.9227    7.6412    1.5096 H   0  0  0  0  0  0  0  0  0  0  0  0
    4.1778    7.5009    3.6257 C   0  0  0  0  0  0  0  0  0  0  0  0
    4.5421    6.6595    4.6676 C   0  0  0  0  0  0  0  0  0  0  0  0
    4.4852    7.0212    5.6839 H   0  0  0  0  0  0  0  0  0  0  0  0
    4.9852    5.3681    4.4378 C   0  0  0  0  0  0  0  0  0  0  0  0
    5.3622    4.4776    5.5775 C   0  0  0  0  0  0  0  0  0  0  0  0
    5.3290    5.0165    6.5199 H   0  0  0  0  0  0  0  0  0  0  0  0
    6.3579    4.0559    5.4405 H   0  0  0  0  0  0  0  0  0  0  0  0
    4.6374    3.6384    5.6412 H   0  0  0  0  0  0  0  0  0  0  0  0
    3.7707    8.9166    3.8958 C   0  0  0  0  0  0  0  0  0  0  0  0
    3.1043    9.2833    3.1194 H   0  0  0  0  0  0  0  0  0  0  0  0
    4.6530    9.5579    3.9169 H   0  0  0  0  0  0  0  0  0  0  0  0
    3.2727    8.9973    4.8585 H   0  0  0  0  0  0  0  0  0  0  0  0
    4.6707    5.2498    0.6317 C   0  0  0  0  0  0  0  0  0  0  0  0
    3.6768    5.3664    0.2027 H   0  0  0  0  0  0  0  0  0  0  0  0
    4.9533    4.2055    0.5496 H   0  0  0  0  0  0  0  0  0  0  0  0
    5.3617    5.8481    0.0384 H   0  0  0  0  0  0  0  0  0  0  0  0
    1.4962    4.7955    3.5811 C   0  0  0  0  0  0  0  0  0  0  0  0
    1.2042    5.6685    2.5413 C   0  0  0  0  0  0  0  0  0  0  0  0
    1.2428    5.3276    1.5169 H   0  0  0  0  0  0  0  0  0  0  0  0
    0.8526    6.9785    2.8160 C   0  0  0  0  0  0  0  0  0  0  0  0
    0.6135    7.6494    2.0026 H   0  0  0  0  0  0  0  0  0  0  0  0
    0.7970    7.4296    4.1231 C   0  0  0  0  0  0  0  0  0  0  0  0
    0.5035    8.4485    4.3312 H   0  0  0  0  0  0  0  0  0  0  0  0
    1.1280    6.5740    5.1618 C   0  0  0  0  0  0  0  0  0  0  0  0
    1.1028    6.9268    6.1829 H   0  0  0  0  0  0  0  0  0  0  0  0
    1.4855    5.2675    4.8924 C   0  0  0  0  0  0  0  0  0  0  0  0
    1.7521    4.5906    5.6931 H   0  0  0  0  0  0  0  0  0  0  0  0
    0.3650    2.2142    3.8937 C   0  0  0  0  0  0  0  0  0  0  0  0
    0.2673    0.8561    3.6024 C   0  0  0  0  0  0  0  0  0  0  0  0
    1.0748    0.3722    3.0670 H   0  0  0  0  0  0  0  0  0  0  0  0
   -0.8382    0.1296    3.9963 C   0  0  0  0  0  0  0  0  0  0  0  0
   -0.9012   -0.9254    3.7700 H   0  0  0  0  0  0  0  0  0  0  0  0
   -1.8623    0.7540    4.6907 C   0  0  0  0  0  0  0  0  0  0  0  0
   -2.7260    0.1874    5.0073 H   0  0  0  0  0  0  0  0  0  0  0  0
   -1.7706    2.1029    4.9845 C   0  0  0  0  0  0  0  0  0  0  0  0
   -2.5650    2.5918    5.5305 H   0  0  0  0  0  0  0  0  0  0  0  0
   -0.6627    2.8337    4.5902 C   0  0  0  0  0  0  0  0  0  0  0  0
   -0.5982    3.8842    4.8340 H   0  0  0  0  0  0  0  0  0  0  0  0
    1.6937    2.7807    1.5661 C   0  0  0  0  0  0  0  0  0  0  0  0
    2.7586    2.3379    0.7954 C   0  0  0  0  0  0  0  0  0  0  0  0
    3.7108    2.1723    1.2784 H   0  0  0  0  0  0  0  0  0  0  0  0
    2.6029    2.1063   -0.5603 C   0  0  0  0  0  0  0  0  0  0  0  0
    3.4399    1.7610   -1.1512 H   0  0  0  0  0  0  0  0  0  0  0  0
    1.3717    2.3136   -1.1577 C   0  0  0  0  0  0  0  0  0  0  0  0
    1.2448    2.1336   -2.2153 H   0  0  0  0  0  0  0  0  0  0  0  0
    0.2978    2.7446   -0.3936 C   0  0  0  0  0  0  0  0  0  0  0  0
   -0.6659    2.8993   -0.8575 H   0  0  0  0  0  0  0  0  0  0  0  0
    0.4542    2.9724    0.9606 C   0  0  0  0  0  0  0  0  0  0  0  0
   -0.3866    3.2977    1.5581 H   0  0  0  0  0  0  0  0  0  0  0  0
  1  2  1  0  0  0  0
  3 62  1  0  0  0  0
  3 73  1  0  0  0  0
  3  1  1  0  0  0  0
  4  6  1  0  0  0  0
  5 42  1  0  0  0  0
  5  6  1  0  0  0  0
  6  1  1  1  0  0  0
  7  8  2  0  0  0  0
  7  4  1  0  0  0  0
  8  5  1  0  0  0  0
  9 10  1  0  0  0  0
  9 11  1  0  0  0  0
  9  8  1  0  0  0  0
 12  9  1  0  0  0  0
 13  7  1  0  0  0  0
 13 16  1  0  0  0  0
 14 13  1  0  0  0  0
 15 13  1  0  0  0  0
 17  4  1  6  0  0  0
 17 18  1  0  0  0  0
 17 33  1  0  0  0  0
 18 21  1  0  0  0  0
 18 19  1  0  0  0  0
 20 18  1  0  0  0  0
 21 22  1  1  0  0  0
 21 36  1  0  0  0  0
 23 25  1  0  0  0  0
 23 21  1  0  0  0  0
 24 23  1  0  0  0  0
 26 27  1  6  0  0  0
 26 23  1  0  0  0  0
 26 28  1  0  0  0  0
 28 30  1  0  0  0  0
 28 31  1  0  0  0  0
 29 28  1  0  0  0  0
 31 32  1  1  0  0  0
 31 36  1  0  0  0  0
 33 31  1  0  0  0  0
 33 35  1  0  0  0  0
 34 33  1  0  0  0  0
 36 37  1  0  0  0  0
 36 38  1  0  0  0  0
 39 26  1  0  0  0  0
 39 17  1  0  0  0  0
 40 39  1  0  0  0  0
 41 39  1  0  0  0  0
 42 49  1  0  0  0  0
 43 44  1  0  0  0  0
 43 42  2  0  0  0  0
 44 46  2  0  0  0  0
 45 44  1  0  0  0  0
 46 54  1  0  0  0  0
 46 47  1  0  0  0  0
 47 48  1  0  0  0  0
 49 47  2  0  0  0  0
 49 50  1  0  0  0  0
 50 53  1  0  0  0  0
 50 51  1  0  0  0  0
 52 50  1  0  0  0  0
 54 56  1  0  0  0  0
 54 57  1  0  0  0  0
 55 54  1  0  0  0  0
 58 43  1  0  0  0  0
 59 58  1  0  0  0  0
 60 58  1  0  0  0  0
 61 58  1  0  0  0  0
 62 71  1  0  0  0  0
 63 65  1  0  0  0  0
 63 62  2  0  0  0  0
 64 63  1  0  0  0  0
 65 67  2  0  0  0  0
 66 65  1  0  0  0  0
 67 68  1  0  0  0  0
 67 69  1  0  0  0  0
 69 70  1  0  0  0  0
 71 69  2  0  0  0  0
 71 72  1  0  0  0  0
 73 82  1  0  0  0  0
 74 73  2  0  0  0  0
 74 76  1  0  0  0  0
 75 74  1  0  0  0  0
 76 78  2  0  0  0  0
 77 76  1  0  0  0  0
 78 80  1  0  0  0  0
 78 79  1  0  0  0  0
 80 81  1  0  0  0  0
 82 83  1  0  0  0  0
 82 80  2  0  0  0  0
 84  3  1  0  0  0  0
 85 86  1  0  0  0  0
 85 84  2  0  0  0  0
 87 85  1  0  0  0  0
 88 87  1  0  0  0  0
 89 87  2  0  0  0  0
 89 91  1  0  0  0  0
 90 89  1  0  0  0  0
 91 93  2  0  0  0  0
 92 91  1  0  0  0  0
 93 94  1  0  0  0  0
 93 84  1  0  0  0  0
M  END
$$$$
