CSD_code = COBWOG | q = 0 | S = 0 | Stoichiometry = C44H36Cl2O2P2Pd | MND = 4
 OpenBabel04212202023D

 87 94  0  0  1  0  0  0  0  0999 V2000
   14.4060   18.5221   35.4961 Pd  0  0  0  0  0  0  0  0  0  0  0  0
   16.3069   18.1297   36.7192 Cl  0  0  0  0  0  0  0  0  0  0  0  0
   13.3932   19.8407   37.0634 Cl  0  0  0  0  0  0  0  0  0  0  0  0
   12.6311   18.8109   34.1971 P   0  0  0  0  0  4  0  0  0  0  0  0
   15.7145   17.4229   34.0653 P   0  0  0  0  0  4  0  0  0  0  0  0
   12.7505   17.9558   32.8217 O   0  0  0  0  0  0  0  0  0  0  0  0
   15.3322   17.1288   32.5123 O   0  0  0  0  0  0  0  0  0  0  0  0
   12.0781   20.3834   33.5076 C   0  0  0  0  0  0  0  0  0  0  0  0
   11.8484   21.4267   34.4006 C   0  0  0  0  0  0  0  0  0  0  0  0
   12.0160   21.2629   35.4572 H   0  0  0  0  0  0  0  0  0  0  0  0
   11.4254   22.6540   33.9249 C   0  0  0  0  0  0  0  0  0  0  0  0
   11.2454   23.4649   34.6147 H   0  0  0  0  0  0  0  0  0  0  0  0
   11.2374   22.8440   32.5644 C   0  0  0  0  0  0  0  0  0  0  0  0
   10.9085   23.8039   32.1940 H   0  0  0  0  0  0  0  0  0  0  0  0
   11.4765   21.8070   31.6769 C   0  0  0  0  0  0  0  0  0  0  0  0
   11.3338   21.9590   30.6167 H   0  0  0  0  0  0  0  0  0  0  0  0
   11.8993   20.5744   32.1420 C   0  0  0  0  0  0  0  0  0  0  0  0
   12.0922   19.7631   31.4566 H   0  0  0  0  0  0  0  0  0  0  0  0
   11.1578   18.0616   34.9711 C   0  0  0  0  0  0  0  0  0  0  0  0
   11.3426   17.2718   36.0995 C   0  0  0  0  0  0  0  0  0  0  0  0
   12.3339   17.2176   36.5639 H   0  0  0  0  0  0  0  0  0  0  0  0
   10.2691   16.5892   36.6436 C   0  0  0  0  0  0  0  0  0  0  0  0
   10.4046   15.9810   37.5258 H   0  0  0  0  0  0  0  0  0  0  0  0
    9.0191   16.6882   36.0540 C   0  0  0  0  0  0  0  0  0  0  0  0
    8.1812   16.1542   36.4774 H   0  0  0  0  0  0  0  0  0  0  0  0
    8.8363   17.4733   34.9264 C   0  0  0  0  0  0  0  0  0  0  0  0
    7.8591   17.5486   34.4728 H   0  0  0  0  0  0  0  0  0  0  0  0
    9.9042   18.1622   34.3818 C   0  0  0  0  0  0  0  0  0  0  0  0
    9.7768   18.7767   33.5012 H   0  0  0  0  0  0  0  0  0  0  0  0
   16.2347   15.7906   34.7026 C   0  0  0  0  0  0  0  0  0  0  0  0
   15.4223   15.2541   35.6975 C   0  0  0  0  0  0  0  0  0  0  0  0
   14.6018   15.8561   36.1014 H   0  0  0  0  0  0  0  0  0  0  0  0
   15.6769   13.9947   36.2036 C   0  0  0  0  0  0  0  0  0  0  0  0
   15.0489   13.5859   36.9816 H   0  0  0  0  0  0  0  0  0  0  0  0
   16.7484   13.2621   35.7178 C   0  0  0  0  0  0  0  0  0  0  0  0
   16.9551   12.2797   36.1158 H   0  0  0  0  0  0  0  0  0  0  0  0
   17.5601   13.7930   34.7305 C   0  0  0  0  0  0  0  0  0  0  0  0
   18.4004   13.2256   34.3582 H   0  0  0  0  0  0  0  0  0  0  0  0
   17.3038   15.0525   34.2174 C   0  0  0  0  0  0  0  0  0  0  0  0
   17.9407   15.4563   33.4466 H   0  0  0  0  0  0  0  0  0  0  0  0
   17.0587   18.5653   33.6270 C   0  0  0  0  0  0  0  0  0  0  0  0
   16.9123   19.8823   34.0590 C   0  0  0  0  0  0  0  0  0  0  0  0
   16.0551   20.1694   34.6864 H   0  0  0  0  0  0  0  0  0  0  0  0
   17.8531   20.8347   33.7118 C   0  0  0  0  0  0  0  0  0  0  0  0
   17.7410   21.8524   34.0553 H   0  0  0  0  0  0  0  0  0  0  0  0
   18.9381   20.4821   32.9251 C   0  0  0  0  0  0  0  0  0  0  0  0
   19.6787   21.2233   32.6633 H   0  0  0  0  0  0  0  0  0  0  0  0
   19.0661   19.1825   32.4639 C   0  0  0  0  0  0  0  0  0  0  0  0
   19.9020   18.9119   31.8351 H   0  0  0  0  0  0  0  0  0  0  0  0
   18.1246   18.2267   32.8030 C   0  0  0  0  0  0  0  0  0  0  0  0
   18.2129   17.2238   32.4145 H   0  0  0  0  0  0  0  0  0  0  0  0
   13.9651   16.7515   30.6081 C   0  0  0  0  0  0  0  0  0  0  0  0
   14.1833   18.0677   30.2256 C   0  0  0  0  0  0  0  0  0  0  0  0
   14.5978   18.7673   30.9350 H   0  0  0  0  0  0  0  0  0  0  0  0
   13.3527   17.5801   28.0264 C   0  0  0  0  0  0  0  0  0  0  0  0
   13.1159   17.9017   27.0230 H   0  0  0  0  0  0  0  0  0  0  0  0
   13.8764   18.4786   28.9396 C   0  0  0  0  0  0  0  0  0  0  0  0
   14.0492   19.5054   28.6525 H   0  0  0  0  0  0  0  0  0  0  0  0
   13.1360   16.2651   28.4039 C   0  0  0  0  0  0  0  0  0  0  0  0
   12.7288   15.5578   27.6968 H   0  0  0  0  0  0  0  0  0  0  0  0
   13.4393   15.8504   29.6881 C   0  0  0  0  0  0  0  0  0  0  0  0
   13.2637   14.8258   29.9818 H   0  0  0  0  0  0  0  0  0  0  0  0
   14.8048   14.8793   32.0244 C   0  0  0  0  0  0  0  0  0  0  0  0
   14.3286   13.8450   32.8135 C   0  0  0  0  0  0  0  0  0  0  0  0
   13.4732   13.9869   33.4491 H   0  0  0  0  0  0  0  0  0  0  0  0
   14.9481   12.6056   32.7899 C   0  0  0  0  0  0  0  0  0  0  0  0
   14.5643   11.8115   33.4125 H   0  0  0  0  0  0  0  0  0  0  0  0
   16.0500   12.3855   31.9854 C   0  0  0  0  0  0  0  0  0  0  0  0
   16.5303   11.4188   31.9738 H   0  0  0  0  0  0  0  0  0  0  0  0
   16.5345   13.4152   31.1960 C   0  0  0  0  0  0  0  0  0  0  0  0
   17.3954   13.2561   30.5637 H   0  0  0  0  0  0  0  0  0  0  0  0
   15.9175   14.6503   31.2174 C   0  0  0  0  0  0  0  0  0  0  0  0
   16.2968   15.4580   30.6084 H   0  0  0  0  0  0  0  0  0  0  0  0
   11.7493   15.8211   32.6667 C   0  0  0  0  0  0  0  0  0  0  0  0
   10.9822   16.1202   31.5475 C   0  0  0  0  0  0  0  0  0  0  0  0
   11.3388   16.8473   30.8363 H   0  0  0  0  0  0  0  0  0  0  0  0
    9.7549   15.5106   31.3572 C   0  0  0  0  0  0  0  0  0  0  0  0
    9.1719   15.7498   30.4804 H   0  0  0  0  0  0  0  0  0  0  0  0
    9.2686   14.6123   32.2906 C   0  0  0  0  0  0  0  0  0  0  0  0
    8.3088   14.1408   32.1425 H   0  0  0  0  0  0  0  0  0  0  0  0
   10.0082   14.3404   33.4283 C   0  0  0  0  0  0  0  0  0  0  0  0
    9.6236   13.6656   34.1781 H   0  0  0  0  0  0  0  0  0  0  0  0
   11.2354   14.9479   33.6191 C   0  0  0  0  0  0  0  0  0  0  0  0
   11.7817   14.7603   34.5334 H   0  0  0  0  0  0  0  0  0  0  0  0
   13.0330   16.5631   32.9324 C   0  0  1  0  0  0  0  0  0  0  0  0
   13.3689   16.3353   33.9642 H   0  0  0  0  0  0  0  0  0  0  0  0
   14.2666   16.2983   32.0252 C   0  0  0  0  0  0  0  0  0  0  0  0
  1  2  1  0  0  0  0
  1  3  1  0  0  0  0
  4 19  1  0  0  0  0
  4  1  1  0  0  0  0
  5 30  1  0  0  0  0
  5  1  1  0  0  0  0
  6 85  1  0  0  0  0
  6  4  1  0  0  0  0
  7  5  1  0  0  0  0
  8  4  1  0  0  0  0
  8  9  1  0  0  0  0
  9 10  1  0  0  0  0
 11  9  2  0  0  0  0
 11 12  1  0  0  0  0
 13 11  1  0  0  0  0
 14 13  1  0  0  0  0
 15 17  1  0  0  0  0
 15 13  2  0  0  0  0
 16 15  1  0  0  0  0
 17  8  2  0  0  0  0
 18 17  1  0  0  0  0
 19 20  1  0  0  0  0
 20 21  1  0  0  0  0
 20 22  2  0  0  0  0
 22 23  1  0  0  0  0
 24 25  1  0  0  0  0
 24 22  1  0  0  0  0
 26 24  2  0  0  0  0
 27 26  1  0  0  0  0
 28 26  1  0  0  0  0
 28 19  2  0  0  0  0
 29 28  1  0  0  0  0
 30 31  1  0  0  0  0
 31 32  1  0  0  0  0
 31 33  2  0  0  0  0
 33 34  1  0  0  0  0
 35 36  1  0  0  0  0
 35 33  1  0  0  0  0
 37 35  2  0  0  0  0
 38 37  1  0  0  0  0
 39 30  2  0  0  0  0
 39 37  1  0  0  0  0
 40 39  1  0  0  0  0
 41 42  1  0  0  0  0
 41  5  1  0  0  0  0
 42 43  1  0  0  0  0
 44 45  1  0  0  0  0
 44 42  2  0  0  0  0
 46 44  1  0  0  0  0
 47 46  1  0  0  0  0
 48 50  1  0  0  0  0
 48 46  2  0  0  0  0
 49 48  1  0  0  0  0
 50 41  2  0  0  0  0
 51 50  1  0  0  0  0
 52 87  1  0  0  0  0
 53 52  1  0  0  0  0
 53 54  1  0  0  0  0
 55 59  2  0  0  0  0
 55 57  1  0  0  0  0
 56 55  1  0  0  0  0
 57 53  2  0  0  0  0
 58 57  1  0  0  0  0
 59 61  1  0  0  0  0
 60 59  1  0  0  0  0
 61 62  1  0  0  0  0
 61 52  2  0  0  0  0
 63 87  1  0  0  0  0
 63 64  1  0  0  0  0
 64 65  1  0  0  0  0
 66 64  2  0  0  0  0
 66 67  1  0  0  0  0
 68 66  1  0  0  0  0
 69 68  1  0  0  0  0
 70 72  1  0  0  0  0
 70 68  2  0  0  0  0
 71 70  1  0  0  0  0
 72 63  2  0  0  0  0
 73 72  1  0  0  0  0
 74 85  1  0  0  0  0
 74 83  1  0  0  0  0
 75 74  2  0  0  0  0
 76 75  1  0  0  0  0
 77 75  1  0  0  0  0
 77 79  2  0  0  0  0
 78 77  1  0  0  0  0
 79 81  1  0  0  0  0
 80 79  1  0  0  0  0
 81 83  2  0  0  0  0
 81 82  1  0  0  0  0
 83 84  1  0  0  0  0
 85 86  1  1  0  0  0
 87  7  1  0  0  0  0
 87 85  1  0  0  0  0
M  END
$$$$
