CSD_code = COBWEW | q = 0 | S = 0 | Stoichiometry = C32H32Cl2O6P2Pd | MND = 4
 OpenBabel04212202023D

 75 79  0  0  1  0  0  0  0  0999 V2000
   13.1869    2.2971    3.5119 Pd  0  0  0  0  0  0  0  0  0  0  0  0
   15.0633    1.0337    3.7946 Cl  0  0  0  0  0  0  0  0  0  0  0  0
   13.9622    4.2673    4.3757 Cl  0  0  0  0  0  0  0  0  0  0  0  0
   12.6031    0.3624    2.5595 P   0  0  0  0  0  4  0  0  0  0  0  0
   11.5371    3.6979    3.0492 P   0  0  0  0  0  4  0  0  0  0  0  0
   10.3328    2.9236    2.2154 O   0  0  0  0  0  0  0  0  0  0  0  0
   11.2982    0.2199    1.5739 O   0  0  0  0  0  0  0  0  0  0  0  0
    8.2873    2.7884    4.2290 O   0  0  0  0  0  0  0  0  0  0  0  0
    7.4327    1.4919    2.6080 O   0  0  0  0  0  0  0  0  0  0  0  0
    9.2045   -0.6361    3.7635 O   0  0  0  0  0  0  0  0  0  0  0  0
    8.8462   -1.5839    1.7680 O   0  0  0  0  0  0  0  0  0  0  0  0
   13.7306   -0.3903    1.3563 C   0  0  0  0  0  0  0  0  0  0  0  0
   14.6386   -1.3743    1.7267 C   0  0  0  0  0  0  0  0  0  0  0  0
   14.6685   -1.7208    2.7490 H   0  0  0  0  0  0  0  0  0  0  0  0
   15.5161   -1.8851    0.7877 C   0  0  0  0  0  0  0  0  0  0  0  0
   16.2213   -2.6505    1.0758 H   0  0  0  0  0  0  0  0  0  0  0  0
   15.4997   -1.4114   -0.5142 C   0  0  0  0  0  0  0  0  0  0  0  0
   16.1910   -1.8097   -1.2421 H   0  0  0  0  0  0  0  0  0  0  0  0
   14.6038   -0.4205   -0.8804 C   0  0  0  0  0  0  0  0  0  0  0  0
   14.5963   -0.0442   -1.8930 H   0  0  0  0  0  0  0  0  0  0  0  0
   13.7219    0.0941    0.0526 C   0  0  0  0  0  0  0  0  0  0  0  0
   13.0179    0.8662   -0.2263 H   0  0  0  0  0  0  0  0  0  0  0  0
   12.3326   -0.8655    3.8727 C   0  0  0  0  0  0  0  0  0  0  0  0
   12.3823   -0.4316    5.1929 C   0  0  0  0  0  0  0  0  0  0  0  0
   12.6043    0.6231    5.4105 H   0  0  0  0  0  0  0  0  0  0  0  0
   12.1849   -1.3366    6.2203 C   0  0  0  0  0  0  0  0  0  0  0  0
   12.2389   -1.0097    7.2484 H   0  0  0  0  0  0  0  0  0  0  0  0
   11.9252   -2.6672    5.9279 C   0  0  0  0  0  0  0  0  0  0  0  0
   11.7769   -3.3748    6.7304 H   0  0  0  0  0  0  0  0  0  0  0  0
   11.8525   -3.0941    4.6107 C   0  0  0  0  0  0  0  0  0  0  0  0
   11.6465   -4.1313    4.3892 H   0  0  0  0  0  0  0  0  0  0  0  0
   12.0552   -2.1950    3.5787 C   0  0  0  0  0  0  0  0  0  0  0  0
   12.0014   -2.5121    2.5459 H   0  0  0  0  0  0  0  0  0  0  0  0
   10.5974    4.7707    4.1731 C   0  0  0  0  0  0  0  0  0  0  0  0
   10.9323    4.8568    5.5169 C   0  0  0  0  0  0  0  0  0  0  0  0
   11.7908    4.3108    5.8853 H   0  0  0  0  0  0  0  0  0  0  0  0
   10.1818    5.6571    6.3607 C   0  0  0  0  0  0  0  0  0  0  0  0
   10.4442    5.7322    7.4053 H   0  0  0  0  0  0  0  0  0  0  0  0
    9.0975    6.3628    5.8662 C   0  0  0  0  0  0  0  0  0  0  0  0
    8.5172    6.9931    6.5244 H   0  0  0  0  0  0  0  0  0  0  0  0
    8.7475    6.2564    4.5282 C   0  0  0  0  0  0  0  0  0  0  0  0
    7.8938    6.7987    4.1471 H   0  0  0  0  0  0  0  0  0  0  0  0
    9.4898    5.4551    3.6810 C   0  0  0  0  0  0  0  0  0  0  0  0
    9.2088    5.3391    2.6430 H   0  0  0  0  0  0  0  0  0  0  0  0
   12.1893    4.7304    1.7064 C   0  0  0  0  0  0  0  0  0  0  0  0
   13.1524    4.1147    0.9054 C   0  0  0  0  0  0  0  0  0  0  0  0
   13.4369    3.0713    1.0959 H   0  0  0  0  0  0  0  0  0  0  0  0
   13.7648    4.8210   -0.1122 C   0  0  0  0  0  0  0  0  0  0  0  0
   14.5115    4.3425   -0.7285 H   0  0  0  0  0  0  0  0  0  0  0  0
   13.4329    6.1504   -0.3261 C   0  0  0  0  0  0  0  0  0  0  0  0
   13.9174    6.7064   -1.1149 H   0  0  0  0  0  0  0  0  0  0  0  0
   12.4987    6.7714    0.4849 C   0  0  0  0  0  0  0  0  0  0  0  0
   12.2587    7.8134    0.3322 H   0  0  0  0  0  0  0  0  0  0  0  0
   11.8792    6.0685    1.5050 C   0  0  0  0  0  0  0  0  0  0  0  0
   11.1744    6.5671    2.1535 H   0  0  0  0  0  0  0  0  0  0  0  0
    9.8316    1.7475    2.8123 C   0  0  2  0  0  0  0  0  0  0  0  0
   10.3970    1.5166    3.7372 H   0  0  0  0  0  0  0  0  0  0  0  0
    9.9608    0.5600    1.8601 C   0  0  2  0  0  0  0  0  0  0  0  0
    9.4931    0.7986    0.8964 H   0  0  0  0  0  0  0  0  0  0  0  0
    9.2552   -0.6798    2.4369 C   0  0  0  0  0  0  0  0  0  0  0  0
    8.5540   -1.7429    4.4087 C   0  0  0  0  0  0  0  0  0  0  0  0
    7.5613   -1.8632    3.9629 H   0  0  0  0  0  0  0  0  0  0  0  0
    9.1355   -2.6492    4.2112 H   0  0  0  0  0  0  0  0  0  0  0  0
    8.4741   -1.4494    5.8932 C   0  0  0  0  0  0  0  0  0  0  0  0
    9.4732   -1.3172    6.2990 H   0  0  0  0  0  0  0  0  0  0  0  0
    7.9896   -2.2786    6.4001 H   0  0  0  0  0  0  0  0  0  0  0  0
    7.9014   -0.5432    6.0674 H   0  0  0  0  0  0  0  0  0  0  0  0
    8.3652    1.9731    3.1925 C   0  0  0  0  0  0  0  0  0  0  0  0
    6.9769    3.1630    4.6782 C   0  0  0  0  0  0  0  0  0  0  0  0
    7.1247    4.1108    5.1989 H   0  0  0  0  0  0  0  0  0  0  0  0
    6.3347    3.3066    3.8040 H   0  0  0  0  0  0  0  0  0  0  0  0
    6.3860    2.1086    5.6003 C   0  0  0  0  0  0  0  0  0  0  0  0
    6.2423    1.1784    5.0559 H   0  0  0  0  0  0  0  0  0  0  0  0
    5.4237    2.4498    5.9707 H   0  0  0  0  0  0  0  0  0  0  0  0
    7.0494    1.9351    6.4441 H   0  0  0  0  0  0  0  0  0  0  0  0
  1  2  1  0  0  0  0
  1  3  1  0  0  0  0
  4  1  1  0  0  0  0
  4 23  1  0  0  0  0
  5  1  1  0  0  0  0
  5 34  1  0  0  0  0
  6 56  1  0  0  0  0
  6  5  1  0  0  0  0
  7 58  1  0  0  0  0
  7  4  1  0  0  0  0
  8 69  1  0  0  0  0
  9 68  2  0  0  0  0
 10 61  1  0  0  0  0
 11 60  2  0  0  0  0
 12 13  1  0  0  0  0
 12  4  1  0  0  0  0
 13 14  1  0  0  0  0
 15 16  1  0  0  0  0
 15 13  2  0  0  0  0
 17 15  1  0  0  0  0
 18 17  1  0  0  0  0
 19 17  2  0  0  0  0
 19 21  1  0  0  0  0
 20 19  1  0  0  0  0
 21 12  2  0  0  0  0
 22 21  1  0  0  0  0
 23 24  1  0  0  0  0
 24 25  1  0  0  0  0
 24 26  2  0  0  0  0
 26 27  1  0  0  0  0
 28 26  1  0  0  0  0
 28 29  1  0  0  0  0
 30 28  2  0  0  0  0
 31 30  1  0  0  0  0
 32 23  2  0  0  0  0
 32 30  1  0  0  0  0
 33 32  1  0  0  0  0
 34 35  1  0  0  0  0
 35 36  1  0  0  0  0
 35 37  2  0  0  0  0
 37 38  1  0  0  0  0
 39 37  1  0  0  0  0
 39 40  1  0  0  0  0
 41 39  2  0  0  0  0
 42 41  1  0  0  0  0
 43 34  2  0  0  0  0
 43 41  1  0  0  0  0
 44 43  1  0  0  0  0
 45  5  1  0  0  0  0
 46 47  1  0  0  0  0
 46 45  2  0  0  0  0
 48 46  1  0  0  0  0
 49 48  1  0  0  0  0
 50 48  2  0  0  0  0
 50 52  1  0  0  0  0
 51 50  1  0  0  0  0
 52 54  2  0  0  0  0
 53 52  1  0  0  0  0
 54 45  1  0  0  0  0
 54 55  1  0  0  0  0
 56 68  1  0  0  0  0
 56 57  1  1  0  0  0
 58 59  1  6  0  0  0
 58 60  1  0  0  0  0
 58 56  1  0  0  0  0
 60 10  1  0  0  0  0
 61 64  1  0  0  0  0
 62 61  1  0  0  0  0
 63 61  1  0  0  0  0
 64 67  1  0  0  0  0
 64 65  1  0  0  0  0
 64 66  1  0  0  0  0
 68  8  1  0  0  0  0
 69 70  1  0  0  0  0
 69 72  1  0  0  0  0
 71 69  1  0  0  0  0
 72 74  1  0  0  0  0
 72 75  1  0  0  0  0
 73 72  1  0  0  0  0
M  END
$$$$
