CSD_code = COBWEX | q = 0 | S = 0 | Stoichiometry = C18H24Cl2FeN4 | MND = 6
 OpenBabel04212202023D

 49 54  0  0  1  0  0  0  0  0999 V2000
    7.4957   11.3666   14.3898 Fe  0  0  0  0  0  0  0  0  0  0  0  0
    6.4027    9.8128   15.4975 Cl  0  0  0  0  0  0  0  0  0  0  0  0
    6.1002   12.9463   15.0168 Cl  0  0  0  0  0  0  0  0  0  0  0  0
    6.4541   11.1259   12.8077 N   0  0  0  0  0  0  0  0  0  0  0  0
    8.5104   12.6634   13.1435 N   0  0  2  0  0  4  0  0  0  0  0  0
    8.9824   13.3986   13.6628 H   0  0  0  0  0  0  0  0  0  0  0  0
    8.9974   10.0436   13.8823 N   0  0  1  0  0  4  0  0  0  0  0  0
    8.6636    9.3073   13.2663 H   0  0  0  0  0  0  0  0  0  0  0  0
    8.6229   11.6064   15.9117 N   0  0  0  0  0  0  0  0  0  0  0  0
    5.6272   10.1142   12.5344 C   0  0  0  0  0  3  0  0  0  0  0  0
    5.5789    9.3461   13.2917 H   0  0  0  0  0  0  0  0  0  0  0  0
    4.8544   10.0585   11.3909 C   0  0  0  0  0  0  0  0  0  0  0  0
    4.1952    9.2202   11.2320 H   0  0  0  0  0  0  0  0  0  0  0  0
    4.9345   11.0921   10.4700 C   0  0  0  0  0  0  0  0  0  0  0  0
    4.3416   11.0865    9.5687 H   0  0  0  0  0  0  0  0  0  0  0  0
    5.7976   12.1440   10.7447 C   0  0  0  0  0  0  0  0  0  0  0  0
    5.8923   12.9771   10.0648 H   0  0  0  0  0  0  0  0  0  0  0  0
    6.5299   12.1321   11.9164 C   0  0  0  0  0  0  0  0  0  0  0  0
    7.4555   13.2449   12.3135 C   0  0  0  0  0  0  0  0  0  0  0  0
    7.8423   13.7797   11.4372 H   0  0  0  0  0  0  0  0  0  0  0  0
    6.8897   13.9339   12.9486 H   0  0  0  0  0  0  0  0  0  0  0  0
    9.4765   11.8907   12.3584 C   0  0  1  0  0  0  0  0  0  0  0  0
    8.9153   11.4050   11.5515 H   0  0  0  0  0  0  0  0  0  0  0  0
   10.5931   12.7472   11.7564 C   0  0  0  0  0  0  0  0  0  0  0  0
   10.1679   13.5275   11.1225 H   0  0  0  0  0  0  0  0  0  0  0  0
   11.1465   13.2341   12.5641 H   0  0  0  0  0  0  0  0  0  0  0  0
   11.5455   11.8794   10.9373 C   0  0  0  0  0  0  0  0  0  0  0  0
   11.0032   11.4412   10.0965 H   0  0  0  0  0  0  0  0  0  0  0  0
   12.3487   12.4959   10.5311 H   0  0  0  0  0  0  0  0  0  0  0  0
   12.1327   10.7652   11.7986 C   0  0  0  0  0  0  0  0  0  0  0  0
   12.7856   10.1343   11.1938 H   0  0  0  0  0  0  0  0  0  0  0  0
   12.7369   11.2027   12.5966 H   0  0  0  0  0  0  0  0  0  0  0  0
   11.0209    9.9179   12.4128 C   0  0  0  0  0  0  0  0  0  0  0  0
   10.4502    9.4321   11.6166 H   0  0  0  0  0  0  0  0  0  0  0  0
   11.4558    9.1368   13.0392 H   0  0  0  0  0  0  0  0  0  0  0  0
   10.0798   10.7952   13.2418 C   0  0  2  0  0  0  0  0  0  0  0  0
   10.6479   11.2811   14.0438 H   0  0  0  0  0  0  0  0  0  0  0  0
    9.4022    9.4682   15.1649 C   0  0  0  0  0  0  0  0  0  0  0  0
   10.3504    8.9192   15.1108 H   0  0  0  0  0  0  0  0  0  0  0  0
    8.6006    8.7934   15.4821 H   0  0  0  0  0  0  0  0  0  0  0  0
    9.4700   10.5898   16.1599 C   0  0  2  0  0  3  0  0  0  0  0  0
   10.3151   10.5765   17.2531 C   0  0  0  0  0  0  0  0  0  0  0  0
   10.9731    9.7349   17.4087 H   0  0  0  0  0  0  0  0  0  0  0  0
   10.2896   11.6382   18.1470 C   0  0  0  0  0  0  0  0  0  0  0  0
   10.9296   11.6431   19.0155 H   0  0  0  0  0  0  0  0  0  0  0  0
    9.4141   12.6829   17.8919 C   0  0  0  0  0  0  0  0  0  0  0  0
    9.3476   13.5295   18.5561 H   0  0  0  0  0  0  0  0  0  0  0  0
    8.6084   12.6276   16.7713 C   0  0  0  0  0  0  0  0  0  0  0  0
    7.8931   13.4045   16.5460 H   0  0  0  0  0  0  0  0  0  0  0  0
  1  3  1  0  0  0  0
  1  2  1  0  0  0  0
  1  9  1  0  0  0  0
  4  1  1  0  0  0  0
  5  6  1  1  0  0  0
  5  1  1  0  0  0  0
  7  8  1  6  0  0  0
  7  1  1  0  0  0  0
  7 38  1  0  0  0  0
  9 41  1  0  0  0  0
  9 48  1  0  0  0  0
 10  4  1  0  0  0  0
 10 11  1  0  0  0  0
 12 10  1  0  0  0  0
 13 12  1  0  0  0  0
 14 16  1  0  0  0  0
 14 12  2  0  0  0  0
 15 14  1  0  0  0  0
 16 18  2  0  0  0  0
 17 16  1  0  0  0  0
 18 19  1  0  0  0  0
 18  4  1  0  0  0  0
 19 21  1  0  0  0  0
 19  5  1  0  0  0  0
 20 19  1  0  0  0  0
 22 23  1  6  0  0  0
 22  5  1  0  0  0  0
 22 36  1  0  0  0  0
 24 22  1  0  0  0  0
 24 26  1  0  0  0  0
 25 24  1  0  0  0  0
 27 24  1  0  0  0  0
 27 30  1  0  0  0  0
 28 27  1  0  0  0  0
 29 27  1  0  0  0  0
 30 33  1  0  0  0  0
 30 32  1  0  0  0  0
 31 30  1  0  0  0  0
 33 35  1  0  0  0  0
 33 36  1  0  0  0  0
 34 33  1  0  0  0  0
 36  7  1  0  0  0  0
 36 37  1  1  0  0  0
 38 40  1  0  0  0  0
 38 41  1  0  0  0  0
 39 38  1  0  0  0  0
 41 42  1  1  0  0  0
 42 43  1  0  0  0  0
 42 44  2  0  0  0  0
 44 45  1  0  0  0  0
 46 44  1  0  0  0  0
 46 47  1  0  0  0  0
 48 46  2  0  0  0  0
 49 48  1  0  0  0  0
M  END
$$$$
