CSD_code = COCBUT | q = 0 | S = 0 | Stoichiometry = C39H55FN3Nb | MND = 5
 OpenBabel04212202023D

 99102  0  0  1  0  0  0  0  0999 V2000
    0.0089    4.7114    5.3116 C   0  0  0  0  0  0  0  0  0  0  0  0
    0.1741    4.2577    6.2884 H   0  0  0  0  0  0  0  0  0  0  0  0
   -1.0360    4.5838    5.0415 H   0  0  0  0  0  0  0  0  0  0  0  0
    0.2230    5.7735    5.4059 H   0  0  0  0  0  0  0  0  0  0  0  0
    0.9155    4.0762    4.2826 C   0  0  2  0  0  3  0  0  0  0  0  0
    0.2910    3.3136    3.3097 C   0  0  0  0  0  0  0  0  0  0  0  0
   -0.7897    3.2918    3.3470 H   0  0  0  0  0  0  0  0  0  0  0  0
    0.8591    2.4507    2.3518 C   0  0  0  0  0  0  0  0  0  0  0  0
   -0.1392    1.5640    1.6421 C   0  0  0  0  0  0  0  0  0  0  0  0
   -0.7537    2.1693    0.9760 H   0  0  0  0  0  0  0  0  0  0  0  0
   -0.7996    1.0936    2.3691 H   0  0  0  0  0  0  0  0  0  0  0  0
    0.3525    0.7900    1.0572 H   0  0  0  0  0  0  0  0  0  0  0  0
    2.6664    4.8277    5.6215 C   0  0  0  0  0  0  0  0  0  0  0  0
    2.8693    3.9844    6.7258 C   0  0  0  0  0  0  0  0  0  0  0  0
    3.3282    4.5266    7.9178 C   0  0  0  0  0  0  0  0  0  0  0  0
    3.5108    3.8818    8.7636 H   0  0  0  0  0  0  0  0  0  0  0  0
    3.5514    5.8838    8.0408 C   0  0  0  0  0  0  0  0  0  0  0  0
    3.9098    6.2925    8.9737 H   0  0  0  0  0  0  0  0  0  0  0  0
    3.3036    6.7142    6.9664 C   0  0  0  0  0  0  0  0  0  0  0  0
    3.4642    7.7760    7.0731 H   0  0  0  0  0  0  0  0  0  0  0  0
    2.8485    6.2120    5.7543 C   0  0  0  0  0  0  0  0  0  0  0  0
    2.5766    7.1694    4.6155 C   0  0  0  0  0  0  0  0  0  0  0  0
    2.0890    6.6207    3.8044 H   0  0  0  0  0  0  0  0  0  0  0  0
    1.6559    8.3207    5.0315 C   0  0  0  0  0  0  0  0  0  0  0  0
    0.7441    7.9529    5.4989 H   0  0  0  0  0  0  0  0  0  0  0  0
    1.3805    8.9019    4.1540 H   0  0  0  0  0  0  0  0  0  0  0  0
    2.1498    8.9863    5.7345 H   0  0  0  0  0  0  0  0  0  0  0  0
    3.8982    7.7171    4.0733 C   0  0  0  0  0  0  0  0  0  0  0  0
    4.4190    8.2887    4.8385 H   0  0  0  0  0  0  0  0  0  0  0  0
    3.7140    8.3647    3.2187 H   0  0  0  0  0  0  0  0  0  0  0  0
    4.5223    6.8835    3.7553 H   0  0  0  0  0  0  0  0  0  0  0  0
    2.6318    2.4921    6.6252 C   0  0  0  0  0  0  0  0  0  0  0  0
    2.0435    2.2852    5.7224 H   0  0  0  0  0  0  0  0  0  0  0  0
    3.9784    1.7785    6.4852 C   0  0  0  0  0  0  0  0  0  0  0  0
    4.4815    2.1289    5.5799 H   0  0  0  0  0  0  0  0  0  0  0  0
    3.8311    0.7017    6.4244 H   0  0  0  0  0  0  0  0  0  0  0  0
    4.6113    1.9912    7.3448 H   0  0  0  0  0  0  0  0  0  0  0  0
    1.8474    1.9417    7.8187 C   0  0  0  0  0  0  0  0  0  0  0  0
    2.4453    1.9564    8.7261 H   0  0  0  0  0  0  0  0  0  0  0  0
    1.5563    0.9109    7.6262 H   0  0  0  0  0  0  0  0  0  0  0  0
    0.9455    2.5252    7.9936 H   0  0  0  0  0  0  0  0  0  0  0  0
    2.6075    1.4325    1.1759 C   0  0  0  0  0  0  0  0  0  0  0  0
    3.1599    0.2342    1.6467 C   0  0  0  0  0  0  0  0  0  0  0  0
    3.6095   -0.7049    0.7298 C   0  0  0  0  0  0  0  0  0  0  0  0
    4.0334   -1.6335    1.0820 H   0  0  0  0  0  0  0  0  0  0  0  0
    3.5264   -0.4699   -0.6280 C   0  0  0  0  0  0  0  0  0  0  0  0
    3.8761   -1.2125   -1.3300 H   0  0  0  0  0  0  0  0  0  0  0  0
    3.0150    0.7295   -1.0829 C   0  0  0  0  0  0  0  0  0  0  0  0
    2.9800    0.9216   -2.1446 H   0  0  0  0  0  0  0  0  0  0  0  0
    2.5468    1.6923   -0.2013 C   0  0  0  0  0  0  0  0  0  0  0  0
    2.0546    3.0173   -0.7371 C   0  0  0  0  0  0  0  0  0  0  0  0
    1.6646    3.6188    0.0912 H   0  0  0  0  0  0  0  0  0  0  0  0
    0.9307    2.8469   -1.7609 C   0  0  0  0  0  0  0  0  0  0  0  0
    1.2907    2.3488   -2.6577 H   0  0  0  0  0  0  0  0  0  0  0  0
    0.5431    3.8226   -2.0484 H   0  0  0  0  0  0  0  0  0  0  0  0
    0.1134    2.2569   -1.3502 H   0  0  0  0  0  0  0  0  0  0  0  0
    3.2322    3.7801   -1.3510 C   0  0  0  0  0  0  0  0  0  0  0  0
    4.0440    3.8589   -0.6292 H   0  0  0  0  0  0  0  0  0  0  0  0
    2.9253    4.7842   -1.6385 H   0  0  0  0  0  0  0  0  0  0  0  0
    3.6065    3.2637   -2.2321 H   0  0  0  0  0  0  0  0  0  0  0  0
    3.3233   -0.0288    3.1281 C   0  0  0  0  0  0  0  0  0  0  0  0
    2.8726    0.7989    3.6965 H   0  0  0  0  0  0  0  0  0  0  0  0
    4.8182   -0.0734    3.4625 C   0  0  0  0  0  0  0  0  0  0  0  0
    5.3117   -0.8647    2.9026 H   0  0  0  0  0  0  0  0  0  0  0  0
    4.9713   -0.2591    4.5237 H   0  0  0  0  0  0  0  0  0  0  0  0
    5.2845    0.8782    3.1974 H   0  0  0  0  0  0  0  0  0  0  0  0
    2.6178   -1.3172    3.5553 C   0  0  0  0  0  0  0  0  0  0  0  0
    1.5632   -1.2844    3.2861 H   0  0  0  0  0  0  0  0  0  0  0  0
    2.6937   -1.4470    4.6336 H   0  0  0  0  0  0  0  0  0  0  0  0
    3.0650   -2.1852    3.0773 H   0  0  0  0  0  0  0  0  0  0  0  0
    6.4088    4.5229    4.4032 C   0  0  0  0  0  0  0  0  0  0  0  0
    6.3562    5.0964    5.8300 C   0  0  0  0  0  0  0  0  0  0  0  0
    5.8852    6.0749    5.8207 H   0  0  0  0  0  0  0  0  0  0  0  0
    7.3609    5.1868    6.2351 H   0  0  0  0  0  0  0  0  0  0  0  0
    5.7691    4.4440    6.4705 H   0  0  0  0  0  0  0  0  0  0  0  0
    7.1367    3.1608    4.4129 C   0  0  0  0  0  0  0  0  0  0  0  0
    6.6844    2.4944    5.1432 H   0  0  0  0  0  0  0  0  0  0  0  0
    8.1872    3.2918    4.6599 H   0  0  0  0  0  0  0  0  0  0  0  0
    7.0516    2.7164    3.4215 H   0  0  0  0  0  0  0  0  0  0  0  0
    7.1995    5.4779    3.4858 C   0  0  0  0  0  0  0  0  0  0  0  0
    7.2202    5.0575    2.4824 H   0  0  0  0  0  0  0  0  0  0  0  0
    8.2175    5.5942    3.8491 H   0  0  0  0  0  0  0  0  0  0  0  0
    6.7210    6.4532    3.4539 H   0  0  0  0  0  0  0  0  0  0  0  0
    3.3802    5.5135    1.6502 C   0  0  0  0  0  0  0  0  0  0  0  0
    4.3955    6.1742    0.9649 C   0  0  0  0  0  0  0  0  0  0  0  0
    5.4257    5.8912    1.1476 H   0  0  0  0  0  0  0  0  0  0  0  0
    4.1170    7.1801    0.0523 C   0  0  0  0  0  0  0  0  0  0  0  0
    4.9252    7.6764   -0.4662 H   0  0  0  0  0  0  0  0  0  0  0  0
    2.8060    7.5479   -0.1984 C   0  0  0  0  0  0  0  0  0  0  0  0
    2.5840    8.3328   -0.9072 H   0  0  0  0  0  0  0  0  0  0  0  0
    1.7798    6.8961    0.4619 C   0  0  0  0  0  0  0  0  0  0  0  0
    0.7508    7.1687    0.2690 H   0  0  0  0  0  0  0  0  0  0  0  0
    2.0681    5.8884    1.3710 C   0  0  0  0  0  0  0  0  0  0  0  0
    1.2314    5.3999    1.8682 H   0  0  0  0  0  0  0  0  0  0  0  0
    2.2370    4.2419    4.3903 N   0  0  0  0  0  0  0  0  0  0  0  0
    2.1378    2.3863    2.1107 N   0  0  0  0  0  0  0  0  0  0  0  0
    5.1176    4.3298    3.8652 N   0  0  0  0  0  2  0  0  0  0  0  0
    4.8246    2.8720    1.5689 F   0  0  0  0  0  0  0  0  0  0  0  0
    3.7184    3.7321    2.9455 Nb  0  0  0  0  0  0  0  0  0  0  0  0
  1  4  1  0  0  0  0
  1  2  1  0  0  0  0
  3  1  1  0  0  0  0
  5 95  1  0  0  0  0
  5  1  1  1  0  0  0
  6  7  1  0  0  0  0
  6  5  1  0  0  0  0
  8  6  2  0  0  0  0
  9  8  1  0  0  0  0
  9 11  1  0  0  0  0
 10  9  1  0  0  0  0
 12  9  1  0  0  0  0
 13 21  2  0  0  0  0
 13 14  1  0  0  0  0
 14 15  2  0  0  0  0
 15 17  1  0  0  0  0
 15 16  1  0  0  0  0
 17 18  1  0  0  0  0
 19 20  1  0  0  0  0
 19 17  2  0  0  0  0
 21 19  1  0  0  0  0
 22 24  1  0  0  0  0
 22 21  1  0  0  0  0
 23 22  1  0  0  0  0
 24 25  1  0  0  0  0
 24 27  1  0  0  0  0
 26 24  1  0  0  0  0
 28 22  1  0  0  0  0
 28 29  1  0  0  0  0
 30 28  1  0  0  0  0
 31 28  1  0  0  0  0
 32 14  1  0  0  0  0
 32 38  1  0  0  0  0
 33 32  1  0  0  0  0
 34 32  1  0  0  0  0
 34 37  1  0  0  0  0
 35 34  1  0  0  0  0
 36 34  1  0  0  0  0
 38 41  1  0  0  0  0
 38 39  1  0  0  0  0
 40 38  1  0  0  0  0
 42 43  1  0  0  0  0
 42 96  1  0  0  0  0
 43 61  1  0  0  0  0
 44 45  1  0  0  0  0
 44 43  2  0  0  0  0
 46 44  1  0  0  0  0
 47 46  1  0  0  0  0
 48 46  2  0  0  0  0
 48 50  1  0  0  0  0
 49 48  1  0  0  0  0
 50 42  2  0  0  0  0
 51 50  1  0  0  0  0
 51 52  1  0  0  0  0
 53 56  1  0  0  0  0
 53 51  1  0  0  0  0
 54 53  1  0  0  0  0
 55 53  1  0  0  0  0
 57 51  1  0  0  0  0
 57 58  1  0  0  0  0
 59 57  1  0  0  0  0
 60 57  1  0  0  0  0
 61 63  1  0  0  0  0
 61 67  1  0  0  0  0
 61 62  1  0  0  0  0
 63 65  1  0  0  0  0
 64 63  1  0  0  0  0
 66 63  1  0  0  0  0
 67 69  1  0  0  0  0
 68 67  1  0  0  0  0
 70 67  1  0  0  0  0
 71 76  1  0  0  0  0
 71 72  1  0  0  0  0
 72 74  1  0  0  0  0
 72 75  1  0  0  0  0
 73 72  1  0  0  0  0
 76 78  1  0  0  0  0
 76 77  1  0  0  0  0
 79 76  1  0  0  0  0
 80 82  1  0  0  0  0
 80 71  1  0  0  0  0
 81 80  1  0  0  0  0
 83 80  1  0  0  0  0
 84 99  1  0  0  0  0
 85 86  1  0  0  0  0
 85 84  2  0  0  0  0
 87 85  1  0  0  0  0
 88 87  1  0  0  0  0
 89 87  2  0  0  0  0
 89 91  1  0  0  0  0
 90 89  1  0  0  0  0
 91 93  2  0  0  0  0
 92 91  1  0  0  0  0
 93 84  1  0  0  0  0
 93 94  1  0  0  0  0
 95 13  1  0  0  0  0
 96  8  1  0  0  0  0
 96 99  1  0  0  0  0
 97 71  1  0  0  0  0
 98 99  1  0  0  0  0
 99 97  1  0  0  0  0
 99 95  1  0  0  0  0
M  END
$$$$
