CSD_code = COCWUN | q = 0 | S = 0 | Stoichiometry = C13H12Cl2N2O2Pd | MND = 4
 OpenBabel04212202023D

 32 34  0  0  0  0  0  0  0  0999 V2000
    6.9237   11.2595   16.6647 Pd  0  0  0  0  0  0  0  0  0  0  0  0
    6.2544   12.1239   13.8717 C   0  0  0  0  0  0  0  0  0  0  0  0
    5.4777   12.6964   14.3678 H   0  0  0  0  0  0  0  0  0  0  0  0
    6.5277   12.2742   12.5245 C   0  0  0  0  0  0  0  0  0  0  0  0
    5.9498   12.9637   11.9310 H   0  0  0  0  0  0  0  0  0  0  0  0
    7.5736   11.5490   11.9677 C   0  0  0  0  0  0  0  0  0  0  0  0
    7.8460   11.6786   10.9318 H   0  0  0  0  0  0  0  0  0  0  0  0
    8.2679   10.6604   12.7667 C   0  0  0  0  0  0  0  0  0  0  0  0
    9.1039   10.1097   12.3693 H   0  0  0  0  0  0  0  0  0  0  0  0
    7.8948   10.5035   14.1010 C   0  0  0  0  0  0  0  0  0  0  0  0
    8.5485    9.5865   15.0352 C   0  0  0  0  0  0  0  0  0  0  0  0
    9.2951    8.4579   14.6632 C   0  0  0  0  0  0  0  0  0  0  0  0
    9.9782    7.7530   15.6484 C   0  0  0  0  0  0  0  0  0  0  0  0
   10.5668    6.8913   15.3748 H   0  0  0  0  0  0  0  0  0  0  0  0
    9.8676    8.1550   16.9715 C   0  0  0  0  0  0  0  0  0  0  0  0
   10.3936    7.6358   17.7556 H   0  0  0  0  0  0  0  0  0  0  0  0
    9.0286    9.2106   17.2774 C   0  0  0  0  0  0  0  0  0  0  0  0
    8.8470    9.5277   18.2996 H   0  0  0  0  0  0  0  0  0  0  0  0
    9.2559    7.8752   13.2875 C   0  0  0  0  0  0  0  0  0  0  0  0
   10.5677    6.8651   11.6087 C   0  0  0  0  0  0  0  0  0  0  0  0
   10.2889    5.8135   11.7358 H   0  0  0  0  0  0  0  0  0  0  0  0
    9.8504    7.3283   10.9224 H   0  0  0  0  0  0  0  0  0  0  0  0
   11.9926    6.9980   11.1063 C   0  0  0  0  0  0  0  0  0  0  0  0
   12.0874    6.4938   10.1493 H   0  0  0  0  0  0  0  0  0  0  0  0
   12.6831    6.5482   11.8144 H   0  0  0  0  0  0  0  0  0  0  0  0
   12.2555    8.0452   10.9829 H   0  0  0  0  0  0  0  0  0  0  0  0
    8.3901    9.9061   16.3378 N   0  0  0  0  0  0  0  0  0  0  0  0
    6.9286   11.2750   14.6457 N   0  0  0  0  0  0  0  0  0  0  0  0
   10.4706    7.5125   12.8833 O   0  0  0  0  0  0  0  0  0  0  0  0
    8.2440    7.7035   12.6574 O   0  0  0  0  0  0  0  0  0  0  0  0
    5.2265   12.6588   16.8736 Cl  0  0  0  0  0  0  0  0  0  0  0  0
    7.1292   11.2354   18.8686 Cl  0  0  0  0  0  0  0  0  0  0  0  0
  1 31  1  0  0  0  0
  1 32  1  0  0  0  0
  2  3  1  0  0  0  0
  2 28  1  0  0  0  0
  4  2  2  0  0  0  0
  5  4  1  0  0  0  0
  6  4  1  0  0  0  0
  6  8  2  0  0  0  0
  7  6  1  0  0  0  0
  8 10  1  0  0  0  0
  9  8  1  0  0  0  0
 10 28  1  0  0  0  0
 10 11  2  0  0  0  0
 11 27  1  0  0  0  0
 12 11  1  0  0  0  0
 12 13  2  0  0  0  0
 13 15  1  0  0  0  0
 14 13  1  0  0  0  0
 15 17  2  0  0  0  0
 15 16  1  0  0  0  0
 17 18  1  0  0  0  0
 19 12  1  0  0  0  0
 20 21  1  0  0  0  0
 20 29  1  0  0  0  0
 22 20  1  0  0  0  0
 23 20  1  0  0  0  0
 23 25  1  0  0  0  0
 24 23  1  0  0  0  0
 26 23  1  0  0  0  0
 27  1  1  0  0  0  0
 27 17  1  0  0  0  0
 28  1  1  0  0  0  0
 29 19  1  0  0  0  0
 30 19  2  0  0  0  0
M  END
$$$$
