CSD_code = COCYUQ | q = 1 | S = 0 | Stoichiometry = C20H16F4N4Ta(1+) | MND = 8
 OpenBabel04212202023D

 45 48  0  0  1  0  0  0  0  0999 V2000
    5.5598    9.6284   -0.8415 C   0  0  0  0  0  3  0  0  0  0  0  0
    5.8510   10.5295   -1.3587 H   0  0  0  0  0  0  0  0  0  0  0  0
    6.1993    8.4251   -1.0982 C   0  0  0  0  0  0  0  0  0  0  0  0
    7.0015    8.3794   -1.8164 H   0  0  0  0  0  0  0  0  0  0  0  0
    5.7691    7.2937   -0.4251 C   0  0  0  0  0  0  0  0  0  0  0  0
    6.2189    6.3308   -0.6118 H   0  0  0  0  0  0  0  0  0  0  0  0
    4.7436    7.4208    0.4962 C   0  0  0  0  0  0  0  0  0  0  0  0
    4.3785    6.5499    1.0148 H   0  0  0  0  0  0  0  0  0  0  0  0
    4.1730    8.6752    0.7185 C   0  0  0  0  0  0  0  0  0  0  0  0
    3.0957    8.8651    1.7060 C   0  0  0  0  0  0  0  0  0  0  0  0
    2.8781    7.9456    2.7335 C   0  0  0  0  0  0  0  0  0  0  0  0
    3.5294    7.0968    2.8599 H   0  0  0  0  0  0  0  0  0  0  0  0
    1.8312    8.1476    3.6165 C   0  0  0  0  0  0  0  0  0  0  0  0
    1.6512    7.4491    4.4192 H   0  0  0  0  0  0  0  0  0  0  0  0
    1.0260    9.2614    3.4459 C   0  0  0  0  0  0  0  0  0  0  0  0
    0.1903    9.4547    4.0983 H   0  0  0  0  0  0  0  0  0  0  0  0
    1.3295   10.1437    2.4199 C   0  0  0  0  0  0  0  0  0  0  0  0
    0.7406   11.0346    2.2658 H   0  0  0  0  0  0  0  0  0  0  0  0
    1.2923   12.7938   -2.5665 C   0  0  0  0  0  0  0  0  0  0  0  0
    1.2965   11.7197   -2.6687 H   0  0  0  0  0  0  0  0  0  0  0  0
    0.4754   13.5784   -3.3666 C   0  0  0  0  0  0  0  0  0  0  0  0
   -0.1604   13.1205   -4.1066 H   0  0  0  0  0  0  0  0  0  0  0  0
    0.4877   14.9499   -3.1748 C   0  0  0  0  0  0  0  0  0  0  0  0
   -0.1524   15.5979   -3.7535 H   0  0  0  0  0  0  0  0  0  0  0  0
    1.3406   15.4780   -2.2207 C   0  0  0  0  0  0  0  0  0  0  0  0
    1.3516   16.5404   -2.0432 H   0  0  0  0  0  0  0  0  0  0  0  0
    2.1554   14.6210   -1.4789 C   0  0  0  0  0  0  0  0  0  0  0  0
    3.1083   15.1366   -0.4794 C   0  0  2  0  0  3  0  0  0  0  0  0
    3.5244   16.4692   -0.4887 C   0  0  0  0  0  0  0  0  0  0  0  0
    3.1884   17.1466   -1.2559 H   0  0  0  0  0  0  0  0  0  0  0  0
    4.4031   16.9150    0.4838 C   0  0  0  0  0  0  0  0  0  0  0  0
    4.7375   17.9411    0.4883 H   0  0  0  0  0  0  0  0  0  0  0  0
    4.8421   16.0169    1.4421 C   0  0  0  0  0  0  0  0  0  0  0  0
    5.5179   16.3181    2.2256 H   0  0  0  0  0  0  0  0  0  0  0  0
    4.4039   14.7034    1.3646 C   0  0  0  0  0  0  0  0  0  0  0  0
    4.7368   13.9678    2.0803 H   0  0  0  0  0  0  0  0  0  0  0  0
    4.1245   11.9078    1.6748 F   0  0  0  0  0  0  0  0  0  0  0  0
    4.5621   12.2697   -1.0134 F   0  0  0  0  0  0  0  0  0  0  0  0
    2.3414   10.6362   -1.0823 F   0  0  0  0  0  0  0  0  0  0  0  0
    1.5624   12.4619    0.8180 F   0  0  0  0  0  0  0  0  0  0  0  0
    2.3370    9.9586    1.5794 N   0  0  0  0  0  0  0  0  0  0  0  0
    4.5729    9.7519    0.0344 N   0  0  0  0  0  0  0  0  0  0  0  0
    2.1013   13.2953   -1.6446 N   0  0  0  0  0  0  0  0  0  0  0  0
    3.5685   14.2720    0.4309 N   0  0  0  0  0  0  0  0  0  0  0  0
    3.1478   11.8194    0.0984 Ta  0  0  0  0  0  0  0  0  0  0  0  0
  1 42  1  0  0  0  0
  2  1  1  0  0  0  0
  3  1  1  0  0  0  0
  3  5  2  0  0  0  0
  4  3  1  0  0  0  0
  5  7  1  0  0  0  0
  6  5  1  0  0  0  0
  7  9  2  0  0  0  0
  7  8  1  0  0  0  0
  9 10  1  0  0  0  0
 10 11  1  0  0  0  0
 11 12  1  0  0  0  0
 11 13  2  0  0  0  0
 13 14  1  0  0  0  0
 15 13  1  0  0  0  0
 15 16  1  0  0  0  0
 17 15  2  0  0  0  0
 18 17  1  0  0  0  0
 19 43  1  0  0  0  0
 20 19  1  0  0  0  0
 21 23  1  0  0  0  0
 21 19  2  0  0  0  0
 22 21  1  0  0  0  0
 23 25  2  0  0  0  0
 24 23  1  0  0  0  0
 25 26  1  0  0  0  0
 25 27  1  0  0  0  0
 28 27  1  6  0  0  0
 28 44  1  0  0  0  0
 29 28  1  0  0  0  0
 29 31  2  0  0  0  0
 30 29  1  0  0  0  0
 31 32  1  0  0  0  0
 31 33  1  0  0  0  0
 33 34  1  0  0  0  0
 35 33  2  0  0  0  0
 35 36  1  0  0  0  0
 38 45  1  0  0  0  0
 39 45  1  0  0  0  0
 41 10  2  0  0  0  0
 41 17  1  0  0  0  0
 42 45  1  0  0  0  0
 42  9  1  0  0  0  0
 43 27  2  0  0  0  0
 44 35  1  0  0  0  0
 45 44  1  0  0  0  0
 45 40  1  0  0  0  0
 45 37  1  0  0  0  0
M  END
$$$$
