CSD_code = CODDIJ | q = 0 | S = 0 | Stoichiometry = C32H32Cl2O6P2Pd | MND = 4
 OpenBabel04212202023D

 75 79  0  0  1  0  0  0  0  0999 V2000
    5.2677    1.4317    3.4380 Pd  0  0  0  0  0  0  0  0  0  0  0  0
    3.3939    2.6975    3.1490 Cl  0  0  0  0  0  0  0  0  0  0  0  0
    4.4885   -0.5358    2.5719 Cl  0  0  0  0  0  0  0  0  0  0  0  0
    5.8477    3.3633    4.3983 P   0  0  0  0  0  4  0  0  0  0  0  0
    6.9132    0.0289    3.9080 P   0  0  0  0  0  4  0  0  0  0  0  0
    7.1511    3.5020    5.3863 O   0  0  0  0  0  0  0  0  0  0  0  0
    8.1170    0.8048    4.7421 O   0  0  0  0  0  0  0  0  0  0  0  0
    9.5846    5.3202    5.1920 O   0  0  0  0  0  0  0  0  0  0  0  0
    9.2526    4.3649    3.1957 O   0  0  0  0  0  0  0  0  0  0  0  0
   10.1638    0.9356    2.7314 O   0  0  0  0  0  0  0  0  0  0  0  0
   11.0189    2.2340    4.3509 O   0  0  0  0  0  0  0  0  0  0  0  0
    4.7172    4.1078    5.6039 C   0  0  0  0  0  0  0  0  0  0  0  0
    3.8034    5.0876    5.2373 C   0  0  0  0  0  0  0  0  0  0  0  0
    3.7723    5.4393    4.2168 H   0  0  0  0  0  0  0  0  0  0  0  0
    2.9206    5.5872    6.1775 C   0  0  0  0  0  0  0  0  0  0  0  0
    2.2103    6.3489    5.8921 H   0  0  0  0  0  0  0  0  0  0  0  0
    2.9381    5.1069    7.4769 C   0  0  0  0  0  0  0  0  0  0  0  0
    2.2423    5.4961    8.2056 H   0  0  0  0  0  0  0  0  0  0  0  0
    3.8413    4.1214    7.8399 C   0  0  0  0  0  0  0  0  0  0  0  0
    3.8506    3.7407    8.8508 H   0  0  0  0  0  0  0  0  0  0  0  0
    4.7280    3.6178    6.9056 C   0  0  0  0  0  0  0  0  0  0  0  0
    5.4377    2.8499    7.1820 H   0  0  0  0  0  0  0  0  0  0  0  0
    6.1210    4.5959    3.0903 C   0  0  0  0  0  0  0  0  0  0  0  0
    6.3936    5.9251    3.3896 C   0  0  0  0  0  0  0  0  0  0  0  0
    6.4399    6.2394    4.4236 H   0  0  0  0  0  0  0  0  0  0  0  0
    6.6007    6.8274    2.3613 C   0  0  0  0  0  0  0  0  0  0  0  0
    6.8027    7.8645    2.5869 H   0  0  0  0  0  0  0  0  0  0  0  0
    6.5374    6.4037    1.0426 C   0  0  0  0  0  0  0  0  0  0  0  0
    6.6893    7.1137    0.2428 H   0  0  0  0  0  0  0  0  0  0  0  0
    6.2823    5.0733    0.7450 C   0  0  0  0  0  0  0  0  0  0  0  0
    6.2360    4.7489   -0.2843 H   0  0  0  0  0  0  0  0  0  0  0  0
    6.0803    4.1653    1.7687 C   0  0  0  0  0  0  0  0  0  0  0  0
    5.8624    3.1106    1.5469 H   0  0  0  0  0  0  0  0  0  0  0  0
    7.8547   -1.0500    2.7914 C   0  0  0  0  0  0  0  0  0  0  0  0
    7.5221   -1.1424    1.4474 C   0  0  0  0  0  0  0  0  0  0  0  0
    6.6645   -0.5978    1.0748 H   0  0  0  0  0  0  0  0  0  0  0  0
    8.2738   -1.9469    0.6087 C   0  0  0  0  0  0  0  0  0  0  0  0
    8.0133   -2.0265   -0.4361 H   0  0  0  0  0  0  0  0  0  0  0  0
    9.3572   -2.6505    1.1084 C   0  0  0  0  0  0  0  0  0  0  0  0
    9.9387   -3.2837    0.4541 H   0  0  0  0  0  0  0  0  0  0  0  0
    9.7050   -2.5376    2.4465 C   0  0  0  0  0  0  0  0  0  0  0  0
   10.5579   -3.0783    2.8318 H   0  0  0  0  0  0  0  0  0  0  0  0
    8.9613   -1.7322    3.2888 C   0  0  0  0  0  0  0  0  0  0  0  0
    9.2405   -1.6117    4.3268 H   0  0  0  0  0  0  0  0  0  0  0  0
    6.2577   -0.9953    5.2558 C   0  0  0  0  0  0  0  0  0  0  0  0
    5.2940   -0.3739    6.0517 C   0  0  0  0  0  0  0  0  0  0  0  0
    5.0066    0.6667    5.8510 H   0  0  0  0  0  0  0  0  0  0  0  0
    4.6849   -1.0709    7.0776 C   0  0  0  0  0  0  0  0  0  0  0  0
    3.9383   -0.5874    7.6902 H   0  0  0  0  0  0  0  0  0  0  0  0
    5.0204   -2.3971    7.3048 C   0  0  0  0  0  0  0  0  0  0  0  0
    4.5394   -2.9456    8.1010 H   0  0  0  0  0  0  0  0  0  0  0  0
    5.9539   -3.0246    6.4980 C   0  0  0  0  0  0  0  0  0  0  0  0
    6.1965   -4.0644    6.6611 H   0  0  0  0  0  0  0  0  0  0  0  0
    6.5704   -2.3308    5.4698 C   0  0  0  0  0  0  0  0  0  0  0  0
    7.2753   -2.8345    4.8254 H   0  0  0  0  0  0  0  0  0  0  0  0
    8.6197    1.9801    4.1449 C   0  0  1  0  0  0  0  0  0  0  0  0
    8.0558    2.2110    3.2191 H   0  0  0  0  0  0  0  0  0  0  0  0
    8.4892    3.1674    5.0971 C   0  0  1  0  0  0  0  0  0  0  0  0
    8.9594    2.9299    6.0600 H   0  0  0  0  0  0  0  0  0  0  0  0
    9.1888    4.4112    4.5215 C   0  0  0  0  0  0  0  0  0  0  0  0
    9.8992    5.4773    2.5557 C   0  0  0  0  0  0  0  0  0  0  0  0
    9.3104    6.3791    2.7520 H   0  0  0  0  0  0  0  0  0  0  0  0
   10.8886    5.6036    3.0070 H   0  0  0  0  0  0  0  0  0  0  0  0
    9.9892    5.1881    1.0710 C   0  0  0  0  0  0  0  0  0  0  0  0
   10.5689    4.2862    0.8975 H   0  0  0  0  0  0  0  0  0  0  0  0
   10.4711    6.0219    0.5692 H   0  0  0  0  0  0  0  0  0  0  0  0
    8.9933    5.0505    0.6591 H   0  0  0  0  0  0  0  0  0  0  0  0
   10.0864    1.7532    3.7662 C   0  0  0  0  0  0  0  0  0  0  0  0
   11.4737    0.5607    2.2814 C   0  0  0  0  0  0  0  0  0  0  0  0
   12.1177    0.4204    3.1549 H   0  0  0  0  0  0  0  0  0  0  0  0
   11.3262   -0.3887    1.7637 H   0  0  0  0  0  0  0  0  0  0  0  0
   12.0612    1.6136    1.3553 C   0  0  0  0  0  0  0  0  0  0  0  0
   11.3961    1.7832    0.5120 H   0  0  0  0  0  0  0  0  0  0  0  0
   13.0238    1.2736    0.9848 H   0  0  0  0  0  0  0  0  0  0  0  0
   12.2032    2.5457    1.8968 H   0  0  0  0  0  0  0  0  0  0  0  0
  1  5  1  0  0  0  0
  1  4  1  0  0  0  0
  2  1  1  0  0  0  0
  3  1  1  0  0  0  0
  4  6  1  0  0  0  0
  4 12  1  0  0  0  0
  5  7  1  0  0  0  0
  5 45  1  0  0  0  0
  9 60  1  0  0  0  0
 10 68  1  0  0  0  0
 12 21  1  0  0  0  0
 13 12  2  0  0  0  0
 13 15  1  0  0  0  0
 14 13  1  0  0  0  0
 15 17  2  0  0  0  0
 16 15  1  0  0  0  0
 17 19  1  0  0  0  0
 17 18  1  0  0  0  0
 19 20  1  0  0  0  0
 21 22  1  0  0  0  0
 21 19  2  0  0  0  0
 23 24  1  0  0  0  0
 23  4  1  0  0  0  0
 24 25  1  0  0  0  0
 26 27  1  0  0  0  0
 26 24  2  0  0  0  0
 28 26  1  0  0  0  0
 29 28  1  0  0  0  0
 30 28  2  0  0  0  0
 30 32  1  0  0  0  0
 31 30  1  0  0  0  0
 32 23  2  0  0  0  0
 33 32  1  0  0  0  0
 34 43  1  0  0  0  0
 34  5  1  0  0  0  0
 35 34  2  0  0  0  0
 36 35  1  0  0  0  0
 37 39  2  0  0  0  0
 37 35  1  0  0  0  0
 38 37  1  0  0  0  0
 39 41  1  0  0  0  0
 40 39  1  0  0  0  0
 41 42  1  0  0  0  0
 41 43  2  0  0  0  0
 43 44  1  0  0  0  0
 45 54  2  0  0  0  0
 45 46  1  0  0  0  0
 46 48  2  0  0  0  0
 47 46  1  0  0  0  0
 48 50  1  0  0  0  0
 48 49  1  0  0  0  0
 50 51  1  0  0  0  0
 52 53  1  0  0  0  0
 52 50  2  0  0  0  0
 54 52  1  0  0  0  0
 55 54  1  0  0  0  0
 56 57  1  6  0  0  0
 56  7  1  0  0  0  0
 56 58  1  0  0  0  0
 58  6  1  0  0  0  0
 58 59  1  1  0  0  0
 60 58  1  0  0  0  0
 60  8  2  0  0  0  0
 61 62  1  0  0  0  0
 61 63  1  0  0  0  0
 61  9  1  0  0  0  0
 64 61  1  0  0  0  0
 65 64  1  0  0  0  0
 66 64  1  0  0  0  0
 67 64  1  0  0  0  0
 68 56  1  0  0  0  0
 68 11  2  0  0  0  0
 69 10  1  0  0  0  0
 69 70  1  0  0  0  0
 71 69  1  0  0  0  0
 72 75  1  0  0  0  0
 72 69  1  0  0  0  0
 73 72  1  0  0  0  0
 74 72  1  0  0  0  0
M  END
$$$$
