CSD_code = CODTOH | q = 0 | S = 0 | Stoichiometry = C24H17ClN4PdSe | MND = 4
 OpenBabel04212202023D

 48 52  0  0  0  0  0  0  0  0999 V2000
    4.3678    4.0932   14.2382 Pd  0  0  0  0  0  0  0  0  0  0  0  0
    6.0717    2.3435   14.0660 Se  0  0  0  0  0  0  0  0  0  0  0  0
    2.8796    3.5134   12.6833 Cl  0  0  0  0  0  0  0  0  0  0  0  0
    5.2177    4.5044   15.9711 N   0  0  0  0  0  0  0  0  0  0  0  0
    4.8844    1.4263   11.4698 N   0  0  0  0  0  2  0  0  0  0  0  0
    4.8961    5.5838   16.5696 N   0  0  0  0  0  2  0  0  0  0  0  0
    5.6345    2.3849   11.8208 N   0  0  0  0  0  2  0  0  0  0  0  0
    6.2664    2.3503   16.0467 C   0  0  0  0  0  0  0  0  0  0  0  0
    4.9849    0.8289   13.8121 C   0  0  0  0  0  0  0  0  0  0  0  0
    6.9561    1.3718   16.7472 C   0  0  0  0  0  0  0  0  0  0  0  0
    7.2752    0.4783   16.2257 H   0  0  0  0  0  0  0  0  0  0  0  0
    4.5364    0.0035   14.8371 C   0  0  0  0  0  0  0  0  0  0  0  0
    4.7994    0.2265   15.8627 H   0  0  0  0  0  0  0  0  0  0  0  0
    7.2293    1.5349   18.0942 C   0  0  0  0  0  0  0  0  0  0  0  0
    7.7517    0.7600   18.6352 H   0  0  0  0  0  0  0  0  0  0  0  0
    3.7337   -1.0796   14.5472 C   0  0  0  0  0  0  0  0  0  0  0  0
    3.3818   -1.7094   15.3509 H   0  0  0  0  0  0  0  0  0  0  0  0
    6.8477    2.7014   18.7455 C   0  0  0  0  0  0  0  0  0  0  0  0
    7.0711    2.8288   19.7940 H   0  0  0  0  0  0  0  0  0  0  0  0
    3.3623   -1.3616   13.2324 C   0  0  0  0  0  0  0  0  0  0  0  0
    2.7321   -2.2135   13.0274 H   0  0  0  0  0  0  0  0  0  0  0  0
    6.1938    3.7026   18.0595 C   0  0  0  0  0  0  0  0  0  0  0  0
    5.8998    4.6217   18.5425 H   0  0  0  0  0  0  0  0  0  0  0  0
    3.7772   -0.5467   12.2078 C   0  0  0  0  0  0  0  0  0  0  0  0
    3.4822   -0.7218   11.1854 H   0  0  0  0  0  0  0  0  0  0  0  0
    5.8981    3.5352   16.7019 C   0  0  0  0  0  0  0  0  0  0  0  0
    4.5925    0.5612   12.4770 C   0  0  0  0  0  0  0  0  0  0  0  0
    4.0998    6.4001   15.8252 C   0  0  0  0  0  0  0  0  0  0  0  0
    5.8729    3.4176   10.9339 C   0  0  0  0  0  0  0  0  0  0  0  0
    3.7578    7.6797   16.2822 C   0  0  0  0  0  0  0  0  0  0  0  0
    4.1614    8.0250   17.2215 H   0  0  0  0  0  0  0  0  0  0  0  0
    6.0482    4.7053   11.4519 C   0  0  0  0  0  0  0  0  0  0  0  0
    5.9386    4.8880   12.5320 H   0  0  0  0  0  0  0  0  0  0  0  0
    2.9248    8.4653   15.5180 C   0  0  0  0  0  0  0  0  0  0  0  0
    2.6547    9.4545   15.8572 H   0  0  0  0  0  0  0  0  0  0  0  0
    6.3022    5.7576   10.5946 C   0  0  0  0  0  0  0  0  0  0  0  0
    6.4181    6.7546   10.9926 H   0  0  0  0  0  0  0  0  0  0  0  0
    2.4290    7.9909   14.3079 C   0  0  0  0  0  0  0  0  0  0  0  0
    1.7759    8.6167   13.7169 H   0  0  0  0  0  0  0  0  0  0  0  0
    6.4020    5.5394    9.2286 C   0  0  0  0  0  0  0  0  0  0  0  0
    6.6055    6.3662    8.5649 H   0  0  0  0  0  0  0  0  0  0  0  0
    2.7548    6.7205   13.8496 C   0  0  0  0  0  0  0  0  0  0  0  0
    2.3463    6.3661   12.9120 H   0  0  0  0  0  0  0  0  0  0  0  0
    6.2305    4.2629    8.7145 C   0  0  0  0  0  0  0  0  0  0  0  0
    6.3021    4.0962    7.6500 H   0  0  0  0  0  0  0  0  0  0  0  0
    3.5846    5.9018   14.5960 C   0  0  0  0  0  0  0  0  0  0  0  0
    5.9595    3.2042    9.5567 C   0  0  0  0  0  0  0  0  0  0  0  0
    5.8193    2.2035    9.1780 H   0  0  0  0  0  0  0  0  0  0  0  0
  1 46  1  0  0  0  0
  1  4  1  0  0  0  0
  2  8  1  0  0  0  0
  3  1  1  0  0  0  0
  4  6  1  0  0  0  0
  4 26  1  0  0  0  0
  5  7  1  0  0  0  0
  5 27  1  0  0  0  0
  8 26  2  0  0  0  0
  8 10  1  0  0  0  0
  9  2  1  0  0  0  0
  9 12  1  0  0  0  0
 10 14  2  0  0  0  0
 11 10  1  0  0  0  0
 12 13  1  0  0  0  0
 14 15  1  0  0  0  0
 14 18  1  0  0  0  0
 16 12  2  0  0  0  0
 16 17  1  0  0  0  0
 18 19  1  0  0  0  0
 20 16  1  0  0  0  0
 21 20  1  0  0  0  0
 22 23  1  0  0  0  0
 22 18  2  0  0  0  0
 24 27  1  0  0  0  0
 24 20  2  0  0  0  0
 25 24  1  0  0  0  0
 26 22  1  0  0  0  0
 27  9  2  0  0  0  0
 28 30  1  0  0  0  0
 28  6  1  0  0  0  0
 29 32  1  0  0  0  0
 29  7  1  0  0  0  0
 30 31  1  0  0  0  0
 32 33  1  0  0  0  0
 34 35  1  0  0  0  0
 34 30  2  0  0  0  0
 36 37  1  0  0  0  0
 36 32  2  0  0  0  0
 38 34  1  0  0  0  0
 39 38  1  0  0  0  0
 40 36  1  0  0  0  0
 41 40  1  0  0  0  0
 42 38  2  0  0  0  0
 42 46  1  0  0  0  0
 43 42  1  0  0  0  0
 44 40  2  0  0  0  0
 44 47  1  0  0  0  0
 45 44  1  0  0  0  0
 46 28  2  0  0  0  0
 47 29  2  0  0  0  0
 48 47  1  0  0  0  0
M  END
$$$$
