CSD_code = CODYOK | q = 0 | S = 0 | Stoichiometry = C15H19IN2Pt | MND = 4
 OpenBabel04212202023D

 38 40  0  0  1  0  0  0  0  0999 V2000
    2.0197    9.5765    8.8112 Pt  0  0  2  0  0  0  0  0  0  0  0  0
    2.5952    7.9504   10.8100 I   0  0  0  0  0  0  0  0  0  0  0  0
    1.1970   10.9891   10.0968 N   0  0  0  0  0  4  0  0  0  0  0  0
    0.1771   10.8903   10.0767 H   0  0  0  0  0  0  0  0  0  0  0  0
    1.4988   10.8807   11.0698 H   0  0  0  0  0  0  0  0  0  0  0  0
    2.7279    8.3397    7.5069 N   0  0  0  0  0  0  0  0  0  0  0  0
    3.0760   12.5068    9.8883 C   0  0  0  0  0  0  0  0  0  0  0  0
    3.6331   11.6411    9.5124 H   0  0  0  0  0  0  0  0  0  0  0  0
    3.2375   12.5933   10.9616 H   0  0  0  0  0  0  0  0  0  0  0  0
    3.4546   13.4013    9.4018 H   0  0  0  0  0  0  0  0  0  0  0  0
    1.5938   12.3103    9.5675 C   0  0  1  0  0  0  0  0  0  0  0  0
    1.0045   13.1171   10.0290 H   0  0  0  0  0  0  0  0  0  0  0  0
    1.3860   12.2604    8.0720 C   0  0  0  0  0  0  0  0  0  0  0  0
    1.0567   13.3783    7.3263 C   0  0  0  0  0  0  0  0  0  0  0  0
    0.9124   14.3329    7.8148 H   0  0  0  0  0  0  0  0  0  0  0  0
    0.9106   13.2712    5.9545 C   0  0  0  0  0  0  0  0  0  0  0  0
    0.6523   14.1442    5.3720 H   0  0  0  0  0  0  0  0  0  0  0  0
    1.0892   12.0492    5.3217 C   0  0  0  0  0  0  0  0  0  0  0  0
    1.4182   10.9336    6.0854 C   0  0  0  0  0  0  0  0  0  0  0  0
    1.5511    9.9869    5.5733 H   0  0  0  0  0  0  0  0  0  0  0  0
    1.5755   11.0112    7.4625 C   0  0  0  0  0  0  0  0  0  0  0  0
    0.9526   11.9329    3.8324 C   0  0  0  0  0  0  0  0  0  0  0  0
    0.5718   10.9527    3.5528 H   0  0  0  0  0  0  0  0  0  0  0  0
    1.9259   12.0636    3.3571 H   0  0  0  0  0  0  0  0  0  0  0  0
    0.2824   12.6961    3.4432 H   0  0  0  0  0  0  0  0  0  0  0  0
    3.9806    8.4412    7.0515 C   0  0  0  0  0  3  0  0  0  0  0  0
    4.5510    9.3005    7.3901 H   0  0  0  0  0  0  0  0  0  0  0  0
    4.5385    7.5085    6.2030 C   0  0  0  0  0  0  0  0  0  0  0  0
    5.5573    7.6323    5.8698 H   0  0  0  0  0  0  0  0  0  0  0  0
    3.7885    6.4117    5.7844 C   0  0  0  0  0  0  0  0  0  0  0  0
    2.4831    6.3239    6.2620 C   0  0  0  0  0  0  0  0  0  0  0  0
    1.8511    5.4969    5.9778 H   0  0  0  0  0  0  0  0  0  0  0  0
    1.9952    7.2940    7.1116 C   0  0  0  0  0  0  0  0  0  0  0  0
    0.9855    7.2349    7.5056 H   0  0  0  0  0  0  0  0  0  0  0  0
    4.3683    5.3675    4.8899 C   0  0  0  0  0  0  0  0  0  0  0  0
    4.9068    4.6324    5.4887 H   0  0  0  0  0  0  0  0  0  0  0  0
    5.0724    5.8066    4.1870 H   0  0  0  0  0  0  0  0  0  0  0  0
    3.5876    4.8481    4.3400 H   0  0  0  0  0  0  0  0  0  0  0  0
  1  3  1  0  0  0  0
  1  2  1  1  0  0  0
  3  5  1  0  0  0  0
  4  3  1  0  0  0  0
  6  1  1  0  0  0  0
  7  9  1  0  0  0  0
  8  7  1  0  0  0  0
 10  7  1  0  0  0  0
 11  7  1  0  0  0  0
 11 12  1  1  0  0  0
 11  3  1  0  0  0  0
 13 11  1  0  0  0  0
 14 15  1  0  0  0  0
 14 13  2  0  0  0  0
 16 14  1  0  0  0  0
 17 16  1  0  0  0  0
 18 16  2  0  0  0  0
 18 19  1  0  0  0  0
 19 21  2  0  0  0  0
 20 19  1  0  0  0  0
 21 13  1  0  0  0  0
 21  1  1  0  0  0  0
 22 18  1  0  0  0  0
 23 22  1  0  0  0  0
 24 22  1  0  0  0  0
 25 22  1  0  0  0  0
 26 27  1  0  0  0  0
 26  6  1  0  0  0  0
 28 26  1  0  0  0  0
 29 28  1  0  0  0  0
 30 28  2  0  0  0  0
 30 31  1  0  0  0  0
 31 33  2  0  0  0  0
 32 31  1  0  0  0  0
 33 34  1  0  0  0  0
 33  6  1  0  0  0  0
 35 36  1  0  0  0  0
 35 30  1  0  0  0  0
 37 35  1  0  0  0  0
 38 35  1  0  0  0  0
M  END
$$$$
