CSD_code = CODYIE | q = 0 | S = 0 | Stoichiometry = C26H25INPPt | MND = 4
 OpenBabel04212202023D

 55 59  0  0  1  0  0  0  0  0999 V2000
   -0.6891    3.7799    2.1666 Pt  0  0  1  0  0  0  0  0  0  0  0  0
    1.4163    3.6611    0.5784 I   0  0  0  0  0  0  0  0  0  0  0  0
    0.2497    2.6195    3.8420 P   0  0  0  0  0  4  0  0  0  0  0  0
   -1.7524    4.8991    0.6990 N   0  0  0  0  0  4  0  0  0  0  0  0
   -1.7610    5.8906    0.9501 H   0  0  0  0  0  0  0  0  0  0  0  0
   -1.3465    4.8179   -0.2368 H   0  0  0  0  0  0  0  0  0  0  0  0
   -0.9083    1.4498    4.6205 C   0  0  0  0  0  0  0  0  0  0  0  0
   -1.7282    0.7559    3.7348 C   0  0  0  0  0  0  0  0  0  0  0  0
   -1.6256    0.9481    2.6711 H   0  0  0  0  0  0  0  0  0  0  0  0
   -2.6610   -0.1477    4.2035 C   0  0  0  0  0  0  0  0  0  0  0  0
   -3.2940   -0.6836    3.5116 H   0  0  0  0  0  0  0  0  0  0  0  0
   -2.7880   -0.3552    5.5682 C   0  0  0  0  0  0  0  0  0  0  0  0
   -3.5223   -1.0537    5.9415 H   0  0  0  0  0  0  0  0  0  0  0  0
   -1.9812    0.3389    6.4538 C   0  0  0  0  0  0  0  0  0  0  0  0
   -2.0887    0.1822    7.5174 H   0  0  0  0  0  0  0  0  0  0  0  0
   -1.0394    1.2397    5.9856 C   0  0  0  0  0  0  0  0  0  0  0  0
   -0.4242    1.7892    6.6838 H   0  0  0  0  0  0  0  0  0  0  0  0
    0.8635    3.7166    5.1498 C   0  0  0  0  0  0  0  0  0  0  0  0
    0.5691    5.0712    5.0452 C   0  0  0  0  0  0  0  0  0  0  0  0
   -0.0188    5.4137    4.1959 H   0  0  0  0  0  0  0  0  0  0  0  0
    1.0257    5.9594    6.0014 C   0  0  0  0  0  0  0  0  0  0  0  0
    0.7978    7.0116    5.9167 H   0  0  0  0  0  0  0  0  0  0  0  0
    1.7819    5.4952    7.0654 C   0  0  0  0  0  0  0  0  0  0  0  0
    2.1401    6.1858    7.8145 H   0  0  0  0  0  0  0  0  0  0  0  0
    2.0934    4.1477    7.1645 C   0  0  0  0  0  0  0  0  0  0  0  0
    2.6958    3.7923    7.9879 H   0  0  0  0  0  0  0  0  0  0  0  0
    1.6433    3.2569    6.2073 C   0  0  0  0  0  0  0  0  0  0  0  0
    1.9090    2.2097    6.2660 H   0  0  0  0  0  0  0  0  0  0  0  0
    1.7072    1.5717    3.5310 C   0  0  0  0  0  0  0  0  0  0  0  0
    1.6036    0.2020    3.3199 C   0  0  0  0  0  0  0  0  0  0  0  0
    0.6426   -0.2877    3.3974 H   0  0  0  0  0  0  0  0  0  0  0  0
    2.7333   -0.5352    3.0094 C   0  0  0  0  0  0  0  0  0  0  0  0
    2.6481   -1.5995    2.8448 H   0  0  0  0  0  0  0  0  0  0  0  0
    3.9645    0.0880    2.8987 C   0  0  0  0  0  0  0  0  0  0  0  0
    4.8410   -0.4893    2.6446 H   0  0  0  0  0  0  0  0  0  0  0  0
    4.0708    1.4545    3.1042 C   0  0  0  0  0  0  0  0  0  0  0  0
    5.0273    1.9458    3.0070 H   0  0  0  0  0  0  0  0  0  0  0  0
    2.9481    2.1950    3.4168 C   0  0  0  0  0  0  0  0  0  0  0  0
    3.0243    3.2643    3.5609 H   0  0  0  0  0  0  0  0  0  0  0  0
   -3.1161    4.3414    0.7429 C   0  0  2  0  0  0  0  0  0  0  0  0
   -3.8225    4.9663    0.1739 H   0  0  0  0  0  0  0  0  0  0  0  0
   -3.5004    4.2773    2.2024 C   0  0  0  0  0  0  0  0  0  0  0  0
   -2.4640    4.0129    3.1093 C   0  0  0  0  0  0  0  0  0  0  0  0
   -2.7821    3.9925    4.4608 C   0  0  0  0  0  0  0  0  0  0  0  0
   -2.0094    3.8203    5.2008 H   0  0  0  0  0  0  0  0  0  0  0  0
   -4.0820    4.1965    4.8949 C   0  0  0  0  0  0  0  0  0  0  0  0
   -4.3020    4.1730    5.9530 H   0  0  0  0  0  0  0  0  0  0  0  0
   -5.0960    4.4310    3.9833 C   0  0  0  0  0  0  0  0  0  0  0  0
   -6.1099    4.5863    4.3222 H   0  0  0  0  0  0  0  0  0  0  0  0
   -4.8010    4.4801    2.6321 C   0  0  0  0  0  0  0  0  0  0  0  0
   -5.5817    4.6801    1.9100 H   0  0  0  0  0  0  0  0  0  0  0  0
   -3.0677    2.9405    0.1321 C   0  0  0  0  0  0  0  0  0  0  0  0
   -2.2797    2.3642    0.6310 H   0  0  0  0  0  0  0  0  0  0  0  0
   -2.8482    2.9852   -0.9336 H   0  0  0  0  0  0  0  0  0  0  0  0
   -4.0160    2.4298    0.2767 H   0  0  0  0  0  0  0  0  0  0  0  0
  1  2  1  6  0  0  0
  1 43  1  0  0  0  0
  1  3  1  0  0  0  0
  3  7  1  0  0  0  0
  3 18  1  0  0  0  0
  4 40  1  0  0  0  0
  4  5  1  0  0  0  0
  4  1  1  0  0  0  0
  6  4  1  0  0  0  0
  7 16  1  0  0  0  0
  8 10  1  0  0  0  0
  8  7  2  0  0  0  0
  9  8  1  0  0  0  0
 10 12  2  0  0  0  0
 11 10  1  0  0  0  0
 12 13  1  0  0  0  0
 12 14  1  0  0  0  0
 14 15  1  0  0  0  0
 16 14  2  0  0  0  0
 16 17  1  0  0  0  0
 18 27  1  0  0  0  0
 19 18  2  0  0  0  0
 19 21  1  0  0  0  0
 20 19  1  0  0  0  0
 21 23  2  0  0  0  0
 22 21  1  0  0  0  0
 23 25  1  0  0  0  0
 23 24  1  0  0  0  0
 25 26  1  0  0  0  0
 27 28  1  0  0  0  0
 27 25  2  0  0  0  0
 29  3  1  0  0  0  0
 30 31  1  0  0  0  0
 30 29  2  0  0  0  0
 32 30  1  0  0  0  0
 33 32  1  0  0  0  0
 34 32  2  0  0  0  0
 34 36  1  0  0  0  0
 35 34  1  0  0  0  0
 36 38  2  0  0  0  0
 37 36  1  0  0  0  0
 38 29  1  0  0  0  0
 38 39  1  0  0  0  0
 40 41  1  6  0  0  0
 40 42  1  0  0  0  0
 42 50  2  0  0  0  0
 42 43  1  0  0  0  0
 43 44  2  0  0  0  0
 44 46  1  0  0  0  0
 44 45  1  0  0  0  0
 46 47  1  0  0  0  0
 48 49  1  0  0  0  0
 48 46  2  0  0  0  0
 50 48  1  0  0  0  0
 51 50  1  0  0  0  0
 52 55  1  0  0  0  0
 52 53  1  0  0  0  0
 52 40  1  0  0  0  0
 54 52  1  0  0  0  0
M  END
$$$$
