CSD_code = CODYUQ | q = 0 | S = 0 | Stoichiometry = C14H16FIN2Pt | MND = 4
 OpenBabel04212202023D

 35 37  0  0  1  0  0  0  0  0999 V2000
    2.0073    9.6172    8.1281 Pt  0  0  2  0  0  0  0  0  0  0  0  0
    2.5262    8.0256   10.1561 I   0  0  0  0  0  0  0  0  0  0  0  0
    1.0562   11.8979    3.2617 F   0  0  0  0  0  0  0  0  0  0  0  0
    1.1380   11.0441    9.3649 N   0  0  0  0  0  4  0  0  0  0  0  0
    0.1209   10.9234    9.3269 H   0  0  0  0  0  0  0  0  0  0  0  0
    1.4217   10.9615   10.3458 H   0  0  0  0  0  0  0  0  0  0  0  0
    2.7538    8.3631    6.8566 N   0  0  0  0  0  0  0  0  0  0  0  0
    2.9887   12.5979    9.1700 C   0  0  0  0  0  0  0  0  0  0  0  0
    3.1208   12.7095   10.2448 H   0  0  0  0  0  0  0  0  0  0  0  0
    3.3598   13.4908    8.6752 H   0  0  0  0  0  0  0  0  0  0  0  0
    3.5739   11.7379    8.8261 H   0  0  0  0  0  0  0  0  0  0  0  0
    1.5193   12.3620    8.8179 C   0  0  1  0  0  0  0  0  0  0  0  0
    0.9015   13.1648    9.2469 H   0  0  0  0  0  0  0  0  0  0  0  0
    1.3522   12.2808    7.3179 C   0  0  0  0  0  0  0  0  0  0  0  0
    1.0221   13.3844    6.5502 C   0  0  0  0  0  0  0  0  0  0  0  0
    0.8445   14.3410    7.0216 H   0  0  0  0  0  0  0  0  0  0  0  0
    0.9192   13.2658    5.1748 C   0  0  0  0  0  0  0  0  0  0  0  0
    0.6641   14.1074    4.5511 H   0  0  0  0  0  0  0  0  0  0  0  0
    1.1518   12.0278    4.6082 C   0  0  0  0  0  0  0  0  0  0  0  0
    1.4779   10.9133    5.3597 C   0  0  0  0  0  0  0  0  0  0  0  0
    1.6421    9.9764    4.8446 H   0  0  0  0  0  0  0  0  0  0  0  0
    1.5876   11.0218    6.7411 C   0  0  0  0  0  0  0  0  0  0  0  0
    1.9995    7.3630    6.3911 C   0  0  0  0  0  3  0  0  0  0  0  0
    0.9676    7.3387    6.7274 H   0  0  0  0  0  0  0  0  0  0  0  0
    2.4921    6.3970    5.5401 C   0  0  0  0  0  0  0  0  0  0  0  0
    1.8429    5.6070    5.1960 H   0  0  0  0  0  0  0  0  0  0  0  0
    3.8250    6.4417    5.1359 C   0  0  0  0  0  0  0  0  0  0  0  0
    4.5980    7.4881    5.6325 C   0  0  0  0  0  0  0  0  0  0  0  0
    5.6390    7.5749    5.3627 H   0  0  0  0  0  0  0  0  0  0  0  0
    4.0338    8.4192    6.4798 C   0  0  0  0  0  0  0  0  0  0  0  0
    4.6228    9.2373    6.8828 H   0  0  0  0  0  0  0  0  0  0  0  0
    4.3873    5.4257    4.1996 C   0  0  0  0  0  0  0  0  0  0  0  0
    4.1644    5.7118    3.1710 H   0  0  0  0  0  0  0  0  0  0  0  0
    3.9437    4.4491    4.3781 H   0  0  0  0  0  0  0  0  0  0  0  0
    5.4667    5.3544    4.3049 H   0  0  0  0  0  0  0  0  0  0  0  0
  1  4  1  0  0  0  0
  1  2  1  1  0  0  0
  3 19  1  0  0  0  0
  4  6  1  0  0  0  0
  5  4  1  0  0  0  0
  7  1  1  0  0  0  0
  8  9  1  0  0  0  0
 10  8  1  0  0  0  0
 11  8  1  0  0  0  0
 12  8  1  0  0  0  0
 12 13  1  1  0  0  0
 12  4  1  0  0  0  0
 14 12  1  0  0  0  0
 15 16  1  0  0  0  0
 15 14  2  0  0  0  0
 17 15  1  0  0  0  0
 18 17  1  0  0  0  0
 19 17  2  0  0  0  0
 19 20  1  0  0  0  0
 20 22  2  0  0  0  0
 21 20  1  0  0  0  0
 22 14  1  0  0  0  0
 22  1  1  0  0  0  0
 23 24  1  0  0  0  0
 23  7  1  0  0  0  0
 25 23  1  0  0  0  0
 26 25  1  0  0  0  0
 27 25  2  0  0  0  0
 27 28  1  0  0  0  0
 28 30  2  0  0  0  0
 29 28  1  0  0  0  0
 30  7  1  0  0  0  0
 30 31  1  0  0  0  0
 32 35  1  0  0  0  0
 32 34  1  0  0  0  0
 32 27  1  0  0  0  0
 33 32  1  0  0  0  0
M  END
$$$$
