CSD_code = COFPIX | q = 0 | S = 0 | Stoichiometry = C15H16Br2N2PdS | MND = 4
 OpenBabel04212202023D

 37 39  0  0  0  0  0  0  0  0999 V2000
    0.7603    1.7218    3.9233 Pd  0  0  0  0  0  0  0  0  0  0  0  0
    1.7275    1.0993    1.7842 Br  0  0  0  0  0  0  0  0  0  0  0  0
   -0.2669    2.2064    6.0801 Br  0  0  0  0  0  0  0  0  0  0  0  0
   -1.7316    2.5565    2.7110 N   0  0  0  0  0  0  0  0  0  0  0  0
    2.0887    0.5336    4.8367 N   0  0  0  0  0  0  0  0  0  0  0  0
   -0.2160    4.5789    2.6698 S   0  0  0  0  0  0  0  0  0  0  0  0
   -0.5005    2.9241    3.0559 C   0  0  0  0  0  0  0  0  0  0  0  0
   -2.5141    3.5347    2.1280 C   0  0  0  0  0  0  0  0  0  0  0  0
   -3.8253    3.4357    1.6767 C   0  0  0  0  0  0  0  0  0  0  0  0
   -4.3711    2.5091    1.7512 H   0  0  0  0  0  0  0  0  0  0  0  0
   -4.4171    4.5569    1.1298 C   0  0  0  0  0  0  0  0  0  0  0  0
   -5.4341    4.4961    0.7749 H   0  0  0  0  0  0  0  0  0  0  0  0
   -3.7280    5.7621    1.0271 C   0  0  0  0  0  0  0  0  0  0  0  0
   -4.2174    6.6204    0.5944 H   0  0  0  0  0  0  0  0  0  0  0  0
   -2.4258    5.8735    1.4733 C   0  0  0  0  0  0  0  0  0  0  0  0
   -1.8821    6.8014    1.4015 H   0  0  0  0  0  0  0  0  0  0  0  0
   -1.8292    4.7512    2.0223 C   0  0  0  0  0  0  0  0  0  0  0  0
   -2.1876    1.1903    2.8963 C   0  0  0  0  0  0  0  0  0  0  0  0
   -3.2186    1.2123    3.2602 H   0  0  0  0  0  0  0  0  0  0  0  0
   -1.5516    0.7197    3.6741 H   0  0  0  0  0  0  0  0  0  0  0  0
   -2.0754    0.3844    1.5996 C   0  0  0  0  0  0  0  0  0  0  0  0
   -1.0422    0.4281    1.2455 H   0  0  0  0  0  0  0  0  0  0  0  0
   -2.7150    0.8266    0.8329 H   0  0  0  0  0  0  0  0  0  0  0  0
   -2.4687   -1.0673    1.8340 C   0  0  0  0  0  0  0  0  0  0  0  0
   -1.8119   -1.5224    2.5722 H   0  0  0  0  0  0  0  0  0  0  0  0
   -2.3850   -1.6313    0.9096 H   0  0  0  0  0  0  0  0  0  0  0  0
   -3.4934   -1.1402    2.1929 H   0  0  0  0  0  0  0  0  0  0  0  0
    1.9888   -0.7882    4.9126 C   0  0  0  0  0  3  0  0  0  0  0  0
    1.1121   -1.2357    4.4505 H   0  0  0  0  0  0  0  0  0  0  0  0
    2.9491   -1.5636    5.5384 C   0  0  0  0  0  0  0  0  0  0  0  0
    2.8324   -2.6345    5.5823 H   0  0  0  0  0  0  0  0  0  0  0  0
    4.0524   -0.9376    6.0969 C   0  0  0  0  0  0  0  0  0  0  0  0
    4.8199   -1.5136    6.5906 H   0  0  0  0  0  0  0  0  0  0  0  0
    4.1526    0.4428    6.0083 C   0  0  0  0  0  0  0  0  0  0  0  0
    4.9947    0.9699    6.4272 H   0  0  0  0  0  0  0  0  0  0  0  0
    3.1448    1.1426    5.3699 C   0  0  0  0  0  0  0  0  0  0  0  0
    3.1752    2.2314    5.2807 H   0  0  0  0  0  0  0  0  0  0  0  0
  1  5  1  0  0  0  0
  1  3  1  0  0  0  0
  2  1  1  0  0  0  0
  4 18  1  0  0  0  0
  4  7  1  0  0  0  0
  5 28  1  0  0  0  0
  5 36  1  0  0  0  0
  6  7  1  0  0  0  0
  7  1  2  0  0  0  0
  8  4  1  0  0  0  0
  9 10  1  0  0  0  0
  9  8  2  0  0  0  0
 11  9  1  0  0  0  0
 12 11  1  0  0  0  0
 13 11  2  0  0  0  0
 13 15  1  0  0  0  0
 14 13  1  0  0  0  0
 15 17  2  0  0  0  0
 16 15  1  0  0  0  0
 17  8  1  0  0  0  0
 17  6  1  0  0  0  0
 18 19  1  0  0  0  0
 18 20  1  0  0  0  0
 21 24  1  0  0  0  0
 21 18  1  0  0  0  0
 22 21  1  0  0  0  0
 23 21  1  0  0  0  0
 24 27  1  0  0  0  0
 24 25  1  0  0  0  0
 26 24  1  0  0  0  0
 28 30  1  0  0  0  0
 29 28  1  0  0  0  0
 30 31  1  0  0  0  0
 30 32  2  0  0  0  0
 32 33  1  0  0  0  0
 34 32  1  0  0  0  0
 34 35  1  0  0  0  0
 36 34  2  0  0  0  0
 37 36  1  0  0  0  0
M  END
$$$$
