CSD_code = COFPEU | q = 0 | S = 0 | Stoichiometry = C31H30Cl2N2O4Pd | MND = 4
 OpenBabel04212202023D

 70 75  0  0  1  0  0  0  0  0999 V2000
    1.3970   10.0854    4.2488 N   0  0  2  0  0  0  0  0  0  0  0  0
    2.6357   10.2760    3.9978 C   0  0  1  0  0  3  0  0  0  0  0  0
    0.0665   10.8890    2.8866 Pd  0  0  0  0  0  0  0  0  0  0  0  0
    3.5875   10.3883    4.9315 O   0  0  0  0  0  0  0  0  0  0  0  0
   -1.4481   11.8072    1.5142 Cl  0  0  0  0  0  0  0  0  0  0  0  0
   -0.9691    8.4729    5.0261 O   0  0  0  0  0  0  0  0  0  0  0  0
    3.2379   10.3678    2.6682 C   0  0  0  0  0  0  0  0  0  0  0  0
   -0.8555    9.0427    2.7376 N   0  0  0  0  0  0  0  0  0  0  0  0
    2.6956   10.3171    1.3892 C   0  0  0  0  0  0  0  0  0  0  0  0
    1.6200   10.1717    1.2231 H   0  0  0  0  0  0  0  0  0  0  0  0
    6.5284   15.9170    5.4892 O   0  0  0  0  0  0  0  0  0  0  0  0
    1.1502   12.8411    3.0577 Cl  0  0  0  0  0  0  0  0  0  0  0  0
    8.1483    6.6015    6.6293 O   0  0  0  0  0  0  0  0  0  0  0  0
    3.5534   10.4891    0.3169 C   0  0  0  0  0  0  0  0  0  0  0  0
    3.1593   10.4666   -0.6877 H   0  0  0  0  0  0  0  0  0  0  0  0
    4.9117   10.7139    0.5113 C   0  0  0  0  0  0  0  0  0  0  0  0
    5.5521   10.8655   -0.3445 H   0  0  0  0  0  0  0  0  0  0  0  0
    5.4537   10.7594    1.7859 C   0  0  0  0  0  0  0  0  0  0  0  0
    6.5043   10.9515    1.9419 H   0  0  0  0  0  0  0  0  0  0  0  0
    4.6048   10.5674    2.8578 C   0  0  0  0  0  0  0  0  0  0  0  0
    4.8873   10.6182    4.3317 C   0  0  0  0  0  0  0  0  0  0  0  0
    5.3613   12.0218    4.6786 C   0  0  0  0  0  0  0  0  0  0  0  0
    6.6946   12.2805    4.9493 C   0  0  0  0  0  0  0  0  0  0  0  0
    7.4138   11.4744    4.9502 H   0  0  0  0  0  0  0  0  0  0  0  0
    7.1262   13.5676    5.2235 C   0  0  0  0  0  0  0  0  0  0  0  0
    8.1718   13.7309    5.4315 H   0  0  0  0  0  0  0  0  0  0  0  0
    6.2177   14.6202    5.2260 C   0  0  0  0  0  0  0  0  0  0  0  0
    4.8777   14.3589    4.9320 C   0  0  0  0  0  0  0  0  0  0  0  0
    4.1816   15.1815    4.9169 H   0  0  0  0  0  0  0  0  0  0  0  0
    4.4551   13.0788    4.6527 C   0  0  0  0  0  0  0  0  0  0  0  0
    3.4176   12.9129    4.3996 H   0  0  0  0  0  0  0  0  0  0  0  0
    5.7982    9.5355    4.8717 C   0  0  0  0  0  0  0  0  0  0  0  0
    6.3770    8.5682    4.0690 C   0  0  0  0  0  0  0  0  0  0  0  0
    6.2136    8.5785    3.0018 H   0  0  0  0  0  0  0  0  0  0  0  0
    7.1738    7.5740    4.6153 C   0  0  0  0  0  0  0  0  0  0  0  0
    7.6133    6.8412    3.9573 H   0  0  0  0  0  0  0  0  0  0  0  0
    7.3899    7.5281    5.9874 C   0  0  0  0  0  0  0  0  0  0  0  0
    6.7912    8.4947    6.8003 C   0  0  0  0  0  0  0  0  0  0  0  0
    6.9604    8.4454    7.8640 H   0  0  0  0  0  0  0  0  0  0  0  0
    6.0079    9.4816    6.2485 C   0  0  0  0  0  0  0  0  0  0  0  0
    5.5483   10.2262    6.8803 H   0  0  0  0  0  0  0  0  0  0  0  0
    7.8657   16.2477    5.7730 C   0  0  0  0  0  0  0  0  0  0  0  0
    8.5257   16.0132    4.9314 H   0  0  0  0  0  0  0  0  0  0  0  0
    8.2258   15.7354    6.6712 H   0  0  0  0  0  0  0  0  0  0  0  0
    7.8729   17.3227    5.9456 H   0  0  0  0  0  0  0  0  0  0  0  0
    8.7737    5.5952    5.8697 C   0  0  0  0  0  0  0  0  0  0  0  0
    9.4810    6.0167    5.1483 H   0  0  0  0  0  0  0  0  0  0  0  0
    8.0411    4.9757    5.3425 H   0  0  0  0  0  0  0  0  0  0  0  0
    9.3153    4.9798    6.5862 H   0  0  0  0  0  0  0  0  0  0  0  0
   -0.6484    9.7666    5.5164 C   0  0  0  0  0  0  0  0  0  0  0  0
   -1.0666    9.7734    6.5270 H   0  0  0  0  0  0  0  0  0  0  0  0
   -1.1429   10.5640    4.9181 H   0  0  0  0  0  0  0  0  0  0  0  0
   -1.0921    8.1798    3.7256 C   0  0  2  0  0  3  0  0  0  0  0  0
   -1.5111    6.8642    3.4674 C   0  0  0  0  0  0  0  0  0  0  0  0
   -1.6861    6.2148    4.3093 H   0  0  0  0  0  0  0  0  0  0  0  0
   -1.6919    6.4526    2.1685 C   0  0  0  0  0  0  0  0  0  0  0  0
   -2.0144    5.4457    1.9526 H   0  0  0  0  0  0  0  0  0  0  0  0
   -1.4621    7.3661    1.1435 C   0  0  0  0  0  0  0  0  0  0  0  0
   -1.6039    7.0950    0.1106 H   0  0  0  0  0  0  0  0  0  0  0  0
   -1.0511    8.6376    1.4735 C   0  0  0  0  0  0  0  0  0  0  0  0
   -0.8966    9.3923    0.7092 H   0  0  0  0  0  0  0  0  0  0  0  0
    0.8757   10.0294    5.6105 C   0  0  0  0  0  0  0  0  0  0  0  0
    1.0726   11.3851    6.2999 C   0  0  0  0  0  0  0  0  0  0  0  0
    2.1315   11.5755    6.4491 H   0  0  0  0  0  0  0  0  0  0  0  0
    0.5720   11.3962    7.2645 H   0  0  0  0  0  0  0  0  0  0  0  0
    0.6641   12.1793    5.6709 H   0  0  0  0  0  0  0  0  0  0  0  0
    1.5269    8.8947    6.4088 C   0  0  0  0  0  0  0  0  0  0  0  0
    1.3657    7.9425    5.9072 H   0  0  0  0  0  0  0  0  0  0  0  0
    1.0845    8.8454    7.4002 H   0  0  0  0  0  0  0  0  0  0  0  0
    2.5946    9.0642    6.5084 H   0  0  0  0  0  0  0  0  0  0  0  0
  1 62  1  1  0  0  0
  2  7  1  6  0  0  0
  2  1  1  0  0  0  0
  2  4  1  0  0  0  0
  3 12  1  0  0  0  0
  3  1  1  0  0  0  0
  5  3  1  0  0  0  0
  6 50  1  0  0  0  0
  7 20  1  0  0  0  0
  8  3  1  0  0  0  0
  8 53  1  0  0  0  0
  9  7  2  0  0  0  0
 10  9  1  0  0  0  0
 11 42  1  0  0  0  0
 14 16  2  0  0  0  0
 14  9  1  0  0  0  0
 15 14  1  0  0  0  0
 16 18  1  0  0  0  0
 17 16  1  0  0  0  0
 18 19  1  0  0  0  0
 18 20  2  0  0  0  0
 20 21  1  0  0  0  0
 21 22  1  0  0  0  0
 21 32  1  0  0  0  0
 21  4  1  0  0  0  0
 22 23  1  0  0  0  0
 23 24  1  0  0  0  0
 23 25  2  0  0  0  0
 25 27  1  0  0  0  0
 25 26  1  0  0  0  0
 27 11  1  0  0  0  0
 28 27  2  0  0  0  0
 29 28  1  0  0  0  0
 30 22  2  0  0  0  0
 30 28  1  0  0  0  0
 31 30  1  0  0  0  0
 32 40  1  0  0  0  0
 33 35  1  0  0  0  0
 33 32  2  0  0  0  0
 34 33  1  0  0  0  0
 35 37  2  0  0  0  0
 36 35  1  0  0  0  0
 37 13  1  0  0  0  0
 37 38  1  0  0  0  0
 38 39  1  0  0  0  0
 40 38  2  0  0  0  0
 40 41  1  0  0  0  0
 42 45  1  0  0  0  0
 42 44  1  0  0  0  0
 43 42  1  0  0  0  0
 46 49  1  0  0  0  0
 46 13  1  0  0  0  0
 47 46  1  0  0  0  0
 48 46  1  0  0  0  0
 50 62  1  0  0  0  0
 50 51  1  0  0  0  0
 52 50  1  0  0  0  0
 53 54  1  1  0  0  0
 53  6  1  0  0  0  0
 54 55  1  0  0  0  0
 56 54  2  0  0  0  0
 57 56  1  0  0  0  0
 58 60  2  0  0  0  0
 58 56  1  0  0  0  0
 59 58  1  0  0  0  0
 60  8  1  0  0  0  0
 61 60  1  0  0  0  0
 62 63  1  0  0  0  0
 62 67  1  0  0  0  0
 63 64  1  0  0  0  0
 63 65  1  0  0  0  0
 66 63  1  0  0  0  0
 67 70  1  0  0  0  0
 67 69  1  0  0  0  0
 68 67  1  0  0  0  0
M  END
$$$$
