CSD_code = COFPIY | q = 0 | S = 0 | Stoichiometry = C36H32Cl2N2O4Pd | MND = 4
 OpenBabel04212202023D

 77 83  0  0  1  0  0  0  0  0999 V2000
   10.9392    2.6889   18.2107 C   0  0  0  0  0  0  0  0  0  0  0  0
   11.5957    1.8911   17.8974 H   0  0  0  0  0  0  0  0  0  0  0  0
    7.8454    4.9385   22.1986 N   0  0  0  0  0  0  0  0  0  0  0  0
   12.8220    8.6718   14.1262 O   0  0  0  0  0  0  0  0  0  0  0  0
    8.5659    3.8478   22.4934 C   0  0  0  0  0  3  0  0  0  0  0  0
    8.1835    2.9133   22.0930 H   0  0  0  0  0  0  0  0  0  0  0  0
    6.4596    4.5555   20.6805 Pd  0  0  0  0  0  0  0  0  0  0  0  0
    5.0324    4.1699   19.0133 Cl  0  0  0  0  0  0  0  0  0  0  0  0
   13.8952    7.9102   23.4433 O   0  0  0  0  0  0  0  0  0  0  0  0
    5.5138    2.9326   21.8927 Cl  0  0  0  0  0  0  0  0  0  0  0  0
    7.1934    8.1687   15.2042 C   0  0  0  0  0  0  0  0  0  0  0  0
    7.5596    8.2730   14.1926 H   0  0  0  0  0  0  0  0  0  0  0  0
    9.4966    6.9625   19.2498 O   0  0  0  0  0  0  0  0  0  0  0  0
    7.4127    6.1158   19.7700 N   0  0  1  0  0  0  0  0  0  0  0  0
    8.7319    3.4018   18.8951 C   0  0  0  0  0  0  0  0  0  0  0  0
    7.6767    3.1759   19.0919 H   0  0  0  0  0  0  0  0  0  0  0  0
   12.7088    8.4462   21.5060 C   0  0  0  0  0  0  0  0  0  0  0  0
   12.9400    9.4763   21.7249 H   0  0  0  0  0  0  0  0  0  0  0  0
   12.2599    8.1639   15.2535 C   0  0  0  0  0  0  0  0  0  0  0  0
    6.2119    7.9035   17.7937 C   0  0  0  0  0  0  0  0  0  0  0  0
   14.4066    6.9748   24.3622 C   0  0  0  0  0  0  0  0  0  0  0  0
   15.0898    6.2684   23.8809 H   0  0  0  0  0  0  0  0  0  0  0  0
   13.6051    6.4227   24.8632 H   0  0  0  0  0  0  0  0  0  0  0  0
   14.9544    7.5576   25.1005 H   0  0  0  0  0  0  0  0  0  0  0  0
   12.1303    5.7922   21.0036 C   0  0  0  0  0  0  0  0  0  0  0  0
   11.9004    4.7516   20.8270 H   0  0  0  0  0  0  0  0  0  0  0  0
    6.6353    9.1403   17.3241 C   0  0  0  0  0  0  0  0  0  0  0  0
    6.5772   10.0070   17.9682 H   0  0  0  0  0  0  0  0  0  0  0  0
   13.1763    7.4625   22.3822 C   0  0  0  0  0  0  0  0  0  0  0  0
    8.2353    6.1153   22.6875 C   0  0  0  0  0  0  0  0  0  0  0  0
   13.1504    7.6554   16.2028 C   0  0  0  0  0  0  0  0  0  0  0  0
   14.2060    7.6945   15.9863 H   0  0  0  0  0  0  0  0  0  0  0  0
   12.8794    6.1304   22.1194 C   0  0  0  0  0  0  0  0  0  0  0  0
   13.2219    5.3432   22.7720 H   0  0  0  0  0  0  0  0  0  0  0  0
    7.1190    9.2745   16.0343 C   0  0  0  0  0  0  0  0  0  0  0  0
    7.4359   10.2440   15.6770 H   0  0  0  0  0  0  0  0  0  0  0  0
   10.8106    6.4464   18.9248 C   0  0  0  0  0  0  0  0  0  0  0  0
   10.8956    8.1191   15.5168 C   0  0  0  0  0  0  0  0  0  0  0  0
   10.1746    8.4994   14.8118 H   0  0  0  0  0  0  0  0  0  0  0  0
    9.2356    4.6942   18.9965 C   0  0  0  0  0  0  0  0  0  0  0  0
    9.3739    6.2317   23.5006 C   0  0  0  0  0  0  0  0  0  0  0  0
    9.6353    7.2088   23.8713 H   0  0  0  0  0  0  0  0  0  0  0  0
   11.6867    6.7651   20.1243 C   0  0  0  0  0  0  0  0  0  0  0  0
    6.4690    7.3877   21.6022 C   0  0  0  0  0  0  0  0  0  0  0  0
    6.0223    8.3473   21.8744 H   0  0  0  0  0  0  0  0  0  0  0  0
    5.7248    6.5757   21.7672 H   0  0  0  0  0  0  0  0  0  0  0  0
   10.4364    7.5748   16.7033 C   0  0  0  0  0  0  0  0  0  0  0  0
    9.3735    7.5474   16.8891 H   0  0  0  0  0  0  0  0  0  0  0  0
    6.9093    7.4212   20.1269 C   0  0  2  0  0  0  0  0  0  0  0  0
    7.6972    8.1796   20.0130 H   0  0  0  0  0  0  0  0  0  0  0  0
    9.6089    2.4053   18.5001 C   0  0  0  0  0  0  0  0  0  0  0  0
    9.2513    1.3914   18.4061 H   0  0  0  0  0  0  0  0  0  0  0  0
   11.9767    8.1004   20.3942 C   0  0  0  0  0  0  0  0  0  0  0  0
   11.6188    8.8638   19.7206 H   0  0  0  0  0  0  0  0  0  0  0  0
   11.3209    7.0827   17.6481 C   0  0  0  0  0  0  0  0  0  0  0  0
    8.6095    5.9580   19.3615 C   0  0  2  0  0  3  0  0  0  0  0  0
   11.9777    9.1951   13.1283 C   0  0  0  0  0  0  0  0  0  0  0  0
   12.6389    9.5370   12.3337 H   0  0  0  0  0  0  0  0  0  0  0  0
   11.3923   10.0416   13.5007 H   0  0  0  0  0  0  0  0  0  0  0  0
   11.3018    8.4305   12.7326 H   0  0  0  0  0  0  0  0  0  0  0  0
    9.6976    3.8837   23.2762 C   0  0  0  0  0  0  0  0  0  0  0  0
   10.2406    2.9765   23.4830 H   0  0  0  0  0  0  0  0  0  0  0  0
   10.1090    5.1084   23.7945 C   0  0  0  0  0  0  0  0  0  0  0  0
   10.9830    5.1776   24.4231 H   0  0  0  0  0  0  0  0  0  0  0  0
    6.3006    6.7952   16.9599 C   0  0  0  0  0  0  0  0  0  0  0  0
    5.9723    5.8313   17.3228 H   0  0  0  0  0  0  0  0  0  0  0  0
    6.7894    6.9291   15.6720 C   0  0  0  0  0  0  0  0  0  0  0  0
    6.8499    6.0627   15.0299 H   0  0  0  0  0  0  0  0  0  0  0  0
   12.6864    7.1227   17.3846 C   0  0  0  0  0  0  0  0  0  0  0  0
   13.3865    6.7430   18.1141 H   0  0  0  0  0  0  0  0  0  0  0  0
   11.4384    3.9792   18.3133 C   0  0  0  0  0  0  0  0  0  0  0  0
   12.4689    4.2013   18.0831 H   0  0  0  0  0  0  0  0  0  0  0  0
   10.5729    4.9754   18.7170 C   0  0  0  0  0  0  0  0  0  0  0  0
    7.5845    7.2686   22.4753 O   0  0  0  0  0  0  0  0  0  0  0  0
    5.7201    7.7482   19.2061 C   0  0  0  0  0  0  0  0  0  0  0  0
    5.0073    6.9183   19.2658 H   0  0  0  0  0  0  0  0  0  0  0  0
    5.2426    8.6668   19.5504 H   0  0  0  0  0  0  0  0  0  0  0  0
  1 71  2  0  0  0  0
  1 51  1  0  0  0  0
  2  1  1  0  0  0  0
  3  5  1  0  0  0  0
  3 30  1  0  0  0  0
  4 19  1  0  0  0  0
  5 61  1  0  0  0  0
  6  5  1  0  0  0  0
  7 10  1  0  0  0  0
  7  3  1  0  0  0  0
  8  7  1  0  0  0  0
  9 21  1  0  0  0  0
 11 67  2  0  0  0  0
 11 35  1  0  0  0  0
 12 11  1  0  0  0  0
 13 56  1  0  0  0  0
 14 56  1  1  0  0  0
 14 49  1  0  0  0  0
 14  7  1  0  0  0  0
 15 40  1  0  0  0  0
 15 16  1  0  0  0  0
 17 18  1  0  0  0  0
 17 29  1  0  0  0  0
 19 38  2  0  0  0  0
 19 31  1  0  0  0  0
 20 75  1  0  0  0  0
 21 23  1  0  0  0  0
 21 24  1  0  0  0  0
 22 21  1  0  0  0  0
 25 33  1  0  0  0  0
 26 25  1  0  0  0  0
 27 20  1  0  0  0  0
 27 28  1  0  0  0  0
 29  9  1  0  0  0  0
 30 41  2  0  0  0  0
 31 69  2  0  0  0  0
 32 31  1  0  0  0  0
 33 29  2  0  0  0  0
 33 34  1  0  0  0  0
 35 27  2  0  0  0  0
 36 35  1  0  0  0  0
 37 13  1  0  0  0  0
 37 43  1  0  0  0  0
 38 47  1  0  0  0  0
 39 38  1  0  0  0  0
 41 63  1  0  0  0  0
 41 42  1  0  0  0  0
 43 53  1  0  0  0  0
 43 25  2  0  0  0  0
 44 46  1  0  0  0  0
 44 45  1  0  0  0  0
 44 74  1  0  0  0  0
 47 48  1  0  0  0  0
 47 55  2  0  0  0  0
 49 50  1  6  0  0  0
 49 44  1  0  0  0  0
 51 15  2  0  0  0  0
 52 51  1  0  0  0  0
 53 17  2  0  0  0  0
 54 53  1  0  0  0  0
 55 37  1  0  0  0  0
 56 40  1  1  0  0  0
 57 59  1  0  0  0  0
 57  4  1  0  0  0  0
 58 57  1  0  0  0  0
 60 57  1  0  0  0  0
 61 62  1  0  0  0  0
 61 63  2  0  0  0  0
 63 64  1  0  0  0  0
 65 66  1  0  0  0  0
 65 20  2  0  0  0  0
 67 65  1  0  0  0  0
 68 67  1  0  0  0  0
 69 55  1  0  0  0  0
 69 70  1  0  0  0  0
 71 73  1  0  0  0  0
 72 71  1  0  0  0  0
 73 37  1  0  0  0  0
 73 40  2  0  0  0  0
 74 30  1  0  0  0  0
 75 76  1  0  0  0  0
 75 77  1  0  0  0  0
 75 49  1  0  0  0  0
M  END
$$$$
