CSD_code = COFZIH | q = 0 | S = 0 | Stoichiometry = C8H17Cl2O4V | MND = 6
 OpenBabel04212202023D

 32 31  0  0  0  0  0  0  0  0999 V2000
    8.6628   12.3628    6.4751 C   0  0  0  0  0  0  0  0  0  0  0  0
    8.0962   12.6411    7.3825 H   0  0  0  0  0  0  0  0  0  0  0  0
    9.6979   12.7279    6.5714 H   0  0  0  0  0  0  0  0  0  0  0  0
    8.6265   10.8280    6.3076 C   0  0  0  0  0  0  0  0  0  0  0  0
    9.3351   10.5211    5.5249 H   0  0  0  0  0  0  0  0  0  0  0  0
    8.8591   10.3143    7.2520 H   0  0  0  0  0  0  0  0  0  0  0  0
    7.0047    9.3384    5.2951 C   0  0  0  0  0  0  0  0  0  0  0  0
    6.9778    8.5346    6.0461 H   0  0  0  0  0  0  0  0  0  0  0  0
    7.7447    9.1054    4.5162 H   0  0  0  0  0  0  0  0  0  0  0  0
    5.6220    9.5211    4.6658 C   0  0  0  0  0  0  0  0  0  0  0  0
    5.3439    8.6170    4.1084 H   0  0  0  0  0  0  0  0  0  0  0  0
    4.8858    9.7165    5.4619 H   0  0  0  0  0  0  0  0  0  0  0  0
    4.4374   10.9249    3.1421 C   0  0  0  0  0  0  0  0  0  0  0  0
    4.4819   11.9890    2.8808 H   0  0  0  0  0  0  0  0  0  0  0  0
    3.6046   10.7644    3.8404 H   0  0  0  0  0  0  0  0  0  0  0  0
    4.2808   10.0942    1.8690 C   0  0  0  0  0  0  0  0  0  0  0  0
    3.3220   10.3467    1.4126 H   0  0  0  0  0  0  0  0  0  0  0  0
    4.2637    9.0282    2.1092 H   0  0  0  0  0  0  0  0  0  0  0  0
    5.4175   10.3834    0.8880 C   0  0  0  0  0  0  0  0  0  0  0  0
    5.4245   11.4520    0.6598 H   0  0  0  0  0  0  0  0  0  0  0  0
    6.3727   10.1438    1.3615 H   0  0  0  0  0  0  0  0  0  0  0  0
    5.2688    9.5824   -0.3988 C   0  0  0  0  0  0  0  0  0  0  0  0
    5.2784    8.5144   -0.1903 H   0  0  0  0  0  0  0  0  0  0  0  0
    6.0860    9.8049   -1.0794 H   0  0  0  0  0  0  0  0  0  0  0  0
    4.3318    9.8256   -0.8955 H   0  0  0  0  0  0  0  0  0  0  0  0
    6.4807   13.3477    3.4660 O   0  0  0  0  0  1  0  0  0  0  0  0
    8.0394   12.9411    5.4119 O   0  0  0  0  0  0  0  0  0  0  0  0
    7.2994   10.5778    5.9009 O   0  0  0  0  0  0  0  0  0  0  0  0
    5.6749   10.6373    3.7968 O   0  0  0  0  0  0  0  0  0  0  0  0
    8.3115   11.1934    3.1497 Cl  0  0  0  0  0  0  0  0  0  0  0  0
    5.1989   12.4940    5.8465 Cl  0  0  0  0  0  0  0  0  0  0  0  0
    6.8875   12.2781    4.4624 V   0  0  0  0  0  0  0  0  0  0  0  0
  1  3  1  0  0  0  0
  1  2  1  0  0  0  0
  4  1  1  0  0  0  0
  4  6  1  0  0  0  0
  5  4  1  0  0  0  0
  7 28  1  0  0  0  0
  7  8  1  0  0  0  0
  9  7  1  0  0  0  0
 10  7  1  0  0  0  0
 10 12  1  0  0  0  0
 11 10  1  0  0  0  0
 13 29  1  0  0  0  0
 13 15  1  0  0  0  0
 14 13  1  0  0  0  0
 16 18  1  0  0  0  0
 16 13  1  0  0  0  0
 17 16  1  0  0  0  0
 19 21  1  0  0  0  0
 19 16  1  0  0  0  0
 20 19  1  0  0  0  0
 22 23  1  0  0  0  0
 22 19  1  0  0  0  0
 24 22  1  0  0  0  0
 25 22  1  0  0  0  0
 26 32  1  0  0  0  0
 27  1  1  0  0  0  0
 28  4  1  0  0  0  0
 29 10  1  0  0  0  0
 30 32  1  0  0  0  0
 32 27  1  0  0  0  0
 32 31  1  0  0  0  0
M  END
$$$$
