CSD_code = COGJOY | q = 0 | S = 0 | Stoichiometry = C7H9AuCl2N2O2S | MND = 4
 OpenBabel04212202023D

 24 25  0  0  0  0  0  0  0  0999 V2000
    2.5226    2.5851    2.7838 Au  0  0  0  0  0  0  0  0  0  0  0  0
    0.9662    1.0354    2.5241 Cl  0  0  0  0  0  0  0  0  0  0  0  0
    1.4240    3.5861    4.4600 Cl  0  0  0  0  0  0  0  0  0  0  0  0
    2.9956    2.6089   -0.0522 S   0  0  0  0  0  0  0  0  0  0  0  0
    4.0793    2.9411   -0.9315 O   0  0  0  0  0  0  0  0  0  0  0  0
    2.1974    3.7098    0.4479 O   0  0  0  0  0  0  0  0  0  0  0  0
    4.0789    3.9141    2.8078 N   0  0  0  0  0  0  0  0  0  0  0  0
    3.5914    1.8080    1.2917 N   0  0  0  0  0  0  0  0  0  0  0  0
    4.0288    5.1512    3.2900 C   0  0  0  0  0  3  0  0  0  0  0  0
    3.1694    5.3808    3.9050 H   0  0  0  0  0  0  0  0  0  0  0  0
    5.0252    6.0701    3.0249 C   0  0  0  0  0  0  0  0  0  0  0  0
    4.9575    7.0662    3.4305 H   0  0  0  0  0  0  0  0  0  0  0  0
    6.0914    5.6860    2.2234 C   0  0  0  0  0  0  0  0  0  0  0  0
    6.8774    6.3859    1.9832 H   0  0  0  0  0  0  0  0  0  0  0  0
    6.1312    4.3937    1.7275 C   0  0  0  0  0  0  0  0  0  0  0  0
    6.9363    4.0604    1.0928 H   0  0  0  0  0  0  0  0  0  0  0  0
    5.1010    3.5177    2.0366 C   0  0  0  0  0  0  0  0  0  0  0  0
    4.9853    2.1153    1.5300 C   0  0  0  0  0  0  0  0  0  0  0  0
    5.5303    1.9904    0.5907 H   0  0  0  0  0  0  0  0  0  0  0  0
    5.3742    1.4078    2.2712 H   0  0  0  0  0  0  0  0  0  0  0  0
    1.9297    1.3845   -0.8148 C   0  0  0  0  0  0  0  0  0  0  0  0
    1.3672    1.8744   -1.6002 H   0  0  0  0  0  0  0  0  0  0  0  0
    1.2726    1.0032   -0.0420 H   0  0  0  0  0  0  0  0  0  0  0  0
    2.5647    0.6049   -1.2135 H   0  0  0  0  0  0  0  0  0  0  0  0
  1  7  1  0  0  0  0
  1  3  1  0  0  0  0
  2  1  1  0  0  0  0
  4  6  2  0  0  0  0
  4  8  1  0  0  0  0
  5  4  2  0  0  0  0
  7  9  1  0  0  0  0
  8 18  1  0  0  0  0
  8  1  1  0  0  0  0
  9 10  1  0  0  0  0
 11  9  1  0  0  0  0
 11 12  1  0  0  0  0
 13 11  2  0  0  0  0
 14 13  1  0  0  0  0
 15 17  2  0  0  0  0
 15 13  1  0  0  0  0
 16 15  1  0  0  0  0
 17  7  1  0  0  0  0
 18 17  1  0  0  0  0
 18 20  1  0  0  0  0
 19 18  1  0  0  0  0
 21  4  1  0  0  0  0
 21 23  1  0  0  0  0
 22 21  1  0  0  0  0
 24 21  1  0  0  0  0
M  END
$$$$
