CSD_code = COGJUE | q = 0 | S = 0 | Stoichiometry = C16H13AuCl2N2O2S | MND = 4
 OpenBabel04212202023D

 37 40  0  0  0  0  0  0  0  0999 V2000
   -0.8175    3.7178    2.5510 Au  0  0  0  0  0  0  0  0  0  0  0  0
   -2.1059    1.8961    2.5797 Cl  0  0  0  0  0  0  0  0  0  0  0  0
   -1.9937    4.6720    4.1721 Cl  0  0  0  0  0  0  0  0  0  0  0  0
    1.2568    5.3193    3.9041 S   0  0  0  0  0  0  0  0  0  0  0  0
    1.1242    3.9697    4.3997 O   0  0  0  0  0  0  0  0  0  0  0  0
    2.5806    5.8104    3.6636 O   0  0  0  0  0  0  0  0  0  0  0  0
    0.2237    3.1063    0.9154 N   0  0  0  0  0  0  0  0  0  0  0  0
    0.3999    5.2933    2.4391 N   0  0  0  0  0  0  0  0  0  0  0  0
    0.1098    1.9821    0.2438 C   0  0  0  0  0  0  0  0  0  0  0  0
   -0.5961    1.2614    0.6339 H   0  0  0  0  0  0  0  0  0  0  0  0
    0.8491    1.7457   -0.9196 C   0  0  0  0  0  0  0  0  0  0  0  0
    0.7180    0.8107   -1.4398 H   0  0  0  0  0  0  0  0  0  0  0  0
    1.7179    2.7039   -1.3776 C   0  0  0  0  0  0  0  0  0  0  0  0
    2.2920    2.5485   -2.2794 H   0  0  0  0  0  0  0  0  0  0  0  0
    1.8725    3.9084   -0.6625 C   0  0  0  0  0  0  0  0  0  0  0  0
    2.7605    4.9422   -1.0116 C   0  0  0  0  0  3  0  0  0  0  0  0
    3.3689    4.8336   -1.8959 H   0  0  0  0  0  0  0  0  0  0  0  0
    2.8547    6.0599   -0.2206 C   0  0  0  0  0  0  0  0  0  0  0  0
    3.5450    6.8458   -0.4873 H   0  0  0  0  0  0  0  0  0  0  0  0
    2.0829    6.2171    0.9342 C   0  0  0  0  0  0  0  0  0  0  0  0
    2.1983    7.0909    1.5527 H   0  0  0  0  0  0  0  0  0  0  0  0
    1.1881    5.2310    1.3072 C   0  0  0  0  0  0  0  0  0  0  0  0
    1.0843    4.0720    0.5065 C   0  0  0  0  0  0  0  0  0  0  0  0
    0.3679    6.4665    4.9303 C   0  0  0  0  0  0  0  0  0  0  0  0
    0.0065    7.6882    4.4020 C   0  0  0  0  0  0  0  0  0  0  0  0
    0.2528    7.9165    3.3769 H   0  0  0  0  0  0  0  0  0  0  0  0
   -0.6839    8.5855    5.1977 C   0  0  0  0  0  0  0  0  0  0  0  0
   -0.9808    9.5412    4.7915 H   0  0  0  0  0  0  0  0  0  0  0  0
   -1.0066    8.2657    6.5120 C   0  0  0  0  0  0  0  0  0  0  0  0
   -1.7753    9.2216    7.3692 C   0  0  0  0  0  0  0  0  0  0  0  0
   -1.7942   10.2152    6.9298 H   0  0  0  0  0  0  0  0  0  0  0  0
   -1.3398    9.2815    8.3642 H   0  0  0  0  0  0  0  0  0  0  0  0
   -2.8023    8.8737    7.4761 H   0  0  0  0  0  0  0  0  0  0  0  0
   -0.6234    7.0270    7.0195 C   0  0  0  0  0  0  0  0  0  0  0  0
   -0.8749    6.7680    8.0371 H   0  0  0  0  0  0  0  0  0  0  0  0
    0.0636    6.1222    6.2326 C   0  0  0  0  0  0  0  0  0  0  0  0
    0.3513    5.1501    6.5997 H   0  0  0  0  0  0  0  0  0  0  0  0
  1  2  1  0  0  0  0
  1  3  1  0  0  0  0
  4  5  2  0  0  0  0
  4 24  1  0  0  0  0
  6  4  2  0  0  0  0
  7  1  1  0  0  0  0
  8  1  1  0  0  0  0
  8  4  1  0  0  0  0
  9 10  1  0  0  0  0
  9  7  1  0  0  0  0
 11  9  2  0  0  0  0
 12 11  1  0  0  0  0
 13 11  1  0  0  0  0
 13 15  2  0  0  0  0
 14 13  1  0  0  0  0
 15 23  1  0  0  0  0
 16 15  1  0  0  0  0
 16 18  1  0  0  0  0
 17 16  1  0  0  0  0
 18 20  2  0  0  0  0
 19 18  1  0  0  0  0
 20 22  1  0  0  0  0
 20 21  1  0  0  0  0
 22  8  1  0  0  0  0
 23  7  1  0  0  0  0
 23 22  2  0  0  0  0
 24 36  1  0  0  0  0
 25 24  2  0  0  0  0
 25 27  1  0  0  0  0
 26 25  1  0  0  0  0
 27 29  2  0  0  0  0
 28 27  1  0  0  0  0
 29 34  1  0  0  0  0
 29 30  1  0  0  0  0
 30 33  1  0  0  0  0
 30 32  1  0  0  0  0
 31 30  1  0  0  0  0
 34 35  1  0  0  0  0
 36 37  1  0  0  0  0
 36 34  2  0  0  0  0
M  END
$$$$
