CSD_code = COGKEQ | q = 0 | S = 0 | Stoichiometry = C37H33Cl2N3Ru | MND = 5
 OpenBabel04212202023D

 76 82  0  0  0  0  0  0  0  0999 V2000
   -1.2131    3.8748    2.8757 C   0  0  0  0  0  3  0  0  0  0  0  0
   -2.3427    3.2257    4.8206 C   0  0  0  0  0  0  0  0  0  0  0  0
   -1.9974    3.4822    5.8252 H   0  0  0  0  0  0  0  0  0  0  0  0
   -2.9465    2.3149    4.8826 H   0  0  0  0  0  0  0  0  0  0  0  0
   -3.0893    4.3857    4.1548 C   0  0  0  0  0  0  0  0  0  0  0  0
   -4.0700    4.0862    3.7687 H   0  0  0  0  0  0  0  0  0  0  0  0
   -3.2293    5.2363    4.8240 H   0  0  0  0  0  0  0  0  0  0  0  0
   -0.2890    1.9648    4.0058 C   0  0  0  0  0  0  0  0  0  0  0  0
   -0.1897    1.0922    2.9184 C   0  0  0  0  0  0  0  0  0  0  0  0
   -0.9306    1.1519    2.1228 H   0  0  0  0  0  0  0  0  0  0  0  0
    0.7591    0.0814    2.9173 C   0  0  0  0  0  0  0  0  0  0  0  0
    0.8295   -0.5937    2.0763 H   0  0  0  0  0  0  0  0  0  0  0  0
    1.6001   -0.0674    4.0055 C   0  0  0  0  0  0  0  0  0  0  0  0
    2.3463   -0.8478    4.0117 H   0  0  0  0  0  0  0  0  0  0  0  0
    1.4916    0.7926    5.0834 C   0  0  0  0  0  0  0  0  0  0  0  0
    2.1650    0.6824    5.9210 H   0  0  0  0  0  0  0  0  0  0  0  0
    0.5641    1.8258    5.1049 C   0  0  0  0  0  0  0  0  0  0  0  0
    0.5435    2.7915    6.2486 C   0  0  0  0  0  0  0  0  0  0  0  0
    0.4432    3.8084    5.8743 H   0  0  0  0  0  0  0  0  0  0  0  0
    1.4729    2.7241    6.8078 H   0  0  0  0  0  0  0  0  0  0  0  0
   -0.2790    2.5769    6.9325 H   0  0  0  0  0  0  0  0  0  0  0  0
   -2.5620    5.8073    2.1728 C   0  0  0  0  0  0  0  0  0  0  0  0
   -2.5029    7.1258    2.6316 C   0  0  0  0  0  0  0  0  0  0  0  0
   -2.8835    8.1397    1.7628 C   0  0  0  0  0  0  0  0  0  0  0  0
   -2.8415    9.1633    2.1063 H   0  0  0  0  0  0  0  0  0  0  0  0
   -3.2835    7.8648    0.4681 C   0  0  0  0  0  0  0  0  0  0  0  0
   -3.5672    8.6731   -0.1893 H   0  0  0  0  0  0  0  0  0  0  0  0
   -3.3116    6.5577    0.0164 C   0  0  0  0  0  0  0  0  0  0  0  0
   -3.6044    6.3342   -0.9977 H   0  0  0  0  0  0  0  0  0  0  0  0
   -2.9659    5.5296    0.8729 C   0  0  0  0  0  0  0  0  0  0  0  0
   -2.9984    4.5047    0.5371 H   0  0  0  0  0  0  0  0  0  0  0  0
   -2.0062    7.4735    4.0032 C   0  0  0  0  0  0  0  0  0  0  0  0
   -2.8361    7.5758    4.7043 H   0  0  0  0  0  0  0  0  0  0  0  0
   -1.4793    8.4249    3.9717 H   0  0  0  0  0  0  0  0  0  0  0  0
   -1.3239    6.7130    4.3757 H   0  0  0  0  0  0  0  0  0  0  0  0
    0.1510    5.2520    0.7157 C   0  0  0  0  0  0  0  0  0  0  0  0
    0.2612    6.4523    1.4652 C   0  0  0  0  0  3  0  0  0  0  0  0
    0.3493    6.4802    2.5378 H   0  0  0  0  0  0  0  0  0  0  0  0
    0.2587    7.5508    0.6410 C   0  0  0  0  0  0  0  0  0  0  0  0
    0.1756    7.7129   -1.9531 C   0  0  0  0  0  0  0  0  0  0  0  0
    0.2679    8.7869   -2.0199 H   0  0  0  0  0  0  0  0  0  0  0  0
    0.0893    6.9528   -3.1190 C   0  0  0  0  0  0  0  0  0  0  0  0
    0.0961    7.4524   -4.0772 H   0  0  0  0  0  0  0  0  0  0  0  0
   -0.0032    5.5746   -3.0657 C   0  0  0  0  0  0  0  0  0  0  0  0
   -0.0769    5.0070   -3.9820 H   0  0  0  0  0  0  0  0  0  0  0  0
    0.0128    4.9076   -1.8439 C   0  0  0  0  0  0  0  0  0  0  0  0
   -0.0562    3.8300   -1.8105 H   0  0  0  0  0  0  0  0  0  0  0  0
    0.1056    5.6490   -0.6814 C   0  0  0  0  0  0  0  0  0  0  0  0
    0.1585    7.0667   -0.7361 C   0  0  0  0  0  0  0  0  0  0  0  0
    0.3149    8.9294    1.0810 C   0  0  0  0  0  0  0  0  0  0  0  0
    1.0552    9.2736    2.2162 C   0  0  0  0  0  0  0  0  0  0  0  0
    1.6221    8.5084    2.7246 H   0  0  0  0  0  0  0  0  0  0  0  0
    1.0870   10.5771    2.6698 C   0  0  0  0  0  0  0  0  0  0  0  0
    1.6708   10.8281    3.5439 H   0  0  0  0  0  0  0  0  0  0  0  0
    0.3744   11.5648    2.0076 C   0  0  0  0  0  0  0  0  0  0  0  0
    0.3991   12.5842    2.3639 H   0  0  0  0  0  0  0  0  0  0  0  0
   -0.3722   11.2355    0.8879 C   0  0  0  0  0  0  0  0  0  0  0  0
   -0.9382   11.9998    0.3744 H   0  0  0  0  0  0  0  0  0  0  0  0
   -0.4015    9.9339    0.4258 C   0  0  0  0  0  0  0  0  0  0  0  0
   -1.0140    9.6780   -0.4244 H   0  0  0  0  0  0  0  0  0  0  0  0
    2.6794    3.5289   -0.1250 C   0  0  0  0  0  3  0  0  0  0  0  0
    2.7063    4.5468    0.2460 H   0  0  0  0  0  0  0  0  0  0  0  0
    3.7360    3.0115   -0.8506 C   0  0  0  0  0  0  0  0  0  0  0  0
    4.5965    3.6293   -1.0526 H   0  0  0  0  0  0  0  0  0  0  0  0
    3.6711    1.7030   -1.3045 C   0  0  0  0  0  0  0  0  0  0  0  0
    4.4816    1.2692   -1.8701 H   0  0  0  0  0  0  0  0  0  0  0  0
    2.5317    0.9694   -1.0143 C   0  0  0  0  0  0  0  0  0  0  0  0
    2.4237   -0.0509   -1.3479 H   0  0  0  0  0  0  0  0  0  0  0  0
    1.5190    1.5640   -0.2844 C   0  0  0  0  0  0  0  0  0  0  0  0
    0.6052    1.0200   -0.0739 H   0  0  0  0  0  0  0  0  0  0  0  0
   -1.2232    3.0214    3.9099 N   0  0  0  0  0  0  0  0  0  0  0  0
   -2.2170    4.7352    3.0341 N   0  0  0  0  0  0  0  0  0  0  0  0
    1.5838    2.8193    0.1620 N   0  0  0  0  0  0  0  0  0  0  0  0
    0.1631    3.4848    1.4604 Ru  0  0  0  0  0  0  0  0  0  0  0  0
   -1.5367    2.5512    0.1140 Cl  0  0  0  0  0  0  0  0  0  0  0  0
    1.9404    3.8441    2.9377 Cl  0  0  0  0  0  0  0  0  0  0  0  0
  1 72  1  0  0  0  0
  1 71  1  0  0  0  0
  2  4  1  0  0  0  0
  2  3  1  0  0  0  0
  5  2  1  0  0  0  0
  5  7  1  0  0  0  0
  6  5  1  0  0  0  0
  8 17  1  0  0  0  0
  9  8  2  0  0  0  0
 10  9  1  0  0  0  0
 11  9  1  0  0  0  0
 11 13  2  0  0  0  0
 12 11  1  0  0  0  0
 13 14  1  0  0  0  0
 13 15  1  0  0  0  0
 15 17  2  0  0  0  0
 15 16  1  0  0  0  0
 17 18  1  0  0  0  0
 18 20  1  0  0  0  0
 18 21  1  0  0  0  0
 19 18  1  0  0  0  0
 22 23  1  0  0  0  0
 22 72  1  0  0  0  0
 23 32  1  0  0  0  0
 24 25  1  0  0  0  0
 24 23  2  0  0  0  0
 26 24  1  0  0  0  0
 27 26  1  0  0  0  0
 28 26  2  0  0  0  0
 28 30  1  0  0  0  0
 29 28  1  0  0  0  0
 30 22  2  0  0  0  0
 31 30  1  0  0  0  0
 32 35  1  0  0  0  0
 32 33  1  0  0  0  0
 34 32  1  0  0  0  0
 36 74  1  0  0  0  0
 36 37  1  0  0  0  0
 37 38  1  0  0  0  0
 39 50  1  0  0  0  0
 39 37  1  0  0  0  0
 40 49  1  0  0  0  0
 41 40  1  0  0  0  0
 42 44  1  0  0  0  0
 42 40  2  0  0  0  0
 43 42  1  0  0  0  0
 44 46  2  0  0  0  0
 45 44  1  0  0  0  0
 46 47  1  0  0  0  0
 46 48  1  0  0  0  0
 48 36  2  0  0  0  0
 49 48  1  0  0  0  0
 49 39  2  0  0  0  0
 50 51  1  0  0  0  0
 51 53  2  0  0  0  0
 51 52  1  0  0  0  0
 53 54  1  0  0  0  0
 55 56  1  0  0  0  0
 55 53  1  0  0  0  0
 57 55  2  0  0  0  0
 58 57  1  0  0  0  0
 59 57  1  0  0  0  0
 59 50  2  0  0  0  0
 60 59  1  0  0  0  0
 61 73  1  0  0  0  0
 61 62  1  0  0  0  0
 63 61  1  0  0  0  0
 64 63  1  0  0  0  0
 65 67  1  0  0  0  0
 65 63  2  0  0  0  0
 66 65  1  0  0  0  0
 67 69  2  0  0  0  0
 68 67  1  0  0  0  0
 69 70  1  0  0  0  0
 69 73  1  0  0  0  0
 71  8  1  0  0  0  0
 71  2  1  0  0  0  0
 72  5  1  0  0  0  0
 73 74  1  0  0  0  0
 74  1  1  0  0  0  0
 74 76  1  0  0  0  0
 75 74  1  0  0  0  0
M  END
$$$$
