CSD_code = COGQUM | q = 1 | S = 0 | Stoichiometry = C20H16ClN4Ni(1+) | MND = 5
 OpenBabel04212202023D

 42 47  0  0  1  0  0  0  0  0999 V2000
    1.7267    0.4531    3.2718 Ni  0  0  0  0  0  0  0  0  0  0  0  0
   -0.1309   -0.5536    3.2349 Cl  0  0  0  0  0  0  0  0  0  0  0  0
    2.5674   -0.8561    4.3186 N   0  0  0  0  0  0  0  0  0  0  0  0
    3.1843    1.6578    3.9959 N   0  0  0  0  0  0  0  0  0  0  0  0
    2.4479   -0.1090    1.2148 N   0  0  0  0  0  0  0  0  0  0  0  0
    0.8695    1.7474    2.2804 N   0  0  0  0  0  0  0  0  0  0  0  0
    2.2444   -2.1460    4.3597 C   0  0  0  0  0  3  0  0  0  0  0  0
    2.9438   -3.0717    5.1177 C   0  0  0  0  0  0  0  0  0  0  0  0
    4.0236   -2.6413    5.8701 C   0  0  0  0  0  0  0  0  0  0  0  0
    4.3732   -1.3031    5.8185 C   0  0  0  0  0  0  0  0  0  0  0  0
    3.6324   -0.4272    5.0295 C   0  0  0  0  0  0  0  0  0  0  0  0
    3.9564    0.9966    4.8797 C   0  0  1  0  0  3  0  0  0  0  0  0
    4.9835    1.6388    5.5679 C   0  0  0  0  0  0  0  0  0  0  0  0
    5.2255    2.9801    5.3304 C   0  0  0  0  0  0  0  0  0  0  0  0
    4.4377    3.6450    4.4038 C   0  0  0  0  0  0  0  0  0  0  0  0
    3.4296    2.9427    3.7648 C   0  0  0  0  0  0  0  0  0  0  0  0
    3.1354   -1.1506    0.7719 C   0  0  0  0  0  3  0  0  0  0  0  0
    3.0885   -1.5854   -0.5441 C   0  0  0  0  0  0  0  0  0  0  0  0
    2.2764   -0.9028   -1.4346 C   0  0  0  0  0  0  0  0  0  0  0  0
    1.5559    0.1901   -0.9818 C   0  0  0  0  0  0  0  0  0  0  0  0
    1.6682    0.5674    0.3538 C   0  0  0  0  0  0  0  0  0  0  0  0
    0.9247    1.6973    0.9377 C   0  0  1  0  0  3  0  0  0  0  0  0
    0.2918    2.6716    0.1676 C   0  0  0  0  0  0  0  0  0  0  0  0
   -0.4232    3.6797    0.7882 C   0  0  0  0  0  0  0  0  0  0  0  0
   -0.4896    3.6977    2.1735 C   0  0  0  0  0  0  0  0  0  0  0  0
    0.1750    2.7110    2.8798 C   0  0  0  0  0  0  0  0  0  0  0  0
    1.3814   -2.4498    3.7809 H   0  0  0  0  0  0  0  0  0  0  0  0
    2.6357   -4.1043    5.1178 H   0  0  0  0  0  0  0  0  0  0  0  0
    4.5853   -3.3299    6.4818 H   0  0  0  0  0  0  0  0  0  0  0  0
    5.2171   -0.9465    6.3849 H   0  0  0  0  0  0  0  0  0  0  0  0
    5.5842    1.1040    6.2842 H   0  0  0  0  0  0  0  0  0  0  0  0
    6.0141    3.4951    5.8562 H   0  0  0  0  0  0  0  0  0  0  0  0
    4.5954    4.6874    4.1807 H   0  0  0  0  0  0  0  0  0  0  0  0
    2.8003    3.4408    3.0391 H   0  0  0  0  0  0  0  0  0  0  0  0
    3.7559   -1.6581    1.4994 H   0  0  0  0  0  0  0  0  0  0  0  0
    3.6676   -2.4387   -0.8569 H   0  0  0  0  0  0  0  0  0  0  0  0
    2.1994   -1.2173   -2.4639 H   0  0  0  0  0  0  0  0  0  0  0  0
    0.9009    0.7182   -1.6545 H   0  0  0  0  0  0  0  0  0  0  0  0
    0.3615    2.6419   -0.9069 H   0  0  0  0  0  0  0  0  0  0  0  0
   -0.9262    4.4330    0.2024 H   0  0  0  0  0  0  0  0  0  0  0  0
   -1.0489    4.4543    2.6988 H   0  0  0  0  0  0  0  0  0  0  0  0
    0.1326    2.6820    3.9633 H   0  0  0  0  0  0  0  0  0  0  0  0
  1  4  1  0  0  0  0
  1  3  1  0  0  0  0
  2  1  1  0  0  0  0
  3  7  1  0  0  0  0
  3 11  1  0  0  0  0
  4 12  1  0  0  0  0
  5  1  1  0  0  0  0
  6 26  1  0  0  0  0
  6  1  1  0  0  0  0
  7  8  1  0  0  0  0
  8 28  1  0  0  0  0
  8  9  2  0  0  0  0
  9 29  1  0  0  0  0
 10  9  1  0  0  0  0
 10 30  1  0  0  0  0
 11 10  2  0  0  0  0
 12 11  1  6  0  0  0
 12 13  1  0  0  0  0
 13 31  1  0  0  0  0
 14 13  2  0  0  0  0
 14 32  1  0  0  0  0
 15 14  1  0  0  0  0
 16  4  1  0  0  0  0
 16 15  2  0  0  0  0
 17  5  1  0  0  0  0
 17 35  1  0  0  0  0
 18 17  1  0  0  0  0
 19 20  1  0  0  0  0
 19 18  2  0  0  0  0
 20 21  2  0  0  0  0
 21 22  1  0  0  0  0
 21  5  1  0  0  0  0
 22 23  1  6  0  0  0
 22  6  1  0  0  0  0
 23 24  2  0  0  0  0
 24 25  1  0  0  0  0
 25 41  1  0  0  0  0
 25 26  2  0  0  0  0
 26 42  1  0  0  0  0
 27  7  1  0  0  0  0
 33 15  1  0  0  0  0
 34 16  1  0  0  0  0
 36 18  1  0  0  0  0
 37 19  1  0  0  0  0
 38 20  1  0  0  0  0
 39 23  1  0  0  0  0
 40 24  1  0  0  0  0
M  END
$$$$
