CSD_code = COGVOK | q = 0 | S = 0 | Stoichiometry = C33H36BClN6O3P2Ru | MND = 6
 OpenBabel04212202023D

 83 92  0  0  1  0  0  0  0  0999 V2000
    9.6551    0.5149   31.6847 Ru  0  0  0  0  0  0  0  0  0  0  0  0
   10.8990    2.1550   30.5261 Cl  0  0  0  0  0  0  0  0  0  0  0  0
    7.8696    0.3187   30.2172 P   0  0  0  0  0  4  0  0  0  0  0  0
    8.7856    2.3307   32.6952 P   0  0  2  0  0  4  0  0  0  0  0  0
    9.7982    3.2785   33.5422 O   0  0  0  0  0  0  0  0  0  0  0  0
    7.5575    2.2245   33.7831 O   0  0  0  0  0  0  0  0  0  0  0  0
    8.1363    3.4118   31.6703 O   0  0  0  0  0  0  0  0  0  0  0  0
    8.8552   -0.8991   32.9396 N   0  0  1  0  0  0  0  0  0  0  0  0
    9.5803   -1.9715   33.2662 N   0  0  0  0  0  0  0  0  0  0  0  0
   11.2957    0.3893   32.9317 N   0  0  1  0  0  0  0  0  0  0  0  0
   11.7373   -0.8129   33.3135 N   0  0  0  0  0  0  0  0  0  0  0  0
   10.6482   -0.9225   30.6801 N   0  0  2  0  0  0  0  0  0  0  0  0
   11.1021   -2.0154   31.2903 N   0  0  0  0  0  0  0  0  0  0  0  0
    7.7160   -0.9548   33.6141 C   0  0  0  0  0  3  0  0  0  0  0  0
    6.9801   -0.1799   33.5290 H   0  0  0  0  0  0  0  0  0  0  0  0
    7.6935   -2.1115   34.3949 C   0  0  0  0  0  0  0  0  0  0  0  0
    6.9098   -2.4424   35.0445 H   0  0  0  0  0  0  0  0  0  0  0  0
    8.9012   -2.7256   34.1457 C   0  0  0  0  0  0  0  0  0  0  0  0
    9.3155   -3.6348   34.5315 H   0  0  0  0  0  0  0  0  0  0  0  0
   12.1153    1.3031   33.4235 C   0  0  0  0  0  3  0  0  0  0  0  0
   11.9617    2.3471   33.2322 H   0  0  0  0  0  0  0  0  0  0  0  0
   13.1233    0.6766   34.1575 C   0  0  0  0  0  0  0  0  0  0  0  0
   13.9360    1.1413   34.6766 H   0  0  0  0  0  0  0  0  0  0  0  0
   12.8431   -0.6686   34.0590 C   0  0  0  0  0  0  0  0  0  0  0  0
   13.3530   -1.5199   34.4631 H   0  0  0  0  0  0  0  0  0  0  0  0
   10.9924   -0.9836   29.4043 C   0  0  0  0  0  3  0  0  0  0  0  0
   10.7420   -0.1898   28.7238 H   0  0  0  0  0  0  0  0  0  0  0  0
   11.6925   -2.1683   29.1734 C   0  0  0  0  0  0  0  0  0  0  0  0
   12.1016   -2.5120   28.2461 H   0  0  0  0  0  0  0  0  0  0  0  0
   11.7420   -2.7916   30.4008 C   0  0  0  0  0  0  0  0  0  0  0  0
   12.1876   -3.7204   30.6946 H   0  0  0  0  0  0  0  0  0  0  0  0
    7.9900   -1.2331   29.2522 C   0  0  0  0  0  0  0  0  0  0  0  0
    8.1774   -2.4244   29.9531 C   0  0  0  0  0  0  0  0  0  0  0  0
    8.2007   -2.4093   31.0345 H   0  0  0  0  0  0  0  0  0  0  0  0
    8.3581   -3.6177   29.2813 C   0  0  0  0  0  0  0  0  0  0  0  0
    8.5035   -4.5322   29.8383 H   0  0  0  0  0  0  0  0  0  0  0  0
    8.3667   -3.6378   27.8958 C   0  0  0  0  0  0  0  0  0  0  0  0
    8.5155   -4.5687   27.3689 H   0  0  0  0  0  0  0  0  0  0  0  0
    8.1976   -2.4588   27.1917 C   0  0  0  0  0  0  0  0  0  0  0  0
    8.2165   -2.4672   26.1116 H   0  0  0  0  0  0  0  0  0  0  0  0
    8.0139   -1.2618   27.8630 C   0  0  0  0  0  0  0  0  0  0  0  0
    7.9009   -0.3455   27.3023 H   0  0  0  0  0  0  0  0  0  0  0  0
    6.2155    0.1496   30.9947 C   0  0  0  0  0  0  0  0  0  0  0  0
    5.5509   -1.0529   31.2012 C   0  0  0  0  0  0  0  0  0  0  0  0
    5.9775   -1.9807   30.8513 H   0  0  0  0  0  0  0  0  0  0  0  0
    4.3245   -1.0713   31.8450 C   0  0  0  0  0  0  0  0  0  0  0  0
    3.8176   -2.0129   31.9993 H   0  0  0  0  0  0  0  0  0  0  0  0
    3.7467    0.1056   32.2863 C   0  0  0  0  0  0  0  0  0  0  0  0
    2.7918    0.0863   32.7908 H   0  0  0  0  0  0  0  0  0  0  0  0
    4.3942    1.3115   32.0666 C   0  0  0  0  0  0  0  0  0  0  0  0
    3.9356    2.2349   32.3926 H   0  0  0  0  0  0  0  0  0  0  0  0
    5.6175    1.3329   31.4260 C   0  0  0  0  0  0  0  0  0  0  0  0
    6.1232    2.2679   31.2342 H   0  0  0  0  0  0  0  0  0  0  0  0
    7.3848    1.5131   28.9196 C   0  0  0  0  0  0  0  0  0  0  0  0
    6.1615    1.3578   28.2655 C   0  0  0  0  0  0  0  0  0  0  0  0
    5.5128    0.5320   28.5270 H   0  0  0  0  0  0  0  0  0  0  0  0
    5.7810    2.2519   27.2842 C   0  0  0  0  0  0  0  0  0  0  0  0
    4.8331    2.1259   26.7803 H   0  0  0  0  0  0  0  0  0  0  0  0
    6.6135    3.3088   26.9459 C   0  0  0  0  0  0  0  0  0  0  0  0
    6.3105    4.0081   26.1796 H   0  0  0  0  0  0  0  0  0  0  0  0
    7.8293    3.4619   27.5883 C   0  0  0  0  0  0  0  0  0  0  0  0
    8.4819    4.2809   27.3241 H   0  0  0  0  0  0  0  0  0  0  0  0
    8.2197    2.5672   28.5723 C   0  0  0  0  0  0  0  0  0  0  0  0
    9.1691    2.6848   29.0758 H   0  0  0  0  0  0  0  0  0  0  0  0
    9.2330    4.4011   34.2091 C   0  0  0  0  0  0  0  0  0  0  0  0
    9.8821    5.2559   33.9931 H   0  0  0  0  0  0  0  0  0  0  0  0
    9.2467    4.2086   35.2900 H   0  0  0  0  0  0  0  0  0  0  0  0
    6.9563    3.4538   34.1560 C   0  0  0  0  0  0  0  0  0  0  0  0
    6.8357    3.4376   35.2460 H   0  0  0  0  0  0  0  0  0  0  0  0
    5.9609    3.5105   33.6962 H   0  0  0  0  0  0  0  0  0  0  0  0
    7.8315    4.6960   32.2016 C   0  0  0  0  0  0  0  0  0  0  0  0
    6.8525    4.9850   31.8004 H   0  0  0  0  0  0  0  0  0  0  0  0
    8.5873    5.4036   31.8432 H   0  0  0  0  0  0  0  0  0  0  0  0
    7.8015    4.6657   33.7340 C   0  0  2  0  0  0  0  0  0  0  0  0
    7.2044    5.9405   34.3413 C   0  0  0  0  0  0  0  0  0  0  0  0
    6.1399    5.9659   34.0953 H   0  0  0  0  0  0  0  0  0  0  0  0
    7.2883    5.8699   35.4285 H   0  0  0  0  0  0  0  0  0  0  0  0
    7.8464    7.2435   33.8763 C   0  0  0  0  0  0  0  0  0  0  0  0
    7.7184    7.3839   32.8070 H   0  0  0  0  0  0  0  0  0  0  0  0
    8.9074    7.2664   34.1071 H   0  0  0  0  0  0  0  0  0  0  0  0
    7.3732    8.0788   34.3865 H   0  0  0  0  0  0  0  0  0  0  0  0
   11.0432   -2.0932   32.8190 B   0  0  2  0  0  0  0  0  0  0  0  0
   11.5530   -3.0722   33.2398 H   0  0  0  0  0  0  0  0  0  0  0  0
  1  4  1  0  0  0  0
  1 10  1  0  0  0  0
  1  8  1  0  0  0  0
  2  1  1  0  0  0  0
  3 43  1  0  0  0  0
  3  1  1  0  0  0  0
  4  7  1  6  0  0  0
  4  5  1  0  0  0  0
  4  6  1  0  0  0  0
  5 65  1  0  0  0  0
  6 68  1  0  0  0  0
  7 71  1  0  0  0  0
  8  9  1  0  0  0  0
  8 14  1  1  0  0  0
  9 18  1  0  0  0  0
 10 11  1  0  0  0  0
 10 20  1  6  0  0  0
 11 24  1  0  0  0  0
 12 26  1  1  0  0  0
 12 13  1  0  0  0  0
 12  1  1  0  0  0  0
 13 82  1  0  0  0  0
 14 16  1  0  0  0  0
 15 14  1  0  0  0  0
 16 17  1  0  0  0  0
 18 16  2  0  0  0  0
 18 19  1  0  0  0  0
 20 22  1  0  0  0  0
 21 20  1  0  0  0  0
 22 23  1  0  0  0  0
 24 22  2  0  0  0  0
 24 25  1  0  0  0  0
 27 26  1  0  0  0  0
 28 26  1  0  0  0  0
 28 30  2  0  0  0  0
 29 28  1  0  0  0  0
 30 31  1  0  0  0  0
 30 13  1  0  0  0  0
 32 33  1  0  0  0  0
 32  3  1  0  0  0  0
 33 34  1  0  0  0  0
 35 36  1  0  0  0  0
 35 33  2  0  0  0  0
 37 35  1  0  0  0  0
 38 37  1  0  0  0  0
 39 41  1  0  0  0  0
 39 37  2  0  0  0  0
 40 39  1  0  0  0  0
 41 32  2  0  0  0  0
 42 41  1  0  0  0  0
 43 44  2  0  0  0  0
 43 52  1  0  0  0  0
 44 46  1  0  0  0  0
 45 44  1  0  0  0  0
 46 47  1  0  0  0  0
 46 48  2  0  0  0  0
 48 49  1  0  0  0  0
 50 48  1  0  0  0  0
 50 51  1  0  0  0  0
 52 50  2  0  0  0  0
 53 52  1  0  0  0  0
 54  3  1  0  0  0  0
 55 56  1  0  0  0  0
 55 54  2  0  0  0  0
 57 55  1  0  0  0  0
 58 57  1  0  0  0  0
 59 57  2  0  0  0  0
 59 61  1  0  0  0  0
 60 59  1  0  0  0  0
 61 63  2  0  0  0  0
 62 61  1  0  0  0  0
 63 54  1  0  0  0  0
 63 64  1  0  0  0  0
 65 67  1  0  0  0  0
 66 65  1  0  0  0  0
 68 69  1  0  0  0  0
 70 68  1  0  0  0  0
 71 74  1  0  0  0  0
 72 71  1  0  0  0  0
 73 71  1  0  0  0  0
 74 68  1  0  0  0  0
 74 65  1  0  0  0  0
 74 75  1  1  0  0  0
 75 77  1  0  0  0  0
 76 75  1  0  0  0  0
 78 80  1  0  0  0  0
 78 75  1  0  0  0  0
 78 81  1  0  0  0  0
 79 78  1  0  0  0  0
 82 83  1  1  0  0  0
 82  9  1  0  0  0  0
 82 11  1  0  0  0  0
M  END
$$$$
