CSD_code = COHJOA | q = 0 | S = 0 | Stoichiometry = C21H26AuIN4 | MND = 2
 OpenBabel04212202023D

 53 55  0  0  1  0  0  0  0  0999 V2000
    2.3072    8.5429    6.7627 Au  0  0  0  0  0  0  0  0  0  0  0  0
    4.0965    9.7457    8.1237 I   0  0  0  0  0  0  0  0  0  0  0  0
    0.8807   10.6306    4.1916 C   0  0  0  0  0  0  0  0  0  0  0  0
    0.8495    7.7116    5.6112 C   0  0  2  0  0  3  0  0  0  0  0  0
   -3.1763    7.5714    1.2886 C   0  0  0  0  0  0  0  0  0  0  0  0
   -4.1942    7.2237    1.1914 H   0  0  0  0  0  0  0  0  0  0  0  0
   -0.3424   10.8327    5.0431 C   0  0  0  0  0  0  0  0  0  0  0  0
   -0.1721   10.3498    6.0127 H   0  0  0  0  0  0  0  0  0  0  0  0
   -0.4940   11.9088    5.2297 H   0  0  0  0  0  0  0  0  0  0  0  0
    2.4639    9.1183    3.1521 C   0  0  0  0  0  0  0  0  0  0  0  0
    2.7807    8.1050    2.9492 H   0  0  0  0  0  0  0  0  0  0  0  0
   -0.5874    6.7434    8.1466 C   0  0  0  0  0  0  0  0  0  0  0  0
   -1.5057    7.2994    7.9676 H   0  0  0  0  0  0  0  0  0  0  0  0
    0.2125    7.4489    8.3626 H   0  0  0  0  0  0  0  0  0  0  0  0
   -0.7317    6.1091    9.0165 H   0  0  0  0  0  0  0  0  0  0  0  0
   -0.9031    6.6708    4.7259 N   0  0  0  0  0  0  0  0  0  0  0  0
   -1.9650   10.9878    3.2907 C   0  0  0  0  0  0  0  0  0  0  0  0
   -2.3289   11.9854    3.5813 H   0  0  0  0  0  0  0  0  0  0  0  0
   -2.7715   10.4503    2.7942 H   0  0  0  0  0  0  0  0  0  0  0  0
   -1.1430   11.1073    2.5863 H   0  0  0  0  0  0  0  0  0  0  0  0
    1.3048    9.3379    3.8835 C   0  0  0  0  0  0  0  0  0  0  0  0
   -1.1751    7.8161    2.6065 C   0  0  0  0  0  0  0  0  0  0  0  0
   -1.5095   10.2151    4.4276 N   0  0  0  0  0  0  0  0  0  0  0  0
   -0.5115    7.5766    3.8738 C   0  0  0  0  0  0  0  0  0  0  0  0
    1.0716    5.1247    7.1619 C   0  0  0  0  0  0  0  0  0  0  0  0
    0.9567    4.4428    7.9994 H   0  0  0  0  0  0  0  0  0  0  0  0
    1.8830    5.8137    7.3861 H   0  0  0  0  0  0  0  0  0  0  0  0
    1.3387    4.5483    6.2787 H   0  0  0  0  0  0  0  0  0  0  0  0
    0.5799    8.2297    4.3903 N   0  0  0  0  0  0  0  0  0  0  0  0
   -0.5597    8.4598    1.5363 C   0  0  0  0  0  0  0  0  0  0  0  0
    0.4616    8.7983    1.6121 H   0  0  0  0  0  0  0  0  0  0  0  0
   -2.4889    7.3656    2.4676 C   0  0  0  0  0  0  0  0  0  0  0  0
   -2.9519    6.8581    3.2991 H   0  0  0  0  0  0  0  0  0  0  0  0
   -2.5626    8.2242    0.2307 C   0  0  0  0  0  0  0  0  0  0  0  0
   -3.1007    8.3881   -0.6909 H   0  0  0  0  0  0  0  0  0  0  0  0
    2.7878   11.4840    2.9866 C   0  0  0  0  0  0  0  0  0  0  0  0
    3.3673   12.3269    2.6430 H   0  0  0  0  0  0  0  0  0  0  0  0
   -0.0710    6.7617    5.7745 N   0  0  0  0  0  0  0  0  0  0  0  0
   -1.3683    4.9059    6.6300 C   0  0  0  0  0  0  0  0  0  0  0  0
   -2.2970    5.4405    6.4511 H   0  0  0  0  0  0  0  0  0  0  0  0
   -1.5028    4.2372    7.4754 H   0  0  0  0  0  0  0  0  0  0  0  0
   -1.1390    4.3166    5.7464 H   0  0  0  0  0  0  0  0  0  0  0  0
   -0.2355    5.8846    6.9295 C   0  0  0  0  0  0  0  0  0  0  0  0
    1.6364   11.6962    3.7248 C   0  0  0  0  0  0  0  0  0  0  0  0
    1.3253   12.7036    3.9588 H   0  0  0  0  0  0  0  0  0  0  0  0
   -1.2552    8.6609    0.3578 C   0  0  0  0  0  0  0  0  0  0  0  0
   -0.7703    9.1615   -0.4673 H   0  0  0  0  0  0  0  0  0  0  0  0
    3.2053   10.1953    2.7015 C   0  0  0  0  0  0  0  0  0  0  0  0
    4.1102   10.0262    2.1389 H   0  0  0  0  0  0  0  0  0  0  0  0
   -2.5784    9.9946    5.3776 C   0  0  0  0  0  0  0  0  0  0  0  0
   -2.9644   10.9284    5.8133 H   0  0  0  0  0  0  0  0  0  0  0  0
   -2.2179    9.3583    6.1857 H   0  0  0  0  0  0  0  0  0  0  0  0
   -3.3946    9.4819    4.8704 H   0  0  0  0  0  0  0  0  0  0  0  0
  1  2  1  0  0  0  0
  3  7  1  0  0  0  0
  4 38  1  0  0  0  0
  4  1  1  1  0  0  0
  5 32  1  0  0  0  0
  6  5  1  0  0  0  0
  7  9  1  0  0  0  0
  7  8  1  0  0  0  0
 10 21  2  0  0  0  0
 11 10  1  0  0  0  0
 12 14  1  0  0  0  0
 12 15  1  0  0  0  0
 13 12  1  0  0  0  0
 16 38  1  0  0  0  0
 17 18  1  0  0  0  0
 17 23  1  0  0  0  0
 19 17  1  0  0  0  0
 20 17  1  0  0  0  0
 21  3  1  0  0  0  0
 21 29  1  0  0  0  0
 22 24  1  0  0  0  0
 23  7  1  0  0  0  0
 23 50  1  0  0  0  0
 24 29  1  0  0  0  0
 24 16  2  0  0  0  0
 25 27  1  0  0  0  0
 25 26  1  0  0  0  0
 28 25  1  0  0  0  0
 29  4  1  0  0  0  0
 30 31  1  0  0  0  0
 30 22  1  0  0  0  0
 32 22  2  0  0  0  0
 32 33  1  0  0  0  0
 34 46  1  0  0  0  0
 34  5  2  0  0  0  0
 35 34  1  0  0  0  0
 36 44  1  0  0  0  0
 37 36  1  0  0  0  0
 38 43  1  0  0  0  0
 39 43  1  0  0  0  0
 39 41  1  0  0  0  0
 40 39  1  0  0  0  0
 42 39  1  0  0  0  0
 43 25  1  0  0  0  0
 43 12  1  0  0  0  0
 44 45  1  0  0  0  0
 44  3  2  0  0  0  0
 46 30  2  0  0  0  0
 47 46  1  0  0  0  0
 48 36  2  0  0  0  0
 48 10  1  0  0  0  0
 49 48  1  0  0  0  0
 50 51  1  0  0  0  0
 50 52  1  0  0  0  0
 53 50  1  0  0  0  0
M  END
$$$$
