CSD_code = COHKAN | q = 0 | S = 0 | Stoichiometry = C19H21AuClN3 | MND = 2
 OpenBabel04212202023D

 45 47  0  0  1  0  0  0  0  0999 V2000
    6.4477    4.5758   -0.9403 Au  0  0  0  0  0  0  0  0  0  0  0  0
    7.1783    6.0534   -2.4610 Cl  0  0  0  0  0  0  0  0  0  0  0  0
    3.7281    2.7294   -0.8498 C   0  0  0  0  0  0  0  0  0  0  0  0
    6.2141    2.8786    1.5994 N   0  0  0  0  0  0  0  0  0  0  0  0
    5.3931    2.0044    2.2008 N   0  0  0  0  0  0  0  0  0  0  0  0
    7.5407    2.5559    3.5976 C   0  0  0  0  0  0  0  0  0  0  0  0
    6.6940    2.7948    4.2348 H   0  0  0  0  0  0  0  0  0  0  0  0
    8.4562    2.8435    4.1062 H   0  0  0  0  0  0  0  0  0  0  0  0
    7.5509    1.4820    3.4330 H   0  0  0  0  0  0  0  0  0  0  0  0
    2.0162    3.0876   -3.0127 C   0  0  0  0  0  0  0  0  0  0  0  0
    8.6368    2.9525    1.3809 C   0  0  0  0  0  0  0  0  0  0  0  0
    8.6589    1.8838    1.1776 H   0  0  0  0  0  0  0  0  0  0  0  0
    9.5590    3.2289    1.8838 H   0  0  0  0  0  0  0  0  0  0  0  0
    8.5834    3.4880    0.4354 H   0  0  0  0  0  0  0  0  0  0  0  0
    3.2911    0.9150    1.6272 C   0  0  0  0  0  0  0  0  0  0  0  0
    5.7655    3.2605    0.4021 C   0  0  1  0  0  3  0  0  0  0  0  0
    4.1806    2.4758   -2.1382 C   0  0  0  0  0  0  0  0  0  0  0  0
    5.1927    2.1361   -2.2960 H   0  0  0  0  0  0  0  0  0  0  0  0
    3.3250    2.6566   -3.2066 C   0  0  0  0  0  0  0  0  0  0  0  0
    3.6800    2.4662   -4.2081 H   0  0  0  0  0  0  0  0  0  0  0  0
    2.8742    0.7206    2.9434 C   0  0  0  0  0  0  0  0  0  0  0  0
    3.3832    1.2479    3.7351 H   0  0  0  0  0  0  0  0  0  0  0  0
    4.4038    1.8157    1.3761 C   0  0  0  0  0  0  0  0  0  0  0  0
    4.6037    2.5774    0.2498 N   0  0  0  0  0  0  0  0  0  0  0  0
    2.6580    0.2242    0.5963 C   0  0  0  0  0  0  0  0  0  0  0  0
    2.9931    0.3381   -0.4236 H   0  0  0  0  0  0  0  0  0  0  0  0
    1.6080   -0.6285    0.8821 C   0  0  0  0  0  0  0  0  0  0  0  0
    1.1211   -1.1611    0.0792 H   0  0  0  0  0  0  0  0  0  0  0  0
    1.1841   -0.8037    2.1891 C   0  0  0  0  0  0  0  0  0  0  0  0
    0.3610   -1.4681    2.4050 H   0  0  0  0  0  0  0  0  0  0  0  0
    7.4423    3.3033    2.2690 C   0  0  0  0  0  0  0  0  0  0  0  0
    2.4251    3.1552   -0.6366 C   0  0  0  0  0  0  0  0  0  0  0  0
    2.0809    3.3535    0.3680 H   0  0  0  0  0  0  0  0  0  0  0  0
    1.1135    3.2961   -4.1874 C   0  0  0  0  0  0  0  0  0  0  0  0
    0.0980    3.5147   -3.8681 H   0  0  0  0  0  0  0  0  0  0  0  0
    1.1013    2.4118   -4.8224 H   0  0  0  0  0  0  0  0  0  0  0  0
    1.4747    4.1299   -4.7884 H   0  0  0  0  0  0  0  0  0  0  0  0
    7.3727    4.8109    2.5189 C   0  0  0  0  0  0  0  0  0  0  0  0
    7.3203    5.3544    1.5780 H   0  0  0  0  0  0  0  0  0  0  0  0
    8.2593    5.1330    3.0573 H   0  0  0  0  0  0  0  0  0  0  0  0
    6.4962    5.0577    3.1144 H   0  0  0  0  0  0  0  0  0  0  0  0
    1.5791    3.3279   -1.7163 C   0  0  0  0  0  0  0  0  0  0  0  0
    0.5673    3.6643   -1.5454 H   0  0  0  0  0  0  0  0  0  0  0  0
    1.8236   -0.1327    3.2192 C   0  0  0  0  0  0  0  0  0  0  0  0
    1.5017   -0.2758    4.2397 H   0  0  0  0  0  0  0  0  0  0  0  0
  2  1  1  0  0  0  0
  3 32  1  0  0  0  0
  3 24  1  0  0  0  0
  4  5  1  0  0  0  0
  4 31  1  0  0  0  0
  6  8  1  0  0  0  0
  6  7  1  0  0  0  0
  9  6  1  0  0  0  0
 10 42  1  0  0  0  0
 11 13  1  0  0  0  0
 11 31  1  0  0  0  0
 12 11  1  0  0  0  0
 14 11  1  0  0  0  0
 15 21  1  0  0  0  0
 16  1  1  1  0  0  0
 16  4  1  0  0  0  0
 17  3  2  0  0  0  0
 18 17  1  0  0  0  0
 19 10  2  0  0  0  0
 19 17  1  0  0  0  0
 20 19  1  0  0  0  0
 21 44  2  0  0  0  0
 21 22  1  0  0  0  0
 23 15  1  0  0  0  0
 23  5  2  0  0  0  0
 24 16  1  0  0  0  0
 24 23  1  0  0  0  0
 25 27  1  0  0  0  0
 25 15  2  0  0  0  0
 26 25  1  0  0  0  0
 27 29  2  0  0  0  0
 28 27  1  0  0  0  0
 29 30  1  0  0  0  0
 29 44  1  0  0  0  0
 31 38  1  0  0  0  0
 31  6  1  0  0  0  0
 32 33  1  0  0  0  0
 34 35  1  0  0  0  0
 34 10  1  0  0  0  0
 36 34  1  0  0  0  0
 37 34  1  0  0  0  0
 38 40  1  0  0  0  0
 38 41  1  0  0  0  0
 39 38  1  0  0  0  0
 42 43  1  0  0  0  0
 42 32  2  0  0  0  0
 44 45  1  0  0  0  0
M  END
$$$$
