CSD_code = COJBAF | q = 0 | S = 0 | Stoichiometry = C34H28ClN3Pd | MND = 4
 OpenBabel04212202023D

 67 74  0  0  1  0  0  0  0  0999 V2000
   10.0087   12.5135    8.6496 Pd  0  0  1  0  0  0  0  0  0  0  0  0
    7.9853   11.7620    9.3058 Cl  0  0  0  0  0  0  0  0  0  0  0  0
   11.6826   13.4184    8.3069 N   0  0  0  0  0  0  0  0  0  0  0  0
   11.2732   11.2832    6.5773 N   0  0  0  0  0  2  0  0  0  0  0  0
   10.7566   10.9547   10.2398 N   0  0  0  0  0  0  0  0  0  0  0  0
   12.5989   13.0464    7.4713 C   0  0  0  0  0  0  0  0  0  0  0  0
   12.4022   11.8903    6.5807 C   0  0  0  0  0  0  0  0  0  0  0  0
   13.6785   11.6627    5.8840 C   0  0  0  0  0  0  0  0  0  0  0  0
   14.1691   10.7031    5.0310 C   0  0  0  0  0  0  0  0  0  0  0  0
   13.5645    9.8740    4.6967 H   0  0  0  0  0  0  0  0  0  0  0  0
   15.5011   10.8079    4.5909 C   0  0  0  0  0  0  0  0  0  0  0  0
   15.8729   10.0527    3.9134 H   0  0  0  0  0  0  0  0  0  0  0  0
   16.3366   11.8233    4.9864 C   0  0  0  0  0  0  0  0  0  0  0  0
   17.3519   11.8692    4.6201 H   0  0  0  0  0  0  0  0  0  0  0  0
   15.8793   12.8068    5.8906 C   0  0  0  0  0  0  0  0  0  0  0  0
   16.6159   13.8828    6.4350 C   0  0  0  0  0  0  0  0  0  0  0  0
   17.6430   14.0297    6.1346 H   0  0  0  0  0  0  0  0  0  0  0  0
   16.0317   14.7260    7.3481 C   0  0  0  0  0  0  0  0  0  0  0  0
   16.6123   15.5382    7.7616 H   0  0  0  0  0  0  0  0  0  0  0  0
   14.7029   14.5772    7.7835 C   0  0  0  0  0  0  0  0  0  0  0  0
   14.3063   15.2609    8.5182 H   0  0  0  0  0  0  0  0  0  0  0  0
   13.9469   13.5555    7.2555 C   0  0  0  0  0  0  0  0  0  0  0  0
   14.5517   12.6881    6.3127 C   0  0  0  0  0  0  0  0  0  0  0  0
   11.7642   14.6406    8.9868 C   0  0  0  0  0  0  0  0  0  0  0  0
   11.6911   15.8242    8.2453 C   0  0  0  0  0  0  0  0  0  0  0  0
   11.6008   15.7607    7.1704 H   0  0  0  0  0  0  0  0  0  0  0  0
   11.7131   17.0525    8.8750 C   0  0  0  0  0  0  0  0  0  0  0  0
   11.6422   17.9551    8.2870 H   0  0  0  0  0  0  0  0  0  0  0  0
   11.8347   17.1232   10.2527 C   0  0  0  0  0  0  0  0  0  0  0  0
   11.8573   18.0812   10.7491 H   0  0  0  0  0  0  0  0  0  0  0  0
   11.9332   15.9566   10.9907 C   0  0  0  0  0  0  0  0  0  0  0  0
   12.0413   16.0085   12.0646 H   0  0  0  0  0  0  0  0  0  0  0  0
   11.9035   14.7109   10.3822 C   0  0  0  0  0  0  0  0  0  0  0  0
   11.9951   13.4545   11.2011 C   0  0  0  0  0  0  0  0  0  0  0  0
   12.5824   13.6409   12.1022 H   0  0  0  0  0  0  0  0  0  0  0  0
   12.5090   12.6825   10.6187 H   0  0  0  0  0  0  0  0  0  0  0  0
   10.5883   12.9385   11.5973 C   0  0  0  0  0  0  0  0  0  0  0  0
   10.3420   13.2404   12.6152 H   0  0  0  0  0  0  0  0  0  0  0  0
    9.8315   13.3803   10.9175 H   0  0  0  0  0  0  0  0  0  0  0  0
   10.5141   11.4442   11.4596 C   0  0  2  0  0  3  0  0  0  0  0  0
   10.2394   10.6198   12.5411 C   0  0  0  0  0  0  0  0  0  0  0  0
   10.0446   11.0469   13.5124 H   0  0  0  0  0  0  0  0  0  0  0  0
   10.2013    9.2496   12.3455 C   0  0  0  0  0  0  0  0  0  0  0  0
    9.9686    8.5841   13.1635 H   0  0  0  0  0  0  0  0  0  0  0  0
   10.4770    8.7506   11.0862 C   0  0  0  0  0  0  0  0  0  0  0  0
   10.4706    7.6882   10.8982 H   0  0  0  0  0  0  0  0  0  0  0  0
   10.7588    9.6345   10.0498 C   0  0  0  0  0  0  0  0  0  0  0  0
   11.0843    9.1315    8.6744 C   0  0  0  0  0  0  0  0  0  0  0  0
   11.4353    8.0987    8.7270 H   0  0  0  0  0  0  0  0  0  0  0  0
   11.8820    9.7546    8.2632 H   0  0  0  0  0  0  0  0  0  0  0  0
    9.8520    9.2235    7.7522 C   0  0  0  0  0  0  0  0  0  0  0  0
    9.1486    8.4286    8.0038 H   0  0  0  0  0  0  0  0  0  0  0  0
    9.3660   10.1963    7.9405 H   0  0  0  0  0  0  0  0  0  0  0  0
   10.1825    9.1875    6.2941 C   0  0  0  0  0  0  0  0  0  0  0  0
    9.7629    8.1621    5.4651 C   0  0  0  0  0  0  0  0  0  0  0  0
    9.2237    7.3278    5.8905 H   0  0  0  0  0  0  0  0  0  0  0  0
    9.9971    8.2032    4.0996 C   0  0  0  0  0  0  0  0  0  0  0  0
    9.6545    7.3970    3.4684 H   0  0  0  0  0  0  0  0  0  0  0  0
   10.6445    9.2943    3.5432 C   0  0  0  0  0  0  0  0  0  0  0  0
   10.7951    9.3496    2.4750 H   0  0  0  0  0  0  0  0  0  0  0  0
   11.1011   10.3151    4.3532 C   0  0  0  0  0  0  0  0  0  0  0  0
   11.5787   11.1847    3.9242 H   0  0  0  0  0  0  0  0  0  0  0  0
   10.9000   10.2625    5.7347 C   0  0  0  0  0  0  0  0  0  0  0  0
    9.0502   13.7621    7.3322 C   0  0  0  0  0  0  0  0  0  0  0  0
    8.7152   14.6570    7.8704 H   0  0  0  0  0  0  0  0  0  0  0  0
    8.1816   13.2451    6.9182 H   0  0  0  0  0  0  0  0  0  0  0  0
    9.7147   14.0510    6.5123 H   0  0  0  0  0  0  0  0  0  0  0  0
  1  2  1  1  0  0  0
  1  5  1  0  0  0  0
  3  1  1  0  0  0  0
  3 24  1  0  0  0  0
  4  7  1  0  0  0  0
  5 40  1  0  0  0  0
  6  3  1  0  0  0  0
  7  6  2  0  0  0  0
  8 23  1  0  0  0  0
  8  7  1  0  0  0  0
  9  8  2  0  0  0  0
 10  9  1  0  0  0  0
 11 13  2  0  0  0  0
 11  9  1  0  0  0  0
 12 11  1  0  0  0  0
 13 15  1  0  0  0  0
 14 13  1  0  0  0  0
 15 23  2  0  0  0  0
 15 16  1  0  0  0  0
 16 18  2  0  0  0  0
 17 16  1  0  0  0  0
 18 19  1  0  0  0  0
 18 20  1  0  0  0  0
 20 21  1  0  0  0  0
 22  6  1  0  0  0  0
 22 20  2  0  0  0  0
 23 22  1  0  0  0  0
 24 33  1  0  0  0  0
 25 27  1  0  0  0  0
 25 24  2  0  0  0  0
 26 25  1  0  0  0  0
 27 29  2  0  0  0  0
 28 27  1  0  0  0  0
 29 30  1  0  0  0  0
 29 31  1  0  0  0  0
 31 32  1  0  0  0  0
 33 31  2  0  0  0  0
 33 34  1  0  0  0  0
 34 37  1  0  0  0  0
 34 35  1  0  0  0  0
 36 34  1  0  0  0  0
 37 38  1  0  0  0  0
 39 37  1  0  0  0  0
 40 37  1  0  0  0  0
 40 41  1  1  0  0  0
 41 42  1  0  0  0  0
 43 41  2  0  0  0  0
 43 44  1  0  0  0  0
 45 43  1  0  0  0  0
 46 45  1  0  0  0  0
 47  5  1  0  0  0  0
 47 45  2  0  0  0  0
 48 49  1  0  0  0  0
 48 47  1  0  0  0  0
 50 48  1  0  0  0  0
 51 53  1  0  0  0  0
 51 52  1  0  0  0  0
 51 48  1  0  0  0  0
 54 51  1  0  0  0  0
 55 56  1  0  0  0  0
 55 54  2  0  0  0  0
 57 55  1  0  0  0  0
 58 57  1  0  0  0  0
 59 57  2  0  0  0  0
 59 61  1  0  0  0  0
 60 59  1  0  0  0  0
 61 63  2  0  0  0  0
 62 61  1  0  0  0  0
 63 54  1  0  0  0  0
 63  4  1  0  0  0  0
 64 65  1  0  0  0  0
 64  1  1  0  0  0  0
 66 64  1  0  0  0  0
 67 64  1  0  0  0  0
M  END
$$$$
