CSD_code = COJQOI | q = 0 | S = 0 | Stoichiometry = C11H10Cl2N2OPt | MND = 4
 OpenBabel04212202023D

 27 29  0  0  1  0  0  0  0  0999 V2000
   10.0331    9.8873    6.6649 Pt  0  0  0  0  0  0  0  0  0  0  0  0
   12.1567    9.1848    6.5474 Cl  0  0  0  0  0  0  0  0  0  0  0  0
   10.7039   11.9928    7.0202 Cl  0  0  0  0  0  0  0  0  0  0  0  0
    9.3757    8.0064    6.3313 N   0  0  0  0  0  0  0  0  0  0  0  0
    8.0925   10.4736    6.7685 N   0  0  0  0  0  0  0  0  0  0  0  0
    6.8408    7.8893    8.9395 O   0  0  0  0  0  0  0  0  0  0  0  0
    9.8875    7.2365    5.3694 C   0  0  0  0  0  3  0  0  0  0  0  0
   10.7589    7.6274    4.8617 H   0  0  0  0  0  0  0  0  0  0  0  0
    9.3541    6.0010    5.0529 C   0  0  0  0  0  0  0  0  0  0  0  0
    9.8028    5.4077    4.2731 H   0  0  0  0  0  0  0  0  0  0  0  0
    8.2420    5.5483    5.7474 C   0  0  0  0  0  0  0  0  0  0  0  0
    7.7941    4.5939    5.5186 H   0  0  0  0  0  0  0  0  0  0  0  0
    7.7170    6.3482    6.7506 C   0  0  0  0  0  0  0  0  0  0  0  0
    6.8521    6.0447    7.3196 H   0  0  0  0  0  0  0  0  0  0  0  0
    8.3199    7.5638    7.0241 C   0  0  0  0  0  0  0  0  0  0  0  0
    7.2218    9.7028    7.4296 C   0  0  1  0  0  3  0  0  0  0  0  0
    5.8686    9.9880    7.4753 C   0  0  0  0  0  0  0  0  0  0  0  0
    5.2146    9.3324    8.0257 H   0  0  0  0  0  0  0  0  0  0  0  0
    5.4025   11.1222    6.8293 C   0  0  0  0  0  0  0  0  0  0  0  0
    4.3538   11.3741    6.8564 H   0  0  0  0  0  0  0  0  0  0  0  0
    6.3117   11.9249    6.1565 C   0  0  0  0  0  0  0  0  0  0  0  0
    5.9948   12.8203    5.6470 H   0  0  0  0  0  0  0  0  0  0  0  0
    7.6468   11.5657    6.1471 C   0  0  0  0  0  0  0  0  0  0  0  0
    8.3947   12.1690    5.6508 H   0  0  0  0  0  0  0  0  0  0  0  0
    7.8045    8.4859    8.1171 C   0  0  1  0  0  0  0  0  0  0  0  0
    7.2697    7.2406    9.5077 H   0  0  0  0  0  0  0  0  0  0  0  0
    8.6809    8.8332    8.7025 H   0  0  0  0  0  0  0  0  0  0  0  0
  1  5  1  0  0  0  0
  1  3  1  0  0  0  0
  2  1  1  0  0  0  0
  4  1  1  0  0  0  0
  4 15  1  0  0  0  0
  5 16  1  0  0  0  0
  6 26  1  0  0  0  0
  7  4  1  0  0  0  0
  8  7  1  0  0  0  0
  9  7  1  0  0  0  0
  9 11  2  0  0  0  0
 10  9  1  0  0  0  0
 11 13  1  0  0  0  0
 12 11  1  0  0  0  0
 13 15  2  0  0  0  0
 13 14  1  0  0  0  0
 15 25  1  0  0  0  0
 16 17  1  6  0  0  0
 16 25  1  0  0  0  0
 17 18  1  0  0  0  0
 19 20  1  0  0  0  0
 19 17  2  0  0  0  0
 21 19  1  0  0  0  0
 22 21  1  0  0  0  0
 23 21  2  0  0  0  0
 23  5  1  0  0  0  0
 24 23  1  0  0  0  0
 25 27  1  1  0  0  0
 25  6  1  0  0  0  0
M  END
$$$$
