CSD_code = COKFIT | q = 0 | S = 0 | Stoichiometry = C23H30ClNOPdSe | MND = 4
 OpenBabel04212202023D

 58 60  0  0  1  0  0  0  0  0999 V2000
    2.7980    6.6664    0.9250 C   0  0  0  0  0  0  0  0  0  0  0  0
    3.6034    6.6833    1.6740 H   0  0  0  0  0  0  0  0  0  0  0  0
    2.8443    7.5186   -0.1660 C   0  0  0  0  0  0  0  0  0  0  0  0
    3.6677    8.2091   -0.2688 H   0  0  0  0  0  0  0  0  0  0  0  0
    1.8414    7.4855   -1.1215 C   0  0  0  0  0  0  0  0  0  0  0  0
    1.8823    8.1529   -1.9690 H   0  0  0  0  0  0  0  0  0  0  0  0
    0.7905    6.5914   -0.9963 C   0  0  0  0  0  0  0  0  0  0  0  0
    0.0141    6.5584   -1.7459 H   0  0  0  0  0  0  0  0  0  0  0  0
    0.7380    5.7303    0.0859 C   0  0  0  0  0  0  0  0  0  0  0  0
   -0.0710    5.0198    0.1835 H   0  0  0  0  0  0  0  0  0  0  0  0
    1.7347    5.7781    1.0520 C   0  0  0  0  0  0  0  0  0  0  0  0
    0.0904    5.4443    3.4664 C   0  0  0  0  0  0  0  0  0  0  0  0
   -0.7850    5.3941    2.8171 H   0  0  0  0  0  0  0  0  0  0  0  0
   -0.0858    4.8481    4.3666 H   0  0  0  0  0  0  0  0  0  0  0  0
    0.4321    6.8860    3.8248 C   0  0  0  0  0  0  0  0  0  0  0  0
    0.5085    7.4735    2.8969 H   0  0  0  0  0  0  0  0  0  0  0  0
   -0.3785    7.3170    4.4318 H   0  0  0  0  0  0  0  0  0  0  0  0
    1.8420    7.8347    5.4770 C   0  0  0  0  0  0  0  0  0  0  0  0
    0.9655    8.4352    5.7426 H   0  0  0  0  0  0  0  0  0  0  0  0
    3.0050    8.1143    6.2359 C   0  0  0  0  0  0  0  0  0  0  0  0
    2.8543    9.0215    7.3106 C   0  0  0  0  0  0  0  0  0  0  0  0
    1.8686    9.4307    7.4690 H   0  0  0  0  0  0  0  0  0  0  0  0
    3.8973    9.3621    8.1231 C   0  0  0  0  0  0  0  0  0  0  0  0
    5.1458    8.7619    7.8590 C   0  0  0  0  0  0  0  0  0  0  0  0
    5.9635    9.0147    8.5119 H   0  0  0  0  0  0  0  0  0  0  0  0
    5.3726    7.8836    6.8343 C   0  0  0  0  0  0  0  0  0  0  0  0
    4.2872    7.5436    5.9541 C   0  0  2  0  0  3  0  0  0  0  0  0
    3.7805   10.3358    9.2852 C   0  0  0  0  0  0  0  0  0  0  0  0
    2.3627   10.8929    9.4412 C   0  0  0  0  0  0  0  0  0  0  0  0
    2.0549   11.4331    8.5488 H   0  0  0  0  0  0  0  0  0  0  0  0
    2.3349   11.5859   10.2798 H   0  0  0  0  0  0  0  0  0  0  0  0
    1.6498   10.0960    9.6404 H   0  0  0  0  0  0  0  0  0  0  0  0
    4.1564    9.6170   10.5884 C   0  0  0  0  0  0  0  0  0  0  0  0
    3.5034    8.7611   10.7467 H   0  0  0  0  0  0  0  0  0  0  0  0
    4.0510   10.2935   11.4342 H   0  0  0  0  0  0  0  0  0  0  0  0
    5.1826    9.2617   10.5647 H   0  0  0  0  0  0  0  0  0  0  0  0
    4.7334   11.5157    9.0478 C   0  0  0  0  0  0  0  0  0  0  0  0
    5.7661   11.1849    8.9839 H   0  0  0  0  0  0  0  0  0  0  0  0
    4.6553   12.2319    9.8633 H   0  0  0  0  0  0  0  0  0  0  0  0
    4.4801   12.0211    8.1180 H   0  0  0  0  0  0  0  0  0  0  0  0
    6.7334    7.2376    6.6018 C   0  0  0  0  0  0  0  0  0  0  0  0
    7.7729    7.6680    7.6428 C   0  0  0  0  0  0  0  0  0  0  0  0
    7.9535    8.7403    7.6025 H   0  0  0  0  0  0  0  0  0  0  0  0
    8.7141    7.1639    7.4331 H   0  0  0  0  0  0  0  0  0  0  0  0
    7.4639    7.3912    8.6488 H   0  0  0  0  0  0  0  0  0  0  0  0
    7.2621    7.6351    5.2163 C   0  0  0  0  0  0  0  0  0  0  0  0
    6.6101    7.2547    4.4359 H   0  0  0  0  0  0  0  0  0  0  0  0
    8.2561    7.2198    5.0657 H   0  0  0  0  0  0  0  0  0  0  0  0
    7.3198    8.7191    5.1299 H   0  0  0  0  0  0  0  0  0  0  0  0
    6.5882    5.7108    6.6872 C   0  0  0  0  0  0  0  0  0  0  0  0
    6.1913    5.4231    7.6595 H   0  0  0  0  0  0  0  0  0  0  0  0
    7.5585    5.2379    6.5533 H   0  0  0  0  0  0  0  0  0  0  0  0
    5.9215    5.3385    5.9130 H   0  0  0  0  0  0  0  0  0  0  0  0
    4.8014    4.3737    3.1553 Cl  0  0  0  0  0  0  0  0  0  0  0  0
    1.6949    6.9648    4.5299 N   0  0  0  0  0  0  0  0  0  0  0  0
    4.5230    6.7835    4.9518 O   0  0  0  0  0  0  0  0  0  0  0  0
    3.1745    5.7480    3.8789 Pd  0  0  0  0  0  0  0  0  0  0  0  0
    1.6492    4.5827    2.5802 Se  0  0  0  0  0  0  0  0  0  0  0  0
  1 11  1  0  0  0  0
  1  2  1  0  0  0  0
  3  1  2  0  0  0  0
  4  3  1  0  0  0  0
  5  7  2  0  0  0  0
  5  3  1  0  0  0  0
  6  5  1  0  0  0  0
  7  9  1  0  0  0  0
  8  7  1  0  0  0  0
  9 10  1  0  0  0  0
  9 11  2  0  0  0  0
 11 58  1  0  0  0  0
 12 15  1  0  0  0  0
 12 14  1  0  0  0  0
 13 12  1  0  0  0  0
 15 17  1  0  0  0  0
 15 55  1  0  0  0  0
 16 15  1  0  0  0  0
 18 19  1  0  0  0  0
 18 20  2  0  0  0  0
 20 21  1  0  0  0  0
 21 22  1  0  0  0  0
 21 23  2  0  0  0  0
 23 28  1  0  0  0  0
 24 23  1  0  0  0  0
 24 25  1  0  0  0  0
 26 24  2  0  0  0  0
 27 56  1  6  0  0  0
 27 20  1  0  0  0  0
 27 26  1  0  0  0  0
 28 29  1  0  0  0  0
 28 33  1  0  0  0  0
 29 32  1  0  0  0  0
 29 31  1  0  0  0  0
 30 29  1  0  0  0  0
 33 34  1  0  0  0  0
 33 35  1  0  0  0  0
 36 33  1  0  0  0  0
 37 28  1  0  0  0  0
 37 39  1  0  0  0  0
 38 37  1  0  0  0  0
 40 37  1  0  0  0  0
 41 50  1  0  0  0  0
 41 26  1  0  0  0  0
 41 42  1  0  0  0  0
 42 45  1  0  0  0  0
 43 42  1  0  0  0  0
 44 42  1  0  0  0  0
 46 41  1  0  0  0  0
 47 46  1  0  0  0  0
 48 46  1  0  0  0  0
 49 46  1  0  0  0  0
 50 51  1  0  0  0  0
 52 50  1  0  0  0  0
 53 50  1  0  0  0  0
 54 57  1  0  0  0  0
 55 18  1  0  0  0  0
 57 55  1  0  0  0  0
 57 56  1  0  0  0  0
 58 12  1  0  0  0  0
M  END
$$$$
