CSD_code = COKGIT | q = 0 | S = 0 | Stoichiometry = C26H18Cl4N5Re | MND = 6
 OpenBabel04212202023D

 54 59  0  0  0  0  0  0  0  0999 V2000
   -2.0542   17.9381    9.9833 Re  0  0  0  0  0  0  0  0  0  0  0  0
   -3.6416   18.0225    8.3633 Cl  0  0  0  0  0  0  0  0  0  0  0  0
   -3.1600   16.0345   10.8586 Cl  0  0  0  0  0  0  0  0  0  0  0  0
   -1.5217   20.1727    9.4931 Cl  0  0  0  0  0  0  0  0  0  0  0  0
   -0.9278   18.0217   11.6562 N   0  0  0  0  0  0  0  0  0  0  0  0
   -0.7125   18.7746   13.8766 N   0  0  0  0  0  0  0  0  0  0  0  0
   -3.3382   18.9143   11.4606 N   0  0  0  0  0  0  0  0  0  0  0  0
    0.2407   17.4298   11.7369 N   0  0  0  0  0  2  0  0  0  0  0  0
    2.1925   16.6919   12.8119 C   0  0  0  0  0  0  0  0  0  0  0  0
    0.5293   18.3066   13.9194 C   0  0  0  0  0  0  0  0  0  0  0  0
   -0.7585   17.0997    9.1415 N   0  0  0  0  0  2  0  0  0  0  0  0
    0.3323   16.4429    8.7867 C   0  0  0  0  0  0  0  0  0  0  0  0
   -1.4191   18.6058   12.7773 C   0  0  0  0  0  0  0  0  0  0  0  0
    0.9734   17.5018   12.8275 C   0  0  0  0  0  0  0  0  0  0  0  0
   -4.5802   19.3341   11.2613 C   0  0  0  0  0  3  0  0  0  0  0  0
   -4.9882   19.1647   10.2726 H   0  0  0  0  0  0  0  0  0  0  0  0
   -2.7799   19.0953   12.6688 C   0  0  0  0  0  0  0  0  0  0  0  0
    2.9070   16.5744   11.6206 C   0  0  0  0  0  0  0  0  0  0  0  0
    2.5612   17.1102   10.7505 H   0  0  0  0  0  0  0  0  0  0  0  0
    1.2823   17.0123    7.9129 C   0  0  0  0  0  0  0  0  0  0  0  0
    1.0764   17.9846    7.4935 H   0  0  0  0  0  0  0  0  0  0  0  0
   -3.4542   19.7149   13.7177 C   0  0  0  0  0  0  0  0  0  0  0  0
   -2.9468   19.8386   14.6602 H   0  0  0  0  0  0  0  0  0  0  0  0
    0.7336   18.8294   16.3163 C   0  0  0  0  0  0  0  0  0  0  0  0
   -0.3288   18.6593   16.3992 H   0  0  0  0  0  0  0  0  0  0  0  0
    2.6175   15.9953   13.9415 C   0  0  0  0  0  0  0  0  0  0  0  0
    2.0501   16.0556   14.8584 H   0  0  0  0  0  0  0  0  0  0  0  0
    1.3441   18.6711   15.0716 C   0  0  0  0  0  0  0  0  0  0  0  0
   -5.3207   19.9540   12.2531 C   0  0  0  0  0  0  0  0  0  0  0  0
   -6.3271   20.2780   12.0431 H   0  0  0  0  0  0  0  0  0  0  0  0
   -4.7475   20.1499   13.5033 C   0  0  0  0  0  0  0  0  0  0  0  0
   -5.3021   20.6340   14.2927 H   0  0  0  0  0  0  0  0  0  0  0  0
    2.4474   16.3401    7.6230 C   0  0  0  0  0  0  0  0  0  0  0  0
    3.1791   16.7766    6.9610 H   0  0  0  0  0  0  0  0  0  0  0  0
    2.7148   18.9016   14.9477 C   0  0  0  0  0  0  0  0  0  0  0  0
    3.1898   18.8217   13.9815 H   0  0  0  0  0  0  0  0  0  0  0  0
    4.0447   15.7923   11.5691 C   0  0  0  0  0  0  0  0  0  0  0  0
    4.5987   15.7119   10.6463 H   0  0  0  0  0  0  0  0  0  0  0  0
    2.6849   15.0925    8.1908 C   0  0  0  0  0  0  0  0  0  0  0  0
    1.7521   14.5026    9.0387 C   0  0  0  0  0  0  0  0  0  0  0  0
    1.9522   13.5317    9.4642 H   0  0  0  0  0  0  0  0  0  0  0  0
    3.7519   15.2084   13.8788 C   0  0  0  0  0  0  0  0  0  0  0  0
    4.0750   14.6666   14.7549 H   0  0  0  0  0  0  0  0  0  0  0  0
    4.4707   15.1106   12.6978 C   0  0  0  0  0  0  0  0  0  0  0  0
    5.3595   14.4992   12.6567 H   0  0  0  0  0  0  0  0  0  0  0  0
    0.5843   15.1639    9.3328 C   0  0  0  0  0  0  0  0  0  0  0  0
   -0.1566   14.7397    9.9913 H   0  0  0  0  0  0  0  0  0  0  0  0
    4.1550   14.2676    7.8444 Cl  0  0  0  0  0  0  0  0  0  0  0  0
    1.4852   19.1779   17.4211 C   0  0  0  0  0  0  0  0  0  0  0  0
    1.0079   19.2863   18.3837 H   0  0  0  0  0  0  0  0  0  0  0  0
    2.8490   19.3898   17.2949 C   0  0  0  0  0  0  0  0  0  0  0  0
    3.4362   19.6621   18.1590 H   0  0  0  0  0  0  0  0  0  0  0  0
    3.4572   19.2604   16.0559 C   0  0  0  0  0  0  0  0  0  0  0  0
    4.5164   19.4423   15.9527 H   0  0  0  0  0  0  0  0  0  0  0  0
  1  3  1  0  0  0  0
  1  7  1  0  0  0  0
  1  5  1  0  0  0  0
  2  1  1  0  0  0  0
  4  1  1  0  0  0  0
  5  8  1  0  0  0  0
  5 13  1  0  0  0  0
  6 10  1  0  0  0  0
  7 17  1  0  0  0  0
  8 14  1  0  0  0  0
  9 14  1  0  0  0  0
  9 26  1  0  0  0  0
 10 28  1  0  0  0  0
 11  1  1  0  0  0  0
 12 11  1  0  0  0  0
 12 46  1  0  0  0  0
 13  6  2  0  0  0  0
 14 10  2  0  0  0  0
 15  7  1  0  0  0  0
 15 29  1  0  0  0  0
 16 15  1  0  0  0  0
 17 13  1  0  0  0  0
 17 22  2  0  0  0  0
 18  9  2  0  0  0  0
 19 18  1  0  0  0  0
 20 12  2  0  0  0  0
 21 20  1  0  0  0  0
 22 23  1  0  0  0  0
 24 25  1  0  0  0  0
 24 49  1  0  0  0  0
 26 27  1  0  0  0  0
 28 24  2  0  0  0  0
 29 31  2  0  0  0  0
 30 29  1  0  0  0  0
 31 22  1  0  0  0  0
 31 32  1  0  0  0  0
 33 20  1  0  0  0  0
 33 39  2  0  0  0  0
 34 33  1  0  0  0  0
 35 28  1  0  0  0  0
 35 53  2  0  0  0  0
 36 35  1  0  0  0  0
 37 18  1  0  0  0  0
 37 44  2  0  0  0  0
 38 37  1  0  0  0  0
 39 40  1  0  0  0  0
 40 46  2  0  0  0  0
 40 41  1  0  0  0  0
 42 26  2  0  0  0  0
 42 43  1  0  0  0  0
 44 42  1  0  0  0  0
 45 44  1  0  0  0  0
 46 47  1  0  0  0  0
 48 39  1  0  0  0  0
 49 50  1  0  0  0  0
 51 49  2  0  0  0  0
 51 52  1  0  0  0  0
 53 51  1  0  0  0  0
 54 53  1  0  0  0  0
M  END
$$$$
