CSD_code = COKNAU | q = 0 | S = 0 | Stoichiometry = C10H11Cl2N3PdS | MND = 4
 OpenBabel04212202023D

 28 30  0  0  1  0  0  0  0  0999 V2000
    8.6347    3.4732    4.8797 Pd  0  0  0  0  0  0  0  0  0  0  0  0
   10.1079    2.3612    3.6467 Cl  0  0  0  0  0  0  0  0  0  0  0  0
    7.2782    1.7337    4.8807 Cl  0  0  0  0  0  0  0  0  0  0  0  0
    7.0304    4.8193    6.0548 S   0  0  1  0  0  3  0  0  0  0  0  0
    9.1570    6.3088    5.2346 N   0  0  1  0  0  0  0  0  0  0  0  0
    9.7358    7.4036    4.8089 N   0  0  0  0  0  2  0  0  0  0  0  0
    9.7305    5.1947    4.7987 N   0  0  0  0  0  0  0  0  0  0  0  0
   10.7466    6.9984    4.0396 C   0  0  0  0  0  0  0  0  0  0  0  0
   13.3434    9.6996    2.0778 C   0  0  0  0  0  0  0  0  0  0  0  0
   14.0049   10.3910    1.5776 H   0  0  0  0  0  0  0  0  0  0  0  0
   12.3441   10.1754    2.9122 C   0  0  0  0  0  0  0  0  0  0  0  0
   12.2266   11.2382    3.0632 H   0  0  0  0  0  0  0  0  0  0  0  0
   11.6426    7.9184    3.3626 C   0  0  0  0  0  0  0  0  0  0  0  0
   13.4928    8.3356    1.8855 C   0  0  0  0  0  0  0  0  0  0  0  0
   14.2707    7.9638    1.2354 H   0  0  0  0  0  0  0  0  0  0  0  0
   12.6493    7.4451    2.5224 C   0  0  0  0  0  0  0  0  0  0  0  0
   12.7697    6.3843    2.3660 H   0  0  0  0  0  0  0  0  0  0  0  0
   11.4969    9.2924    3.5523 C   0  0  0  0  0  0  0  0  0  0  0  0
   10.7151    9.6479    4.2054 H   0  0  0  0  0  0  0  0  0  0  0  0
   10.7368    5.5887    4.0341 C   0  0  0  0  0  0  0  0  0  0  0  0
   11.3625    4.8700    3.5432 H   0  0  0  0  0  0  0  0  0  0  0  0
    8.0699    6.3266    6.1674 C   0  0  0  0  0  0  0  0  0  0  0  0
    7.4674    7.2188    5.9836 H   0  0  0  0  0  0  0  0  0  0  0  0
    8.4469    6.3428    7.1966 H   0  0  0  0  0  0  0  0  0  0  0  0
    6.1446    5.1363    4.4945 C   0  0  0  0  0  0  0  0  0  0  0  0
    6.8460    5.2944    3.6692 H   0  0  0  0  0  0  0  0  0  0  0  0
    5.4865    5.9925    4.6201 H   0  0  0  0  0  0  0  0  0  0  0  0
    5.5601    4.2361    4.3055 H   0  0  0  0  0  0  0  0  0  0  0  0
  1  3  1  0  0  0  0
  1  4  1  0  0  0  0
  2  1  1  0  0  0  0
  4 25  1  6  0  0  0
  4 22  1  0  0  0  0
  5  6  1  1  0  0  0
  5 22  1  0  0  0  0
  7  1  1  0  0  0  0
  7  5  1  0  0  0  0
  8  6  1  0  0  0  0
  9 11  1  0  0  0  0
 10  9  1  0  0  0  0
 11 12  1  0  0  0  0
 11 18  2  0  0  0  0
 13 18  1  0  0  0  0
 13  8  1  0  0  0  0
 14  9  2  0  0  0  0
 14 16  1  0  0  0  0
 15 14  1  0  0  0  0
 16 13  2  0  0  0  0
 17 16  1  0  0  0  0
 18 19  1  0  0  0  0
 20  8  2  0  0  0  0
 20  7  1  0  0  0  0
 21 20  1  0  0  0  0
 22 24  1  0  0  0  0
 23 22  1  0  0  0  0
 25 27  1  0  0  0  0
 26 25  1  0  0  0  0
 28 25  1  0  0  0  0
M  END
$$$$
