CSD_code = COLYIM | q = 0 | S = 0 | Stoichiometry = C20H20Cl2N2Zn | MND = 4
 OpenBabel04212202023D

 45 47  0  0  0  0  0  0  0  0999 V2000
   -0.3553   11.6716   11.7871 Zn  0  0  0  0  0  0  0  0  0  0  0  0
    0.6759   17.0702   12.2620 C   0  0  0  0  0  0  0  0  0  0  0  0
    0.6276   18.4437   12.5278 C   0  0  0  0  0  0  0  0  0  0  0  0
   -0.3142   18.8964   12.8049 H   0  0  0  0  0  0  0  0  0  0  0  0
    1.7663   19.2201   12.4523 C   0  0  0  0  0  0  0  0  0  0  0  0
    1.7131   20.2774   12.6666 H   0  0  0  0  0  0  0  0  0  0  0  0
    2.9760   18.6436   12.0976 C   0  0  0  0  0  0  0  0  0  0  0  0
    3.8667   19.2507   12.0348 H   0  0  0  0  0  0  0  0  0  0  0  0
    3.0375   17.2867   11.8177 C   0  0  0  0  0  0  0  0  0  0  0  0
    3.9772   16.8381   11.5324 H   0  0  0  0  0  0  0  0  0  0  0  0
    1.9034   16.5042   11.8988 C   0  0  0  0  0  0  0  0  0  0  0  0
    1.9642   15.4543   11.6611 H   0  0  0  0  0  0  0  0  0  0  0  0
   -0.5394   16.2955   12.3633 C   0  0  0  0  0  3  0  0  0  0  0  0
   -1.4495   16.8743   12.4815 H   0  0  0  0  0  0  0  0  0  0  0  0
   -0.6300   14.9519   12.3401 C   0  0  0  0  0  0  0  0  0  0  0  0
    0.2481   14.3265   12.2491 H   0  0  0  0  0  0  0  0  0  0  0  0
   -1.8708   14.2557   12.4150 C   0  0  0  0  0  0  0  0  0  0  0  0
   -2.7882   14.8487   12.4990 H   0  0  0  0  0  0  0  0  0  0  0  0
   -3.1669   12.2786   12.4350 C   0  0  0  0  0  0  0  0  0  0  0  0
   -4.0252   12.9373   12.2466 H   0  0  0  0  0  0  0  0  0  0  0  0
   -3.2633   11.8443   13.4373 H   0  0  0  0  0  0  0  0  0  0  0  0
   -3.1433   11.1331   11.4116 C   0  0  0  0  0  0  0  0  0  0  0  0
   -4.0721   10.5504   11.4710 H   0  0  0  0  0  0  0  0  0  0  0  0
   -3.0498   11.5689   10.4111 H   0  0  0  0  0  0  0  0  0  0  0  0
   -2.0339    9.0605   11.7021 C   0  0  0  0  0  0  0  0  0  0  0  0
   -2.9838    8.5352   11.5497 H   0  0  0  0  0  0  0  0  0  0  0  0
   -0.8715    8.2826   11.9755 C   0  0  0  0  0  0  0  0  0  0  0  0
    0.0330    8.8477   12.1485 H   0  0  0  0  0  0  0  0  0  0  0  0
   -0.8831    6.9370   12.0338 C   0  0  0  0  0  3  0  0  0  0  0  0
   -1.8122    6.4147   11.8294 H   0  0  0  0  0  0  0  0  0  0  0  0
    0.2486    6.0906   12.3343 C   0  0  0  0  0  0  0  0  0  0  0  0
    0.1146    4.7048   12.1871 C   0  0  0  0  0  0  0  0  0  0  0  0
   -0.8280    4.2972   11.8493 H   0  0  0  0  0  0  0  0  0  0  0  0
    1.1706    3.8582   12.4573 C   0  0  0  0  0  0  0  0  0  0  0  0
    1.0519    2.7917   12.3337 H   0  0  0  0  0  0  0  0  0  0  0  0
    2.3812    4.3768   12.8896 C   0  0  0  0  0  0  0  0  0  0  0  0
    3.2073    3.7153   13.1037 H   0  0  0  0  0  0  0  0  0  0  0  0
    2.5264    5.7467   13.0505 C   0  0  0  0  0  0  0  0  0  0  0  0
    3.4665    6.1518   13.3937 H   0  0  0  0  0  0  0  0  0  0  0  0
    1.4758    6.5992   12.7767 C   0  0  0  0  0  0  0  0  0  0  0  0
    1.6030    7.6603   12.9201 H   0  0  0  0  0  0  0  0  0  0  0  0
    0.0874   12.3579    9.7344 Cl  0  0  0  0  0  0  0  0  0  0  0  0
    1.1403   11.1087   13.3119 Cl  0  0  0  0  0  0  0  0  0  0  0  0
   -1.9208   12.9826   12.3816 N   0  0  0  0  0  0  0  0  0  0  0  0
   -1.9808   10.3325   11.6468 N   0  0  0  0  0  0  0  0  0  0  0  0
  1 44  1  0  0  0  0
  1 43  1  0  0  0  0
  2 13  1  0  0  0  0
  2  3  1  0  0  0  0
  3  4  1  0  0  0  0
  5  3  2  0  0  0  0
  5  6  1  0  0  0  0
  7  5  1  0  0  0  0
  8  7  1  0  0  0  0
  9 11  1  0  0  0  0
  9  7  2  0  0  0  0
 10  9  1  0  0  0  0
 11  2  2  0  0  0  0
 12 11  1  0  0  0  0
 13 14  1  0  0  0  0
 15 13  1  0  0  0  0
 15 17  2  0  0  0  0
 16 15  1  0  0  0  0
 17 18  1  0  0  0  0
 19 21  1  0  0  0  0
 20 19  1  0  0  0  0
 22 23  1  0  0  0  0
 22 45  1  0  0  0  0
 22 19  1  0  0  0  0
 24 22  1  0  0  0  0
 25 27  2  0  0  0  0
 26 25  1  0  0  0  0
 27 29  1  0  0  0  0
 27 28  1  0  0  0  0
 29 31  1  0  0  0  0
 30 29  1  0  0  0  0
 31 40  1  0  0  0  0
 32 31  2  0  0  0  0
 32 34  1  0  0  0  0
 33 32  1  0  0  0  0
 34 36  2  0  0  0  0
 35 34  1  0  0  0  0
 36 38  1  0  0  0  0
 36 37  1  0  0  0  0
 38 39  1  0  0  0  0
 40 41  1  0  0  0  0
 40 38  2  0  0  0  0
 42  1  1  0  0  0  0
 44 17  1  0  0  0  0
 44 19  1  0  0  0  0
 45 25  1  0  0  0  0
 45  1  1  0  0  0  0
M  END
$$$$
