CSD_code = COMQAZ | q = 0 | S = 0 | Stoichiometry = C24H14Cl2F6N2Pt | MND = 6
 OpenBabel04212202023D

 49 54  0  0  0  0  0  0  0  0999 V2000
   -0.8829    2.0827    9.3833 Pt  0  0  0  0  0  0  0  0  0  0  0  0
   -0.5949   -0.3293    9.1870 Cl  0  0  0  0  0  0  0  0  0  0  0  0
   -2.8448    1.9298   10.8194 Cl  0  0  0  0  0  0  0  0  0  0  0  0
    5.1686    3.2302    6.8749 F   0  0  0  0  0  0  0  0  0  0  0  0
    5.0456    1.5483    8.2069 F   0  0  0  0  0  0  0  0  0  0  0  0
    4.5645    3.5172    8.9190 F   0  0  0  0  0  0  0  0  0  0  0  0
   -2.5116    6.8297    6.8579 F   0  0  0  0  0  0  0  0  0  0  0  0
   -1.7670    8.4684    8.0345 F   0  0  0  0  0  0  0  0  0  0  0  0
   -3.6663    7.5826    8.5071 F   0  0  0  0  0  0  0  0  0  0  0  0
    0.0765    2.2995   11.1251 N   0  0  0  0  0  0  0  0  0  0  0  0
   -1.8418    1.8638    7.6411 N   0  0  0  0  0  0  0  0  0  0  0  0
    0.5617    1.2739   11.8152 C   0  0  0  0  0  3  0  0  0  0  0  0
    0.5155    0.3035   11.3324 H   0  0  0  0  0  0  0  0  0  0  0  0
    1.0879    1.4300   13.0850 C   0  0  0  0  0  0  0  0  0  0  0  0
    1.4688    0.5739   13.6172 H   0  0  0  0  0  0  0  0  0  0  0  0
    1.1038    2.6975   13.6488 C   0  0  0  0  0  0  0  0  0  0  0  0
    1.5014    2.8536   14.6399 H   0  0  0  0  0  0  0  0  0  0  0  0
    0.5952    3.7605   12.9250 C   0  0  0  0  0  0  0  0  0  0  0  0
    0.5870    4.7522   13.3458 H   0  0  0  0  0  0  0  0  0  0  0  0
    0.0768    3.5420   11.6507 C   0  0  0  0  0  0  0  0  0  0  0  0
   -0.5180    4.5633   10.7920 C   0  0  0  0  0  0  0  0  0  0  0  0
   -0.6031    5.9175   11.1141 C   0  0  0  0  0  0  0  0  0  0  0  0
   -0.2027    6.2889   12.0439 H   0  0  0  0  0  0  0  0  0  0  0  0
   -1.2083    6.7989   10.2413 C   0  0  0  0  0  0  0  0  0  0  0  0
   -1.2768    7.8487   10.4810 H   0  0  0  0  0  0  0  0  0  0  0  0
   -1.7333    6.3268    9.0441 C   0  0  0  0  0  0  0  0  0  0  0  0
   -1.6613    4.9786    8.7133 C   0  0  0  0  0  0  0  0  0  0  0  0
   -2.0868    4.6424    7.7779 H   0  0  0  0  0  0  0  0  0  0  0  0
   -1.0493    4.0922    9.5807 C   0  0  0  0  0  0  0  0  0  0  0  0
   -2.4125    7.2929    8.1138 C   0  0  0  0  0  0  0  0  0  0  0  0
   -3.1477    1.6379    7.5581 C   0  0  0  0  0  3  0  0  0  0  0  0
   -3.7061    1.6937    8.4863 H   0  0  0  0  0  0  0  0  0  0  0  0
   -3.7630    1.3360    6.3564 C   0  0  0  0  0  0  0  0  0  0  0  0
   -4.8248    1.1543    6.3277 H   0  0  0  0  0  0  0  0  0  0  0  0
   -2.9864    1.2658    5.2089 C   0  0  0  0  0  0  0  0  0  0  0  0
   -3.4330    1.0253    4.2564 H   0  0  0  0  0  0  0  0  0  0  0  0
   -1.6270    1.5014    5.3032 C   0  0  0  0  0  0  0  0  0  0  0  0
   -1.0017    1.4426    4.4278 H   0  0  0  0  0  0  0  0  0  0  0  0
   -1.0632    1.8009    6.5412 C   0  0  0  0  0  0  0  0  0  0  0  0
    0.3562    2.0438    6.7885 C   0  0  0  0  0  0  0  0  0  0  0  0
    1.3405    2.0589    5.8013 C   0  0  0  0  0  0  0  0  0  0  0  0
    1.0852    1.8972    4.7662 H   0  0  0  0  0  0  0  0  0  0  0  0
    2.6603    2.2786    6.1425 C   0  0  0  0  0  0  0  0  0  0  0  0
    3.4272    2.2937    5.3837 H   0  0  0  0  0  0  0  0  0  0  0  0
    2.9979    2.4824    7.4743 C   0  0  0  0  0  0  0  0  0  0  0  0
    4.4345    2.6968    7.8619 C   0  0  0  0  0  0  0  0  0  0  0  0
    2.0274    2.4610    8.4705 C   0  0  0  0  0  0  0  0  0  0  0  0
    2.3269    2.6151    9.4981 H   0  0  0  0  0  0  0  0  0  0  0  0
    0.7036    2.2475    8.1339 C   0  0  0  0  0  0  0  0  0  0  0  0
  1 29  1  0  0  0  0
  1  3  1  0  0  0  0
  1 10  1  0  0  0  0
  2  1  1  0  0  0  0
  4 46  1  0  0  0  0
  7 30  1  0  0  0  0
  8 30  1  0  0  0  0
 10 20  1  0  0  0  0
 10 12  1  0  0  0  0
 11  1  1  0  0  0  0
 12 14  1  0  0  0  0
 13 12  1  0  0  0  0
 14 15  1  0  0  0  0
 14 16  2  0  0  0  0
 16 17  1  0  0  0  0
 18 19  1  0  0  0  0
 18 16  1  0  0  0  0
 20 18  2  0  0  0  0
 21 22  1  0  0  0  0
 21 20  1  0  0  0  0
 22 23  1  0  0  0  0
 24 25  1  0  0  0  0
 24 22  2  0  0  0  0
 26 24  1  0  0  0  0
 27 26  2  0  0  0  0
 27 29  1  0  0  0  0
 28 27  1  0  0  0  0
 29 21  2  0  0  0  0
 30  9  1  0  0  0  0
 30 26  1  0  0  0  0
 31 11  1  0  0  0  0
 31 32  1  0  0  0  0
 33 31  1  0  0  0  0
 34 33  1  0  0  0  0
 35 37  1  0  0  0  0
 35 33  2  0  0  0  0
 36 35  1  0  0  0  0
 37 39  2  0  0  0  0
 38 37  1  0  0  0  0
 39 40  1  0  0  0  0
 39 11  1  0  0  0  0
 40 49  1  0  0  0  0
 41 43  1  0  0  0  0
 41 40  2  0  0  0  0
 42 41  1  0  0  0  0
 43 45  2  0  0  0  0
 44 43  1  0  0  0  0
 45 46  1  0  0  0  0
 45 47  1  0  0  0  0
 46  5  1  0  0  0  0
 46  6  1  0  0  0  0
 47 48  1  0  0  0  0
 49 47  2  0  0  0  0
 49  1  1  0  0  0  0
M  END
$$$$
