CSD_code = COPGOD | q = 0 | S = 0 | Stoichiometry = C20H20CdI2N4 | MND = 6
 OpenBabel04212202023D

 47 50  0  0  0  0  0  0  0  0999 V2000
    2.7432    0.0000    0.0000 I   0  0  0  0  0  0  0  0  0  0  0  0
   -0.0001    0.0000    0.0000 Cd  0  0  0  0  0  0  0  0  0  0  0  0
   -0.0000    2.5527    0.0001 N   0  0  0  0  0  0  0  0  0  0  0  0
   -0.0000   -0.0001    2.5480 N   0  0  0  0  0  0  0  0  0  0  0  0
    0.8341    3.2338   -0.7756 C   0  0  0  0  0  3  0  0  0  0  0  0
    0.8709    4.6183   -0.8124 C   0  0  0  0  0  0  0  0  0  0  0  0
    0.0001    5.3265   -0.0000 C   0  0  0  0  0  0  0  0  0  0  0  0
    0.8192    0.7914    3.2290 C   0  0  0  0  0  3  0  0  0  0  0  0
    0.8548    0.8292    4.6135 C   0  0  0  0  0  0  0  0  0  0  0  0
   -0.0000   -0.0000    5.3217 C   0  0  0  0  0  0  0  0  0  0  0  0
    1.5058    2.6469   -1.3902 H   0  0  0  0  0  0  0  0  0  0  0  0
    1.5678    5.1257   -1.4608 H   0  0  0  0  0  0  0  0  0  0  0  0
    0.0001    6.4068   -0.0001 H   0  0  0  0  0  0  0  0  0  0  0  0
    1.4791    1.4185    2.6419 H   0  0  0  0  0  0  0  0  0  0  0  0
    1.5387    1.4913    5.1210 H   0  0  0  0  0  0  0  0  0  0  0  0
   -0.0000   -0.0000    6.4020 H   0  0  0  0  0  0  0  0  0  0  0  0
   -2.7432   -0.0000   -0.0000 I   0  0  0  0  0  0  0  0  0  0  0  0
    0.0000   -2.5526   -0.0001 N   0  0  0  0  0  0  0  0  0  0  0  0
   -0.0001    0.0001   -2.5480 N   0  0  0  0  0  0  0  0  0  0  0  0
   -0.8341    3.2339    0.7757 C   0  0  0  0  0  0  0  0  0  0  0  0
   -0.8192   -0.7915    3.2291 C   0  0  0  0  0  0  0  0  0  0  0  0
   -0.8708    4.6184    0.8124 C   0  0  0  0  0  0  0  0  0  0  0  0
   -0.8549   -0.8293    4.6136 C   0  0  0  0  0  0  0  0  0  0  0  0
    0.8342   -3.2338    0.7756 C   0  0  0  0  0  3  0  0  0  0  0  0
   -0.8341   -3.2339   -0.7757 C   0  0  0  0  0  0  0  0  0  0  0  0
    0.8191   -0.7914   -3.2290 C   0  0  0  0  0  3  0  0  0  0  0  0
   -0.8192    0.7915   -3.2291 C   0  0  0  0  0  0  0  0  0  0  0  0
   -1.5059    2.6471    1.3904 H   0  0  0  0  0  0  0  0  0  0  0  0
   -1.4792   -1.4187    2.6420 H   0  0  0  0  0  0  0  0  0  0  0  0
   -1.5677    5.1259    1.4607 H   0  0  0  0  0  0  0  0  0  0  0  0
   -1.5388   -1.4913    5.1211 H   0  0  0  0  0  0  0  0  0  0  0  0
    0.8709   -4.6183    0.8124 C   0  0  0  0  0  0  0  0  0  0  0  0
    1.5059   -2.6469    1.3903 H   0  0  0  0  0  0  0  0  0  0  0  0
   -0.8708   -4.6184   -0.8124 C   0  0  0  0  0  0  0  0  0  0  0  0
   -1.5057   -2.6470   -1.3905 H   0  0  0  0  0  0  0  0  0  0  0  0
    0.8548   -0.8292   -4.6135 C   0  0  0  0  0  0  0  0  0  0  0  0
    1.4791   -1.4185   -2.6419 H   0  0  0  0  0  0  0  0  0  0  0  0
   -0.8549    0.8293   -4.6136 C   0  0  0  0  0  0  0  0  0  0  0  0
   -1.4792    1.4187   -2.6420 H   0  0  0  0  0  0  0  0  0  0  0  0
    0.0001   -5.3265    0.0000 C   0  0  0  0  0  0  0  0  0  0  0  0
    1.5678   -5.1257    1.4608 H   0  0  0  0  0  0  0  0  0  0  0  0
   -1.5677   -5.1259   -1.4608 H   0  0  0  0  0  0  0  0  0  0  0  0
   -0.0000    0.0000   -5.3217 C   0  0  0  0  0  0  0  0  0  0  0  0
    1.5387   -1.4913   -5.1210 H   0  0  0  0  0  0  0  0  0  0  0  0
   -1.5388    1.4913   -5.1211 H   0  0  0  0  0  0  0  0  0  0  0  0
    0.0000   -6.4068    0.0001 H   0  0  0  0  0  0  0  0  0  0  0  0
   -0.0000   -0.0000   -6.4020 H   0  0  0  0  0  0  0  0  0  0  0  0
  2  1  1  0  0  0  0
  2  3  1  0  0  0  0
  2  4  1  0  0  0  0
  3 20  1  0  0  0  0
  4  8  1  0  0  0  0
  4 21  1  0  0  0  0
  5  3  1  0  0  0  0
  6  5  1  0  0  0  0
  6  7  2  0  0  0  0
  7 22  1  0  0  0  0
  8  9  1  0  0  0  0
  9 15  1  0  0  0  0
  9 10  2  0  0  0  0
 10 16  1  0  0  0  0
 11  5  1  0  0  0  0
 12  6  1  0  0  0  0
 13  7  1  0  0  0  0
 14  8  1  0  0  0  0
 17  2  1  0  0  0  0
 18  2  1  0  0  0  0
 18 24  1  0  0  0  0
 19  2  1  0  0  0  0
 20 22  2  0  0  0  0
 20 28  1  0  0  0  0
 21 23  2  0  0  0  0
 22 30  1  0  0  0  0
 23 31  1  0  0  0  0
 23 10  1  0  0  0  0
 24 32  1  0  0  0  0
 24 33  1  0  0  0  0
 25 18  1  0  0  0  0
 26 37  1  0  0  0  0
 26 19  1  0  0  0  0
 27 39  1  0  0  0  0
 27 19  1  0  0  0  0
 29 21  1  0  0  0  0
 32 41  1  0  0  0  0
 34 25  2  0  0  0  0
 34 40  1  0  0  0  0
 35 25  1  0  0  0  0
 36 26  1  0  0  0  0
 38 27  2  0  0  0  0
 40 46  1  0  0  0  0
 40 32  2  0  0  0  0
 42 34  1  0  0  0  0
 43 38  1  0  0  0  0
 43 36  2  0  0  0  0
 44 36  1  0  0  0  0
 45 38  1  0  0  0  0
 47 43  1  0  0  0  0
M  END
$$$$
