CSD_code = COPQEE | q = 0 | S = 0 | Stoichiometry = C13H18BrClCoN5O4 | MND = 6
 OpenBabel04212202023D

 43 45  0  0  0  0  0  0  0  0999 V2000
    7.4405   10.9827    8.3680 Br  0  0  0  0  0  0  0  0  0  0  0  0
    4.5935    8.0469    3.1441 Co  0  0  0  0  0  0  0  0  0  0  0  0
    3.6764    7.0830    1.4250 Cl  0  0  0  0  0  0  0  0  0  0  0  0
    3.9835    5.8848    4.8148 O   0  0  0  0  0  1  0  0  0  0  0  0
    2.9540   10.3765    2.6242 O   0  0  0  0  0  0  0  0  0  0  0  0
    3.8396   10.4941    2.1053 H   0  0  0  0  0  0  0  0  0  0  0  0
    5.2948   10.3032    1.6417 O   0  0  0  0  0  1  0  0  0  0  0  0
    6.1747    5.6548    3.5542 O   0  0  0  0  0  0  0  0  0  0  0  0
    5.3001    5.5505    4.0959 H   0  0  0  0  0  0  0  0  0  0  0  0
    3.5302    6.9584    4.2744 N   0  0  0  0  0  0  0  0  0  0  0  0
    3.0687    9.1661    3.2260 N   0  0  0  0  0  0  0  0  0  0  0  0
    5.6268    9.1024    1.9547 N   0  0  0  0  0  0  0  0  0  0  0  0
    6.0492    6.8533    2.9319 N   0  0  0  0  0  0  0  0  0  0  0  0
    5.4264    8.9183    4.6969 N   0  0  0  0  0  0  0  0  0  0  0  0
    2.3164    7.3853    4.4568 C   0  0  0  0  0  0  0  0  0  0  0  0
    1.2998    6.6391    5.2578 C   0  0  0  0  0  0  0  0  0  0  0  0
    0.4159    6.4374    4.6559 H   0  0  0  0  0  0  0  0  0  0  0  0
    0.9985    7.2112    6.1347 H   0  0  0  0  0  0  0  0  0  0  0  0
    1.7368    5.6963    5.5794 H   0  0  0  0  0  0  0  0  0  0  0  0
    2.0486    8.6535    3.8293 C   0  0  0  0  0  0  0  0  0  0  0  0
    0.7094    9.3036    3.8927 C   0  0  0  0  0  0  0  0  0  0  0  0
    0.7493   10.2755    3.4079 H   0  0  0  0  0  0  0  0  0  0  0  0
    0.3913    9.4215    4.9272 H   0  0  0  0  0  0  0  0  0  0  0  0
   -0.0213    8.6789    3.3806 H   0  0  0  0  0  0  0  0  0  0  0  0
    6.6912    8.5175    1.4926 C   0  0  0  0  0  0  0  0  0  0  0  0
    7.6064    9.1527    0.4972 C   0  0  0  0  0  0  0  0  0  0  0  0
    7.2211   10.1401    0.2528 H   0  0  0  0  0  0  0  0  0  0  0  0
    7.6531    8.5544   -0.4109 H   0  0  0  0  0  0  0  0  0  0  0  0
    8.6136    9.2484    0.9006 H   0  0  0  0  0  0  0  0  0  0  0  0
    6.9179    7.2068    2.0446 C   0  0  0  0  0  0  0  0  0  0  0  0
    8.0697    6.3582    1.6281 C   0  0  0  0  0  0  0  0  0  0  0  0
    8.0265    5.4029    2.1439 H   0  0  0  0  0  0  0  0  0  0  0  0
    9.0104    6.8546    1.8614 H   0  0  0  0  0  0  0  0  0  0  0  0
    8.0310    6.1905    0.5535 H   0  0  0  0  0  0  0  0  0  0  0  0
    5.8662    8.2015    5.7338 C   0  0  0  0  0  3  0  0  0  0  0  0
    5.7244    7.1296    5.6967 H   0  0  0  0  0  0  0  0  0  0  0  0
    6.4676    8.7668    6.8419 C   0  0  0  0  0  0  0  0  0  0  0  0
    6.8056    8.1437    7.6539 H   0  0  0  0  0  0  0  0  0  0  0  0
    6.6223   10.1451    6.8788 C   0  0  0  0  0  0  0  0  0  0  0  0
    6.1677   10.8997    5.8071 C   0  0  0  0  0  0  0  0  0  0  0  0
    6.2687   11.9729    5.7953 H   0  0  0  0  0  0  0  0  0  0  0  0
    5.5782   10.2438    4.7434 C   0  0  0  0  0  0  0  0  0  0  0  0
    5.2324   10.8170    3.8934 H   0  0  0  0  0  0  0  0  0  0  0  0
  2 11  1  0  0  0  0
  2 10  1  0  0  0  0
  2 14  1  0  0  0  0
  3  2  1  0  0  0  0
  5 11  1  0  0  0  0
  6  5  1  0  0  0  0
  7 12  1  0  0  0  0
  8  9  1  0  0  0  0
 10 15  1  0  0  0  0
 10  4  1  0  0  0  0
 11 20  1  0  0  0  0
 12  2  1  0  0  0  0
 13  2  1  0  0  0  0
 13  8  1  0  0  0  0
 14 42  1  0  0  0  0
 14 35  1  0  0  0  0
 15 16  1  0  0  0  0
 16 19  1  0  0  0  0
 16 18  1  0  0  0  0
 17 16  1  0  0  0  0
 20 21  1  0  0  0  0
 20 15  2  0  0  0  0
 21 23  1  0  0  0  0
 22 21  1  0  0  0  0
 24 21  1  0  0  0  0
 25 12  1  0  0  0  0
 25 30  2  0  0  0  0
 26 29  1  0  0  0  0
 26 25  1  0  0  0  0
 27 26  1  0  0  0  0
 28 26  1  0  0  0  0
 30 13  1  0  0  0  0
 31 33  1  0  0  0  0
 31 30  1  0  0  0  0
 31 32  1  0  0  0  0
 34 31  1  0  0  0  0
 35 37  1  0  0  0  0
 36 35  1  0  0  0  0
 37 39  2  0  0  0  0
 37 38  1  0  0  0  0
 39  1  1  0  0  0  0
 40 39  1  0  0  0  0
 41 40  1  0  0  0  0
 42 40  2  0  0  0  0
 43 42  1  0  0  0  0
M  END
$$$$
