CSD_code = COPYUB | q = 0 | S = 0 | Stoichiometry = C20H23BrN2O6Pd | MND = 4
 OpenBabel04212202023D

 53 56  0  0  1  0  0  0  0  0999 V2000
    1.9344    4.2444    6.4015 Pd  0  0  1  0  0  0  0  0  0  0  0  0
    0.6256    5.7316    5.1096 Br  0  0  0  0  0  0  0  0  0  0  0  0
    3.3397    5.9041    7.8107 O   0  0  0  0  0  0  0  0  0  0  0  0
    5.5952    5.8090    8.1116 O   0  0  0  0  0  0  0  0  0  0  0  0
    0.6459    1.8158    6.1826 O   0  0  0  0  0  0  0  0  0  0  0  0
   -1.2873    2.9546    5.9999 O   0  0  0  0  0  0  0  0  0  0  0  0
    1.1646    2.2432    9.1780 O   0  0  0  0  0  0  0  0  0  0  0  0
    1.1942    4.4708    9.5251 O   0  0  0  0  0  0  0  0  0  0  0  0
    3.5857    4.6944    5.2951 N   0  0  0  0  0  0  0  0  0  0  0  0
    3.3687    3.0262    7.4751 N   0  0  0  0  0  0  0  0  0  0  0  0
    3.6411    4.6104    3.9686 C   0  0  0  0  0  3  0  0  0  0  0  0
    4.7877    4.9278    3.2607 C   0  0  0  0  0  0  0  0  0  0  0  0
    5.9102    5.3511    3.9556 C   0  0  0  0  0  0  0  0  0  0  0  0
    5.8454    5.4425    5.3375 C   0  0  0  0  0  0  0  0  0  0  0  0
    4.6583    5.1089    5.9681 C   0  0  0  0  0  0  0  0  0  0  0  0
    4.5138    5.1665    7.4948 C   0  0  0  0  0  0  0  0  0  0  0  0
    4.4006    3.7157    7.9616 C   0  0  2  0  0  3  0  0  0  0  0  0
    5.3471    3.1458    8.7958 C   0  0  0  0  0  0  0  0  0  0  0  0
    5.2144    1.8035    9.1212 C   0  0  0  0  0  0  0  0  0  0  0  0
    4.1659    1.0825    8.5764 C   0  0  0  0  0  0  0  0  0  0  0  0
    3.2539    1.7351    7.7601 C   0  0  0  0  0  0  0  0  0  0  0  0
    3.6951    6.9884    8.6465 C   0  0  0  0  0  0  0  0  0  0  0  0
    5.1929    7.1408    8.3812 C   0  0  0  0  0  0  0  0  0  0  0  0
    0.2727    3.7540    7.5299 C   0  0  0  0  0  0  0  0  0  0  0  0
   -0.0838    2.7370    6.5380 C   0  0  0  0  0  0  0  0  0  0  0  0
    0.9015    3.3609    8.7813 C   0  0  0  0  0  0  0  0  0  0  0  0
   -1.6404    2.2261    4.8244 C   0  0  0  0  0  0  0  0  0  0  0  0
   -2.1907    3.1970    3.7923 C   0  0  0  0  0  0  0  0  0  0  0  0
    1.7660    4.2360   10.8033 C   0  0  0  0  0  0  0  0  0  0  0  0
    0.7161    3.8270   11.8280 C   0  0  0  0  0  0  0  0  0  0  0  0
    2.7346    4.2887    3.4661 H   0  0  0  0  0  0  0  0  0  0  0  0
    4.7954    4.8466    2.1859 H   0  0  0  0  0  0  0  0  0  0  0  0
    6.8194    5.6100    3.4353 H   0  0  0  0  0  0  0  0  0  0  0  0
    6.6882    5.7664    5.9275 H   0  0  0  0  0  0  0  0  0  0  0  0
    6.1534    3.7512    9.1764 H   0  0  0  0  0  0  0  0  0  0  0  0
    5.9261    1.3339    9.7836 H   0  0  0  0  0  0  0  0  0  0  0  0
    4.0383    0.0335    8.7873 H   0  0  0  0  0  0  0  0  0  0  0  0
    2.4063    1.2256    7.3188 H   0  0  0  0  0  0  0  0  0  0  0  0
    3.4979    6.7300    9.6943 H   0  0  0  0  0  0  0  0  0  0  0  0
    3.1006    7.8537    8.3536 H   0  0  0  0  0  0  0  0  0  0  0  0
    5.7658    7.4968    9.2356 H   0  0  0  0  0  0  0  0  0  0  0  0
    5.3775    7.7786    7.5070 H   0  0  0  0  0  0  0  0  0  0  0  0
   -0.4609    4.5559    7.6424 H   0  0  0  0  0  0  0  0  0  0  0  0
   -0.7476    1.7101    4.4540 H   0  0  0  0  0  0  0  0  0  0  0  0
   -2.3899    1.4785    5.1061 H   0  0  0  0  0  0  0  0  0  0  0  0
   -2.4258    2.6643    2.8751 H   0  0  0  0  0  0  0  0  0  0  0  0
   -1.4576    3.9727    3.5852 H   0  0  0  0  0  0  0  0  0  0  0  0
   -3.0906    3.6729    4.1712 H   0  0  0  0  0  0  0  0  0  0  0  0
    2.2346    5.1822   11.0863 H   0  0  0  0  0  0  0  0  0  0  0  0
    2.5319    3.4543   10.7197 H   0  0  0  0  0  0  0  0  0  0  0  0
   -0.0669    4.5796   11.8804 H   0  0  0  0  0  0  0  0  0  0  0  0
    1.1780    3.7214   12.8059 H   0  0  0  0  0  0  0  0  0  0  0  0
    0.2746    2.8766   11.5398 H   0  0  0  0  0  0  0  0  0  0  0  0
  1  2  1  1  0  0  0
  1 10  1  0  0  0  0
  1 24  1  0  0  0  0
  3 22  1  0  0  0  0
  4 23  1  0  0  0  0
  5 25  2  0  0  0  0
  6 25  1  0  0  0  0
  8 29  1  0  0  0  0
  9 15  1  0  0  0  0
  9  1  1  0  0  0  0
 10 21  1  0  0  0  0
 10 17  1  0  0  0  0
 11  9  1  0  0  0  0
 12 13  2  0  0  0  0
 12 11  1  0  0  0  0
 13 14  1  0  0  0  0
 14 34  1  0  0  0  0
 14 15  2  0  0  0  0
 15 16  1  0  0  0  0
 16  3  1  0  0  0  0
 16 17  1  0  0  0  0
 16  4  1  0  0  0  0
 17 18  1  6  0  0  0
 18 19  2  0  0  0  0
 18 35  1  0  0  0  0
 19 36  1  0  0  0  0
 20 37  1  0  0  0  0
 20 19  1  0  0  0  0
 21 20  2  0  0  0  0
 22 39  1  0  0  0  0
 23 22  1  0  0  0  0
 23 41  1  0  0  0  0
 24 43  1  0  0  0  0
 24 26  1  0  0  0  0
 25 24  1  0  0  0  0
 26  7  2  0  0  0  0
 26  8  1  0  0  0  0
 27 45  1  0  0  0  0
 27  6  1  0  0  0  0
 28 48  1  0  0  0  0
 28 27  1  0  0  0  0
 29 49  1  0  0  0  0
 29 30  1  0  0  0  0
 30 51  1  0  0  0  0
 30 52  1  0  0  0  0
 31 11  1  0  0  0  0
 32 12  1  0  0  0  0
 33 13  1  0  0  0  0
 38 21  1  0  0  0  0
 40 22  1  0  0  0  0
 42 23  1  0  0  0  0
 44 27  1  0  0  0  0
 46 28  1  0  0  0  0
 47 28  1  0  0  0  0
 50 29  1  0  0  0  0
 53 30  1  0  0  0  0
M  END
$$$$
