CSD_code = COQJOI | q = 0 | S = 0 | Stoichiometry = C24H20Br2N8Zn | MND = 4
 OpenBabel04212202023D

 55 60  0  0  1  0  0  0  0  0999 V2000
    5.4061    4.3817   13.0424 Zn  0  0  0  0  0  0  0  0  0  0  0  0
    5.1267    4.4475   10.6699 Br  0  0  0  0  0  0  0  0  0  0  0  0
    7.0318    4.6891   14.6863 Br  0  0  0  0  0  0  0  0  0  0  0  0
    4.2385    2.6555   13.5349 N   0  0  0  0  0  0  0  0  0  0  0  0
    5.0783    1.8029   12.9687 C   0  0  2  0  0  3  0  0  0  0  0  0
    6.3050    2.0601   12.5753 N   0  0  0  0  0  0  0  0  0  0  0  0
    6.9769    1.0778   12.0069 C   0  0  0  0  0  0  0  0  0  0  0  0
    6.3999   -0.1992   11.8569 C   0  0  0  0  0  0  0  0  0  0  0  0
    6.9692   -0.9780   11.3775 H   0  0  0  0  0  0  0  0  0  0  0  0
    5.1132   -0.4660   12.2803 C   0  0  0  0  0  0  0  0  0  0  0  0
    4.4526    0.5828   12.8319 N   0  0  0  0  0  0  0  0  0  0  0  0
    3.2087    0.6850   13.3232 N   0  0  0  0  0  0  0  0  0  0  0  0
    3.1269    1.9318   13.7248 C   0  0  0  0  0  0  0  0  0  0  0  0
    2.2389    2.3365   14.1653 H   0  0  0  0  0  0  0  0  0  0  0  0
    8.3412    1.3940   11.5163 C   0  0  0  0  0  0  0  0  0  0  0  0
    8.8338    2.0670   12.2148 H   0  0  0  0  0  0  0  0  0  0  0  0
    8.2552    1.9220   10.5655 H   0  0  0  0  0  0  0  0  0  0  0  0
    8.9336    0.4956   11.3712 H   0  0  0  0  0  0  0  0  0  0  0  0
    4.4670   -1.7700   12.1538 C   0  0  0  0  0  0  0  0  0  0  0  0
    5.2332   -2.9353   12.2261 C   0  0  0  0  0  0  0  0  0  0  0  0
    6.2943   -2.8717   12.4134 H   0  0  0  0  0  0  0  0  0  0  0  0
    4.6337   -4.1727   12.0970 C   0  0  0  0  0  0  0  0  0  0  0  0
    5.2340   -5.0675   12.1636 H   0  0  0  0  0  0  0  0  0  0  0  0
    3.2671   -4.2666   11.8863 C   0  0  0  0  0  0  0  0  0  0  0  0
    2.8018   -5.2352   11.7830 H   0  0  0  0  0  0  0  0  0  0  0  0
    2.5005   -3.1153   11.8144 C   0  0  0  0  0  0  0  0  0  0  0  0
    1.4356   -3.1843   11.6521 H   0  0  0  0  0  0  0  0  0  0  0  0
    3.0905   -1.8730   11.9519 C   0  0  0  0  0  0  0  0  0  0  0  0
    2.4888   -0.9804   11.8976 H   0  0  0  0  0  0  0  0  0  0  0  0
    3.9993    5.9116   13.5203 N   0  0  0  0  0  0  0  0  0  0  0  0
    2.8334    5.8121   12.8950 C   0  0  1  0  0  3  0  0  0  0  0  0
    2.2761    4.7373   12.3822 N   0  0  0  0  0  0  0  0  0  0  0  0
    1.1238    4.8935   11.7669 C   0  0  0  0  0  0  0  0  0  0  0  0
    0.4850    6.1468   11.6958 C   0  0  0  0  0  0  0  0  0  0  0  0
   -0.4503    6.2355   11.1686 H   0  0  0  0  0  0  0  0  0  0  0  0
    1.0510    7.2654   12.2709 C   0  0  0  0  0  0  0  0  0  0  0  0
    2.2518    7.0684   12.8666 N   0  0  0  0  0  0  0  0  0  0  0  0
    3.0556    7.9342   13.4929 N   0  0  0  0  0  0  0  0  0  0  0  0
    4.0817    7.2073   13.8594 C   0  0  0  0  0  0  0  0  0  0  0  0
    4.9204    7.6164   14.3871 H   0  0  0  0  0  0  0  0  0  0  0  0
    0.5303    3.6886   11.1251 C   0  0  0  0  0  0  0  0  0  0  0  0
    0.9623    2.7910   11.5581 H   0  0  0  0  0  0  0  0  0  0  0  0
    0.7742    3.7028   10.0627 H   0  0  0  0  0  0  0  0  0  0  0  0
   -0.5516    3.6776   11.2309 H   0  0  0  0  0  0  0  0  0  0  0  0
    0.4358    8.5910   12.2558 C   0  0  0  0  0  0  0  0  0  0  0  0
   -0.9550    8.7099   12.2904 C   0  0  0  0  0  0  0  0  0  0  0  0
   -1.5692    7.8251   12.3662 H   0  0  0  0  0  0  0  0  0  0  0  0
   -1.5490    9.9563   12.2657 C   0  0  0  0  0  0  0  0  0  0  0  0
   -2.6251   10.0374   12.3028 H   0  0  0  0  0  0  0  0  0  0  0  0
   -0.7677   11.0990   12.1969 C   0  0  0  0  0  0  0  0  0  0  0  0
   -1.2349   12.0719   12.1756 H   0  0  0  0  0  0  0  0  0  0  0  0
    0.6124   10.9888   12.1612 C   0  0  0  0  0  0  0  0  0  0  0  0
    1.2246   11.8761   12.1084 H   0  0  0  0  0  0  0  0  0  0  0  0
    1.2159    9.7458   12.1955 C   0  0  0  0  0  0  0  0  0  0  0  0
    2.2905    9.6670   12.1692 H   0  0  0  0  0  0  0  0  0  0  0  0
  1 30  1  0  0  0  0
  1  4  1  0  0  0  0
  1  3  1  0  0  0  0
  2  1  1  0  0  0  0
  4 13  1  0  0  0  0
  5  6  1  6  0  0  0
  5  4  1  0  0  0  0
  7  6  2  0  0  0  0
  8  7  1  0  0  0  0
  8 10  2  0  0  0  0
  9  8  1  0  0  0  0
 10 11  1  0  0  0  0
 11  5  1  0  0  0  0
 11 12  1  0  0  0  0
 12 13  2  0  0  0  0
 13 14  1  0  0  0  0
 15  7  1  0  0  0  0
 15 16  1  0  0  0  0
 17 15  1  0  0  0  0
 18 15  1  0  0  0  0
 19 20  1  0  0  0  0
 19 10  1  0  0  0  0
 20 21  1  0  0  0  0
 22 23  1  0  0  0  0
 22 20  2  0  0  0  0
 24 22  1  0  0  0  0
 25 24  1  0  0  0  0
 26 24  2  0  0  0  0
 26 28  1  0  0  0  0
 27 26  1  0  0  0  0
 28 19  2  0  0  0  0
 29 28  1  0  0  0  0
 30 39  1  0  0  0  0
 31 32  1  1  0  0  0
 31 30  1  0  0  0  0
 33 32  2  0  0  0  0
 34 33  1  0  0  0  0
 34 36  2  0  0  0  0
 35 34  1  0  0  0  0
 36 37  1  0  0  0  0
 37 31  1  0  0  0  0
 37 38  1  0  0  0  0
 38 39  2  0  0  0  0
 39 40  1  0  0  0  0
 41 44  1  0  0  0  0
 41 42  1  0  0  0  0
 41 33  1  0  0  0  0
 43 41  1  0  0  0  0
 45 36  1  0  0  0  0
 45 46  1  0  0  0  0
 46 47  1  0  0  0  0
 48 46  2  0  0  0  0
 48 49  1  0  0  0  0
 50 48  1  0  0  0  0
 51 50  1  0  0  0  0
 52 54  1  0  0  0  0
 52 50  2  0  0  0  0
 53 52  1  0  0  0  0
 54 45  2  0  0  0  0
 55 54  1  0  0  0  0
M  END
$$$$
