CSD_code = COQKUQ | q = 0 | S = 0 | Stoichiometry = C18H22AuClN4O2P2S | MND = 2
 OpenBabel04212202023D

 51 55  0  0  1  0  0  0  0  0999 V2000
    1.3562   -3.6267    0.9084 C   0  0  0  0  0  0  0  0  0  0  0  0
    1.7315   -4.5026    1.4525 H   0  0  0  0  0  0  0  0  0  0  0  0
    0.3670   -3.8764    0.5046 H   0  0  0  0  0  0  0  0  0  0  0  0
    2.9742   -1.9030    2.4214 C   0  0  0  0  0  0  0  0  0  0  0  0
    3.1139   -0.9800    2.9925 H   0  0  0  0  0  0  0  0  0  0  0  0
    3.3968   -2.7444    2.9861 H   0  0  0  0  0  0  0  0  0  0  0  0
    0.7770   -0.8693    0.9036 C   0  0  0  0  0  0  0  0  0  0  0  0
   -0.2266   -1.0321    0.4893 H   0  0  0  0  0  0  0  0  0  0  0  0
    0.8189    0.1065    1.4018 H   0  0  0  0  0  0  0  0  0  0  0  0
    3.5863   -2.9782    0.3429 C   0  0  0  0  0  0  0  0  0  0  0  0
    3.9410   -3.8236    0.9398 H   0  0  0  0  0  0  0  0  0  0  0  0
    4.2541   -2.8436   -0.5132 H   0  0  0  0  0  0  0  0  0  0  0  0
    1.7654   -2.1314   -0.9115 C   0  0  0  0  0  0  0  0  0  0  0  0
    2.4134   -1.9918   -1.7820 H   0  0  0  0  0  0  0  0  0  0  0  0
    0.7487   -2.3400   -1.2566 H   0  0  0  0  0  0  0  0  0  0  0  0
    3.1086   -0.6516    0.3712 C   0  0  0  0  0  0  0  0  0  0  0  0
    3.0875    0.2424    0.9979 H   0  0  0  0  0  0  0  0  0  0  0  0
    3.7759   -0.4865   -0.4794 H   0  0  0  0  0  0  0  0  0  0  0  0
   -1.4621   -4.2910    5.2885 C   0  0  0  0  0  0  0  0  0  0  0  0
   -1.4219   -4.3722    6.6704 C   0  0  0  0  0  0  0  0  0  0  0  0
   -1.6427   -3.4972    7.2625 H   0  0  0  0  0  0  0  0  0  0  0  0
   -1.0829   -5.5745    7.2675 C   0  0  0  0  0  0  0  0  0  0  0  0
   -1.0478   -5.6417    8.3441 H   0  0  0  0  0  0  0  0  0  0  0  0
   -0.7861   -6.6805    6.4894 C   0  0  0  0  0  0  0  0  0  0  0  0
   -0.5210   -7.6157    6.9591 H   0  0  0  0  0  0  0  0  0  0  0  0
   -0.8240   -6.5859    5.1081 C   0  0  0  0  0  0  0  0  0  0  0  0
   -0.5879   -7.4453    4.4985 H   0  0  0  0  0  0  0  0  0  0  0  0
   -1.1603   -5.3888    4.5004 C   0  0  0  0  0  0  0  0  0  0  0  0
   -1.1882   -5.2880    3.4266 H   0  0  0  0  0  0  0  0  0  0  0  0
   -2.1566    0.1726    4.0910 C   0  0  0  0  0  0  0  0  0  0  0  0
   -1.9306    1.3929    3.4719 C   0  0  0  0  0  0  0  0  0  0  0  0
   -1.3664    1.4307    2.5529 H   0  0  0  0  0  0  0  0  0  0  0  0
   -2.4335    2.5449    4.0518 C   0  0  0  0  0  0  0  0  0  0  0  0
   -2.2565    3.4972    3.5764 H   0  0  0  0  0  0  0  0  0  0  0  0
   -3.1427    2.4766    5.2394 C   0  0  0  0  0  0  0  0  0  0  0  0
   -3.5234    3.3792    5.6923 H   0  0  0  0  0  0  0  0  0  0  0  0
   -3.3601    1.2525    5.8489 C   0  0  0  0  0  0  0  0  0  0  0  0
   -3.9091    1.1957    6.7763 H   0  0  0  0  0  0  0  0  0  0  0  0
   -2.8670    0.0930    5.2762 C   0  0  0  0  0  0  0  0  0  0  0  0
   -3.0214   -0.8733    5.7340 H   0  0  0  0  0  0  0  0  0  0  0  0
    0.1559   -2.8071    3.1726 N   0  0  0  0  0  2  0  0  0  0  0  0
    2.2589   -3.2877   -0.1724 N   0  0  2  0  0  0  0  0  0  0  0  0
    1.7713   -0.8996   -0.1478 N   0  0  2  0  0  0  0  0  0  0  0  0
    3.6357   -1.7701    1.1426 N   0  0  1  0  0  0  0  0  0  0  0  0
   -1.6406   -0.9720    3.4897 O   0  0  0  0  0  0  0  0  0  0  0  0
   -1.8459   -3.0968    4.6817 O   0  0  0  0  0  0  0  0  0  0  0  0
   -0.7448   -2.0280    4.2717 P   0  0  0  0  0  4  0  0  0  0  0  0
    1.1778   -2.2311    2.0858 P   0  0  1  0  0  4  0  0  0  0  0  0
    0.1059   -1.3618    5.9675 S   0  0  0  0  0  0  0  0  0  0  0  0
    1.9865    1.5309    2.9914 Cl  0  0  0  0  0  0  0  0  0  0  0  0
    1.0940    0.1288    4.5399 Au  0  0  0  0  0  0  0  0  0  0  0  0
  1  2  1  0  0  0  0
  1 48  1  0  0  0  0
  3  1  1  0  0  0  0
  4  6  1  0  0  0  0
  4  5  1  0  0  0  0
  7  9  1  0  0  0  0
  7 48  1  0  0  0  0
  8  7  1  0  0  0  0
 10 11  1  0  0  0  0
 12 10  1  0  0  0  0
 14 13  1  0  0  0  0
 15 13  1  0  0  0  0
 16 17  1  0  0  0  0
 16 44  1  0  0  0  0
 18 16  1  0  0  0  0
 19 20  1  0  0  0  0
 20 21  1  0  0  0  0
 20 22  2  0  0  0  0
 22 23  1  0  0  0  0
 24 25  1  0  0  0  0
 24 22  1  0  0  0  0
 26 24  2  0  0  0  0
 27 26  1  0  0  0  0
 28 26  1  0  0  0  0
 28 19  2  0  0  0  0
 29 28  1  0  0  0  0
 30 39  1  0  0  0  0
 31 33  1  0  0  0  0
 31 30  2  0  0  0  0
 32 31  1  0  0  0  0
 33 35  2  0  0  0  0
 34 33  1  0  0  0  0
 35 36  1  0  0  0  0
 35 37  1  0  0  0  0
 37 38  1  0  0  0  0
 39 40  1  0  0  0  0
 39 37  2  0  0  0  0
 41 47  1  0  0  0  0
 42 13  1  1  0  0  0
 42 10  1  0  0  0  0
 42  1  1  0  0  0  0
 43 13  1  1  0  0  0
 43 16  1  0  0  0  0
 43  7  1  0  0  0  0
 44 10  1  6  0  0  0
 44  4  1  0  0  0  0
 45 30  1  0  0  0  0
 45 47  1  0  0  0  0
 46 19  1  0  0  0  0
 47 46  1  0  0  0  0
 47 49  1  0  0  0  0
 48  4  1  0  0  0  0
 48 41  1  1  0  0  0
 50 51  1  0  0  0  0
 51 49  1  0  0  0  0
M  END
$$$$
