CSD_code = COQSEJ | q = 0 | S = 0 | Stoichiometry = C19H12BrMnN2O4 | MND = 6
 OpenBabel04212202023D

 39 42  0  0  1  0  0  0  0  0999 V2000
    1.0013    3.9432   12.0082 Br  0  0  0  0  0  0  0  0  0  0  0  0
    3.3472    4.4751   12.5910 Mn  0  0  0  0  0  0  0  0  0  0  0  0
    3.2537    1.4802    6.4862 O   0  0  0  0  0  0  0  0  0  0  0  0
    2.8878    0.9031    5.8045 H   0  0  0  0  0  0  0  0  0  0  0  0
    2.9681    6.3003   11.8003 N   0  0  0  0  0  0  0  0  0  0  0  0
    2.5511    7.3782   12.4637 C   0  0  0  0  0  3  0  0  0  0  0  0
    2.5171    7.3035   13.5435 H   0  0  0  0  0  0  0  0  0  0  0  0
    2.4670    5.0524   15.3301 O   0  0  0  0  0  1  0  0  0  0  0  0
    3.7653    4.1194   10.6403 N   0  0  0  0  0  0  0  0  0  0  0  0
    2.1633    8.5496   11.8414 C   0  0  0  0  0  0  0  0  0  0  0  0
    1.8274    9.3856   12.4328 H   0  0  0  0  0  0  0  0  0  0  0  0
    3.6599    1.7188   13.5476 O   0  0  0  0  0  1  0  0  0  0  0  0
    2.2074    8.6172   10.4563 C   0  0  0  0  0  0  0  0  0  0  0  0
    1.9034    9.5110    9.9341 H   0  0  0  0  0  0  0  0  0  0  0  0
    6.1270    5.1196   13.2317 O   0  0  0  0  0  1  0  0  0  0  0  0
    2.6461    7.5102    9.7584 C   0  0  0  0  0  0  0  0  0  0  0  0
    2.6854    7.5312    8.6821 H   0  0  0  0  0  0  0  0  0  0  0  0
    3.0229    6.3615   10.4544 C   0  0  0  0  0  0  0  0  0  0  0  0
    3.4871    5.1385    9.8024 C   0  0  2  0  0  3  0  0  0  0  0  0
    3.6335    5.0003    8.4222 C   0  0  0  0  0  0  0  0  0  0  0  0
    3.4085    5.8245    7.7658 H   0  0  0  0  0  0  0  0  0  0  0  0
    4.0654    3.8037    7.8933 C   0  0  0  0  0  0  0  0  0  0  0  0
    4.1840    3.6865    6.8288 H   0  0  0  0  0  0  0  0  0  0  0  0
    4.3516    2.7458    8.7574 C   0  0  0  0  0  0  0  0  0  0  0  0
    4.1810    2.9692   10.1217 C   0  0  0  0  0  0  0  0  0  0  0  0
    4.3712    2.1615   10.8177 H   0  0  0  0  0  0  0  0  0  0  0  0
    4.8162    1.4386    8.2831 C   0  0  0  0  0  0  0  0  0  0  0  0
    5.8246    0.7614    8.9648 C   0  0  0  0  0  0  0  0  0  0  0  0
    6.2801    1.2303    9.8243 H   0  0  0  0  0  0  0  0  0  0  0  0
    6.2678   -0.4778    8.5455 C   0  0  0  0  0  0  0  0  0  0  0  0
    7.0558   -0.9798    9.0842 H   0  0  0  0  0  0  0  0  0  0  0  0
    5.6921   -1.0720    7.4352 C   0  0  0  0  0  0  0  0  0  0  0  0
    6.0240   -2.0436    7.1028 H   0  0  0  0  0  0  0  0  0  0  0  0
    4.6863   -0.4202    6.7471 C   0  0  0  0  0  0  0  0  0  0  0  0
    4.2298   -0.8845    5.8827 H   0  0  0  0  0  0  0  0  0  0  0  0
    4.2461    0.8341    7.1521 C   0  0  0  0  0  0  0  0  0  0  0  0
    2.8142    4.8615   14.2517 C   0  0  0  0  0  2  0  0  0  0  0  0
    3.5547    2.7901   13.1458 C   0  0  0  0  0  2  0  0  0  0  0  0
    5.0336    4.8767   12.9653 C   0  0  0  0  0  2  0  0  0  0  0  0
  1  2  1  0  0  0  0
  2 39  1  0  0  0  0
  2 38  1  0  0  0  0
  2 37  1  0  0  0  0
  3 36  1  0  0  0  0
  4  3  1  0  0  0  0
  5  6  1  0  0  0  0
  5  2  1  0  0  0  0
  6  7  1  0  0  0  0
  9  2  1  0  0  0  0
 10 11  1  0  0  0  0
 10  6  1  0  0  0  0
 13 10  2  0  0  0  0
 14 13  1  0  0  0  0
 16 18  2  0  0  0  0
 16 13  1  0  0  0  0
 17 16  1  0  0  0  0
 18  5  1  0  0  0  0
 19 20  1  6  0  0  0
 19 18  1  0  0  0  0
 19  9  1  0  0  0  0
 21 20  1  0  0  0  0
 22 20  2  0  0  0  0
 22 24  1  0  0  0  0
 23 22  1  0  0  0  0
 24 25  2  0  0  0  0
 25  9  1  0  0  0  0
 25 26  1  0  0  0  0
 27 24  1  0  0  0  0
 27 28  1  0  0  0  0
 28 29  1  0  0  0  0
 30 28  2  0  0  0  0
 30 31  1  0  0  0  0
 32 30  1  0  0  0  0
 33 32  1  0  0  0  0
 34 36  1  0  0  0  0
 34 32  2  0  0  0  0
 35 34  1  0  0  0  0
 36 27  2  0  0  0  0
 37  8  1  0  0  0  0
 38 12  1  0  0  0  0
 39 15  1  0  0  0  0
M  END
$$$$
