CSD_code = COQWOW | q = 0 | S = 0 | Stoichiometry = C12H24Cl2N4O2Zn | MND = 4
 OpenBabel04212202023D

 45 46  0  0  1  0  0  0  0  0999 V2000
    6.7111    0.4423    2.2755 Zn  0  0  0  0  0  0  0  0  0  0  0  0
    6.7798   -1.0230    0.6301 Cl  0  0  0  0  0  0  0  0  0  0  0  0
    7.6043    0.6357    4.2963 Cl  0  0  0  0  0  0  0  0  0  0  0  0
    7.0346    2.0816    1.1376 O   0  0  0  0  0  0  0  0  0  0  0  0
    4.6954    0.8647    2.5827 O   0  0  0  0  0  0  0  0  0  0  0  0
    6.5869    1.9814   -0.0245 C   0  0  2  0  0  3  0  0  0  0  0  0
    7.3829    2.2044   -1.0776 N   0  0  0  0  0  0  0  0  0  0  0  0
    2.7679    1.5174    3.5275 N   0  0  0  0  0  0  0  0  0  0  0  0
    4.8069    1.8406    4.6138 N   0  0  0  0  0  0  0  0  0  0  0  0
    4.1170    1.3981    3.5587 C   0  0  1  0  0  3  0  0  0  0  0  0
    5.2613    1.7375   -0.2257 N   0  0  0  0  0  0  0  0  0  0  0  0
    5.0005    1.1999   -1.0362 H   0  0  0  0  0  0  0  0  0  0  0  0
    4.8119    1.4183    0.6257 H   0  0  0  0  0  0  0  0  0  0  0  0
    2.0517    1.1559    2.3169 C   0  0  0  0  0  0  0  0  0  0  0  0
    1.1255    0.6530    2.6125 H   0  0  0  0  0  0  0  0  0  0  0  0
    2.6655    0.4576    1.7487 H   0  0  0  0  0  0  0  0  0  0  0  0
    8.8063    2.4086   -0.8852 C   0  0  0  0  0  0  0  0  0  0  0  0
    9.3419    1.6058   -1.4051 H   0  0  0  0  0  0  0  0  0  0  0  0
    9.0164    2.3427    0.1819 H   0  0  0  0  0  0  0  0  0  0  0  0
    6.9749    2.2462   -2.4638 C   0  0  0  0  0  0  0  0  0  0  0  0
    5.9004    2.0962   -2.5525 H   0  0  0  0  0  0  0  0  0  0  0  0
    7.4892    1.4417   -3.0037 H   0  0  0  0  0  0  0  0  0  0  0  0
    1.7315    2.4081    1.5009 C   0  0  0  0  0  0  0  0  0  0  0  0
    1.1734    2.1301    0.6064 H   0  0  0  0  0  0  0  0  0  0  0  0
    2.6659    2.8789    1.1890 H   0  0  0  0  0  0  0  0  0  0  0  0
    1.9868    2.3836    4.3848 C   0  0  0  0  0  0  0  0  0  0  0  0
    2.5087    2.5915    5.3177 H   0  0  0  0  0  0  0  0  0  0  0  0
    1.0561    1.8590    4.6279 H   0  0  0  0  0  0  0  0  0  0  0  0
    1.6654    3.6886    3.6511 C   0  0  0  0  0  0  0  0  0  0  0  0
    2.5995    4.2073    3.4264 H   0  0  0  0  0  0  0  0  0  0  0  0
    1.0621    4.3309    4.2939 H   0  0  0  0  0  0  0  0  0  0  0  0
    9.2276    3.7645   -1.4439 C   0  0  0  0  0  0  0  0  0  0  0  0
    8.7242    4.5546   -0.8841 H   0  0  0  0  0  0  0  0  0  0  0  0
   10.3033    3.8885   -1.3178 H   0  0  0  0  0  0  0  0  0  0  0  0
    8.8465    3.8547   -2.9186 C   0  0  0  0  0  0  0  0  0  0  0  0
    9.4050    3.1069   -3.4859 H   0  0  0  0  0  0  0  0  0  0  0  0
    9.1016    4.8383   -3.3161 H   0  0  0  0  0  0  0  0  0  0  0  0
    0.9212    3.3836    2.3527 C   0  0  0  0  0  0  0  0  0  0  0  0
   -0.0493    2.9400    2.5881 H   0  0  0  0  0  0  0  0  0  0  0  0
    0.7422    4.3066    1.7994 H   0  0  0  0  0  0  0  0  0  0  0  0
    7.3505    3.5992   -3.0743 C   0  0  0  0  0  0  0  0  0  0  0  0
    6.7915    4.3854   -2.5633 H   0  0  0  0  0  0  0  0  0  0  0  0
    7.0685    3.6080   -4.1280 H   0  0  0  0  0  0  0  0  0  0  0  0
    5.7969    1.5730    4.6567 H   0  0  0  0  0  0  0  0  0  0  0  0
    4.3605    2.1045    5.4725 H   0  0  0  0  0  0  0  0  0  0  0  0
  1  5  1  0  0  0  0
  1  3  1  0  0  0  0
  2  1  1  0  0  0  0
  4  1  1  0  0  0  0
  6  4  1  1  0  0  0
  7 17  1  0  0  0  0
  7  6  1  0  0  0  0
  8 10  1  0  0  0  0
  8 26  1  0  0  0  0
  9 44  1  0  0  0  0
  9 45  1  0  0  0  0
 10  5  1  1  0  0  0
 10  9  1  0  0  0  0
 11  6  1  0  0  0  0
 11 13  1  0  0  0  0
 12 11  1  0  0  0  0
 14 15  1  0  0  0  0
 14  8  1  0  0  0  0
 16 14  1  0  0  0  0
 17 19  1  0  0  0  0
 18 17  1  0  0  0  0
 20  7  1  0  0  0  0
 21 20  1  0  0  0  0
 22 20  1  0  0  0  0
 23 14  1  0  0  0  0
 23 38  1  0  0  0  0
 24 23  1  0  0  0  0
 25 23  1  0  0  0  0
 26 28  1  0  0  0  0
 26 27  1  0  0  0  0
 29 31  1  0  0  0  0
 29 26  1  0  0  0  0
 30 29  1  0  0  0  0
 32 34  1  0  0  0  0
 32 17  1  0  0  0  0
 32 33  1  0  0  0  0
 35 32  1  0  0  0  0
 36 35  1  0  0  0  0
 37 35  1  0  0  0  0
 38 39  1  0  0  0  0
 38 29  1  0  0  0  0
 40 38  1  0  0  0  0
 41 35  1  0  0  0  0
 41 42  1  0  0  0  0
 41 20  1  0  0  0  0
 43 41  1  0  0  0  0
M  END
$$$$
