CSD_code = COQWEN | q = 0 | S = 0 | Stoichiometry = C22H16Cl2N4Zn | MND = 4
 OpenBabel04212202023D

 45 50  0  0  0  0  0  0  0  0999 V2000
   13.9176    4.0019   -0.0022 Zn  0  0  0  0  0  0  0  0  0  0  0  0
   15.4572    4.8714    1.3608 Cl  0  0  0  0  0  0  0  0  0  0  0  0
   12.5865    2.7786    1.0321 N   0  0  0  0  0  0  0  0  0  0  0  0
   11.3448    2.8279    0.5325 N   0  0  0  0  0  0  0  0  0  0  0  0
   12.5703    1.9862    2.0889 C   0  0  0  0  0  0  0  0  0  0  0  0
   13.4649    1.8012    2.6502 H   0  0  0  0  0  0  0  0  0  0  0  0
   11.2688    1.4987    2.2969 C   0  0  0  0  0  0  0  0  0  0  0  0
   10.6576    0.6421    3.2433 C   0  0  0  0  0  0  0  0  0  0  0  0
   11.2481    0.2058    4.0336 H   0  0  0  0  0  0  0  0  0  0  0  0
    9.3281    0.3975    3.1237 C   0  0  0  0  0  0  0  0  0  0  0  0
    8.8300   -0.2499    3.8304 H   0  0  0  0  0  0  0  0  0  0  0  0
    8.5328    0.9687    2.0835 C   0  0  0  0  0  0  0  0  0  0  0  0
    7.1584    0.6948    1.9848 C   0  0  0  0  0  0  0  0  0  0  0  0
    6.7042    0.0398    2.7142 H   0  0  0  0  0  0  0  0  0  0  0  0
    6.4003    1.2462    0.9829 C   0  0  0  0  0  0  0  0  0  0  0  0
    5.3449    1.0259    0.9200 H   0  0  0  0  0  0  0  0  0  0  0  0
   11.1950    3.4438   -0.2708 H   0  0  0  0  0  0  0  0  0  0  0  0
    6.9827    2.0956    0.0379 C   0  0  0  0  0  0  0  0  0  0  0  0
    6.3728    2.5224   -0.7440 H   0  0  0  0  0  0  0  0  0  0  0  0
    8.3223    2.3867    0.1031 C   0  0  0  0  0  3  0  0  0  0  0  0
    8.7781    3.0437   -0.6225 H   0  0  0  0  0  0  0  0  0  0  0  0
    9.1132    1.8313    1.1192 C   0  0  0  0  0  0  0  0  0  0  0  0
   10.5028    2.0764    1.2621 C   0  0  0  0  0  0  0  0  0  0  0  0
   12.3770    4.8737   -1.3626 Cl  0  0  0  0  0  0  0  0  0  0  0  0
   15.2482    2.7768   -1.0360 N   0  0  0  0  0  0  0  0  0  0  0  0
   16.4895    2.8267   -0.5356 N   0  0  0  0  0  0  0  0  0  0  0  0
   15.2650    1.9827   -2.0915 C   0  0  0  0  0  0  0  0  0  0  0  0
   14.3709    1.7972   -2.6534 H   0  0  0  0  0  0  0  0  0  0  0  0
   16.5665    1.4942   -2.2974 C   0  0  0  0  0  0  0  0  0  0  0  0
   17.1784    0.6358   -3.2418 C   0  0  0  0  0  3  0  0  0  0  0  0
   16.5885    0.1978   -4.0316 H   0  0  0  0  0  0  0  0  0  0  0  0
   18.5078    0.3917   -3.1209 C   0  0  0  0  0  0  0  0  0  0  0  0
   19.0064   -0.2572   -3.8260 H   0  0  0  0  0  0  0  0  0  0  0  0
   19.3026    0.9651   -2.0815 C   0  0  0  0  0  0  0  0  0  0  0  0
   20.6772    0.6926   -1.9820 C   0  0  0  0  0  0  0  0  0  0  0  0
   21.1321    0.0365   -2.7100 H   0  0  0  0  0  0  0  0  0  0  0  0
   21.4347    1.2466   -0.9811 C   0  0  0  0  0  0  0  0  0  0  0  0
   22.4903    1.0275   -0.9178 H   0  0  0  0  0  0  0  0  0  0  0  0
   16.6388    3.4426    0.2678 H   0  0  0  0  0  0  0  0  0  0  0  0
   20.8514    2.0972   -0.0377 C   0  0  0  0  0  0  0  0  0  0  0  0
   21.4609    2.5261    0.7433 H   0  0  0  0  0  0  0  0  0  0  0  0
   19.5116    2.3869   -0.1036 C   0  0  0  0  0  0  0  0  0  0  0  0
   19.0551    3.0447    0.6207 H   0  0  0  0  0  0  0  0  0  0  0  0
   18.7214    1.8291   -1.1189 C   0  0  0  0  0  0  0  0  0  0  0  0
   17.3318    2.0735   -1.2630 C   0  0  0  0  0  0  0  0  0  0  0  0
  1  3  1  0  0  0  0
  1  2  1  0  0  0  0
  3  5  1  0  0  0  0
  4  3  1  0  0  0  0
  4 23  1  0  0  0  0
  5  7  2  0  0  0  0
  5  6  1  0  0  0  0
  7  8  1  0  0  0  0
  8  9  1  0  0  0  0
 10  8  2  0  0  0  0
 10 11  1  0  0  0  0
 12 10  1  0  0  0  0
 13 12  2  0  0  0  0
 13 14  1  0  0  0  0
 15 13  1  0  0  0  0
 16 15  1  0  0  0  0
 17  4  1  0  0  0  0
 18 20  1  0  0  0  0
 18 15  2  0  0  0  0
 19 18  1  0  0  0  0
 20 22  1  0  0  0  0
 21 20  1  0  0  0  0
 22 23  2  0  0  0  0
 22 12  1  0  0  0  0
 23  7  1  0  0  0  0
 24  1  1  0  0  0  0
 25 26  1  0  0  0  0
 25  1  1  0  0  0  0
 26 39  1  0  0  0  0
 27 25  1  0  0  0  0
 28 27  1  0  0  0  0
 29 27  2  0  0  0  0
 29 45  1  0  0  0  0
 30 32  1  0  0  0  0
 30 29  1  0  0  0  0
 31 30  1  0  0  0  0
 32 34  2  0  0  0  0
 33 32  1  0  0  0  0
 34 35  1  0  0  0  0
 34 44  1  0  0  0  0
 35 37  2  0  0  0  0
 36 35  1  0  0  0  0
 37 38  1  0  0  0  0
 37 40  1  0  0  0  0
 40 41  1  0  0  0  0
 42 40  2  0  0  0  0
 42 43  1  0  0  0  0
 44 42  1  0  0  0  0
 45 44  2  0  0  0  0
 45 26  1  0  0  0  0
M  END
$$$$
