CSD_code = COQXIR | q = 0 | S = 0 | Stoichiometry = C6H16Br2N4O2Zn | MND = 4
 OpenBabel04212202023D

 31 30  0  0  0  0  0  0  0  0999 V2000
    2.1686    6.9213   11.6718 Br  0  0  0  0  0  0  0  0  0  0  0  0
    1.2773    5.7913    7.3806 Br  0  0  0  0  0  0  0  0  0  0  0  0
    1.1171    6.1976    9.7083 Zn  0  0  0  0  0  0  0  0  0  0  0  0
   -1.8859    5.4106    8.7033 N   0  0  0  0  0  4  0  0  0  0  0  0
   -2.2808    5.2780    7.7888 H   0  0  0  0  0  0  0  0  0  0  0  0
   -1.6209    6.3600    8.9351 H   0  0  0  0  0  0  0  0  0  0  0  0
   -0.2483    4.7618   10.1176 O   0  0  0  0  0  0  0  0  0  0  0  0
   -0.6644    9.9130    8.8468 N   0  0  0  0  0  0  0  0  0  0  0  0
   -0.3293    2.1669    9.3018 C   0  0  0  0  0  0  0  0  0  0  0  0
    0.3309    1.8347    8.4967 H   0  0  0  0  0  0  0  0  0  0  0  0
   -0.9012    1.3171    9.6771 H   0  0  0  0  0  0  0  0  0  0  0  0
    0.2700    2.5760   10.1117 H   0  0  0  0  0  0  0  0  0  0  0  0
   -1.2273    3.1942    8.8247 N   0  0  0  0  0  0  0  0  0  0  0  0
   -1.0703    4.4664    9.2277 C   0  0  0  0  0  0  0  0  0  0  0  0
   -0.0868    9.4137   11.0358 N   0  0  0  0  0  4  0  0  0  0  0  0
    0.3214    8.7274   11.6595 H   0  0  0  0  0  0  0  0  0  0  0  0
    0.1471   10.3710   11.2290 H   0  0  0  0  0  0  0  0  0  0  0  0
   -0.2874    7.7868    9.4802 O   0  0  0  0  0  0  0  0  0  0  0  0
   -0.3203    8.9980    9.7733 C   0  0  0  0  0  0  0  0  0  0  0  0
   -0.8179   11.3144    9.1654 C   0  0  0  0  0  0  0  0  0  0  0  0
   -1.4383   11.4417   10.0542 H   0  0  0  0  0  0  0  0  0  0  0  0
   -1.3133   11.8048    8.3303 H   0  0  0  0  0  0  0  0  0  0  0  0
    0.1499   11.8008    9.3258 H   0  0  0  0  0  0  0  0  0  0  0  0
   -2.1356    2.8365    7.7585 C   0  0  0  0  0  0  0  0  0  0  0  0
   -1.7921    3.2285    6.7958 H   0  0  0  0  0  0  0  0  0  0  0  0
   -3.1399    3.2076    7.9689 H   0  0  0  0  0  0  0  0  0  0  0  0
   -2.1776    1.7521    7.6920 H   0  0  0  0  0  0  0  0  0  0  0  0
   -0.8289    9.5250    7.4623 C   0  0  0  0  0  0  0  0  0  0  0  0
   -0.5098    8.4926    7.3379 H   0  0  0  0  0  0  0  0  0  0  0  0
   -0.2115   10.1595    6.8248 H   0  0  0  0  0  0  0  0  0  0  0  0
   -1.8745    9.6153    7.1581 H   0  0  0  0  0  0  0  0  0  0  0  0
  2  3  1  0  0  0  0
  3  7  1  0  0  0  0
  3  1  1  0  0  0  0
  4  6  1  0  0  0  0
  4 14  2  0  0  0  0
  5  4  1  0  0  0  0
  8 20  1  0  0  0  0
  8 19  1  0  0  0  0
  9 11  1  0  0  0  0
  9 12  1  0  0  0  0
 10  9  1  0  0  0  0
 13 14  1  0  0  0  0
 13  9  1  0  0  0  0
 14  7  1  0  0  0  0
 15 17  1  0  0  0  0
 15 16  1  0  0  0  0
 18  3  1  0  0  0  0
 18 19  1  0  0  0  0
 19 15  2  0  0  0  0
 20 23  1  0  0  0  0
 20 21  1  0  0  0  0
 22 20  1  0  0  0  0
 24 26  1  0  0  0  0
 24 13  1  0  0  0  0
 25 24  1  0  0  0  0
 27 24  1  0  0  0  0
 28  8  1  0  0  0  0
 29 28  1  0  0  0  0
 30 28  1  0  0  0  0
 31 28  1  0  0  0  0
M  END
$$$$
