CSD_code = COQXEN | q = 0 | S = 0 | Stoichiometry = C26H20I2N4Zn | MND = 4
 OpenBabel04212202023D

 53 56  0  0  0  0  0  0  0  0999 V2000
    3.1146    3.2568   12.4125 I   0  0  0  0  0  0  0  0  0  0  0  0
    0.0773    6.1973   14.5220 I   0  0  0  0  0  0  0  0  0  0  0  0
    1.7411    4.3466   14.2190 Zn  0  0  0  0  0  0  0  0  0  0  0  0
   -0.7405    0.5047   17.4171 C   0  0  0  0  0  0  0  0  0  0  0  0
   -0.3275    1.4921   17.5650 H   0  0  0  0  0  0  0  0  0  0  0  0
    0.6069    0.2665   15.4141 N   0  0  0  0  0  0  0  0  0  0  0  0
   -1.6739   -0.0057   18.3000 C   0  0  0  0  0  0  0  0  0  0  0  0
   -1.9889    0.5902   19.1427 H   0  0  0  0  0  0  0  0  0  0  0  0
   -0.3335   -0.2595   16.3292 C   0  0  0  0  0  0  0  0  0  0  0  0
    0.7730    1.5483   15.2966 C   0  0  0  0  0  2  0  0  0  0  0  0
    0.9456    2.6814   15.1719 N   0  0  0  0  0  2  0  0  0  0  0  0
    1.6269   -0.2386   13.2632 C   0  0  0  0  0  0  0  0  0  0  0  0
    1.1144    0.6072   12.8319 H   0  0  0  0  0  0  0  0  0  0  0  0
    1.4431   -0.5586   14.6006 C   0  0  0  0  0  0  0  0  0  0  0  0
   -0.8675   -1.5254   16.1222 C   0  0  0  0  0  0  0  0  0  0  0  0
   -0.5652   -2.1071   15.2645 H   0  0  0  0  0  0  0  0  0  0  0  0
   -2.1975   -1.2733   18.1073 C   0  0  0  0  0  0  0  0  0  0  0  0
   -2.9219   -1.6704   18.8013 H   0  0  0  0  0  0  0  0  0  0  0  0
   -1.7935   -2.0273   17.0182 C   0  0  0  0  0  0  0  0  0  0  0  0
   -2.2059   -3.0117   16.8570 H   0  0  0  0  0  0  0  0  0  0  0  0
    3.1502    4.8443   15.6851 N   0  0  0  0  0  2  0  0  0  0  0  0
    2.0989   -1.6432   15.1678 C   0  0  0  0  0  0  0  0  0  0  0  0
    1.9577   -1.8743   16.2137 H   0  0  0  0  0  0  0  0  0  0  0  0
    2.9325   -2.4150   14.3793 C   0  0  0  0  0  0  0  0  0  0  0  0
    3.4413   -3.2612   14.8157 H   0  0  0  0  0  0  0  0  0  0  0  0
    2.4794   -1.0059   12.4898 C   0  0  0  0  0  0  0  0  0  0  0  0
    2.6368   -0.7412   11.4565 H   0  0  0  0  0  0  0  0  0  0  0  0
    3.1279   -2.0956   13.0450 C   0  0  0  0  0  0  0  0  0  0  0  0
    3.7906   -2.6946   12.4400 H   0  0  0  0  0  0  0  0  0  0  0  0
    3.7968    5.6443   16.2064 C   0  0  0  0  0  2  0  0  0  0  0  0
    4.5014    6.5650   16.7907 N   0  0  0  0  0  0  0  0  0  0  0  0
    4.0469    7.9106   16.6475 C   0  0  0  0  0  0  0  0  0  0  0  0
    5.6931    6.2257   17.4733 C   0  0  0  0  0  0  0  0  0  0  0  0
    6.1283    7.0107   18.5339 C   0  0  0  0  0  0  0  0  0  0  0  0
    5.5605    7.8794   18.8320 H   0  0  0  0  0  0  0  0  0  0  0  0
    4.9601    8.9203   16.3744 C   0  0  0  0  0  0  0  0  0  0  0  0
    6.0127    8.6916   16.2928 H   0  0  0  0  0  0  0  0  0  0  0  0
    6.4064    5.0930   17.0979 C   0  0  0  0  0  0  0  0  0  0  0  0
    6.0592    4.4865   16.2740 H   0  0  0  0  0  0  0  0  0  0  0  0
    2.6894    8.1866   16.7333 C   0  0  0  0  0  0  0  0  0  0  0  0
    1.9852    7.3958   16.9406 H   0  0  0  0  0  0  0  0  0  0  0  0
    4.5037   10.2142   16.2013 C   0  0  0  0  0  0  0  0  0  0  0  0
    5.2116   11.0016   15.9912 H   0  0  0  0  0  0  0  0  0  0  0  0
    2.2436    9.4814   16.5379 C   0  0  0  0  0  0  0  0  0  0  0  0
    1.1860    9.6867   16.5843 H   0  0  0  0  0  0  0  0  0  0  0  0
    3.1491   10.4958   16.2776 C   0  0  0  0  0  0  0  0  0  0  0  0
    2.7999   11.5056   16.1274 H   0  0  0  0  0  0  0  0  0  0  0  0
    7.2881    6.6661   19.2032 C   0  0  0  0  0  0  0  0  0  0  0  0
    7.6271    7.2781   20.0251 H   0  0  0  0  0  0  0  0  0  0  0  0
    8.0062    5.5419   18.8300 C   0  0  0  0  0  0  0  0  0  0  0  0
    8.9102    5.2785   19.3570 H   0  0  0  0  0  0  0  0  0  0  0  0
    7.5601    4.7553   17.7812 C   0  0  0  0  0  0  0  0  0  0  0  0
    8.1137    3.8772   17.4861 H   0  0  0  0  0  0  0  0  0  0  0  0
  1  3  1  0  0  0  0
  3  2  1  0  0  0  0
  3 11  1  0  0  0  0
  3 21  1  0  0  0  0
  4  5  1  0  0  0  0
  4  7  1  0  0  0  0
  6  9  1  0  0  0  0
  7  8  1  0  0  0  0
  9  4  2  0  0  0  0
 10  6  1  0  0  0  0
 11 10  1  0  0  0  0
 12 14  1  0  0  0  0
 13 12  1  0  0  0  0
 14 22  2  0  0  0  0
 14  6  1  0  0  0  0
 15  9  1  0  0  0  0
 15 19  2  0  0  0  0
 16 15  1  0  0  0  0
 17  7  2  0  0  0  0
 17 18  1  0  0  0  0
 19 17  1  0  0  0  0
 20 19  1  0  0  0  0
 21 30  1  0  0  0  0
 22 23  1  0  0  0  0
 24 25  1  0  0  0  0
 24 22  1  0  0  0  0
 26 28  1  0  0  0  0
 26 12  2  0  0  0  0
 27 26  1  0  0  0  0
 28 24  2  0  0  0  0
 29 28  1  0  0  0  0
 30 31  1  0  0  0  0
 31 33  1  0  0  0  0
 32 40  1  0  0  0  0
 32 31  1  0  0  0  0
 33 34  1  0  0  0  0
 34 35  1  0  0  0  0
 34 48  2  0  0  0  0
 36 32  2  0  0  0  0
 37 36  1  0  0  0  0
 38 33  2  0  0  0  0
 38 52  1  0  0  0  0
 39 38  1  0  0  0  0
 40 41  1  0  0  0  0
 42 46  2  0  0  0  0
 42 36  1  0  0  0  0
 43 42  1  0  0  0  0
 44 45  1  0  0  0  0
 44 40  2  0  0  0  0
 46 44  1  0  0  0  0
 47 46  1  0  0  0  0
 48 49  1  0  0  0  0
 50 48  1  0  0  0  0
 50 51  1  0  0  0  0
 52 50  2  0  0  0  0
 53 52  1  0  0  0  0
M  END
$$$$
