CSD_code = CORCIW | q = 0 | S = 0 | Stoichiometry = C27H37IN2OZn | MND = 4
 OpenBabel04212202023D

 69 71  0  0  1  0  0  0  0  0999 V2000
    0.5848    6.3008    5.7107 I   0  0  0  0  0  0  0  0  0  0  0  0
    2.1720    4.4193    5.5070 Zn  0  0  0  0  0  0  0  0  0  0  0  0
    3.2019    3.9714    3.9411 N   0  0  0  0  0  0  0  0  0  0  0  0
    1.9671    2.6706    6.2927 N   0  0  0  0  0  0  0  0  0  0  0  0
    3.8849    5.1626    6.8055 O   0  0  0  0  0  0  0  0  0  0  0  0
    3.2248    4.8163    2.8020 C   0  0  0  0  0  0  0  0  0  0  0  0
    2.2349    4.6625    1.8259 C   0  0  0  0  0  0  0  0  0  0  0  0
    2.2239    5.5171    0.7356 C   0  0  0  0  0  0  0  0  0  0  0  0
    1.4551    5.3979   -0.0149 H   0  0  0  0  0  0  0  0  0  0  0  0
    3.1676    6.5226    0.5893 C   0  0  0  0  0  0  0  0  0  0  0  0
    4.1330    6.6672    1.5734 C   0  0  0  0  0  0  0  0  0  0  0  0
    4.8704    7.4528    1.4820 H   0  0  0  0  0  0  0  0  0  0  0  0
    4.1766    5.8318    2.6785 C   0  0  0  0  0  0  0  0  0  0  0  0
    1.1674    3.6200    1.9791 C   0  0  0  0  0  0  0  0  0  0  0  0
    0.6509    3.4580    1.0362 H   0  0  0  0  0  0  0  0  0  0  0  0
    0.4320    3.9543    2.7138 H   0  0  0  0  0  0  0  0  0  0  0  0
    1.5765    2.6720    2.3252 H   0  0  0  0  0  0  0  0  0  0  0  0
    3.1207    7.4508   -0.5863 C   0  0  0  0  0  0  0  0  0  0  0  0
    2.7682    6.9327   -1.4755 H   0  0  0  0  0  0  0  0  0  0  0  0
    4.1024    7.8730   -0.7885 H   0  0  0  0  0  0  0  0  0  0  0  0
    2.4338    8.2726   -0.3817 H   0  0  0  0  0  0  0  0  0  0  0  0
    5.2185    6.0337    3.7383 C   0  0  0  0  0  0  0  0  0  0  0  0
    5.8707    6.8653    3.4817 H   0  0  0  0  0  0  0  0  0  0  0  0
    5.8289    5.1392    3.8673 H   0  0  0  0  0  0  0  0  0  0  0  0
    4.7369    6.2497    4.6906 H   0  0  0  0  0  0  0  0  0  0  0  0
    0.9068    2.3692    7.1854 C   0  0  0  0  0  0  0  0  0  0  0  0
   -0.3025    1.9010    6.6600 C   0  0  0  0  0  0  0  0  0  0  0  0
   -1.3574    1.6457    7.5201 C   0  0  0  0  0  0  0  0  0  0  0  0
   -2.2917    1.2868    7.1117 H   0  0  0  0  0  0  0  0  0  0  0  0
   -1.2459    1.8465    8.8882 C   0  0  0  0  0  0  0  0  0  0  0  0
   -0.0452    2.3255    9.3876 C   0  0  0  0  0  0  0  0  0  0  0  0
    0.0561    2.5003   10.4498 H   0  0  0  0  0  0  0  0  0  0  0  0
    1.0335    2.5922    8.5584 C   0  0  0  0  0  0  0  0  0  0  0  0
   -0.4694    1.7247    5.1800 C   0  0  0  0  0  0  0  0  0  0  0  0
   -1.3989    1.2067    4.9575 H   0  0  0  0  0  0  0  0  0  0  0  0
    0.3583    1.1656    4.7455 H   0  0  0  0  0  0  0  0  0  0  0  0
   -0.4985    2.7019    4.6941 H   0  0  0  0  0  0  0  0  0  0  0  0
   -2.4098    1.5842    9.7950 C   0  0  0  0  0  0  0  0  0  0  0  0
   -3.0826    2.4423    9.7918 H   0  0  0  0  0  0  0  0  0  0  0  0
   -2.0777    1.4177   10.8171 H   0  0  0  0  0  0  0  0  0  0  0  0
   -2.9732    0.7157    9.4602 H   0  0  0  0  0  0  0  0  0  0  0  0
    2.3114    3.1320    9.1285 C   0  0  0  0  0  0  0  0  0  0  0  0
    3.1426    2.4475    8.9536 H   0  0  0  0  0  0  0  0  0  0  0  0
    2.2150    3.2929   10.1997 H   0  0  0  0  0  0  0  0  0  0  0  0
    2.5539    4.0806    8.6527 H   0  0  0  0  0  0  0  0  0  0  0  0
    3.8397    2.8199    3.9094 C   0  0  1  0  0  3  0  0  0  0  0  0
    3.7177    1.8292    4.8855 C   0  0  0  0  0  0  0  0  0  0  0  0
    4.3459    0.9624    4.7357 H   0  0  0  0  0  0  0  0  0  0  0  0
    2.7950    1.7133    5.9255 C   0  0  0  0  0  0  0  0  0  0  0  0
    4.7059    2.4949    2.7171 C   0  0  0  0  0  0  0  0  0  0  0  0
    4.0738    2.2115    1.8748 H   0  0  0  0  0  0  0  0  0  0  0  0
    5.3775    1.6688    2.9350 H   0  0  0  0  0  0  0  0  0  0  0  0
    5.2883    3.3592    2.4054 H   0  0  0  0  0  0  0  0  0  0  0  0
    2.7153    0.3728    6.6154 C   0  0  0  0  0  0  0  0  0  0  0  0
    2.5519    0.4906    7.6847 H   0  0  0  0  0  0  0  0  0  0  0  0
    3.6215   -0.2046    6.4518 H   0  0  0  0  0  0  0  0  0  0  0  0
    1.8716   -0.1939    6.2205 H   0  0  0  0  0  0  0  0  0  0  0  0
    3.9556    6.4173    7.4957 C   0  0  0  0  0  0  0  0  0  0  0  0
    3.1692    6.4412    8.2595 H   0  0  0  0  0  0  0  0  0  0  0  0
    3.7678    7.2280    6.7868 H   0  0  0  0  0  0  0  0  0  0  0  0
    5.3436    6.4855    8.1275 C   0  0  0  0  0  0  0  0  0  0  0  0
    5.3420    7.0585    9.0511 H   0  0  0  0  0  0  0  0  0  0  0  0
    6.0568    6.9335    7.4345 H   0  0  0  0  0  0  0  0  0  0  0  0
    5.6673    5.0075    8.3349 C   0  0  0  0  0  0  0  0  0  0  0  0
    6.7332    4.8074    8.4103 H   0  0  0  0  0  0  0  0  0  0  0  0
    5.1689    4.6311    9.2290 H   0  0  0  0  0  0  0  0  0  0  0  0
    5.0509    4.3934    7.0836 C   0  0  0  0  0  0  0  0  0  0  0  0
    5.7425    4.4662    6.2344 H   0  0  0  0  0  0  0  0  0  0  0  0
    4.7535    3.3502    7.2005 H   0  0  0  0  0  0  0  0  0  0  0  0
  2  1  1  0  0  0  0
  2  4  1  0  0  0  0
  3  2  1  0  0  0  0
  4 26  1  0  0  0  0
  5 67  1  0  0  0  0
  5 58  1  0  0  0  0
  6  3  1  0  0  0  0
  7 14  1  0  0  0  0
  7  6  2  0  0  0  0
  8  7  1  0  0  0  0
  9  8  1  0  0  0  0
 10  8  2  0  0  0  0
 10 11  1  0  0  0  0
 11 13  2  0  0  0  0
 12 11  1  0  0  0  0
 13  6  1  0  0  0  0
 13 22  1  0  0  0  0
 14 17  1  0  0  0  0
 14 16  1  0  0  0  0
 15 14  1  0  0  0  0
 18 21  1  0  0  0  0
 18 10  1  0  0  0  0
 19 18  1  0  0  0  0
 20 18  1  0  0  0  0
 22 24  1  0  0  0  0
 22 25  1  0  0  0  0
 23 22  1  0  0  0  0
 26 33  1  0  0  0  0
 27 26  2  0  0  0  0
 27 28  1  0  0  0  0
 28 30  2  0  0  0  0
 29 28  1  0  0  0  0
 30 31  1  0  0  0  0
 30 38  1  0  0  0  0
 31 32  1  0  0  0  0
 33 42  1  0  0  0  0
 33 31  2  0  0  0  0
 34 27  1  0  0  0  0
 35 34  1  0  0  0  0
 36 34  1  0  0  0  0
 37 34  1  0  0  0  0
 38 40  1  0  0  0  0
 39 38  1  0  0  0  0
 41 38  1  0  0  0  0
 42 44  1  0  0  0  0
 43 42  1  0  0  0  0
 45 42  1  0  0  0  0
 46 50  1  6  0  0  0
 46  3  1  0  0  0  0
 46 47  1  0  0  0  0
 47 49  2  0  0  0  0
 48 47  1  0  0  0  0
 49  4  1  0  0  0  0
 49 54  1  0  0  0  0
 50 52  1  0  0  0  0
 51 50  1  0  0  0  0
 53 50  1  0  0  0  0
 54 55  1  0  0  0  0
 56 54  1  0  0  0  0
 57 54  1  0  0  0  0
 58 61  1  0  0  0  0
 58 59  1  0  0  0  0
 60 58  1  0  0  0  0
 61 64  1  0  0  0  0
 61 62  1  0  0  0  0
 63 61  1  0  0  0  0
 64 65  1  0  0  0  0
 64 66  1  0  0  0  0
 67 69  1  0  0  0  0
 67 64  1  0  0  0  0
 68 67  1  0  0  0  0
M  END
$$$$
