CSD_code = CORFOF | q = 0 | S = 0 | Stoichiometry = C14H4AuClF5PS2 | MND = 2
 OpenBabel04212202023D

 28 31  0  0  0  0  0  0  0  0999 V2000
   22.1224    8.6435    8.8477 Au  0  0  0  0  0  0  0  0  0  0  0  0
   23.6624    7.6210   10.1255 P   0  0  0  0  0  4  0  0  0  0  0  0
   20.5323    9.6362    7.5980 Cl  0  0  0  0  0  0  0  0  0  0  0  0
   26.0194    9.3705   13.1531 S   0  0  0  0  0  0  0  0  0  0  0  0
   25.3511    8.0128    7.9245 F   0  0  0  0  0  0  0  0  0  0  0  0
   26.6422    3.5806    6.9283 F   0  0  0  0  0  0  0  0  0  0  0  0
   25.1521    2.7075    9.0319 F   0  0  0  0  0  0  0  0  0  0  0  0
   23.7955    4.4631   10.5638 F   0  0  0  0  0  0  0  0  0  0  0  0
   26.6338    9.9580   11.6504 C   0  0  0  0  0  0  0  0  0  0  0  0
   27.4468   10.6564   11.6639 H   0  0  0  0  0  0  0  0  0  0  0  0
   25.9867    9.4544   10.5658 C   0  0  0  0  0  0  0  0  0  0  0  0
   26.2212    9.7188    9.5514 H   0  0  0  0  0  0  0  0  0  0  0  0
   24.9723    8.5519   10.9449 C   0  0  0  0  0  0  0  0  0  0  0  0
   24.8604    8.4179   12.3276 C   0  0  0  0  0  0  0  0  0  0  0  0
   23.8170    7.5468   12.7492 C   0  0  0  0  0  0  0  0  0  0  0  0
   23.1019    6.9695   11.7027 C   0  0  0  0  0  0  0  0  0  0  0  0
   22.0331    6.1678   12.1512 C   0  0  0  0  0  0  0  0  0  0  0  0
   21.3511    5.6462   11.5051 H   0  0  0  0  0  0  0  0  0  0  0  0
   21.9851    6.1176   13.5084 C   0  0  0  0  0  0  0  0  0  0  0  0
   21.2934    5.5755   14.1222 H   0  0  0  0  0  0  0  0  0  0  0  0
   24.5730    6.2848    9.2756 C   0  0  0  0  0  0  0  0  0  0  0  0
   25.3273    6.7022    8.1811 C   0  0  0  0  0  0  0  0  0  0  0  0
   26.0340    5.8157    7.3829 C   0  0  0  0  0  0  0  0  0  0  0  0
   25.9743    4.4525    7.6757 C   0  0  0  0  0  0  0  0  0  0  0  0
   25.2125    4.0084    8.7535 C   0  0  0  0  0  0  0  0  0  0  0  0
   24.5167    4.9219    9.5425 C   0  0  0  0  0  0  0  0  0  0  0  0
   23.2097    7.0624   14.2750 S   0  0  0  0  0  0  0  0  0  0  0  0
   26.7596    6.2484    6.3551 F   0  0  0  0  0  0  0  0  0  0  0  0
  1  2  1  0  0  0  0
  2 13  1  0  0  0  0
  2 16  1  0  0  0  0
  3  1  1  0  0  0  0
  5 22  1  0  0  0  0
  6 24  1  0  0  0  0
  9 10  1  0  0  0  0
  9  4  1  0  0  0  0
 11 13  1  0  0  0  0
 11  9  2  0  0  0  0
 12 11  1  0  0  0  0
 13 14  2  0  0  0  0
 14 15  1  0  0  0  0
 14  4  1  0  0  0  0
 15 27  1  0  0  0  0
 16 17  1  0  0  0  0
 16 15  2  0  0  0  0
 17 19  2  0  0  0  0
 18 17  1  0  0  0  0
 19 20  1  0  0  0  0
 19 27  1  0  0  0  0
 21 26  1  0  0  0  0
 21  2  1  0  0  0  0
 22 21  2  0  0  0  0
 23 24  2  0  0  0  0
 23 22  1  0  0  0  0
 24 25  1  0  0  0  0
 25  7  1  0  0  0  0
 25 26  2  0  0  0  0
 26  8  1  0  0  0  0
 28 23  1  0  0  0  0
M  END
$$$$
