CSD_code = CORPEH | q = 0 | S = 0 | Stoichiometry = C20H16AuClN3P | MND = 2
 OpenBabel04212202023D

 42 45  0  0  0  0  0  0  0  0999 V2000
    9.6666   11.0648    2.2963 Au  0  0  0  0  0  0  0  0  0  0  0  0
   10.9299   11.9086    3.9692 Cl  0  0  0  0  0  0  0  0  0  0  0  0
    8.4828   10.0992    0.6520 P   0  0  0  0  0  4  0  0  0  0  0  0
    8.9328    7.5251    1.6464 N   0  0  0  0  0  0  0  0  0  0  0  0
    8.3156    6.3708    1.8318 N   0  0  0  0  0  0  0  0  0  0  0  0
    7.1584    6.4173    1.2849 N   0  0  0  0  0  0  0  0  0  0  0  0
    8.1286    8.3705    0.9381 C   0  0  0  0  0  0  0  0  0  0  0  0
    6.9764    7.6200    0.7311 C   0  0  0  0  0  0  0  0  0  0  0  0
    6.0720    7.8898    0.2247 H   0  0  0  0  0  0  0  0  0  0  0  0
   10.2139    7.7841    2.1557 C   0  0  0  0  0  0  0  0  0  0  0  0
   11.1384    8.4904    1.3944 C   0  0  0  0  0  0  0  0  0  0  0  0
   10.8962    8.7836    0.3801 H   0  0  0  0  0  0  0  0  0  0  0  0
   12.3846    8.7703    1.9278 C   0  0  0  0  0  0  0  0  0  0  0  0
   13.1027    9.3229    1.3418 H   0  0  0  0  0  0  0  0  0  0  0  0
   12.7010    8.3539    3.2094 C   0  0  0  0  0  0  0  0  0  0  0  0
   13.6655    8.5936    3.6285 H   0  0  0  0  0  0  0  0  0  0  0  0
   11.7818    7.6321    3.9542 C   0  0  0  0  0  0  0  0  0  0  0  0
   12.0314    7.3061    4.9520 H   0  0  0  0  0  0  0  0  0  0  0  0
   10.5365    7.3389    3.4315 C   0  0  0  0  0  0  0  0  0  0  0  0
    9.8042    6.7823    3.9953 H   0  0  0  0  0  0  0  0  0  0  0  0
    6.7944   10.7284    0.4379 C   0  0  0  0  0  0  0  0  0  0  0  0
    6.0949   11.0323    1.6034 C   0  0  0  0  0  0  0  0  0  0  0  0
    6.5833   10.9070    2.5623 H   0  0  0  0  0  0  0  0  0  0  0  0
    4.7951   11.4940    1.5271 C   0  0  0  0  0  0  0  0  0  0  0  0
    4.2516   11.7261    2.4304 H   0  0  0  0  0  0  0  0  0  0  0  0
    4.1954   11.6652    0.2888 C   0  0  0  0  0  0  0  0  0  0  0  0
    3.1812   12.0303    0.2282 H   0  0  0  0  0  0  0  0  0  0  0  0
    4.8950   11.3758   -0.8713 C   0  0  0  0  0  0  0  0  0  0  0  0
    4.4268   11.5150   -1.8344 H   0  0  0  0  0  0  0  0  0  0  0  0
    6.1953   10.9072   -0.8038 C   0  0  0  0  0  0  0  0  0  0  0  0
    6.7422   10.6825   -1.7091 H   0  0  0  0  0  0  0  0  0  0  0  0
    9.1890   10.1733   -1.0165 C   0  0  0  0  0  0  0  0  0  0  0  0
    9.1180    9.1157   -1.9179 C   0  0  0  0  0  0  0  0  0  0  0  0
    8.6240    8.1949   -1.6371 H   0  0  0  0  0  0  0  0  0  0  0  0
    9.6833    9.2512   -3.1733 C   0  0  0  0  0  0  0  0  0  0  0  0
    9.6310    8.4317   -3.8744 H   0  0  0  0  0  0  0  0  0  0  0  0
   10.3141   10.4325   -3.5300 C   0  0  0  0  0  0  0  0  0  0  0  0
   10.7544   10.5310   -4.5108 H   0  0  0  0  0  0  0  0  0  0  0  0
   10.3864   11.4859   -2.6314 C   0  0  0  0  0  0  0  0  0  0  0  0
   10.8825   12.4034   -2.9095 H   0  0  0  0  0  0  0  0  0  0  0  0
    9.8297   11.3567   -1.3728 C   0  0  0  0  0  0  0  0  0  0  0  0
    9.8891   12.1627   -0.6520 H   0  0  0  0  0  0  0  0  0  0  0  0
  1  2  1  0  0  0  0
  3  7  1  0  0  0  0
  3  1  1  0  0  0  0
  4  5  1  0  0  0  0
  4 10  1  0  0  0  0
  6  5  2  0  0  0  0
  7  4  1  0  0  0  0
  8  7  2  0  0  0  0
  8  6  1  0  0  0  0
  9  8  1  0  0  0  0
 10 19  1  0  0  0  0
 11 13  1  0  0  0  0
 11 10  2  0  0  0  0
 12 11  1  0  0  0  0
 13 15  2  0  0  0  0
 14 13  1  0  0  0  0
 15 16  1  0  0  0  0
 15 17  1  0  0  0  0
 17 18  1  0  0  0  0
 19 17  2  0  0  0  0
 19 20  1  0  0  0  0
 21  3  1  0  0  0  0
 21 22  1  0  0  0  0
 22 23  1  0  0  0  0
 24 22  2  0  0  0  0
 24 25  1  0  0  0  0
 26 24  1  0  0  0  0
 27 26  1  0  0  0  0
 28 30  1  0  0  0  0
 28 26  2  0  0  0  0
 29 28  1  0  0  0  0
 30 21  2  0  0  0  0
 31 30  1  0  0  0  0
 32  3  1  0  0  0  0
 33 34  1  0  0  0  0
 33 32  2  0  0  0  0
 35 33  1  0  0  0  0
 36 35  1  0  0  0  0
 37 35  2  0  0  0  0
 37 39  1  0  0  0  0
 38 37  1  0  0  0  0
 39 41  2  0  0  0  0
 40 39  1  0  0  0  0
 41 32  1  0  0  0  0
 41 42  1  0  0  0  0
M  END
$$$$
