CSD_code = CORQUW | q = 0 | S = 0 | Stoichiometry = C17H19Cl3NPSZn | MND = 4
 OpenBabel04212202023D

 43 45  0  0  1  0  0  0  0  0999 V2000
   -3.7115    7.5684   10.2954 Zn  0  0  0  0  0  0  0  0  0  0  0  0
   -1.8724    7.3764   11.6137 N   0  0  0  0  0  0  0  0  0  0  0  0
   -3.4631    5.7040    8.9786 Cl  0  0  0  0  0  0  0  0  0  0  0  0
   -3.4756    9.7040    9.7818 Cl  0  0  0  0  0  0  0  0  0  0  0  0
   -4.9921    6.9220   12.1039 Cl  0  0  0  0  0  0  0  0  0  0  0  0
   -2.3872    3.9306   12.8528 P   0  0  0  0  0  4  0  0  0  0  0  0
   -0.1352    6.5038   13.3193 S   0  0  0  0  0  0  0  0  0  0  0  0
   -1.6508    4.9629   11.5353 C   0  0  0  0  0  0  0  0  0  0  0  0
   -0.7407    4.4658   11.1849 H   0  0  0  0  0  0  0  0  0  0  0  0
   -2.3642    5.0425   10.6894 H   0  0  0  0  0  0  0  0  0  0  0  0
   -1.3324    6.3192   12.0326 C   0  0  1  0  0  3  0  0  0  0  0  0
   -1.4677    8.5899   12.2571 C   0  0  0  0  0  0  0  0  0  0  0  0
   -2.3464    8.9967   12.7668 H   0  0  0  0  0  0  0  0  0  0  0  0
   -1.1838    9.3088   11.4853 H   0  0  0  0  0  0  0  0  0  0  0  0
   -0.3147    8.3162   13.2429 C   0  0  0  0  0  0  0  0  0  0  0  0
   -0.5239    8.6852   14.2446 H   0  0  0  0  0  0  0  0  0  0  0  0
    0.6332    8.7272   12.8981 H   0  0  0  0  0  0  0  0  0  0  0  0
   -3.2693    4.9465   14.0450 C   0  0  0  0  0  0  0  0  0  0  0  0
   -3.9572    5.6071   13.4844 H   0  0  0  0  0  0  0  0  0  0  0  0
   -2.5662    5.5508   14.6170 H   0  0  0  0  0  0  0  0  0  0  0  0
   -3.8443    4.2998   14.7074 H   0  0  0  0  0  0  0  0  0  0  0  0
   -3.5529    2.8174   12.0522 C   0  0  0  0  0  0  0  0  0  0  0  0
   -4.6322    3.4093   11.3989 C   0  0  0  0  0  0  0  0  0  0  0  0
   -4.7479    4.4842   11.3957 H   0  0  0  0  0  0  0  0  0  0  0  0
   -5.5546    2.6031   10.7589 C   0  0  0  0  0  0  0  0  0  0  0  0
   -6.3868    3.0551   10.2428 H   0  0  0  0  0  0  0  0  0  0  0  0
   -5.4068    1.2246   10.7756 C   0  0  0  0  0  0  0  0  0  0  0  0
   -6.1267    0.5992   10.2694 H   0  0  0  0  0  0  0  0  0  0  0  0
   -4.3410    0.6419   11.4431 C   0  0  0  0  0  0  0  0  0  0  0  0
   -4.2343   -0.4325   11.4614 H   0  0  0  0  0  0  0  0  0  0  0  0
   -3.4074    1.4348   12.0862 C   0  0  0  0  0  0  0  0  0  0  0  0
   -2.5757    0.9850   12.6108 H   0  0  0  0  0  0  0  0  0  0  0  0
   -1.0482    3.0018   13.6327 C   0  0  0  0  0  0  0  0  0  0  0  0
   -0.2116    2.2413   12.8173 C   0  0  0  0  0  0  0  0  0  0  0  0
   -0.3846    2.2103   11.7495 H   0  0  0  0  0  0  0  0  0  0  0  0
    0.8276    1.5236   13.3778 C   0  0  0  0  0  0  0  0  0  0  0  0
    1.4755    0.9336   12.7476 H   0  0  0  0  0  0  0  0  0  0  0  0
    1.0372    1.5636   14.7481 C   0  0  0  0  0  0  0  0  0  0  0  0
    1.8522    1.0060   15.1835 H   0  0  0  0  0  0  0  0  0  0  0  0
    0.2035    2.3158   15.5590 C   0  0  0  0  0  0  0  0  0  0  0  0
    0.3683    2.3439   16.6252 H   0  0  0  0  0  0  0  0  0  0  0  0
   -0.8424    3.0346   15.0066 C   0  0  0  0  0  0  0  0  0  0  0  0
   -1.4923    3.6185   15.6404 H   0  0  0  0  0  0  0  0  0  0  0  0
  1  2  1  0  0  0  0
  1  5  1  0  0  0  0
  2 11  1  0  0  0  0
  2 12  1  0  0  0  0
  3  1  1  0  0  0  0
  4  1  1  0  0  0  0
  6 33  1  0  0  0  0
  6 18  1  0  0  0  0
  8  6  1  0  0  0  0
  9  8  1  0  0  0  0
 10  8  1  0  0  0  0
 11  8  1  1  0  0  0
 11  7  1  0  0  0  0
 12 13  1  0  0  0  0
 12 15  1  0  0  0  0
 14 12  1  0  0  0  0
 15  7  1  0  0  0  0
 15 16  1  0  0  0  0
 17 15  1  0  0  0  0
 18 20  1  0  0  0  0
 18 21  1  0  0  0  0
 19 18  1  0  0  0  0
 22 31  1  0  0  0  0
 22  6  1  0  0  0  0
 23 22  2  0  0  0  0
 24 23  1  0  0  0  0
 25 27  2  0  0  0  0
 25 23  1  0  0  0  0
 26 25  1  0  0  0  0
 27 29  1  0  0  0  0
 28 27  1  0  0  0  0
 29 30  1  0  0  0  0
 29 31  2  0  0  0  0
 31 32  1  0  0  0  0
 33 42  1  0  0  0  0
 34 36  1  0  0  0  0
 34 33  2  0  0  0  0
 35 34  1  0  0  0  0
 36 38  2  0  0  0  0
 37 36  1  0  0  0  0
 38 39  1  0  0  0  0
 38 40  1  0  0  0  0
 40 41  1  0  0  0  0
 42 40  2  0  0  0  0
 42 43  1  0  0  0  0
M  END
$$$$
