CSD_code = CORRAF | q = 0 | S = 0 | Stoichiometry = C17H26CuIN6 | MND = 3
 OpenBabel04212202023D

 51 54  0  0  1  0  0  0  0  0999 V2000
    6.2339    0.8331    5.8130 I   0  0  0  0  0  0  0  0  0  0  0  0
    6.3153   -3.3518    7.1828 C   0  0  0  0  0  3  0  0  0  0  0  0
    5.0903   -2.9297    7.2641 N   0  0  0  0  0  0  0  0  0  0  0  0
    4.8250   -1.0620    6.5921 Cu  0  0  0  0  0  0  0  0  0  0  0  0
    8.6237   -3.3203    7.3665 C   0  0  0  0  0  0  0  0  0  0  0  0
    9.0359   -3.6229    8.3391 H   0  0  0  0  0  0  0  0  0  0  0  0
    9.3594   -2.6897    6.8600 H   0  0  0  0  0  0  0  0  0  0  0  0
    6.7540   -4.5634    6.6951 N   0  0  0  0  0  0  0  0  0  0  0  0
    8.1977   -4.5273    6.5304 C   0  0  0  0  0  0  0  0  0  0  0  0
    8.4564   -4.3915    5.4715 H   0  0  0  0  0  0  0  0  0  0  0  0
    8.6399   -5.4646    6.8778 H   0  0  0  0  0  0  0  0  0  0  0  0
    2.9146   -1.2779    6.0831 N   0  0  2  0  0  0  0  0  0  0  0  0
    7.3356   -1.5172    8.4882 C   0  0  0  0  0  0  0  0  0  0  0  0
    7.9796   -0.7071    8.1457 H   0  0  0  0  0  0  0  0  0  0  0  0
    7.6642   -1.8459    9.4806 H   0  0  0  0  0  0  0  0  0  0  0  0
    6.3117   -1.1529    8.5525 H   0  0  0  0  0  0  0  0  0  0  0  0
    2.4781    0.9770    6.2204 N   0  0  0  0  0  0  0  0  0  0  0  0
    6.0226   -5.3354    5.7229 C   0  0  0  0  0  0  0  0  0  0  0  0
    6.3914   -6.3612    5.7469 H   0  0  0  0  0  0  0  0  0  0  0  0
    6.1560   -4.9365    4.7090 H   0  0  0  0  0  0  0  0  0  0  0  0
    4.9633   -5.3387    5.9676 H   0  0  0  0  0  0  0  0  0  0  0  0
    1.8722    0.0021    4.2998 N   0  0  0  0  0  0  0  0  0  0  0  0
    4.0384   -4.7540    8.4056 C   0  0  0  0  0  0  0  0  0  0  0  0
    4.9506   -4.8683    8.9751 H   0  0  0  0  0  0  0  0  0  0  0  0
    2.9459   -5.5529    8.6677 C   0  0  0  0  0  0  0  0  0  0  0  0
    3.0038   -6.3030    9.4431 H   0  0  0  0  0  0  0  0  0  0  0  0
    1.7270   -4.4182    6.9537 C   0  0  0  0  0  0  0  0  0  0  0  0
    0.8173   -4.2899    6.3829 H   0  0  0  0  0  0  0  0  0  0  0  0
    1.7788   -5.3857    7.9417 C   0  0  0  0  0  0  0  0  0  0  0  0
    0.9156   -6.0021    8.1427 H   0  0  0  0  0  0  0  0  0  0  0  0
    2.8162   -3.6119    6.6640 C   0  0  0  0  0  0  0  0  0  0  0  0
    2.7192   -2.6023    5.5459 C   0  0  0  0  0  0  0  0  0  0  0  0
    3.4873   -2.8382    4.7883 H   0  0  0  0  0  0  0  0  0  0  0  0
    1.7299   -2.6935    5.0786 H   0  0  0  0  0  0  0  0  0  0  0  0
    2.4637   -0.1994    5.5396 C   0  0  0  0  0  3  0  0  0  0  0  0
    1.7898    2.0238    5.5114 C   0  0  0  0  0  0  0  0  0  0  0  0
    2.3762    2.9469    5.5244 H   0  0  0  0  0  0  0  0  0  0  0  0
    0.8104    2.2237    5.9707 H   0  0  0  0  0  0  0  0  0  0  0  0
    2.7340    1.1097    7.6240 C   0  0  0  0  0  0  0  0  0  0  0  0
    3.4427    1.9234    7.7912 H   0  0  0  0  0  0  0  0  0  0  0  0
    3.1611    0.1771    7.9890 H   0  0  0  0  0  0  0  0  0  0  0  0
    1.8097    1.3204    8.1735 H   0  0  0  0  0  0  0  0  0  0  0  0
    1.6532    1.4323    4.1110 C   0  0  0  0  0  0  0  0  0  0  0  0
    0.6675    1.6021    3.6702 H   0  0  0  0  0  0  0  0  0  0  0  0
    2.4163    1.8443    3.4383 H   0  0  0  0  0  0  0  0  0  0  0  0
    2.3412   -0.6627    3.1026 C   0  0  0  0  0  0  0  0  0  0  0  0
    1.6800   -0.3799    2.2832 H   0  0  0  0  0  0  0  0  0  0  0  0
    2.3058   -1.7416    3.2119 H   0  0  0  0  0  0  0  0  0  0  0  0
    3.3652   -0.3627    2.8472 H   0  0  0  0  0  0  0  0  0  0  0  0
    3.9967   -3.7737    7.4071 C   0  0  0  0  0  0  0  0  0  0  0  0
    7.3839   -2.6022    7.5489 N   0  0  0  0  0  0  0  0  0  0  0  0
  1  4  1  0  0  0  0
  2  3  1  0  0  0  0
  2 51  1  0  0  0  0
  3 50  1  0  0  0  0
  4  3  1  0  0  0  0
  5 51  1  0  0  0  0
  5  6  1  0  0  0  0
  7  5  1  0  0  0  0
  8  2  1  0  0  0  0
  9  8  1  0  0  0  0
  9 11  1  0  0  0  0
  9  5  1  0  0  0  0
 10  9  1  0  0  0  0
 12 35  1  6  0  0  0
 12  4  1  0  0  0  0
 13 16  1  0  0  0  0
 13 15  1  0  0  0  0
 14 13  1  0  0  0  0
 17 39  1  0  0  0  0
 18 19  1  0  0  0  0
 18 21  1  0  0  0  0
 18  8  1  0  0  0  0
 20 18  1  0  0  0  0
 22 35  1  0  0  0  0
 23 25  1  0  0  0  0
 23 24  1  0  0  0  0
 25 26  1  0  0  0  0
 27 29  1  0  0  0  0
 28 27  1  0  0  0  0
 29 30  1  0  0  0  0
 29 25  2  0  0  0  0
 31 27  2  0  0  0  0
 31 50  1  0  0  0  0
 32 12  1  0  0  0  0
 32 31  1  0  0  0  0
 33 32  1  0  0  0  0
 34 32  1  0  0  0  0
 35 17  1  0  0  0  0
 36 37  1  0  0  0  0
 36 38  1  0  0  0  0
 36 17  1  0  0  0  0
 39 40  1  0  0  0  0
 39 41  1  0  0  0  0
 39 42  1  0  0  0  0
 43 22  1  0  0  0  0
 43 36  1  0  0  0  0
 44 43  1  0  0  0  0
 45 43  1  0  0  0  0
 46 48  1  0  0  0  0
 46 22  1  0  0  0  0
 47 46  1  0  0  0  0
 49 46  1  0  0  0  0
 50 23  2  0  0  0  0
 51 13  1  0  0  0  0
M  END
$$$$
