CSD_code = CORRIM | q = 0 | S = 0 | Stoichiometry = C14H21BrCoN5O4 | MND = 6
 OpenBabel04212202023D

 46 48  0  0  0  0  0  0  0  0999 V2000
    2.1088    5.5798    3.8877 C   0  0  0  0  0  0  0  0  0  0  0  0
    2.3537    6.8957    4.4128 C   0  0  0  0  0  0  0  0  0  0  0  0
    7.0281    6.9779    2.0465 C   0  0  0  0  0  0  0  0  0  0  0  0
    6.7800    5.6503    1.5148 C   0  0  0  0  0  0  0  0  0  0  0  0
    0.8228    4.8447    4.0714 C   0  0  0  0  0  0  0  0  0  0  0  0
    0.9020    3.8724    3.5903 H   0  0  0  0  0  0  0  0  0  0  0  0
    0.0052    5.4030    3.6187 H   0  0  0  0  0  0  0  0  0  0  0  0
    0.6038    4.7086    5.1297 H   0  0  0  0  0  0  0  0  0  0  0  0
    1.3492    7.6698    5.2001 C   0  0  0  0  0  0  0  0  0  0  0  0
    1.7839    8.6267    5.4800 H   0  0  0  0  0  0  0  0  0  0  0  0
    1.0617    7.1260    6.0992 H   0  0  0  0  0  0  0  0  0  0  0  0
    0.4569    7.8425    4.6010 H   0  0  0  0  0  0  0  0  0  0  0  0
    8.2258    7.7697    1.6451 C   0  0  0  0  0  0  0  0  0  0  0  0
    8.2244    8.7206    2.1715 H   0  0  0  0  0  0  0  0  0  0  0  0
    8.2011    7.9577    0.5730 H   0  0  0  0  0  0  0  0  0  0  0  0
    9.1407    7.2271    1.8772 H   0  0  0  0  0  0  0  0  0  0  0  0
    7.7085    5.0133    0.5377 C   0  0  0  0  0  0  0  0  0  0  0  0
    7.3459    4.0195    0.2883 H   0  0  0  0  0  0  0  0  0  0  0  0
    8.7125    4.9408    0.9522 H   0  0  0  0  0  0  0  0  0  0  0  0
    7.7548    5.6121   -0.3705 H   0  0  0  0  0  0  0  0  0  0  0  0
    5.4785    4.0960    4.8751 C   0  0  0  0  0  3  0  0  0  0  0  0
    5.0556    3.4778    4.0949 H   0  0  0  0  0  0  0  0  0  0  0  0
    6.0732    3.5031    5.9695 C   0  0  0  0  0  0  0  0  0  0  0  0
    6.1249    2.4270    6.0267 H   0  0  0  0  0  0  0  0  0  0  0  0
    6.5961    4.2927    6.9907 C   0  0  0  0  0  0  0  0  0  0  0  0
    6.4723    5.6689    6.8382 C   0  0  0  0  0  0  0  0  0  0  0  0
    6.8453    6.3436    7.5928 H   0  0  0  0  0  0  0  0  0  0  0  0
    5.8629    6.1861    5.7115 C   0  0  0  0  0  0  0  0  0  0  0  0
    5.7517    7.2570    5.6080 H   0  0  0  0  0  0  0  0  0  0  0  0
    7.2431    3.6803    8.1864 C   0  0  0  0  0  0  0  0  0  0  0  0
    7.6073    4.4427    8.8693 H   0  0  0  0  0  0  0  0  0  0  0  0
    8.0777    3.0508    7.8810 H   0  0  0  0  0  0  0  0  0  0  0  0
    6.5304    3.0471    8.7132 H   0  0  0  0  0  0  0  0  0  0  0  0
    3.1271    5.0770    3.2612 N   0  0  0  0  0  0  0  0  0  0  0  0
    3.5475    7.3367    4.1625 N   0  0  0  0  0  0  0  0  0  0  0  0
    6.1222    7.4033    2.8587 N   0  0  0  0  0  0  0  0  0  0  0  0
    5.6934    5.1020    1.9390 N   0  0  0  0  0  0  0  0  0  0  0  0
    5.3748    5.4197    4.7354 N   0  0  0  0  0  0  0  0  0  0  0  0
    4.0238    8.4442    4.6160 O   0  0  0  0  0  1  0  0  0  0  0  0
    3.1743    3.8777    2.7941 O   0  0  0  0  0  1  0  0  0  0  0  0
    5.3614    3.8647    1.5135 O   0  0  0  0  0  0  0  0  0  0  0  0
    6.2497    8.6249    3.4187 O   0  0  0  0  0  0  0  0  0  0  0  0
    4.5855    6.2160    3.1072 Co  0  0  0  0  0  0  0  0  0  0  0  0
    3.5952    7.1733    1.1732 Br  0  0  0  0  0  0  0  0  0  0  0  0
    4.4127    3.7138    1.9153 H   0  0  0  0  0  0  0  0  0  0  0  0
    5.3524    8.7543    3.9312 H   0  0  0  0  0  0  0  0  0  0  0  0
  1  5  1  0  0  0  0
  1  2  2  0  0  0  0
  2  9  1  0  0  0  0
  3 36  1  0  0  0  0
  4 37  1  0  0  0  0
  4  3  2  0  0  0  0
  5  8  1  0  0  0  0
  6  5  1  0  0  0  0
  7  5  1  0  0  0  0
  9 10  1  0  0  0  0
  9 11  1  0  0  0  0
 12  9  1  0  0  0  0
 13 16  1  0  0  0  0
 13  3  1  0  0  0  0
 13 14  1  0  0  0  0
 15 13  1  0  0  0  0
 17 19  1  0  0  0  0
 17  4  1  0  0  0  0
 18 17  1  0  0  0  0
 20 17  1  0  0  0  0
 21 23  1  0  0  0  0
 22 21  1  0  0  0  0
 23 24  1  0  0  0  0
 23 25  2  0  0  0  0
 25 30  1  0  0  0  0
 26 25  1  0  0  0  0
 26 27  1  0  0  0  0
 28 26  2  0  0  0  0
 29 28  1  0  0  0  0
 30 33  1  0  0  0  0
 30 31  1  0  0  0  0
 32 30  1  0  0  0  0
 34  1  1  0  0  0  0
 35  2  1  0  0  0  0
 35 39  1  0  0  0  0
 36 43  1  0  0  0  0
 36 42  1  0  0  0  0
 37 43  1  0  0  0  0
 38 21  1  0  0  0  0
 38 28  1  0  0  0  0
 40 34  1  0  0  0  0
 41 45  1  0  0  0  0
 41 37  1  0  0  0  0
 42 46  1  0  0  0  0
 43 34  1  0  0  0  0
 43 35  1  0  0  0  0
 43 38  1  0  0  0  0
 44 43  1  0  0  0  0
M  END
$$$$
