CSD_code = CORRIN | q = 0 | S = 0 | Stoichiometry = C17H26ClCuN6 | MND = 3
 OpenBabel04212202023D

 51 54  0  0  1  0  0  0  0  0999 V2000
    0.9739    3.9664    1.6383 C   0  0  0  0  0  0  0  0  0  0  0  0
   -0.1083    3.7826    1.6887 H   0  0  0  0  0  0  0  0  0  0  0  0
    1.4940    3.0500    1.9290 H   0  0  0  0  0  0  0  0  0  0  0  0
    0.8090   10.2089    2.9685 N   0  0  2  0  0  0  0  0  0  0  0  0
    1.3436    5.0553    2.5264 N   0  0  0  0  0  0  0  0  0  0  0  0
    1.3886    4.4764    0.2599 C   0  0  0  0  0  0  0  0  0  0  0  0
    2.3535    4.0553   -0.0549 H   0  0  0  0  0  0  0  0  0  0  0  0
    0.6480    4.2606   -0.5147 H   0  0  0  0  0  0  0  0  0  0  0  0
    1.5036    5.9024    0.4688 N   0  0  0  0  0  0  0  0  0  0  0  0
    2.0300    6.7214   -0.5864 C   0  0  0  0  0  0  0  0  0  0  0  0
    1.8078    7.7709   -0.3650 H   0  0  0  0  0  0  0  0  0  0  0  0
    1.5395    6.4505   -1.5198 H   0  0  0  0  0  0  0  0  0  0  0  0
    3.1129    6.6013   -0.6942 H   0  0  0  0  0  0  0  0  0  0  0  0
    1.7954    7.3930    2.2500 N   0  0  0  0  0  0  0  0  0  0  0  0
    1.1750    9.0671    1.3356 Cu  0  0  0  0  0  0  0  0  0  0  0  0
    0.2285    9.8461   -0.5036 Cl  0  0  0  0  0  0  0  0  0  0  0  0
    1.5649    6.2029    1.7904 C   0  0  0  0  0  3  0  0  0  0  0  0
    0.7106    5.0419    3.8213 C   0  0  0  0  0  0  0  0  0  0  0  0
    1.0487    5.8852    4.4161 H   0  0  0  0  0  0  0  0  0  0  0  0
    0.9863    4.1183    4.3318 H   0  0  0  0  0  0  0  0  0  0  0  0
   -0.3826    5.0816    3.7321 H   0  0  0  0  0  0  0  0  0  0  0  0
    0.7407   12.2790    1.9642 N   0  0  0  0  0  0  0  0  0  0  0  0
   -1.1632   11.6286    2.9333 N   0  0  0  0  0  0  0  0  0  0  0  0
    2.2704    7.6164    3.5441 C   0  0  0  0  0  0  0  0  0  0  0  0
    3.4373    6.9624    3.9513 C   0  0  0  0  0  0  0  0  0  0  0  0
    3.9001    6.2623    3.2703 H   0  0  0  0  0  0  0  0  0  0  0  0
    3.9962    7.2064    5.1890 C   0  0  0  0  0  0  0  0  0  0  0  0
    4.8991    6.6902    5.4809 H   0  0  0  0  0  0  0  0  0  0  0  0
    3.4016    8.1140    6.0487 C   0  0  0  0  0  0  0  0  0  0  0  0
    3.8330    8.3127    7.0180 H   0  0  0  0  0  0  0  0  0  0  0  0
    2.2495    8.7712    5.6522 C   0  0  0  0  0  0  0  0  0  0  0  0
    1.7847    9.4831    6.3198 H   0  0  0  0  0  0  0  0  0  0  0  0
    1.6670    8.5353    4.4175 C   0  0  0  0  0  0  0  0  0  0  0  0
    0.4220    9.2815    4.0099 C   0  0  0  0  0  0  0  0  0  0  0  0
   -0.3301    8.5592    3.6535 H   0  0  0  0  0  0  0  0  0  0  0  0
    0.0153    9.8159    4.8778 H   0  0  0  0  0  0  0  0  0  0  0  0
    0.1366   11.2588    2.6324 C   0  0  0  0  0  3  0  0  0  0  0  0
   -2.2331   10.6591    3.0104 C   0  0  0  0  0  0  0  0  0  0  0  0
   -3.1535   11.1882    3.2555 H   0  0  0  0  0  0  0  0  0  0  0  0
   -2.0391    9.9354    3.7976 H   0  0  0  0  0  0  0  0  0  0  0  0
   -2.3685   10.1260    2.0614 H   0  0  0  0  0  0  0  0  0  0  0  0
   -1.4781   12.8659    2.2224 C   0  0  0  0  0  0  0  0  0  0  0  0
   -1.6360   13.6664    2.9544 H   0  0  0  0  0  0  0  0  0  0  0  0
   -2.3839   12.7518    1.6239 H   0  0  0  0  0  0  0  0  0  0  0  0
   -0.2489   13.1334    1.3506 C   0  0  0  0  0  0  0  0  0  0  0  0
   -0.4124   12.8399    0.3045 H   0  0  0  0  0  0  0  0  0  0  0  0
    0.0731   14.1769    1.3822 H   0  0  0  0  0  0  0  0  0  0  0  0
    2.0393   12.1525    1.3641 C   0  0  0  0  0  0  0  0  0  0  0  0
    1.9734   11.6931    0.3721 H   0  0  0  0  0  0  0  0  0  0  0  0
    2.6538   11.5265    2.0076 H   0  0  0  0  0  0  0  0  0  0  0  0
    2.4844   13.1442    1.2753 H   0  0  0  0  0  0  0  0  0  0  0  0
  1  2  1  0  0  0  0
  1  3  1  0  0  0  0
  1  5  1  0  0  0  0
  4 37  1  6  0  0  0
  4 34  1  0  0  0  0
  5 18  1  0  0  0  0
  6  9  1  0  0  0  0
  6  1  1  0  0  0  0
  7  6  1  0  0  0  0
  8  6  1  0  0  0  0
  9 17  1  0  0  0  0
 10 11  1  0  0  0  0
 10  9  1  0  0  0  0
 12 10  1  0  0  0  0
 13 10  1  0  0  0  0
 14 24  1  0  0  0  0
 15 14  1  0  0  0  0
 15  4  1  0  0  0  0
 16 15  1  0  0  0  0
 17 14  1  0  0  0  0
 17  5  1  0  0  0  0
 18 20  1  0  0  0  0
 18 19  1  0  0  0  0
 21 18  1  0  0  0  0
 22 37  1  0  0  0  0
 23 38  1  0  0  0  0
 24 25  2  0  0  0  0
 24 33  1  0  0  0  0
 25 27  1  0  0  0  0
 26 25  1  0  0  0  0
 27 28  1  0  0  0  0
 27 29  2  0  0  0  0
 29 30  1  0  0  0  0
 31 29  1  0  0  0  0
 31 32  1  0  0  0  0
 33 31  2  0  0  0  0
 34 33  1  0  0  0  0
 34 36  1  0  0  0  0
 35 34  1  0  0  0  0
 37 23  1  0  0  0  0
 38 39  1  0  0  0  0
 38 40  1  0  0  0  0
 41 38  1  0  0  0  0
 42 23  1  0  0  0  0
 42 43  1  0  0  0  0
 44 42  1  0  0  0  0
 45 47  1  0  0  0  0
 45 22  1  0  0  0  0
 45 42  1  0  0  0  0
 46 45  1  0  0  0  0
 48 22  1  0  0  0  0
 48 50  1  0  0  0  0
 49 48  1  0  0  0  0
 51 48  1  0  0  0  0
M  END
$$$$
