CSD_code = CORREJ | q = 0 | S = 0 | Stoichiometry = C17H26BrCuN6 | MND = 3
 OpenBabel04212202023D

 51 54  0  0  1  0  0  0  0  0999 V2000
    3.3408    9.7769    0.7258 Br  0  0  0  0  0  0  0  0  0  0  0  0
    2.4175   10.3030   -1.2889 Cu  0  0  0  0  0  0  0  0  0  0  0  0
    1.9834   13.3872   -0.4847 N   0  0  0  0  0  0  0  0  0  0  0  0
    2.2811   14.7819   -0.2564 C   0  0  0  0  0  0  0  0  0  0  0  0
    3.0513   14.8882    0.5128 H   0  0  0  0  0  0  0  0  0  0  0  0
    1.3802   15.3126    0.0810 H   0  0  0  0  0  0  0  0  0  0  0  0
    2.2932   14.2150   -2.5313 N   0  0  0  0  0  0  0  0  0  0  0  0
    2.7425   15.2641   -1.6318 C   0  0  0  0  0  0  0  0  0  0  0  0
    2.2985   16.2210   -1.9187 H   0  0  0  0  0  0  0  0  0  0  0  0
    3.8358   15.3617   -1.6772 H   0  0  0  0  0  0  0  0  0  0  0  0
    1.7174   11.9018   -2.2656 N   0  0  0  0  0  0  0  0  0  0  0  0
    1.2965   12.6456    0.5364 C   0  0  0  0  0  0  0  0  0  0  0  0
    1.0007   11.6781    0.1318 H   0  0  0  0  0  0  0  0  0  0  0  0
    0.4025   13.1842    0.8675 H   0  0  0  0  0  0  0  0  0  0  0  0
    1.9571   12.4821    1.3891 H   0  0  0  0  0  0  0  0  0  0  0  0
    2.7860    9.1269   -2.8753 N   0  0  1  0  0  0  0  0  0  0  0  0
    1.9701   13.0879   -1.8064 C   0  0  0  0  0  3  0  0  0  0  0  0
    2.9635    7.1684   -1.6870 N   0  0  0  0  0  0  0  0  0  0  0  0
    2.9238   14.1813   -3.8261 C   0  0  0  0  0  0  0  0  0  0  0  0
    2.4956   13.3875   -4.4324 H   0  0  0  0  0  0  0  0  0  0  0  0
    4.0071   14.0244   -3.7423 H   0  0  0  0  0  0  0  0  0  0  0  0
    2.7466   15.1362   -4.3223 H   0  0  0  0  0  0  0  0  0  0  0  0
    4.6839    7.6136   -3.0374 N   0  0  0  0  0  0  0  0  0  0  0  0
    1.2379   11.6619   -3.5499 C   0  0  0  0  0  0  0  0  0  0  0  0
    0.0821   12.3298   -3.9680 C   0  0  0  0  0  0  0  0  0  0  0  0
   -0.3548   13.0655   -3.3068 H   0  0  0  0  0  0  0  0  0  0  0  0
   -0.4957   12.0555   -5.1900 C   0  0  0  0  0  0  0  0  0  0  0  0
   -1.3881   12.5843   -5.4918 H   0  0  0  0  0  0  0  0  0  0  0  0
    0.0663   11.1012   -6.0210 C   0  0  0  0  0  0  0  0  0  0  0  0
   -0.3819   10.8759   -6.9768 H   0  0  0  0  0  0  0  0  0  0  0  0
    1.2104   10.4357   -5.6160 C   0  0  0  0  0  0  0  0  0  0  0  0
    1.6529    9.6931   -6.2656 H   0  0  0  0  0  0  0  0  0  0  0  0
    1.8146   10.7033   -4.3983 C   0  0  0  0  0  0  0  0  0  0  0  0
    3.0771    9.9760   -4.0065 C   0  0  0  0  0  0  0  0  0  0  0  0
    3.4238    9.3833   -4.8630 H   0  0  0  0  0  0  0  0  0  0  0  0
    3.8524   10.7209   -3.7562 H   0  0  0  0  0  0  0  0  0  0  0  0
    3.4616    8.0714   -2.5628 C   0  0  0  0  0  3  0  0  0  0  0  0
    1.6469    7.1820   -1.1229 C   0  0  0  0  0  0  0  0  0  0  0  0
    1.7038    7.2666   -0.0345 H   0  0  0  0  0  0  0  0  0  0  0  0
    1.1148    6.2621   -1.3842 H   0  0  0  0  0  0  0  0  0  0  0  0
    1.1065    8.0377   -1.5246 H   0  0  0  0  0  0  0  0  0  0  0  0
    5.7752    8.5115   -3.3477 C   0  0  0  0  0  0  0  0  0  0  0  0
    6.5993    7.9139   -3.7380 H   0  0  0  0  0  0  0  0  0  0  0  0
    6.1230    9.0520   -2.4581 H   0  0  0  0  0  0  0  0  0  0  0  0
    5.4864    9.2298   -4.1083 H   0  0  0  0  0  0  0  0  0  0  0  0
    5.0942    6.4552   -2.2498 C   0  0  0  0  0  0  0  0  0  0  0  0
    5.9086    6.7322   -1.5693 H   0  0  0  0  0  0  0  0  0  0  0  0
    5.4492    5.6645   -2.9166 H   0  0  0  0  0  0  0  0  0  0  0  0
    3.8438    6.0525   -1.4675 C   0  0  0  0  0  0  0  0  0  0  0  0
    3.3927    5.1286   -1.8546 H   0  0  0  0  0  0  0  0  0  0  0  0
    4.0410    5.9230   -0.3982 H   0  0  0  0  0  0  0  0  0  0  0  0
  2  1  1  0  0  0  0
  3  4  1  0  0  0  0
  3 12  1  0  0  0  0
  4  6  1  0  0  0  0
  4  5  1  0  0  0  0
  7 17  1  0  0  0  0
  7  8  1  0  0  0  0
  8  4  1  0  0  0  0
  9  8  1  0  0  0  0
 10  8  1  0  0  0  0
 11 17  1  0  0  0  0
 11  2  1  0  0  0  0
 12 14  1  0  0  0  0
 12 15  1  0  0  0  0
 13 12  1  0  0  0  0
 16 37  1  1  0  0  0
 16  2  1  0  0  0  0
 17  3  1  0  0  0  0
 18 49  1  0  0  0  0
 18 38  1  0  0  0  0
 19 21  1  0  0  0  0
 19  7  1  0  0  0  0
 20 19  1  0  0  0  0
 22 19  1  0  0  0  0
 23 37  1  0  0  0  0
 23 46  1  0  0  0  0
 24 11  1  0  0  0  0
 25 24  1  0  0  0  0
 25 26  1  0  0  0  0
 27 25  2  0  0  0  0
 28 27  1  0  0  0  0
 29 31  2  0  0  0  0
 29 27  1  0  0  0  0
 30 29  1  0  0  0  0
 31 33  1  0  0  0  0
 32 31  1  0  0  0  0
 33 34  1  0  0  0  0
 33 24  2  0  0  0  0
 34 36  1  0  0  0  0
 34 16  1  0  0  0  0
 35 34  1  0  0  0  0
 37 18  1  0  0  0  0
 38 39  1  0  0  0  0
 40 38  1  0  0  0  0
 41 38  1  0  0  0  0
 42 23  1  0  0  0  0
 42 44  1  0  0  0  0
 43 42  1  0  0  0  0
 45 42  1  0  0  0  0
 46 47  1  0  0  0  0
 46 49  1  0  0  0  0
 48 46  1  0  0  0  0
 49 51  1  0  0  0  0
 50 49  1  0  0  0  0
M  END
$$$$
