CSD_code = CORSUA | q = 0 | S = 0 | Stoichiometry = C15H24Cl2FeN4O2 | MND = 4
 OpenBabel04212202023D

 48 48  0  0  1  0  0  0  0  0999 V2000
    3.0285    2.3550    7.9927 Fe  0  0  0  0  0  0  0  0  0  0  0  0
    6.0854    0.1210    9.5218 O   0  0  0  0  0  0  0  0  0  0  0  0
    2.5399    0.4139    5.4494 C   0  0  0  0  0  3  0  0  0  0  0  0
    3.5863    0.7371    6.1535 N   0  0  0  0  0  2  0  0  0  0  0  0
    1.1436    1.7258    8.2807 Cl  0  0  0  0  0  0  0  0  0  0  0  0
    4.7789    3.3300    7.8484 Cl  0  0  0  0  0  0  0  0  0  0  0  0
    2.5752   -1.9367    6.1037 C   0  0  0  0  0  0  0  0  0  0  0  0
    1.7575   -2.6541    6.2015 H   0  0  0  0  0  0  0  0  0  0  0  0
    2.7950   -1.5203    7.0846 H   0  0  0  0  0  0  0  0  0  0  0  0
    3.4627   -2.4613    5.7312 H   0  0  0  0  0  0  0  0  0  0  0  0
    3.9759    0.5000    8.8873 O   0  0  0  0  0  0  0  0  0  0  0  0
    1.7583    1.3913    4.8986 N   0  0  0  0  0  0  0  0  0  0  0  0
    1.5796   -1.3106    3.9694 C   0  0  0  0  0  0  0  0  0  0  0  0
    0.6116   -1.7969    4.1244 H   0  0  0  0  0  0  0  0  0  0  0  0
    2.2509   -2.0331    3.4906 H   0  0  0  0  0  0  0  0  0  0  0  0
    1.4517   -0.4603    3.3052 H   0  0  0  0  0  0  0  0  0  0  0  0
    0.3123    1.3186    4.9797 C   0  0  0  0  0  0  0  0  0  0  0  0
   -0.0506    1.9801    5.7709 H   0  0  0  0  0  0  0  0  0  0  0  0
   -0.0028    0.3090    5.2198 H   0  0  0  0  0  0  0  0  0  0  0  0
   -0.1278    1.6226    4.0275 H   0  0  0  0  0  0  0  0  0  0  0  0
    2.2699    2.7413    4.9100 C   0  0  0  0  0  0  0  0  0  0  0  0
    1.7565    3.3132    4.1375 H   0  0  0  0  0  0  0  0  0  0  0  0
    3.3382    2.7257    4.7063 H   0  0  0  0  0  0  0  0  0  0  0  0
    2.1079    3.2406    5.8832 H   0  0  0  0  0  0  0  0  0  0  0  0
    8.4356   -2.0708    5.7784 N   0  0  0  0  0  0  0  0  0  0  0  0
    4.7344   -0.0274    6.1366 C   0  0  0  0  0  0  0  0  0  0  0  0
    5.2314   -0.4714    4.9016 C   0  0  0  0  0  0  0  0  0  0  0  0
    4.6454   -0.2700    4.0150 H   0  0  0  0  0  0  0  0  0  0  0  0
    6.4329   -1.1237    4.7787 C   0  0  0  0  0  0  0  0  0  0  0  0
    6.7433   -1.4358    3.7948 H   0  0  0  0  0  0  0  0  0  0  0  0
    7.2460   -1.3748    5.8983 C   0  0  0  0  0  0  0  0  0  0  0  0
    6.7724   -0.9273    7.1266 C   0  0  0  0  0  0  0  0  0  0  0  0
    7.3421   -1.0721    8.0270 H   0  0  0  0  0  0  0  0  0  0  0  0
    5.5407   -0.2792    7.2657 C   0  0  0  0  0  0  0  0  0  0  0  0
    5.1157    0.1452    8.5921 C   0  0  2  0  0  3  0  0  0  0  0  0
    5.7190    0.6196   10.7974 C   0  0  0  0  0  0  0  0  0  0  0  0
    6.6124    0.5595   11.4135 H   0  0  0  0  0  0  0  0  0  0  0  0
    4.9137    0.0204   11.2274 H   0  0  0  0  0  0  0  0  0  0  0  0
    5.3797    1.6554   10.7126 H   0  0  0  0  0  0  0  0  0  0  0  0
    9.3207   -2.1296    6.9177 C   0  0  0  0  0  0  0  0  0  0  0  0
   10.1875   -2.7369    6.6649 H   0  0  0  0  0  0  0  0  0  0  0  0
    8.8133   -2.6069    7.7568 H   0  0  0  0  0  0  0  0  0  0  0  0
    9.6686   -1.1383    7.2345 H   0  0  0  0  0  0  0  0  0  0  0  0
    9.0498   -2.1696    4.4740 C   0  0  0  0  0  0  0  0  0  0  0  0
   10.0216   -2.6481    4.5699 H   0  0  0  0  0  0  0  0  0  0  0  0
    9.1927   -1.1890    4.0039 H   0  0  0  0  0  0  0  0  0  0  0  0
    8.4395   -2.7888    3.8135 H   0  0  0  0  0  0  0  0  0  0  0  0
    2.1506   -0.8788    5.2215 N   0  0  0  0  0  0  0  0  0  0  0  0
  1  5  1  0  0  0  0
  1 11  1  0  0  0  0
  2 36  1  0  0  0  0
  3  4  1  0  0  0  0
  6  1  1  0  0  0  0
  7  8  1  0  0  0  0
  7  9  1  0  0  0  0
 10  7  1  0  0  0  0
 12 21  1  0  0  0  0
 12 17  1  0  0  0  0
 12  3  1  0  0  0  0
 13 14  1  0  0  0  0
 13 48  1  0  0  0  0
 15 13  1  0  0  0  0
 16 13  1  0  0  0  0
 17 19  1  0  0  0  0
 17 18  1  0  0  0  0
 20 17  1  0  0  0  0
 21 24  1  0  0  0  0
 22 21  1  0  0  0  0
 23 21  1  0  0  0  0
 25 31  1  0  0  0  0
 25 40  1  0  0  0  0
 26  4  1  0  0  0  0
 26 34  1  0  0  0  0
 27 26  2  0  0  0  0
 28 27  1  0  0  0  0
 29 27  1  0  0  0  0
 29 31  2  0  0  0  0
 30 29  1  0  0  0  0
 31 32  1  0  0  0  0
 32 34  2  0  0  0  0
 32 33  1  0  0  0  0
 34 35  1  0  0  0  0
 35 11  1  1  0  0  0
 35  2  1  0  0  0  0
 36 38  1  0  0  0  0
 36 37  1  0  0  0  0
 39 36  1  0  0  0  0
 40 43  1  0  0  0  0
 40 42  1  0  0  0  0
 41 40  1  0  0  0  0
 44 45  1  0  0  0  0
 44 25  1  0  0  0  0
 46 44  1  0  0  0  0
 47 44  1  0  0  0  0
 48  3  1  0  0  0  0
 48  7  1  0  0  0  0
M  END
$$$$
