CSD_code = CORSEJ | q = 0 | S = 0 | Stoichiometry = C20H24Cl2N2O4RuS3 | MND = 6
 OpenBabel04212202023D

 56 59  0  0  1  0  0  0  0  0999 V2000
    8.0585    3.6696   -0.8789 Ru  0  0  0  0  0  0  0  0  0  0  0  0
    3.1456    3.5751    0.0999 S   0  0  0  0  0  0  0  0  0  0  0  0
   10.2752    3.6649   -1.4046 S   0  0  0  0  0  0  0  0  0  0  0  0
    7.7185    5.4748   -2.1781 S   0  0  0  0  0  0  0  0  0  0  0  0
    8.5465    5.0121    0.9829 Cl  0  0  0  0  0  0  0  0  0  0  0  0
    7.6268    2.2526   -2.6891 Cl  0  0  0  0  0  0  0  0  0  0  0  0
    8.9421    1.4314    0.8930 C   0  0  0  0  0  3  0  0  0  0  0  0
    9.9098    1.6732    0.4584 H   0  0  0  0  0  0  0  0  0  0  0  0
    8.9777    0.4453    1.9662 C   0  0  0  0  0  0  0  0  0  0  0  0
   10.0701    0.5371    2.8874 C   0  0  0  0  0  0  0  0  0  0  0  0
   10.2591   -0.4790    3.8601 C   0  0  0  0  0  0  0  0  0  0  0  0
    9.3621   -1.5653    3.9060 C   0  0  0  0  0  0  0  0  0  0  0  0
    9.5179   -2.3460    4.6353 H   0  0  0  0  0  0  0  0  0  0  0  0
    8.3058   -1.6282    3.0453 C   0  0  0  0  0  0  0  0  0  0  0  0
    7.6139   -2.4599    3.0805 H   0  0  0  0  0  0  0  0  0  0  0  0
    8.1031   -0.6251    2.0837 C   0  0  0  0  0  0  0  0  0  0  0  0
   10.9513    1.6384    2.8921 C   0  0  0  0  0  0  0  0  0  0  0  0
   10.8038    2.4459    2.1934 H   0  0  0  0  0  0  0  0  0  0  0  0
   11.9842    1.7045    3.7882 C   0  0  0  0  0  0  0  0  0  0  0  0
   12.6492    2.5546    3.7768 H   0  0  0  0  0  0  0  0  0  0  0  0
   12.1855    0.6857    4.7293 C   0  0  0  0  0  0  0  0  0  0  0  0
   13.0070    0.7558    5.4267 H   0  0  0  0  0  0  0  0  0  0  0  0
   11.3349   -0.3829    4.7665 C   0  0  0  0  0  0  0  0  0  0  0  0
   11.4661   -1.1693    5.4958 H   0  0  0  0  0  0  0  0  0  0  0  0
    5.7260    2.7478    0.3402 C   0  0  2  0  0  3  0  0  0  0  0  0
    4.3591    2.5186    0.7452 C   0  0  0  0  0  0  0  0  0  0  0  0
    3.8104    1.5719    1.5784 C   0  0  0  0  0  0  0  0  0  0  0  0
    4.3791    0.8174    2.0907 H   0  0  0  0  0  0  0  0  0  0  0  0
    2.4179    1.7016    1.6939 C   0  0  0  0  0  0  0  0  0  0  0  0
    1.8058    1.0575    2.2989 H   0  0  0  0  0  0  0  0  0  0  0  0
    1.9243    2.7350    0.9539 C   0  0  0  0  0  0  0  0  0  0  0  0
    0.9035    3.0491    0.8645 H   0  0  0  0  0  0  0  0  0  0  0  0
   10.6361    3.5133   -3.1725 C   0  0  0  0  0  0  0  0  0  0  0  0
   11.7117    3.4622   -3.2927 H   0  0  0  0  0  0  0  0  0  0  0  0
   10.2090    4.3784   -3.6672 H   0  0  0  0  0  0  0  0  0  0  0  0
   10.1635    2.6009   -3.5227 H   0  0  0  0  0  0  0  0  0  0  0  0
   11.1251    5.2341   -1.0849 C   0  0  0  0  0  0  0  0  0  0  0  0
   12.1809    5.0831   -1.2763 H   0  0  0  0  0  0  0  0  0  0  0  0
   10.9538    5.4884   -0.0435 H   0  0  0  0  0  0  0  0  0  0  0  0
   10.6939    5.9833   -1.7386 H   0  0  0  0  0  0  0  0  0  0  0  0
    6.9862    6.8474   -1.2447 C   0  0  0  0  0  0  0  0  0  0  0  0
    6.7539    7.6575   -1.9260 H   0  0  0  0  0  0  0  0  0  0  0  0
    7.7145    7.1605   -0.5031 H   0  0  0  0  0  0  0  0  0  0  0  0
    6.1011    6.4625   -0.7496 H   0  0  0  0  0  0  0  0  0  0  0  0
    6.3417    5.2037   -3.3264 C   0  0  0  0  0  0  0  0  0  0  0  0
    6.1624    6.1144   -3.8856 H   0  0  0  0  0  0  0  0  0  0  0  0
    5.4814    4.9095   -2.7350 H   0  0  0  0  0  0  0  0  0  0  0  0
    6.6308    4.3917   -3.9867 H   0  0  0  0  0  0  0  0  0  0  0  0
    7.9746    2.0986    0.3817 N   0  0  0  0  0  0  0  0  0  0  0  0
    6.6908    1.9286    0.8244 N   0  0  0  0  0  0  0  0  0  0  0  0
    6.4687    1.0732    1.3266 H   0  0  0  0  0  0  0  0  0  0  0  0
    6.0181    3.6900   -0.4169 O   0  0  0  0  0  0  0  0  0  0  0  0
    7.0297   -0.7240    1.2324 O   0  0  0  0  0  0  0  0  0  0  0  0
    6.6522   -1.6106    1.2815 H   0  0  0  0  0  0  0  0  0  0  0  0
   11.0806    2.6441   -0.7392 O   0  0  0  0  0  1  0  0  0  0  0  0
    8.8170    6.0353   -2.9612 O   0  0  0  0  0  1  0  0  0  0  0  0
  1 52  1  0  0  0  0
  1 49  1  0  0  0  0
  1  5  1  0  0  0  0
  2 26  1  0  0  0  0
  2 31  1  0  0  0  0
  3 37  1  0  0  0  0
  3  1  1  0  0  0  0
  3 55  1  0  0  0  0
  4 41  1  0  0  0  0
  4  1  1  0  0  0  0
  6  1  1  0  0  0  0
  7  9  1  0  0  0  0
  8  7  1  0  0  0  0
  9 16  2  0  0  0  0
  9 10  1  0  0  0  0
 10 17  2  0  0  0  0
 10 11  1  0  0  0  0
 11 12  1  0  0  0  0
 11 23  2  0  0  0  0
 12 13  1  0  0  0  0
 14 15  1  0  0  0  0
 14 12  2  0  0  0  0
 16 14  1  0  0  0  0
 17 19  1  0  0  0  0
 18 17  1  0  0  0  0
 19 21  2  0  0  0  0
 20 19  1  0  0  0  0
 21 23  1  0  0  0  0
 21 22  1  0  0  0  0
 23 24  1  0  0  0  0
 25 26  1  1  0  0  0
 25 50  1  0  0  0  0
 26 27  2  0  0  0  0
 27 29  1  0  0  0  0
 27 28  1  0  0  0  0
 29 30  1  0  0  0  0
 31 29  2  0  0  0  0
 32 31  1  0  0  0  0
 33  3  1  0  0  0  0
 34 33  1  0  0  0  0
 35 33  1  0  0  0  0
 36 33  1  0  0  0  0
 37 39  1  0  0  0  0
 38 37  1  0  0  0  0
 40 37  1  0  0  0  0
 41 44  1  0  0  0  0
 41 43  1  0  0  0  0
 42 41  1  0  0  0  0
 45 47  1  0  0  0  0
 45  4  1  0  0  0  0
 46 45  1  0  0  0  0
 48 45  1  0  0  0  0
 49 50  1  0  0  0  0
 49  7  1  0  0  0  0
 50 51  1  0  0  0  0
 52 25  1  0  0  0  0
 53 54  1  0  0  0  0
 53 16  1  0  0  0  0
 56  4  1  0  0  0  0
M  END
$$$$
