CSD_code = CORTOV | q = 0 | S = 0 | Stoichiometry = C20H44ClN2P2Re | MND = 5
 OpenBabel04212202023D

 70 71  0  0  0  0  0  0  0  0999 V2000
    5.7420    4.8778   16.7430 Re  0  0  0  0  0  0  0  0  0  0  0  0
    6.3128    3.1670   18.2682 Cl  0  0  0  0  0  0  0  0  0  0  0  0
    7.7109    6.1878   17.2696 P   0  0  0  0  0  4  0  0  0  0  0  0
    4.2857    3.4397   15.4508 P   0  0  0  0  0  4  0  0  0  0  0  0
    4.5548    5.7726   17.6292 N   0  0  0  0  0  1  0  0  0  0  0  0
    6.0024    5.7489   14.9454 N   0  0  0  0  0  0  0  0  0  0  0  0
    8.0048    7.0113   15.6385 C   0  0  0  0  0  0  0  0  0  0  0  0
    8.3924    8.0240   15.7642 H   0  0  0  0  0  0  0  0  0  0  0  0
    8.7504    6.4233   15.0986 H   0  0  0  0  0  0  0  0  0  0  0  0
    6.7102    7.0098   14.8199 C   0  0  0  0  0  0  0  0  0  0  0  0
    6.0598    7.8456   15.1273 H   0  0  0  0  0  0  0  0  0  0  0  0
    6.9705    7.1806   13.7617 H   0  0  0  0  0  0  0  0  0  0  0  0
    5.0095    5.6179   13.8952 C   0  0  0  0  0  0  0  0  0  0  0  0
    5.4555    5.9150   12.9309 H   0  0  0  0  0  0  0  0  0  0  0  0
    4.1649    6.3024   14.0797 H   0  0  0  0  0  0  0  0  0  0  0  0
    4.5101    4.1756   13.7677 C   0  0  0  0  0  0  0  0  0  0  0  0
    5.2765    3.5932   13.2512 H   0  0  0  0  0  0  0  0  0  0  0  0
    3.5900    4.1263   13.1825 H   0  0  0  0  0  0  0  0  0  0  0  0
    7.4284    7.5856   18.5056 C   0  0  0  0  0  0  0  0  0  0  0  0
    6.8582    6.9611   19.7797 C   0  0  0  0  0  0  0  0  0  0  0  0
    6.0059    6.3297   19.5201 H   0  0  0  0  0  0  0  0  0  0  0  0
    6.5144    7.7429   20.4543 H   0  0  0  0  0  0  0  0  0  0  0  0
    7.5930    6.3579   20.3043 H   0  0  0  0  0  0  0  0  0  0  0  0
    8.6668    8.4220   18.8142 C   0  0  0  0  0  0  0  0  0  0  0  0
    9.3964    7.8612   19.3927 H   0  0  0  0  0  0  0  0  0  0  0  0
    8.3699    9.2855   19.4084 H   0  0  0  0  0  0  0  0  0  0  0  0
    9.1385    8.7908   17.9047 H   0  0  0  0  0  0  0  0  0  0  0  0
    6.3466    8.4760   17.8895 C   0  0  0  0  0  0  0  0  0  0  0  0
    6.7277    9.0534   17.0504 H   0  0  0  0  0  0  0  0  0  0  0  0
    5.9771    9.1732   18.6391 H   0  0  0  0  0  0  0  0  0  0  0  0
    5.5095    7.8557   17.5593 H   0  0  0  0  0  0  0  0  0  0  0  0
    9.3424    5.2735   17.5555 C   0  0  0  0  0  0  0  0  0  0  0  0
    9.4108    4.7817   19.0008 C   0  0  0  0  0  0  0  0  0  0  0  0
    9.6019    5.5987   19.6925 H   0  0  0  0  0  0  0  0  0  0  0  0
   10.2194    4.0585   19.1047 H   0  0  0  0  0  0  0  0  0  0  0  0
    8.4800    4.2876   19.2769 H   0  0  0  0  0  0  0  0  0  0  0  0
   10.5877    6.0957   17.2200 C   0  0  0  0  0  0  0  0  0  0  0  0
   10.6079    6.4040   16.1772 H   0  0  0  0  0  0  0  0  0  0  0  0
   11.4692    5.4795   17.3984 H   0  0  0  0  0  0  0  0  0  0  0  0
   10.6717    6.9803   17.8424 H   0  0  0  0  0  0  0  0  0  0  0  0
    9.2800    4.0481   16.6348 C   0  0  0  0  0  0  0  0  0  0  0  0
    8.5093    3.3622   16.9842 H   0  0  0  0  0  0  0  0  0  0  0  0
   10.2297    3.5141   16.6538 H   0  0  0  0  0  0  0  0  0  0  0  0
    9.0735    4.3233   15.5990 H   0  0  0  0  0  0  0  0  0  0  0  0
    2.4479    3.6135   15.8442 C   0  0  0  0  0  0  0  0  0  0  0  0
    2.2701    3.3327   17.3368 C   0  0  0  0  0  0  0  0  0  0  0  0
    2.4411    2.2886   17.5805 H   0  0  0  0  0  0  0  0  0  0  0  0
    1.2597    3.5941   17.6454 H   0  0  0  0  0  0  0  0  0  0  0  0
    2.9739    3.9457   17.9038 H   0  0  0  0  0  0  0  0  0  0  0  0
    2.1038    5.0840   15.5951 C   0  0  0  0  0  0  0  0  0  0  0  0
    2.8362    5.7196   16.0991 H   0  0  0  0  0  0  0  0  0  0  0  0
    1.1218    5.3041   16.0093 H   0  0  0  0  0  0  0  0  0  0  0  0
    2.0825    5.3196   14.5337 H   0  0  0  0  0  0  0  0  0  0  0  0
    1.5319    2.7246   15.0080 C   0  0  0  0  0  0  0  0  0  0  0  0
    1.7205    2.8442   13.9423 H   0  0  0  0  0  0  0  0  0  0  0  0
    0.4970    3.0088   15.1963 H   0  0  0  0  0  0  0  0  0  0  0  0
    1.6373    1.6759   15.2739 H   0  0  0  0  0  0  0  0  0  0  0  0
    4.8096    1.6425   15.1761 C   0  0  0  0  0  0  0  0  0  0  0  0
    4.4003    0.7995   16.3832 C   0  0  0  0  0  0  0  0  0  0  0  0
    4.6963    1.2941   17.3075 H   0  0  0  0  0  0  0  0  0  0  0  0
    4.9019   -0.1673   16.3435 H   0  0  0  0  0  0  0  0  0  0  0  0
    3.3281    0.6195   16.4001 H   0  0  0  0  0  0  0  0  0  0  0  0
    6.3419    1.6756   15.1124 C   0  0  0  0  0  0  0  0  0  0  0  0
    6.7065    2.3845   14.3668 H   0  0  0  0  0  0  0  0  0  0  0  0
    6.7287    0.6907   14.8515 H   0  0  0  0  0  0  0  0  0  0  0  0
    6.7471    1.9408   16.0883 H   0  0  0  0  0  0  0  0  0  0  0  0
    4.2641    1.0210   13.8895 C   0  0  0  0  0  0  0  0  0  0  0  0
    3.1802    0.9760   13.8861 H   0  0  0  0  0  0  0  0  0  0  0  0
    4.6389    0.0002   13.8108 H   0  0  0  0  0  0  0  0  0  0  0  0
    4.5900    1.5602   13.0029 H   0  0  0  0  0  0  0  0  0  0  0  0
  1  3  1  0  0  0  0
  1  5  1  0  0  0  0
  1  2  1  0  0  0  0
  3 32  1  0  0  0  0
  3 19  1  0  0  0  0
  4 45  1  0  0  0  0
  4  1  1  0  0  0  0
  6  1  1  0  0  0  0
  7  8  1  0  0  0  0
  7  3  1  0  0  0  0
  9  7  1  0  0  0  0
 10  6  1  0  0  0  0
 10 11  1  0  0  0  0
 10  7  1  0  0  0  0
 12 10  1  0  0  0  0
 13 15  1  0  0  0  0
 13  6  1  0  0  0  0
 14 13  1  0  0  0  0
 16 13  1  0  0  0  0
 16  4  1  0  0  0  0
 17 16  1  0  0  0  0
 18 16  1  0  0  0  0
 19 24  1  0  0  0  0
 19 20  1  0  0  0  0
 20 23  1  0  0  0  0
 20 22  1  0  0  0  0
 21 20  1  0  0  0  0
 24 25  1  0  0  0  0
 24 26  1  0  0  0  0
 27 24  1  0  0  0  0
 28 19  1  0  0  0  0
 28 30  1  0  0  0  0
 29 28  1  0  0  0  0
 31 28  1  0  0  0  0
 32 33  1  0  0  0  0
 33 35  1  0  0  0  0
 33 36  1  0  0  0  0
 33 34  1  0  0  0  0
 37 39  1  0  0  0  0
 37 32  1  0  0  0  0
 37 40  1  0  0  0  0
 38 37  1  0  0  0  0
 41 43  1  0  0  0  0
 41 42  1  0  0  0  0
 41 32  1  0  0  0  0
 44 41  1  0  0  0  0
 45 46  1  0  0  0  0
 46 47  1  0  0  0  0
 46 48  1  0  0  0  0
 46 49  1  0  0  0  0
 50 45  1  0  0  0  0
 50 52  1  0  0  0  0
 50 51  1  0  0  0  0
 53 50  1  0  0  0  0
 54 56  1  0  0  0  0
 54 57  1  0  0  0  0
 54 45  1  0  0  0  0
 55 54  1  0  0  0  0
 58  4  1  0  0  0  0
 58 59  1  0  0  0  0
 59 62  1  0  0  0  0
 59 60  1  0  0  0  0
 61 59  1  0  0  0  0
 63 58  1  0  0  0  0
 63 66  1  0  0  0  0
 64 63  1  0  0  0  0
 65 63  1  0  0  0  0
 67 58  1  0  0  0  0
 68 67  1  0  0  0  0
 69 67  1  0  0  0  0
 70 67  1  0  0  0  0
M  END
$$$$
