CSD_code = CORTIO | q = 0 | S = 0 | Stoichiometry = C23H39Cl2N3O2Pd | MND = 4
 OpenBabel04212202023D

 70 72  0  0  1  0  0  0  0  0999 V2000
    7.7761   13.4958    3.3796 C   0  0  0  0  0  0  0  0  0  0  0  0
    8.7868   13.9111    3.3809 H   0  0  0  0  0  0  0  0  0  0  0  0
    7.2411   13.8329    4.2766 H   0  0  0  0  0  0  0  0  0  0  0  0
    7.0053   13.8588    2.1154 C   0  0  0  0  0  0  0  0  0  0  0  0
    7.6715   13.8185    1.2538 H   0  0  0  0  0  0  0  0  0  0  0  0
    6.5488   14.8446    2.1723 H   0  0  0  0  0  0  0  0  0  0  0  0
    5.9795   12.7331    2.0165 C   0  0  0  0  0  0  0  0  0  0  0  0
    5.5964   12.6120    1.0055 H   0  0  0  0  0  0  0  0  0  0  0  0
    5.1435   12.9129    2.6928 H   0  0  0  0  0  0  0  0  0  0  0  0
    6.7670   11.5033    2.4782 C   0  0  1  0  0  0  0  0  0  0  0  0
    6.1557   10.7967    3.0566 H   0  0  0  0  0  0  0  0  0  0  0  0
    7.3531   10.7347    1.2773 C   0  0  0  0  0  0  0  0  0  0  0  0
    7.1988    8.4988    0.3033 C   0  0  0  0  0  0  0  0  0  0  0  0
    6.5101    9.0185   -0.9572 C   0  0  0  0  0  0  0  0  0  0  0  0
    5.4769    9.2818   -0.7390 H   0  0  0  0  0  0  0  0  0  0  0  0
    6.5183    8.2413   -1.7161 H   0  0  0  0  0  0  0  0  0  0  0  0
    7.0236    9.8939   -1.3461 H   0  0  0  0  0  0  0  0  0  0  0  0
    6.5177    7.2402    0.8322 C   0  0  0  0  0  0  0  0  0  0  0  0
    6.9524    6.9785    1.7959 H   0  0  0  0  0  0  0  0  0  0  0  0
    6.6636    6.4138    0.1435 H   0  0  0  0  0  0  0  0  0  0  0  0
    5.4531    7.4129    0.9668 H   0  0  0  0  0  0  0  0  0  0  0  0
    8.6856    8.2503    0.0741 C   0  0  0  0  0  0  0  0  0  0  0  0
    9.1914    9.1758   -0.1927 H   0  0  0  0  0  0  0  0  0  0  0  0
    8.8175    7.5290   -0.7276 H   0  0  0  0  0  0  0  0  0  0  0  0
    9.1195    7.8450    0.9880 H   0  0  0  0  0  0  0  0  0  0  0  0
    8.5961   11.2400    4.0393 C   0  0  0  0  0  0  0  0  0  0  0  0
   10.1717   10.9828    5.9033 C   0  0  0  0  0  0  0  0  0  0  0  0
    9.9678    9.9117    5.6921 H   0  0  0  0  0  0  0  0  0  0  0  0
    9.7569   11.2732    7.3456 C   0  0  0  0  0  0  0  0  0  0  0  0
    9.9322   12.3286    7.5750 H   0  0  0  0  0  0  0  0  0  0  0  0
    8.6914   11.0657    7.4603 H   0  0  0  0  0  0  0  0  0  0  0  0
   10.5673   10.3975    8.2974 C   0  0  0  0  0  0  0  0  0  0  0  0
   10.2835   10.6143    9.3285 H   0  0  0  0  0  0  0  0  0  0  0  0
   10.3367    9.3489    8.1000 H   0  0  0  0  0  0  0  0  0  0  0  0
   12.0628   10.6348    8.1067 C   0  0  0  0  0  0  0  0  0  0  0  0
   12.6280    9.9829    8.7747 H   0  0  0  0  0  0  0  0  0  0  0  0
   12.3040   11.6685    8.3665 H   0  0  0  0  0  0  0  0  0  0  0  0
   12.4693   10.3675    6.6600 C   0  0  0  0  0  0  0  0  0  0  0  0
   12.2807    9.3193    6.4182 H   0  0  0  0  0  0  0  0  0  0  0  0
   13.5367   10.5574    6.5309 H   0  0  0  0  0  0  0  0  0  0  0  0
   11.6651   11.2514    5.7106 C   0  0  0  0  0  0  0  0  0  0  0  0
   11.8777   12.3039    5.9180 H   0  0  0  0  0  0  0  0  0  0  0  0
   11.9368   11.0466    4.6719 H   0  0  0  0  0  0  0  0  0  0  0  0
   10.2824    9.2154    2.8059 C   0  0  0  0  0  2  0  0  0  0  0  0
   12.6158    8.4923    2.0588 C   0  0  0  0  0  0  0  0  0  0  0  0
   13.1246    9.2774    1.4823 H   0  0  0  0  0  0  0  0  0  0  0  0
   13.4047    8.1868    3.3401 C   0  0  0  0  0  0  0  0  0  0  0  0
   13.4665    9.0867    3.9563 H   0  0  0  0  0  0  0  0  0  0  0  0
   14.4187    7.9013    3.0521 H   0  0  0  0  0  0  0  0  0  0  0  0
   12.7486    7.0496    4.1173 C   0  0  0  0  0  0  0  0  0  0  0  0
   13.3214    6.8508    5.0250 H   0  0  0  0  0  0  0  0  0  0  0  0
   11.7347    7.3377    4.4100 H   0  0  0  0  0  0  0  0  0  0  0  0
   12.6729    5.7968    3.2507 C   0  0  0  0  0  0  0  0  0  0  0  0
   13.6824    5.4788    2.9742 H   0  0  0  0  0  0  0  0  0  0  0  0
   12.2038    4.9899    3.8134 H   0  0  0  0  0  0  0  0  0  0  0  0
   11.8511    6.0836    1.9983 C   0  0  0  0  0  0  0  0  0  0  0  0
   11.8023    5.1938    1.3689 H   0  0  0  0  0  0  0  0  0  0  0  0
   10.8327    6.3371    2.3008 H   0  0  0  0  0  0  0  0  0  0  0  0
   12.4637    7.2303    1.1988 C   0  0  0  0  0  0  0  0  0  0  0  0
   11.8438    7.4570    0.3291 H   0  0  0  0  0  0  0  0  0  0  0  0
   13.4585    6.9490    0.8453 H   0  0  0  0  0  0  0  0  0  0  0  0
    7.8201   12.0396    3.3319 N   0  0  0  0  0  0  0  0  0  0  0  0
    9.3766   11.7681    4.9743 N   0  0  0  0  0  0  0  0  0  0  0  0
    9.3330   12.7587    5.1918 H   0  0  0  0  0  0  0  0  0  0  0  0
   11.3544    8.9904    2.4110 N   0  0  0  0  0  2  0  0  0  0  0  0
    7.9677   11.2576    0.3823 O   0  0  0  0  0  0  0  0  0  0  0  0
    7.0192    9.4616    1.3874 O   0  0  0  0  0  0  0  0  0  0  0  0
    8.7760    6.9659    3.6514 Cl  0  0  0  0  0  0  0  0  0  0  0  0
    6.8042    9.2438    5.0409 Cl  0  0  0  0  0  0  0  0  0  0  0  0
    8.6421    9.2628    3.7381 Pd  0  0  0  0  0  0  0  0  0  0  0  0
  1  2  1  0  0  0  0
  1  3  1  0  0  0  0
  4  6  1  0  0  0  0
  4  1  1  0  0  0  0
  5  4  1  0  0  0  0
  7  4  1  0  0  0  0
  7 10  1  0  0  0  0
  7  9  1  0  0  0  0
  8  7  1  0  0  0  0
 10 11  1  1  0  0  0
 10 62  1  0  0  0  0
 12 67  1  0  0  0  0
 12 10  1  0  0  0  0
 13 18  1  0  0  0  0
 13 67  1  0  0  0  0
 14 15  1  0  0  0  0
 14 13  1  0  0  0  0
 16 14  1  0  0  0  0
 17 14  1  0  0  0  0
 18 21  1  0  0  0  0
 18 19  1  0  0  0  0
 20 18  1  0  0  0  0
 22 13  1  0  0  0  0
 22 25  1  0  0  0  0
 23 22  1  0  0  0  0
 24 22  1  0  0  0  0
 26 63  1  0  0  0  0
 27 29  1  0  0  0  0
 28 27  1  0  0  0  0
 29 31  1  0  0  0  0
 29 30  1  0  0  0  0
 29 32  1  0  0  0  0
 32 33  1  0  0  0  0
 34 32  1  0  0  0  0
 35 32  1  0  0  0  0
 35 37  1  0  0  0  0
 35 36  1  0  0  0  0
 38 35  1  0  0  0  0
 39 38  1  0  0  0  0
 40 38  1  0  0  0  0
 41 27  1  0  0  0  0
 41 42  1  0  0  0  0
 41 38  1  0  0  0  0
 43 41  1  0  0  0  0
 44 70  1  0  0  0  0
 45 65  1  0  0  0  0
 45 47  1  0  0  0  0
 46 45  1  0  0  0  0
 47 48  1  0  0  0  0
 47 50  1  0  0  0  0
 49 47  1  0  0  0  0
 50 52  1  0  0  0  0
 50 51  1  0  0  0  0
 53 55  1  0  0  0  0
 53 50  1  0  0  0  0
 54 53  1  0  0  0  0
 56 58  1  0  0  0  0
 56 53  1  0  0  0  0
 57 56  1  0  0  0  0
 59 56  1  0  0  0  0
 59 45  1  0  0  0  0
 60 59  1  0  0  0  0
 61 59  1  0  0  0  0
 62  1  1  0  0  0  0
 62 26  1  0  0  0  0
 63 64  1  0  0  0  0
 63 27  1  0  0  0  0
 65 44  1  0  0  0  0
 66 12  2  0  0  0  0
 68 70  1  0  0  0  0
 70 26  2  0  0  0  0
 70 69  1  0  0  0  0
M  END
$$$$
