CSD_code = COSMAA | q = 0 | S = 0 | Stoichiometry = C18H27CdI2N7 | MND = 6
 OpenBabel04212202023D

 55 58  0  0  1  0  0  0  0  0999 V2000
    8.7810    2.6257    1.7319 I   0  0  0  0  0  0  0  0  0  0  0  0
    5.6528    0.4273    4.1869 I   0  0  0  0  0  0  0  0  0  0  0  0
    7.1074    2.6743    3.9137 Cd  0  0  0  0  0  0  0  0  0  0  0  0
    9.0303    2.8098    5.4961 N   0  0  0  0  0  0  0  0  0  0  0  0
    9.8460    3.8751    5.4737 N   0  0  1  0  0  0  0  0  0  0  0  0
    8.2519    5.2865    4.4510 N   0  0  0  0  0  0  0  0  0  0  0  0
    6.3149    4.0375    6.2019 N   0  0  0  0  0  0  0  0  0  0  0  0
    7.2736    4.8980    6.5879 N   0  0  0  0  0  0  0  0  0  0  0  0
    5.8494    4.5735    3.0905 N   0  0  0  0  0  0  0  0  0  0  0  0
    6.4073    5.7933    3.0671 N   0  0  2  0  0  0  0  0  0  0  0  0
   10.8203    3.7670    6.4075 C   0  0  1  0  0  3  0  0  0  0  0  0
   10.5952    2.5779    7.0668 C   0  0  0  0  0  0  0  0  0  0  0  0
   11.1718    2.1652    7.8688 H   0  0  0  0  0  0  0  0  0  0  0  0
    9.4618    2.0130    6.4612 C   0  0  0  0  0  0  0  0  0  0  0  0
   11.9149    4.7581    6.5783 C   0  0  0  0  0  0  0  0  0  0  0  0
   12.5469    4.7855    5.6905 H   0  0  0  0  0  0  0  0  0  0  0  0
   12.5282    4.4700    7.4276 H   0  0  0  0  0  0  0  0  0  0  0  0
   11.5329    5.7648    6.7536 H   0  0  0  0  0  0  0  0  0  0  0  0
    8.7890    0.7332    6.7991 C   0  0  0  0  0  0  0  0  0  0  0  0
    7.8977    0.9244    7.3976 H   0  0  0  0  0  0  0  0  0  0  0  0
    9.4603    0.0974    7.3701 H   0  0  0  0  0  0  0  0  0  0  0  0
    8.4842    0.2105    5.8934 H   0  0  0  0  0  0  0  0  0  0  0  0
    7.5616    4.7627    7.9070 C   0  0  0  0  0  0  0  0  0  0  0  0
    6.7447    3.7620    8.3784 C   0  0  0  0  0  0  0  0  0  0  0  0
    6.6990    3.3836    9.3791 H   0  0  0  0  0  0  0  0  0  0  0  0
    5.9773    3.3428    7.2762 C   0  0  0  0  0  0  0  0  0  0  0  0
    8.5693    5.5827    8.6279 C   0  0  0  0  0  0  0  0  0  0  0  0
    9.5686    5.4184    8.2260 H   0  0  0  0  0  0  0  0  0  0  0  0
    8.5739    5.2953    9.6755 H   0  0  0  0  0  0  0  0  0  0  0  0
    8.3351    6.6458    8.5641 H   0  0  0  0  0  0  0  0  0  0  0  0
    4.8950    2.3272    7.2771 C   0  0  0  0  0  0  0  0  0  0  0  0
    4.2952    2.4284    8.1796 H   0  0  0  0  0  0  0  0  0  0  0  0
    5.3052    1.3185    7.2556 H   0  0  0  0  0  0  0  0  0  0  0  0
    4.2608    2.4536    6.4044 H   0  0  0  0  0  0  0  0  0  0  0  0
    5.4761    6.7529    2.8484 C   0  0  2  0  0  3  0  0  0  0  0  0
    4.2680    6.1015    2.7310 C   0  0  0  0  0  0  0  0  0  0  0  0
    3.3110    6.5457    2.5489 H   0  0  0  0  0  0  0  0  0  0  0  0
    4.5514    4.7354    2.8921 C   0  0  0  0  0  0  0  0  0  0  0  0
    5.7912    8.2014    2.7408 C   0  0  0  0  0  0  0  0  0  0  0  0
    6.2684    8.5766    3.6470 H   0  0  0  0  0  0  0  0  0  0  0  0
    4.8699    8.7552    2.5847 H   0  0  0  0  0  0  0  0  0  0  0  0
    6.4548    8.3929    1.8976 H   0  0  0  0  0  0  0  0  0  0  0  0
    3.6051    3.5919    2.8512 C   0  0  0  0  0  0  0  0  0  0  0  0
    4.0191    2.7764    2.2588 H   0  0  0  0  0  0  0  0  0  0  0  0
    2.6581    3.9033    2.4185 H   0  0  0  0  0  0  0  0  0  0  0  0
    3.4216    3.2156    3.8582 H   0  0  0  0  0  0  0  0  0  0  0  0
    7.7448    5.8937    5.6622 C   0  0  0  0  0  0  0  0  0  0  0  0
    8.5119    6.4979    6.1710 H   0  0  0  0  0  0  0  0  0  0  0  0
    6.8968    6.5391    5.3980 H   0  0  0  0  0  0  0  0  0  0  0  0
    9.6514    4.9290    4.5118 C   0  0  0  0  0  0  0  0  0  0  0  0
    9.9635    4.5769    3.5204 H   0  0  0  0  0  0  0  0  0  0  0  0
   10.2884    5.7798    4.8087 H   0  0  0  0  0  0  0  0  0  0  0  0
    7.8284    5.9405    3.2280 C   0  0  0  0  0  0  0  0  0  0  0  0
    8.3371    5.4498    2.3888 H   0  0  0  0  0  0  0  0  0  0  0  0
    8.0691    7.0154    3.2157 H   0  0  0  0  0  0  0  0  0  0  0  0
  1  3  1  0  0  0  0
  3  2  1  0  0  0  0
  3  4  1  0  0  0  0
  4 14  1  0  0  0  0
  5 50  1  6  0  0  0
  5  4  1  0  0  0  0
  5 11  1  0  0  0  0
  6 50  1  0  0  0  0
  6 47  1  0  0  0  0
  7  8  1  0  0  0  0
  7 26  2  0  0  0  0
  8 23  1  0  0  0  0
  9  3  1  0  0  0  0
 10  9  1  6  0  0  0
 10 53  1  0  0  0  0
 11 15  1  6  0  0  0
 11 12  1  0  0  0  0
 12 13  1  0  0  0  0
 14 19  1  0  0  0  0
 14 12  2  0  0  0  0
 15 18  1  0  0  0  0
 15 17  1  0  0  0  0
 16 15  1  0  0  0  0
 19 21  1  0  0  0  0
 19 20  1  0  0  0  0
 22 19  1  0  0  0  0
 23 24  2  0  0  0  0
 23 27  1  0  0  0  0
 24 25  1  0  0  0  0
 26 31  1  0  0  0  0
 26 24  1  0  0  0  0
 27 29  1  0  0  0  0
 28 27  1  0  0  0  0
 30 27  1  0  0  0  0
 31 32  1  0  0  0  0
 33 31  1  0  0  0  0
 34 31  1  0  0  0  0
 35 39  1  6  0  0  0
 35 10  1  0  0  0  0
 36 35  1  0  0  0  0
 36 38  2  0  0  0  0
 37 36  1  0  0  0  0
 38  9  1  0  0  0  0
 39 40  1  0  0  0  0
 41 39  1  0  0  0  0
 42 39  1  0  0  0  0
 43 38  1  0  0  0  0
 43 46  1  0  0  0  0
 44 43  1  0  0  0  0
 45 43  1  0  0  0  0
 47 48  1  0  0  0  0
 47  8  1  0  0  0  0
 49 47  1  0  0  0  0
 50 52  1  0  0  0  0
 51 50  1  0  0  0  0
 53  6  1  0  0  0  0
 54 53  1  0  0  0  0
 55 53  1  0  0  0  0
M  END
$$$$
