CSD_code = COSMEE | q = 0 | S = 0 | Stoichiometry = C18H27Br2CdN7 | MND = 6
 OpenBabel04212202023D

 55 58  0  0  1  0  0  0  0  0999 V2000
    5.6060    2.5838    3.5125 Cd  0  0  0  0  0  0  0  0  0  0  0  0
    4.0767    2.5921    5.5621 Br  0  0  0  0  0  0  0  0  0  0  0  0
    6.9586    0.5051    3.2951 Br  0  0  0  0  0  0  0  0  0  0  0  0
    3.6710    2.6640    1.9964 N   0  0  0  0  0  0  0  0  0  0  0  0
    2.8515    3.7244    2.0443 N   0  0  1  0  0  0  0  0  0  0  0  0
    1.8908    3.6428    1.0944 C   0  0  1  0  0  3  0  0  0  0  0  0
    2.1292    2.4770    0.3989 C   0  0  0  0  0  0  0  0  0  0  0  0
    1.5647    2.0894   -0.4240 H   0  0  0  0  0  0  0  0  0  0  0  0
    3.2582    1.8973    1.0002 C   0  0  0  0  0  0  0  0  0  0  0  0
    0.7921    4.6332    0.9433 C   0  0  0  0  0  0  0  0  0  0  0  0
    0.1453    4.6203    1.8207 H   0  0  0  0  0  0  0  0  0  0  0  0
    0.1951    4.3757    0.0729 H   0  0  0  0  0  0  0  0  0  0  0  0
    1.1696    5.6485    0.8161 H   0  0  0  0  0  0  0  0  0  0  0  0
    3.9475    0.6358    0.6282 C   0  0  0  0  0  0  0  0  0  0  0  0
    4.6389    0.8172   -0.1951 H   0  0  0  0  0  0  0  0  0  0  0  0
    3.2222   -0.1088    0.3090 H   0  0  0  0  0  0  0  0  0  0  0  0
    4.5128    0.2473    1.4737 H   0  0  0  0  0  0  0  0  0  0  0  0
    4.4276    5.1622    3.0580 N   0  0  0  0  0  0  0  0  0  0  0  0
    6.2941    3.9420    1.2556 N   0  0  0  0  0  0  0  0  0  0  0  0
    5.3543    4.8313    0.8917 N   0  0  0  0  0  0  0  0  0  0  0  0
    5.0502    4.7225   -0.4251 C   0  0  0  0  0  0  0  0  0  0  0  0
    5.8383    3.7084   -0.9191 C   0  0  0  0  0  0  0  0  0  0  0  0
    5.8645    3.3454   -1.9262 H   0  0  0  0  0  0  0  0  0  0  0  0
    6.6029    3.2515    0.1685 C   0  0  0  0  0  0  0  0  0  0  0  0
    4.0572    5.5781   -1.1251 C   0  0  0  0  0  0  0  0  0  0  0  0
    3.0538    5.4148   -0.7330 H   0  0  0  0  0  0  0  0  0  0  0  0
    4.0537    5.3227   -2.1810 H   0  0  0  0  0  0  0  0  0  0  0  0
    4.3050    6.6353   -1.0272 H   0  0  0  0  0  0  0  0  0  0  0  0
    7.6462    2.1964    0.1496 C   0  0  0  0  0  0  0  0  0  0  0  0
    8.5514    2.5551    0.6354 H   0  0  0  0  0  0  0  0  0  0  0  0
    7.8749    1.9189   -0.8761 H   0  0  0  0  0  0  0  0  0  0  0  0
    7.3160    1.3105    0.6899 H   0  0  0  0  0  0  0  0  0  0  0  0
    6.8815    4.4257    4.3078 N   0  0  0  0  0  0  0  0  0  0  0  0
    6.3170    5.6383    4.3896 N   0  0  2  0  0  0  0  0  0  0  0  0
    7.2528    6.6000    4.5717 C   0  0  2  0  0  3  0  0  0  0  0  0
    8.4712    5.9560    4.6029 C   0  0  0  0  0  0  0  0  0  0  0  0
    9.4338    6.4057    4.7361 H   0  0  0  0  0  0  0  0  0  0  0  0
    8.1883    4.5918    4.4289 C   0  0  0  0  0  0  0  0  0  0  0  0
    6.9350    8.0437    4.7279 C   0  0  0  0  0  0  0  0  0  0  0  0
    6.4125    8.4363    3.8548 H   0  0  0  0  0  0  0  0  0  0  0  0
    7.8593    8.6004    4.8528 H   0  0  0  0  0  0  0  0  0  0  0  0
    6.3111    8.2105    5.6058 H   0  0  0  0  0  0  0  0  0  0  0  0
    9.1337    3.4479    4.3832 C   0  0  0  0  0  0  0  0  0  0  0  0
    8.8711    2.7106    5.1420 H   0  0  0  0  0  0  0  0  0  0  0  0
   10.1504    3.7899    4.5553 H   0  0  0  0  0  0  0  0  0  0  0  0
    9.0811    2.9532    3.4132 H   0  0  0  0  0  0  0  0  0  0  0  0
    4.8835    5.8029    1.8464 C   0  0  0  0  0  0  0  0  0  0  0  0
    4.0864    6.3914    1.3660 H   0  0  0  0  0  0  0  0  0  0  0  0
    5.7198    6.4686    2.0972 H   0  0  0  0  0  0  0  0  0  0  0  0
    3.0414    4.7516    3.0364 C   0  0  0  0  0  0  0  0  0  0  0  0
    2.7882    4.3479    4.0251 H   0  0  0  0  0  0  0  0  0  0  0  0
    2.3609    5.5850    2.7941 H   0  0  0  0  0  0  0  0  0  0  0  0
    4.8883    5.7729    4.2895 C   0  0  0  0  0  0  0  0  0  0  0  0
    4.6355    6.8428    4.3548 H   0  0  0  0  0  0  0  0  0  0  0  0
    4.4199    5.2353    5.1237 H   0  0  0  0  0  0  0  0  0  0  0  0
  1 33  1  0  0  0  0
  1  2  1  0  0  0  0
  3  1  1  0  0  0  0
  4  1  1  0  0  0  0
  5  4  1  1  0  0  0
  5 50  1  0  0  0  0
  6 10  1  1  0  0  0
  6  5  1  0  0  0  0
  7  9  2  0  0  0  0
  7  6  1  0  0  0  0
  8  7  1  0  0  0  0
  9  4  1  0  0  0  0
 10 11  1  0  0  0  0
 12 10  1  0  0  0  0
 13 10  1  0  0  0  0
 14  9  1  0  0  0  0
 14 17  1  0  0  0  0
 15 14  1  0  0  0  0
 16 14  1  0  0  0  0
 18 53  1  0  0  0  0
 20 19  1  0  0  0  0
 20 47  1  0  0  0  0
 21 20  1  0  0  0  0
 22 21  2  0  0  0  0
 22 24  1  0  0  0  0
 23 22  1  0  0  0  0
 24 19  2  0  0  0  0
 25 28  1  0  0  0  0
 25 26  1  0  0  0  0
 25 21  1  0  0  0  0
 27 25  1  0  0  0  0
 29 24  1  0  0  0  0
 29 30  1  0  0  0  0
 29 32  1  0  0  0  0
 31 29  1  0  0  0  0
 33 34  1  0  0  0  0
 33 38  1  0  0  0  0
 34 53  1  1  0  0  0
 34 35  1  0  0  0  0
 35 36  1  0  0  0  0
 35 39  1  1  0  0  0
 36 37  1  0  0  0  0
 38 36  2  0  0  0  0
 39 41  1  0  0  0  0
 39 42  1  0  0  0  0
 40 39  1  0  0  0  0
 43 38  1  0  0  0  0
 43 45  1  0  0  0  0
 43 44  1  0  0  0  0
 46 43  1  0  0  0  0
 47 49  1  0  0  0  0
 47 18  1  0  0  0  0
 48 47  1  0  0  0  0
 50 18  1  0  0  0  0
 50 51  1  0  0  0  0
 52 50  1  0  0  0  0
 53 54  1  0  0  0  0
 53 55  1  0  0  0  0
M  END
$$$$
