CSD_code = COSNUV | q = 1 | S = 0 | Stoichiometry = C11H17ClN3Pd(1+) | MND = 4
 OpenBabel04212202023D

 33 35  0  0  0  0  0  0  0  0999 V2000
    6.5224    0.1819   11.4236 Pd  0  0  1  0  0  0  0  0  0  0  0  0
    4.5211    0.7237   12.2172 Cl  0  0  0  0  0  0  0  0  0  0  0  0
    7.4542    1.0462   13.0011 N   0  0  0  0  0  0  0  0  0  0  0  0
    8.4365   -0.2868   10.9496 N   0  0  0  0  0  0  0  0  0  0  0  0
    5.6311   -0.6861    9.7421 N   0  0  0  0  0  4  0  0  0  0  0  0
    6.9268    1.7439   14.0012 C   0  0  0  0  0  0  0  0  0  0  0  0
    5.8502    1.8709   14.0008 H   0  0  0  0  0  0  0  0  0  0  0  0
    7.7031    2.2908   15.0144 C   0  0  0  0  0  0  0  0  0  0  0  0
    7.2290    2.8493   15.8048 H   0  0  0  0  0  0  0  0  0  0  0  0
    9.0781    2.1068   14.9925 C   0  0  0  0  0  0  0  0  0  0  0  0
    9.7035    2.5189   15.7685 H   0  0  0  0  0  0  0  0  0  0  0  0
    9.6332    1.3824   13.9514 C   0  0  0  0  0  0  0  0  0  0  0  0
   10.6968    1.2151   13.8914 H   0  0  0  0  0  0  0  0  0  0  0  0
    8.7950    0.8650   12.9645 C   0  0  0  0  0  0  0  0  0  0  0  0
    9.2778    0.1021   11.8367 C   0  0  0  0  0  0  0  0  0  0  0  0
   10.3402   -0.1258   11.7640 H   0  0  0  0  0  0  0  0  0  0  0  0
    8.8840   -1.0568    9.8211 C   0  0  0  0  0  0  0  0  0  0  0  0
    9.7757   -1.6408   10.0805 H   0  0  0  0  0  0  0  0  0  0  0  0
    9.1599   -0.3634    9.0159 H   0  0  0  0  0  0  0  0  0  0  0  0
    7.7690   -1.9821    9.3341 C   0  0  0  0  0  0  0  0  0  0  0  0
    8.1787   -2.6317    8.5605 H   0  0  0  0  0  0  0  0  0  0  0  0
    7.4422   -2.6162   10.1631 H   0  0  0  0  0  0  0  0  0  0  0  0
    6.5919   -1.2013    8.7446 C   0  0  0  0  0  0  0  0  0  0  0  0
    6.9872   -0.3525    8.1767 H   0  0  0  0  0  0  0  0  0  0  0  0
    6.0483   -1.8484    8.0442 H   0  0  0  0  0  0  0  0  0  0  0  0
    4.8037    0.3368    9.0770 C   0  0  0  0  0  0  0  0  0  0  0  0
    4.3712   -0.0628    8.1541 H   0  0  0  0  0  0  0  0  0  0  0  0
    5.4155    1.2120    8.8360 H   0  0  0  0  0  0  0  0  0  0  0  0
    3.9933    0.6489    9.7353 H   0  0  0  0  0  0  0  0  0  0  0  0
    4.7627   -1.7831   10.2032 C   0  0  0  0  0  0  0  0  0  0  0  0
    3.9868   -1.3884   10.8596 H   0  0  0  0  0  0  0  0  0  0  0  0
    5.3414   -2.5239   10.7608 H   0  0  0  0  0  0  0  0  0  0  0  0
    4.2833   -2.2758    9.3509 H   0  0  0  0  0  0  0  0  0  0  0  0
  1  2  1  1  0  0  0
  1  3  1  0  0  0  0
  3  6  1  0  0  0  0
  4  1  1  0  0  0  0
  4 15  1  0  0  0  0
  5 30  1  0  0  0  0
  5  1  1  0  0  0  0
  6  8  2  0  0  0  0
  7  6  1  0  0  0  0
  8  9  1  0  0  0  0
 10  8  1  0  0  0  0
 10 11  1  0  0  0  0
 12 10  2  0  0  0  0
 13 12  1  0  0  0  0
 14  3  1  0  0  0  0
 14 12  1  0  0  0  0
 15 14  2  0  0  0  0
 16 15  1  0  0  0  0
 17 18  1  0  0  0  0
 17  4  1  0  0  0  0
 19 17  1  0  0  0  0
 20 17  1  0  0  0  0
 20 22  1  0  0  0  0
 21 20  1  0  0  0  0
 23 20  1  0  0  0  0
 23  5  1  0  0  0  0
 24 23  1  0  0  0  0
 25 23  1  0  0  0  0
 26 29  1  0  0  0  0
 26  5  1  0  0  0  0
 27 26  1  0  0  0  0
 28 26  1  0  0  0  0
 30 32  1  0  0  0  0
 30 31  1  0  0  0  0
 33 30  1  0  0  0  0
M  END
$$$$
