CSD_code = COSXIR | q = 0 | S = 0 | Stoichiometry = C10H12Cl2N4Pd | MND = 4
 OpenBabel04212202023D

 29 30  0  0  1  0  0  0  0  0999 V2000
    0.0009    0.0002   -0.0004 Pd  0  0  0  0  0  0  0  0  0  0  0  0
   -1.8066    1.0159   -1.0023 Cl  0  0  0  0  0  0  0  0  0  0  0  0
    0.1675    1.4899    1.2868 N   0  0  0  0  0  0  0  0  0  0  0  0
   -1.7774    0.7216    2.2448 N   0  0  0  0  0  0  0  0  0  0  0  0
   -0.7413    1.6007    2.2689 C   0  0  1  0  0  3  0  0  0  0  0  0
   -0.5742    2.5500    3.2893 C   0  0  0  0  0  0  0  0  0  0  0  0
    0.5257    3.3762    3.2645 C   0  0  0  0  0  0  0  0  0  0  0  0
    1.4457    3.2583    2.2255 C   0  0  0  0  0  0  0  0  0  0  0  0
    1.2275    2.2954    1.2631 C   0  0  0  0  0  0  0  0  0  0  0  0
   -2.0040    0.3441    1.3154 H   0  0  0  0  0  0  0  0  0  0  0  0
   -2.5551    0.8993    2.8597 H   0  0  0  0  0  0  0  0  0  0  0  0
   -1.3080    2.6142    4.0773 H   0  0  0  0  0  0  0  0  0  0  0  0
    0.6709    4.1117    4.0410 H   0  0  0  0  0  0  0  0  0  0  0  0
    2.3131    3.8944    2.1740 H   0  0  0  0  0  0  0  0  0  0  0  0
    1.9214    2.1505    0.4376 H   0  0  0  0  0  0  0  0  0  0  0  0
    1.8070   -1.0162    1.0029 Cl  0  0  0  0  0  0  0  0  0  0  0  0
   -0.1676   -1.4899   -1.2870 N   0  0  0  0  0  0  0  0  0  0  0  0
    0.7412   -1.6007   -2.2690 C   0  0  2  0  0  3  0  0  0  0  0  0
   -1.2276   -2.2953   -1.2632 C   0  0  0  0  0  0  0  0  0  0  0  0
    1.7772   -0.7215   -2.2447 N   0  0  0  0  0  0  0  0  0  0  0  0
    0.5742   -2.5500   -3.2893 C   0  0  0  0  0  0  0  0  0  0  0  0
   -1.4457   -3.2583   -2.2255 C   0  0  0  0  0  0  0  0  0  0  0  0
   -1.9215   -2.1504   -0.4376 H   0  0  0  0  0  0  0  0  0  0  0  0
    2.0035   -0.3439   -1.3153 H   0  0  0  0  0  0  0  0  0  0  0  0
    2.5551   -0.8992   -2.8595 H   0  0  0  0  0  0  0  0  0  0  0  0
   -0.5257   -3.3762   -3.2646 C   0  0  0  0  0  0  0  0  0  0  0  0
    1.3080   -2.6143   -4.0773 H   0  0  0  0  0  0  0  0  0  0  0  0
   -2.3132   -3.8944   -2.1740 H   0  0  0  0  0  0  0  0  0  0  0  0
   -0.6710   -4.1118   -4.0410 H   0  0  0  0  0  0  0  0  0  0  0  0
  1 16  1  0  0  0  0
  1  3  1  0  0  0  0
  2  1  1  0  0  0  0
  3  5  1  0  0  0  0
  4 11  1  0  0  0  0
  5  4  1  1  0  0  0
  5  6  1  0  0  0  0
  6 12  1  0  0  0  0
  7  6  2  0  0  0  0
  7 13  1  0  0  0  0
  8  7  1  0  0  0  0
  9  3  1  0  0  0  0
  9  8  2  0  0  0  0
 10  4  1  0  0  0  0
 14  8  1  0  0  0  0
 15  9  1  0  0  0  0
 17 19  1  0  0  0  0
 17  1  1  0  0  0  0
 18 20  1  6  0  0  0
 18 17  1  0  0  0  0
 19 23  1  0  0  0  0
 20 24  1  0  0  0  0
 21 26  2  0  0  0  0
 21 18  1  0  0  0  0
 22 28  1  0  0  0  0
 22 19  2  0  0  0  0
 25 20  1  0  0  0  0
 26 22  1  0  0  0  0
 27 21  1  0  0  0  0
 29 26  1  0  0  0  0
M  END
$$$$
