CSD_code = COTWIS | q = 0 | S = 0 | Stoichiometry = C7H11Cl4N3Pt | MND = 6
 OpenBabel04212202023D

 26 27  0  0  0  0  0  0  0  0999 V2000
    1.8640    1.8804    3.2877 Pt  0  0  0  0  0  0  0  0  0  0  0  0
   -0.2544    0.9887    4.0262 Cl  0  0  0  0  0  0  0  0  0  0  0  0
    1.0548    4.1112    3.4442 Cl  0  0  0  0  0  0  0  0  0  0  0  0
    2.7205   -0.3249    3.2848 Cl  0  0  0  0  0  0  0  0  0  0  0  0
    3.8192    3.7019    1.5555 Cl  0  0  0  0  0  0  0  0  0  0  0  0
    1.3010    1.7107    1.3879 N   0  0  0  0  0  0  0  0  0  0  0  0
    3.7815    2.5644    2.8421 N   0  0  0  0  0  0  0  0  0  0  0  0
    2.4810    2.0589    5.2444 N   0  0  0  0  0  4  0  0  0  0  0  0
    2.0251    2.8914    5.6347 H   0  0  0  0  0  0  0  0  0  0  0  0
    2.2004    1.2448    5.7979 H   0  0  0  0  0  0  0  0  0  0  0  0
    2.1373    1.1903    0.4886 C   0  0  0  0  0  3  0  0  0  0  0  0
    3.1157    0.8932    0.8455 H   0  0  0  0  0  0  0  0  0  0  0  0
    1.7743    1.0325   -0.8366 C   0  0  0  0  0  0  0  0  0  0  0  0
    2.4771    0.6054   -1.5333 H   0  0  0  0  0  0  0  0  0  0  0  0
    0.5088    1.4280   -1.2422 C   0  0  0  0  0  0  0  0  0  0  0  0
    0.1984    1.3158   -2.2696 H   0  0  0  0  0  0  0  0  0  0  0  0
   -0.3490    1.9692   -0.2983 C   0  0  0  0  0  0  0  0  0  0  0  0
   -1.3425    2.2919   -0.5642 H   0  0  0  0  0  0  0  0  0  0  0  0
    0.0820    2.0943    1.0110 C   0  0  0  0  0  0  0  0  0  0  0  0
   -0.5665    2.5033    1.7756 H   0  0  0  0  0  0  0  0  0  0  0  0
    4.2669    3.1781    4.0600 C   0  0  0  0  0  0  0  0  0  0  0  0
    5.3518    3.3160    3.9716 H   0  0  0  0  0  0  0  0  0  0  0  0
    3.8052    4.1603    4.2489 H   0  0  0  0  0  0  0  0  0  0  0  0
    3.9424    2.2232    5.2088 C   0  0  0  0  0  0  0  0  0  0  0  0
    4.3286    2.6103    6.1573 H   0  0  0  0  0  0  0  0  0  0  0  0
    4.3905    1.2490    4.9943 H   0  0  0  0  0  0  0  0  0  0  0  0
  1  3  1  0  0  0  0
  1  2  1  0  0  0  0
  1  8  1  0  0  0  0
  4  1  1  0  0  0  0
  5  7  1  0  0  0  0
  6  1  1  0  0  0  0
  7  1  1  0  0  0  0
  7 21  1  0  0  0  0
  8  9  1  0  0  0  0
  8 10  1  0  0  0  0
 11 12  1  0  0  0  0
 11  6  1  0  0  0  0
 13 11  1  0  0  0  0
 14 13  1  0  0  0  0
 15 13  2  0  0  0  0
 15 17  1  0  0  0  0
 16 15  1  0  0  0  0
 17 19  2  0  0  0  0
 18 17  1  0  0  0  0
 19  6  1  0  0  0  0
 19 20  1  0  0  0  0
 21 23  1  0  0  0  0
 21 24  1  0  0  0  0
 22 21  1  0  0  0  0
 24  8  1  0  0  0  0
 24 25  1  0  0  0  0
 26 24  1  0  0  0  0
M  END
$$$$
