CSD_code = COXBEX | q = 0 | S = 0 | Stoichiometry = C15H27ClNPPt | MND = 4
 OpenBabel04212202023D

 46 47  0  0  1  0  0  0  0  0999 V2000
   -5.8074    3.3292   10.9678 Pt  0  0  1  0  0  0  0  0  0  0  0  0
   -8.0130    3.0212   11.3775 Cl  0  0  0  0  0  0  0  0  0  0  0  0
   -3.6824    3.8181   10.3617 P   0  0  0  0  0  4  0  0  0  0  0  0
   -6.2458    5.0485    9.6261 N   0  0  0  0  0  0  0  0  0  0  0  0
   -5.4862    1.8111   12.3069 C   0  0  0  0  0  0  0  0  0  0  0  0
   -4.4413    1.5526   12.4864 H   0  0  0  0  0  0  0  0  0  0  0  0
   -6.0036    0.9155   11.9509 H   0  0  0  0  0  0  0  0  0  0  0  0
   -5.9376    2.0882   13.2649 H   0  0  0  0  0  0  0  0  0  0  0  0
   -3.9560    4.8770    8.8584 C   0  0  0  0  0  0  0  0  0  0  0  0
   -3.1169    5.5423    8.6446 H   0  0  0  0  0  0  0  0  0  0  0  0
   -4.0646    4.1807    8.0208 H   0  0  0  0  0  0  0  0  0  0  0  0
   -5.2397    5.6360    8.9735 C   0  0  1  0  0  3  0  0  0  0  0  0
   -5.3880    6.8869    8.3864 C   0  0  0  0  0  0  0  0  0  0  0  0
   -4.5556    7.3405    7.8688 H   0  0  0  0  0  0  0  0  0  0  0  0
   -6.6078    7.5374    8.4687 C   0  0  0  0  0  0  0  0  0  0  0  0
   -6.7402    8.5112    8.0213 H   0  0  0  0  0  0  0  0  0  0  0  0
   -7.6485    6.9080    9.1316 C   0  0  0  0  0  0  0  0  0  0  0  0
   -8.6192    7.3692    9.2155 H   0  0  0  0  0  0  0  0  0  0  0  0
   -7.4191    5.6657    9.6970 C   0  0  0  0  0  0  0  0  0  0  0  0
   -8.1977    5.1306   10.2273 H   0  0  0  0  0  0  0  0  0  0  0  0
   -2.8013    4.9826   11.5575 C   0  0  0  0  0  0  0  0  0  0  0  0
   -2.7303    4.2775   12.9124 C   0  0  0  0  0  0  0  0  0  0  0  0
   -2.0370    3.4423   12.9006 H   0  0  0  0  0  0  0  0  0  0  0  0
   -3.7198    3.9058   13.1796 H   0  0  0  0  0  0  0  0  0  0  0  0
   -2.4038    4.9771   13.6805 H   0  0  0  0  0  0  0  0  0  0  0  0
   -1.4198    5.4622   11.1261 C   0  0  0  0  0  0  0  0  0  0  0  0
   -1.0676    6.2189   11.8267 H   0  0  0  0  0  0  0  0  0  0  0  0
   -1.4398    5.9121   10.1353 H   0  0  0  0  0  0  0  0  0  0  0  0
   -0.6996    4.6481   11.1296 H   0  0  0  0  0  0  0  0  0  0  0  0
   -3.7522    6.1737   11.7079 C   0  0  0  0  0  0  0  0  0  0  0  0
   -4.7633    5.8139   11.9218 H   0  0  0  0  0  0  0  0  0  0  0  0
   -3.7785    6.7911   10.8122 H   0  0  0  0  0  0  0  0  0  0  0  0
   -3.4364    6.8010   12.5402 H   0  0  0  0  0  0  0  0  0  0  0  0
   -2.5490    2.4849    9.6443 C   0  0  0  0  0  0  0  0  0  0  0  0
   -1.5153    2.9872    8.6362 C   0  0  0  0  0  0  0  0  0  0  0  0
   -0.8501    3.7255    9.0738 H   0  0  0  0  0  0  0  0  0  0  0  0
   -1.9799    3.4179    7.7533 H   0  0  0  0  0  0  0  0  0  0  0  0
   -0.9078    2.1444    8.3078 H   0  0  0  0  0  0  0  0  0  0  0  0
   -1.8355    1.7386   10.7699 C   0  0  0  0  0  0  0  0  0  0  0  0
   -2.5442    1.4416   11.5386 H   0  0  0  0  0  0  0  0  0  0  0  0
   -1.0562    2.3494   11.2192 H   0  0  0  0  0  0  0  0  0  0  0  0
   -1.3663    0.8380   10.3756 H   0  0  0  0  0  0  0  0  0  0  0  0
   -3.5244    1.5230    8.9571 C   0  0  0  0  0  0  0  0  0  0  0  0
   -3.0066    0.6215    8.6343 H   0  0  0  0  0  0  0  0  0  0  0  0
   -3.9825    1.9767    8.0796 H   0  0  0  0  0  0  0  0  0  0  0  0
   -4.3213    1.2392    9.6487 H   0  0  0  0  0  0  0  0  0  0  0  0
  1  2  1  6  0  0  0
  1  5  1  0  0  0  0
  3  1  1  0  0  0  0
  3 21  1  0  0  0  0
  4 19  1  0  0  0  0
  4  1  1  0  0  0  0
  5  6  1  0  0  0  0
  5  8  1  0  0  0  0
  7  5  1  0  0  0  0
  9 12  1  0  0  0  0
  9  3  1  0  0  0  0
 10  9  1  0  0  0  0
 11  9  1  0  0  0  0
 12 13  1  6  0  0  0
 12  4  1  0  0  0  0
 13 15  2  0  0  0  0
 14 13  1  0  0  0  0
 15 17  1  0  0  0  0
 16 15  1  0  0  0  0
 17 18  1  0  0  0  0
 17 19  2  0  0  0  0
 19 20  1  0  0  0  0
 21 30  1  0  0  0  0
 21 22  1  0  0  0  0
 22 24  1  0  0  0  0
 22 25  1  0  0  0  0
 23 22  1  0  0  0  0
 26 29  1  0  0  0  0
 26 21  1  0  0  0  0
 26 27  1  0  0  0  0
 28 26  1  0  0  0  0
 30 31  1  0  0  0  0
 30 33  1  0  0  0  0
 32 30  1  0  0  0  0
 34  3  1  0  0  0  0
 34 39  1  0  0  0  0
 35 36  1  0  0  0  0
 35 34  1  0  0  0  0
 37 35  1  0  0  0  0
 38 35  1  0  0  0  0
 39 41  1  0  0  0  0
 39 40  1  0  0  0  0
 42 39  1  0  0  0  0
 43 34  1  0  0  0  0
 43 46  1  0  0  0  0
 44 43  1  0  0  0  0
 45 43  1  0  0  0  0
M  END
$$$$
