CSD_code = COXKEG | q = 0 | S = 0 | Stoichiometry = C11H12Cl3N2ORh | MND = 6
 OpenBabel04212202023D

 30 31  0  0  0  0  0  0  0  0999 V2000
    0.3551    2.2528    9.6078 Rh  0  0  0  0  0  0  0  0  0  0  0  0
   -0.1630    0.7656   10.8070 N   0  0  0  0  0  0  0  0  0  0  0  0
   -1.0164    1.4867    8.5209 N   0  0  0  0  0  0  0  0  0  0  0  0
   -1.1892    0.0193   10.3599 C   0  0  0  0  0  0  0  0  0  0  0  0
   -1.6944   -1.0326   11.1204 C   0  0  0  0  0  0  0  0  0  0  0  0
   -0.0630   -0.5304   12.7887 C   0  0  0  0  0  0  0  0  0  0  0  0
    0.4087   -0.7172   13.7397 H   0  0  0  0  0  0  0  0  0  0  0  0
   -1.6713    0.4258    9.0458 C   0  0  0  0  0  0  0  0  0  0  0  0
   -1.1255   -1.3092   12.3495 C   0  0  0  0  0  0  0  0  0  0  0  0
    0.3871    0.4998   11.9838 C   0  0  0  0  0  0  0  0  0  0  0  0
    1.2120    1.1337   12.2825 H   0  0  0  0  0  0  0  0  0  0  0  0
   -2.7011   -0.1969    8.3468 C   0  0  0  0  0  0  0  0  0  0  0  0
   -3.0594    0.2718    7.0970 C   0  0  0  0  0  0  0  0  0  0  0  0
   -3.8563   -0.1990    6.5430 H   0  0  0  0  0  0  0  0  0  0  0  0
   -2.3716    1.3572    6.5733 C   0  0  0  0  0  0  0  0  0  0  0  0
   -2.6132    1.7567    5.6019 H   0  0  0  0  0  0  0  0  0  0  0  0
   -1.3589    1.9359    7.3153 C   0  0  0  0  0  0  0  0  0  0  0  0
    1.9850    0.8893    8.6643 Cl  0  0  0  0  0  0  0  0  0  0  0  0
   -1.2638    3.5373   10.6708 Cl  0  0  0  0  0  0  0  0  0  0  0  0
    0.9552    3.9727    8.2458 Cl  0  0  0  0  0  0  0  0  0  0  0  0
    2.0049    3.0116   10.8670 O   0  0  0  0  0  0  0  0  0  0  0  0
    1.9402    4.3329   11.4001 C   0  0  0  0  0  0  0  0  0  0  0  0
    1.7985    5.0751   10.6116 H   0  0  0  0  0  0  0  0  0  0  0  0
    2.8606    4.5440   11.9518 H   0  0  0  0  0  0  0  0  0  0  0  0
    1.0860    4.3669   12.0752 H   0  0  0  0  0  0  0  0  0  0  0  0
   -1.5025   -2.1180   12.9561 H   0  0  0  0  0  0  0  0  0  0  0  0
   -0.8051    2.7867    6.9375 H   0  0  0  0  0  0  0  0  0  0  0  0
   -3.2129   -1.0394    8.7824 H   0  0  0  0  0  0  0  0  0  0  0  0
   -2.5199   -1.6214   10.7555 H   0  0  0  0  0  0  0  0  0  0  0  0
    2.7216    2.9892   10.2068 H   0  0  0  0  0  0  0  0  0  0  0  0
  1 19  1  0  0  0  0
  1  2  1  0  0  0  0
  2 10  1  0  0  0  0
  3  8  1  0  0  0  0
  3  1  1  0  0  0  0
  4  2  1  0  0  0  0
  4  5  1  0  0  0  0
  5  9  2  0  0  0  0
  6  7  1  0  0  0  0
  8  4  2  0  0  0  0
  9  6  1  0  0  0  0
  9 26  1  0  0  0  0
 10 11  1  0  0  0  0
 10  6  2  0  0  0  0
 12 28  1  0  0  0  0
 12  8  1  0  0  0  0
 13 12  2  0  0  0  0
 14 13  1  0  0  0  0
 15 13  1  0  0  0  0
 15 17  2  0  0  0  0
 16 15  1  0  0  0  0
 17  3  1  0  0  0  0
 18  1  1  0  0  0  0
 20  1  1  0  0  0  0
 21 22  1  0  0  0  0
 22 24  1  0  0  0  0
 22 25  1  0  0  0  0
 23 22  1  0  0  0  0
 27 17  1  0  0  0  0
 29  5  1  0  0  0  0
 30 21  1  0  0  0  0
M  END
$$$$
