CSD_code = COXNOS | q = 0 | S = 0 | Stoichiometry = C11H10ClNbO | MND = 12
 OpenBabel04212202023D

 24 24  0  0  1  0  0  0  0  0999 V2000
    2.2577    2.1704    0.4529 Nb  0  0  0  0  0  0  0  0  0  0  0  0
    2.0502    0.7511   -1.5259 Cl  0  0  0  0  0 15  0  0  0  0  0  0
   -0.7110    3.1633    0.2068 O   0  0  0  0  0  1  0  0  0  0  0  0
    2.7716    4.5397    0.4163 C   0  0  0  0  0  0  0  0  0  0  0  0
    2.6279    4.1895   -0.9623 C   0  0  0  0  0  0  0  0  0  0  0  0
    3.7054    3.3410   -1.3054 C   0  0  0  0  0  0  0  0  0  0  0  0
    4.4681    3.1072   -0.1539 C   0  0  0  0  0  0  0  0  0  0  0  0
    3.9061    3.8648    0.9082 C   0  0  2  0  0  0  0  0  0  0  0  0
    2.9954    1.5478    2.6554 C   0  0  1  0  0  0  0  0  0  0  0  0
    1.5870    1.5436    2.6957 C   0  0  0  0  0  0  0  0  0  0  0  0
    1.1378    0.4578    1.8813 C   0  0  0  0  0  0  0  0  0  0  0  0
    2.2806   -0.2149    1.3917 C   0  0  0  0  0  0  0  0  0  0  0  0
    3.4200    0.4724    1.8298 C   0  0  0  0  0  0  0  0  0  0  0  0
    0.3697    2.7597    0.2428 C   0  0  0  0  0  2  0  0  0  0  0  0
    2.2233    5.3205    0.9270 H   0  0  0  0  0  0  0  0  0  0  0  0
    1.9481    4.6592   -1.6641 H   0  0  0  0  0  0  0  0  0  0  0  0
    3.9161    2.9638   -2.2968 H   0  0  0  0  0  0  0  0  0  0  0  0
    5.4103    2.5756   -0.1197 H   0  0  0  0  0  0  0  0  0  0  0  0
    4.3756    4.0506    1.8653 H   0  0  0  0  0  0  0  0  0  0  0  0
    3.6365    2.1370    3.2980 H   0  0  0  0  0  0  0  0  0  0  0  0
    0.9671    2.1271    3.3637 H   0  0  0  0  0  0  0  0  0  0  0  0
    0.1196    0.0900    1.8276 H   0  0  0  0  0  0  0  0  0  0  0  0
    2.2703   -1.1223    0.8036 H   0  0  0  0  0  0  0  0  0  0  0  0
    4.4428    0.1446    1.6977 H   0  0  0  0  0  0  0  0  0  0  0  0
  1  8  1  0  0  0  0
  1  9  1  0  0  0  0
  3 14  1  0  0  0  0
  4  8  1  0  0  0  0
  4 15  1  0  0  0  0
  5  4  2  0  0  0  0
  6  5  1  0  0  0  0
  6  7  2  0  0  0  0
  7 18  1  0  0  0  0
  7  8  1  0  0  0  0
  8 19  1  1  0  0  0
  9 10  1  0  0  0  0
  9 20  1  1  0  0  0
 10 21  1  0  0  0  0
 11 10  2  0  0  0  0
 12 13  2  0  0  0  0
 12 11  1  0  0  0  0
 13  9  1  0  0  0  0
 14  1  1  0  0  0  0
 16  5  1  0  0  0  0
 17  6  1  0  0  0  0
 22 11  1  0  0  0  0
 23 12  1  0  0  0  0
 24 13  1  0  0  0  0
M  END
$$$$
