CSD_code = COXNAG | q = 0 | S = 0 | Stoichiometry = C12H9ClN3O3Re | MND = 6
 OpenBabel04212202023D

 29 31  0  0  1  0  0  0  0  0999 V2000
    4.2499    4.6150    3.0676 Re  0  0  0  0  0  0  0  0  0  0  0  0
    4.4025    6.7280    3.0089 C   0  0  2  0  0  3  0  0  0  0  0  0
    2.3960    5.1421    1.6215 Cl  0  0  0  0  0  0  0  0  0  0  0  0
    3.4637    8.7265    3.4465 C   0  0  0  0  0  0  0  0  0  0  0  0
    2.7871    9.4349    3.8751 H   0  0  0  0  0  0  0  0  0  0  0  0
    3.4244    7.3774    3.7086 N   0  0  0  0  0  0  0  0  0  0  0  0
    5.4009    4.1467    1.5739 C   0  0  0  0  0  2  0  0  0  0  0  0
    3.5203    2.7962    3.0634 C   0  0  0  0  0  2  0  0  0  0  0  0
    2.9593    1.8053    2.9970 O   0  0  0  0  0  1  0  0  0  0  0  0
    6.0256    3.8786    0.6469 O   0  0  0  0  0  1  0  0  0  0  0  0
    5.0383    7.6846    2.3221 N   0  0  0  0  0  0  0  0  0  0  0  0
    2.7728    5.3454    4.5602 N   0  0  0  0  0  0  0  0  0  0  0  0
    4.4808    8.9123    2.5777 C   0  0  0  0  0  0  0  0  0  0  0  0
    4.8431    9.8112    2.1222 H   0  0  0  0  0  0  0  0  0  0  0  0
    0.6407    6.4686    5.9342 C   0  0  0  0  0  0  0  0  0  0  0  0
   -0.1949    6.9050    6.4591 H   0  0  0  0  0  0  0  0  0  0  0  0
    2.5356    6.6627    4.5006 C   0  0  2  0  0  3  0  0  0  0  0  0
    1.9668    4.5924    5.3020 C   0  0  0  0  0  0  0  0  0  0  0  0
    2.1937    3.5351    5.3327 H   0  0  0  0  0  0  0  0  0  0  0  0
    1.4784    7.2641    5.1760 C   0  0  0  0  0  0  0  0  0  0  0  0
    1.3081    8.3250    5.0969 H   0  0  0  0  0  0  0  0  0  0  0  0
    6.1655    7.4768    1.4538 C   0  0  0  0  0  0  0  0  0  0  0  0
    7.0881    7.4191    2.0352 H   0  0  0  0  0  0  0  0  0  0  0  0
    6.2354    8.3002    0.7453 H   0  0  0  0  0  0  0  0  0  0  0  0
    6.0395    6.5409    0.9121 H   0  0  0  0  0  0  0  0  0  0  0  0
    0.8924    5.1059    6.0038 C   0  0  0  0  0  0  0  0  0  0  0  0
    0.2639    4.4509    6.5842 H   0  0  0  0  0  0  0  0  0  0  0  0
    6.4430    4.1355    5.1931 O   0  0  0  0  0  1  0  0  0  0  0  0
    5.6365    4.2990    4.3871 C   0  0  0  0  0  2  0  0  0  0  0  0
  1 29  1  0  0  0  0
  1 12  1  0  0  0  0
  2 11  1  6  0  0  0
  2  1  1  0  0  0  0
  2  6  1  0  0  0  0
  3  1  1  0  0  0  0
  4  6  1  0  0  0  0
  4  5  1  0  0  0  0
  6 17  1  0  0  0  0
  7  1  1  0  0  0  0
  8  1  1  0  0  0  0
  9  8  1  0  0  0  0
 10  7  1  0  0  0  0
 11 13  1  0  0  0  0
 12 18  1  0  0  0  0
 13  4  2  0  0  0  0
 14 13  1  0  0  0  0
 15 26  1  0  0  0  0
 15 16  1  0  0  0  0
 17 12  1  0  0  0  0
 17 20  1  6  0  0  0
 18 19  1  0  0  0  0
 18 26  2  0  0  0  0
 20 15  2  0  0  0  0
 21 20  1  0  0  0  0
 22 23  1  0  0  0  0
 22 11  1  0  0  0  0
 24 22  1  0  0  0  0
 25 22  1  0  0  0  0
 26 27  1  0  0  0  0
 29 28  1  0  0  0  0
M  END
$$$$
