CSD_code = COXRAI | q = 0 | S = 0 | Stoichiometry = C30H21BrN2O4PRe | MND = 6
 OpenBabel04212202023D

 60 64  0  0  1  0  0  0  0  0999 V2000
    0.9216    0.5461    3.2611 Re  0  0  0  0  0  0  0  0  0  0  0  0
    0.4942   -1.7180    4.4881 Br  0  0  0  0  0  0  0  0  0  0  0  0
   -1.5199    0.8229    3.5819 P   0  0  1  0  0  4  0  0  0  0  0  0
    1.1922    1.3617    5.0372 C   0  0  0  0  0  2  0  0  0  0  0  0
    0.4177   -0.4350    1.6219 C   0  0  0  0  0  2  0  0  0  0  0  0
    1.2482    2.1964    2.2596 C   0  0  0  0  0  2  0  0  0  0  0  0
    2.8069   -0.0099    3.1458 C   0  0  0  0  0  2  0  0  0  0  0  0
    1.2628    1.7749    6.0947 O   0  0  0  0  0  1  0  0  0  0  0  0
    0.0339   -1.0603    0.7531 O   0  0  0  0  0  1  0  0  0  0  0  0
    1.5240    3.1074    1.6282 O   0  0  0  0  0  1  0  0  0  0  0  0
    3.8723   -0.4094    3.1159 O   0  0  0  0  0  1  0  0  0  0  0  0
   -2.3094    1.8167    2.4285 N   0  0  0  0  0  0  0  0  0  0  0  0
   -3.0978    1.1483    1.5482 N   0  0  0  0  0  2  0  0  0  0  0  0
   -3.2745   -0.0844    1.8301 C   0  0  1  0  0  3  0  0  0  0  0  0
   -2.5878   -0.6185    3.0780 C   0  0  2  0  0  0  0  0  0  0  0  0
   -3.5586   -0.9830    4.1698 C   0  0  0  0  0  0  0  0  0  0  0  0
   -3.2558   -2.0018    5.0644 C   0  0  0  0  0  0  0  0  0  0  0  0
   -4.1222   -2.2927    6.1026 C   0  0  0  0  0  0  0  0  0  0  0  0
   -5.2949   -1.5733    6.2551 C   0  0  0  0  0  0  0  0  0  0  0  0
   -5.6045   -0.5639    5.3598 C   0  0  0  0  0  0  0  0  0  0  0  0
   -4.7401   -0.2670    4.3227 C   0  0  0  0  0  0  0  0  0  0  0  0
   -4.1130   -0.9336    1.0066 C   0  0  0  0  0  0  0  0  0  0  0  0
   -4.3407   -2.2717    1.3322 C   0  0  0  0  0  0  0  0  0  0  0  0
   -5.1397   -3.0573    0.5231 C   0  0  0  0  0  0  0  0  0  0  0  0
   -5.7206   -2.5272   -0.6168 C   0  0  0  0  0  0  0  0  0  0  0  0
   -5.5005   -1.1985   -0.9477 C   0  0  0  0  0  0  0  0  0  0  0  0
   -4.7050   -0.4072   -0.1458 C   0  0  0  0  0  0  0  0  0  0  0  0
   -1.8981    3.1149    2.1312 C   0  0  0  0  0  0  0  0  0  0  0  0
   -2.2642    3.7282    0.9362 C   0  0  0  0  0  0  0  0  0  0  0  0
   -1.8483    5.0191    0.6765 C   0  0  0  0  0  0  0  0  0  0  0  0
   -1.0712    5.7081    1.5943 C   0  0  0  0  0  0  0  0  0  0  0  0
   -0.7126    5.0999    2.7851 C   0  0  0  0  0  0  0  0  0  0  0  0
   -1.1226    3.8085    3.0571 C   0  0  0  0  0  0  0  0  0  0  0  0
   -2.2022    1.3174    5.1921 C   0  0  0  0  0  0  0  0  0  0  0  0
   -3.1500    2.3300    5.2978 C   0  0  0  0  0  0  0  0  0  0  0  0
   -3.6924    2.6305    6.5330 C   0  0  0  0  0  0  0  0  0  0  0  0
   -3.2997    1.9248    7.6585 C   0  0  0  0  0  0  0  0  0  0  0  0
   -2.3550    0.9177    7.5529 C   0  0  0  0  0  0  0  0  0  0  0  0
   -1.8018    0.6131    6.3236 C   0  0  0  0  0  0  0  0  0  0  0  0
   -2.3359   -2.5582    4.9567 H   0  0  0  0  0  0  0  0  0  0  0  0
   -3.8750   -3.0827    6.7954 H   0  0  0  0  0  0  0  0  0  0  0  0
   -5.9677   -1.7988    7.0690 H   0  0  0  0  0  0  0  0  0  0  0  0
   -6.5195   -0.0010    5.4702 H   0  0  0  0  0  0  0  0  0  0  0  0
   -4.9872    0.5212    3.6249 H   0  0  0  0  0  0  0  0  0  0  0  0
   -3.9033   -2.7018    2.2200 H   0  0  0  0  0  0  0  0  0  0  0  0
   -5.3089   -4.0912    0.7852 H   0  0  0  0  0  0  0  0  0  0  0  0
   -6.3426   -3.1465   -1.2457 H   0  0  0  0  0  0  0  0  0  0  0  0
   -5.9519   -0.7814   -1.8358 H   0  0  0  0  0  0  0  0  0  0  0  0
   -4.5246    0.6272   -0.3917 H   0  0  0  0  0  0  0  0  0  0  0  0
   -2.8656    3.1794    0.2294 H   0  0  0  0  0  0  0  0  0  0  0  0
   -2.1296    5.4899   -0.2534 H   0  0  0  0  0  0  0  0  0  0  0  0
   -0.7458    6.7147    1.3824 H   0  0  0  0  0  0  0  0  0  0  0  0
   -0.1087    5.6290    3.5068 H   0  0  0  0  0  0  0  0  0  0  0  0
   -0.8516    3.3351    3.9952 H   0  0  0  0  0  0  0  0  0  0  0  0
   -3.4604    2.8806    4.4212 H   0  0  0  0  0  0  0  0  0  0  0  0
   -4.4270    3.4178    6.6152 H   0  0  0  0  0  0  0  0  0  0  0  0
   -3.7308    2.1613    8.6197 H   0  0  0  0  0  0  0  0  0  0  0  0
   -2.0480    0.3645    8.4274 H   0  0  0  0  0  0  0  0  0  0  0  0
   -1.0734   -0.1816    6.2449 H   0  0  0  0  0  0  0  0  0  0  0  0
   -1.9567   -1.4845    2.8449 H   0  0  0  0  0  0  0  0  0  0  0  0
  1  2  1  0  0  0  0
  1  4  1  0  0  0  0
  3  1  1  6  0  0  0
  3 34  1  0  0  0  0
  4  8  1  0  0  0  0
  5  1  1  0  0  0  0
  6  1  1  0  0  0  0
  7  1  1  0  0  0  0
  9  5  1  0  0  0  0
 10  6  1  0  0  0  0
 11  7  1  0  0  0  0
 12  3  1  0  0  0  0
 13 14  1  0  0  0  0
 13 12  1  0  0  0  0
 14 22  1  1  0  0  0
 14 15  1  0  0  0  0
 15 60  1  6  0  0  0
 15  3  1  0  0  0  0
 15 16  1  0  0  0  0
 16 21  2  0  0  0  0
 16 17  1  0  0  0  0
 17 18  2  0  0  0  0
 18 19  1  0  0  0  0
 18 41  1  0  0  0  0
 19 42  1  0  0  0  0
 20 43  1  0  0  0  0
 20 19  2  0  0  0  0
 21 20  1  0  0  0  0
 22 23  1  0  0  0  0
 23 45  1  0  0  0  0
 24 46  1  0  0  0  0
 24 23  2  0  0  0  0
 25 24  1  0  0  0  0
 26 25  2  0  0  0  0
 26 27  1  0  0  0  0
 27 22  2  0  0  0  0
 28 12  1  0  0  0  0
 28 33  1  0  0  0  0
 29 28  2  0  0  0  0
 30 29  1  0  0  0  0
 30 31  2  0  0  0  0
 31 32  1  0  0  0  0
 32 33  2  0  0  0  0
 32 53  1  0  0  0  0
 33 54  1  0  0  0  0
 34 35  2  0  0  0  0
 34 39  1  0  0  0  0
 35 36  1  0  0  0  0
 36 56  1  0  0  0  0
 36 37  2  0  0  0  0
 37 57  1  0  0  0  0
 38 37  1  0  0  0  0
 38 58  1  0  0  0  0
 39 38  2  0  0  0  0
 40 17  1  0  0  0  0
 44 21  1  0  0  0  0
 47 25  1  0  0  0  0
 48 26  1  0  0  0  0
 49 27  1  0  0  0  0
 50 29  1  0  0  0  0
 51 30  1  0  0  0  0
 52 31  1  0  0  0  0
 55 35  1  0  0  0  0
 59 39  1  0  0  0  0
M  END
$$$$
