CSD_code = COXVER | q = 0 | S = 0 | Stoichiometry = C24H27Br2N3Ni | MND = 4
 OpenBabel04212202023D

 57 60  0  0  1  0  0  0  0  0999 V2000
    6.0230    1.9013    6.7859 Br  0  0  0  0  0  0  0  0  0  0  0  0
    6.5426    4.8440    9.8353 Br  0  0  0  0  0  0  0  0  0  0  0  0
    6.7003    2.9415    8.6891 Ni  0  0  0  0  0  0  0  0  0  0  0  0
    6.7074    1.4431   10.9354 C   0  0  0  0  0  0  0  0  0  0  0  0
    7.2512    1.4751    9.6281 N   0  0  0  0  0  0  0  0  0  0  0  0
    8.9045    0.7537    8.1295 N   0  0  0  0  0  0  0  0  0  0  0  0
    9.2982   -0.0975    7.7527 H   0  0  0  0  0  0  0  0  0  0  0  0
    6.9733    1.7984   13.2907 C   0  0  0  0  0  0  0  0  0  0  0  0
    7.5910    2.0584   14.1358 H   0  0  0  0  0  0  0  0  0  0  0  0
    7.5352    1.7771   12.0225 C   0  0  0  0  0  0  0  0  0  0  0  0
    9.3128    1.9189    7.4975 C   0  0  1  0  0  3  0  0  0  0  0  0
    4.4463    0.7916    9.9654 C   0  0  0  0  0  0  0  0  0  0  0  0
    5.0616    0.4553    9.1229 H   0  0  0  0  0  0  0  0  0  0  0  0
    8.1281    0.6042    9.2439 C   0  0  2  0  0  3  0  0  0  0  0  0
    8.9047    3.0855    7.9964 N   0  0  0  0  0  0  0  0  0  0  0  0
    9.6954   -1.1012   10.1269 C   0  0  0  0  0  0  0  0  0  0  0  0
   10.5141   -0.4977    9.7612 H   0  0  0  0  0  0  0  0  0  0  0  0
    5.3492    1.1321   11.1304 C   0  0  0  0  0  0  0  0  0  0  0  0
    9.3628    4.2066    7.4473 C   0  0  0  0  0  0  0  0  0  0  0  0
    9.0176    5.1255    7.9039 H   0  0  0  0  0  0  0  0  0  0  0  0
    8.3806   -0.6616    9.9679 C   0  0  0  0  0  0  0  0  0  0  0  0
   10.2214    4.2175    6.3636 C   0  0  0  0  0  0  0  0  0  0  0  0
   10.5565    5.1515    5.9438 H   0  0  0  0  0  0  0  0  0  0  0  0
   10.1772    1.8303    6.4055 C   0  0  0  0  0  0  0  0  0  0  0  0
   10.4731    0.8660    6.0222 H   0  0  0  0  0  0  0  0  0  0  0  0
    7.3399   -1.4391   10.4673 C   0  0  0  0  0  0  0  0  0  0  0  0
    6.3195   -1.1290   10.3219 H   0  0  0  0  0  0  0  0  0  0  0  0
   10.6243    3.0017    5.8271 C   0  0  0  0  0  0  0  0  0  0  0  0
   11.2820    2.9680    4.9718 H   0  0  0  0  0  0  0  0  0  0  0  0
    8.9196   -3.0502   11.2890 C   0  0  0  0  0  0  0  0  0  0  0  0
    9.1279   -3.9747   11.8055 H   0  0  0  0  0  0  0  0  0  0  0  0
    9.9605   -2.2858   10.7883 C   0  0  0  0  0  0  0  0  0  0  0  0
   10.9823   -2.6100   10.9157 H   0  0  0  0  0  0  0  0  0  0  0  0
    5.6388    1.5089   13.4920 C   0  0  0  0  0  0  0  0  0  0  0  0
    5.2216    1.5452   14.4869 H   0  0  0  0  0  0  0  0  0  0  0  0
    9.2189    3.6041   12.2919 C   0  0  0  0  0  0  0  0  0  0  0  0
    8.5814    4.2732   11.7216 H   0  0  0  0  0  0  0  0  0  0  0  0
   10.2559    3.8826   12.1177 H   0  0  0  0  0  0  0  0  0  0  0  0
    8.9972    3.7399   13.3469 H   0  0  0  0  0  0  0  0  0  0  0  0
    8.9913    2.1514   11.8647 C   0  0  0  0  0  0  0  0  0  0  0  0
    9.2797    2.0731   10.8115 H   0  0  0  0  0  0  0  0  0  0  0  0
    4.8358    1.1807   12.4165 C   0  0  0  0  0  0  0  0  0  0  0  0
    3.7933    0.9613   12.5809 H   0  0  0  0  0  0  0  0  0  0  0  0
    3.7008    2.0579    9.5310 C   0  0  0  0  0  0  0  0  0  0  0  0
    4.4174    2.8414    9.2415 H   0  0  0  0  0  0  0  0  0  0  0  0
    3.0906    2.4448   10.3441 H   0  0  0  0  0  0  0  0  0  0  0  0
    3.0673    1.8457    8.6730 H   0  0  0  0  0  0  0  0  0  0  0  0
    9.8861    1.2104   12.6762 C   0  0  0  0  0  0  0  0  0  0  0  0
    9.6732    0.1693   12.4415 H   0  0  0  0  0  0  0  0  0  0  0  0
    9.7328    1.3572   13.7419 H   0  0  0  0  0  0  0  0  0  0  0  0
   10.9323    1.4105   12.4549 H   0  0  0  0  0  0  0  0  0  0  0  0
    3.4523   -0.3262   10.2852 C   0  0  0  0  0  0  0  0  0  0  0  0
    2.9903   -0.6717    9.3634 H   0  0  0  0  0  0  0  0  0  0  0  0
    2.6613    0.0235   10.9435 H   0  0  0  0  0  0  0  0  0  0  0  0
    3.9475   -1.1716   10.7603 H   0  0  0  0  0  0  0  0  0  0  0  0
    7.6118   -2.6260   11.1222 C   0  0  0  0  0  0  0  0  0  0  0  0
    6.7969   -3.2232   11.5015 H   0  0  0  0  0  0  0  0  0  0  0  0
  1  3  1  0  0  0  0
  3  5  1  0  0  0  0
  3  2  1  0  0  0  0
  4 18  2  0  0  0  0
  4 10  1  0  0  0  0
  5  4  1  0  0  0  0
  6 14  1  0  0  0  0
  7  6  1  0  0  0  0
  8 34  1  0  0  0  0
  8  9  1  0  0  0  0
 10  8  2  0  0  0  0
 11 24  1  1  0  0  0
 11 15  1  0  0  0  0
 11  6  1  0  0  0  0
 12 52  1  0  0  0  0
 12 18  1  0  0  0  0
 13 12  1  0  0  0  0
 14  5  1  0  0  0  0
 14 21  1  6  0  0  0
 15  3  1  0  0  0  0
 16 32  1  0  0  0  0
 17 16  1  0  0  0  0
 18 42  1  0  0  0  0
 19 20  1  0  0  0  0
 19 15  1  0  0  0  0
 21 16  2  0  0  0  0
 21 26  1  0  0  0  0
 22 19  2  0  0  0  0
 23 22  1  0  0  0  0
 25 24  1  0  0  0  0
 26 56  2  0  0  0  0
 27 26  1  0  0  0  0
 28 22  1  0  0  0  0
 28 24  2  0  0  0  0
 29 28  1  0  0  0  0
 30 31  1  0  0  0  0
 32 33  1  0  0  0  0
 32 30  2  0  0  0  0
 34 35  1  0  0  0  0
 36 39  1  0  0  0  0
 37 36  1  0  0  0  0
 38 36  1  0  0  0  0
 40 10  1  0  0  0  0
 40 36  1  0  0  0  0
 40 48  1  0  0  0  0
 41 40  1  0  0  0  0
 42 43  1  0  0  0  0
 42 34  2  0  0  0  0
 44 12  1  0  0  0  0
 44 46  1  0  0  0  0
 45 44  1  0  0  0  0
 47 44  1  0  0  0  0
 48 50  1  0  0  0  0
 49 48  1  0  0  0  0
 51 48  1  0  0  0  0
 52 55  1  0  0  0  0
 52 54  1  0  0  0  0
 53 52  1  0  0  0  0
 56 30  1  0  0  0  0
 56 57  1  0  0  0  0
M  END
$$$$
