CSD_code = COYDOK | q = 0 | S = 0 | Stoichiometry = C10H18Cl2N2Pt | MND = 4
 OpenBabel04212202023D

 33 36  0  0  1  0  0  0  0  0999 V2000
    5.0081    5.5353    2.3263 Pt  0  0  0  0  0  0  0  0  0  0  0  0
    7.2262    5.8550    2.1896 Cl  0  0  0  0  0  0  0  0  0  0  0  0
    5.2112    3.3032    2.3317 Cl  0  0  0  0  0  0  0  0  0  0  0  0
    2.8731    5.4933    2.4466 N   0  0  1  0  0  4  0  0  0  0  0  0
    4.7159    7.6179    2.3275 N   0  0  0  0  0  4  0  0  0  0  0  0
    5.5220    8.0500    2.7783 H   0  0  0  0  0  0  0  0  0  0  0  0
    4.6716    7.9690    1.3719 H   0  0  0  0  0  0  0  0  0  0  0  0
    2.3575    6.8849    2.6015 C   0  0  1  0  0  0  0  0  0  0  0  0
    1.7872    7.2589    1.2281 C   0  0  0  0  0  0  0  0  0  0  0  0
    1.0013    8.0083    1.3121 H   0  0  0  0  0  0  0  0  0  0  0  0
    2.5726    7.6539    0.5813 H   0  0  0  0  0  0  0  0  0  0  0  0
    1.2928    5.9276    0.6752 C   0  0  0  0  0  0  0  0  0  0  0  0
    1.2127    5.9305   -0.4098 H   0  0  0  0  0  0  0  0  0  0  0  0
    0.3152    5.6775    1.0877 H   0  0  0  0  0  0  0  0  0  0  0  0
    2.3552    4.9394    1.1649 C   0  0  2  0  0  0  0  0  0  0  0  0
    3.1734    4.8858    0.4368 H   0  0  0  0  0  0  0  0  0  0  0  0
    1.8319    3.5494    1.5071 C   0  0  0  0  0  0  0  0  0  0  0  0
    1.0757    3.2137    0.8004 H   0  0  0  0  0  0  0  0  0  0  0  0
    2.6653    2.8470    1.5115 H   0  0  0  0  0  0  0  0  0  0  0  0
    1.3024    3.7212    2.9254 C   0  0  0  0  0  0  0  0  0  0  0  0
    1.2416    2.7772    3.4610 H   0  0  0  0  0  0  0  0  0  0  0  0
    0.3115    4.1788    2.9206 H   0  0  0  0  0  0  0  0  0  0  0  0
    2.3337    4.6601    3.5575 C   0  0  2  0  0  0  0  0  0  0  0  0
    3.1494    4.0663    3.9787 H   0  0  0  0  0  0  0  0  0  0  0  0
    1.7502    5.6430    4.5687 C   0  0  0  0  0  0  0  0  0  0  0  0
    0.9419    5.1944    5.1424 H   0  0  0  0  0  0  0  0  0  0  0  0
    2.5201    5.9736    5.2662 H   0  0  0  0  0  0  0  0  0  0  0  0
    1.2801    6.8021    3.6954 C   0  0  0  0  0  0  0  0  0  0  0  0
    1.1895    7.7370    4.2463 H   0  0  0  0  0  0  0  0  0  0  0  0
    0.3103    6.5744    3.2539 H   0  0  0  0  0  0  0  0  0  0  0  0
    3.4714    7.8500    3.0600 C   0  0  0  0  0  0  0  0  0  0  0  0
    3.6767    7.6740    4.1192 H   0  0  0  0  0  0  0  0  0  0  0  0
    3.1131    8.8825    2.9440 H   0  0  0  0  0  0  0  0  0  0  0  0
  1  5  1  0  0  0  0
  1  3  1  0  0  0  0
  2  1  1  0  0  0  0
  4  1  1  1  0  0  0
  4  8  1  0  0  0  0
  4 23  1  0  0  0  0
  5  6  1  0  0  0  0
  5 31  1  0  0  0  0
  7  5  1  0  0  0  0
  8  9  1  6  0  0  0
  8 31  1  0  0  0  0
  8 28  1  0  0  0  0
  9 10  1  0  0  0  0
 11  9  1  0  0  0  0
 12 14  1  0  0  0  0
 12 15  1  0  0  0  0
 12  9  1  0  0  0  0
 13 12  1  0  0  0  0
 15 16  1  6  0  0  0
 15 17  1  0  0  0  0
 15  4  1  0  0  0  0
 17 19  1  0  0  0  0
 17 20  1  0  0  0  0
 18 17  1  0  0  0  0
 20 21  1  0  0  0  0
 20 23  1  0  0  0  0
 22 20  1  0  0  0  0
 23 24  1  1  0  0  0
 23 25  1  0  0  0  0
 25 26  1  0  0  0  0
 25 27  1  0  0  0  0
 28 29  1  0  0  0  0
 28 25  1  0  0  0  0
 30 28  1  0  0  0  0
 31 32  1  0  0  0  0
 33 31  1  0  0  0  0
M  END
$$$$
