CSD_code = COYJUW | q = 0 | S = 0 | Stoichiometry = C24H32Cl2N6O4Zn | MND = 4
 OpenBabel04212202023D

 69 72  0  0  0  0  0  0  0  0999 V2000
    1.4255   12.4714   12.0950 Zn  0  0  0  0  0  0  0  0  0  0  0  0
   -0.0826   13.6187   10.9552 Cl  0  0  0  0  0  0  0  0  0  0  0  0
    2.9505   12.8406   13.6329 Cl  0  0  0  0  0  0  0  0  0  0  0  0
    2.7997    5.8113   10.6864 O   0  0  0  0  0  1  0  0  0  0  0  0
    5.4061    9.1886   12.3748 O   0  0  0  0  0  1  0  0  0  0  0  0
    2.5454    8.0288   14.8856 O   0  0  0  0  0  1  0  0  0  0  0  0
   -0.9691    8.9534   17.7227 O   0  0  0  0  0  1  0  0  0  0  0  0
    2.0733   10.9343   10.7750 N   0  0  0  0  0  0  0  0  0  0  0  0
    3.6632    6.4363   11.3511 N   0  0  0  0  0  0  0  0  0  0  0  0
    4.9114    8.0603   12.1642 N   0  0  0  0  0  0  0  0  0  0  0  0
    0.1877   11.0371   13.1782 N   0  0  0  0  0  0  0  0  0  0  0  0
    1.8339    8.1432   15.9304 N   0  0  0  0  0  0  0  0  0  0  0  0
    0.1270    8.5342   17.2673 N   0  0  0  0  0  0  0  0  0  0  0  0
    2.2308    8.4227    9.6232 C   0  0  0  0  0  0  0  0  0  0  0  0
    2.2705    7.4326    9.1971 H   0  0  0  0  0  0  0  0  0  0  0  0
    1.3975    9.3941    9.0969 C   0  0  0  0  0  0  0  0  0  0  0  0
    0.7894    9.1867    8.2310 H   0  0  0  0  0  0  0  0  0  0  0  0
    1.3358   10.6335    9.7100 C   0  0  0  0  0  3  0  0  0  0  0  0
    0.6761   11.4144    9.3591 H   0  0  0  0  0  0  0  0  0  0  0  0
    2.9064   10.0314   11.2661 C   0  0  0  0  0  0  0  0  0  0  0  0
    3.5052   10.3402   12.1113 H   0  0  0  0  0  0  0  0  0  0  0  0
    3.0114    8.7431   10.7362 C   0  0  0  0  0  0  0  0  0  0  0  0
    3.8613    7.7613   11.3894 C   0  0  0  0  0  3  0  0  0  0  0  0
    5.5506    6.8401   12.6999 C   0  0  0  0  0  0  0  0  0  0  0  0
    5.7664    7.0605   14.1942 C   0  0  0  0  0  0  0  0  0  0  0  0
    6.4804    7.8696   14.3271 H   0  0  0  0  0  0  0  0  0  0  0  0
    6.1562    6.1618   14.6630 H   0  0  0  0  0  0  0  0  0  0  0  0
    4.8341    7.3590   14.6648 H   0  0  0  0  0  0  0  0  0  0  0  0
    6.9041    6.7177   11.9942 C   0  0  0  0  0  0  0  0  0  0  0  0
    7.4740    7.6238   12.1891 H   0  0  0  0  0  0  0  0  0  0  0  0
    6.7848    6.6224   10.9175 H   0  0  0  0  0  0  0  0  0  0  0  0
    7.4601    5.8652   12.3722 H   0  0  0  0  0  0  0  0  0  0  0  0
    4.5279    5.7418   12.3283 C   0  0  0  0  0  0  0  0  0  0  0  0
    3.5969    5.3382   13.4770 C   0  0  0  0  0  0  0  0  0  0  0  0
    2.8122    4.7015   13.0733 H   0  0  0  0  0  0  0  0  0  0  0  0
    3.1316    6.2154   13.9226 H   0  0  0  0  0  0  0  0  0  0  0  0
    4.1413    4.7843   14.2358 H   0  0  0  0  0  0  0  0  0  0  0  0
    5.1006    4.4854   11.6802 C   0  0  0  0  0  0  0  0  0  0  0  0
    4.2738    3.8511   11.3689 H   0  0  0  0  0  0  0  0  0  0  0  0
    5.7136    3.9412   12.3925 H   0  0  0  0  0  0  0  0  0  0  0  0
    5.6935    4.7149   10.8004 H   0  0  0  0  0  0  0  0  0  0  0  0
    0.7379   10.2450   14.0858 C   0  0  0  0  0  3  0  0  0  0  0  0
    1.8168   10.1936   14.0877 H   0  0  0  0  0  0  0  0  0  0  0  0
   -1.1367   11.1473   13.1319 C   0  0  0  0  0  0  0  0  0  0  0  0
   -1.5261   11.8060   12.3682 H   0  0  0  0  0  0  0  0  0  0  0  0
   -1.9686   10.4758   14.0120 C   0  0  0  0  0  0  0  0  0  0  0  0
   -3.0377   10.5991   13.9479 H   0  0  0  0  0  0  0  0  0  0  0  0
   -1.4073    9.6636   14.9800 C   0  0  0  0  0  0  0  0  0  0  0  0
   -2.0229    9.1541   15.7044 H   0  0  0  0  0  0  0  0  0  0  0  0
   -0.0167    9.5333   15.0190 C   0  0  0  0  0  0  0  0  0  0  0  0
    0.6375    8.7354   16.0451 C   0  0  0  0  0  3  0  0  0  0  0  0
    0.9870    7.6197   18.0494 C   0  0  0  0  0  0  0  0  0  0  0  0
    0.2933    6.2528   17.9921 C   0  0  0  0  0  0  0  0  0  0  0  0
   -0.7121    6.3610   18.3939 H   0  0  0  0  0  0  0  0  0  0  0  0
    0.8279    5.5201   18.5887 H   0  0  0  0  0  0  0  0  0  0  0  0
    0.2137    5.8948   16.9678 H   0  0  0  0  0  0  0  0  0  0  0  0
    1.0559    8.0933   19.4946 C   0  0  0  0  0  0  0  0  0  0  0  0
    1.4461    9.1033   19.5693 H   0  0  0  0  0  0  0  0  0  0  0  0
    1.6786    7.4230   20.0800 H   0  0  0  0  0  0  0  0  0  0  0  0
    0.0500    8.0944   19.9076 H   0  0  0  0  0  0  0  0  0  0  0  0
    2.3087    7.6792   17.2520 C   0  0  0  0  0  0  0  0  0  0  0  0
    3.0460    6.3515   17.1315 C   0  0  0  0  0  0  0  0  0  0  0  0
    2.4647    5.6187   16.5800 H   0  0  0  0  0  0  0  0  0  0  0  0
    3.2642    5.9639   18.1225 H   0  0  0  0  0  0  0  0  0  0  0  0
    3.9845    6.5058   16.6073 H   0  0  0  0  0  0  0  0  0  0  0  0
    3.2776    8.7616   17.7439 C   0  0  0  0  0  0  0  0  0  0  0  0
    4.0742    8.8781   17.0117 H   0  0  0  0  0  0  0  0  0  0  0  0
    3.7178    8.4809   18.6961 H   0  0  0  0  0  0  0  0  0  0  0  0
    2.7762    9.7213   17.8449 H   0  0  0  0  0  0  0  0  0  0  0  0
  1 11  1  0  0  0  0
  1  3  1  0  0  0  0
  2  1  1  0  0  0  0
  4  9  1  0  0  0  0
  6 12  1  0  0  0  0
  8 20  1  0  0  0  0
  8  1  1  0  0  0  0
  9 23  1  0  0  0  0
  9 33  1  0  0  0  0
 10  5  1  0  0  0  0
 10 24  1  0  0  0  0
 11 42  1  0  0  0  0
 12 51  1  0  0  0  0
 12 61  1  0  0  0  0
 13  7  1  0  0  0  0
 13 52  1  0  0  0  0
 14 22  1  0  0  0  0
 15 14  1  0  0  0  0
 16 14  2  0  0  0  0
 16 18  1  0  0  0  0
 17 16  1  0  0  0  0
 18  8  1  0  0  0  0
 19 18  1  0  0  0  0
 20 21  1  0  0  0  0
 22 20  2  0  0  0  0
 22 23  1  0  0  0  0
 23 10  1  0  0  0  0
 24 25  1  0  0  0  0
 25 26  1  0  0  0  0
 25 27  1  0  0  0  0
 25 28  1  0  0  0  0
 29 30  1  0  0  0  0
 29 32  1  0  0  0  0
 29 24  1  0  0  0  0
 31 29  1  0  0  0  0
 33 24  1  0  0  0  0
 33 34  1  0  0  0  0
 34 36  1  0  0  0  0
 34 37  1  0  0  0  0
 35 34  1  0  0  0  0
 38 33  1  0  0  0  0
 38 40  1  0  0  0  0
 39 38  1  0  0  0  0
 41 38  1  0  0  0  0
 42 43  1  0  0  0  0
 42 50  1  0  0  0  0
 44 11  1  0  0  0  0
 44 46  2  0  0  0  0
 45 44  1  0  0  0  0
 46 48  1  0  0  0  0
 47 46  1  0  0  0  0
 48 50  2  0  0  0  0
 48 49  1  0  0  0  0
 50 51  1  0  0  0  0
 51 13  1  0  0  0  0
 52 57  1  0  0  0  0
 53 52  1  0  0  0  0
 53 54  1  0  0  0  0
 53 55  1  0  0  0  0
 56 53  1  0  0  0  0
 57 58  1  0  0  0  0
 57 60  1  0  0  0  0
 57 59  1  0  0  0  0
 61 66  1  0  0  0  0
 61 52  1  0  0  0  0
 62 61  1  0  0  0  0
 62 64  1  0  0  0  0
 63 62  1  0  0  0  0
 65 62  1  0  0  0  0
 66 69  1  0  0  0  0
 66 68  1  0  0  0  0
 67 66  1  0  0  0  0
M  END
$$$$
