CSD_code = COYRAK | q = 0 | S = 0 | Stoichiometry = C16Cl2HgN4OS | MND = 4
 OpenBabel04212202023D

 25 28  0  0  1  0  0  0  0  0999 V2000
    0.2727    5.5906    3.7415 Hg  0  0  0  0  0  0  0  0  0  0  0  0
    0.2037    7.7770    4.4090 Cl  0  0  0  0  0  0  0  0  0  0  0  0
   -0.3827    3.4487    3.3458 Cl  0  0  0  0  0  0  0  0  0  0  0  0
   -2.5402    5.9446    4.2758 N   0  0  0  0  0  0  0  0  0  0  0  0
   -3.5215    7.9409   -0.0754 N   0  0  0  0  0  0  0  0  0  0  0  0
   -1.2694    6.4599    1.6113 N   0  0  0  0  0  0  0  0  0  0  0  0
   -0.6651    6.6080    0.5269 N   0  0  0  0  0  0  0  0  0  0  0  0
   -3.3235    5.8890    5.2630 C   0  0  0  0  0  2  0  0  0  0  0  0
   -4.5615    6.2511    5.5795 C   0  0  0  0  0  3  0  0  0  0  0  0
   -5.0022    6.8247    4.4710 C   0  0  0  0  0  3  0  0  0  0  0  0
   -4.4229    7.0394    3.2645 C   0  0  0  0  0  0  0  0  0  0  0  0
   -3.0582    6.5333    3.2082 C   0  0  0  0  0  0  0  0  0  0  0  0
   -2.4838    6.7947    1.9211 C   0  0  0  0  0  0  0  0  0  0  0  0
   -4.6223    8.4803   -0.3732 C   0  0  0  0  0  3  0  0  0  0  0  0
   -5.8193    8.7640    0.1140 C   0  0  0  0  0  3  0  0  0  0  0  0
   -5.7031    8.2556    1.3363 C   0  0  0  0  0  3  0  0  0  0  0  0
   -4.7032    7.6213    1.9934 C   0  0  0  0  0  0  0  0  0  0  0  0
   -3.5127    7.4754    1.1580 C   0  0  0  0  0  0  0  0  0  0  0  0
    0.6890    6.2212    0.4907 C   0  0  0  0  0  0  0  0  0  0  0  0
    1.3467    5.9415    1.4843 O   0  0  0  0  0  0  0  0  0  0  0  0
    1.1491    6.2491   -0.8502 C   0  0  2  0  0  3  0  0  0  0  0  0
    0.5102    6.5638   -2.0175 C   0  0  2  0  0  3  0  0  0  0  0  0
    0.6865    6.6787   -3.3610 C   0  0  0  0  0  2  0  0  0  0  0  0
    1.8996    6.3101   -2.9427 C   0  0  2  0  0  3  0  0  0  0  0  0
    2.7559    5.8698   -1.4997 S   0  0  0  0  0  0  0  0  0  0  0  0
  1  2  1  0  0  0  0
  3  1  1  0  0  0  0
  4  8  1  0  0  0  0
  5 18  1  0  0  0  0
  6 13  1  0  0  0  0
  7  6  2  0  0  0  0
  8  9  1  0  0  0  0
 10  9  2  0  0  0  0
 11 10  1  0  0  0  0
 12 11  1  0  0  0  0
 12  4  2  0  0  0  0
 13 12  1  0  0  0  0
 14  5  2  0  0  0  0
 14 15  1  0  0  0  0
 15 16  2  0  0  0  0
 16 17  1  0  0  0  0
 17 11  2  0  0  0  0
 18 13  2  0  0  0  0
 18 17  1  0  0  0  0
 19  7  1  0  0  0  0
 19 20  2  0  0  0  0
 21 19  1  6  0  0  0
 22 23  1  6  0  0  0
 22 21  1  0  0  0  0
 24 23  1  6  0  0  0
 24 22  1  0  0  0  0
 24 25  1  0  0  0  0
 25 21  1  0  0  0  0
M  END
$$$$
