CSD_code = COZMUZ | q = 0 | S = 0 | Stoichiometry = C24H28Cl2F2P2Pt | MND = 4
 OpenBabel04212202023D

 59 61  0  0  0  0  0  0  0  0999 V2000
    3.4030    2.8218   13.8194 Pt  0  0  0  0  0  0  0  0  0  0  0  0
    1.5018    2.8266   12.4745 Cl  0  0  0  0  0  0  0  0  0  0  0  0
    5.3673    2.8347   15.0616 Cl  0  0  0  0  0  0  0  0  0  0  0  0
    2.5600    4.3731   15.2776 P   0  0  0  0  0  4  0  0  0  0  0  0
    4.1519    1.2482   12.3499 P   0  0  0  0  0  4  0  0  0  0  0  0
    4.7434   -0.2863   14.5783 F   0  0  0  0  0  0  0  0  0  0  0  0
    7.0184    1.4922   10.8809 F   0  0  0  0  0  0  0  0  0  0  0  0
    5.8226    0.6203   12.7257 C   0  0  0  0  0  0  0  0  0  0  0  0
    5.9057   -0.0708   13.9327 C   0  0  0  0  0  0  0  0  0  0  0  0
    7.0894   -0.5377   14.4602 C   0  0  0  0  0  0  0  0  0  0  0  0
    7.0901   -1.0596   15.4031 H   0  0  0  0  0  0  0  0  0  0  0  0
    8.2603   -0.2963   13.7584 C   0  0  0  0  0  0  0  0  0  0  0  0
    9.2027   -0.6409   14.1536 H   0  0  0  0  0  0  0  0  0  0  0  0
    8.2293    0.3860   12.5557 C   0  0  0  0  0  0  0  0  0  0  0  0
    9.1304    0.5823   11.9967 H   0  0  0  0  0  0  0  0  0  0  0  0
    7.0189    0.8403   12.0597 C   0  0  0  0  0  0  0  0  0  0  0  0
    4.2833    2.0786   10.7442 C   0  0  0  0  0  0  0  0  0  0  0  0
    3.9583    1.5032    9.5244 C   0  0  0  0  0  0  0  0  0  0  0  0
    3.6299    0.4748    9.4765 H   0  0  0  0  0  0  0  0  0  0  0  0
    4.0418    2.2603    8.3685 C   0  0  0  0  0  0  0  0  0  0  0  0
    3.7880    1.8138    7.4181 H   0  0  0  0  0  0  0  0  0  0  0  0
    4.4403    3.5847    8.4267 C   0  0  0  0  0  0  0  0  0  0  0  0
    4.4997    4.1696    7.5205 H   0  0  0  0  0  0  0  0  0  0  0  0
    4.7510    4.1659    9.6464 C   0  0  0  0  0  0  0  0  0  0  0  0
    5.0501    5.2027    9.6924 H   0  0  0  0  0  0  0  0  0  0  0  0
    4.6663    3.4173   10.8030 C   0  0  0  0  0  0  0  0  0  0  0  0
    4.8960    3.8611   11.7704 H   0  0  0  0  0  0  0  0  0  0  0  0
    3.2941   -0.3231   12.0482 C   0  0  0  0  0  0  0  0  0  0  0  0
    2.0278   -0.5400   12.5747 C   0  0  0  0  0  0  0  0  0  0  0  0
    1.5527    0.2399   13.1528 H   0  0  0  0  0  0  0  0  0  0  0  0
    1.3853   -1.7450   12.3513 C   0  0  0  0  0  0  0  0  0  0  0  0
    0.4001   -1.9121   12.7605 H   0  0  0  0  0  0  0  0  0  0  0  0
    2.0053   -2.7355   11.6086 C   0  0  0  0  0  0  0  0  0  0  0  0
    1.5034   -3.6761   11.4349 H   0  0  0  0  0  0  0  0  0  0  0  0
    3.2746   -2.5260   11.0921 C   0  0  0  0  0  0  0  0  0  0  0  0
    3.7613   -3.3018   10.5187 H   0  0  0  0  0  0  0  0  0  0  0  0
    3.9229   -1.3255   11.3131 C   0  0  0  0  0  0  0  0  0  0  0  0
    4.9192   -1.1647   10.9210 H   0  0  0  0  0  0  0  0  0  0  0  0
    1.0722    5.3164   14.7522 C   0  0  0  0  0  0  0  0  0  0  0  0
    0.3318    4.5796   14.4319 H   0  0  0  0  0  0  0  0  0  0  0  0
    0.6685    5.8672   15.6060 H   0  0  0  0  0  0  0  0  0  0  0  0
    1.3959    6.2453   13.5891 C   0  0  0  0  0  0  0  0  0  0  0  0
    0.4921    6.7290   13.2243 H   0  0  0  0  0  0  0  0  0  0  0  0
    1.8276    5.6686   12.7721 H   0  0  0  0  0  0  0  0  0  0  0  0
    2.1044    7.0171   13.8837 H   0  0  0  0  0  0  0  0  0  0  0  0
    1.9802    3.4411   16.7558 C   0  0  0  0  0  0  0  0  0  0  0  0
    2.8479    3.2778   17.4005 H   0  0  0  0  0  0  0  0  0  0  0  0
    1.2345    4.0239   17.3035 H   0  0  0  0  0  0  0  0  0  0  0  0
    1.4061    2.0982   16.3113 C   0  0  0  0  0  0  0  0  0  0  0  0
    1.0760    1.5121   17.1669 H   0  0  0  0  0  0  0  0  0  0  0  0
    2.1762    1.5284   15.7793 H   0  0  0  0  0  0  0  0  0  0  0  0
    0.5604    2.2427   15.6408 H   0  0  0  0  0  0  0  0  0  0  0  0
    3.7139    5.6353   15.9588 C   0  0  0  0  0  0  0  0  0  0  0  0
    4.5531    5.0735   16.3769 H   0  0  0  0  0  0  0  0  0  0  0  0
    4.1037    6.2093   15.1131 H   0  0  0  0  0  0  0  0  0  0  0  0
    3.1173    6.5657   17.0069 C   0  0  0  0  0  0  0  0  0  0  0  0
    3.8916    7.2271   17.3912 H   0  0  0  0  0  0  0  0  0  0  0  0
    2.7103    6.0023   17.8432 H   0  0  0  0  0  0  0  0  0  0  0  0
    2.3276    7.1841   16.5865 H   0  0  0  0  0  0  0  0  0  0  0  0
  1  3  1  0  0  0  0
  1  4  1  0  0  0  0
  2  1  1  0  0  0  0
  4 53  1  0  0  0  0
  4 46  1  0  0  0  0
  5  8  1  0  0  0  0
  5  1  1  0  0  0  0
  7 16  1  0  0  0  0
  8  9  1  0  0  0  0
  9 10  2  0  0  0  0
  9  6  1  0  0  0  0
 10 11  1  0  0  0  0
 12 13  1  0  0  0  0
 12 10  1  0  0  0  0
 14 12  2  0  0  0  0
 15 14  1  0  0  0  0
 16 14  1  0  0  0  0
 16  8  2  0  0  0  0
 17 26  1  0  0  0  0
 17  5  1  0  0  0  0
 18 17  2  0  0  0  0
 19 18  1  0  0  0  0
 20 22  2  0  0  0  0
 20 18  1  0  0  0  0
 21 20  1  0  0  0  0
 22 24  1  0  0  0  0
 23 22  1  0  0  0  0
 24 25  1  0  0  0  0
 24 26  2  0  0  0  0
 26 27  1  0  0  0  0
 28  5  1  0  0  0  0
 28 29  1  0  0  0  0
 29 30  1  0  0  0  0
 31 29  2  0  0  0  0
 31 32  1  0  0  0  0
 33 31  1  0  0  0  0
 34 33  1  0  0  0  0
 35 37  1  0  0  0  0
 35 33  2  0  0  0  0
 36 35  1  0  0  0  0
 37 28  2  0  0  0  0
 38 37  1  0  0  0  0
 39  4  1  0  0  0  0
 39 41  1  0  0  0  0
 40 39  1  0  0  0  0
 42 45  1  0  0  0  0
 42 39  1  0  0  0  0
 43 42  1  0  0  0  0
 44 42  1  0  0  0  0
 46 48  1  0  0  0  0
 46 47  1  0  0  0  0
 49 46  1  0  0  0  0
 49 50  1  0  0  0  0
 51 49  1  0  0  0  0
 52 49  1  0  0  0  0
 53 54  1  0  0  0  0
 53 56  1  0  0  0  0
 55 53  1  0  0  0  0
 56 57  1  0  0  0  0
 56 58  1  0  0  0  0
 59 56  1  0  0  0  0
M  END
$$$$
