CSD_code = CPEAMP | q = 0 | S = 0 | Stoichiometry = C5H12Cl3NPt | MND = 5
 OpenBabel04212202023D

 22 18  0  0  1  0  0  0  0  0999 V2000
   -0.7974    1.0548    1.9694 Cl  0  0  0  0  0 15  0  0  0  0  0  0
    0.2412    1.8213    4.8565 Cl  0  0  0  0  0 15  0  0  0  0  0  0
    3.0743    2.9916    3.8659 Cl  0  0  0  0  0 15  0  0  0  0  0  0
    1.1827    5.3506    1.8505 C   0  0  0  0  0  0  0  0  0  0  0  0
    2.0443    4.3683    1.0527 C   0  0  0  0  0  0  0  0  0  0  0  0
    1.4000    3.0084    0.9074 C   0  0  1  0  0  0  0  0  0  0  0  0
    2.0831    1.8006    0.8256 C   0  0  0  0  0  3  0  0  0  0  0  0
    3.5736    1.6333    0.8332 C   0  0  0  0  0  0  0  0  0  0  0  0
    0.6469    5.6000    3.8654 H   0  0  0  0  0  0  0  0  0  0  0  0
    3.8408    0.6623    1.2464 H   0  0  0  0  0  0  0  0  0  0  0  0
    4.0816    2.4065    1.4016 H   0  0  0  0  0  0  0  0  0  0  0  0
    3.9353    1.6642   -0.1958 H   0  0  0  0  0  0  0  0  0  0  0  0
    1.9723    4.4537    3.6106 H   0  0  0  0  0  0  0  0  0  0  0  0
    0.4173    4.0227    3.2788 H   0  0  0  0  0  0  0  0  0  0  0  0
    1.6731    6.3256    1.8689 H   0  0  0  0  0  0  0  0  0  0  0  0
    0.2007    5.4589    1.3833 H   0  0  0  0  0  0  0  0  0  0  0  0
    3.0194    4.2839    1.5301 H   0  0  0  0  0  0  0  0  0  0  0  0
    2.1892    4.7827    0.0515 H   0  0  0  0  0  0  0  0  0  0  0  0
    0.4036    3.0404    0.4657 H   0  0  0  0  0  0  0  0  0  0  0  0
    1.5550    0.9771    0.3470 H   0  0  0  0  0  0  0  0  0  0  0  0
    1.0178    4.8836    3.2428 N   0  0  0  0  0  4  0  0  0  0  0  0
    1.1232    1.9869    2.7838 Pt  0  0  0  0  0  0  0  0  0  0  0  0
  4 15  1  0  0  0  0
  4 21  1  0  0  0  0
  5 17  1  0  0  0  0
  5  4  1  0  0  0  0
  6 19  1  6  0  0  0
  6  5  1  0  0  0  0
  6 22  1  0  0  0  0
  7  8  1  0  0  0  0
  7  6  1  0  0  0  0
  8 10  1  0  0  0  0
  8 11  1  0  0  0  0
 12  8  1  0  0  0  0
 16  4  1  0  0  0  0
 18  5  1  0  0  0  0
 20  7  1  0  0  0  0
 21 14  1  0  0  0  0
 21 13  1  0  0  0  0
 21  9  1  0  0  0  0
M  END
$$$$
