CSD_code = CPENPT | q = 0 | S = 0 | Stoichiometry = C5H12Cl3NPt | MND = 5
 OpenBabel04212202023D

 22 18  0  0  1  0  0  0  0  0999 V2000
    4.8162    2.4593    0.2484 Cl  0  0  0  0  0 15  0  0  0  0  0  0
    4.5518   -0.1526    1.9039 Cl  0  0  0  0  0 15  0  0  0  0  0  0
    2.4632   -1.6073   -0.0944 Cl  0  0  0  0  0 15  0  0  0  0  0  0
    3.1800   -0.0572   -2.9920 C   0  0  0  0  0  0  0  0  0  0  0  0
    3.1618    1.1050   -2.0200 C   0  0  0  0  0  3  0  0  0  0  0  0
    2.0412    1.3906   -1.2410 C   0  0  2  0  0  0  0  0  0  0  0  0
    1.6691    2.7782   -0.7999 C   0  0  0  0  0  0  0  0  0  0  0  0
    0.5620    3.3297   -1.7014 C   0  0  0  0  0  0  0  0  0  0  0  0
    4.1381   -1.9210   -3.1750 H   0  0  0  0  0  0  0  0  0  0  0  0
    0.2839    4.3287   -1.3781 H   0  0  0  0  0  0  0  0  0  0  0  0
    0.9039    3.3816   -2.7325 H   0  0  0  0  0  0  0  0  0  0  0  0
   -0.3214    2.6963   -1.6610 H   0  0  0  0  0  0  0  0  0  0  0  0
    4.8906   -0.8521   -2.1185 H   0  0  0  0  0  0  0  0  0  0  0  0
    3.4005   -1.5825   -1.5659 H   0  0  0  0  0  0  0  0  0  0  0  0
    3.5872    0.2792   -3.9486 H   0  0  0  0  0  0  0  0  0  0  0  0
    2.1674   -0.4357   -3.1467 H   0  0  0  0  0  0  0  0  0  0  0  0
    3.8263    1.9273   -2.2722 H   0  0  0  0  0  0  0  0  0  0  0  0
    1.1988    0.7002   -1.2941 H   0  0  0  0  0  0  0  0  0  0  0  0
    2.5408    3.4318   -0.8383 H   0  0  0  0  0  0  0  0  0  0  0  0
    1.3040    2.7528    0.2309 H   0  0  0  0  0  0  0  0  0  0  0  0
    3.9924   -1.1909   -2.4784 N   0  0  0  0  0  4  0  0  0  0  0  0
    3.5708    0.5668    0.0402 Pt  0  0  0  0  0  0  0  0  0  0  0  0
  4 21  1  0  0  0  0
  4  5  1  0  0  0  0
  5  6  1  0  0  0  0
  6 18  1  6  0  0  0
  6  7  1  0  0  0  0
  6 22  1  0  0  0  0
  7 20  1  0  0  0  0
  8 12  1  0  0  0  0
  8 10  1  0  0  0  0
  8  7  1  0  0  0  0
  9 21  1  0  0  0  0
 11  8  1  0  0  0  0
 15  4  1  0  0  0  0
 16  4  1  0  0  0  0
 17  5  1  0  0  0  0
 19  7  1  0  0  0  0
 21 13  1  0  0  0  0
 21 14  1  0  0  0  0
M  END
$$$$
