CSD_code = CPETIA | q = 0 | S = 0 | Stoichiometry = C12H15ClOTi | MND = 12
 OpenBabel04212202023D

 30 31  0  0  1  0  0  0  0  0999 V2000
    6.1823    6.6516    3.1861 Ti  0  0  1  0  0  0  0  0  0  0  0  0
    4.0087    6.4270    2.6189 Cl  0  0  0  0  0  0  0  0  0  0  0  0
    6.4824    7.7589    1.9599 O   0  0  0  0  0  0  0  0  0  0  0  0
    6.6340    6.6615    5.5667 C   0  0  0  0  0  0  0  0  0  0  0  0
    5.2831    6.9654    5.3751 C   0  0  1  0  0  0  0  0  0  0  0  0
    5.2097    8.2203    4.7090 C   0  0  0  0  0  0  0  0  0  0  0  0
    6.5191    8.6769    4.4976 C   0  0  0  0  0  0  0  0  0  0  0  0
    7.4057    7.6868    4.9683 C   0  0  0  0  0  0  0  0  0  0  0  0
    7.9320    5.4430    2.1215 C   0  0  2  0  0  0  0  0  0  0  0  0
    6.7248    4.9865    1.5556 C   0  0  0  0  0  0  0  0  0  0  0  0
    6.0039    4.3041    2.5631 C   0  0  0  0  0  0  0  0  0  0  0  0
    6.7550    4.3483    3.7458 C   0  0  0  0  0  0  0  0  0  0  0  0
    7.9446    5.0586    3.4791 C   0  0  0  0  0  0  0  0  0  0  0  0
    6.1214    8.4734    0.8409 C   0  0  0  0  0  0  0  0  0  0  0  0
    5.0100    9.4780    1.1595 C   0  0  0  0  0  0  0  0  0  0  0  0
    7.0246    5.8470    6.1611 H   0  0  0  0  0  0  0  0  0  0  0  0
    4.4364    6.4214    5.7775 H   0  0  0  0  0  0  0  0  0  0  0  0
    4.2998    8.7731    4.5137 H   0  0  0  0  0  0  0  0  0  0  0  0
    6.8049    9.6353    4.0831 H   0  0  0  0  0  0  0  0  0  0  0  0
    8.4814    7.7910    5.0363 H   0  0  0  0  0  0  0  0  0  0  0  0
    8.7467    5.9170    1.5870 H   0  0  0  0  0  0  0  0  0  0  0  0
    6.4419    5.0515    0.5118 H   0  0  0  0  0  0  0  0  0  0  0  0
    5.0822    3.7562    2.4143 H   0  0  0  0  0  0  0  0  0  0  0  0
    6.5187    3.8156    4.6577 H   0  0  0  0  0  0  0  0  0  0  0  0
    8.7901    5.1533    4.1471 H   0  0  0  0  0  0  0  0  0  0  0  0
    7.0077    9.0014    0.4467 H   0  0  0  0  0  0  0  0  0  0  0  0
    5.7626    7.7658    0.0696 H   0  0  0  0  0  0  0  0  0  0  0  0
    4.1560    8.9415    1.5717 H   0  0  0  0  0  0  0  0  0  0  0  0
    5.3615   10.2055    1.8894 H   0  0  0  0  0  0  0  0  0  0  0  0
    4.7072    9.9969    0.2542 H   0  0  0  0  0  0  0  0  0  0  0  0
  1  2  1  6  0  0  0
  1  5  1  0  0  0  0
  3  1  1  0  0  0  0
  4 16  1  0  0  0  0
  5  4  1  0  0  0  0
  5 17  1  1  0  0  0
  6  5  1  0  0  0  0
  7  6  2  0  0  0  0
  7  8  1  0  0  0  0
  8 20  1  0  0  0  0
  8  4  2  0  0  0  0
  9 21  1  6  0  0  0
  9  1  1  0  0  0  0
  9 13  1  0  0  0  0
 10  9  1  0  0  0  0
 10 11  2  0  0  0  0
 11 12  1  0  0  0  0
 12 24  1  0  0  0  0
 13 12  2  0  0  0  0
 13 25  1  0  0  0  0
 14 15  1  0  0  0  0
 14  3  1  0  0  0  0
 15 28  1  0  0  0  0
 15 29  1  0  0  0  0
 18  6  1  0  0  0  0
 19  7  1  0  0  0  0
 22 10  1  0  0  0  0
 23 11  1  0  0  0  0
 26 14  1  0  0  0  0
 27 14  1  0  0  0  0
 30 15  1  0  0  0  0
M  END
$$$$
