CSD_code = CPMPNI | q = 0 | S = 0 | Stoichiometry = C26H26Cl2NiO4P2 | MND = 4
 OpenBabel04212202023D

 61 66  0  0  1  0  0  0  0  0999 V2000
    2.7875    0.6476    5.6516 Cl  0  0  0  0  0  0  0  0  0  0  0  0
    5.5668    3.3119    4.0677 Cl  0  0  0  0  0  0  0  0  0  0  0  0
    7.3423   -2.7776    2.1781 C   0  0  0  0  0  3  0  0  0  0  0  0
   -1.0617    4.6446    0.0946 C   0  0  0  0  0  3  0  0  0  0  0  0
    6.2477    1.4139    7.5677 C   0  0  0  0  0  0  0  0  0  0  0  0
    3.3109    1.1147    2.1031 C   0  0  0  0  0  0  0  0  0  0  0  0
    5.9882    0.6537    8.7022 C   0  0  0  0  0  0  0  0  0  0  0  0
    2.7236   -0.1472    2.1763 C   0  0  0  0  0  0  0  0  0  0  0  0
    6.3329    1.1444    9.9494 C   0  0  0  0  0  0  0  0  0  0  0  0
    3.1876   -1.1773    1.3774 C   0  0  0  0  0  0  0  0  0  0  0  0
    6.9222    2.3920   10.0716 C   0  0  0  0  0  0  0  0  0  0  0  0
    4.2484   -0.9670    0.5116 C   0  0  0  0  0  0  0  0  0  0  0  0
    7.1596    3.1619    8.9435 C   0  0  0  0  0  0  0  0  0  0  0  0
    4.8490    0.2799    0.4489 C   0  0  0  0  0  0  0  0  0  0  0  0
    6.8172    2.6795    7.6949 C   0  0  0  0  0  0  0  0  0  0  0  0
    4.3905    1.3151    1.2437 C   0  0  0  0  0  0  0  0  0  0  0  0
    5.5721   -0.9487    5.9977 C   0  0  0  0  0  0  0  0  0  0  0  0
    0.9947    2.2742    3.4097 C   0  0  0  0  0  0  0  0  0  0  0  0
    5.4558   -1.4738    4.5696 C   0  0  0  0  0  0  0  0  0  0  0  0
    0.3041    2.3311    2.0519 C   0  0  0  0  0  0  0  0  0  0  0  0
    6.7343   -1.2623    3.7651 C   0  0  1  0  0  0  0  0  0  0  0  0
    0.5698    3.6483    1.3313 C   0  0  2  0  0  0  0  0  0  0  0  0
    7.1943    0.1877    3.6569 C   0  0  0  0  0  0  0  0  0  0  0  0
    2.0415    3.8897    1.0139 C   0  0  0  0  0  0  0  0  0  0  0  0
    7.4150    0.8308    5.0216 C   0  0  0  0  0  0  0  0  0  0  0  0
    2.8893    3.9754    2.2777 C   0  0  0  0  0  0  0  0  0  0  0  0
    8.2023   -2.9749    3.4591 C   0  0  0  0  0  3  0  0  0  0  0  0
   -0.9034    5.3778    1.4568 C   0  0  0  0  0  3  0  0  0  0  0  0
    5.5146   -0.3124    8.6150 H   0  0  0  0  0  0  0  0  0  0  0  0
    1.9190   -0.3284    2.8745 H   0  0  0  0  0  0  0  0  0  0  0  0
    6.1356    0.5516   10.8302 H   0  0  0  0  0  0  0  0  0  0  0  0
    2.7264   -2.1516    1.4409 H   0  0  0  0  0  0  0  0  0  0  0  0
    7.1866    2.7692   11.0480 H   0  0  0  0  0  0  0  0  0  0  0  0
    4.6188   -1.7760   -0.0981 H   0  0  0  0  0  0  0  0  0  0  0  0
    7.6050    4.1408    9.0389 H   0  0  0  0  0  0  0  0  0  0  0  0
    5.6863    0.4427   -0.2129 H   0  0  0  0  0  0  0  0  0  0  0  0
    6.9766    3.2827    6.8111 H   0  0  0  0  0  0  0  0  0  0  0  0
    4.8815    2.2776    1.2120 H   0  0  0  0  0  0  0  0  0  0  0  0
    4.6502   -1.1847    6.5321 H   0  0  0  0  0  0  0  0  0  0  0  0
    0.6556    3.0997    4.0444 H   0  0  0  0  0  0  0  0  0  0  0  0
    6.4255   -1.3982    6.5132 H   0  0  0  0  0  0  0  0  0  0  0  0
    0.7445    1.3448    3.9239 H   0  0  0  0  0  0  0  0  0  0  0  0
    4.6410   -0.9567    4.0490 H   0  0  0  0  0  0  0  0  0  0  0  0
   -0.7782    2.2278    2.1850 H   0  0  0  0  0  0  0  0  0  0  0  0
    5.2295   -2.5450    4.5722 H   0  0  0  0  0  0  0  0  0  0  0  0
    0.6461    1.5198    1.4046 H   0  0  0  0  0  0  0  0  0  0  0  0
    6.4256    0.7428    3.1067 H   0  0  0  0  0  0  0  0  0  0  0  0
    2.1201    4.8277    0.4537 H   0  0  0  0  0  0  0  0  0  0  0  0
    8.1170    0.2100    3.0682 H   0  0  0  0  0  0  0  0  0  0  0  0
    2.3841    3.0779    0.3674 H   0  0  0  0  0  0  0  0  0  0  0  0
    7.7877    1.8463    4.8790 H   0  0  0  0  0  0  0  0  0  0  0  0
    2.5287    4.7818    2.9250 H   0  0  0  0  0  0  0  0  0  0  0  0
    8.1345    0.2627    5.6178 H   0  0  0  0  0  0  0  0  0  0  0  0
    3.9256    4.2037    2.0230 H   0  0  0  0  0  0  0  0  0  0  0  0
    4.2237    1.9106    4.8232 Ni  0  0  0  0  0  0  0  0  0  0  0  0
    7.7932   -2.0918    4.2778 O   0  0  0  0  0  0  0  0  0  0  0  0
    0.0204    4.7539    2.0688 O   0  0  0  0  0  0  0  0  0  0  0  0
    6.5614   -1.8104    2.4409 O   0  0  0  0  0  0  0  0  0  0  0  0
   -0.2077    3.7044    0.1151 O   0  0  0  0  0  0  0  0  0  0  0  0
    5.7949    0.8749    5.9008 P   0  0  2  0  0  4  0  0  0  0  0  0
    2.8233    2.4275    3.2722 P   0  0  2  0  0  4  0  0  0  0  0  0
  2 55  1  0  0  0  0
  3 58  1  0  0  0  0
  3 27  2  0  0  0  0
  4 59  1  0  0  0  0
  4 28  2  0  0  0  0
  5 15  2  0  0  0  0
  5  7  1  0  0  0  0
  6  8  1  0  0  0  0
  6 61  1  0  0  0  0
  7  9  2  0  0  0  0
  8 30  1  0  0  0  0
  9 11  1  0  0  0  0
  9 31  1  0  0  0  0
 10 32  1  0  0  0  0
 10  8  2  0  0  0  0
 11 33  1  0  0  0  0
 12 10  1  0  0  0  0
 13 35  1  0  0  0  0
 13 11  2  0  0  0  0
 14 12  2  0  0  0  0
 14 16  1  0  0  0  0
 15 13  1  0  0  0  0
 16  6  2  0  0  0  0
 17 41  1  0  0  0  0
 17 39  1  0  0  0  0
 18 42  1  0  0  0  0
 18 40  1  0  0  0  0
 19 45  1  0  0  0  0
 19 17  1  0  0  0  0
 20 44  1  0  0  0  0
 20 18  1  0  0  0  0
 21 58  1  6  0  0  0
 21 56  1  0  0  0  0
 21 19  1  0  0  0  0
 22 59  1  6  0  0  0
 22 20  1  0  0  0  0
 22 57  1  0  0  0  0
 23 21  1  0  0  0  0
 23 25  1  0  0  0  0
 24 22  1  0  0  0  0
 24 26  1  0  0  0  0
 25 53  1  0  0  0  0
 25 60  1  0  0  0  0
 26 52  1  0  0  0  0
 26 61  1  0  0  0  0
 27 56  1  0  0  0  0
 28 57  1  0  0  0  0
 29  7  1  0  0  0  0
 34 12  1  0  0  0  0
 36 14  1  0  0  0  0
 37 15  1  0  0  0  0
 38 16  1  0  0  0  0
 43 19  1  0  0  0  0
 46 20  1  0  0  0  0
 47 23  1  0  0  0  0
 48 24  1  0  0  0  0
 49 23  1  0  0  0  0
 50 24  1  0  0  0  0
 51 25  1  0  0  0  0
 54 26  1  0  0  0  0
 55  1  1  0  0  0  0
 60 55  1  6  0  0  0
 60 17  1  0  0  0  0
 60  5  1  0  0  0  0
 61 18  1  0  0  0  0
 61 55  1  1  0  0  0
M  END
$$$$
