CSD_code = CTMORP | q = 0 | S = 0 | Stoichiometry = C8H16Cl2N2PdS2 | MND = 4
 OpenBabel04212202023D

 31 32  0  0  0  0  0  0  0  0999 V2000
    0.0003   -0.0002   -0.0002 Pd  0  0  0  0  0  0  0  0  0  0  0  0
    0.8862    0.1651    1.8360 N   0  0  0  0  0  4  0  0  0  0  0  0
    1.3176    1.6111   -1.0168 Cl  0  0  0  0  0  0  0  0  0  0  0  0
    2.6595    0.9686    4.2207 S   0  0  0  0  0  0  0  0  0  0  0  0
    0.5635    1.4738    2.4214 C   0  0  0  0  0  0  0  0  0  0  0  0
    0.9108    1.3985    3.9142 C   0  0  0  0  0  0  0  0  0  0  0  0
    2.2521   -0.1131    1.8824 C   0  0  0  0  0  3  0  0  0  0  0  0
    2.7427   -0.6083    3.1532 C   0  0  0  0  0  0  0  0  0  0  0  0
    1.1587    2.2449    1.9197 H   0  0  0  0  0  0  0  0  0  0  0  0
   -0.5087    1.6922    2.2950 H   0  0  0  0  0  0  0  0  0  0  0  0
    0.7698    2.3666    4.3914 H   0  0  0  0  0  0  0  0  0  0  0  0
    0.2834    0.6561    4.4124 H   0  0  0  0  0  0  0  0  0  0  0  0
    2.8860    0.5353    1.2884 H   0  0  0  0  0  0  0  0  0  0  0  0
    3.7871   -0.8990    3.1711 H   0  0  0  0  0  0  0  0  0  0  0  0
    2.1108   -1.3522    3.6345 H   0  0  0  0  0  0  0  0  0  0  0  0
    0.3635   -0.5583    2.3610 H   0  0  0  0  0  0  0  0  0  0  0  0
   -0.8862   -0.1651   -1.8360 N   0  0  0  0  0  4  0  0  0  0  0  0
   -1.3179   -1.6107    1.0173 Cl  0  0  0  0  0  0  0  0  0  0  0  0
   -0.5635   -1.4739   -2.4215 C   0  0  0  0  0  0  0  0  0  0  0  0
   -2.2521    0.1130   -1.8823 C   0  0  0  0  0  3  0  0  0  0  0  0
   -0.3635    0.5582   -2.3610 H   0  0  0  0  0  0  0  0  0  0  0  0
   -0.9108   -1.3985   -3.9142 C   0  0  0  0  0  0  0  0  0  0  0  0
   -1.1587   -2.2449   -1.9197 H   0  0  0  0  0  0  0  0  0  0  0  0
    0.5087   -1.6922   -2.2950 H   0  0  0  0  0  0  0  0  0  0  0  0
   -2.7427    0.6084   -3.1532 C   0  0  0  0  0  0  0  0  0  0  0  0
   -2.8860   -0.5354   -1.2884 H   0  0  0  0  0  0  0  0  0  0  0  0
   -2.6595   -0.9686   -4.2208 S   0  0  0  0  0  0  0  0  0  0  0  0
   -0.7698   -2.3666   -4.3914 H   0  0  0  0  0  0  0  0  0  0  0  0
   -0.2833   -0.6561   -4.4124 H   0  0  0  0  0  0  0  0  0  0  0  0
   -3.7871    0.8990   -3.1711 H   0  0  0  0  0  0  0  0  0  0  0  0
   -2.1108    1.3522   -3.6345 H   0  0  0  0  0  0  0  0  0  0  0  0
  1 18  1  0  0  0  0
  1  2  1  0  0  0  0
  2  7  1  0  0  0  0
  2 16  1  0  0  0  0
  2  5  1  0  0  0  0
  3  1  1  0  0  0  0
  5  6  1  0  0  0  0
  6  4  1  0  0  0  0
  6 11  1  0  0  0  0
  6 12  1  0  0  0  0
  7  8  1  0  0  0  0
  8 14  1  0  0  0  0
  8 15  1  0  0  0  0
  8  4  1  0  0  0  0
  9  5  1  0  0  0  0
 10  5  1  0  0  0  0
 13  7  1  0  0  0  0
 17  1  1  0  0  0  0
 19 24  1  0  0  0  0
 19 23  1  0  0  0  0
 19 17  1  0  0  0  0
 20 17  1  0  0  0  0
 20 26  1  0  0  0  0
 21 17  1  0  0  0  0
 22 19  1  0  0  0  0
 25 20  1  0  0  0  0
 27 22  1  0  0  0  0
 27 25  1  0  0  0  0
 28 22  1  0  0  0  0
 29 22  1  0  0  0  0
 30 25  1  0  0  0  0
 31 25  1  0  0  0  0
M  END
$$$$
