CSD_code = CTPPAU | q = 0 | S = 0 | Stoichiometry = C18H15AuClP | MND = 2
 OpenBabel04212202023D

 36 38  0  0  0  0  0  0  0  0999 V2000
    0.8415    2.9772   -1.7155 Au  0  0  0  0  0  0  0  0  0  0  0  0
    0.1187    2.3308   -3.7590 Cl  0  0  0  0  0  0  0  0  0  0  0  0
    2.6113    2.3777    1.1544 C   0  0  0  0  0  0  0  0  0  0  0  0
   -1.8555    4.1904    3.3052 C   0  0  0  0  0  0  0  0  0  0  0  0
   -1.8079    3.0804    2.4754 C   0  0  0  0  0  0  0  0  0  0  0  0
   -0.7658    2.9354    1.5805 C   0  0  0  0  0  0  0  0  0  0  0  0
    2.5339    5.1246    0.3344 C   0  0  0  0  0  0  0  0  0  0  0  0
    1.9891    6.2070   -0.3546 C   0  0  0  0  0  0  0  0  0  0  0  0
    2.6709    7.4069   -0.4061 C   0  0  0  0  0  0  0  0  0  0  0  0
    3.9045    7.5271    0.2165 C   0  0  0  0  0  0  0  0  0  0  0  0
    4.4542    6.4476    0.8878 C   0  0  0  0  0  0  0  0  0  0  0  0
    3.7747    5.2430    0.9490 C   0  0  0  0  0  0  0  0  0  0  0  0
    2.6935    2.3000    2.5420 C   0  0  0  0  0  0  0  0  0  0  0  0
    3.5201    1.3576    3.1256 C   0  0  0  0  0  0  0  0  0  0  0  0
    4.2628    0.4953    2.3340 C   0  0  0  0  0  0  0  0  0  0  0  0
    4.1798    0.5700    0.9528 C   0  0  0  0  0  0  0  0  0  0  0  0
    3.3526    1.5072    0.3614 C   0  0  0  0  0  0  0  0  0  0  0  0
    0.2401    3.8974    1.5205 C   0  0  0  0  0  0  0  0  0  0  0  0
    0.1892    5.0121    2.3495 C   0  0  0  0  0  0  0  0  0  0  0  0
   -0.8616    5.1529    3.2394 C   0  0  0  0  0  0  0  0  0  0  0  0
   -2.6725    4.3074    4.0013 H   0  0  0  0  0  0  0  0  0  0  0  0
   -2.5863    2.3338    2.5230 H   0  0  0  0  0  0  0  0  0  0  0  0
   -0.7197    2.0817    0.9156 H   0  0  0  0  0  0  0  0  0  0  0  0
    1.0309    6.0913   -0.8464 H   0  0  0  0  0  0  0  0  0  0  0  0
    2.2470    8.2464   -0.9364 H   0  0  0  0  0  0  0  0  0  0  0  0
    4.4408    8.4631    0.1719 H   0  0  0  0  0  0  0  0  0  0  0  0
    5.4184    6.5417    1.3652 H   0  0  0  0  0  0  0  0  0  0  0  0
    4.2055    4.3990    1.4695 H   0  0  0  0  0  0  0  0  0  0  0  0
    2.1101    2.9733    3.1553 H   0  0  0  0  0  0  0  0  0  0  0  0
    3.5844    1.2943    4.2019 H   0  0  0  0  0  0  0  0  0  0  0  0
    4.9044   -0.2400    2.7960 H   0  0  0  0  0  0  0  0  0  0  0  0
    4.7545   -0.1055    0.3372 H   0  0  0  0  0  0  0  0  0  0  0  0
    3.2670    1.5703   -0.7163 H   0  0  0  0  0  0  0  0  0  0  0  0
    0.9651    5.7635    2.2968 H   0  0  0  0  0  0  0  0  0  0  0  0
   -0.9036    6.0187    3.8838 H   0  0  0  0  0  0  0  0  0  0  0  0
    1.5620    3.5952    0.3162 P   0  0  0  0  0  4  0  0  0  0  0  0
  1 36  1  0  0  0  0
  2  1  1  0  0  0  0
  3 13  1  0  0  0  0
  4 21  1  0  0  0  0
  5 22  1  0  0  0  0
  5  4  2  0  0  0  0
  6  5  1  0  0  0  0
  7 12  1  0  0  0  0
  8  7  2  0  0  0  0
  9  8  1  0  0  0  0
  9 10  2  0  0  0  0
 10 11  1  0  0  0  0
 11 12  2  0  0  0  0
 11 27  1  0  0  0  0
 12 28  1  0  0  0  0
 13 14  2  0  0  0  0
 13 29  1  0  0  0  0
 14 30  1  0  0  0  0
 15 31  1  0  0  0  0
 15 14  1  0  0  0  0
 16 15  2  0  0  0  0
 17 16  1  0  0  0  0
 17  3  2  0  0  0  0
 18  6  2  0  0  0  0
 18 19  1  0  0  0  0
 19 20  2  0  0  0  0
 20  4  1  0  0  0  0
 20 35  1  0  0  0  0
 23  6  1  0  0  0  0
 24  8  1  0  0  0  0
 25  9  1  0  0  0  0
 26 10  1  0  0  0  0
 32 16  1  0  0  0  0
 33 17  1  0  0  0  0
 34 19  1  0  0  0  0
 36  7  1  0  0  0  0
 36  3  1  0  0  0  0
 36 18  1  0  0  0  0
M  END
$$$$
