CSD_code = CUBCUY | q = 0 | S = 0 | Stoichiometry = C25H33Cl2N7Pt | MND = 4
 OpenBabel04212202023D

 68 72  0  0  1  0  0  0  0  0999 V2000
    6.4063   11.3776   12.7967 Pt  0  0  0  0  0  0  0  0  0  0  0  0
    6.7479   12.1325   14.8880 Cl  0  0  0  0  0  0  0  0  0  0  0  0
    5.1574    9.6138   13.4439 Cl  0  0  0  0  0  0  0  0  0  0  0  0
    5.9688   10.6880   10.8705 N   0  0  0  0  0  0  0  0  0  0  0  0
    4.9808   10.7194   10.6417 H   0  0  0  0  0  0  0  0  0  0  0  0
    7.5005   12.9794   12.2071 N   0  0  0  0  0  0  0  0  0  0  0  0
    7.5045   13.7523   12.8665 H   0  0  0  0  0  0  0  0  0  0  0  0
    6.0391    8.6908    9.6561 N   0  0  0  0  0  0  0  0  0  0  0  0
    7.9857    9.5981   10.5596 N   0  0  0  0  0  0  0  0  0  0  0  0
    9.4970   10.5784   11.9789 N   0  0  0  0  0  0  0  0  0  0  0  0
    9.9939   11.4136   12.2605 H   0  0  0  0  0  0  0  0  0  0  0  0
    8.8210   14.2080   10.6995 N   0  0  0  0  0  0  0  0  0  0  0  0
    8.3962   11.9279   10.3642 N   0  0  0  0  0  0  0  0  0  0  0  0
    6.6071    9.6840   10.3690 C   0  0  1  0  0  3  0  0  0  0  0  0
    4.6319    8.3716    9.7770 C   0  0  0  0  0  0  0  0  0  0  0  0
    4.2169    8.8618   10.6590 H   0  0  0  0  0  0  0  0  0  0  0  0
    4.5574    7.2895    9.9385 H   0  0  0  0  0  0  0  0  0  0  0  0
    3.8906    8.7390    8.4937 C   0  0  0  0  0  0  0  0  0  0  0  0
    3.9677    9.8144    8.3172 H   0  0  0  0  0  0  0  0  0  0  0  0
    2.8358    8.4814    8.5892 H   0  0  0  0  0  0  0  0  0  0  0  0
    4.5246    7.9816    7.3287 C   0  0  0  0  0  0  0  0  0  0  0  0
    4.3757    6.9092    7.4725 H   0  0  0  0  0  0  0  0  0  0  0  0
    4.0477    8.2640    6.3889 H   0  0  0  0  0  0  0  0  0  0  0  0
    6.0199    8.2840    7.2636 C   0  0  0  0  0  0  0  0  0  0  0  0
    6.1663    9.3430    7.0398 H   0  0  0  0  0  0  0  0  0  0  0  0
    6.4907    7.6998    6.4720 H   0  0  0  0  0  0  0  0  0  0  0  0
    6.7018    7.9637    8.5985 C   0  0  0  0  0  0  0  0  0  0  0  0
    6.6386    6.8890    8.8060 H   0  0  0  0  0  0  0  0  0  0  0  0
    7.7520    8.2477    8.5553 H   0  0  0  0  0  0  0  0  0  0  0  0
    8.5071    8.3332   10.9793 C   0  0  0  0  0  0  0  0  0  0  0  0
    7.7912    7.5373   11.8618 C   0  0  0  0  0  0  0  0  0  0  0  0
    6.8568    7.8921   12.2729 H   0  0  0  0  0  0  0  0  0  0  0  0
    8.3052    6.3097   12.2400 C   0  0  0  0  0  0  0  0  0  0  0  0
    7.7527    5.6948   12.9338 H   0  0  0  0  0  0  0  0  0  0  0  0
    9.5265    5.8805   11.7488 C   0  0  0  0  0  0  0  0  0  0  0  0
    9.9258    4.9237   12.0505 H   0  0  0  0  0  0  0  0  0  0  0  0
   10.2449    6.6874   10.8827 C   0  0  0  0  0  0  0  0  0  0  0  0
   11.2045    6.3628   10.5087 H   0  0  0  0  0  0  0  0  0  0  0  0
    9.7374    7.9137   10.4940 C   0  0  0  0  0  0  0  0  0  0  0  0
   10.2999    8.5509    9.8278 H   0  0  0  0  0  0  0  0  0  0  0  0
    8.6469   10.7177   11.0602 C   0  0  0  0  0  0  0  0  0  0  0  0
    8.2133   13.0818   11.1413 C   0  0  1  0  0  3  0  0  0  0  0  0
    9.9149   14.2146    9.7508 C   0  0  0  0  0  0  0  0  0  0  0  0
   10.1668   13.1928    9.4701 H   0  0  0  0  0  0  0  0  0  0  0  0
   10.7876   14.6605   10.2470 H   0  0  0  0  0  0  0  0  0  0  0  0
    9.5645   15.0463    8.5181 C   0  0  0  0  0  0  0  0  0  0  0  0
   10.4201   15.0661    7.8425 H   0  0  0  0  0  0  0  0  0  0  0  0
    8.7269   14.5825    7.9939 H   0  0  0  0  0  0  0  0  0  0  0  0
    9.1877   16.4610    8.9484 C   0  0  0  0  0  0  0  0  0  0  0  0
    8.8823   17.0494    8.0824 H   0  0  0  0  0  0  0  0  0  0  0  0
   10.0555   16.9491    9.3978 H   0  0  0  0  0  0  0  0  0  0  0  0
    8.0537   16.4003    9.9670 C   0  0  0  0  0  0  0  0  0  0  0  0
    7.8046   17.4006   10.3219 H   0  0  0  0  0  0  0  0  0  0  0  0
    7.1656   15.9745    9.4961 H   0  0  0  0  0  0  0  0  0  0  0  0
    8.4528   15.5299   11.1613 C   0  0  0  0  0  0  0  0  0  0  0  0
    9.3054   15.9828   11.6821 H   0  0  0  0  0  0  0  0  0  0  0  0
    7.6173   15.4615   11.8578 H   0  0  0  0  0  0  0  0  0  0  0  0
    7.9544   11.9178    9.0299 C   0  0  0  0  0  0  0  0  0  0  0  0
    8.6002   11.1116    8.0963 C   0  0  0  0  0  0  0  0  0  0  0  0
    9.4290   10.4945    8.4096 H   0  0  0  0  0  0  0  0  0  0  0  0
    8.1831   11.1099    6.7787 C   0  0  0  0  0  0  0  0  0  0  0  0
    8.6885   10.4819    6.0602 H   0  0  0  0  0  0  0  0  0  0  0  0
    7.1290   11.9147    6.3769 C   0  0  0  0  0  0  0  0  0  0  0  0
    6.8083   11.9130    5.3464 H   0  0  0  0  0  0  0  0  0  0  0  0
    6.4868   12.7185    7.3045 C   0  0  0  0  0  0  0  0  0  0  0  0
    5.6600   13.3423    6.9984 H   0  0  0  0  0  0  0  0  0  0  0  0
    6.8922   12.7217    8.6262 C   0  0  0  0  0  0  0  0  0  0  0  0
    6.3794   13.3289    9.3570 H   0  0  0  0  0  0  0  0  0  0  0  0
  1  3  1  0  0  0  0
  1  2  1  0  0  0  0
  4  1  1  0  0  0  0
  5  4  1  0  0  0  0
  6  1  1  0  0  0  0
  6  7  1  0  0  0  0
  8 15  1  0  0  0  0
  9 30  1  0  0  0  0
  9 41  1  0  0  0  0
 10 11  1  0  0  0  0
 12 55  1  0  0  0  0
 13 41  1  0  0  0  0
 13 42  1  0  0  0  0
 14  8  1  6  0  0  0
 14  9  1  0  0  0  0
 14  4  1  0  0  0  0
 15 17  1  0  0  0  0
 15 16  1  0  0  0  0
 18 20  1  0  0  0  0
 18 15  1  0  0  0  0
 19 18  1  0  0  0  0
 21 22  1  0  0  0  0
 21 18  1  0  0  0  0
 23 21  1  0  0  0  0
 24 21  1  0  0  0  0
 24 27  1  0  0  0  0
 25 24  1  0  0  0  0
 26 24  1  0  0  0  0
 27 28  1  0  0  0  0
 27  8  1  0  0  0  0
 29 27  1  0  0  0  0
 30 31  1  0  0  0  0
 31 33  2  0  0  0  0
 31 32  1  0  0  0  0
 33 34  1  0  0  0  0
 35 36  1  0  0  0  0
 35 33  1  0  0  0  0
 37 35  2  0  0  0  0
 38 37  1  0  0  0  0
 39 37  1  0  0  0  0
 39 30  2  0  0  0  0
 40 39  1  0  0  0  0
 41 10  2  0  0  0  0
 42 12  1  1  0  0  0
 42  6  1  0  0  0  0
 43 45  1  0  0  0  0
 43 12  1  0  0  0  0
 44 43  1  0  0  0  0
 46 49  1  0  0  0  0
 46 43  1  0  0  0  0
 47 46  1  0  0  0  0
 48 46  1  0  0  0  0
 49 51  1  0  0  0  0
 49 52  1  0  0  0  0
 50 49  1  0  0  0  0
 52 53  1  0  0  0  0
 52 55  1  0  0  0  0
 54 52  1  0  0  0  0
 55 56  1  0  0  0  0
 55 57  1  0  0  0  0
 58 13  1  0  0  0  0
 59 60  1  0  0  0  0
 59 58  2  0  0  0  0
 61 59  1  0  0  0  0
 62 61  1  0  0  0  0
 63 61  2  0  0  0  0
 63 65  1  0  0  0  0
 64 63  1  0  0  0  0
 65 67  2  0  0  0  0
 66 65  1  0  0  0  0
 67 58  1  0  0  0  0
 67 68  1  0  0  0  0
M  END
$$$$
