CSD_code = CUBGAJ | q = 0 | S = 0 | Stoichiometry = C12H11Cl2N3O2Pt | MND = 4
 OpenBabel04212202023D

 31 33  0  0  1  0  0  0  0  0999 V2000
    2.9508    2.8879    0.9931 Pt  0  0  0  0  0  0  0  0  0  0  0  0
    2.2744    4.2153    2.6869 Cl  0  0  0  0  0  0  0  0  0  0  0  0
    4.7170    4.2190    0.5954 Cl  0  0  0  0  0  0  0  0  0  0  0  0
    4.5490    1.3344    2.4967 O   0  0  0  0  0  0  0  0  0  0  0  0
    4.0217    0.1045    4.2899 O   0  0  0  0  0  0  0  0  0  0  0  0
    4.3759    0.8613    4.7873 H   0  0  0  0  0  0  0  0  0  0  0  0
    1.3743    1.7028    1.2761 N   0  0  0  0  0  0  0  0  0  0  0  0
    2.8103   -0.1922    0.9902 N   0  0  0  0  0  0  0  0  0  0  0  0
    3.6090    1.5739   -0.4028 N   0  0  0  0  0  0  0  0  0  0  0  0
    0.1560    2.1949    1.5303 C   0  0  0  0  0  3  0  0  0  0  0  0
    0.0752    3.2732    1.5372 H   0  0  0  0  0  0  0  0  0  0  0  0
   -0.9278    1.3868    1.8067 C   0  0  0  0  0  0  0  0  0  0  0  0
   -1.8871    1.8302    2.0162 H   0  0  0  0  0  0  0  0  0  0  0  0
   -0.7561    0.0092    1.8129 C   0  0  0  0  0  0  0  0  0  0  0  0
   -1.5798   -0.6541    2.0245 H   0  0  0  0  0  0  0  0  0  0  0  0
    0.4996   -0.4996    1.5312 C   0  0  0  0  0  0  0  0  0  0  0  0
    0.6789   -1.5628    1.5060 H   0  0  0  0  0  0  0  0  0  0  0  0
    1.5476    0.3752    1.2648 C   0  0  0  0  0  0  0  0  0  0  0  0
    3.4669   -0.7841    2.1450 C   0  0  0  0  0  0  0  0  0  0  0  0
    4.2624   -1.4586    1.8217 H   0  0  0  0  0  0  0  0  0  0  0  0
    2.7487   -1.3386    2.7490 H   0  0  0  0  0  0  0  0  0  0  0  0
    4.0847    0.3396    2.9826 C   0  0  0  0  0  0  0  0  0  0  0  0
    3.6328    0.2850   -0.0424 C   0  0  2  0  0  3  0  0  0  0  0  0
    4.4269   -0.6389   -0.7215 C   0  0  0  0  0  0  0  0  0  0  0  0
    4.4277   -1.6724   -0.4136 H   0  0  0  0  0  0  0  0  0  0  0  0
    5.1908   -0.2197   -1.7938 C   0  0  0  0  0  0  0  0  0  0  0  0
    5.8175   -0.9211   -2.3225 H   0  0  0  0  0  0  0  0  0  0  0  0
    5.1186    1.1099   -2.1854 C   0  0  0  0  0  0  0  0  0  0  0  0
    5.6827    1.4770   -3.0263 H   0  0  0  0  0  0  0  0  0  0  0  0
    4.3165    1.9707   -1.4632 C   0  0  0  0  0  0  0  0  0  0  0  0
    4.2502    3.0212   -1.7097 H   0  0  0  0  0  0  0  0  0  0  0  0
  1  7  1  0  0  0  0
  1  2  1  0  0  0  0
  3  1  1  0  0  0  0
  4 22  2  0  0  0  0
  5  6  1  0  0  0  0
  7 10  1  0  0  0  0
  8 18  1  0  0  0  0
  8 19  1  0  0  0  0
  9 23  1  0  0  0  0
  9  1  1  0  0  0  0
 10 11  1  0  0  0  0
 10 12  1  0  0  0  0
 12 14  2  0  0  0  0
 12 13  1  0  0  0  0
 14 15  1  0  0  0  0
 16 14  1  0  0  0  0
 17 16  1  0  0  0  0
 18  7  1  0  0  0  0
 18 16  2  0  0  0  0
 19 21  1  0  0  0  0
 19 22  1  0  0  0  0
 20 19  1  0  0  0  0
 22  5  1  0  0  0  0
 23 24  1  6  0  0  0
 23  8  1  0  0  0  0
 24 25  1  0  0  0  0
 26 24  2  0  0  0  0
 27 26  1  0  0  0  0
 28 26  1  0  0  0  0
 28 30  2  0  0  0  0
 29 28  1  0  0  0  0
 30  9  1  0  0  0  0
 31 30  1  0  0  0  0
M  END
$$$$
