CSD_code = CUBVEB | q = 0 | S = 0 | Stoichiometry = C8H7HgIN4S2 | MND = 3
 OpenBabel04212202023D

 23 24  0  0  0  0  0  0  0  0999 V2000
    0.6313    4.0818    2.3370 Hg  0  0  0  0  0  0  0  0  0  0  0  0
    3.0690    3.3486    1.7352 I   0  0  0  0  0  0  0  0  0  0  0  0
   -1.3488    5.4921    1.8795 S   0  0  0  0  0  0  0  0  0  0  0  0
   -0.7250    1.8620    3.6619 S   0  0  0  0  0  0  0  0  0  0  0  0
   -1.7824    7.1922    3.8306 N   0  0  0  0  0  0  0  0  0  0  0  0
    0.0828    5.7451    4.0495 N   0  0  0  0  0  0  0  0  0  0  0  0
   -0.6025    2.0463    1.0406 N   0  0  0  0  0  0  0  0  0  0  0  0
   -1.9249    0.3144    1.9198 N   0  0  0  0  0  0  0  0  0  0  0  0
    0.3736    6.2992    5.2169 C   0  0  0  0  0  3  0  0  0  0  0  0
    1.2428    5.9049    5.7289 H   0  0  0  0  0  0  0  0  0  0  0  0
   -0.3910    7.3239    5.7497 C   0  0  0  0  0  0  0  0  0  0  0  0
   -0.1504    7.7727    6.6980 H   0  0  0  0  0  0  0  0  0  0  0  0
   -1.4819    7.7343    4.9904 C   0  0  0  0  0  0  0  0  0  0  0  0
   -2.1426    8.5264    5.3189 H   0  0  0  0  0  0  0  0  0  0  0  0
   -0.9989    6.2178    3.3868 C   0  0  0  0  0  0  0  0  0  0  0  0
   -1.0955    1.3979    2.1195 C   0  0  0  0  0  0  0  0  0  0  0  0
   -0.9262    1.6571   -0.1574 C   0  0  0  0  0  0  0  0  0  0  0  0
   -0.4935    2.2177   -0.9755 H   0  0  0  0  0  0  0  0  0  0  0  0
   -1.7879    0.5637   -0.4025 C   0  0  0  0  0  0  0  0  0  0  0  0
   -2.0427    0.2680   -1.4042 H   0  0  0  0  0  0  0  0  0  0  0  0
   -2.2723   -0.0974    0.6898 C   0  0  0  0  0  0  0  0  0  0  0  0
   -2.9310   -0.9512    0.6212 H   0  0  0  0  0  0  0  0  0  0  0  0
   -2.2628   -0.1510    2.7550 H   0  0  0  0  0  0  0  0  0  0  0  0
  1  6  1  0  0  0  0
  2  1  1  0  0  0  0
  3  1  1  0  0  0  0
  3 15  1  0  0  0  0
  5 13  1  0  0  0  0
  6  9  1  0  0  0  0
  7 16  1  0  0  0  0
  8 16  1  0  0  0  0
  8 23  1  0  0  0  0
  9 10  1  0  0  0  0
  9 11  1  0  0  0  0
 11 12  1  0  0  0  0
 13 14  1  0  0  0  0
 13 11  2  0  0  0  0
 15  5  2  0  0  0  0
 15  6  1  0  0  0  0
 16  4  2  0  0  0  0
 17  7  2  0  0  0  0
 18 17  1  0  0  0  0
 19 17  1  0  0  0  0
 19 21  2  0  0  0  0
 20 19  1  0  0  0  0
 21  8  1  0  0  0  0
 22 21  1  0  0  0  0
M  END
$$$$
