CSD_code = CUCGUC | q = 0 | S = 0 | Stoichiometry = C4H8Cl2F2PtS2 | MND = 4
 OpenBabel04212202023D

 19 19  0  0  0  0  0  0  0  0999 V2000
    4.4918    9.7349    2.6160 Pt  0  0  0  0  0  0  0  0  0  0  0  0
    2.1954   10.1764    2.1297 S   0  0  2  0  0  3  0  0  0  0  0  0
    4.9848   11.9604    1.8522 S   0  0  1  0  0  3  0  0  0  0  0  0
    4.0235    7.6787    3.3946 Cl  0  0  0  0  0  0  0  0  0  0  0  0
    6.6613    9.3969    3.0870 Cl  0  0  0  0  0  0  0  0  0  0  0  0
    2.6814   11.9045    4.0641 F   0  0  0  0  0  0  0  0  0  0  0  0
    1.1041   12.4895    2.7239 F   0  0  0  0  0  0  0  0  0  0  0  0
    3.3178   12.7246    1.9308 C   0  0  0  0  0  0  0  0  0  0  0  0
    5.7405   12.6328    3.3596 C   0  0  0  0  0  0  0  0  0  0  0  0
    2.3321   11.9148    2.7550 C   0  0  0  0  0  0  0  0  0  0  0  0
    1.2381    9.4440    3.4787 C   0  0  0  0  0  0  0  0  0  0  0  0
    2.9422   12.7862    0.9089 H   0  0  0  0  0  0  0  0  0  0  0  0
    3.4125   13.7279    2.3491 H   0  0  0  0  0  0  0  0  0  0  0  0
    5.1072   12.4579    4.2234 H   0  0  0  0  0  0  0  0  0  0  0  0
    5.9282   13.6930    3.2136 H   0  0  0  0  0  0  0  0  0  0  0  0
    6.6761   12.0913    3.4809 H   0  0  0  0  0  0  0  0  0  0  0  0
    1.2873    8.3699    3.3212 H   0  0  0  0  0  0  0  0  0  0  0  0
    0.2155    9.8054    3.4139 H   0  0  0  0  0  0  0  0  0  0  0  0
    1.6932    9.6870    4.4343 H   0  0  0  0  0  0  0  0  0  0  0  0
  1  5  1  0  0  0  0
  1  4  1  0  0  0  0
  2  1  1  0  0  0  0
  2 10  1  0  0  0  0
  2 11  1  1  0  0  0
  3  8  1  0  0  0  0
  3  1  1  0  0  0  0
  3  9  1  1  0  0  0
  7 10  1  0  0  0  0
  8 13  1  0  0  0  0
  8 10  1  0  0  0  0
  9 16  1  0  0  0  0
  9 14  1  0  0  0  0
 10  6  1  0  0  0  0
 11 19  1  0  0  0  0
 12  8  1  0  0  0  0
 15  9  1  0  0  0  0
 17 11  1  0  0  0  0
 18 11  1  0  0  0  0
M  END
$$$$
