CSD_code = CUCSUQ | q = 0 | S = 0 | Stoichiometry = C22H19Br2N5Zn | MND = 4
 OpenBabel04212202023D

 49 54  0  0  1  0  0  0  0  0999 V2000
    1.8590    2.5216    3.2982 Zn  0  0  0  0  0  0  0  0  0  0  0  0
   -0.2024    3.5580    2.5568 Br  0  0  0  0  0  0  0  0  0  0  0  0
    4.1100    2.7016    2.6795 Br  0  0  0  0  0  0  0  0  0  0  0  0
    1.8303    3.4836    5.2342 N   0  0  0  0  0  0  0  0  0  0  0  0
    1.3304    0.5581    2.5626 N   0  0  0  0  0  0  0  0  0  0  0  0
    0.7098   -1.0875    1.1366 C   0  0  0  0  0  0  0  0  0  0  0  0
    0.2972    1.1086    5.1330 N   0  0  0  0  0  0  0  0  0  0  0  0
    0.6820    4.2837    6.9470 N   0  0  0  0  0  0  0  0  0  0  0  0
   -0.0679    4.3916    7.6096 H   0  0  0  0  0  0  0  0  0  0  0  0
   -0.2225   -0.9599    2.1421 N   0  0  0  0  0  0  0  0  0  0  0  0
   -1.0840   -1.4736    2.2258 H   0  0  0  0  0  0  0  0  0  0  0  0
    1.6982   -0.1225    1.4185 C   0  0  0  0  0  0  0  0  0  0  0  0
    2.8077    0.0056    0.5905 C   0  0  0  0  0  0  0  0  0  0  0  0
    3.5798    0.7296    0.7892 H   0  0  0  0  0  0  0  0  0  0  0  0
    0.1995    0.0359    2.9566 C   0  0  2  0  0  3  0  0  0  0  0  0
    0.7711    3.3355    5.9845 C   0  0  1  0  0  3  0  0  0  0  0  0
   -0.2564    2.2695    5.8041 C   0  0  0  0  0  0  0  0  0  0  0  0
   -0.6967    2.0103    6.7805 H   0  0  0  0  0  0  0  0  0  0  0  0
   -1.0485    2.6918    5.1759 H   0  0  0  0  0  0  0  0  0  0  0  0
   -0.5709    0.4854    4.1517 C   0  0  0  0  0  0  0  0  0  0  0  0
   -1.2961    1.2296    3.8043 H   0  0  0  0  0  0  0  0  0  0  0  0
   -1.1299   -0.3648    4.5749 H   0  0  0  0  0  0  0  0  0  0  0  0
    2.4978    4.5935    5.7139 C   0  0  0  0  0  0  0  0  0  0  0  0
    0.7906   -1.9309    0.0419 C   0  0  0  0  0  0  0  0  0  0  0  0
    0.0241   -2.6624   -0.1631 H   0  0  0  0  0  0  0  0  0  0  0  0
    1.7690    5.1166    6.8015 C   0  0  0  0  0  0  0  0  0  0  0  0
    3.3514    6.8376    7.0702 C   0  0  0  0  0  0  0  0  0  0  0  0
    3.7096    7.7196    7.5790 H   0  0  0  0  0  0  0  0  0  0  0  0
    1.8965   -1.7864   -0.7717 C   0  0  0  0  0  0  0  0  0  0  0  0
    2.0012   -2.4213   -1.6383 H   0  0  0  0  0  0  0  0  0  0  0  0
    2.8832   -0.8378   -0.4985 C   0  0  0  0  0  0  0  0  0  0  0  0
    3.7315   -0.7619   -1.1609 H   0  0  0  0  0  0  0  0  0  0  0  0
    3.6779    5.2035    5.3039 C   0  0  0  0  0  0  0  0  0  0  0  0
    4.2563    4.8185    4.4811 H   0  0  0  0  0  0  0  0  0  0  0  0
    1.1064    0.2540    5.9027 C   0  0  0  0  0  0  0  0  0  0  0  0
    2.1954   -1.8805    6.2389 C   0  0  0  0  0  0  0  0  0  0  0  0
    2.3826   -2.8853    5.8902 H   0  0  0  0  0  0  0  0  0  0  0  0
    4.0829    6.3249    5.9979 C   0  0  0  0  0  0  0  0  0  0  0  0
    4.9934    6.8224    5.7020 H   0  0  0  0  0  0  0  0  0  0  0  0
    1.6984    0.6924    7.0891 C   0  0  0  0  0  0  0  0  0  0  0  0
    1.5447    1.6970    7.4475 H   0  0  0  0  0  0  0  0  0  0  0  0
    2.1804    6.2421    7.4944 C   0  0  0  0  0  0  0  0  0  0  0  0
    1.6100    6.6332    8.3229 H   0  0  0  0  0  0  0  0  0  0  0  0
    2.5206   -0.1385    7.8264 C   0  0  0  0  0  0  0  0  0  0  0  0
    2.9662    0.2367    8.7358 H   0  0  0  0  0  0  0  0  0  0  0  0
    1.3718   -1.0553    5.4963 C   0  0  0  0  0  0  0  0  0  0  0  0
    0.9565   -1.4484    4.5830 H   0  0  0  0  0  0  0  0  0  0  0  0
    2.7745   -1.4330    7.4119 C   0  0  0  0  0  0  0  0  0  0  0  0
    3.4173   -2.0788    7.9890 H   0  0  0  0  0  0  0  0  0  0  0  0
  1  4  1  0  0  0  0
  2  1  1  0  0  0  0
  3  1  1  0  0  0  0
  4 23  1  0  0  0  0
  5 15  1  0  0  0  0
  5  1  1  0  0  0  0
  6 12  1  0  0  0  0
  6 10  1  0  0  0  0
  7 17  1  0  0  0  0
  7 35  1  0  0  0  0
  8  9  1  0  0  0  0
 10 11  1  0  0  0  0
 12  5  1  0  0  0  0
 13 14  1  0  0  0  0
 13 12  2  0  0  0  0
 15 10  1  6  0  0  0
 15 20  1  0  0  0  0
 16  4  1  6  0  0  0
 16  8  1  0  0  0  0
 17 16  1  0  0  0  0
 17 18  1  0  0  0  0
 19 17  1  0  0  0  0
 20 22  1  0  0  0  0
 20  7  1  0  0  0  0
 21 20  1  0  0  0  0
 23 26  1  0  0  0  0
 24  6  2  0  0  0  0
 25 24  1  0  0  0  0
 26  8  1  0  0  0  0
 26 42  2  0  0  0  0
 27 42  1  0  0  0  0
 27 28  1  0  0  0  0
 29 31  2  0  0  0  0
 29 24  1  0  0  0  0
 30 29  1  0  0  0  0
 31 13  1  0  0  0  0
 32 31  1  0  0  0  0
 33 23  2  0  0  0  0
 33 38  1  0  0  0  0
 34 33  1  0  0  0  0
 35 40  1  0  0  0  0
 36 48  2  0  0  0  0
 37 36  1  0  0  0  0
 38 27  2  0  0  0  0
 39 38  1  0  0  0  0
 40 41  1  0  0  0  0
 40 44  2  0  0  0  0
 42 43  1  0  0  0  0
 44 45  1  0  0  0  0
 46 35  2  0  0  0  0
 46 36  1  0  0  0  0
 47 46  1  0  0  0  0
 48 44  1  0  0  0  0
 48 49  1  0  0  0  0
M  END
$$$$
