CSD_code = CUCWUU | q = 0 | S = 0 | Stoichiometry = C15H16Br2FeN2S | MND = 5
 OpenBabel04212202023D

 37 40  0  0  0  0  0  0  0  0999 V2000
    1.3731    3.1934    9.3777 C   0  0  0  0  0  0  0  0  0  0  0  0
    0.5697    2.0939    9.1434 C   0  0  0  0  0  0  0  0  0  0  0  0
   -0.5008    2.2210    9.0891 H   0  0  0  0  0  0  0  0  0  0  0  0
    1.1441    0.8511    8.9453 C   0  0  0  0  0  0  0  0  0  0  0  0
    0.5209   -0.0104    8.7642 H   0  0  0  0  0  0  0  0  0  0  0  0
    2.5248    0.7372    8.9222 C   0  0  0  0  0  0  0  0  0  0  0  0
    2.9830   -0.2150    8.7020 H   0  0  0  0  0  0  0  0  0  0  0  0
    3.3309    1.8334    9.1587 C   0  0  0  0  0  0  0  0  0  0  0  0
    4.3989    1.7327    9.0695 H   0  0  0  0  0  0  0  0  0  0  0  0
    2.7694    3.0825    9.4467 C   0  0  0  0  0  0  0  0  0  0  0  0
    4.7640    4.2699   10.0657 C   0  0  0  0  0  0  0  0  0  0  0  0
    5.3844    5.5373    9.8342 C   0  0  0  0  0  0  0  0  0  0  0  0
    6.7384    5.8391   10.0288 C   0  0  0  0  0  0  0  0  0  0  0  0
    7.4028    5.0963   10.4377 H   0  0  0  0  0  0  0  0  0  0  0  0
    7.1963    7.0895    9.6812 C   0  0  0  0  0  0  0  0  0  0  0  0
    8.2344    7.3502    9.8190 H   0  0  0  0  0  0  0  0  0  0  0  0
    6.3055    8.0210    9.1551 C   0  0  0  0  0  0  0  0  0  0  0  0
    6.6374    9.0099    8.8836 H   0  0  0  0  0  0  0  0  0  0  0  0
    4.9724    7.6771    8.9955 C   0  0  0  0  0  0  0  0  0  0  0  0
    3.9643    8.6390    8.4569 C   0  0  0  0  0  0  0  0  0  0  0  0
    3.8513    8.4878    7.3835 H   0  0  0  0  0  0  0  0  0  0  0  0
    4.2712    9.6649    8.6378 H   0  0  0  0  0  0  0  0  0  0  0  0
    2.9881    8.4690    8.9206 H   0  0  0  0  0  0  0  0  0  0  0  0
    5.4936    3.1773   10.7839 C   0  0  0  0  0  0  0  0  0  0  0  0
    4.7964    2.4454   11.1841 H   0  0  0  0  0  0  0  0  0  0  0  0
    6.0459    3.6153   11.6143 H   0  0  0  0  0  0  0  0  0  0  0  0
    6.2104    2.6721   10.1355 H   0  0  0  0  0  0  0  0  0  0  0  0
   -0.1427    4.6867   11.1014 C   0  0  0  0  0  0  0  0  0  0  0  0
   -0.8981    3.9083   11.0582 H   0  0  0  0  0  0  0  0  0  0  0  0
   -0.6016    5.6473   11.3114 H   0  0  0  0  0  0  0  0  0  0  0  0
    0.6036    4.4650   11.8572 H   0  0  0  0  0  0  0  0  0  0  0  0
    2.5204    5.7811    7.0740 Br  0  0  0  0  0  0  0  0  0  0  0  0
    2.5092    6.7249   11.4580 Br  0  0  0  0  0  0  0  0  0  0  0  0
    2.7182    5.8765    9.3512 Fe  0  0  0  0  0  0  0  0  0  0  0  0
    3.5010    4.2399    9.6682 N   0  0  0  0  0  0  0  0  0  0  0  0
    4.5329    6.4639    9.3253 N   0  0  0  0  0  0  0  0  0  0  0  0
    0.6426    4.8174    9.4631 S   0  0  1  0  0  3  0  0  0  0  0  0
  1 10  1  0  0  0  0
  1 37  1  0  0  0  0
  2  1  2  0  0  0  0
  3  2  1  0  0  0  0
  4  2  1  0  0  0  0
  5  4  1  0  0  0  0
  6  4  2  0  0  0  0
  6  8  1  0  0  0  0
  7  6  1  0  0  0  0
  8 10  2  0  0  0  0
  9  8  1  0  0  0  0
 10 35  1  0  0  0  0
 11 24  1  0  0  0  0
 12 13  1  0  0  0  0
 12 11  2  0  0  0  0
 13 14  1  0  0  0  0
 15 16  1  0  0  0  0
 15 13  2  0  0  0  0
 17 15  1  0  0  0  0
 18 17  1  0  0  0  0
 19 17  2  0  0  0  0
 19 36  1  0  0  0  0
 20 22  1  0  0  0  0
 20 23  1  0  0  0  0
 20 19  1  0  0  0  0
 21 20  1  0  0  0  0
 24 25  1  0  0  0  0
 24 26  1  0  0  0  0
 27 24  1  0  0  0  0
 28 30  1  0  0  0  0
 28 31  1  0  0  0  0
 29 28  1  0  0  0  0
 32 34  1  0  0  0  0
 34 37  1  0  0  0  0
 34 35  1  0  0  0  0
 34 33  1  0  0  0  0
 35 11  1  0  0  0  0
 36 34  1  0  0  0  0
 36 12  1  0  0  0  0
 37 28  1  1  0  0  0
M  END
$$$$
