CSD_code = CUDBOU | q = 0 | S = 0 | Stoichiometry = C18H13ClN4Pd | MND = 4
 OpenBabel04212202023D

 37 41  0  0  0  0  0  0  0  0999 V2000
    1.3063    4.9106    0.9875 Pd  0  0  1  0  0  0  0  0  0  0  0  0
    2.9535    4.7385    2.4238 Cl  0  0  0  0  0  0  0  0  0  0  0  0
    0.1875    4.9998   -1.5948 N   0  0  0  0  0  0  0  0  0  0  0  0
   -0.0750    5.0897   -0.3445 N   0  0  0  0  0  0  0  0  0  0  0  0
   -0.4297    5.3179    2.2633 N   0  0  0  0  0  0  0  0  0  0  0  0
   -0.4052    5.8758    3.4156 N   0  0  0  0  0  2  0  0  0  0  0  0
    2.4026    4.8053   -0.7057 C   0  0  0  0  0  0  0  0  0  0  0  0
    3.7643    4.7310   -0.9477 C   0  0  0  0  0  0  0  0  0  0  0  0
    4.4654    4.7382   -0.1230 H   0  0  0  0  0  0  0  0  0  0  0  0
    4.2410    4.6095   -2.2488 C   0  0  0  0  0  0  0  0  0  0  0  0
    5.3042    4.5149   -2.4160 H   0  0  0  0  0  0  0  0  0  0  0  0
    3.3711    4.5964   -3.3324 C   0  0  0  0  0  0  0  0  0  0  0  0
    3.7634    4.5066   -4.3346 H   0  0  0  0  0  0  0  0  0  0  0  0
    2.0122    4.7069   -3.1323 C   0  0  0  0  0  0  0  0  0  0  0  0
    1.3162    4.7264   -3.9565 H   0  0  0  0  0  0  0  0  0  0  0  0
    1.5203    4.8179   -1.8267 C   0  0  0  0  0  0  0  0  0  0  0  0
   -1.3562    5.3721    0.0647 C   0  0  0  0  0  0  0  0  0  0  0  0
   -2.4518    5.5063   -0.7923 C   0  0  0  0  0  0  0  0  0  0  0  0
   -2.2986    5.3620   -1.8503 H   0  0  0  0  0  0  0  0  0  0  0  0
   -3.6883    5.8213   -0.2719 C   0  0  0  0  0  0  0  0  0  0  0  0
   -4.5365    5.9259   -0.9309 H   0  0  0  0  0  0  0  0  0  0  0  0
   -3.8539    6.0075    1.1009 C   0  0  0  0  0  0  0  0  0  0  0  0
   -4.8295    6.2556    1.4908 H   0  0  0  0  0  0  0  0  0  0  0  0
   -2.7883    5.8766    1.9636 C   0  0  0  0  0  0  0  0  0  0  0  0
   -2.9016    6.0029    3.0296 H   0  0  0  0  0  0  0  0  0  0  0  0
   -1.5214    5.5581    1.4594 C   0  0  0  0  0  0  0  0  0  0  0  0
    0.4553    5.3829    4.3546 C   0  0  0  0  0  0  0  0  0  0  0  0
    0.9401    4.0624    4.3251 C   0  0  0  0  0  0  0  0  0  0  0  0
    0.6275    3.3950    3.5256 H   0  0  0  0  0  0  0  0  0  0  0  0
    1.7375    3.6027    5.3548 C   0  0  0  0  0  0  0  0  0  0  0  0
    2.1010    2.5862    5.3366 H   0  0  0  0  0  0  0  0  0  0  0  0
    2.0871    4.4465    6.3954 C   0  0  0  0  0  0  0  0  0  0  0  0
    2.7233    4.0856    7.1897 H   0  0  0  0  0  0  0  0  0  0  0  0
    1.6176    5.7556    6.4271 C   0  0  0  0  0  0  0  0  0  0  0  0
    1.8967    6.4068    7.2421 H   0  0  0  0  0  0  0  0  0  0  0  0
    0.7992    6.2223    5.4247 C   0  0  0  0  0  0  0  0  0  0  0  0
    0.4302    7.2364    5.4231 H   0  0  0  0  0  0  0  0  0  0  0  0
  1  5  1  0  0  0  0
  1  2  1  1  0  0  0
  3  4  1  0  0  0  0
  4 17  1  0  0  0  0
  4  1  1  0  0  0  0
  5  6  1  0  0  0  0
  6 27  1  0  0  0  0
  7  1  2  0  0  0  0
  8  7  1  0  0  0  0
  8  9  1  0  0  0  0
 10  8  2  0  0  0  0
 11 10  1  0  0  0  0
 12 14  2  0  0  0  0
 12 10  1  0  0  0  0
 13 12  1  0  0  0  0
 14 16  1  0  0  0  0
 15 14  1  0  0  0  0
 16  3  2  0  0  0  0
 16  7  1  0  0  0  0
 17 26  1  0  0  0  0
 18 20  1  0  0  0  0
 18 17  2  0  0  0  0
 19 18  1  0  0  0  0
 20 22  2  0  0  0  0
 21 20  1  0  0  0  0
 22 23  1  0  0  0  0
 22 24  1  0  0  0  0
 24 25  1  0  0  0  0
 26 24  2  0  0  0  0
 26  5  1  0  0  0  0
 27 36  1  0  0  0  0
 28 27  2  0  0  0  0
 28 30  1  0  0  0  0
 29 28  1  0  0  0  0
 30 32  2  0  0  0  0
 31 30  1  0  0  0  0
 32 34  1  0  0  0  0
 32 33  1  0  0  0  0
 34 35  1  0  0  0  0
 36 34  2  0  0  0  0
 37 36  1  0  0  0  0
M  END
$$$$
