CSD_code = CUDBUA | q = 0 | S = 0 | Stoichiometry = C18H13BrN4Pd | MND = 4
 OpenBabel04212202023D

 37 41  0  0  0  0  0  0  0  0999 V2000
    1.4861    3.5823    4.4292 Pd  0  0  2  0  0  0  0  0  0  0  0  0
   -0.1917    2.0073    3.9429 Br  0  0  0  0  0  0  0  0  0  0  0  0
    4.0831    4.5554    3.8577 N   0  0  0  0  0  2  0  0  0  0  0  0
    3.2610    4.3070    4.8043 N   0  0  0  0  0  0  0  0  0  0  0  0
    1.3381    3.8486    6.5084 N   0  0  0  0  0  0  0  0  0  0  0  0
    0.3918    4.3126    7.2108 N   0  0  0  0  0  2  0  0  0  0  0  0
    2.1257    4.0401    2.5804 C   0  0  0  0  0  0  0  0  0  0  0  0
    1.4908    4.0435    1.3469 C   0  0  0  0  0  0  0  0  0  0  0  0
    0.4616    3.7132    1.2668 H   0  0  0  0  0  0  0  0  0  0  0  0
    2.1797    4.4187    0.2026 C   0  0  0  0  0  0  0  0  0  0  0  0
    1.6804    4.3793   -0.7546 H   0  0  0  0  0  0  0  0  0  0  0  0
    3.5101    4.8272    0.2672 C   0  0  0  0  0  0  0  0  0  0  0  0
    4.0251    5.1151   -0.6373 H   0  0  0  0  0  0  0  0  0  0  0  0
    4.1645    4.8741    1.4754 C   0  0  0  0  0  0  0  0  0  0  0  0
    5.1857    5.2124    1.5574 H   0  0  0  0  0  0  0  0  0  0  0  0
    3.4802    4.4971    2.6402 C   0  0  0  0  0  0  0  0  0  0  0  0
    3.6678    4.1668    6.1089 C   0  0  0  0  0  0  0  0  0  0  0  0
    4.9892    4.2477    6.5561 C   0  0  0  0  0  0  0  0  0  0  0  0
    5.7692    4.4399    5.8359 H   0  0  0  0  0  0  0  0  0  0  0  0
    5.2602    4.0773    7.8968 C   0  0  0  0  0  0  0  0  0  0  0  0
    6.2794    4.1336    8.2469 H   0  0  0  0  0  0  0  0  0  0  0  0
    4.2323    3.8329    8.8060 C   0  0  0  0  0  0  0  0  0  0  0  0
    4.4647    3.7056    9.8521 H   0  0  0  0  0  0  0  0  0  0  0  0
    2.9197    3.7598    8.3867 C   0  0  0  0  0  0  0  0  0  0  0  0
    2.1134    3.5672    9.0776 H   0  0  0  0  0  0  0  0  0  0  0  0
    2.6230    3.9207    7.0344 C   0  0  0  0  0  0  0  0  0  0  0  0
   -0.8673    4.3828    6.6664 C   0  0  0  0  0  0  0  0  0  0  0  0
   -1.0706    4.9321    5.3895 C   0  0  0  0  0  0  0  0  0  0  0  0
   -0.2182    5.3343    4.8164 H   0  0  0  0  0  0  0  0  0  0  0  0
   -2.3556    5.0725    4.9014 C   0  0  0  0  0  0  0  0  0  0  0  0
   -2.5082    5.5013    3.9226 H   0  0  0  0  0  0  0  0  0  0  0  0
   -3.4407    4.6616    5.6578 C   0  0  0  0  0  0  0  0  0  0  0  0
   -4.4399    4.7571    5.2623 H   0  0  0  0  0  0  0  0  0  0  0  0
   -3.2436    4.1414    6.9290 C   0  0  0  0  0  0  0  0  0  0  0  0
   -4.0905    3.8294    7.5213 H   0  0  0  0  0  0  0  0  0  0  0  0
   -1.9709    4.0181    7.4435 C   0  0  0  0  0  0  0  0  0  0  0  0
   -1.8024    3.6019    8.4246 H   0  0  0  0  0  0  0  0  0  0  0  0
  1  2  1  6  0  0  0
  1  4  1  0  0  0  0
  1  5  1  0  0  0  0
  3  4  1  0  0  0  0
  4 17  1  0  0  0  0
  5 26  1  0  0  0  0
  5  6  1  0  0  0  0
  7 16  1  0  0  0  0
  7  1  1  0  0  0  0
  8  7  2  0  0  0  0
  9  8  1  0  0  0  0
 10 12  2  0  0  0  0
 10  8  1  0  0  0  0
 11 10  1  0  0  0  0
 12 14  1  0  0  0  0
 13 12  1  0  0  0  0
 14 15  1  0  0  0  0
 14 16  2  0  0  0  0
 16  3  1  0  0  0  0
 17 18  2  0  0  0  0
 17 26  1  0  0  0  0
 18 20  1  0  0  0  0
 19 18  1  0  0  0  0
 20 21  1  0  0  0  0
 20 22  2  0  0  0  0
 22 23  1  0  0  0  0
 24 22  1  0  0  0  0
 24 25  1  0  0  0  0
 26 24  2  0  0  0  0
 27  6  1  0  0  0  0
 27 36  1  0  0  0  0
 28 27  2  0  0  0  0
 29 28  1  0  0  0  0
 30 28  1  0  0  0  0
 30 32  2  0  0  0  0
 31 30  1  0  0  0  0
 32 34  1  0  0  0  0
 33 32  1  0  0  0  0
 34 36  2  0  0  0  0
 34 35  1  0  0  0  0
 36 37  1  0  0  0  0
M  END
$$$$
