CSD_code = CUDJER | q = 0 | S = 0 | Stoichiometry = C21H21I2N3Pd | MND = 4
 OpenBabel04212202023D

 48 51  0  0  1  0  0  0  0  0999 V2000
    2.4895    2.5955    3.1302 C   0  0  0  0  0  0  0  0  0  0  0  0
    1.6668    1.5748    3.5600 C   0  0  0  0  0  0  0  0  0  0  0  0
    0.5468    3.4572    3.8499 C   0  0  2  0  0  3  0  0  0  0  0  0
    2.1885    5.0205    3.1059 C   0  0  0  0  0  0  0  0  0  0  0  0
    3.2045    5.1322    2.7282 H   0  0  0  0  0  0  0  0  0  0  0  0
    1.3404    6.0617    3.3435 C   0  0  0  0  0  0  0  0  0  0  0  0
    1.7503    7.4764    3.0920 C   0  0  0  0  0  0  0  0  0  0  0  0
    1.7205    8.0482    4.0186 H   0  0  0  0  0  0  0  0  0  0  0  0
    1.0659    7.9451    2.3867 H   0  0  0  0  0  0  0  0  0  0  0  0
    2.7559    7.5221    2.6844 H   0  0  0  0  0  0  0  0  0  0  0  0
    0.0440    5.7773    3.8382 C   0  0  0  0  0  0  0  0  0  0  0  0
   -0.6336    6.5970    4.0178 H   0  0  0  0  0  0  0  0  0  0  0  0
   -0.7027    1.4184    4.4653 C   0  0  0  0  0  0  0  0  0  0  0  0
   -0.5976    0.3686    4.1839 H   0  0  0  0  0  0  0  0  0  0  0  0
   -1.5777    1.8269    3.9487 H   0  0  0  0  0  0  0  0  0  0  0  0
   -0.8820    1.5541    5.9758 C   0  0  0  0  0  0  0  0  0  0  0  0
    0.0000    1.1993    6.5038 H   0  0  0  0  0  0  0  0  0  0  0  0
   -1.7394    0.9691    6.2969 H   0  0  0  0  0  0  0  0  0  0  0  0
   -1.0439    2.5923    6.2547 H   0  0  0  0  0  0  0  0  0  0  0  0
    2.0867    0.1804    3.5919 C   0  0  0  0  0  0  0  0  0  0  0  0
    1.7941   -0.6825    4.6465 C   0  0  0  0  0  0  0  0  0  0  0  0
    1.1901   -0.3466    5.4745 H   0  0  0  0  0  0  0  0  0  0  0  0
    2.3235   -1.9596    4.6760 C   0  0  0  0  0  0  0  0  0  0  0  0
    2.0941   -2.6108    5.5064 H   0  0  0  0  0  0  0  0  0  0  0  0
    3.1574   -2.3972    3.6625 C   0  0  0  0  0  0  0  0  0  0  0  0
    3.5760   -3.3918    3.6947 H   0  0  0  0  0  0  0  0  0  0  0  0
   -0.3564    4.4920    4.0963 C   0  0  0  0  0  0  0  0  0  0  0  0
   -1.3417    4.2760    4.4756 H   0  0  0  0  0  0  0  0  0  0  0  0
    3.4598   -1.5490    2.6091 C   0  0  0  0  0  0  0  0  0  0  0  0
    4.1041   -1.8909    1.8112 H   0  0  0  0  0  0  0  0  0  0  0  0
    2.9360   -0.2703    2.5703 C   0  0  0  0  0  0  0  0  0  0  0  0
    3.1369    0.3688    1.7025 H   0  0  0  0  0  0  0  0  0  0  0  0
    6.6486    1.0737    1.3900 C   0  0  0  0  0  3  0  0  0  0  0  0
    6.0097    0.2255    1.6374 H   0  0  0  0  0  0  0  0  0  0  0  0
    7.9296    0.8927    0.9011 C   0  0  0  0  0  0  0  0  0  0  0  0
    8.3122   -0.1035    0.7444 H   0  0  0  0  0  0  0  0  0  0  0  0
    8.7032    2.0103    0.6261 C   0  0  0  0  0  0  0  0  0  0  0  0
    9.7081    1.9038    0.2467 H   0  0  0  0  0  0  0  0  0  0  0  0
    8.1623    3.2668    0.8514 C   0  0  0  0  0  0  0  0  0  0  0  0
    8.7294    4.1629    0.6554 H   0  0  0  0  0  0  0  0  0  0  0  0
    6.8700    3.3571    1.3357 C   0  0  0  0  0  0  0  0  0  0  0  0
    6.4018    4.3238    1.5232 H   0  0  0  0  0  0  0  0  0  0  0  0
    4.2914    2.4626    2.3596 Pd  0  0  0  0  0  0  0  0  0  0  0  0
    3.3536    3.1864    0.0157 I   0  0  0  0  0  0  0  0  0  0  0  0
    5.2391    2.1095    4.7634 I   0  0  0  0  0  0  0  0  0  0  0  0
    1.7840    3.7472    3.3389 N   0  0  0  0  0  0  0  0  0  0  0  0
    0.4694    2.1185    3.9980 N   0  0  0  0  0  0  0  0  0  0  0  0
    6.1341    2.2817    1.5959 N   0  0  0  0  0  0  0  0  0  0  0  0
  1 46  1  0  0  0  0
  1  2  2  0  0  0  0
  2 20  1  0  0  0  0
  2 47  1  0  0  0  0
  3 47  1  0  0  0  0
  3 27  1  6  0  0  0
  4 46  1  0  0  0  0
  4  6  2  0  0  0  0
  5  4  1  0  0  0  0
  6 11  1  0  0  0  0
  7  6  1  0  0  0  0
  7  8  1  0  0  0  0
  9  7  1  0  0  0  0
 10  7  1  0  0  0  0
 11 12  1  0  0  0  0
 11 27  2  0  0  0  0
 13 16  1  0  0  0  0
 14 13  1  0  0  0  0
 15 13  1  0  0  0  0
 16 19  1  0  0  0  0
 16 18  1  0  0  0  0
 16 17  1  0  0  0  0
 20 21  1  0  0  0  0
 21 23  2  0  0  0  0
 21 22  1  0  0  0  0
 23 24  1  0  0  0  0
 25 26  1  0  0  0  0
 25 23  1  0  0  0  0
 27 28  1  0  0  0  0
 29 25  2  0  0  0  0
 30 29  1  0  0  0  0
 31 29  1  0  0  0  0
 31 20  2  0  0  0  0
 32 31  1  0  0  0  0
 33 48  1  0  0  0  0
 33 34  1  0  0  0  0
 35 33  1  0  0  0  0
 36 35  1  0  0  0  0
 37 39  1  0  0  0  0
 37 35  2  0  0  0  0
 38 37  1  0  0  0  0
 39 41  2  0  0  0  0
 40 39  1  0  0  0  0
 41 42  1  0  0  0  0
 41 48  1  0  0  0  0
 43  1  1  0  0  0  0
 43 45  1  0  0  0  0
 44 43  1  0  0  0  0
 46  3  1  0  0  0  0
 47 13  1  0  0  0  0
 48 43  1  0  0  0  0
M  END
$$$$
