CSD_code = CUDJAN | q = 0 | S = 0 | Stoichiometry = C21H21I2N3Pd | MND = 4
 OpenBabel04212202023D

 48 51  0  0  1  0  0  0  0  0999 V2000
    2.3013    7.9127    7.4486 Pd  0  0  0  0  0  0  0  0  0  0  0  0
   -0.1680    8.8066    7.3907 I   0  0  0  0  0  0  0  0  0  0  0  0
    4.6902    6.9046    7.1778 I   0  0  0  0  0  0  0  0  0  0  0  0
    0.9377    5.2746    7.1863 N   0  0  0  0  0  0  0  0  0  0  0  0
    1.1126    4.2840    9.1349 N   0  0  0  0  0  0  0  0  0  0  0  0
    2.9931    9.7215    6.9434 N   0  0  0  0  0  0  0  0  0  0  0  0
    1.6477    6.1374    7.9762 C   0  0  0  0  0  0  0  0  0  0  0  0
    0.5951    4.1544    7.8972 C   0  0  1  0  0  3  0  0  0  0  0  0
    1.7696    5.5060    9.1950 C   0  0  0  0  0  0  0  0  0  0  0  0
    0.5907    5.4261    5.8851 C   0  0  0  0  0  0  0  0  0  0  0  0
    0.9387    6.3380    5.4017 H   0  0  0  0  0  0  0  0  0  0  0  0
   -0.1483    4.4638    5.2761 C   0  0  0  0  0  0  0  0  0  0  0  0
   -0.4323    4.5775    4.2429 H   0  0  0  0  0  0  0  0  0  0  0  0
   -0.5590    3.3081    5.9860 C   0  0  0  0  0  0  0  0  0  0  0  0
   -1.3890    2.2816    5.2893 C   0  0  0  0  0  0  0  0  0  0  0  0
   -1.6368    1.4580    5.9531 H   0  0  0  0  0  0  0  0  0  0  0  0
   -0.8537    1.8883    4.4260 H   0  0  0  0  0  0  0  0  0  0  0  0
   -2.3125    2.7313    4.9273 H   0  0  0  0  0  0  0  0  0  0  0  0
   -0.1767    3.1577    7.2994 C   0  0  0  0  0  0  0  0  0  0  0  0
   -0.4686    2.2885    7.8666 H   0  0  0  0  0  0  0  0  0  0  0  0
    0.9216    3.3305   10.2010 C   0  0  0  0  0  0  0  0  0  0  0  0
   -0.1362    3.0476   10.2258 H   0  0  0  0  0  0  0  0  0  0  0  0
    1.1645    3.8298   11.1411 H   0  0  0  0  0  0  0  0  0  0  0  0
    1.7876    2.0865   10.0148 C   0  0  0  0  0  0  0  0  0  0  0  0
    1.5140    1.5567    9.1058 H   0  0  0  0  0  0  0  0  0  0  0  0
    1.6553    1.4182   10.8611 H   0  0  0  0  0  0  0  0  0  0  0  0
    2.8390    2.3542    9.9425 H   0  0  0  0  0  0  0  0  0  0  0  0
    2.5440    6.0562   10.2990 C   0  0  0  0  0  0  0  0  0  0  0  0
    3.3752    5.2854   11.1099 C   0  0  0  0  0  0  0  0  0  0  0  0
    3.4372    4.2179   10.9693 H   0  0  0  0  0  0  0  0  0  0  0  0
    4.1766    5.8844   12.0644 C   0  0  0  0  0  0  0  0  0  0  0  0
    4.8214    5.2717   12.6770 H   0  0  0  0  0  0  0  0  0  0  0  0
    4.1714    7.2587   12.2233 C   0  0  0  0  0  0  0  0  0  0  0  0
    4.8061    7.7225   12.9633 H   0  0  0  0  0  0  0  0  0  0  0  0
    3.3530    8.0383   11.4216 C   0  0  0  0  0  0  0  0  0  0  0  0
    3.3408    9.1118   11.5484 H   0  0  0  0  0  0  0  0  0  0  0  0
    2.5477    7.4492   10.4650 C   0  0  0  0  0  0  0  0  0  0  0  0
    1.8640    8.0733    9.8771 H   0  0  0  0  0  0  0  0  0  0  0  0
    3.5870   10.4849    7.8547 C   0  0  0  0  0  3  0  0  0  0  0  0
    3.6583   10.0722    8.8612 H   0  0  0  0  0  0  0  0  0  0  0  0
    4.1008   11.7318    7.5486 C   0  0  0  0  0  0  0  0  0  0  0  0
    4.5733   12.3246    8.3157 H   0  0  0  0  0  0  0  0  0  0  0  0
    3.9990   12.1941    6.2452 C   0  0  0  0  0  0  0  0  0  0  0  0
    4.3916   13.1619    5.9728 H   0  0  0  0  0  0  0  0  0  0  0  0
    3.3862   11.3879    5.2984 C   0  0  0  0  0  0  0  0  0  0  0  0
    3.2887   11.7056    4.2726 H   0  0  0  0  0  0  0  0  0  0  0  0
    2.8939   10.1569    5.6918 C   0  0  0  0  0  0  0  0  0  0  0  0
    2.3997    9.4917    4.9833 H   0  0  0  0  0  0  0  0  0  0  0  0
  1  7  1  0  0  0  0
  2  1  1  0  0  0  0
  3  1  1  0  0  0  0
  4  8  1  0  0  0  0
  4  7  1  0  0  0  0
  5  9  1  0  0  0  0
  5 21  1  0  0  0  0
  6  1  1  0  0  0  0
  6 39  1  0  0  0  0
  7  9  2  0  0  0  0
  8 19  1  1  0  0  0
  8  5  1  0  0  0  0
  9 28  1  0  0  0  0
 10  4  1  0  0  0  0
 11 10  1  0  0  0  0
 12 10  2  0  0  0  0
 12 14  1  0  0  0  0
 13 12  1  0  0  0  0
 14 19  2  0  0  0  0
 15 16  1  0  0  0  0
 15 14  1  0  0  0  0
 17 15  1  0  0  0  0
 18 15  1  0  0  0  0
 19 20  1  0  0  0  0
 21 22  1  0  0  0  0
 21 23  1  0  0  0  0
 24 21  1  0  0  0  0
 24 26  1  0  0  0  0
 25 24  1  0  0  0  0
 27 24  1  0  0  0  0
 28 37  2  0  0  0  0
 28 29  1  0  0  0  0
 29 31  2  0  0  0  0
 30 29  1  0  0  0  0
 31 33  1  0  0  0  0
 31 32  1  0  0  0  0
 33 34  1  0  0  0  0
 35 36  1  0  0  0  0
 35 33  2  0  0  0  0
 37 35  1  0  0  0  0
 38 37  1  0  0  0  0
 39 40  1  0  0  0  0
 41 39  1  0  0  0  0
 41 42  1  0  0  0  0
 43 41  2  0  0  0  0
 44 43  1  0  0  0  0
 45 47  2  0  0  0  0
 45 43  1  0  0  0  0
 46 45  1  0  0  0  0
 47  6  1  0  0  0  0
 48 47  1  0  0  0  0
M  END
$$$$
