CSD_code = CUDQUN | q = 0 | S = 0 | Stoichiometry = C12H8HgI2N2 | MND = 4
 OpenBabel04212202023D

 25 26  0  0  0  0  0  0  0  0999 V2000
   -1.0659    2.2573    1.1092 Hg  0  0  0  0  0  0  0  0  0  0  0  0
    1.1214    0.8379    1.2779 I   0  0  0  0  0  0  0  0  0  0  0  0
   -2.8591    3.7387   -0.0709 I   0  0  0  0  0  0  0  0  0  0  0  0
   -2.4895    0.9826    2.7376 N   0  0  0  0  0  0  0  0  0  0  0  0
   -1.0714    3.2418    3.4180 N   0  0  0  0  0  0  0  0  0  0  0  0
   -3.1776   -0.0900    2.4141 C   0  0  0  0  0  0  0  0  0  0  0  0
   -3.1708   -0.3677    1.3676 H   0  0  0  0  0  0  0  0  0  0  0  0
   -3.8911   -0.8553    3.3393 C   0  0  0  0  0  0  0  0  0  0  0  0
   -4.4353   -1.7255    3.0089 H   0  0  0  0  0  0  0  0  0  0  0  0
   -3.8763   -0.4735    4.6570 C   0  0  0  0  0  0  0  0  0  0  0  0
   -4.4100   -1.0353    5.4100 H   0  0  0  0  0  0  0  0  0  0  0  0
   -3.1541    0.6712    5.0332 C   0  0  0  0  0  0  0  0  0  0  0  0
   -3.1029    1.1231    6.3821 C   0  0  0  0  0  0  0  0  0  0  0  0
   -3.6365    0.5541    7.1290 H   0  0  0  0  0  0  0  0  0  0  0  0
   -2.4066    2.2337    6.7163 C   0  0  0  0  0  0  0  0  0  0  0  0
   -2.3671    2.5800    7.7385 H   0  0  0  0  0  0  0  0  0  0  0  0
   -1.7053    2.9812    5.7285 C   0  0  0  0  0  0  0  0  0  0  0  0
   -0.9807    4.1418    6.0464 C   0  0  0  0  0  0  0  0  0  0  0  0
   -0.9484    4.4831    7.0710 H   0  0  0  0  0  0  0  0  0  0  0  0
   -0.3286    4.8210    5.0484 C   0  0  0  0  0  0  0  0  0  0  0  0
    0.2363    5.7169    5.2499 H   0  0  0  0  0  0  0  0  0  0  0  0
   -0.4048    4.3270    3.7443 C   0  0  0  0  0  0  0  0  0  0  0  0
    0.1001    4.8417    2.9365 H   0  0  0  0  0  0  0  0  0  0  0  0
   -1.7238    2.5626    4.3783 C   0  0  0  0  0  0  0  0  0  0  0  0
   -2.4657    1.3803    4.0223 C   0  0  0  0  0  0  0  0  0  0  0  0
  1  2  1  0  0  0  0
  3  1  1  0  0  0  0
  4 25  1  0  0  0  0
  5 22  2  0  0  0  0
  5 24  1  0  0  0  0
  6  4  2  0  0  0  0
  6  8  1  0  0  0  0
  7  6  1  0  0  0  0
  8 10  2  0  0  0  0
  9  8  1  0  0  0  0
 10 12  1  0  0  0  0
 10 11  1  0  0  0  0
 12 13  1  0  0  0  0
 13 15  2  0  0  0  0
 13 14  1  0  0  0  0
 15 16  1  0  0  0  0
 17 18  1  0  0  0  0
 17 15  1  0  0  0  0
 18 19  1  0  0  0  0
 20 21  1  0  0  0  0
 20 18  2  0  0  0  0
 22 20  1  0  0  0  0
 23 22  1  0  0  0  0
 24 17  2  0  0  0  0
 25 24  1  0  0  0  0
 25 12  2  0  0  0  0
M  END
$$$$
