CSD_code = CUFQID | q = 0 | S = 0 | Stoichiometry = C24H24Cl2NOPPd | MND = 4
 OpenBabel04212202023D

 54 58  0  0  1  0  0  0  0  0999 V2000
    0.9690    7.4786    4.9062 Pd  0  0  0  0  0  0  0  0  0  0  0  0
    2.1776    7.5567    6.8367 Cl  0  0  0  0  0  0  0  0  0  0  0  0
   -0.8278    8.3173    5.9299 Cl  0  0  0  0  0  0  0  0  0  0  0  0
    0.0262    8.0122    2.9389 P   0  0  0  0  0  4  0  0  0  0  0  0
    2.4123    6.4284    3.9747 N   0  0  1  0  0  0  0  0  0  0  0  0
    3.5259    5.2622    2.4441 O   0  0  0  0  0  0  0  0  0  0  0  0
    2.9053    5.2766    4.7149 C   0  0  2  0  0  0  0  0  0  0  0  0
    3.5440    5.6439    5.5276 H   0  0  0  0  0  0  0  0  0  0  0  0
    3.7120    4.5126    3.6428 C   0  0  0  0  0  0  0  0  0  0  0  0
    4.7809    4.4750    3.8665 H   0  0  0  0  0  0  0  0  0  0  0  0
    3.3471    3.4981    3.4674 H   0  0  0  0  0  0  0  0  0  0  0  0
    2.7534    6.3248    2.7449 C   0  0  2  0  0  3  0  0  0  0  0  0
    2.4240    7.2104    1.6320 C   0  0  0  0  0  0  0  0  0  0  0  0
    3.3104    7.2415    0.5515 C   0  0  0  0  0  0  0  0  0  0  0  0
    4.2040    6.6387    0.5965 H   0  0  0  0  0  0  0  0  0  0  0  0
    3.0565    8.0339   -0.5491 C   0  0  0  0  0  0  0  0  0  0  0  0
    3.7565    8.0534   -1.3704 H   0  0  0  0  0  0  0  0  0  0  0  0
    1.9027    8.8025   -0.5968 C   0  0  0  0  0  0  0  0  0  0  0  0
    1.6979    9.4232   -1.4560 H   0  0  0  0  0  0  0  0  0  0  0  0
    1.0126    8.7694    0.4595 C   0  0  0  0  0  0  0  0  0  0  0  0
    0.1089    9.3618    0.4239 H   0  0  0  0  0  0  0  0  0  0  0  0
    1.2535    7.9808    1.5816 C   0  0  0  0  0  0  0  0  0  0  0  0
   -0.2296    9.8103    3.0811 C   0  0  0  0  0  0  0  0  0  0  0  0
    0.7059   10.4949    3.8585 C   0  0  0  0  0  0  0  0  0  0  0  0
    1.5166    9.9399    4.3513 H   0  0  0  0  0  0  0  0  0  0  0  0
    0.5921   11.8608    4.0303 C   0  0  0  0  0  0  0  0  0  0  0  0
    1.3091   12.3899    4.6399 H   0  0  0  0  0  0  0  0  0  0  0  0
   -0.4538   12.5489    3.4332 C   0  0  0  0  0  0  0  0  0  0  0  0
   -0.5488   13.6148    3.5778 H   0  0  0  0  0  0  0  0  0  0  0  0
   -1.3837   11.8711    2.6642 C   0  0  0  0  0  0  0  0  0  0  0  0
   -2.2034   12.4070    2.2085 H   0  0  0  0  0  0  0  0  0  0  0  0
   -1.2749   10.5025    2.4831 C   0  0  0  0  0  0  0  0  0  0  0  0
   -2.0125    9.9717    1.8966 H   0  0  0  0  0  0  0  0  0  0  0  0
   -1.4982    7.3719    2.1989 C   0  0  0  0  0  0  0  0  0  0  0  0
   -1.5453    6.7152    0.9740 C   0  0  0  0  0  0  0  0  0  0  0  0
   -0.6468    6.6003    0.3831 H   0  0  0  0  0  0  0  0  0  0  0  0
   -2.7503    6.2130    0.5137 C   0  0  0  0  0  0  0  0  0  0  0  0
   -2.7898    5.7094   -0.4412 H   0  0  0  0  0  0  0  0  0  0  0  0
   -3.9005    6.3512    1.2732 C   0  0  0  0  0  0  0  0  0  0  0  0
   -4.8370    5.9576    0.9069 H   0  0  0  0  0  0  0  0  0  0  0  0
   -3.8490    6.9838    2.5067 C   0  0  0  0  0  0  0  0  0  0  0  0
   -4.7433    7.0791    3.1040 H   0  0  0  0  0  0  0  0  0  0  0  0
   -2.6514    7.4880    2.9758 C   0  0  0  0  0  0  0  0  0  0  0  0
   -2.5842    7.9666    3.9451 H   0  0  0  0  0  0  0  0  0  0  0  0
    1.7379    4.4885    5.3592 C   0  0  0  0  0  0  0  0  0  0  0  0
    1.3042    5.1462    6.1335 H   0  0  0  0  0  0  0  0  0  0  0  0
    0.6322    4.1519    4.3529 C   0  0  0  0  0  0  0  0  0  0  0  0
   -0.0905    3.4859    4.8178 H   0  0  0  0  0  0  0  0  0  0  0  0
    1.0287    3.6576    3.4667 H   0  0  0  0  0  0  0  0  0  0  0  0
    0.0967    5.0619    4.0436 H   0  0  0  0  0  0  0  0  0  0  0  0
    2.2670    3.2360    6.0523 C   0  0  0  0  0  0  0  0  0  0  0  0
    3.0728    3.4928    6.7350 H   0  0  0  0  0  0  0  0  0  0  0  0
    2.6376    2.5059    5.3357 H   0  0  0  0  0  0  0  0  0  0  0  0
    1.4702    2.7711    6.6269 H   0  0  0  0  0  0  0  0  0  0  0  0
  1  3  1  0  0  0  0
  1  2  1  0  0  0  0
  4 23  1  0  0  0  0
  4  1  1  0  0  0  0
  5  7  1  0  0  0  0
  5  1  1  6  0  0  0
  6 12  1  0  0  0  0
  6  9  1  0  0  0  0
  7 45  1  0  0  0  0
  7  8  1  1  0  0  0
  9 10  1  0  0  0  0
  9  7  1  0  0  0  0
 11  9  1  0  0  0  0
 12 13  1  1  0  0  0
 12  5  1  0  0  0  0
 14 15  1  0  0  0  0
 14 13  2  0  0  0  0
 16 14  1  0  0  0  0
 17 16  1  0  0  0  0
 18 16  2  0  0  0  0
 18 20  1  0  0  0  0
 19 18  1  0  0  0  0
 20 22  2  0  0  0  0
 21 20  1  0  0  0  0
 22 13  1  0  0  0  0
 22  4  1  0  0  0  0
 23 24  1  0  0  0  0
 24 26  2  0  0  0  0
 24 25  1  0  0  0  0
 26 27  1  0  0  0  0
 28 29  1  0  0  0  0
 28 26  1  0  0  0  0
 30 28  2  0  0  0  0
 31 30  1  0  0  0  0
 32 30  1  0  0  0  0
 32 23  2  0  0  0  0
 33 32  1  0  0  0  0
 34  4  1  0  0  0  0
 34 43  1  0  0  0  0
 35 34  2  0  0  0  0
 36 35  1  0  0  0  0
 37 35  1  0  0  0  0
 37 39  2  0  0  0  0
 38 37  1  0  0  0  0
 39 41  1  0  0  0  0
 40 39  1  0  0  0  0
 41 43  2  0  0  0  0
 41 42  1  0  0  0  0
 43 44  1  0  0  0  0
 45 51  1  0  0  0  0
 45 46  1  0  0  0  0
 47 48  1  0  0  0  0
 47 45  1  0  0  0  0
 49 47  1  0  0  0  0
 50 47  1  0  0  0  0
 51 54  1  0  0  0  0
 51 52  1  0  0  0  0
 53 51  1  0  0  0  0
M  END
$$$$
