CSD_code = CUGSUS | q = 0 | S = 0 | Stoichiometry = C9H27Cl4P3W | MND = 7
 OpenBabel04212202023D

 44 42  0  0  0  0  0  0  0  0999 V2000
    3.7239    5.5101    3.2619 W   0  0  0  0  0  0  0  0  0  0  0  0
    5.5924    7.1334    3.4673 Cl  0  0  0  0  0  0  0  0  0  0  0  0
    1.9412    7.0996    3.9450 Cl  0  0  0  0  0  0  0  0  0  0  0  0
    3.4650    4.1294    1.1118 Cl  0  0  0  0  0 15  0  0  0  0  0  0
    4.0271    5.1954    5.6052 Cl  0  0  0  0  0  0  0  0  0  0  0  0
    1.7875    4.0379    3.6315 P   0  0  0  0  0  4  0  0  0  0  0  0
    5.7162    4.0724    3.1387 P   0  0  0  0  0  4  0  0  0  0  0  0
    3.4656    7.1079    1.3774 P   0  0  0  0  0  4  0  0  0  0  0  0
    1.9361    2.2181    3.4470 C   0  0  0  0  0  0  0  0  0  0  0  0
    0.3618    4.3838    2.5364 C   0  0  0  0  0  0  0  0  0  0  0  0
    0.9973    4.1344    5.2758 C   0  0  0  0  0  0  0  0  0  0  0  0
    5.5464    2.2488    3.0258 C   0  0  0  0  0  0  0  0  0  0  0  0
    6.8080    4.4143    1.7096 C   0  0  0  0  0  0  0  0  0  0  0  0
    6.9027    4.2033    4.5217 C   0  0  0  0  0  0  0  0  0  0  0  0
    3.4863    8.8990    1.7479 C   0  0  0  0  0  0  0  0  0  0  0  0
    1.9154    7.0059    0.4024 C   0  0  0  0  0  0  0  0  0  0  0  0
    4.7376    7.0413    0.0578 C   0  0  0  0  0  0  0  0  0  0  0  0
    0.9627    1.7551    3.6051 H   0  0  0  0  0  0  0  0  0  0  0  0
    2.6382    1.8406    4.1889 H   0  0  0  0  0  0  0  0  0  0  0  0
    2.2967    1.9778    2.4493 H   0  0  0  0  0  0  0  0  0  0  0  0
    0.6521    4.2211    1.4998 H   0  0  0  0  0  0  0  0  0  0  0  0
    0.0628    5.4219    2.6771 H   0  0  0  0  0  0  0  0  0  0  0  0
   -0.4672    3.7244    2.7924 H   0  0  0  0  0  0  0  0  0  0  0  0
    0.7622    5.1745    5.4982 H   0  0  0  0  0  0  0  0  0  0  0  0
    1.6904    3.7639    6.0300 H   0  0  0  0  0  0  0  0  0  0  0  0
    0.0845    3.5382    5.2841 H   0  0  0  0  0  0  0  0  0  0  0  0
    6.5324    1.7948    2.9326 H   0  0  0  0  0  0  0  0  0  0  0  0
    5.0654    1.8808    3.9310 H   0  0  0  0  0  0  0  0  0  0  0  0
    4.9413    1.9885    2.1602 H   0  0  0  0  0  0  0  0  0  0  0  0
    7.1152    5.4587    1.7527 H   0  0  0  0  0  0  0  0  0  0  0  0
    7.6862    3.7706    1.7557 H   0  0  0  0  0  0  0  0  0  0  0  0
    6.2657    4.2278    0.7842 H   0  0  0  0  0  0  0  0  0  0  0  0
    6.4318    3.8433    5.4355 H   0  0  0  0  0  0  0  0  0  0  0  0
    7.7921    3.6117    4.3033 H   0  0  0  0  0  0  0  0  0  0  0  0
    7.1777    5.2484    4.6584 H   0  0  0  0  0  0  0  0  0  0  0  0
    4.4267    9.1648    2.2268 H   0  0  0  0  0  0  0  0  0  0  0  0
    3.3803    9.4524    0.8144 H   0  0  0  0  0  0  0  0  0  0  0  0
    2.6630    9.1449    2.4158 H   0  0  0  0  0  0  0  0  0  0  0  0
    1.8261    6.0217   -0.0529 H   0  0  0  0  0  0  0  0  0  0  0  0
    1.0730    7.1802    1.0708 H   0  0  0  0  0  0  0  0  0  0  0  0
    1.9242    7.7682   -0.3761 H   0  0  0  0  0  0  0  0  0  0  0  0
    4.7449    6.0554   -0.4025 H   0  0  0  0  0  0  0  0  0  0  0  0
    4.5184    7.7948   -0.6979 H   0  0  0  0  0  0  0  0  0  0  0  0
    5.7102    7.2467    0.5036 H   0  0  0  0  0  0  0  0  0  0  0  0
  1  2  1  0  0  0  0
  1  6  1  0  0  0  0
  1  3  1  0  0  0  0
  1  5  1  0  0  0  0
  6 11  1  0  0  0  0
  7  1  1  0  0  0  0
  7 14  1  0  0  0  0
  8 15  1  0  0  0  0
  8  1  1  0  0  0  0
  9 18  1  0  0  0  0
  9  6  1  0  0  0  0
  9 19  1  0  0  0  0
 10 22  1  0  0  0  0
 10 23  1  0  0  0  0
 10  6  1  0  0  0  0
 11 26  1  0  0  0  0
 11 24  1  0  0  0  0
 11 25  1  0  0  0  0
 12  7  1  0  0  0  0
 12 28  1  0  0  0  0
 13 30  1  0  0  0  0
 13 31  1  0  0  0  0
 13  7  1  0  0  0  0
 14 35  1  0  0  0  0
 14 33  1  0  0  0  0
 15 36  1  0  0  0  0
 15 38  1  0  0  0  0
 16 40  1  0  0  0  0
 16  8  1  0  0  0  0
 17 44  1  0  0  0  0
 17  8  1  0  0  0  0
 20  9  1  0  0  0  0
 21 10  1  0  0  0  0
 27 12  1  0  0  0  0
 29 12  1  0  0  0  0
 32 13  1  0  0  0  0
 34 14  1  0  0  0  0
 37 15  1  0  0  0  0
 39 16  1  0  0  0  0
 41 16  1  0  0  0  0
 42 17  1  0  0  0  0
 43 17  1  0  0  0  0
M  END
$$$$
