CSD_code = CUGYEI | q = 0 | S = 0 | Stoichiometry = C14H20Cl2N2Ti | MND = 12
 OpenBabel04212202023D

 39 40  0  0  1  0  0  0  0  0999 V2000
   -0.7001    2.9689    4.5173 Ti  0  0  0  0  0  0  0  0  0  0  0  0
   -2.2546    1.3763    4.8315 Cl  0  0  0  0  0  0  0  0  0  0  0  0
   -1.3136    3.2534    6.9122 C   0  0  0  0  0  0  0  0  0  0  0  0
   -1.3220    4.4867    6.2039 C   0  0  0  0  0  0  0  0  0  0  0  0
   -2.1330    5.2012    6.2010 H   0  0  0  0  0  0  0  0  0  0  0  0
    0.0041    4.7685    5.7825 C   0  0  0  0  0  0  0  0  0  0  0  0
    0.3520    5.7180    5.3980 H   0  0  0  0  0  0  0  0  0  0  0  0
    0.8100    3.6685    6.1164 C   0  0  1  0  0  0  0  0  0  0  0  0
    1.8847    3.5986    5.9978 H   0  0  0  0  0  0  0  0  0  0  0  0
   -0.0060    2.7144    6.7763 C   0  0  0  0  0  0  0  0  0  0  0  0
    0.3580    1.7964    7.2174 H   0  0  0  0  0  0  0  0  0  0  0  0
   -2.3363    2.7504    7.6697 N   0  0  0  0  0  0  0  0  0  0  0  0
   -2.1946    1.4103    8.1992 C   0  0  0  0  0  0  0  0  0  0  0  0
   -3.0247    1.2099    8.8739 H   0  0  0  0  0  0  0  0  0  0  0  0
   -1.2677    1.3454    8.7687 H   0  0  0  0  0  0  0  0  0  0  0  0
   -2.1865    0.6518    7.4093 H   0  0  0  0  0  0  0  0  0  0  0  0
   -3.6818    3.1696    7.3419 C   0  0  0  0  0  0  0  0  0  0  0  0
   -4.3769    2.7141    8.0436 H   0  0  0  0  0  0  0  0  0  0  0  0
   -3.7635    4.2526    7.4366 H   0  0  0  0  0  0  0  0  0  0  0  0
   -3.9607    2.8735    6.3221 H   0  0  0  0  0  0  0  0  0  0  0  0
    0.8544    1.3762    4.2029 Cl  0  0  0  0  0  0  0  0  0  0  0  0
   -0.0867    3.2534    2.1225 C   0  0  0  0  0  0  0  0  0  0  0  0
   -0.0782    4.4867    2.8307 C   0  0  0  0  0  0  0  0  0  0  0  0
   -1.4042    4.7685    3.2523 C   0  0  0  0  0  3  0  0  0  0  0  0
   -2.2102    3.6686    2.9184 C   0  0  1  0  0  0  0  0  0  0  0  0
   -1.3943    2.7144    2.2584 C   0  0  0  0  0  3  0  0  0  0  0  0
    0.9360    2.7504    1.3649 N   0  0  0  0  0  0  0  0  0  0  0  0
    0.7328    5.2011    2.8336 H   0  0  0  0  0  0  0  0  0  0  0  0
   -1.7521    5.7180    3.6367 H   0  0  0  0  0  0  0  0  0  0  0  0
   -3.2849    3.5986    3.0369 H   0  0  0  0  0  0  0  0  0  0  0  0
   -1.7583    1.7964    1.8173 H   0  0  0  0  0  0  0  0  0  0  0  0
    0.7943    1.4103    0.8355 C   0  0  0  0  0  0  0  0  0  0  0  0
    2.2816    3.1696    1.6926 C   0  0  0  0  0  0  0  0  0  0  0  0
    1.6243    1.2099    0.1607 H   0  0  0  0  0  0  0  0  0  0  0  0
   -0.1326    1.3454    0.2660 H   0  0  0  0  0  0  0  0  0  0  0  0
    0.7863    0.6518    1.6253 H   0  0  0  0  0  0  0  0  0  0  0  0
    2.9766    2.7141    0.9908 H   0  0  0  0  0  0  0  0  0  0  0  0
    2.3632    4.2527    1.5979 H   0  0  0  0  0  0  0  0  0  0  0  0
    2.5606    2.8736    2.7124 H   0  0  0  0  0  0  0  0  0  0  0  0
  1  2  1  0  0  0  0
  1  8  1  0  0  0  0
  3 12  1  0  0  0  0
  4  3  1  0  0  0  0
  5  4  1  0  0  0  0
  6  8  1  0  0  0  0
  6  4  2  0  0  0  0
  7  6  1  0  0  0  0
  8  9  1  6  0  0  0
  8 10  1  0  0  0  0
 10  3  2  0  0  0  0
 10 11  1  0  0  0  0
 12 13  1  0  0  0  0
 13 15  1  0  0  0  0
 13 14  1  0  0  0  0
 16 13  1  0  0  0  0
 17 19  1  0  0  0  0
 17 12  1  0  0  0  0
 17 18  1  0  0  0  0
 20 17  1  0  0  0  0
 21  1  1  0  0  0  0
 22 26  1  0  0  0  0
 22 23  2  0  0  0  0
 23 28  1  0  0  0  0
 23 24  1  0  0  0  0
 24 29  1  0  0  0  0
 25 30  1  1  0  0  0
 25 24  1  0  0  0  0
 25  1  1  0  0  0  0
 26 25  1  0  0  0  0
 27 33  1  0  0  0  0
 27 22  1  0  0  0  0
 31 26  1  0  0  0  0
 32 27  1  0  0  0  0
 32 36  1  0  0  0  0
 33 39  1  0  0  0  0
 34 32  1  0  0  0  0
 35 32  1  0  0  0  0
 37 33  1  0  0  0  0
 38 33  1  0  0  0  0
M  END
$$$$
