CSD_code = CUHXIN | q = -1 | S = 0 | Stoichiometry = C6H7Br3NPt(1-) | MND = 4
 OpenBabel04212202023D

 18 18  0  0  0  0  0  0  0  0999 V2000
   18.3797    5.4767    8.3076 Pt  0  0  0  0  0  0  0  0  0  0  0  0
   19.1873    6.3271   10.3799 Br  0  0  0  0  0  0  0  0  0  0  0  0
   20.3458    6.2293    7.0536 Br  0  0  0  0  0  0  0  0  0  0  0  0
   16.2281    4.7790    9.2508 Br  0  0  0  0  0  0  0  0  0  0  0  0
   17.6383    4.6666    6.3826 N   0  0  0  0  0  4  0  0  0  0  0  0
   16.6270    4.7813    6.4382 H   0  0  0  0  0  0  0  0  0  0  0  0
   18.0616    5.2738    5.6818 H   0  0  0  0  0  0  0  0  0  0  0  0
   17.6007    0.9790    6.5956 C   0  0  0  0  0  0  0  0  0  0  0  0
   16.9578    0.1953    6.9700 H   0  0  0  0  0  0  0  0  0  0  0  0
   18.0244    3.3168    6.2370 C   0  0  0  0  0  0  0  0  0  0  0  0
   18.8171    0.6621    6.0137 C   0  0  0  0  0  0  0  0  0  0  0  0
   19.1282   -0.3696    5.9327 H   0  0  0  0  0  0  0  0  0  0  0  0
   19.6359    1.6753    5.5428 C   0  0  0  0  0  0  0  0  0  0  0  0
   20.5889    1.4375    5.0925 H   0  0  0  0  0  0  0  0  0  0  0  0
   19.2446    2.9962    5.6452 C   0  0  0  0  0  0  0  0  0  0  0  0
   19.8931    3.7862    5.2953 H   0  0  0  0  0  0  0  0  0  0  0  0
   17.1985    2.2962    6.7037 C   0  0  0  0  0  0  0  0  0  0  0  0
   16.2585    2.5427    7.1758 H   0  0  0  0  0  0  0  0  0  0  0  0
  1  4  1  0  0  0  0
  1  2  1  0  0  0  0
  3  1  1  0  0  0  0
  5  6  1  0  0  0  0
  5  1  1  0  0  0  0
  7  5  1  0  0  0  0
  8 17  1  0  0  0  0
  8  9  1  0  0  0  0
 10  5  1  0  0  0  0
 10 17  2  0  0  0  0
 11  8  2  0  0  0  0
 12 11  1  0  0  0  0
 13 15  2  0  0  0  0
 13 11  1  0  0  0  0
 14 13  1  0  0  0  0
 15 10  1  0  0  0  0
 16 15  1  0  0  0  0
 17 18  1  0  0  0  0
M  END
$$$$
