CSD_code = CUHXUZ | q = 0 | S = 0 | Stoichiometry = C8H11Br2NPt | MND = 5
 OpenBabel04212202023D

 23 20  0  0  0  0  0  0  0  0999 V2000
    1.2713    1.0205   12.2287 Pt  0  0  0  0  0  0  0  0  0  0  0  0
    0.3662    3.2096   12.5354 Br  0  0  0  0  0 15  0  0  0  0  0  0
    2.6058    1.3066   14.1652 Br  0  0  0  0  0 15  0  0  0  0  0  0
    2.2274   -1.0068   12.1451 N   0  0  0  0  0  0  0  0  0  0  0  0
    3.1990   -0.7432   12.3211 H   0  0  0  0  0  0  0  0  0  0  0  0
    1.8532   -1.4366   12.9929 H   0  0  0  0  0  0  0  0  0  0  0  0
    0.6417    0.9848   10.1608 C   0  0  0  0  0  3  0  0  0  0  0  0
    0.5553    2.0051    9.8034 H   0  0  0  0  0  0  0  0  0  0  0  0
    1.2977    0.3420    9.5829 H   0  0  0  0  0  0  0  0  0  0  0  0
   -0.3599    0.4368   10.9393 C   0  0  0  0  0  0  0  0  0  0  0  0
   -0.4964   -0.6392   10.9714 H   0  0  0  0  0  0  0  0  0  0  0  0
   -1.2346    1.0259   11.1936 H   0  0  0  0  0  0  0  0  0  0  0  0
    2.1073   -1.8611   11.0197 C   0  0  0  0  0  0  0  0  0  0  0  0
    2.9752   -1.7125    9.9421 C   0  0  0  0  0  0  0  0  0  0  0  0
    3.7603   -0.9707    9.9878 H   0  0  0  0  0  0  0  0  0  0  0  0
    2.8288   -2.5090    8.8217 C   0  0  0  0  0  0  0  0  0  0  0  0
    3.5065   -2.3894    7.9904 H   0  0  0  0  0  0  0  0  0  0  0  0
    1.8198   -3.4566    8.7666 C   0  0  0  0  0  0  0  0  0  0  0  0
    1.7075   -4.0762    7.8908 H   0  0  0  0  0  0  0  0  0  0  0  0
    0.9590   -3.6103    9.8403 C   0  0  0  0  0  0  0  0  0  0  0  0
    0.1755   -4.3516    9.8054 H   0  0  0  0  0  0  0  0  0  0  0  0
    1.0999   -2.8183   10.9656 C   0  0  0  0  0  0  0  0  0  0  0  0
    0.4329   -2.9441   11.8073 H   0  0  0  0  0  0  0  0  0  0  0  0
  4  5  1  0  0  0  0
  4  6  1  0  0  0  0
  7 10  1  0  0  0  0
  8  7  1  0  0  0  0
  9  7  1  0  0  0  0
 10 11  1  0  0  0  0
 10 12  1  0  0  0  0
 10  1  1  0  0  0  0
 13  4  1  0  0  0  0
 14 15  1  0  0  0  0
 14 13  2  0  0  0  0
 16 14  1  0  0  0  0
 17 16  1  0  0  0  0
 18 16  2  0  0  0  0
 18 20  1  0  0  0  0
 19 18  1  0  0  0  0
 20 22  2  0  0  0  0
 21 20  1  0  0  0  0
 22 13  1  0  0  0  0
 22 23  1  0  0  0  0
M  END
$$$$
