CSD_code = CUJFUI | q = 0 | S = 0 | Stoichiometry = C10H21ClN2O4PRh | MND = 5
 OpenBabel04212202023D

 40 41  0  0  1  0  0  0  0  0999 V2000
    3.2423    1.5139   -0.1186 Rh  0  0  1  0  0  0  0  0  0  0  0  0
    4.7557    0.8657    1.4926 Cl  0  0  0  0  0  0  0  0  0  0  0  0
    2.2507    2.1590    1.2647 C   0  0  0  0  0  2  0  0  0  0  0  0
    1.6469    2.5823    2.1425 O   0  0  0  0  0  1  0  0  0  0  0  0
    0.5167    1.1190   -2.0365 O   0  0  0  0  0  0  0  0  0  0  0  0
    0.8251   -0.1756   -2.5056 C   0  0  0  0  0  0  0  0  0  0  0  0
    1.2631   -1.1347   -1.3969 C   0  0  0  0  0  0  0  0  0  0  0  0
    2.5898   -0.8796   -0.8416 N   0  0  0  0  0  0  0  0  0  0  0  0
    3.6610   -1.2753   -1.7560 C   0  0  0  0  0  0  0  0  0  0  0  0
    4.9193   -0.4199   -1.5645 C   0  0  0  0  0  0  0  0  0  0  0  0
    4.6850    1.0297   -1.6929 N   0  0  1  0  0  4  0  0  0  0  0  0
    4.4020    1.3782   -3.0930 C   0  0  0  0  0  0  0  0  0  0  0  0
    3.6334    2.6911   -3.2527 C   0  0  0  0  0  0  0  0  0  0  0  0
    2.2440    2.4816   -3.1165 O   0  0  0  0  0  0  0  0  0  0  0  0
    1.6967    2.1390   -1.6027 P   0  0  2  0  0  4  0  0  0  0  0  0
    2.7189   -1.6023    0.4242 C   0  0  0  0  0  0  0  0  0  0  0  0
    5.9245    1.7278   -1.3119 C   0  0  0  0  0  0  0  0  0  0  0  0
    0.7893    3.4008   -1.2506 O   0  0  0  0  0  0  0  0  0  0  0  0
   -0.2344    3.8704   -2.1245 C   0  0  0  0  0  0  0  0  0  0  0  0
   -0.1045   -0.5548   -2.9428 H   0  0  0  0  0  0  0  0  0  0  0  0
    1.5739   -0.1089   -3.3016 H   0  0  0  0  0  0  0  0  0  0  0  0
    1.1910   -2.1643   -1.7884 H   0  0  0  0  0  0  0  0  0  0  0  0
    0.5425   -1.0251   -0.5834 H   0  0  0  0  0  0  0  0  0  0  0  0
    3.6995   -1.4130    0.8548 H   0  0  0  0  0  0  0  0  0  0  0  0
    2.5861   -2.6850    0.2824 H   0  0  0  0  0  0  0  0  0  0  0  0
    1.9704   -1.2385    1.1265 H   0  0  0  0  0  0  0  0  0  0  0  0
    3.9424   -2.3283   -1.5976 H   0  0  0  0  0  0  0  0  0  0  0  0
    3.3027   -1.1953   -2.7851 H   0  0  0  0  0  0  0  0  0  0  0  0
    5.6803   -0.7457   -2.2912 H   0  0  0  0  0  0  0  0  0  0  0  0
    5.3048   -0.5850   -0.5553 H   0  0  0  0  0  0  0  0  0  0  0  0
    6.1807    1.4890   -0.2797 H   0  0  0  0  0  0  0  0  0  0  0  0
    5.7909    2.8063   -1.3956 H   0  0  0  0  0  0  0  0  0  0  0  0
    6.7529    1.4231   -1.9669 H   0  0  0  0  0  0  0  0  0  0  0  0
    3.7884    0.6032   -3.5550 H   0  0  0  0  0  0  0  0  0  0  0  0
    5.3452    1.4390   -3.6557 H   0  0  0  0  0  0  0  0  0  0  0  0
    3.7789    3.0915   -4.2601 H   0  0  0  0  0  0  0  0  0  0  0  0
    3.9746    3.4302   -2.5187 H   0  0  0  0  0  0  0  0  0  0  0  0
   -0.4771    4.8811   -1.7984 H   0  0  0  0  0  0  0  0  0  0  0  0
   -1.1158    3.2337   -2.0500 H   0  0  0  0  0  0  0  0  0  0  0  0
    0.1156    3.8844   -3.1575 H   0  0  0  0  0  0  0  0  0  0  0  0
  1  3  1  0  0  0  0
  1  2  1  1  0  0  0
  3  4  1  0  0  0  0
  5 15  1  0  0  0  0
  6  5  1  0  0  0  0
  6  7  1  0  0  0  0
  7  8  1  0  0  0  0
  7 23  1  0  0  0  0
  8 16  1  0  0  0  0
  9 27  1  0  0  0  0
  9 10  1  0  0  0  0
  9  8  1  0  0  0  0
 10 30  1  0  0  0  0
 11 10  1  0  0  0  0
 11 17  1  1  0  0  0
 11  1  1  0  0  0  0
 12 11  1  0  0  0  0
 13 14  1  0  0  0  0
 13 12  1  0  0  0  0
 13 37  1  0  0  0  0
 14 15  1  0  0  0  0
 15 18  1  1  0  0  0
 15  1  1  0  0  0  0
 16 24  1  0  0  0  0
 16 26  1  0  0  0  0
 17 31  1  0  0  0  0
 19 39  1  0  0  0  0
 19 38  1  0  0  0  0
 19 18  1  0  0  0  0
 20  6  1  0  0  0  0
 21  6  1  0  0  0  0
 22  7  1  0  0  0  0
 25 16  1  0  0  0  0
 28  9  1  0  0  0  0
 29 10  1  0  0  0  0
 32 17  1  0  0  0  0
 33 17  1  0  0  0  0
 34 12  1  0  0  0  0
 35 12  1  0  0  0  0
 36 13  1  0  0  0  0
 40 19  1  0  0  0  0
M  END
$$$$
