CSD_code = CUJGOE | q = 0 | S = 0 | Stoichiometry = C18H32ClNO3P2Ru | MND = 6
 OpenBabel04212202023D

 58 60  0  0  1  0  0  0  0  0999 V2000
    2.1344   12.5115    6.5644 Ru  0  0  0  0  0  0  0  0  0  0  0  0
    3.1842   11.6298    7.2461 H   0  0  0  0  0  0  0  0  0  0  0  0
    0.4716   13.6962    5.3348 Cl  0  0  0  0  0  0  0  0  0  0  0  0
    0.4249   11.3979    7.5655 P   0  0  0  0  0  4  0  0  0  0  0  0
    3.6260   13.2116    4.9996 P   0  0  0  0  0  4  0  0  0  0  0  0
    2.5194   14.6916    8.5825 O   0  0  0  0  0  1  0  0  0  0  0  0
    0.0964   10.2277    6.4338 O   0  0  0  0  0  0  0  0  0  0  0  0
    3.3974   12.0786    3.8068 O   0  0  0  0  0  0  0  0  0  0  0  0
    1.7839   11.1069    5.1342 N   0  0  0  0  0  0  0  0  0  0  0  0
    2.3807   13.8454    7.8131 C   0  0  0  0  0  2  0  0  0  0  0  0
    0.7759   10.2386    5.2762 C   0  0  1  0  0  3  0  0  0  0  0  0
    0.4123    9.3524    4.2702 C   0  0  0  0  0  0  0  0  0  0  0  0
   -0.4053    8.6732    4.4410 H   0  0  0  0  0  0  0  0  0  0  0  0
    1.1067    9.3894    3.0736 C   0  0  0  0  0  0  0  0  0  0  0  0
    0.8460    8.7170    2.2724 H   0  0  0  0  0  0  0  0  0  0  0  0
    2.1256   10.3113    2.9080 C   0  0  0  0  0  0  0  0  0  0  0  0
    2.6791   10.3990    1.9887 H   0  0  0  0  0  0  0  0  0  0  0  0
    2.4271   11.1638    3.9624 C   0  0  0  0  0  0  0  0  0  0  0  0
   -1.2858   12.1166    7.6901 C   0  0  0  0  0  0  0  0  0  0  0  0
   -1.5090   12.3843    6.6476 H   0  0  0  0  0  0  0  0  0  0  0  0
   -2.3316   11.1240    8.1828 C   0  0  0  0  0  0  0  0  0  0  0  0
   -2.2509   10.9708    9.2573 H   0  0  0  0  0  0  0  0  0  0  0  0
   -2.2245   10.1656    7.6769 H   0  0  0  0  0  0  0  0  0  0  0  0
   -3.3276   11.5112    7.9748 H   0  0  0  0  0  0  0  0  0  0  0  0
   -1.2644   13.4000    8.5108 C   0  0  0  0  0  0  0  0  0  0  0  0
   -2.2156   13.9203    8.4149 H   0  0  0  0  0  0  0  0  0  0  0  0
   -0.4755   14.0598    8.1494 H   0  0  0  0  0  0  0  0  0  0  0  0
   -1.0916   13.1954    9.5655 H   0  0  0  0  0  0  0  0  0  0  0  0
    0.6581   10.3036    9.0473 C   0  0  0  0  0  0  0  0  0  0  0  0
   -0.3011    9.8534    9.3203 H   0  0  0  0  0  0  0  0  0  0  0  0
    1.1818   11.1769   10.1814 C   0  0  0  0  0  0  0  0  0  0  0  0
    1.4262   10.5692   11.0510 H   0  0  0  0  0  0  0  0  0  0  0  0
    0.4471   11.9214   10.4793 H   0  0  0  0  0  0  0  0  0  0  0  0
    2.0821   11.6980    9.8518 H   0  0  0  0  0  0  0  0  0  0  0  0
    1.6550    9.2014    8.7074 C   0  0  0  0  0  0  0  0  0  0  0  0
    2.5711    9.6407    8.3115 H   0  0  0  0  0  0  0  0  0  0  0  0
    1.2450    8.5179    7.9661 H   0  0  0  0  0  0  0  0  0  0  0  0
    1.9034    8.6312    9.6006 H   0  0  0  0  0  0  0  0  0  0  0  0
    3.3331   14.7301    3.9661 C   0  0  0  0  0  0  0  0  0  0  0  0
    2.3317   14.5462    3.5513 H   0  0  0  0  0  0  0  0  0  0  0  0
    4.3238   14.8901    2.8195 C   0  0  0  0  0  0  0  0  0  0  0  0
    3.9423   15.6204    2.1078 H   0  0  0  0  0  0  0  0  0  0  0  0
    4.4674   13.9455    2.2968 H   0  0  0  0  0  0  0  0  0  0  0  0
    5.2863   15.2474    3.1804 H   0  0  0  0  0  0  0  0  0  0  0  0
    3.2552   15.9690    4.8493 C   0  0  0  0  0  0  0  0  0  0  0  0
    4.2325   16.2374    5.2456 H   0  0  0  0  0  0  0  0  0  0  0  0
    2.5770   15.7895    5.6837 H   0  0  0  0  0  0  0  0  0  0  0  0
    2.8756   16.8128    4.2760 H   0  0  0  0  0  0  0  0  0  0  0  0
    5.4638   13.0463    5.2025 C   0  0  0  0  0  0  0  0  0  0  0  0
    5.9631   13.4267    4.3062 H   0  0  0  0  0  0  0  0  0  0  0  0
    5.8212   11.5771    5.3955 C   0  0  0  0  0  0  0  0  0  0  0  0
    6.8754   11.4771    5.6472 H   0  0  0  0  0  0  0  0  0  0  0  0
    5.6279   11.0050    4.4899 H   0  0  0  0  0  0  0  0  0  0  0  0
    5.2298   11.1567    6.2094 H   0  0  0  0  0  0  0  0  0  0  0  0
    5.8613   13.8654    6.4249 C   0  0  0  0  0  0  0  0  0  0  0  0
    5.2860   13.5293    7.2889 H   0  0  0  0  0  0  0  0  0  0  0  0
    5.6612   14.9238    6.2740 H   0  0  0  0  0  0  0  0  0  0  0  0
    6.9216   13.7436    6.6396 H   0  0  0  0  0  0  0  0  0  0  0  0
  1  2  1  0  0  0  0
  1  4  1  0  0  0  0
  1 10  1  0  0  0  0
  3  1  1  0  0  0  0
  4 19  1  0  0  0  0
  4 29  1  0  0  0  0
  5 49  1  0  0  0  0
  5  1  1  0  0  0  0
  7  4  1  0  0  0  0
  8 18  1  0  0  0  0
  8  5  1  0  0  0  0
  9 11  1  0  0  0  0
  9  1  1  0  0  0  0
 10  6  1  0  0  0  0
 11 12  1  1  0  0  0
 11  7  1  0  0  0  0
 12 13  1  0  0  0  0
 14 12  2  0  0  0  0
 15 14  1  0  0  0  0
 16 14  1  0  0  0  0
 16 18  2  0  0  0  0
 17 16  1  0  0  0  0
 18  9  1  0  0  0  0
 19 21  1  0  0  0  0
 19 25  1  0  0  0  0
 20 19  1  0  0  0  0
 21 22  1  0  0  0  0
 23 21  1  0  0  0  0
 24 21  1  0  0  0  0
 25 28  1  0  0  0  0
 26 25  1  0  0  0  0
 27 25  1  0  0  0  0
 29 30  1  0  0  0  0
 29 31  1  0  0  0  0
 31 33  1  0  0  0  0
 31 32  1  0  0  0  0
 34 31  1  0  0  0  0
 35 29  1  0  0  0  0
 35 38  1  0  0  0  0
 36 35  1  0  0  0  0
 37 35  1  0  0  0  0
 39 45  1  0  0  0  0
 39  5  1  0  0  0  0
 40 39  1  0  0  0  0
 41 44  1  0  0  0  0
 41 39  1  0  0  0  0
 42 41  1  0  0  0  0
 43 41  1  0  0  0  0
 45 46  1  0  0  0  0
 45 47  1  0  0  0  0
 48 45  1  0  0  0  0
 49 51  1  0  0  0  0
 49 55  1  0  0  0  0
 50 49  1  0  0  0  0
 51 52  1  0  0  0  0
 51 54  1  0  0  0  0
 53 51  1  0  0  0  0
 55 58  1  0  0  0  0
 55 56  1  0  0  0  0
 57 55  1  0  0  0  0
M  END
$$$$
