CSD_code = CUJHOG | q = 0 | S = 0 | Stoichiometry = C20H19AuBrN5O | MND = 2
 OpenBabel04212202023D

 47 50  0  0  1  0  0  0  0  0999 V2000
    6.8218    6.3681    7.8374 Au  0  0  0  0  0  0  0  0  0  0  0  0
    4.8694    7.6818    7.8724 Br  0  0  0  0  0  0  0  0  0  0  0  0
    9.6246    5.5571    8.5127 N   0  0  0  0  0  0  0  0  0  0  0  0
    9.7670   11.2500   13.6702 N   0  0  0  0  0  0  0  0  0  0  0  0
    8.8544    4.1537    7.0835 N   0  0  0  0  0  0  0  0  0  0  0  0
   11.1941   10.7501   12.0466 N   0  0  0  0  0  0  0  0  0  0  0  0
    8.4269    2.1536    6.0488 N   0  0  0  0  0  0  0  0  0  0  0  0
    9.3143   10.1557   13.0050 O   0  0  0  0  0  0  0  0  0  0  0  0
   10.8812   11.5823   13.0801 C   0  0  0  0  0  0  0  0  0  0  0  0
   10.2076    9.8986   12.0387 C   0  0  0  0  0  0  0  0  0  0  0  0
   11.7454   12.7318   13.4753 C   0  0  0  0  0  0  0  0  0  0  0  0
   11.9317   13.6309   12.2479 C   0  0  0  0  0  0  0  0  0  0  0  0
   12.3588   13.0603   11.4272 H   0  0  0  0  0  0  0  0  0  0  0  0
   12.5973   14.4557   12.4905 H   0  0  0  0  0  0  0  0  0  0  0  0
   10.9756   14.0386   11.9269 H   0  0  0  0  0  0  0  0  0  0  0  0
   13.1024   12.1688   13.9159 C   0  0  0  0  0  0  0  0  0  0  0  0
   12.9838   11.5290   14.7880 H   0  0  0  0  0  0  0  0  0  0  0  0
   13.7755   12.9835   14.1719 H   0  0  0  0  0  0  0  0  0  0  0  0
   13.5444   11.5846   13.1126 H   0  0  0  0  0  0  0  0  0  0  0  0
   11.0937   13.5092   14.6168 C   0  0  0  0  0  0  0  0  0  0  0  0
   10.1247   13.8927   14.3097 H   0  0  0  0  0  0  0  0  0  0  0  0
   11.7282   14.3436   14.9064 H   0  0  0  0  0  0  0  0  0  0  0  0
   10.9425   12.8638   15.4777 H   0  0  0  0  0  0  0  0  0  0  0  0
   10.0372    8.7807   11.1371 C   0  0  0  0  0  0  0  0  0  0  0  0
    8.9320    7.9386   11.2459 C   0  0  0  0  0  0  0  0  0  0  0  0
    8.1905    8.1245   12.0069 H   0  0  0  0  0  0  0  0  0  0  0  0
    8.7938    6.8692   10.3838 C   0  0  0  0  0  0  0  0  0  0  0  0
    7.9527    6.2003   10.4773 H   0  0  0  0  0  0  0  0  0  0  0  0
    9.7529    6.6435    9.4018 C   0  0  0  0  0  0  0  0  0  0  0  0
   10.8605    7.4795    9.2949 C   0  0  0  0  0  0  0  0  0  0  0  0
   11.5957    7.2998    8.5245 H   0  0  0  0  0  0  0  0  0  0  0  0
   11.0026    8.5445   10.1591 C   0  0  0  0  0  0  0  0  0  0  0  0
   11.8489    9.2088   10.0915 H   0  0  0  0  0  0  0  0  0  0  0  0
    8.5220    5.2541    7.7981 C   0  0  2  0  0  3  0  0  0  0  0  0
   10.6372    4.6648    8.2472 C   0  0  0  0  0  0  0  0  0  0  0  0
   11.5927    4.7291    8.7245 H   0  0  0  0  0  0  0  0  0  0  0  0
   10.1480    3.7726    7.3622 C   0  0  0  0  0  0  0  0  0  0  0  0
   10.5821    2.9107    6.9026 H   0  0  0  0  0  0  0  0  0  0  0  0
    8.0433    3.4141    6.2038 C   0  0  0  0  0  0  0  0  0  0  0  0
    6.9537    3.9624    5.5368 C   0  0  0  0  0  0  0  0  0  0  0  0
    6.6908    5.0002    5.6627 H   0  0  0  0  0  0  0  0  0  0  0  0
    6.2203    3.1319    4.7063 C   0  0  0  0  0  0  0  0  0  0  0  0
    5.3627    3.5214    4.1792 H   0  0  0  0  0  0  0  0  0  0  0  0
    6.6051    1.8080    4.5579 C   0  0  0  0  0  0  0  0  0  0  0  0
    6.0557    1.1345    3.9207 H   0  0  0  0  0  0  0  0  0  0  0  0
    7.7269    1.3739    5.2469 C   0  0  0  0  0  0  0  0  0  0  0  0
    8.0880    0.3579    5.1617 H   0  0  0  0  0  0  0  0  0  0  0  0
  1  2  1  0  0  0  0
  3 29  1  0  0  0  0
  5 37  1  0  0  0  0
  5 34  1  0  0  0  0
  6  9  1  0  0  0  0
  7 39  1  0  0  0  0
  8  4  1  0  0  0  0
  9 11  1  0  0  0  0
  9  4  2  0  0  0  0
 10  6  2  0  0  0  0
 10  8  1  0  0  0  0
 11 16  1  0  0  0  0
 11 20  1  0  0  0  0
 12 14  1  0  0  0  0
 12 11  1  0  0  0  0
 13 12  1  0  0  0  0
 15 12  1  0  0  0  0
 16 18  1  0  0  0  0
 16 17  1  0  0  0  0
 19 16  1  0  0  0  0
 20 22  1  0  0  0  0
 20 23  1  0  0  0  0
 21 20  1  0  0  0  0
 24 25  1  0  0  0  0
 24 10  1  0  0  0  0
 25 26  1  0  0  0  0
 27 28  1  0  0  0  0
 27 25  2  0  0  0  0
 29 27  1  0  0  0  0
 30 29  2  0  0  0  0
 30 32  1  0  0  0  0
 31 30  1  0  0  0  0
 32 24  2  0  0  0  0
 33 32  1  0  0  0  0
 34  1  1  6  0  0  0
 34  3  1  0  0  0  0
 35  3  1  0  0  0  0
 35 36  1  0  0  0  0
 37 35  2  0  0  0  0
 38 37  1  0  0  0  0
 39  5  1  0  0  0  0
 40 41  1  0  0  0  0
 40 39  2  0  0  0  0
 42 40  1  0  0  0  0
 43 42  1  0  0  0  0
 44 42  2  0  0  0  0
 44 46  1  0  0  0  0
 45 44  1  0  0  0  0
 46  7  2  0  0  0  0
 47 46  1  0  0  0  0
M  END
$$$$
