CSD_code = CUJHUM | q = 0 | S = 0 | Stoichiometry = C25H31AuBrN5O | MND = 2
 OpenBabel04212202023D

 64 68  0  0  1  0  0  0  0  0999 V2000
    1.0320    2.4317   19.7789 Au  0  0  0  0  0  0  0  0  0  0  0  0
    1.2006    0.2529   18.8961 Br  0  0  0  0  0  0  0  0  0  0  0  0
    1.1070    5.4719   19.9148 N   0  0  0  0  0  0  0  0  0  0  0  0
    3.5081    5.7129   12.6176 N   0  0  0  0  0  0  0  0  0  0  0  0
    0.5060    4.6320   21.7940 N   0  0  0  0  0  0  0  0  0  0  0  0
    1.8010    6.7240   13.6098 N   0  0  0  0  0  0  0  0  0  0  0  0
    1.7262    4.8166   24.4575 N   0  0  2  0  0  0  0  0  0  0  0  0
    3.4901    5.3645   13.9311 O   0  0  0  0  0  0  0  0  0  0  0  0
    2.4947    6.5176   12.4554 C   0  0  0  0  0  0  0  0  0  0  0  0
    2.4445    5.9986   14.4806 C   0  0  0  0  0  0  0  0  0  0  0  0
    2.0883    7.1214   11.1533 C   0  0  0  0  0  0  0  0  0  0  0  0
    0.8530    6.3507   10.6672 C   0  0  0  0  0  0  0  0  0  0  0  0
    1.1007    5.3048   10.4999 H   0  0  0  0  0  0  0  0  0  0  0  0
    0.4943    6.7776    9.7338 H   0  0  0  0  0  0  0  0  0  0  0  0
    0.0583    6.4069   11.4077 H   0  0  0  0  0  0  0  0  0  0  0  0
    1.7250    8.5913   11.3809 C   0  0  0  0  0  0  0  0  0  0  0  0
    0.9464    8.6713   12.1348 H   0  0  0  0  0  0  0  0  0  0  0  0
    1.3683    9.0330   10.4536 H   0  0  0  0  0  0  0  0  0  0  0  0
    2.5941    9.1508   11.7201 H   0  0  0  0  0  0  0  0  0  0  0  0
    3.2239    6.9948   10.1395 C   0  0  0  0  0  0  0  0  0  0  0  0
    4.1021    7.5356   10.4824 H   0  0  0  0  0  0  0  0  0  0  0  0
    2.9126    7.4037    9.1812 H   0  0  0  0  0  0  0  0  0  0  0  0
    3.4988    5.9522   10.0093 H   0  0  0  0  0  0  0  0  0  0  0  0
    2.1260    5.8552   15.8837 C   0  0  0  0  0  0  0  0  0  0  0  0
    2.8382    4.9744   16.6953 C   0  0  0  0  0  0  0  0  0  0  0  0
    3.6413    4.3900   16.2745 H   0  0  0  0  0  0  0  0  0  0  0  0
    2.5111    4.8521   18.0310 C   0  0  0  0  0  0  0  0  0  0  0  0
    3.0652    4.1806   18.6678 H   0  0  0  0  0  0  0  0  0  0  0  0
    1.4680    5.6046   18.5607 C   0  0  0  0  0  0  0  0  0  0  0  0
    0.7626    6.4931   17.7540 C   0  0  0  0  0  0  0  0  0  0  0  0
   -0.0508    7.0669   18.1727 H   0  0  0  0  0  0  0  0  0  0  0  0
    1.0885    6.6169   16.4205 C   0  0  0  0  0  0  0  0  0  0  0  0
    0.5491    7.2902   15.7743 H   0  0  0  0  0  0  0  0  0  0  0  0
    0.8893    4.2999   20.5513 C   0  0  1  0  0  3  0  0  0  0  0  0
    0.8591    6.5252   20.7608 C   0  0  0  0  0  0  0  0  0  0  0  0
    0.9854    7.5436   20.4578 H   0  0  0  0  0  0  0  0  0  0  0  0
    0.4941    5.9915   21.9490 C   0  0  0  0  0  0  0  0  0  0  0  0
    0.2449    6.4574   22.8779 H   0  0  0  0  0  0  0  0  0  0  0  0
    0.2232    3.6910   22.8425 C   0  0  0  0  0  0  0  0  0  0  0  0
    0.0254    2.7196   22.3813 H   0  0  0  0  0  0  0  0  0  0  0  0
   -0.6676    4.0151   23.3847 H   0  0  0  0  0  0  0  0  0  0  0  0
    1.4267    3.5545   23.7858 C   0  0  2  0  0  0  0  0  0  0  0  0
    2.2930    3.3360   23.1500 H   0  0  0  0  0  0  0  0  0  0  0  0
    1.2362    2.4253   24.8152 C   0  0  0  0  0  0  0  0  0  0  0  0
    0.1763    2.1917   24.9370 H   0  0  0  0  0  0  0  0  0  0  0  0
    1.7423    1.5166   24.4922 H   0  0  0  0  0  0  0  0  0  0  0  0
    1.7955    2.9214   26.1525 C   0  0  1  0  0  0  0  0  0  0  0  0
    1.8327    2.1011   26.8733 H   0  0  0  0  0  0  0  0  0  0  0  0
    3.2087    3.5142   25.9690 C   0  0  2  0  0  0  0  0  0  0  0  0
    3.5575    3.8532   26.9495 H   0  0  0  0  0  0  0  0  0  0  0  0
    3.0666    4.7290   25.0152 C   0  0  0  0  0  0  0  0  0  0  0  0
    3.2693    5.6621   25.5438 H   0  0  0  0  0  0  0  0  0  0  0  0
    3.7769    4.6550   24.1874 H   0  0  0  0  0  0  0  0  0  0  0  0
    0.7833    5.0932   25.5339 C   0  0  0  0  0  0  0  0  0  0  0  0
   -0.2253    5.1203   25.1184 H   0  0  0  0  0  0  0  0  0  0  0  0
    1.0078    6.0935   25.9121 H   0  0  0  0  0  0  0  0  0  0  0  0
    0.8816    4.0406   26.6573 C   0  0  0  0  0  0  0  0  0  0  0  0
    1.2974    4.4775   27.5661 H   0  0  0  0  0  0  0  0  0  0  0  0
   -0.1034    3.6395   26.8996 H   0  0  0  0  0  0  0  0  0  0  0  0
    4.1783    2.4958   25.4549 C   0  0  0  0  0  0  0  0  0  0  0  0
    4.0627    2.2059   24.4190 H   0  0  0  0  0  0  0  0  0  0  0  0
    5.1333    1.9528   26.1862 C   0  0  0  0  0  0  0  0  0  0  0  0
    5.2784    2.2200   27.2206 H   0  0  0  0  0  0  0  0  0  0  0  0
    5.8100    1.2179   25.7858 H   0  0  0  0  0  0  0  0  0  0  0  0
  2  1  1  0  0  0  0
  3 34  1  0  0  0  0
  3 35  1  0  0  0  0
  4  8  1  0  0  0  0
  5 37  1  0  0  0  0
  5 39  1  0  0  0  0
  6 10  2  0  0  0  0
  7 51  1  1  0  0  0
  7 54  1  0  0  0  0
  8 10  1  0  0  0  0
  9  4  2  0  0  0  0
  9  6  1  0  0  0  0
 10 24  1  0  0  0  0
 11 16  1  0  0  0  0
 11  9  1  0  0  0  0
 12 11  1  0  0  0  0
 12 15  1  0  0  0  0
 13 12  1  0  0  0  0
 14 12  1  0  0  0  0
 16 19  1  0  0  0  0
 16 17  1  0  0  0  0
 18 16  1  0  0  0  0
 20 21  1  0  0  0  0
 20 11  1  0  0  0  0
 22 20  1  0  0  0  0
 23 20  1  0  0  0  0
 24 32  2  0  0  0  0
 24 25  1  0  0  0  0
 25 27  2  0  0  0  0
 26 25  1  0  0  0  0
 27 29  1  0  0  0  0
 27 28  1  0  0  0  0
 29  3  1  0  0  0  0
 30 31  1  0  0  0  0
 30 29  2  0  0  0  0
 32 30  1  0  0  0  0
 33 32  1  0  0  0  0
 34  1  1  6  0  0  0
 34  5  1  0  0  0  0
 35 37  2  0  0  0  0
 36 35  1  0  0  0  0
 37 38  1  0  0  0  0
 39 41  1  0  0  0  0
 39 42  1  0  0  0  0
 40 39  1  0  0  0  0
 42 43  1  6  0  0  0
 42  7  1  0  0  0  0
 42 44  1  0  0  0  0
 44 45  1  0  0  0  0
 44 47  1  0  0  0  0
 46 44  1  0  0  0  0
 47 57  1  0  0  0  0
 47 48  1  1  0  0  0
 49 47  1  0  0  0  0
 49 50  1  1  0  0  0
 51 52  1  0  0  0  0
 51 49  1  0  0  0  0
 53 51  1  0  0  0  0
 54 56  1  0  0  0  0
 54 57  1  0  0  0  0
 55 54  1  0  0  0  0
 57 59  1  0  0  0  0
 57 58  1  0  0  0  0
 60 49  1  0  0  0  0
 60 62  2  0  0  0  0
 61 60  1  0  0  0  0
 62 63  1  0  0  0  0
 64 62  1  0  0  0  0
M  END
$$$$
