CSD_code = CUJVOU | q = 0 | S = 0 | Stoichiometry = C27H28AuClN6O2 | MND = 2
 OpenBabel04212202023D

 65 69  0  0  1  0  0  0  0  0999 V2000
    3.4942    4.7610    8.3156 Au  0  0  0  0  0  0  0  0  0  0  0  0
    5.5718    4.2206    8.9436 Cl  0  0  0  0  0  0  0  0  0  0  0  0
    5.2686   11.1451    5.6801 O   0  0  0  0  0  0  0  0  0  0  0  0
    5.7279   12.1713    4.9170 N   0  0  0  0  0  0  0  0  0  0  0  0
    5.0321   12.1267    3.8153 C   0  0  0  0  0  0  0  0  0  0  0  0
    4.1248   11.1093    3.8106 N   0  0  0  0  0  0  0  0  0  0  0  0
    4.3067   10.5398    4.9687 C   0  0  0  0  0  0  0  0  0  0  0  0
    5.1727   13.0807    2.6775 C   0  0  0  0  0  0  0  0  0  0  0  0
    5.4877   12.2740    1.4130 C   0  0  0  0  0  0  0  0  0  0  0  0
    6.4403   11.7593    1.5176 H   0  0  0  0  0  0  0  0  0  0  0  0
    5.5448   12.9389    0.5545 H   0  0  0  0  0  0  0  0  0  0  0  0
    4.7105   11.5346    1.2371 H   0  0  0  0  0  0  0  0  0  0  0  0
    3.8312   13.8047    2.5084 C   0  0  0  0  0  0  0  0  0  0  0  0
    3.0344   13.0837    2.3433 H   0  0  0  0  0  0  0  0  0  0  0  0
    3.8794   14.4795    1.6572 H   0  0  0  0  0  0  0  0  0  0  0  0
    3.5973   14.3849    3.3986 H   0  0  0  0  0  0  0  0  0  0  0  0
    6.2878   14.0829    2.9675 C   0  0  0  0  0  0  0  0  0  0  0  0
    6.0722   14.6377    3.8763 H   0  0  0  0  0  0  0  0  0  0  0  0
    6.3823   14.7819    2.1399 H   0  0  0  0  0  0  0  0  0  0  0  0
    7.2346   13.5680    3.1047 H   0  0  0  0  0  0  0  0  0  0  0  0
    3.5693    9.4155    5.5013 C   0  0  0  0  0  0  0  0  0  0  0  0
    2.5985    8.8071    4.7067 C   0  0  0  0  0  0  0  0  0  0  0  0
    2.4477    9.1664    3.7016 H   0  0  0  0  0  0  0  0  0  0  0  0
    1.8493    7.7665    5.2125 C   0  0  0  0  0  0  0  0  0  0  0  0
    1.1056    7.2839    4.5961 H   0  0  0  0  0  0  0  0  0  0  0  0
    2.0600    7.3278    6.5174 C   0  0  0  0  0  0  0  0  0  0  0  0
    3.0362    7.9239    7.3086 C   0  0  0  0  0  0  0  0  0  0  0  0
    3.1906    7.5822    8.3196 H   0  0  0  0  0  0  0  0  0  0  0  0
    3.7936    8.9600    6.7993 C   0  0  0  0  0  0  0  0  0  0  0  0
    4.5501    9.4302    7.4073 H   0  0  0  0  0  0  0  0  0  0  0  0
    1.2367    6.3059    7.0319 N   0  0  0  0  0  0  0  0  0  0  0  0
    1.6343    5.2397    7.7586 C   0  0  1  0  0  3  0  0  0  0  0  0
   -0.1251    6.2808    6.8464 C   0  0  0  0  0  0  0  0  0  0  0  0
   -0.6443    7.0459    6.3082 H   0  0  0  0  0  0  0  0  0  0  0  0
    0.7163   -1.2330   10.8627 O   0  0  0  0  0  0  0  0  0  0  0  0
    0.2700   -2.1874   11.7209 N   0  0  0  0  0  0  0  0  0  0  0  0
   -0.7224   -1.6410   12.3664 C   0  0  0  0  0  0  0  0  0  0  0  0
   -0.9584   -0.3574   11.9732 N   0  0  0  0  0  0  0  0  0  0  0  0
   -0.0556   -0.1539   11.0554 C   0  0  0  0  0  0  0  0  0  0  0  0
   -1.5305   -2.3162   13.4227 C   0  0  0  0  0  0  0  0  0  0  0  0
   -1.3375   -1.5386   14.7301 C   0  0  0  0  0  0  0  0  0  0  0  0
   -0.2961   -1.5726   15.0425 H   0  0  0  0  0  0  0  0  0  0  0  0
   -1.9499   -1.9763   15.5147 H   0  0  0  0  0  0  0  0  0  0  0  0
   -1.6265   -0.4993   14.5946 H   0  0  0  0  0  0  0  0  0  0  0  0
   -3.0033   -2.2612   13.0009 C   0  0  0  0  0  0  0  0  0  0  0  0
   -3.3098   -1.2299   12.8458 H   0  0  0  0  0  0  0  0  0  0  0  0
   -3.6267   -2.7037   13.7739 H   0  0  0  0  0  0  0  0  0  0  0  0
   -3.1549   -2.8122   12.0751 H   0  0  0  0  0  0  0  0  0  0  0  0
   -1.0734   -3.7638   13.5887 C   0  0  0  0  0  0  0  0  0  0  0  0
   -1.1944   -4.3096   12.6570 H   0  0  0  0  0  0  0  0  0  0  0  0
   -1.6615   -4.2515   14.3625 H   0  0  0  0  0  0  0  0  0  0  0  0
   -0.0238   -3.8005   13.8659 H   0  0  0  0  0  0  0  0  0  0  0  0
    0.1292    1.0552   10.2836 C   0  0  0  0  0  0  0  0  0  0  0  0
   -0.7144    2.1397   10.5207 C   0  0  0  0  0  0  0  0  0  0  0  0
   -1.4670    2.0562   11.2879 H   0  0  0  0  0  0  0  0  0  0  0  0
   -0.5752    3.2932    9.7793 C   0  0  0  0  0  0  0  0  0  0  0  0
   -1.2162    4.1415    9.9681 H   0  0  0  0  0  0  0  0  0  0  0  0
    0.4073    3.3728    8.7958 C   0  0  0  0  0  0  0  0  0  0  0  0
    1.2529    2.2948    8.5584 C   0  0  0  0  0  0  0  0  0  0  0  0
    2.0052    2.3612    7.7887 H   0  0  0  0  0  0  0  0  0  0  0  0
    1.1170    1.1403    9.3041 C   0  0  0  0  0  0  0  0  0  0  0  0
    1.7678    0.2986    9.1270 H   0  0  0  0  0  0  0  0  0  0  0  0
    0.5043    4.5536    8.0316 N   0  0  0  0  0  0  0  0  0  0  0  0
   -0.5874    5.1868    7.4885 C   0  0  0  0  0  0  0  0  0  0  0  0
   -1.5797    4.7971    7.5802 H   0  0  0  0  0  0  0  0  0  0  0  0
  1  2  1  0  0  0  0
  4  3  1  0  0  0  0
  5  4  2  0  0  0  0
  6  5  1  0  0  0  0
  6  7  2  0  0  0  0
  7 21  1  0  0  0  0
  7  3  1  0  0  0  0
  8 17  1  0  0  0  0
  8  5  1  0  0  0  0
  9 10  1  0  0  0  0
  9  8  1  0  0  0  0
 11  9  1  0  0  0  0
 12  9  1  0  0  0  0
 13  8  1  0  0  0  0
 13 16  1  0  0  0  0
 14 13  1  0  0  0  0
 15 13  1  0  0  0  0
 17 20  1  0  0  0  0
 17 18  1  0  0  0  0
 19 17  1  0  0  0  0
 21 29  1  0  0  0  0
 22 24  1  0  0  0  0
 22 21  2  0  0  0  0
 23 22  1  0  0  0  0
 24 26  2  0  0  0  0
 25 24  1  0  0  0  0
 26 31  1  0  0  0  0
 26 27  1  0  0  0  0
 27 28  1  0  0  0  0
 29 27  2  0  0  0  0
 29 30  1  0  0  0  0
 31 32  1  0  0  0  0
 32 63  1  0  0  0  0
 32  1  1  6  0  0  0
 33 31  1  0  0  0  0
 33 64  2  0  0  0  0
 34 33  1  0  0  0  0
 35 39  1  0  0  0  0
 35 36  1  0  0  0  0
 36 37  2  0  0  0  0
 37 40  1  0  0  0  0
 38 37  1  0  0  0  0
 39 38  2  0  0  0  0
 40 49  1  0  0  0  0
 40 41  1  0  0  0  0
 41 42  1  0  0  0  0
 41 43  1  0  0  0  0
 44 41  1  0  0  0  0
 45 40  1  0  0  0  0
 45 47  1  0  0  0  0
 46 45  1  0  0  0  0
 48 45  1  0  0  0  0
 49 52  1  0  0  0  0
 49 51  1  0  0  0  0
 50 49  1  0  0  0  0
 53 54  1  0  0  0  0
 53 39  1  0  0  0  0
 54 55  1  0  0  0  0
 56 57  1  0  0  0  0
 56 54  2  0  0  0  0
 58 56  1  0  0  0  0
 59 58  2  0  0  0  0
 59 61  1  0  0  0  0
 60 59  1  0  0  0  0
 61 53  2  0  0  0  0
 62 61  1  0  0  0  0
 63 58  1  0  0  0  0
 64 65  1  0  0  0  0
 64 63  1  0  0  0  0
M  END
$$$$
