CSD_code = CUJXAH | q = 0 | S = 0 | Stoichiometry = C26H26AsCl2OPPt | MND = 4
 OpenBabel04212202023D

 58 62  0  0  1  0  0  0  0  0999 V2000
    5.3829    6.4063    1.9183 Pt  0  0  0  0  0  0  0  0  0  0  0  0
    6.1511    4.4769    3.0733 As  0  0  1  0  0  0  0  0  0  0  0  0
    5.3733    2.9232    3.9459 C   0  0  0  0  0  0  0  0  0  0  0  0
    4.5701    3.1166    5.0653 C   0  0  0  0  0  0  0  0  0  0  0  0
    4.3923    4.1289    5.4154 H   0  0  0  0  0  0  0  0  0  0  0  0
    4.0045    2.0268    5.7040 C   0  0  0  0  0  0  0  0  0  0  0  0
    3.3847    2.1744    6.5762 H   0  0  0  0  0  0  0  0  0  0  0  0
    4.2301    0.7466    5.2235 C   0  0  0  0  0  0  0  0  0  0  0  0
    3.7891   -0.1027    5.7238 H   0  0  0  0  0  0  0  0  0  0  0  0
    5.0115    0.5531    4.0962 C   0  0  0  0  0  0  0  0  0  0  0  0
    5.1764   -0.4455    3.7177 H   0  0  0  0  0  0  0  0  0  0  0  0
    5.5769    1.6401    3.4523 C   0  0  0  0  0  0  0  0  0  0  0  0
    6.1814    1.5001    2.5612 H   0  0  0  0  0  0  0  0  0  0  0  0
    7.3315    5.2208    4.4807 C   0  0  1  0  0  0  0  0  0  0  0  0
    6.8724    5.7453    5.3210 H   0  0  0  0  0  0  0  0  0  0  0  0
    8.1798    4.0360    4.8649 C   0  0  0  0  0  0  0  0  0  0  0  0
    8.5521    3.8387    6.2950 C   0  0  0  0  0  0  0  0  0  0  0  0
    7.6486    3.7571    6.8996 H   0  0  0  0  0  0  0  0  0  0  0  0
    9.1178    4.6972    6.6585 H   0  0  0  0  0  0  0  0  0  0  0  0
    9.1492    2.9426    6.4378 H   0  0  0  0  0  0  0  0  0  0  0  0
    9.4511    2.1432    3.7063 C   0  0  0  0  0  0  0  0  0  0  0  0
    9.7522    1.7992    4.6915 H   0  0  0  0  0  0  0  0  0  0  0  0
   10.3473    2.4008    3.1388 H   0  0  0  0  0  0  0  0  0  0  0  0
    8.9563    1.3217    3.1881 H   0  0  0  0  0  0  0  0  0  0  0  0
    8.5401    3.3223    3.7924 C   0  0  0  0  0  0  0  0  0  0  0  0
    7.9883    3.9275    2.5272 C   0  0  2  0  0  0  0  0  0  0  0  0
    8.1350    3.3197    1.6296 H   0  0  0  0  0  0  0  0  0  0  0  0
    8.6388    5.3205    2.3895 C   0  0  2  0  0  0  0  0  0  0  0  0
    9.7309    5.2113    2.3742 H   0  0  0  0  0  0  0  0  0  0  0  0
    8.1866    6.1555    3.6019 C   0  0  0  0  0  0  0  0  0  0  0  0
    9.0419    6.5459    4.1593 H   0  0  0  0  0  0  0  0  0  0  0  0
    7.5714    7.0127    3.2773 H   0  0  0  0  0  0  0  0  0  0  0  0
    9.2814    5.2085   -0.4233 C   0  0  0  0  0  0  0  0  0  0  0  0
   10.6487    5.4515   -0.4114 C   0  0  0  0  0  0  0  0  0  0  0  0
   11.0621    6.1681    0.2845 H   0  0  0  0  0  0  0  0  0  0  0  0
   11.4708    4.7855   -1.3015 C   0  0  0  0  0  0  0  0  0  0  0  0
   12.5343    4.9739   -1.2974 H   0  0  0  0  0  0  0  0  0  0  0  0
   10.9303    3.8798   -2.2017 C   0  0  0  0  0  0  0  0  0  0  0  0
   11.5762    3.3616   -2.8948 H   0  0  0  0  0  0  0  0  0  0  0  0
    9.5656    3.6434   -2.2189 C   0  0  0  0  0  0  0  0  0  0  0  0
    9.1459    2.9422   -2.9249 H   0  0  0  0  0  0  0  0  0  0  0  0
    8.7395    4.3091   -1.3308 C   0  0  0  0  0  0  0  0  0  0  0  0
    7.6707    4.1484   -1.3331 H   0  0  0  0  0  0  0  0  0  0  0  0
    8.5804    7.8027    0.7342 C   0  0  0  0  0  0  0  0  0  0  0  0
    9.5974    8.3520    1.5052 C   0  0  0  0  0  0  0  0  0  0  0  0
   10.1729    7.7292    2.1753 H   0  0  0  0  0  0  0  0  0  0  0  0
    9.8599    9.7069    1.4214 C   0  0  0  0  0  0  0  0  0  0  0  0
   10.6444   10.1400    2.0247 H   0  0  0  0  0  0  0  0  0  0  0  0
    9.1124   10.5090    0.5730 C   0  0  0  0  0  0  0  0  0  0  0  0
    9.3160   11.5682    0.5210 H   0  0  0  0  0  0  0  0  0  0  0  0
    8.1057    9.9585   -0.2026 C   0  0  0  0  0  0  0  0  0  0  0  0
    7.5187   10.5840   -0.8568 H   0  0  0  0  0  0  0  0  0  0  0  0
    7.8415    8.6030   -0.1287 C   0  0  0  0  0  0  0  0  0  0  0  0
    7.0493    8.1599   -0.7138 H   0  0  0  0  0  0  0  0  0  0  0  0
    4.0801    6.6558    3.7189 Cl  0  0  0  0  0  0  0  0  0  0  0  0
    4.8536    8.4100    1.0446 Cl  0  0  0  0  0  0  0  0  0  0  0  0
    6.7646    5.7746    0.3080 O   0  0  0  0  0  0  0  0  0  0  0  0
    8.1670    6.0402    0.7416 P   0  0  0  0  0  4  0  0  0  0  0  0
  1 55  1  0  0  0  0
  2  3  1  1  0  0  0
  2 14  1  0  0  0  0
  3  4  1  0  0  0  0
  4  5  1  0  0  0  0
  4  6  2  0  0  0  0
  6  7  1  0  0  0  0
  8  6  1  0  0  0  0
  8  9  1  0  0  0  0
 10  8  2  0  0  0  0
 11 10  1  0  0  0  0
 12  3  2  0  0  0  0
 12 10  1  0  0  0  0
 13 12  1  0  0  0  0
 14 16  1  0  0  0  0
 14 15  1  1  0  0  0
 16 17  1  0  0  0  0
 17 20  1  0  0  0  0
 17 19  1  0  0  0  0
 17 18  1  0  0  0  0
 21 25  1  0  0  0  0
 21 22  1  0  0  0  0
 23 21  1  0  0  0  0
 24 21  1  0  0  0  0
 25 16  2  0  0  0  0
 26 27  1  6  0  0  0
 26  2  1  0  0  0  0
 26 25  1  0  0  0  0
 28 29  1  1  0  0  0
 28 26  1  0  0  0  0
 28 30  1  0  0  0  0
 30 31  1  0  0  0  0
 30 14  1  0  0  0  0
 32 30  1  0  0  0  0
 33 34  1  0  0  0  0
 33 58  1  0  0  0  0
 34 35  1  0  0  0  0
 36 37  1  0  0  0  0
 36 34  2  0  0  0  0
 38 36  1  0  0  0  0
 39 38  1  0  0  0  0
 40 38  2  0  0  0  0
 40 42  1  0  0  0  0
 41 40  1  0  0  0  0
 42 33  2  0  0  0  0
 43 42  1  0  0  0  0
 44 58  1  0  0  0  0
 44 45  1  0  0  0  0
 45 46  1  0  0  0  0
 47 45  2  0  0  0  0
 47 48  1  0  0  0  0
 49 47  1  0  0  0  0
 50 49  1  0  0  0  0
 51 53  1  0  0  0  0
 51 49  2  0  0  0  0
 52 51  1  0  0  0  0
 53 44  2  0  0  0  0
 54 53  1  0  0  0  0
 56  1  1  0  0  0  0
 57 58  1  0  0  0  0
 57  1  1  0  0  0  0
 58 28  1  0  0  0  0
M  END
$$$$
