CSD_code = CUKLUQ | q = 0 | S = 0 | Stoichiometry = C14H16Cl2N8Pt | MND = 4
 OpenBabel04212202023D

 41 44  0  0  1  0  0  0  0  0999 V2000
    3.9524   -1.4374    9.5280 Pt  0  0  0  0  0  0  0  0  0  0  0  0
    3.8720   -2.9248   11.1832 Cl  0  0  0  0  0  0  0  0  0  0  0  0
    3.2228   -2.9170    8.0345 Cl  0  0  0  0  0  0  0  0  0  0  0  0
    3.1670    1.3061    6.4766 N   0  0  0  0  0  0  0  0  0  0  0  0
    3.9956   -0.0426    8.0518 N   0  0  0  0  0  0  0  0  0  0  0  0
    5.9450    1.2647    8.5650 N   0  0  0  0  0  0  0  0  0  0  0  0
    4.3003    1.8234    6.9464 N   0  0  0  0  0  0  0  0  0  0  0  0
    6.0712    0.8182   12.3376 N   0  0  0  0  0  0  0  0  0  0  0  0
    4.6557   -0.0725   10.8576 N   0  0  0  0  0  0  0  0  0  0  0  0
    3.6261    1.9830   10.1595 N   0  0  0  0  0  0  0  0  0  0  0  0
    5.3485    1.7884   11.7820 N   0  0  0  0  0  0  0  0  0  0  0  0
    3.0172    0.1935    7.1564 C   0  0  0  0  0  0  0  0  0  0  0  0
    4.8259    0.9882    7.9221 C   0  0  2  0  0  3  0  0  0  0  0  0
    6.5520    2.3954    8.2750 C   0  0  0  0  0  0  0  0  0  0  0  0
    6.0477    3.2898    7.3023 C   0  0  0  0  0  0  0  0  0  0  0  0
    4.8991    2.9915    6.6176 C   0  0  0  0  0  0  0  0  0  0  0  0
    7.8013    2.7077    9.0273 C   0  0  0  0  0  0  0  0  0  0  0  0
    4.2541    3.8191    5.5684 C   0  0  0  0  0  0  0  0  0  0  0  0
    5.6306   -0.2773   11.7646 C   0  0  0  0  0  0  0  0  0  0  0  0
    4.4610    1.2431   10.8648 C   0  0  2  0  0  3  0  0  0  0  0  0
    3.6754    3.2873   10.3269 C   0  0  0  0  0  0  0  0  0  0  0  0
    4.5736    3.8936   11.2357 C   0  0  0  0  0  0  0  0  0  0  0  0
    5.4232    3.1241   11.9861 C   0  0  0  0  0  0  0  0  0  0  0  0
    2.7430    4.1126    9.5062 C   0  0  0  0  0  0  0  0  0  0  0  0
    6.4074    3.6093   12.9849 C   0  0  0  0  0  0  0  0  0  0  0  0
    2.1946   -0.4780    7.0060 H   0  0  0  0  0  0  0  0  0  0  0  0
    6.5751    4.2069    7.0961 H   0  0  0  0  0  0  0  0  0  0  0  0
    7.9895    1.9282    9.7597 H   0  0  0  0  0  0  0  0  0  0  0  0
    7.7134    3.6717    9.5269 H   0  0  0  0  0  0  0  0  0  0  0  0
    8.6457    2.7611    8.3419 H   0  0  0  0  0  0  0  0  0  0  0  0
    4.2671    3.2805    4.6213 H   0  0  0  0  0  0  0  0  0  0  0  0
    4.7649    4.7698    5.4515 H   0  0  0  0  0  0  0  0  0  0  0  0
    3.2081    3.9834    5.8232 H   0  0  0  0  0  0  0  0  0  0  0  0
    6.1359    3.2372   13.9725 H   0  0  0  0  0  0  0  0  0  0  0  0
    6.4432    4.6940   13.0038 H   0  0  0  0  0  0  0  0  0  0  0  0
    7.3922    3.2050   12.7555 H   0  0  0  0  0  0  0  0  0  0  0  0
    6.0029   -1.2540   12.0042 H   0  0  0  0  0  0  0  0  0  0  0  0
    4.5826    4.9661   11.3423 H   0  0  0  0  0  0  0  0  0  0  0  0
    3.2962    4.8556    8.9331 H   0  0  0  0  0  0  0  0  0  0  0  0
    2.0449    4.6405   10.1540 H   0  0  0  0  0  0  0  0  0  0  0  0
    2.1828    3.4694    8.8339 H   0  0  0  0  0  0  0  0  0  0  0  0
  1  9  1  0  0  0  0
  1  2  1  0  0  0  0
  3  1  1  0  0  0  0
  4  7  1  0  0  0  0
  4 12  2  0  0  0  0
  5  1  1  0  0  0  0
  7 13  1  0  0  0  0
  9 20  1  0  0  0  0
  9 19  1  0  0  0  0
 10 21  2  0  0  0  0
 11 23  1  0  0  0  0
 11  8  1  0  0  0  0
 12  5  1  0  0  0  0
 13  5  1  0  0  0  0
 13  6  1  1  0  0  0
 14  6  2  0  0  0  0
 14 17  1  0  0  0  0
 15 14  1  0  0  0  0
 16  7  1  0  0  0  0
 16 15  2  0  0  0  0
 17 29  1  0  0  0  0
 17 28  1  0  0  0  0
 18 33  1  0  0  0  0
 18 16  1  0  0  0  0
 19 37  1  0  0  0  0
 19  8  2  0  0  0  0
 20 10  1  6  0  0  0
 20 11  1  0  0  0  0
 21 22  1  0  0  0  0
 22 38  1  0  0  0  0
 22 23  2  0  0  0  0
 23 25  1  0  0  0  0
 24 40  1  0  0  0  0
 24 21  1  0  0  0  0
 25 35  1  0  0  0  0
 25 34  1  0  0  0  0
 26 12  1  0  0  0  0
 27 15  1  0  0  0  0
 30 17  1  0  0  0  0
 31 18  1  0  0  0  0
 32 18  1  0  0  0  0
 36 25  1  0  0  0  0
 39 24  1  0  0  0  0
 41 24  1  0  0  0  0
M  END
$$$$
