CSD_code = CUKLEA | q = 0 | S = 0 | Stoichiometry = C13H11ClN2OPt | MND = 4
 OpenBabel04212202023D

 29 32  0  0  0  0  0  0  0  0999 V2000
    3.1294    3.7604    3.6353 Pt  0  0  2  0  0  0  0  0  0  0  0  0
    3.2551    2.8333    1.6317 Cl  0  0  0  0  0  0  0  0  0  0  0  0
    2.4539    2.1030    4.6204 O   0  0  0  0  0  0  0  0  0  0  0  0
    3.7593    5.5800    3.1200 N   0  0  0  0  0  0  0  0  0  0  0  0
    3.0190    4.5574    5.3724 N   0  0  0  0  0  0  0  0  0  0  0  0
    3.3726    5.8172    5.4411 C   0  0  0  0  0  0  0  0  0  0  0  0
    3.3598    6.3907    6.3588 H   0  0  0  0  0  0  0  0  0  0  0  0
    3.7869    6.4083    4.2065 C   0  0  0  0  0  0  0  0  0  0  0  0
    4.2002    7.7386    4.0700 C   0  0  0  0  0  0  0  0  0  0  0  0
    4.2151    8.3761    4.9397 H   0  0  0  0  0  0  0  0  0  0  0  0
    4.5797    8.2100    2.8301 C   0  0  0  0  0  0  0  0  0  0  0  0
    4.9004    9.2334    2.7097 H   0  0  0  0  0  0  0  0  0  0  0  0
    4.5430    7.3481    1.7390 C   0  0  0  0  0  0  0  0  0  0  0  0
    4.8320    7.6812    0.7563 H   0  0  0  0  0  0  0  0  0  0  0  0
    4.1262    6.0416    1.9308 C   0  0  0  0  0  0  0  0  0  0  0  0
    4.0801    5.3317    1.1147 H   0  0  0  0  0  0  0  0  0  0  0  0
    2.5814    3.7173    6.3552 C   0  0  0  0  0  0  0  0  0  0  0  0
    2.2950    2.4003    5.8687 C   0  0  0  0  0  0  0  0  0  0  0  0
    1.8351    1.4499    6.8068 C   0  0  0  0  0  0  0  0  0  0  0  0
    1.6147    0.4539    6.4564 H   0  0  0  0  0  0  0  0  0  0  0  0
    1.6775    1.7969    8.1217 C   0  0  0  0  0  0  0  0  0  0  0  0
    1.3247    1.0574    8.8265 H   0  0  0  0  0  0  0  0  0  0  0  0
    1.9590    3.0920    8.5973 C   0  0  0  0  0  0  0  0  0  0  0  0
    2.4081    4.0398    7.7102 C   0  0  0  0  0  0  0  0  0  0  0  0
    2.6303    5.0401    8.0530 H   0  0  0  0  0  0  0  0  0  0  0  0
    1.7685    3.4021   10.0509 C   0  0  0  0  0  0  0  0  0  0  0  0
    1.9632    4.4518   10.2555 H   0  0  0  0  0  0  0  0  0  0  0  0
    2.4442    2.7996   10.6576 H   0  0  0  0  0  0  0  0  0  0  0  0
    0.7499    3.1696   10.3588 H   0  0  0  0  0  0  0  0  0  0  0  0
  1  2  1  1  0  0  0
  1  3  1  0  0  0  0
  1  5  1  0  0  0  0
  3 18  1  0  0  0  0
  4  1  1  0  0  0  0
  4  8  1  0  0  0  0
  5  6  1  0  0  0  0
  5 17  1  0  0  0  0
  6  7  1  0  0  0  0
  8  6  2  0  0  0  0
  9  8  1  0  0  0  0
  9 10  1  0  0  0  0
 11  9  2  0  0  0  0
 12 11  1  0  0  0  0
 13 15  2  0  0  0  0
 13 11  1  0  0  0  0
 14 13  1  0  0  0  0
 15  4  1  0  0  0  0
 16 15  1  0  0  0  0
 17 24  1  0  0  0  0
 18 17  2  0  0  0  0
 18 19  1  0  0  0  0
 19 21  2  0  0  0  0
 20 19  1  0  0  0  0
 21 23  1  0  0  0  0
 21 22  1  0  0  0  0
 23 26  1  0  0  0  0
 24 25  1  0  0  0  0
 24 23  2  0  0  0  0
 26 27  1  0  0  0  0
 26 29  1  0  0  0  0
 26 28  1  0  0  0  0
M  END
$$$$
