CSD_code = CUMCOE | q = 0 | S = 0 | Stoichiometry = C20H36I2N4NiO2 | MND = 4
 OpenBabel04212202023D

 65 66  0  0  1  0  0  0  0  0999 V2000
    6.5382   10.1862    4.5146 Ni  0  0  0  0  0  0  0  0  0  0  0  0
    6.3089   12.0013    5.0117 C   0  0  0  0  0  0  0  0  0  0  0  0
    5.4127   14.0133    5.3433 C   0  0  0  0  0  0  0  0  0  0  0  0
    4.6475   14.7597    5.3117 H   0  0  0  0  0  0  0  0  0  0  0  0
    6.7000   14.0622    5.7543 C   0  0  0  0  0  0  0  0  0  0  0  0
    7.2743   14.8646    6.1686 H   0  0  0  0  0  0  0  0  0  0  0  0
    3.9619   12.2681    4.3121 C   0  0  0  0  0  0  0  0  0  0  0  0
    3.1194   12.5834    4.9329 H   0  0  0  0  0  0  0  0  0  0  0  0
    4.0010   11.1714    4.2821 H   0  0  0  0  0  0  0  0  0  0  0  0
    3.7779   12.8072    2.8943 C   0  0  0  0  0  0  0  0  0  0  0  0
    4.6889   12.6324    2.3033 H   0  0  0  0  0  0  0  0  0  0  0  0
    2.9440   12.2791    2.4053 H   0  0  0  0  0  0  0  0  0  0  0  0
    3.4272   14.7999    1.7125 C   0  0  0  0  0  0  0  0  0  0  0  0
    4.3697   14.6916    1.1626 H   0  0  0  0  0  0  0  0  0  0  0  0
    3.2267   15.8541    1.8907 H   0  0  0  0  0  0  0  0  0  0  0  0
    2.6172   14.3690    1.1114 H   0  0  0  0  0  0  0  0  0  0  0  0
    8.5785   12.4159    5.8733 C   0  0  0  0  0  0  0  0  0  0  0  0
    9.2799   13.1795    5.5230 H   0  0  0  0  0  0  0  0  0  0  0  0
    8.7838   11.4835    5.3280 H   0  0  0  0  0  0  0  0  0  0  0  0
    8.7465   12.1749    7.3734 C   0  0  0  0  0  0  0  0  0  0  0  0
    8.5836   13.1100    7.9140 H   0  0  0  0  0  0  0  0  0  0  0  0
    7.9900   11.4616    7.7065 H   0  0  0  0  0  0  0  0  0  0  0  0
   10.1324   11.6258    7.6971 C   0  0  0  0  0  0  0  0  0  0  0  0
   10.8932   12.3477    7.3900 H   0  0  0  0  0  0  0  0  0  0  0  0
   10.2974   10.7085    7.1259 H   0  0  0  0  0  0  0  0  0  0  0  0
   10.2780   11.3264    9.1833 C   0  0  0  0  0  0  0  0  0  0  0  0
   10.1364   12.2308    9.7706 H   0  0  0  0  0  0  0  0  0  0  0  0
   11.2669   10.9288    9.3982 H   0  0  0  0  0  0  0  0  0  0  0  0
    9.5354   10.5960    9.4962 H   0  0  0  0  0  0  0  0  0  0  0  0
    5.1896   12.7389    4.8955 N   0  0  0  0  0  0  0  0  0  0  0  0
    7.2353   12.8184    5.5418 N   0  0  0  0  0  0  0  0  0  0  0  0
    3.5039   14.1865    2.9735 O   0  0  0  0  0  0  0  0  0  0  0  0
    5.7276    9.4635    6.7543 I   0  0  0  0  0  0  0  0  0  0  0  0
    6.7675    8.3711    4.0168 C   0  0  1  0  0  3  0  0  0  0  0  0
    7.6635    6.3592    3.6845 C   0  0  0  0  0  0  0  0  0  0  0  0
    8.4288    5.6128    3.7156 H   0  0  0  0  0  0  0  0  0  0  0  0
    6.3761    6.3104    3.2740 C   0  0  0  0  0  0  0  0  0  0  0  0
    5.8016    5.5080    2.8598 H   0  0  0  0  0  0  0  0  0  0  0  0
    9.1147    8.1043    4.7156 C   0  0  0  0  0  0  0  0  0  0  0  0
    9.9570    7.7891    4.0946 H   0  0  0  0  0  0  0  0  0  0  0  0
    9.0755    9.2010    4.7458 H   0  0  0  0  0  0  0  0  0  0  0  0
    9.2989    7.5650    6.1333 C   0  0  0  0  0  0  0  0  0  0  0  0
    8.3880    7.7397    6.7245 H   0  0  0  0  0  0  0  0  0  0  0  0
   10.1328    8.0931    6.6223 H   0  0  0  0  0  0  0  0  0  0  0  0
    9.6497    5.5721    7.3147 C   0  0  0  0  0  0  0  0  0  0  0  0
    8.7073    5.6802    7.8648 H   0  0  0  0  0  0  0  0  0  0  0  0
    9.8503    4.5179    7.1363 H   0  0  0  0  0  0  0  0  0  0  0  0
   10.4598    6.0029    7.9158 H   0  0  0  0  0  0  0  0  0  0  0  0
    4.4975    7.9567    3.1563 C   0  0  0  0  0  0  0  0  0  0  0  0
    3.7961    7.1934    3.5073 H   0  0  0  0  0  0  0  0  0  0  0  0
    4.2928    8.8894    3.7013 H   0  0  0  0  0  0  0  0  0  0  0  0
    4.3284    8.1972    1.6562 C   0  0  0  0  0  0  0  0  0  0  0  0
    4.4890    7.2616    1.1158 H   0  0  0  0  0  0  0  0  0  0  0  0
    5.0858    8.9091    1.3219 H   0  0  0  0  0  0  0  0  0  0  0  0
    2.9431    8.7487    1.3338 C   0  0  0  0  0  0  0  0  0  0  0  0
    2.1813    8.0288    1.6430 H   0  0  0  0  0  0  0  0  0  0  0  0
    2.7809    9.6672    1.9040 H   0  0  0  0  0  0  0  0  0  0  0  0
    2.7959    9.0465   -0.1526 C   0  0  0  0  0  0  0  0  0  0  0  0
    2.9343    8.1411   -0.7389 H   0  0  0  0  0  0  0  0  0  0  0  0
    1.8076    9.4462   -0.3664 H   0  0  0  0  0  0  0  0  0  0  0  0
    3.5397    9.7748   -0.4677 H   0  0  0  0  0  0  0  0  0  0  0  0
    7.8868    7.6335    4.1325 N   0  0  0  0  0  0  0  0  0  0  0  0
    5.8408    7.5541    3.4870 N   0  0  0  0  0  0  0  0  0  0  0  0
    9.5729    6.1858    6.0539 O   0  0  0  0  0  0  0  0  0  0  0  0
    7.3486   10.9084    2.2744 I   0  0  0  0  0  0  0  0  0  0  0  0
  1  2  2  0  0  0  0
  1 33  1  0  0  0  0
  2 31  1  0  0  0  0
  3  5  2  0  0  0  0
  4  3  1  0  0  0  0
  5  6  1  0  0  0  0
  7 30  1  0  0  0  0
  7  8  1  0  0  0  0
  9  7  1  0  0  0  0
 10 32  1  0  0  0  0
 10  7  1  0  0  0  0
 11 10  1  0  0  0  0
 12 10  1  0  0  0  0
 13 15  1  0  0  0  0
 13 32  1  0  0  0  0
 14 13  1  0  0  0  0
 16 13  1  0  0  0  0
 17 20  1  0  0  0  0
 18 17  1  0  0  0  0
 19 17  1  0  0  0  0
 20 23  1  0  0  0  0
 20 22  1  0  0  0  0
 20 21  1  0  0  0  0
 23 26  1  0  0  0  0
 24 23  1  0  0  0  0
 25 23  1  0  0  0  0
 26 28  1  0  0  0  0
 26 29  1  0  0  0  0
 26 27  1  0  0  0  0
 30  2  1  0  0  0  0
 30  3  1  0  0  0  0
 31  5  1  0  0  0  0
 31 17  1  0  0  0  0
 34 62  1  0  0  0  0
 34  1  1  1  0  0  0
 35 36  1  0  0  0  0
 35 62  1  0  0  0  0
 37 63  1  0  0  0  0
 37 35  2  0  0  0  0
 38 37  1  0  0  0  0
 39 41  1  0  0  0  0
 39 42  1  0  0  0  0
 40 39  1  0  0  0  0
 42 44  1  0  0  0  0
 42 43  1  0  0  0  0
 45 46  1  0  0  0  0
 45 48  1  0  0  0  0
 47 45  1  0  0  0  0
 49 63  1  0  0  0  0
 49 50  1  0  0  0  0
 49 51  1  0  0  0  0
 52 49  1  0  0  0  0
 53 52  1  0  0  0  0
 54 52  1  0  0  0  0
 55 56  1  0  0  0  0
 55 52  1  0  0  0  0
 55 57  1  0  0  0  0
 58 55  1  0  0  0  0
 59 58  1  0  0  0  0
 60 58  1  0  0  0  0
 61 58  1  0  0  0  0
 62 39  1  0  0  0  0
 63 34  1  0  0  0  0
 64 42  1  0  0  0  0
 64 45  1  0  0  0  0
 65  1  1  0  0  0  0
M  END
$$$$
