CSD_code = CUNBAQ | q = 0 | S = 0 | Stoichiometry = C19H24BrMnN2O5 | MND = 6
 OpenBabel04212202023D

 52 54  0  0  0  0  0  0  0  0999 V2000
    4.0640    6.4614    2.3525 Mn  0  0  0  0  0  0  0  0  0  0  0  0
    3.2276    8.5497    1.6378 Br  0  0  0  0  0  0  0  0  0  0  0  0
    0.7650    4.8021    0.5535 C   0  0  0  0  0  0  0  0  0  0  0  0
    1.5176    5.3161    1.6495 C   0  0  0  0  0  0  0  0  0  0  0  0
    0.8326    5.6849    2.8306 C   0  0  0  0  0  0  0  0  0  0  0  0
   -0.5577    5.5175    2.9062 C   0  0  0  0  0  0  0  0  0  0  0  0
   -1.0693    5.7934    3.8165 H   0  0  0  0  0  0  0  0  0  0  0  0
   -1.2609    5.0312    1.8341 C   0  0  0  0  0  0  0  0  0  0  0  0
   -2.3326    4.9185    1.8903 H   0  0  0  0  0  0  0  0  0  0  0  0
   -0.6036    4.6795    0.6538 C   0  0  0  0  0  0  0  0  0  0  0  0
   -1.1850    4.3075   -0.1750 H   0  0  0  0  0  0  0  0  0  0  0  0
    1.5149    4.4788   -0.5438 O   0  0  0  0  0  0  0  0  0  0  0  0
    0.8388    4.1309   -1.7263 C   0  0  0  0  0  0  0  0  0  0  0  0
    0.2774    3.1976   -1.6093 H   0  0  0  0  0  0  0  0  0  0  0  0
    1.6123    3.9923   -2.4803 H   0  0  0  0  0  0  0  0  0  0  0  0
    0.1597    4.9271   -2.0458 H   0  0  0  0  0  0  0  0  0  0  0  0
    2.8108    5.3937    1.5533 O   0  0  0  0  0  0  0  0  0  0  0  0
    1.5561    6.2129    3.9505 C   0  0  0  0  0  3  0  0  0  0  0  0
    0.9548    6.3726    4.8512 H   0  0  0  0  0  0  0  0  0  0  0  0
    2.8055    6.5111    3.9782 N   0  0  0  0  0  0  0  0  0  0  0  0
    3.3151    7.0681    5.2078 C   0  0  0  0  0  0  0  0  0  0  0  0
    2.5595    7.0605    6.0008 H   0  0  0  0  0  0  0  0  0  0  0  0
    3.6294    8.0968    5.0164 H   0  0  0  0  0  0  0  0  0  0  0  0
    4.1961    6.5148    5.5329 H   0  0  0  0  0  0  0  0  0  0  0  0
    7.4661    6.9234    4.5257 C   0  0  0  0  0  0  0  0  0  0  0  0
    6.6611    6.7938    3.3476 C   0  0  0  0  0  0  0  0  0  0  0  0
    7.3011    6.4050    2.1378 C   0  0  0  0  0  0  0  0  0  0  0  0
    8.6965    6.2257    2.1170 C   0  0  0  0  0  0  0  0  0  0  0  0
    9.1730    5.9594    1.1844 H   0  0  0  0  0  0  0  0  0  0  0  0
    9.4388    6.3794    3.2559 C   0  0  0  0  0  0  0  0  0  0  0  0
   10.5083    6.2359    3.2346 H   0  0  0  0  0  0  0  0  0  0  0  0
    8.8245    6.7192    4.4670 C   0  0  0  0  0  0  0  0  0  0  0  0
    9.4366    6.8212    5.3493 H   0  0  0  0  0  0  0  0  0  0  0  0
    6.7590    7.2291    5.6544 O   0  0  0  0  0  0  0  0  0  0  0  0
    7.4731    7.5313    6.8259 C   0  0  0  0  0  0  0  0  0  0  0  0
    8.0172    6.6581    7.2035 H   0  0  0  0  0  0  0  0  0  0  0  0
    6.7256    7.8333    7.5580 H   0  0  0  0  0  0  0  0  0  0  0  0
    8.1762    8.3543    6.6656 H   0  0  0  0  0  0  0  0  0  0  0  0
    5.4011    7.0590    3.4174 O   0  0  0  0  0  0  0  0  0  0  0  0
    6.5411    6.2426    0.9447 C   0  0  0  0  0  3  0  0  0  0  0  0
    7.1205    6.0627    0.0356 H   0  0  0  0  0  0  0  0  0  0  0  0
    5.2509    6.3265    0.8541 N   0  0  0  0  0  0  0  0  0  0  0  0
    4.6797    6.2689   -0.4711 C   0  0  0  0  0  0  0  0  0  0  0  0
    5.4142    5.9456   -1.2161 H   0  0  0  0  0  0  0  0  0  0  0  0
    4.3075    7.2614   -0.7435 H   0  0  0  0  0  0  0  0  0  0  0  0
    3.8253    5.5857   -0.4679 H   0  0  0  0  0  0  0  0  0  0  0  0
    4.7338    4.3011    3.0126 O   0  0  0  0  0  0  0  0  0  0  0  0
    4.5717    3.7169    2.2605 H   0  0  0  0  0  0  0  0  0  0  0  0
    5.7435    3.7471    3.8290 C   0  0  0  0  0  0  0  0  0  0  0  0
    6.6967    3.6679    3.2957 H   0  0  0  0  0  0  0  0  0  0  0  0
    5.4455    2.7584    4.1930 H   0  0  0  0  0  0  0  0  0  0  0  0
    5.8730    4.4149    4.6787 H   0  0  0  0  0  0  0  0  0  0  0  0
  1 39  1  0  0  0  0
  1 20  1  0  0  0  0
  2  1  1  0  0  0  0
  3 10  2  0  0  0  0
  3  4  1  0  0  0  0
  4  5  2  0  0  0  0
  5  6  1  0  0  0  0
  5 18  1  0  0  0  0
  6  7  1  0  0  0  0
  8  9  1  0  0  0  0
  8  6  2  0  0  0  0
 10  8  1  0  0  0  0
 11 10  1  0  0  0  0
 12  3  1  0  0  0  0
 13 14  1  0  0  0  0
 13 12  1  0  0  0  0
 15 13  1  0  0  0  0
 16 13  1  0  0  0  0
 17  4  1  0  0  0  0
 17  1  1  0  0  0  0
 18 20  1  0  0  0  0
 18 19  1  0  0  0  0
 20 21  1  0  0  0  0
 21 24  1  0  0  0  0
 21 22  1  0  0  0  0
 23 21  1  0  0  0  0
 25 34  1  0  0  0  0
 26 39  1  0  0  0  0
 26 25  2  0  0  0  0
 27 26  1  0  0  0  0
 28 27  2  0  0  0  0
 28 30  1  0  0  0  0
 29 28  1  0  0  0  0
 30 32  2  0  0  0  0
 31 30  1  0  0  0  0
 32 25  1  0  0  0  0
 32 33  1  0  0  0  0
 34 35  1  0  0  0  0
 35 36  1  0  0  0  0
 35 37  1  0  0  0  0
 38 35  1  0  0  0  0
 40 27  1  0  0  0  0
 41 40  1  0  0  0  0
 42 40  1  0  0  0  0
 42  1  1  0  0  0  0
 43 46  1  0  0  0  0
 43 42  1  0  0  0  0
 44 43  1  0  0  0  0
 45 43  1  0  0  0  0
 47 49  1  0  0  0  0
 48 47  1  0  0  0  0
 49 51  1  0  0  0  0
 49 52  1  0  0  0  0
 50 49  1  0  0  0  0
M  END
$$$$
