CSD_code = CUNXAM | q = 0 | S = 0 | Stoichiometry = C26H22AuBrF3P | MND = 4
 OpenBabel04212202023D

 54 57  0  0  0  0  0  0  0  0999 V2000
    3.7716    6.4322    2.0536 C   0  0  0  0  0  0  0  0  0  0  0  0
    3.4500    4.9586   -0.2504 C   0  0  0  0  0  0  0  0  0  0  0  0
    4.7217    4.5837   -0.6470 C   0  0  0  0  0  0  0  0  0  0  0  0
    5.4187    4.1683    0.0671 H   0  0  0  0  0  0  0  0  0  0  0  0
    5.1180    4.7526   -1.9626 C   0  0  0  0  0  0  0  0  0  0  0  0
    6.1162    4.4594   -2.2547 H   0  0  0  0  0  0  0  0  0  0  0  0
    4.2544    5.2962   -2.9035 C   0  0  0  0  0  0  0  0  0  0  0  0
    2.9859    5.6792   -2.4923 C   0  0  0  0  0  0  0  0  0  0  0  0
    2.2982    6.1161   -3.2019 H   0  0  0  0  0  0  0  0  0  0  0  0
    2.5860    5.5140   -1.1772 C   0  0  0  0  0  0  0  0  0  0  0  0
    1.5944    5.8306   -0.8843 H   0  0  0  0  0  0  0  0  0  0  0  0
    4.6809    5.4475   -4.3315 C   0  0  0  0  0  0  0  0  0  0  0  0
    5.7347    5.7095   -4.3936 H   0  0  0  0  0  0  0  0  0  0  0  0
    4.0960    6.2144   -4.8327 H   0  0  0  0  0  0  0  0  0  0  0  0
    4.5360    4.5070   -4.8643 H   0  0  0  0  0  0  0  0  0  0  0  0
    2.6070    1.1098    1.3974 C   0  0  0  0  0  0  0  0  0  0  0  0
    3.6199    1.0910    2.3487 C   0  0  0  0  0  0  0  0  0  0  0  0
    3.9361    2.0063    2.8280 H   0  0  0  0  0  0  0  0  0  0  0  0
    4.2135   -0.1114    2.6927 C   0  0  0  0  0  0  0  0  0  0  0  0
    4.9961   -0.1268    3.4356 H   0  0  0  0  0  0  0  0  0  0  0  0
    3.8021   -1.2874    2.0892 C   0  0  0  0  0  0  0  0  0  0  0  0
    4.2652   -2.2240    2.3613 H   0  0  0  0  0  0  0  0  0  0  0  0
    2.7963   -1.2682    1.1338 C   0  0  0  0  0  0  0  0  0  0  0  0
    2.4780   -2.1865    0.6629 H   0  0  0  0  0  0  0  0  0  0  0  0
    2.1976   -0.0744    0.7830 C   0  0  0  0  0  0  0  0  0  0  0  0
    1.4162   -0.0485    0.0343 H   0  0  0  0  0  0  0  0  0  0  0  0
    1.6259    2.5151   -0.8584 C   0  0  0  0  0  0  0  0  0  0  0  0
    2.7574    2.1440   -1.5832 C   0  0  0  0  0  0  0  0  0  0  0  0
    3.6587    1.8578   -1.0569 H   0  0  0  0  0  0  0  0  0  0  0  0
    2.7217    2.1418   -2.9627 C   0  0  0  0  0  0  0  0  0  0  0  0
    3.5987    1.8510   -3.5211 H   0  0  0  0  0  0  0  0  0  0  0  0
    1.5646    2.5179   -3.6272 C   0  0  0  0  0  0  0  0  0  0  0  0
    1.5401    2.5234   -4.7065 H   0  0  0  0  0  0  0  0  0  0  0  0
    0.4393    2.8851   -2.9093 C   0  0  0  0  0  0  0  0  0  0  0  0
   -0.4631    3.1742   -3.4271 H   0  0  0  0  0  0  0  0  0  0  0  0
    0.4658    2.8898   -1.5260 C   0  0  0  0  0  0  0  0  0  0  0  0
   -0.4145    3.1749   -0.9666 H   0  0  0  0  0  0  0  0  0  0  0  0
    0.1171    2.5871    1.5995 C   0  0  0  0  0  0  0  0  0  0  0  0
   -0.6364    3.7577    1.5178 C   0  0  0  0  0  0  0  0  0  0  0  0
   -0.2058    4.6424    1.0606 H   0  0  0  0  0  0  0  0  0  0  0  0
   -1.9127    3.7931    2.0431 C   0  0  0  0  0  0  0  0  0  0  0  0
   -2.4943    4.7008    1.9846 H   0  0  0  0  0  0  0  0  0  0  0  0
   -2.4340    2.6680    2.6632 C   0  0  0  0  0  0  0  0  0  0  0  0
   -3.4268    2.7002    3.0856 H   0  0  0  0  0  0  0  0  0  0  0  0
   -1.6779    1.5124    2.7617 C   0  0  0  0  0  0  0  0  0  0  0  0
   -2.0789    0.6448    3.2636 H   0  0  0  0  0  0  0  0  0  0  0  0
   -0.3993    1.4652    2.2351 C   0  0  0  0  0  0  0  0  0  0  0  0
    0.1989    0.5712    2.3342 H   0  0  0  0  0  0  0  0  0  0  0  0
    5.1050    6.4285    1.7843 F   0  0  0  0  0  0  0  0  0  0  0  0
    3.2678    7.4625    1.3188 F   0  0  0  0  0  0  0  0  0  0  0  0
    3.6803    6.8509    3.3335 F   0  0  0  0  0  0  0  0  0  0  0  0
    1.7974    2.6582    0.9398 P   0  0  0  0  0  4  0  0  0  0  0  0
    2.0825    3.9843    3.8968 Br  0  0  0  0  0  0  0  0  0  0  0  0
    2.8408    4.6119    1.6326 Au  0  0  2  0  0  0  0  0  0  0  0  0
  1 51  1  0  0  0  0
  2 54  1  0  0  0  0
  3  2  1  0  0  0  0
  3  4  1  0  0  0  0
  5  3  2  0  0  0  0
  6  5  1  0  0  0  0
  7  8  2  0  0  0  0
  7  5  1  0  0  0  0
  8 10  1  0  0  0  0
  9  8  1  0  0  0  0
 10 11  1  0  0  0  0
 10  2  2  0  0  0  0
 12  7  1  0  0  0  0
 13 12  1  0  0  0  0
 14 12  1  0  0  0  0
 15 12  1  0  0  0  0
 16 17  1  0  0  0  0
 17 19  2  0  0  0  0
 17 18  1  0  0  0  0
 19 20  1  0  0  0  0
 21 22  1  0  0  0  0
 21 19  1  0  0  0  0
 23 21  2  0  0  0  0
 24 23  1  0  0  0  0
 25 23  1  0  0  0  0
 25 16  2  0  0  0  0
 26 25  1  0  0  0  0
 27 52  1  0  0  0  0
 28 29  1  0  0  0  0
 28 27  2  0  0  0  0
 30 28  1  0  0  0  0
 31 30  1  0  0  0  0
 32 30  2  0  0  0  0
 32 34  1  0  0  0  0
 33 32  1  0  0  0  0
 34 36  2  0  0  0  0
 35 34  1  0  0  0  0
 36 37  1  0  0  0  0
 36 27  1  0  0  0  0
 38 47  1  0  0  0  0
 39 38  2  0  0  0  0
 39 41  1  0  0  0  0
 40 39  1  0  0  0  0
 41 43  2  0  0  0  0
 42 41  1  0  0  0  0
 43 45  1  0  0  0  0
 43 44  1  0  0  0  0
 45 46  1  0  0  0  0
 47 48  1  0  0  0  0
 47 45  2  0  0  0  0
 49  1  1  0  0  0  0
 50  1  1  0  0  0  0
 52 16  1  0  0  0  0
 52 38  1  0  0  0  0
 52 54  1  0  0  0  0
 54  1  1  0  0  0  0
 54 53  1  1  0  0  0
M  END
$$$$
