CSD_code = CUNXEQ | q = 0 | S = 0 | Stoichiometry = C26H22AuClF3P | MND = 4
 OpenBabel04212202023D

 54 57  0  0  0  0  0  0  0  0999 V2000
    7.5734    0.6460   16.3791 C   0  0  0  0  0  0  0  0  0  0  0  0
    7.9619    1.9525   18.8296 C   0  0  0  0  0  0  0  0  0  0  0  0
    8.8827    1.4744   19.7476 C   0  0  0  0  0  0  0  0  0  0  0  0
    9.8937    1.2450   19.4415 H   0  0  0  0  0  0  0  0  0  0  0  0
    8.5208    1.2853   21.0692 C   0  0  0  0  0  0  0  0  0  0  0  0
    9.2538    0.9158   21.7718 H   0  0  0  0  0  0  0  0  0  0  0  0
    7.2321    1.5686   21.5019 C   0  0  0  0  0  0  0  0  0  0  0  0
    6.3108    2.0261   20.5718 C   0  0  0  0  0  0  0  0  0  0  0  0
    5.2969    2.2394   20.8786 H   0  0  0  0  0  0  0  0  0  0  0  0
    6.6700    2.2174   19.2471 C   0  0  0  0  0  0  0  0  0  0  0  0
    5.9292    2.5685   18.5440 H   0  0  0  0  0  0  0  0  0  0  0  0
    6.8495    1.3620   22.9353 C   0  0  0  0  0  0  0  0  0  0  0  0
    6.6747    0.3029   23.1246 H   0  0  0  0  0  0  0  0  0  0  0  0
    5.9394    1.9046   23.1779 H   0  0  0  0  0  0  0  0  0  0  0  0
    7.6475    1.6922   23.5972 H   0  0  0  0  0  0  0  0  0  0  0  0
   11.3775    4.2975   17.0199 C   0  0  0  0  0  0  0  0  0  0  0  0
   12.1009    3.1290   17.2520 C   0  0  0  0  0  0  0  0  0  0  0  0
   11.6249    2.3000   17.7632 H   0  0  0  0  0  0  0  0  0  0  0  0
   13.4051    3.0271   16.8091 C   0  0  0  0  0  0  0  0  0  0  0  0
   13.9651    2.1205   16.9845 H   0  0  0  0  0  0  0  0  0  0  0  0
   13.9859    4.0843   16.1256 C   0  0  0  0  0  0  0  0  0  0  0  0
   15.0026    4.0013   15.7716 H   0  0  0  0  0  0  0  0  0  0  0  0
   13.2600    5.2377   15.8791 C   0  0  0  0  0  0  0  0  0  0  0  0
   13.7094    6.0517   15.3299 H   0  0  0  0  0  0  0  0  0  0  0  0
   11.9531    5.3501   16.3200 C   0  0  0  0  0  0  0  0  0  0  0  0
   11.3782    6.2395   16.1065 H   0  0  0  0  0  0  0  0  0  0  0  0
    9.7484    4.5292   19.3862 C   0  0  0  0  0  0  0  0  0  0  0  0
   10.8915    4.2889   20.1376 C   0  0  0  0  0  0  0  0  0  0  0  0
   11.8281    4.0669   19.6451 H   0  0  0  0  0  0  0  0  0  0  0  0
   10.8268    4.3441   21.5193 C   0  0  0  0  0  0  0  0  0  0  0  0
   11.7167    4.1605   22.1033 H   0  0  0  0  0  0  0  0  0  0  0  0
    9.6281    4.6255   22.1516 C   0  0  0  0  0  0  0  0  0  0  0  0
    9.5820    4.6570   23.2299 H   0  0  0  0  0  0  0  0  0  0  0  0
    8.4862    4.8685   21.4033 C   0  0  0  0  0  0  0  0  0  0  0  0
    7.5514    5.0891   21.8960 H   0  0  0  0  0  0  0  0  0  0  0  0
    8.5439    4.8184   20.0258 C   0  0  0  0  0  0  0  0  0  0  0  0
    7.6589    5.0001   19.4292 H   0  0  0  0  0  0  0  0  0  0  0  0
    8.9176    5.8651   17.0493 C   0  0  0  0  0  0  0  0  0  0  0  0
    9.3830    7.0583   17.6022 C   0  0  0  0  0  0  0  0  0  0  0  0
   10.1789    7.0352   18.3359 H   0  0  0  0  0  0  0  0  0  0  0  0
    8.8207    8.2577   17.2101 C   0  0  0  0  0  0  0  0  0  0  0  0
    9.1835    9.1840   17.6306 H   0  0  0  0  0  0  0  0  0  0  0  0
    7.7923    8.2714   16.2794 C   0  0  0  0  0  0  0  0  0  0  0  0
    7.3565    9.2114   15.9751 H   0  0  0  0  0  0  0  0  0  0  0  0
    7.3219    7.0850   15.7418 C   0  0  0  0  0  0  0  0  0  0  0  0
    6.5189    7.0976   15.0205 H   0  0  0  0  0  0  0  0  0  0  0  0
    7.8806    5.8778   16.1251 C   0  0  0  0  0  0  0  0  0  0  0  0
    7.5304    4.9490   15.6986 H   0  0  0  0  0  0  0  0  0  0  0  0
    6.2270    0.7006   16.5755 F   0  0  0  0  0  0  0  0  0  0  0  0
    7.7163    0.3298   15.0739 F   0  0  0  0  0  0  0  0  0  0  0  0
    7.9738   -0.4698   17.0484 F   0  0  0  0  0  0  0  0  0  0  0  0
    9.6652    4.3124   17.5849 P   0  0  0  0  0  4  0  0  0  0  0  0
    9.4089    3.1793   14.9175 Cl  0  0  0  0  0  0  0  0  0  0  0  0
    8.5565    2.3877   16.9655 Au  0  0  1  0  0  0  0  0  0  0  0  0
  1 49  1  0  0  0  0
  1 54  1  0  0  0  0
  1 51  1  0  0  0  0
  2 10  2  0  0  0  0
  2  3  1  0  0  0  0
  3  5  2  0  0  0  0
  4  3  1  0  0  0  0
  5  7  1  0  0  0  0
  5  6  1  0  0  0  0
  7 12  1  0  0  0  0
  8  9  1  0  0  0  0
  8  7  2  0  0  0  0
 10  8  1  0  0  0  0
 11 10  1  0  0  0  0
 12 13  1  0  0  0  0
 12 14  1  0  0  0  0
 12 15  1  0  0  0  0
 16 17  1  0  0  0  0
 16 52  1  0  0  0  0
 17 18  1  0  0  0  0
 19 20  1  0  0  0  0
 19 17  2  0  0  0  0
 21 19  1  0  0  0  0
 22 21  1  0  0  0  0
 23 21  2  0  0  0  0
 23 25  1  0  0  0  0
 24 23  1  0  0  0  0
 25 16  2  0  0  0  0
 26 25  1  0  0  0  0
 27 36  2  0  0  0  0
 27 28  1  0  0  0  0
 28 30  2  0  0  0  0
 29 28  1  0  0  0  0
 30 31  1  0  0  0  0
 30 32  1  0  0  0  0
 32 33  1  0  0  0  0
 34 35  1  0  0  0  0
 34 32  2  0  0  0  0
 36 34  1  0  0  0  0
 37 36  1  0  0  0  0
 38 52  1  0  0  0  0
 38 39  1  0  0  0  0
 39 40  1  0  0  0  0
 41 39  2  0  0  0  0
 41 42  1  0  0  0  0
 43 41  1  0  0  0  0
 44 43  1  0  0  0  0
 45 47  1  0  0  0  0
 45 43  2  0  0  0  0
 46 45  1  0  0  0  0
 47 38  2  0  0  0  0
 48 47  1  0  0  0  0
 50  1  1  0  0  0  0
 52 27  1  0  0  0  0
 54 53  1  6  0  0  0
 54 52  1  0  0  0  0
 54  2  1  0  0  0  0
M  END
$$$$
