CSD_code = CUPPIN | q = -1 | S = 0 | Stoichiometry = C2H6Cl3OPdS(1-) | MND = 4
 OpenBabel04212202023D

 14 13  0  0  0  0  0  0  0  0999 V2000
    0.8475    4.2803    4.0364 C   0  0  0  0  0  0  0  0  0  0  0  0
   -0.0458    3.6678    3.9996 H   0  0  0  0  0  0  0  0  0  0  0  0
    1.7118    3.7181    4.3724 H   0  0  0  0  0  0  0  0  0  0  0  0
    1.0533    4.7310    3.0710 H   0  0  0  0  0  0  0  0  0  0  0  0
    0.2576    4.5876    6.6731 C   0  0  0  0  0  0  0  0  0  0  0  0
    0.0462    5.2484    7.5073 H   0  0  0  0  0  0  0  0  0  0  0  0
    1.1595    4.0192    6.8724 H   0  0  0  0  0  0  0  0  0  0  0  0
   -0.5881    3.9447    6.4589 H   0  0  0  0  0  0  0  0  0  0  0  0
    3.7461    8.7244    5.5743 Cl  0  0  0  0  0  0  0  0  0  0  0  0
    2.6864    6.7873    3.1996 Cl  0  0  0  0  0  0  0  0  0  0  0  0
    1.6763    7.3157    7.6310 Cl  0  0  0  0  0  0  0  0  0  0  0  0
   -0.7113    6.2398    4.8611 O   0  0  0  0  0  1  0  0  0  0  0  0
    2.1959    7.1439    5.4076 Pd  0  0  0  0  0  0  0  0  0  0  0  0
    0.5728    5.6520    5.2172 S   0  0  0  0  0  0  0  0  0  0  0  0
  1  3  1  0  0  0  0
  1 14  1  0  0  0  0
  2  1  1  0  0  0  0
  4  1  1  0  0  0  0
  5  7  1  0  0  0  0
  5  6  1  0  0  0  0
  8  5  1  0  0  0  0
 10 13  1  0  0  0  0
 12 14  1  0  0  0  0
 13  9  1  0  0  0  0
 13 11  1  0  0  0  0
 14 13  1  0  0  0  0
 14  5  1  0  0  0  0
M  END
$$$$
