CSD_code = CUQPIP | q = 0 | S = 0 | Stoichiometry = C20H18Cl2Zr | MND = 12
 OpenBabel04212202023D

 41 44  0  0  1  0  0  0  0  0999 V2000
    7.7913    3.2437    6.0485 Zr  0  0  0  0  0  0  0  0  0  0  0  0
    8.1266    1.4784    4.5571 Cl  0  0  0  0  0  0  0  0  0  0  0  0
    8.0337    1.7848    7.8589 Cl  0  0  0  0  0  0  0  0  0  0  0  0
    9.6946    4.1320    3.2606 C   0  0  0  0  0  0  0  0  0  0  0  0
    8.7814    4.4808    2.7756 H   0  0  0  0  0  0  0  0  0  0  0  0
    9.8502    3.0850    3.0014 H   0  0  0  0  0  0  0  0  0  0  0  0
   10.5338    4.7108    2.8688 H   0  0  0  0  0  0  0  0  0  0  0  0
    9.6050    4.2959    4.7504 C   0  0  0  0  0  0  0  0  0  0  0  0
    8.9035    5.3294    5.4206 C   0  0  2  0  0  0  0  0  0  0  0  0
    8.4619    6.1943    4.9403 H   0  0  0  0  0  0  0  0  0  0  0  0
    9.1382    5.1820    6.8258 C   0  0  0  0  0  0  0  0  0  0  0  0
    8.7317    5.9209    7.9550 C   0  0  0  0  0  0  0  0  0  0  0  0
    8.1299    6.8139    7.8372 H   0  0  0  0  0  0  0  0  0  0  0  0
    9.1553    5.5221    9.1993 C   0  0  0  0  0  0  0  0  0  0  0  0
    8.8556    6.0831   10.0721 H   0  0  0  0  0  0  0  0  0  0  0  0
    9.9954    4.4076    9.3664 C   0  0  0  0  0  0  0  0  0  0  0  0
   10.3153    4.1428   10.3626 H   0  0  0  0  0  0  0  0  0  0  0  0
   10.4213    3.6654    8.2937 C   0  0  0  0  0  0  0  0  0  0  0  0
   11.0803    2.8187    8.4284 H   0  0  0  0  0  0  0  0  0  0  0  0
    9.9925    4.0264    7.0022 C   0  0  0  0  0  0  0  0  0  0  0  0
   10.2408    3.4734    5.7107 C   0  0  0  0  0  0  0  0  0  0  0  0
   10.9015    2.6420    5.4923 H   0  0  0  0  0  0  0  0  0  0  0  0
    5.7149    4.2296    8.6617 C   0  0  0  0  0  0  0  0  0  0  0  0
    6.4583    3.5987    9.1584 H   0  0  0  0  0  0  0  0  0  0  0  0
    4.7374    3.9892    9.0815 H   0  0  0  0  0  0  0  0  0  0  0  0
    5.9381    5.2734    8.8779 H   0  0  0  0  0  0  0  0  0  0  0  0
    5.7208    3.9795    7.1806 C   0  0  0  0  0  0  0  0  0  0  0  0
    6.0351    4.9341    6.1818 C   0  0  2  0  0  0  0  0  0  0  0  0
    6.1534    5.9975    6.3496 H   0  0  0  0  0  0  0  0  0  0  0  0
    5.8782    4.3041    4.9050 C   0  0  0  0  0  0  0  0  0  0  0  0
    6.0409    4.7553    3.5794 C   0  0  0  0  0  0  0  0  0  0  0  0
    6.3262    5.7820    3.3818 H   0  0  0  0  0  0  0  0  0  0  0  0
    5.7783    3.8892    2.5457 C   0  0  0  0  0  0  0  0  0  0  0  0
    5.8928    4.2232    1.5249 H   0  0  0  0  0  0  0  0  0  0  0  0
    5.3386    2.5750    2.7821 C   0  0  0  0  0  0  0  0  0  0  0  0
    5.1274    1.9385    1.9367 H   0  0  0  0  0  0  0  0  0  0  0  0
    5.1703    2.0946    4.0564 C   0  0  0  0  0  0  0  0  0  0  0  0
    4.8250    1.0845    4.2301 H   0  0  0  0  0  0  0  0  0  0  0  0
    5.4540    2.9398    5.1460 C   0  0  0  0  0  0  0  0  0  0  0  0
    5.3991    2.7501    6.5578 C   0  0  0  0  0  0  0  0  0  0  0  0
    5.0505    1.8582    7.0654 H   0  0  0  0  0  0  0  0  0  0  0  0
  1 28  1  0  0  0  0
  1  3  1  0  0  0  0
  2  1  1  0  0  0  0
  4  8  1  0  0  0  0
  5  4  1  0  0  0  0
  6  4  1  0  0  0  0
  7  4  1  0  0  0  0
  8  9  1  0  0  0  0
  8 21  2  0  0  0  0
  9 10  1  6  0  0  0
  9  1  1  0  0  0  0
  9 11  1  0  0  0  0
 11 20  2  0  0  0  0
 11 12  1  0  0  0  0
 12 14  2  0  0  0  0
 13 12  1  0  0  0  0
 14 16  1  0  0  0  0
 14 15  1  0  0  0  0
 16 17  1  0  0  0  0
 18 19  1  0  0  0  0
 18 16  2  0  0  0  0
 20 18  1  0  0  0  0
 21 20  1  0  0  0  0
 22 21  1  0  0  0  0
 23 26  1  0  0  0  0
 23 25  1  0  0  0  0
 23 24  1  0  0  0  0
 27 23  1  0  0  0  0
 28 29  1  1  0  0  0
 28 27  1  0  0  0  0
 30 39  1  0  0  0  0
 30 28  1  0  0  0  0
 31 30  2  0  0  0  0
 32 31  1  0  0  0  0
 33 35  2  0  0  0  0
 33 31  1  0  0  0  0
 34 33  1  0  0  0  0
 35 37  1  0  0  0  0
 36 35  1  0  0  0  0
 37 38  1  0  0  0  0
 37 39  2  0  0  0  0
 39 40  1  0  0  0  0
 40 41  1  0  0  0  0
 40 27  2  0  0  0  0
M  END
$$$$
