CSD_code = CURTAK | q = 0 | S = 0 | Stoichiometry = C18H10BrNO4W | MND = 6
 OpenBabel04212202023D

 35 36  0  0  0  0  0  0  0  0999 V2000
    0.9609    0.2322    4.7011 W   0  0  0  0  0  0  0  0  0  0  0  0
    1.7287   -0.7348    2.4078 Br  0  0  0  0  0  0  0  0  0  0  0  0
    2.6957   -0.3985    5.5163 C   0  0  0  0  0  2  0  0  0  0  0  0
    3.7032   -0.6758    5.9730 O   0  0  0  0  0  1  0  0  0  0  0  0
   -0.0526   -1.4645    5.0911 C   0  0  0  0  0  2  0  0  0  0  0  0
   -0.7186   -2.3608    5.3280 O   0  0  0  0  0  1  0  0  0  0  0  0
   -0.7662    0.8430    3.8582 C   0  0  0  0  0  2  0  0  0  0  0  0
   -1.7896    1.1193    3.4365 O   0  0  0  0  0  1  0  0  0  0  0  0
    1.9680    1.9378    4.3219 C   0  0  0  0  0  2  0  0  0  0  0  0
    2.5880    2.8861    4.1897 O   0  0  0  0  0  1  0  0  0  0  0  0
    0.3571    0.9595    6.4485 C   0  0  0  0  0  2  0  0  0  0  0  0
   -0.0065    1.3880    7.4982 N   0  0  0  0  0  2  0  0  0  0  0  0
   -0.5453    1.7807    8.6217 C   0  0  0  0  0  3  0  0  0  0  0  0
    0.2839    2.5250    9.5488 C   0  0  0  0  0  0  0  0  0  0  0  0
    1.3747    3.2633    9.0699 C   0  0  0  0  0  0  0  0  0  0  0  0
    2.1823    3.9638    9.9410 C   0  0  0  0  0  0  0  0  0  0  0  0
    1.9305    3.9324   11.3048 C   0  0  0  0  0  0  0  0  0  0  0  0
    0.8700    3.1844   11.7931 C   0  0  0  0  0  0  0  0  0  0  0  0
    0.0522    2.4843   10.9291 C   0  0  0  0  0  0  0  0  0  0  0  0
   -1.9372    1.4449    8.8590 C   0  0  0  0  0  0  0  0  0  0  0  0
   -2.7486    2.2431    9.6744 C   0  0  0  0  0  0  0  0  0  0  0  0
   -4.0762    1.9177    9.8672 C   0  0  0  0  0  0  0  0  0  0  0  0
   -4.6219    0.8008    9.2528 C   0  0  0  0  0  0  0  0  0  0  0  0
   -3.8331    0.0143    8.4261 C   0  0  0  0  0  0  0  0  0  0  0  0
   -2.5071    0.3335    8.2232 C   0  0  0  0  0  0  0  0  0  0  0  0
    1.5654    3.2941    8.0065 H   0  0  0  0  0  0  0  0  0  0  0  0
    3.0125    4.5376    9.5579 H   0  0  0  0  0  0  0  0  0  0  0  0
    2.5643    4.4808   11.9849 H   0  0  0  0  0  0  0  0  0  0  0  0
    0.6851    3.1409   12.8561 H   0  0  0  0  0  0  0  0  0  0  0  0
   -0.7464    1.8716   11.3192 H   0  0  0  0  0  0  0  0  0  0  0  0
   -4.6933    2.5437   10.4942 H   0  0  0  0  0  0  0  0  0  0  0  0
   -5.6598    0.5498    9.4094 H   0  0  0  0  0  0  0  0  0  0  0  0
   -4.2557   -0.8509    7.9382 H   0  0  0  0  0  0  0  0  0  0  0  0
   -1.8919   -0.2856    7.5850 H   0  0  0  0  0  0  0  0  0  0  0  0
   -2.3416    3.1368   10.1230 H   0  0  0  0  0  0  0  0  0  0  0  0
  1  5  1  0  0  0  0
  1  3  1  0  0  0  0
  1 11  1  0  0  0  0
  2  1  1  0  0  0  0
  3  4  1  0  0  0  0
  5  6  1  0  0  0  0
  7  1  1  0  0  0  0
  8  7  1  0  0  0  0
  9  1  1  0  0  0  0
 10  9  1  0  0  0  0
 11 12  1  0  0  0  0
 12 13  1  0  0  0  0
 13 20  1  0  0  0  0
 13 14  1  0  0  0  0
 14 19  1  0  0  0  0
 15 14  2  0  0  0  0
 15 16  1  0  0  0  0
 16 17  2  0  0  0  0
 17 18  1  0  0  0  0
 17 28  1  0  0  0  0
 18 29  1  0  0  0  0
 19 30  1  0  0  0  0
 19 18  2  0  0  0  0
 20 21  1  0  0  0  0
 21 22  2  0  0  0  0
 21 35  1  0  0  0  0
 22 31  1  0  0  0  0
 23 32  1  0  0  0  0
 23 22  1  0  0  0  0
 24 23  2  0  0  0  0
 25 24  1  0  0  0  0
 25 20  2  0  0  0  0
 26 15  1  0  0  0  0
 27 16  1  0  0  0  0
 33 24  1  0  0  0  0
 34 25  1  0  0  0  0
M  END
$$$$
