CSD_code = CUSBOI | q = 0 | S = 0 | Stoichiometry = C32H23Br2HgN5 | MND = 5
 OpenBabel04212202023D

 63 67  0  0  0  0  0  0  0  0999 V2000
   -3.2705    3.6979   10.7264 Hg  0  0  0  0  0  0  0  0  0  0  0  0
   -4.1962    2.3562    8.9202 Br  0  0  0  0  0  0  0  0  0  0  0  0
   -3.3398    4.5457   13.0393 Br  0  0  0  0  0  0  0  0  0  0  0  0
   -2.4844    6.7678    9.5930 C   0  0  0  0  0  0  0  0  0  0  0  0
   -1.1473    4.9885   10.4361 N   0  0  0  0  0  0  0  0  0  0  0  0
   -4.5907    6.2877    8.8244 C   0  0  0  0  0  0  0  0  0  0  0  0
   -5.4015    5.5708    8.7941 H   0  0  0  0  0  0  0  0  0  0  0  0
    5.6245   10.8161   16.5330 C   0  0  0  0  0  0  0  0  0  0  0  0
   -3.5245    5.9327    9.5237 N   0  0  0  0  0  0  0  0  0  0  0  0
    6.4028   10.3102   17.5794 C   0  0  0  0  0  0  0  0  0  0  0  0
    6.3164    9.2665   17.8457 H   0  0  0  0  0  0  0  0  0  0  0  0
   -1.1381    2.3297   10.9910 N   0  0  0  0  0  0  0  0  0  0  0  0
    6.6261   12.9830   16.9184 C   0  0  0  0  0  0  0  0  0  0  0  0
    6.7216   14.0249   16.6530 H   0  0  0  0  0  0  0  0  0  0  0  0
    9.4697   12.9194   19.2394 C   0  0  0  0  0  0  0  0  0  0  0  0
    9.8661   11.9287   19.1589 H   0  0  0  0  0  0  0  0  0  0  0  0
    8.1259   14.6109   18.9377 C   0  0  0  0  0  0  0  0  0  0  0  0
    7.2650   15.1750   18.6401 H   0  0  0  0  0  0  0  0  0  0  0  0
   -0.1242    4.4916   11.1281 C   0  0  0  0  0  0  0  0  0  0  0  0
   -1.3212    6.3071   10.3749 C   0  0  0  0  0  0  0  0  0  0  0  0
    8.2801   13.2848   18.6600 N   0  0  0  0  0  0  0  0  0  0  0  0
   -0.4758    7.1927   11.0325 C   0  0  0  0  0  0  0  0  0  0  0  0
   -0.6731    8.2526   11.0160 H   0  0  0  0  0  0  0  0  0  0  0  0
    2.7231    9.6265   12.7224 C   0  0  0  0  0  0  0  0  0  0  0  0
    3.0478   10.5599   12.2849 H   0  0  0  0  0  0  0  0  0  0  0  0
    4.0543   10.1885   14.7042 C   0  0  0  0  0  0  0  0  0  0  0  0
    4.1772   11.1520   14.2275 H   0  0  0  0  0  0  0  0  0  0  0  0
    0.5801    6.6910   11.7912 C   0  0  0  0  0  0  0  0  0  0  0  0
   -0.0048    3.0210   11.1392 C   0  0  0  0  0  0  0  0  0  0  0  0
    4.7281    9.9188   15.8327 C   0  0  0  0  0  0  0  0  0  0  0  0
    4.6396    8.9383   16.2817 H   0  0  0  0  0  0  0  0  0  0  0  0
    0.0893    0.2939   11.1283 C   0  0  0  0  0  0  0  0  0  0  0  0
    0.0777   -0.7840   11.1193 H   0  0  0  0  0  0  0  0  0  0  0  0
    1.2710    1.0012   11.2753 C   0  0  0  0  0  0  0  0  0  0  0  0
    2.2142    0.4856   11.3796 H   0  0  0  0  0  0  0  0  0  0  0  0
    7.2777   11.1126   18.2789 C   0  0  0  0  0  0  0  0  0  0  0  0
    7.8560   10.7010   19.0920 H   0  0  0  0  0  0  0  0  0  0  0  0
    9.1140   15.0865   19.6341 N   0  0  0  0  0  0  0  0  0  0  0  0
    1.8973    7.2338   13.8249 C   0  0  0  0  0  0  0  0  0  0  0  0
    1.5475    6.3148   14.2716 H   0  0  0  0  0  0  0  0  0  0  0  0
    9.9692   14.0448   19.8223 C   0  0  0  0  0  0  0  0  0  0  0  0
   10.8833   14.1733   20.3660 H   0  0  0  0  0  0  0  0  0  0  0  0
    0.7605    5.3090   11.8205 C   0  0  0  0  0  0  0  0  0  0  0  0
    1.5641    4.8817   12.3983 H   0  0  0  0  0  0  0  0  0  0  0  0
   -2.4917    7.9996    8.9434 C   0  0  0  0  0  0  0  0  0  0  0  0
   -1.6292    8.6455    8.9891 H   0  0  0  0  0  0  0  0  0  0  0  0
    1.4644    7.5825   12.5454 C   0  0  0  0  0  0  0  0  0  0  0  0
    1.2263    2.3846   11.2782 C   0  0  0  0  0  0  0  0  0  0  0  0
    2.1329    2.9625   11.3637 H   0  0  0  0  0  0  0  0  0  0  0  0
    3.1694    9.2807   14.0027 C   0  0  0  0  0  0  0  0  0  0  0  0
    7.4003   12.4614   17.9533 C   0  0  0  0  0  0  0  0  0  0  0  0
   -3.6099    8.3687    8.2159 C   0  0  0  0  0  0  0  0  0  0  0  0
   -3.6374    9.3175    7.7008 H   0  0  0  0  0  0  0  0  0  0  0  0
    1.8858    8.7979   12.0079 C   0  0  0  0  0  0  0  0  0  0  0  0
    1.5736    9.0804   11.0128 H   0  0  0  0  0  0  0  0  0  0  0  0
   -4.6850    7.4976    8.1546 C   0  0  0  0  0  0  0  0  0  0  0  0
   -5.5748    7.7427    7.5977 H   0  0  0  0  0  0  0  0  0  0  0  0
   -1.0905    1.0071   10.9839 C   0  0  0  0  0  0  0  0  0  0  0  0
   -2.0365    0.4968   10.8533 H   0  0  0  0  0  0  0  0  0  0  0  0
    2.7268    8.0682   14.5411 C   0  0  0  0  0  0  0  0  0  0  0  0
    3.0237    7.7801   15.5373 H   0  0  0  0  0  0  0  0  0  0  0  0
    5.7538   12.1735   16.2239 C   0  0  0  0  0  0  0  0  0  0  0  0
    5.1623   12.6056   15.4322 H   0  0  0  0  0  0  0  0  0  0  0  0
  1  3  1  0  0  0  0
  2  1  1  0  0  0  0
  4 20  1  0  0  0  0
  5 19  1  0  0  0  0
  6  9  2  0  0  0  0
  7  6  1  0  0  0  0
  8 10  1  0  0  0  0
  9  4  1  0  0  0  0
 10 11  1  0  0  0  0
 10 36  2  0  0  0  0
 12 29  1  0  0  0  0
 13 51  2  0  0  0  0
 14 13  1  0  0  0  0
 15 41  2  0  0  0  0
 16 15  1  0  0  0  0
 17 38  2  0  0  0  0
 18 17  1  0  0  0  0
 19 29  1  0  0  0  0
 19 43  2  0  0  0  0
 20  5  2  0  0  0  0
 20 22  1  0  0  0  0
 21 17  1  0  0  0  0
 21 15  1  0  0  0  0
 22 28  2  0  0  0  0
 23 22  1  0  0  0  0
 24 50  1  0  0  0  0
 25 24  1  0  0  0  0
 26 30  2  0  0  0  0
 27 26  1  0  0  0  0
 28 43  1  0  0  0  0
 28 47  1  0  0  0  0
 29 48  2  0  0  0  0
 30 31  1  0  0  0  0
 30  8  1  0  0  0  0
 32 34  2  0  0  0  0
 33 32  1  0  0  0  0
 34 48  1  0  0  0  0
 34 35  1  0  0  0  0
 36 37  1  0  0  0  0
 38 41  1  0  0  0  0
 39 40  1  0  0  0  0
 39 60  1  0  0  0  0
 41 42  1  0  0  0  0
 43 44  1  0  0  0  0
 45 46  1  0  0  0  0
 45  4  2  0  0  0  0
 47 39  2  0  0  0  0
 48 49  1  0  0  0  0
 50 60  2  0  0  0  0
 50 26  1  0  0  0  0
 51 36  1  0  0  0  0
 51 21  1  0  0  0  0
 52 45  1  0  0  0  0
 53 52  1  0  0  0  0
 54 47  1  0  0  0  0
 54 24  2  0  0  0  0
 55 54  1  0  0  0  0
 56 52  2  0  0  0  0
 56  6  1  0  0  0  0
 57 56  1  0  0  0  0
 58 12  2  0  0  0  0
 58 32  1  0  0  0  0
 59 58  1  0  0  0  0
 60 61  1  0  0  0  0
 62  8  2  0  0  0  0
 62 13  1  0  0  0  0
 63 62  1  0  0  0  0
M  END
$$$$
