CSD_code = CUSBIC | q = 0 | S = 0 | Stoichiometry = C12H9HgI2N9 | MND = 5
 OpenBabel04212202023D

 33 35  0  0  0  0  0  0  0  0999 V2000
    6.7241    6.9826    7.6801 Hg  0  0  0  0  0  0  0  0  0  0  0  0
    7.7846    9.3379    8.0341 I   0  0  0  0  0  0  0  0  0  0  0  0
    5.6316    4.8922    6.5707 I   0  0  0  0  0  0  0  0  0  0  0  0
    8.8400    5.6711    8.5485 N   0  0  0  0  0  0  0  0  0  0  0  0
    3.4608    7.4644   11.0617 C   0  0  0  0  0  0  0  0  0  0  0  0
    3.3262    7.2049   12.0907 H   0  0  0  0  0  0  0  0  0  0  0  0
    7.7724    5.1453   11.8889 N   0  0  0  0  0  4  0  0  0  0  0  0
    8.7923    5.2908    9.8370 N   0  0  0  0  0  0  0  0  0  0  0  0
    9.9280    4.6279   10.2013 C   0  0  0  0  0  0  0  0  0  0  0  0
   10.0409    4.2608   11.2005 H   0  0  0  0  0  0  0  0  0  0  0  0
    4.5747    7.5423    9.1270 N   0  0  0  0  0  0  0  0  0  0  0  0
    5.6996    5.2223   14.8370 C   0  0  0  0  0  0  0  0  0  0  0  0
    4.8003    5.7296   14.5585 H   0  0  0  0  0  0  0  0  0  0  0  0
    6.7049    5.4290   12.6222 C   0  0  0  0  0  0  0  0  0  0  0  0
   10.7261    4.5872    9.0970 C   0  0  0  0  0  0  0  0  0  0  0  0
   11.6968    4.1474    9.0016 H   0  0  0  0  0  0  0  0  0  0  0  0
    3.4228    8.1424    8.9672 C   0  0  0  0  0  0  0  0  0  0  0  0
    3.1550    8.5686    8.0196 H   0  0  0  0  0  0  0  0  0  0  0  0
    5.6261    6.0790   12.1841 N   0  0  0  0  0  0  0  0  0  0  0  0
    7.7441    4.3740   14.4688 N   0  0  0  0  0  0  0  0  0  0  0  0
    2.6733    8.1227   10.1649 C   0  0  0  0  0  0  0  0  0  0  0  0
    1.6998    8.5377   10.3225 H   0  0  0  0  0  0  0  0  0  0  0  0
    4.6065    7.1248   10.4039 N   0  0  0  0  0  0  0  0  0  0  0  0
    6.7053    5.0285   13.9235 N   0  0  0  0  0  0  0  0  0  0  0  0
    6.1237    4.6670   16.0038 C   0  0  0  0  0  0  0  0  0  0  0  0
    5.6073    4.6234   16.9399 H   0  0  0  0  0  0  0  0  0  0  0  0
    5.6809    6.4490   10.9162 C   0  0  0  0  0  0  0  0  0  0  0  0
    9.9940    5.2564    8.0902 C   0  0  0  0  0  0  0  0  0  0  0  0
   10.2749    5.4395    7.0708 H   0  0  0  0  0  0  0  0  0  0  0  0
    6.6979    6.2178   10.0952 N   0  0  0  0  0  2  0  0  0  0  0  0
    7.7177    5.5596   10.6368 C   0  0  0  0  0  0  0  0  0  0  0  0
    7.4140    4.1509   15.7095 C   0  0  0  0  0  0  0  0  0  0  0  0
    8.0855    3.6358   16.3672 H   0  0  0  0  0  0  0  0  0  0  0  0
  1  2  1  0  0  0  0
  3  1  1  0  0  0  0
  4  8  1  0  0  0  0
  5  6  1  0  0  0  0
  7 14  2  0  0  0  0
  8  9  1  0  0  0  0
  8 31  1  0  0  0  0
  9 10  1  0  0  0  0
 11 23  1  0  0  0  0
 12 25  2  0  0  0  0
 13 12  1  0  0  0  0
 14 24  1  0  0  0  0
 15  9  2  0  0  0  0
 16 15  1  0  0  0  0
 17 11  2  0  0  0  0
 17 21  1  0  0  0  0
 18 17  1  0  0  0  0
 19 14  1  0  0  0  0
 20 32  2  0  0  0  0
 21 22  1  0  0  0  0
 21  5  2  0  0  0  0
 23 27  1  0  0  0  0
 23  5  1  0  0  0  0
 24 20  1  0  0  0  0
 24 12  1  0  0  0  0
 25 26  1  0  0  0  0
 27 19  2  0  0  0  0
 28  4  2  0  0  0  0
 28 15  1  0  0  0  0
 29 28  1  0  0  0  0
 30 31  1  0  0  0  0
 30 27  1  0  0  0  0
 31  7  2  0  0  0  0
 32 25  1  0  0  0  0
 32 33  1  0  0  0  0
M  END
$$$$
