CSD_code = CUVGAC | q = 1 | S = 0 | Stoichiometry = C20H18ClN4NiO(1+) | MND = 6
 OpenBabel04212202023D

 45 49  0  0  1  0  0  0  0  0999 V2000
    0.8063   15.0426    2.4149 Ni  0  0  0  0  0  0  0  0  0  0  0  0
    2.9366   13.2377    2.6075 C   0  0  0  0  0  3  0  0  0  0  0  0
    3.4559   14.1351    2.9199 H   0  0  0  0  0  0  0  0  0  0  0  0
    3.5995   12.0250    2.5274 C   0  0  0  0  0  0  0  0  0  0  0  0
    4.6471   11.9665    2.7728 H   0  0  0  0  0  0  0  0  0  0  0  0
    2.8886   10.9048    2.1259 C   0  0  0  0  0  0  0  0  0  0  0  0
    3.3681    9.9410    2.0555 H   0  0  0  0  0  0  0  0  0  0  0  0
    1.5488   11.0456    1.8133 C   0  0  0  0  0  0  0  0  0  0  0  0
    0.9676   10.1884    1.5164 H   0  0  0  0  0  0  0  0  0  0  0  0
    0.9483   12.3006    1.8946 C   0  0  0  0  0  0  0  0  0  0  0  0
   -0.4674   12.5179    1.5449 C   0  0  2  0  0  3  0  0  0  0  0  0
   -1.1793   11.6565    0.7142 C   0  0  0  0  0  0  0  0  0  0  0  0
   -0.7064   10.7946    0.2731 H   0  0  0  0  0  0  0  0  0  0  0  0
   -2.5029   11.9466    0.4268 C   0  0  0  0  0  0  0  0  0  0  0  0
   -3.0737   11.2997   -0.2214 H   0  0  0  0  0  0  0  0  0  0  0  0
   -3.0761   13.0805    0.9786 C   0  0  0  0  0  0  0  0  0  0  0  0
   -4.1043   13.3382    0.7836 H   0  0  0  0  0  0  0  0  0  0  0  0
   -2.2889   13.8901    1.7836 C   0  0  0  0  0  0  0  0  0  0  0  0
   -2.6953   14.7890    2.2302 H   0  0  0  0  0  0  0  0  0  0  0  0
    0.9922   14.1203    5.2691 C   0  0  0  0  0  3  0  0  0  0  0  0
    1.6336   13.3308    4.9023 H   0  0  0  0  0  0  0  0  0  0  0  0
    0.6819   14.1853    6.6180 C   0  0  0  0  0  0  0  0  0  0  0  0
    1.0766   13.4499    7.2996 H   0  0  0  0  0  0  0  0  0  0  0  0
   -0.1376   15.2106    7.0611 C   0  0  0  0  0  0  0  0  0  0  0  0
   -0.4030   15.2963    8.1032 H   0  0  0  0  0  0  0  0  0  0  0  0
   -0.6076   16.1292    6.1395 C   0  0  0  0  0  0  0  0  0  0  0  0
   -1.2404   16.9380    6.4646 H   0  0  0  0  0  0  0  0  0  0  0  0
   -0.2494   15.9983    4.7993 C   0  0  0  0  0  0  0  0  0  0  0  0
   -0.6786   16.9266    3.7462 C   0  0  1  0  0  3  0  0  0  0  0  0
   -1.5363   18.0002    3.9721 C   0  0  0  0  0  0  0  0  0  0  0  0
   -1.9389   18.1814    4.9546 H   0  0  0  0  0  0  0  0  0  0  0  0
   -1.8766   18.8375    2.9235 C   0  0  0  0  0  0  0  0  0  0  0  0
   -2.5411   19.6721    3.0841 H   0  0  0  0  0  0  0  0  0  0  0  0
   -1.3434   18.5797    1.6722 C   0  0  0  0  0  0  0  0  0  0  0  0
   -1.5709   19.2053    0.8249 H   0  0  0  0  0  0  0  0  0  0  0  0
   -0.5019   17.4891    1.5170 C   0  0  0  0  0  0  0  0  0  0  0  0
   -0.0717   17.2576    0.5506 H   0  0  0  0  0  0  0  0  0  0  0  0
    1.6496   13.3708    2.3031 N   0  0  0  0  0  0  0  0  0  0  0  0
   -1.0219   13.6260    2.0581 N   0  0  0  0  0  0  0  0  0  0  0  0
    0.5425   14.9956    4.3812 N   0  0  0  0  0  0  0  0  0  0  0  0
   -0.1775   16.6791    2.5189 N   0  0  0  0  0  0  0  0  0  0  0  0
    2.8997   16.3246    2.6914 O   0  0  0  0  0  0  0  0  0  0  0  0
    3.1062   16.3190    1.7452 H   0  0  0  0  0  0  0  0  0  0  0  0
    2.8207   17.2466    2.9503 H   0  0  0  0  0  0  0  0  0  0  0  0
    1.2132   15.2032    0.3433 Cl  0  0  0  0  0  0  0  0  0  0  0  0
  1 41  1  0  0  0  0
  1 40  1  0  0  0  0
  2  3  1  0  0  0  0
  4  2  1  0  0  0  0
  4  5  1  0  0  0  0
  6  4  2  0  0  0  0
  7  6  1  0  0  0  0
  8 10  2  0  0  0  0
  8  6  1  0  0  0  0
  9  8  1  0  0  0  0
 10 38  1  0  0  0  0
 11 12  1  6  0  0  0
 11 10  1  0  0  0  0
 11 39  1  0  0  0  0
 13 12  1  0  0  0  0
 14 12  2  0  0  0  0
 14 16  1  0  0  0  0
 15 14  1  0  0  0  0
 16 18  2  0  0  0  0
 17 16  1  0  0  0  0
 18 39  1  0  0  0  0
 18 19  1  0  0  0  0
 20 22  1  0  0  0  0
 21 20  1  0  0  0  0
 22 24  2  0  0  0  0
 22 23  1  0  0  0  0
 24 25  1  0  0  0  0
 26 27  1  0  0  0  0
 26 24  1  0  0  0  0
 28 26  2  0  0  0  0
 29 30  1  1  0  0  0
 29 28  1  0  0  0  0
 30 31  1  0  0  0  0
 32 33  1  0  0  0  0
 32 30  2  0  0  0  0
 34 32  1  0  0  0  0
 35 34  1  0  0  0  0
 36 34  2  0  0  0  0
 36 41  1  0  0  0  0
 37 36  1  0  0  0  0
 38  1  1  0  0  0  0
 38  2  1  0  0  0  0
 39  1  1  0  0  0  0
 40 28  1  0  0  0  0
 40 20  1  0  0  0  0
 41 29  1  0  0  0  0
 42 44  1  0  0  0  0
 43 42  1  0  0  0  0
 45  1  1  0  0  0  0
M  END
$$$$
