CSD_code = CUWLIQ | q = 0 | S = 0 | Stoichiometry = C22H13AuClPS3 | MND = 2
 OpenBabel04212202023D

 41 46  0  0  0  0  0  0  0  0999 V2000
   -6.8002   -3.1166    9.1819 C   0  0  0  0  0  0  0  0  0  0  0  0
   -7.6760   -2.4816    9.1697 H   0  0  0  0  0  0  0  0  0  0  0  0
   -5.8576   -3.0555    8.1795 C   0  0  0  0  0  0  0  0  0  0  0  0
   -5.9894   -2.3621    7.3635 H   0  0  0  0  0  0  0  0  0  0  0  0
   -4.7351   -3.8818    8.2038 C   0  0  0  0  0  0  0  0  0  0  0  0
   -4.0100   -3.8174    7.4072 H   0  0  0  0  0  0  0  0  0  0  0  0
   -4.5378   -4.7848    9.2300 C   0  0  0  0  0  0  0  0  0  0  0  0
   -3.6724   -5.4279    9.2529 H   0  0  0  0  0  0  0  0  0  0  0  0
   -5.4890   -4.8492   10.2351 C   0  0  0  0  0  0  0  0  0  0  0  0
   -6.6247   -4.0236   10.2253 C   0  0  0  0  0  0  0  0  0  0  0  0
   -7.4830   -4.2520   11.3540 C   0  0  0  0  0  0  0  0  0  0  0  0
   -7.0012   -5.2334   12.1703 C   0  0  0  0  0  0  0  0  0  0  0  0
   -9.1053   -4.9619   13.8407 C   0  0  0  0  0  0  0  0  0  0  0  0
   -9.6344   -3.9736   13.0629 C   0  0  0  0  0  0  0  0  0  0  0  0
  -10.8694   -3.4726   13.5983 C   0  0  0  0  0  0  0  0  0  0  0  0
  -11.2326   -4.1039   14.7986 C   0  0  0  0  0  0  0  0  0  0  0  0
  -12.3934   -3.7634   15.4738 C   0  0  0  0  0  0  0  0  0  0  0  0
  -12.6575   -4.2599   16.3940 H   0  0  0  0  0  0  0  0  0  0  0  0
  -13.1968   -2.7795   14.9319 C   0  0  0  0  0  0  0  0  0  0  0  0
  -14.1083   -2.5007   15.4377 H   0  0  0  0  0  0  0  0  0  0  0  0
  -12.8502   -2.1437   13.7407 C   0  0  0  0  0  0  0  0  0  0  0  0
  -13.4984   -1.3813   13.3372 H   0  0  0  0  0  0  0  0  0  0  0  0
  -11.6934   -2.4792   13.0726 C   0  0  0  0  0  0  0  0  0  0  0  0
  -11.4176   -1.9932   12.1461 H   0  0  0  0  0  0  0  0  0  0  0  0
   -8.5022   -1.6718   11.8821 C   0  0  0  0  0  0  0  0  0  0  0  0
   -7.6488   -1.4411   12.9567 C   0  0  0  0  0  0  0  0  0  0  0  0
   -7.3057   -2.2735   13.5573 H   0  0  0  0  0  0  0  0  0  0  0  0
   -7.2488   -0.1510   13.2462 C   0  0  0  0  0  0  0  0  0  0  0  0
   -6.5874    0.0332   14.0796 H   0  0  0  0  0  0  0  0  0  0  0  0
   -7.6963    0.9057   12.4675 C   0  0  0  0  0  0  0  0  0  0  0  0
   -7.3804    1.9123   12.6968 H   0  0  0  0  0  0  0  0  0  0  0  0
   -8.5460    0.6762   11.3977 C   0  0  0  0  0  0  0  0  0  0  0  0
   -8.8928    1.5008   10.7934 H   0  0  0  0  0  0  0  0  0  0  0  0
   -8.9515   -0.6130   11.1031 C   0  0  0  0  0  0  0  0  0  0  0  0
   -9.6175   -0.8093   10.2708 H   0  0  0  0  0  0  0  0  0  0  0  0
  -10.0593   -5.3119   15.2613 S   0  0  0  0  0  0  0  0  0  0  0  0
   -5.4827   -5.9039   11.6269 S   0  0  0  0  0  0  0  0  0  0  0  0
   -7.6509   -5.9029   13.6431 S   0  0  0  0  0  0  0  0  0  0  0  0
   -9.0335   -3.3647   11.4891 P   0  0  0  0  0  4  0  0  0  0  0  0
  -10.4343   -3.5689    9.7577 Au  0  0  0  0  0  0  0  0  0  0  0  0
  -11.8455   -3.6729    7.9968 Cl  0  0  0  0  0  0  0  0  0  0  0  0
  1 10  1  0  0  0  0
  2  1  1  0  0  0  0
  3  5  1  0  0  0  0
  3  1  2  0  0  0  0
  4  3  1  0  0  0  0
  5  7  2  0  0  0  0
  6  5  1  0  0  0  0
  7  8  1  0  0  0  0
  7  9  1  0  0  0  0
  9 37  1  0  0  0  0
 10  9  2  0  0  0  0
 10 11  1  0  0  0  0
 11 39  1  0  0  0  0
 11 12  2  0  0  0  0
 12 38  1  0  0  0  0
 13 36  1  0  0  0  0
 14 15  1  0  0  0  0
 14 13  2  0  0  0  0
 15 16  1  0  0  0  0
 16 36  1  0  0  0  0
 16 17  2  0  0  0  0
 17 18  1  0  0  0  0
 19 20  1  0  0  0  0
 19 17  1  0  0  0  0
 21 19  2  0  0  0  0
 22 21  1  0  0  0  0
 23 15  2  0  0  0  0
 23 21  1  0  0  0  0
 24 23  1  0  0  0  0
 25 26  1  0  0  0  0
 26 28  2  0  0  0  0
 26 27  1  0  0  0  0
 28 29  1  0  0  0  0
 30 31  1  0  0  0  0
 30 28  1  0  0  0  0
 32 30  2  0  0  0  0
 33 32  1  0  0  0  0
 34 32  1  0  0  0  0
 34 25  2  0  0  0  0
 35 34  1  0  0  0  0
 37 12  1  0  0  0  0
 38 13  1  0  0  0  0
 39 25  1  0  0  0  0
 39 14  1  0  0  0  0
 40 39  1  0  0  0  0
 41 40  1  0  0  0  0
M  END
$$$$
