CSD_code = CUXMOZ | q = 0 | S = 0 | Stoichiometry = C12H17BrCl2O2PdS2 | MND = 4
 OpenBabel04212202023D

 37 37  0  0  1  0  0  0  0  0999 V2000
    8.8605    6.8969   14.6078 Pd  0  0  0  0  0  0  0  0  0  0  0  0
   10.6914    6.4596   10.1105 Br  0  0  0  0  0  0  0  0  0  0  0  0
    7.1679    5.6443   15.4066 Cl  0  0  0  0  0  0  0  0  0  0  0  0
    7.5741    8.2377   13.2763 Cl  0  0  0  0  0  0  0  0  0  0  0  0
    9.5646    5.2929   17.2747 S   0  0  0  0  0  3  0  0  0  0  0  0
   10.4140    8.4458   14.2510 S   0  0  0  0  0  0  0  0  0  0  0  0
    9.6513    3.2358   15.6098 O   0  0  0  0  0  0  0  0  0  0  0  0
   11.6577    8.1616   14.9801 O   0  0  0  0  0  1  0  0  0  0  0  0
   10.0973    5.5385   15.5781 C   0  0  1  0  0  0  0  0  0  0  0  0
   11.1298    5.8929   15.5317 H   0  0  0  0  0  0  0  0  0  0  0  0
    9.8272    4.2353   14.9329 C   0  0  0  0  0  0  0  0  0  0  0  0
    9.5899    4.2632   13.4575 C   0  0  0  0  0  0  0  0  0  0  0  0
   10.2005    5.2049   12.6168 C   0  0  0  0  0  0  0  0  0  0  0  0
   11.0121    5.8341   12.9735 H   0  0  0  0  0  0  0  0  0  0  0  0
    9.8257    5.2399   11.2845 C   0  0  0  0  0  0  0  0  0  0  0  0
    8.8547    4.3921   10.7725 C   0  0  0  0  0  0  0  0  0  0  0  0
    8.5671    4.4633    9.7346 H   0  0  0  0  0  0  0  0  0  0  0  0
    8.2699    3.4585   11.6087 C   0  0  0  0  0  0  0  0  0  0  0  0
    7.5168    2.7912   11.2193 H   0  0  0  0  0  0  0  0  0  0  0  0
    8.6408    3.3845   12.9405 C   0  0  0  0  0  0  0  0  0  0  0  0
    8.1831    2.6721   13.6096 H   0  0  0  0  0  0  0  0  0  0  0  0
    9.3671    7.0398   17.7324 C   0  0  0  0  0  0  0  0  0  0  0  0
   10.2363    7.6020   17.3924 H   0  0  0  0  0  0  0  0  0  0  0  0
    9.2544    7.1139   18.8098 H   0  0  0  0  0  0  0  0  0  0  0  0
    8.4500    7.3865   17.2374 H   0  0  0  0  0  0  0  0  0  0  0  0
   11.1478    4.9893   18.1272 C   0  0  0  0  0  0  0  0  0  0  0  0
   11.4807    4.0017   17.8246 H   0  0  0  0  0  0  0  0  0  0  0  0
   10.9791    5.0037   19.1984 H   0  0  0  0  0  0  0  0  0  0  0  0
   11.8764    5.7409   17.8422 H   0  0  0  0  0  0  0  0  0  0  0  0
   10.8639    9.1524   12.6413 C   0  0  0  0  0  0  0  0  0  0  0  0
   11.5410    8.4709   12.1390 H   0  0  0  0  0  0  0  0  0  0  0  0
   11.3478   10.1083   12.8006 H   0  0  0  0  0  0  0  0  0  0  0  0
    9.9417    9.2582   12.0806 H   0  0  0  0  0  0  0  0  0  0  0  0
    9.7277    9.9605   14.9900 C   0  0  0  0  0  0  0  0  0  0  0  0
    8.9634   10.3304   14.3155 H   0  0  0  0  0  0  0  0  0  0  0  0
   10.5310   10.6761   15.1283 H   0  0  0  0  0  0  0  0  0  0  0  0
    9.2790    9.7002   15.9479 H   0  0  0  0  0  0  0  0  0  0  0  0
  1  3  1  0  0  0  0
  1  9  1  0  0  0  0
  2 15  1  0  0  0  0
  4  1  1  0  0  0  0
  5 22  1  0  0  0  0
  5 26  1  0  0  0  0
  6  1  1  0  0  0  0
  6  8  1  0  0  0  0
  6 34  1  0  0  0  0
  9 10  1  6  0  0  0
  9  5  1  0  0  0  0
 11  9  1  0  0  0  0
 11  7  2  0  0  0  0
 12 11  1  0  0  0  0
 13 14  1  0  0  0  0
 13 12  2  0  0  0  0
 15 13  1  0  0  0  0
 16 15  2  0  0  0  0
 16 18  1  0  0  0  0
 17 16  1  0  0  0  0
 18 20  2  0  0  0  0
 19 18  1  0  0  0  0
 20 12  1  0  0  0  0
 20 21  1  0  0  0  0
 22 24  1  0  0  0  0
 23 22  1  0  0  0  0
 25 22  1  0  0  0  0
 26 28  1  0  0  0  0
 27 26  1  0  0  0  0
 29 26  1  0  0  0  0
 30 32  1  0  0  0  0
 30  6  1  0  0  0  0
 31 30  1  0  0  0  0
 33 30  1  0  0  0  0
 34 36  1  0  0  0  0
 34 37  1  0  0  0  0
 35 34  1  0  0  0  0
M  END
$$$$
