CSD_code = CUXMIT | q = 0 | S = 0 | Stoichiometry = C20H22Cl2N2O6PdS2 | MND = 4
 OpenBabel04212202023D

 55 56  0  0  1  0  0  0  0  0999 V2000
    2.1458    3.2539    5.5241 Pd  0  0  0  0  0  0  0  0  0  0  0  0
    3.9948    4.5831    5.1467 Cl  0  0  0  0  0  0  0  0  0  0  0  0
    1.0434    5.9825    6.2879 S   0  0  0  0  0  3  0  0  0  0  0  0
    3.1475    5.9140    7.9495 O   0  0  0  0  0  0  0  0  0  0  0  0
    5.9134   -0.6021    8.4678 O   0  0  0  0  0  0  0  0  0  0  0  0
    7.1191    0.5745    9.8090 O   0  0  0  0  0  0  0  0  0  0  0  0
    6.1558    0.4124    9.0953 N   0  0  0  0  0  0  0  0  0  0  0  0
    1.5204    4.4734    7.1016 C   0  0  2  0  0  0  0  0  0  0  0  0
    0.6947    4.0047    7.6387 H   0  0  0  0  0  0  0  0  0  0  0  0
    2.7426    4.7625    7.8373 C   0  0  0  0  0  0  0  0  0  0  0  0
    3.5422    3.5956    8.3290 C   0  0  0  0  0  0  0  0  0  0  0  0
    4.8351    3.8496    8.7850 C   0  0  0  0  0  0  0  0  0  0  0  0
    5.1612    4.8766    8.8476 H   0  0  0  0  0  0  0  0  0  0  0  0
    5.6889    2.8084    9.0910 C   0  0  0  0  0  0  0  0  0  0  0  0
    6.7045    2.9838    9.4115 H   0  0  0  0  0  0  0  0  0  0  0  0
    5.2375    1.5051    8.9297 C   0  0  0  0  0  0  0  0  0  0  0  0
    3.9278    1.2326    8.5424 C   0  0  0  0  0  0  0  0  0  0  0  0
    3.5996    0.2068    8.4658 H   0  0  0  0  0  0  0  0  0  0  0  0
    3.0743    2.2764    8.2439 C   0  0  0  0  0  0  0  0  0  0  0  0
    2.0505    2.0511    7.9572 H   0  0  0  0  0  0  0  0  0  0  0  0
   -0.5466    5.4246    5.6184 C   0  0  0  0  0  0  0  0  0  0  0  0
   -1.2576    5.2815    6.4256 H   0  0  0  0  0  0  0  0  0  0  0  0
   -0.3692    4.4717    5.1137 H   0  0  0  0  0  0  0  0  0  0  0  0
   -0.9103    6.1716    4.9192 H   0  0  0  0  0  0  0  0  0  0  0  0
    0.3864    7.0684    7.6006 C   0  0  0  0  0  0  0  0  0  0  0  0
   -0.1656    7.8736    7.1286 H   0  0  0  0  0  0  0  0  0  0  0  0
    1.2428    7.4618    8.1377 H   0  0  0  0  0  0  0  0  0  0  0  0
   -0.2512    6.4973    8.2667 H   0  0  0  0  0  0  0  0  0  0  0  0
    0.2969    1.9256    5.9011 Cl  0  0  0  0  0  0  0  0  0  0  0  0
    3.2485    0.5273    4.7636 S   0  0  0  0  0  3  0  0  0  0  0  0
    1.1462    0.5928    3.0979 O   0  0  0  0  0  0  0  0  0  0  0  0
   -1.6284    7.1040    2.5956 O   0  0  0  0  0  0  0  0  0  0  0  0
   -2.8316    5.9319    1.2481 O   0  0  0  0  0  0  0  0  0  0  0  0
   -1.8689    6.0922    1.9631 N   0  0  0  0  0  0  0  0  0  0  0  0
    2.7720    2.0347    3.9468 C   0  0  1  0  0  0  0  0  0  0  0  0
    3.5979    2.5027    3.4093 H   0  0  0  0  0  0  0  0  0  0  0  0
    1.5502    1.7445    3.2104 C   0  0  0  0  0  0  0  0  0  0  0  0
    0.7498    2.9109    2.7189 C   0  0  0  0  0  0  0  0  0  0  0  0
   -0.5430    2.6562    2.2632 C   0  0  0  0  0  0  0  0  0  0  0  0
   -0.8679    1.6289    2.1990 H   0  0  0  0  0  0  0  0  0  0  0  0
   -1.3984    3.6969    1.9599 C   0  0  0  0  0  0  0  0  0  0  0  0
   -2.4140    3.5209    1.6399 H   0  0  0  0  0  0  0  0  0  0  0  0
   -0.9486    5.0004    2.1238 C   0  0  0  0  0  0  0  0  0  0  0  0
    0.3613    5.2738    2.5100 C   0  0  0  0  0  0  0  0  0  0  0  0
    0.6883    6.2998    2.5882 H   0  0  0  0  0  0  0  0  0  0  0  0
    1.2164    4.2305    2.8055 C   0  0  0  0  0  0  0  0  0  0  0  0
    2.2404    4.4565    3.0912 H   0  0  0  0  0  0  0  0  0  0  0  0
    4.8382    1.0866    5.4329 C   0  0  0  0  0  0  0  0  0  0  0  0
    5.5491    1.2301    4.6257 H   0  0  0  0  0  0  0  0  0  0  0  0
    4.6602    2.0394    5.9375 H   0  0  0  0  0  0  0  0  0  0  0  0
    5.2022    0.3399    6.1322 H   0  0  0  0  0  0  0  0  0  0  0  0
    3.9067   -0.5616    3.4539 C   0  0  0  0  0  0  0  0  0  0  0  0
    4.4573   -1.3663    3.9283 H   0  0  0  0  0  0  0  0  0  0  0  0
    3.0507   -0.9554    2.9165 H   0  0  0  0  0  0  0  0  0  0  0  0
    4.5457    0.0076    2.7875 H   0  0  0  0  0  0  0  0  0  0  0  0
  1 29  1  0  0  0  0
  1  8  1  0  0  0  0
  2  1  1  0  0  0  0
  3  8  1  0  0  0  0
  3 25  1  0  0  0  0
  5  7  2  0  0  0  0
  7  6  2  0  0  0  0
  8  9  1  1  0  0  0
  8 10  1  0  0  0  0
 10  4  2  0  0  0  0
 10 11  1  0  0  0  0
 11 12  1  0  0  0  0
 12 13  1  0  0  0  0
 12 14  2  0  0  0  0
 14 15  1  0  0  0  0
 16 14  1  0  0  0  0
 16  7  1  0  0  0  0
 17 16  2  0  0  0  0
 18 17  1  0  0  0  0
 19 11  2  0  0  0  0
 19 17  1  0  0  0  0
 20 19  1  0  0  0  0
 21  3  1  0  0  0  0
 21 22  1  0  0  0  0
 23 21  1  0  0  0  0
 24 21  1  0  0  0  0
 25 27  1  0  0  0  0
 25 28  1  0  0  0  0
 26 25  1  0  0  0  0
 30 48  1  0  0  0  0
 31 37  2  0  0  0  0
 33 34  2  0  0  0  0
 34 43  1  0  0  0  0
 34 32  2  0  0  0  0
 35 36  1  6  0  0  0
 35 30  1  0  0  0  0
 35  1  1  0  0  0  0
 37 35  1  0  0  0  0
 38 46  1  0  0  0  0
 38 37  1  0  0  0  0
 39 38  2  0  0  0  0
 40 39  1  0  0  0  0
 41 43  2  0  0  0  0
 41 39  1  0  0  0  0
 42 41  1  0  0  0  0
 43 44  1  0  0  0  0
 44 45  1  0  0  0  0
 44 46  2  0  0  0  0
 46 47  1  0  0  0  0
 48 50  1  0  0  0  0
 48 51  1  0  0  0  0
 49 48  1  0  0  0  0
 52 53  1  0  0  0  0
 52 30  1  0  0  0  0
 54 52  1  0  0  0  0
 55 52  1  0  0  0  0
M  END
$$$$
