CSD_code = CUYFUX | q = 0 | S = 0 | Stoichiometry = C20H31ClOZr | MND = 12
 OpenBabel04212202023D

 54 54  0  0  1  0  0  0  0  0999 V2000
    2.7531    0.9832    3.5159 Zr  0  0  0  0  0  0  0  0  0  0  0  0
    3.3544   -1.3128    3.7298 Cl  0  0  0  0  0  0  0  0  0  0  0  0
    4.6014    1.3928    3.3446 O   0  0  0  0  0  0  0  0  0  0  0  0
    1.9582    0.4683    5.8174 C   0  0  0  0  0  0  0  0  0  0  0  0
    3.1913    1.1758    5.8777 C   0  0  2  0  0  0  0  0  0  0  0  0
    2.9522    2.5062    5.4267 C   0  0  0  0  0  0  0  0  0  0  0  0
    1.5729    2.6217    5.0922 C   0  0  0  0  0  0  0  0  0  0  0  0
    0.9623    1.3557    5.3301 C   0  0  0  0  0  0  0  0  0  0  0  0
    1.8972    2.3932    1.6420 C   0  0  0  0  0  0  0  0  0  0  0  0
    2.9653    1.6351    1.0953 C   0  0  0  0  0  0  0  0  0  0  0  0
    2.6083    0.2642    1.1478 C   0  0  0  0  0  0  0  0  0  0  0  0
    1.2998    0.1703    1.7062 C   0  0  0  0  0  0  0  0  0  0  0  0
    0.8444    1.4912    1.9914 C   0  0  2  0  0  3  0  0  0  0  0  0
    1.6754   -0.9044    6.3619 C   0  0  0  0  0  0  0  0  0  0  0  0
    4.5070    0.6422    6.3776 C   0  0  0  0  0  0  0  0  0  0  0  0
    3.9816    3.6056    5.4036 C   0  0  0  0  0  0  0  0  0  0  0  0
    0.8514    3.9335    4.9310 C   0  0  0  0  0  0  0  0  0  0  0  0
   -0.5090    1.0470    5.4088 C   0  0  0  0  0  0  0  0  0  0  0  0
    1.8436    3.8968    1.6141 C   0  0  0  0  0  0  0  0  0  0  0  0
    4.2204    2.2071    0.4965 C   0  0  0  0  0  0  0  0  0  0  0  0
    3.4285   -0.8650    0.5860 C   0  0  0  0  0  0  0  0  0  0  0  0
    0.4995   -1.0999    1.8308 C   0  0  0  0  0  0  0  0  0  0  0  0
   -0.6019    1.8787    2.1561 C   0  0  0  0  0  0  0  0  0  0  0  0
    5.1194    0.5804    3.2671 H   0  0  0  0  0  0  0  0  0  0  0  0
    1.0468   -1.4804    5.6800 H   0  0  0  0  0  0  0  0  0  0  0  0
    2.5965   -1.4596    6.5237 H   0  0  0  0  0  0  0  0  0  0  0  0
    1.1511   -0.8256    7.3181 H   0  0  0  0  0  0  0  0  0  0  0  0
    4.5784    0.7454    7.4633 H   0  0  0  0  0  0  0  0  0  0  0  0
    4.6155   -0.4154    6.1286 H   0  0  0  0  0  0  0  0  0  0  0  0
    5.3335    1.1924    5.9257 H   0  0  0  0  0  0  0  0  0  0  0  0
    3.5367    4.5501    5.0956 H   0  0  0  0  0  0  0  0  0  0  0  0
    4.7917    3.3560    4.7108 H   0  0  0  0  0  0  0  0  0  0  0  0
    4.4127    3.7426    6.3972 H   0  0  0  0  0  0  0  0  0  0  0  0
    0.6992    4.3852    5.9152 H   0  0  0  0  0  0  0  0  0  0  0  0
   -0.1298    3.8048    4.4803 H   0  0  0  0  0  0  0  0  0  0  0  0
    1.4195    4.6400    4.3291 H   0  0  0  0  0  0  0  0  0  0  0  0
   -0.7559    0.1213    4.8847 H   0  0  0  0  0  0  0  0  0  0  0  0
   -1.1133    1.8537    5.0029 H   0  0  0  0  0  0  0  0  0  0  0  0
   -0.7974    0.9123    6.4543 H   0  0  0  0  0  0  0  0  0  0  0  0
    0.9097    4.2673    2.0290 H   0  0  0  0  0  0  0  0  0  0  0  0
    1.9109    4.2546    0.5838 H   0  0  0  0  0  0  0  0  0  0  0  0
    2.6806    4.3295    2.1689 H   0  0  0  0  0  0  0  0  0  0  0  0
    4.6611    1.5015   -0.2052 H   0  0  0  0  0  0  0  0  0  0  0  0
    4.9573    2.4296    1.2743 H   0  0  0  0  0  0  0  0  0  0  0  0
    3.9985    3.1310   -0.0377 H   0  0  0  0  0  0  0  0  0  0  0  0
    3.3634   -0.8721   -0.5052 H   0  0  0  0  0  0  0  0  0  0  0  0
    4.4794   -0.7613    0.8646 H   0  0  0  0  0  0  0  0  0  0  0  0
    3.0722   -1.8254    0.9529 H   0  0  0  0  0  0  0  0  0  0  0  0
   -0.3741   -0.9553    2.4666 H   0  0  0  0  0  0  0  0  0  0  0  0
    0.1476   -1.4295    0.8504 H   0  0  0  0  0  0  0  0  0  0  0  0
    1.1055   -1.9026    2.2571 H   0  0  0  0  0  0  0  0  0  0  0  0
   -1.0471    2.0225    1.1673 H   0  0  0  0  0  0  0  0  0  0  0  0
   -1.1755    1.1050    2.6609 H   0  0  0  0  0  0  0  0  0  0  0  0
   -0.7188    2.8119    2.7024 H   0  0  0  0  0  0  0  0  0  0  0  0
  1  2  1  0  0  0  0
  3  1  1  0  0  0  0
  4  5  1  0  0  0  0
  4 14  1  0  0  0  0
  5  1  1  6  0  0  0
  5 15  1  0  0  0  0
  6  5  1  0  0  0  0
  7  8  1  0  0  0  0
  7  6  2  0  0  0  0
  8 18  1  0  0  0  0
  8  4  2  0  0  0  0
  9 13  1  0  0  0  0
 10 11  1  0  0  0  0
 10  9  2  0  0  0  0
 11 12  2  0  0  0  0
 12 22  1  0  0  0  0
 12 13  1  0  0  0  0
 13 23  1  6  0  0  0
 14 26  1  0  0  0  0
 14 27  1  0  0  0  0
 15 28  1  0  0  0  0
 16  6  1  0  0  0  0
 16 33  1  0  0  0  0
 17  7  1  0  0  0  0
 17 34  1  0  0  0  0
 18 39  1  0  0  0  0
 19  9  1  0  0  0  0
 19 40  1  0  0  0  0
 19 42  1  0  0  0  0
 20 10  1  0  0  0  0
 20 44  1  0  0  0  0
 21 47  1  0  0  0  0
 21 48  1  0  0  0  0
 21 11  1  0  0  0  0
 22 51  1  0  0  0  0
 22 49  1  0  0  0  0
 23 53  1  0  0  0  0
 23 54  1  0  0  0  0
 24  3  1  0  0  0  0
 25 14  1  0  0  0  0
 29 15  1  0  0  0  0
 30 15  1  0  0  0  0
 31 16  1  0  0  0  0
 32 16  1  0  0  0  0
 35 17  1  0  0  0  0
 36 17  1  0  0  0  0
 37 18  1  0  0  0  0
 38 18  1  0  0  0  0
 41 19  1  0  0  0  0
 43 20  1  0  0  0  0
 45 20  1  0  0  0  0
 46 21  1  0  0  0  0
 50 22  1  0  0  0  0
 52 23  1  0  0  0  0
M  END
$$$$
