CSD_code = CUZFAG | q = 0 | S = 0 | Stoichiometry = C24H16Cl3N6Re | MND = 6
 OpenBabel04212202023D

 50 56  0  0  1  0  0  0  0  0999 V2000
    3.7299    6.1892    1.1529 Re  0  0  0  0  0  0  0  0  0  0  0  0
    4.9835    7.3027   -0.0737 N   0  0  0  0  0  0  0  0  0  0  0  0
    3.1805    5.5880   -0.6320 N   0  0  0  0  0  0  0  0  0  0  0  0
    2.2414    4.8154    1.6084 N   0  0  0  0  0  0  0  0  0  0  0  0
    2.4218    4.7603   -3.0932 N   0  0  0  0  0  0  0  0  0  0  0  0
    3.4657    7.9730   -4.0576 N   0  0  0  0  0  0  0  0  0  0  0  0
    1.6202    1.7856   -1.4116 N   0  0  0  0  0  0  0  0  0  0  0  0
    2.0922    7.8766    1.0583 Cl  0  0  0  0  0  0  0  0  0  0  0  0
    4.3633    6.8796    3.2104 Cl  0  0  0  0  0  0  0  0  0  0  0  0
    5.3548    4.4853    1.1933 Cl  0  0  0  0  0  0  0  0  0  0  0  0
    5.9896    8.0824    0.3252 C   0  0  0  0  0  3  0  0  0  0  0  0
    6.0656    8.2513    1.3914 H   0  0  0  0  0  0  0  0  0  0  0  0
    6.8950    8.6427   -0.5500 C   0  0  0  0  0  0  0  0  0  0  0  0
    7.6861    9.2713   -0.1754 H   0  0  0  0  0  0  0  0  0  0  0  0
    6.7773    8.3600   -1.9074 C   0  0  0  0  0  0  0  0  0  0  0  0
    7.4912    8.7509   -2.6155 H   0  0  0  0  0  0  0  0  0  0  0  0
    5.7367    7.5620   -2.3323 C   0  0  0  0  0  0  0  0  0  0  0  0
    5.6287    7.3076   -3.3718 H   0  0  0  0  0  0  0  0  0  0  0  0
    4.8206    7.0658   -1.4039 C   0  0  0  0  0  0  0  0  0  0  0  0
    3.7117    6.1863   -1.7257 C   0  0  1  0  0  3  0  0  0  0  0  0
    3.1576    5.8582   -2.9787 C   0  0  0  0  0  0  0  0  0  0  0  0
    2.0500    4.0573   -2.0317 C   0  0  0  0  0  0  0  0  0  0  0  0
    2.2790    4.5826   -0.7446 C   0  0  0  0  0  0  0  0  0  0  0  0
    1.6624    4.2344    0.5221 C   0  0  2  0  0  3  0  0  0  0  0  0
    0.5083    3.4619    0.6587 C   0  0  0  0  0  0  0  0  0  0  0  0
    0.0283    3.0662   -0.2187 H   0  0  0  0  0  0  0  0  0  0  0  0
   -0.0121    3.2251    1.9130 C   0  0  0  0  0  0  0  0  0  0  0  0
   -0.9023    2.6274    2.0319 H   0  0  0  0  0  0  0  0  0  0  0  0
    0.6254    3.7784    3.0192 C   0  0  0  0  0  0  0  0  0  0  0  0
    0.2594    3.6101    4.0187 H   0  0  0  0  0  0  0  0  0  0  0  0
    1.7324    4.5743    2.8177 C   0  0  0  0  0  0  0  0  0  0  0  0
    2.2376    5.0488    3.6488 H   0  0  0  0  0  0  0  0  0  0  0  0
    3.2690    6.6640   -4.1988 C   0  0  0  0  0  0  0  0  0  0  0  0
    3.0929    6.0651   -5.4478 C   0  0  0  0  0  0  0  0  0  0  0  0
    2.9373    5.0003   -5.5067 H   0  0  0  0  0  0  0  0  0  0  0  0
    3.1310    6.8645   -6.5760 C   0  0  0  0  0  0  0  0  0  0  0  0
    3.0044    6.4328   -7.5583 H   0  0  0  0  0  0  0  0  0  0  0  0
    3.3314    8.2283   -6.4243 C   0  0  0  0  0  0  0  0  0  0  0  0
    3.3633    8.8875   -7.2774 H   0  0  0  0  0  0  0  0  0  0  0  0
    3.4914    8.7264   -5.1379 C   0  0  0  0  0  0  0  0  0  0  0  0
    3.6484    9.7821   -4.9599 H   0  0  0  0  0  0  0  0  0  0  0  0
    1.4757    2.7407   -2.3274 C   0  0  0  0  0  0  0  0  0  0  0  0
    0.8762    2.5041   -3.5662 C   0  0  0  0  0  0  0  0  0  0  0  0
    0.7821    3.3133   -4.2716 H   0  0  0  0  0  0  0  0  0  0  0  0
    0.4145    1.2303   -3.8450 C   0  0  0  0  0  0  0  0  0  0  0  0
   -0.0590    1.0140   -4.7918 H   0  0  0  0  0  0  0  0  0  0  0  0
    0.5728    0.2365   -2.8909 C   0  0  0  0  0  0  0  0  0  0  0  0
    0.2325   -0.7710   -3.0705 H   0  0  0  0  0  0  0  0  0  0  0  0
    1.1845    0.5741   -1.6907 C   0  0  0  0  0  0  0  0  0  0  0  0
    1.3352   -0.1609   -0.9109 H   0  0  0  0  0  0  0  0  0  0  0  0
  1 10  1  0  0  0  0
  1  4  1  0  0  0  0
  1  9  1  0  0  0  0
  2 11  1  0  0  0  0
  2  1  1  0  0  0  0
  3  1  1  0  0  0  0
  4 31  1  0  0  0  0
  5 21  2  0  0  0  0
  5 22  1  0  0  0  0
  8  1  1  0  0  0  0
 11 12  1  0  0  0  0
 13 14  1  0  0  0  0
 13 11  1  0  0  0  0
 15 13  2  0  0  0  0
 16 15  1  0  0  0  0
 17 15  1  0  0  0  0
 17 19  2  0  0  0  0
 18 17  1  0  0  0  0
 19  2  1  0  0  0  0
 20 21  1  6  0  0  0
 20 19  1  0  0  0  0
 20  3  1  0  0  0  0
 22 23  2  0  0  0  0
 23  3  1  0  0  0  0
 24 23  1  6  0  0  0
 24 25  1  0  0  0  0
 24  4  1  0  0  0  0
 25 27  2  0  0  0  0
 26 25  1  0  0  0  0
 27 28  1  0  0  0  0
 27 29  1  0  0  0  0
 29 30  1  0  0  0  0
 31 29  2  0  0  0  0
 31 32  1  0  0  0  0
 33  6  1  0  0  0  0
 33 21  1  0  0  0  0
 34 33  2  0  0  0  0
 35 34  1  0  0  0  0
 36 38  2  0  0  0  0
 36 34  1  0  0  0  0
 37 36  1  0  0  0  0
 38 40  1  0  0  0  0
 39 38  1  0  0  0  0
 40 41  1  0  0  0  0
 40  6  2  0  0  0  0
 42 22  1  0  0  0  0
 42  7  2  0  0  0  0
 43 42  1  0  0  0  0
 44 43  1  0  0  0  0
 45 43  2  0  0  0  0
 45 47  1  0  0  0  0
 46 45  1  0  0  0  0
 47 49  2  0  0  0  0
 48 47  1  0  0  0  0
 49  7  1  0  0  0  0
 49 50  1  0  0  0  0
M  END
$$$$
