CSD_code = CXFTNB | q = -1 | S = 0 | Stoichiometry = C8H4Cl3F3NbO3S(1-) | MND = 6
 OpenBabel04212202023D

 23 24  0  0  1  0  0  0  0  0999 V2000
    2.9586    3.0192   -0.5381 Nb  0  0  0  0  0  0  0  0  0  0  0  0
    1.4905    4.7437   -1.2476 Cl  0  0  0  0  0  0  0  0  0  0  0  0
    4.1989    4.3315    0.8766 Cl  0  0  0  0  0  0  0  0  0  0  0  0
    4.6892    1.4267   -0.9517 Cl  0  0  0  0  0  0  0  0  0  0  0  0
    2.0132    2.2094    0.5889 O   0  0  0  0  0  1  0  0  0  0  0  0
    4.1720    4.0125   -2.1482 O   0  0  0  0  0  0  0  0  0  0  0  0
    4.3685    3.7959   -3.3611 C   0  0  0  0  0  0  0  0  0  0  0  0
    5.4339    4.5689   -3.9948 C   0  0  0  0  0  0  0  0  0  0  0  0
    5.9225    4.6020   -5.2755 C   0  0  0  0  0  0  0  0  0  0  0  0
    5.5413    3.9986   -6.0789 H   0  0  0  0  0  0  0  0  0  0  0  0
    6.9814    5.5130   -5.4258 C   0  0  0  0  0  0  0  0  0  0  0  0
    7.4970    5.6824   -6.3551 H   0  0  0  0  0  0  0  0  0  0  0  0
    7.2818    6.1568   -4.2619 C   0  0  0  0  0  0  0  0  0  0  0  0
    8.0417    6.8963   -4.1010 H   0  0  0  0  0  0  0  0  0  0  0  0
    6.2841    5.6675   -2.9598 S   0  0  0  0  0  0  0  0  0  0  0  0
    2.1361    2.0165   -2.4920 O   0  0  0  0  0  0  0  0  0  0  0  0
    2.6144    2.0929   -3.6430 C   0  0  2  0  0  3  0  0  0  0  0  0
    3.6373    2.8714   -4.1516 C   0  0  0  0  0  0  0  0  0  0  0  0
    3.8879    2.7666   -5.1934 H   0  0  0  0  0  0  0  0  0  0  0  0
    1.9424    1.1764   -4.6948 C   0  0  0  0  0  0  0  0  0  0  0  0
    2.8326    0.3932   -5.3381 F   0  0  0  0  0  0  0  0  0  0  0  0
    1.3321    1.8891   -5.6668 F   0  0  0  0  0  0  0  0  0  0  0  0
    1.0218    0.3675   -4.1784 F   0  0  0  0  0  0  0  0  0  0  0  0
  1  5  1  0  0  0  0
  1  3  1  0  0  0  0
  2  1  1  0  0  0  0
  4  1  1  0  0  0  0
  6  1  1  0  0  0  0
  7  6  1  0  0  0  0
  8  7  1  0  0  0  0
  8 15  1  0  0  0  0
  9  8  2  0  0  0  0
 10  9  1  0  0  0  0
 11  9  1  0  0  0  0
 11 13  2  0  0  0  0
 12 11  1  0  0  0  0
 13 14  1  0  0  0  0
 13 15  1  0  0  0  0
 16  1  1  0  0  0  0
 17 20  1  6  0  0  0
 17 16  1  0  0  0  0
 18 17  1  0  0  0  0
 18  7  2  0  0  0  0
 19 18  1  0  0  0  0
 20 23  1  0  0  0  0
 21 20  1  0  0  0  0
 22 20  1  0  0  0  0
M  END
$$$$
