CSD_code = CYEPNI | q = 0 | S = 0 | Stoichiometry = C18H24Br2N6NiP2 | MND = 4
 OpenBabel04212202023D

 53 52  0  0  0  0  0  0  0  0999 V2000
    0.0002    0.0004    0.0002 Ni  0  0  0  0  0  0  0  0  0  0  0  0
    0.8387    2.0053   -0.3968 P   0  0  0  0  0  4  0  0  0  0  0  0
   -0.4285    0.6838    2.1707 Br  0  0  0  0  0  0  0  0  0  0  0  0
    2.6326    2.0737    0.0948 C   0  0  0  0  0  0  0  0  0  0  0  0
    3.3844    0.7776   -0.2441 C   0  0  0  0  0  0  0  0  0  0  0  0
    2.6764   -0.3202    0.3555 C   0  0  0  0  0  0  0  0  0  0  0  0
    2.0130   -1.1345    0.8203 N   0  0  0  0  0  0  0  0  0  0  0  0
    0.8588    2.5733   -2.1581 C   0  0  0  0  0  0  0  0  0  0  0  0
    1.2211    4.0413   -2.4018 C   0  0  0  0  0  0  0  0  0  0  0  0
    1.4403    4.2437   -3.8145 C   0  0  0  0  0  0  0  0  0  0  0  0
    1.6238    4.3858   -4.9327 N   0  0  0  0  0  0  0  0  0  0  0  0
    0.2824    3.5090    0.5162 C   0  0  0  0  0  0  0  0  0  0  0  0
   -1.2011    3.8224    0.2944 C   0  0  0  0  0  0  0  0  0  0  0  0
   -1.4744    5.1890    0.6547 C   0  0  0  0  0  0  0  0  0  0  0  0
   -1.6503    6.2871    0.9180 N   0  0  0  0  0  0  0  0  0  0  0  0
    2.6572    2.2335    1.1775 H   0  0  0  0  0  0  0  0  0  0  0  0
    3.1200    2.9232   -0.3905 H   0  0  0  0  0  0  0  0  0  0  0  0
    4.4105    0.8100    0.1322 H   0  0  0  0  0  0  0  0  0  0  0  0
    3.4119    0.6092   -1.3266 H   0  0  0  0  0  0  0  0  0  0  0  0
   -0.1300    2.3557   -2.5743 H   0  0  0  0  0  0  0  0  0  0  0  0
    1.5642    1.9261   -2.6897 H   0  0  0  0  0  0  0  0  0  0  0  0
    2.1424    4.3243   -1.8819 H   0  0  0  0  0  0  0  0  0  0  0  0
    0.4206    4.7149   -2.0848 H   0  0  0  0  0  0  0  0  0  0  0  0
    0.9079    4.3470    0.1933 H   0  0  0  0  0  0  0  0  0  0  0  0
    0.4627    3.3482    1.5821 H   0  0  0  0  0  0  0  0  0  0  0  0
   -1.8174    3.1604    0.9087 H   0  0  0  0  0  0  0  0  0  0  0  0
   -1.4884    3.6761   -0.7518 H   0  0  0  0  0  0  0  0  0  0  0  0
   -0.8384   -2.0047    0.3967 P   0  0  0  0  0  4  0  0  0  0  0  0
    0.4290   -0.6850   -2.1697 Br  0  0  0  0  0  0  0  0  0  0  0  0
   -2.6320   -2.0730   -0.0961 C   0  0  0  0  0  0  0  0  0  0  0  0
   -0.8599   -2.5731    2.1579 C   0  0  0  0  0  0  0  0  0  0  0  0
   -0.2818   -3.5085   -0.5162 C   0  0  0  0  0  0  0  0  0  0  0  0
   -3.3846   -0.7776    0.2436 C   0  0  0  0  0  0  0  0  0  0  0  0
   -2.6558   -2.2316   -1.1791 H   0  0  0  0  0  0  0  0  0  0  0  0
   -3.1194   -2.9232    0.3878 H   0  0  0  0  0  0  0  0  0  0  0  0
   -1.2220   -4.0413    2.4009 C   0  0  0  0  0  0  0  0  0  0  0  0
    0.1286   -2.3555    2.5750 H   0  0  0  0  0  0  0  0  0  0  0  0
   -1.5658   -1.9263    2.6892 H   0  0  0  0  0  0  0  0  0  0  0  0
    1.2014   -3.8222   -0.2935 C   0  0  0  0  0  0  0  0  0  0  0  0
   -0.9078   -4.3463   -0.1938 H   0  0  0  0  0  0  0  0  0  0  0  0
   -0.4615   -3.3475   -1.5822 H   0  0  0  0  0  0  0  0  0  0  0  0
   -2.6768    0.3209   -0.3554 C   0  0  0  0  0  0  0  0  0  0  0  0
   -4.4106   -0.8102   -0.1328 H   0  0  0  0  0  0  0  0  0  0  0  0
   -3.4122   -0.6099    1.3262 H   0  0  0  0  0  0  0  0  0  0  0  0
   -1.4397   -4.2451    3.8136 C   0  0  0  0  0  0  0  0  0  0  0  0
   -2.1437   -4.3239    1.8816 H   0  0  0  0  0  0  0  0  0  0  0  0
   -0.4218   -4.7147    2.0826 H   0  0  0  0  0  0  0  0  0  0  0  0
    1.4740   -5.1896   -0.6512 C   0  0  0  0  0  0  0  0  0  0  0  0
    1.8182   -3.1616   -0.9087 H   0  0  0  0  0  0  0  0  0  0  0  0
    1.4885   -3.6742    0.7525 H   0  0  0  0  0  0  0  0  0  0  0  0
   -2.0124    1.1348   -0.8195 N   0  0  0  0  0  0  0  0  0  0  0  0
   -1.6218   -4.3887    4.9318 N   0  0  0  0  0  0  0  0  0  0  0  0
    1.6492   -6.2884   -0.9123 N   0  0  0  0  0  0  0  0  0  0  0  0
  1 28  1  0  0  0  0
  1  3  1  0  0  0  0
  2  1  1  0  0  0  0
  2  4  1  0  0  0  0
  2 12  1  0  0  0  0
  4 16  1  0  0  0  0
  5  4  1  0  0  0  0
  5 18  1  0  0  0  0
  5  6  1  0  0  0  0
  6  7  3  0  0  0  0
  8  2  1  0  0  0  0
  9  8  1  0  0  0  0
  9 23  1  0  0  0  0
  9 22  1  0  0  0  0
 10  9  1  0  0  0  0
 11 10  3  0  0  0  0
 12 25  1  0  0  0  0
 13 12  1  0  0  0  0
 13 14  1  0  0  0  0
 13 26  1  0  0  0  0
 14 15  3  0  0  0  0
 17  4  1  0  0  0  0
 19  5  1  0  0  0  0
 20  8  1  0  0  0  0
 21  8  1  0  0  0  0
 24 12  1  0  0  0  0
 27 13  1  0  0  0  0
 28 31  1  0  0  0  0
 29  1  1  0  0  0  0
 30 33  1  0  0  0  0
 30 35  1  0  0  0  0
 30 28  1  0  0  0  0
 31 36  1  0  0  0  0
 31 37  1  0  0  0  0
 31 38  1  0  0  0  0
 32 39  1  0  0  0  0
 32 40  1  0  0  0  0
 32 28  1  0  0  0  0
 33 44  1  0  0  0  0
 34 30  1  0  0  0  0
 36 45  1  0  0  0  0
 39 50  1  0  0  0  0
 41 32  1  0  0  0  0
 42 33  1  0  0  0  0
 43 33  1  0  0  0  0
 45 52  3  0  0  0  0
 46 36  1  0  0  0  0
 47 36  1  0  0  0  0
 48 39  1  0  0  0  0
 49 39  1  0  0  0  0
 51 42  3  0  0  0  0
 53 48  3  0  0  0  0
M  END
$$$$
