CSD_code = DABDAL | q = 0 | S = 0 | Stoichiometry = C27H26ClOP2Rh | MND = 4
 OpenBabel04212202023D

 58 61  0  0  0  0  0  0  0  0999 V2000
    6.1805    6.1874   10.2544 Rh  0  0  0  0  0  0  0  0  0  0  0  0
    4.6164    4.6087   10.4968 Cl  0  0  0  0  0  0  0  0  0  0  0  0
    7.4359    7.4993   10.0627 C   0  0  0  0  0  2  0  0  0  0  0  0
    8.2380    8.3211    9.9575 O   0  0  0  0  0  1  0  0  0  0  0  0
    7.3127    5.1682   11.9421 P   0  0  0  0  0  4  0  0  0  0  0  0
    6.3945    4.3549   13.3031 C   0  0  0  0  0  0  0  0  0  0  0  0
    4.9653    6.7167    8.4147 P   0  0  0  0  0  4  0  0  0  0  0  0
    3.1353    6.7651    8.4423 C   0  0  0  0  0  0  0  0  0  0  0  0
    8.2366    3.7607   11.2386 C   0  0  0  0  0  0  0  0  0  0  0  0
    8.0456    3.4520    9.8970 C   0  0  0  0  0  0  0  0  0  0  0  0
    8.7163    2.3874    9.3226 C   0  0  0  0  0  0  0  0  0  0  0  0
    9.5871    1.6294   10.0875 C   0  0  0  0  0  0  0  0  0  0  0  0
    9.7888    1.9390   11.4240 C   0  0  0  0  0  0  0  0  0  0  0  0
    9.1176    3.0009   12.0008 C   0  0  0  0  0  0  0  0  0  0  0  0
    8.6494    6.0512   12.8086 C   0  0  0  0  0  0  0  0  0  0  0  0
    9.8262    6.2981   12.1063 C   0  0  0  0  0  0  0  0  0  0  0  0
   10.8511    7.0168   12.6893 C   0  0  0  0  0  0  0  0  0  0  0  0
   10.7066    7.5087   13.9773 C   0  0  0  0  0  0  0  0  0  0  0  0
    9.5324    7.2828   14.6745 C   0  0  0  0  0  0  0  0  0  0  0  0
    8.5045    6.5608   14.0928 C   0  0  0  0  0  0  0  0  0  0  0  0
    5.2789    8.2527    7.4794 C   0  0  0  0  0  0  0  0  0  0  0  0
    5.2835    8.3069    6.0917 C   0  0  0  0  0  0  0  0  0  0  0  0
    5.4846    9.5156    5.4491 C   0  0  0  0  0  0  0  0  0  0  0  0
    5.6748   10.6734    6.1855 C   0  0  0  0  0  0  0  0  0  0  0  0
    5.6631   10.6253    7.5703 C   0  0  0  0  0  0  0  0  0  0  0  0
    5.4673    9.4177    8.2136 C   0  0  0  0  0  0  0  0  0  0  0  0
    5.3807    5.4291    7.1978 C   0  0  0  0  0  0  0  0  0  0  0  0
    4.4782    4.5178    6.6671 C   0  0  0  0  0  0  0  0  0  0  0  0
    4.9245    3.5226    5.8128 C   0  0  0  0  0  0  0  0  0  0  0  0
    6.2664    3.4278    5.4877 C   0  0  0  0  0  0  0  0  0  0  0  0
    7.1746    4.3287    6.0238 C   0  0  0  0  0  0  0  0  0  0  0  0
    6.7347    5.3194    6.8793 C   0  0  0  0  0  0  0  0  0  0  0  0
    5.7703    5.0899   13.8109 H   0  0  0  0  0  0  0  0  0  0  0  0
    7.0800    3.8867   14.0091 H   0  0  0  0  0  0  0  0  0  0  0  0
    5.7433    3.6045   12.8562 H   0  0  0  0  0  0  0  0  0  0  0  0
    7.3558    4.0577    9.3079 H   0  0  0  0  0  0  0  0  0  0  0  0
    8.5582    2.1508    8.2805 H   0  0  0  0  0  0  0  0  0  0  0  0
   10.1131    0.7970    9.6433 H   0  0  0  0  0  0  0  0  0  0  0  0
   10.4732    1.3493   12.0167 H   0  0  0  0  0  0  0  0  0  0  0  0
    9.2851    3.2501   13.0399 H   0  0  0  0  0  0  0  0  0  0  0  0
    9.9279    5.9166   11.0982 H   0  0  0  0  0  0  0  0  0  0  0  0
   11.7628    7.1993   12.1395 H   0  0  0  0  0  0  0  0  0  0  0  0
   11.5064    8.0731   14.4336 H   0  0  0  0  0  0  0  0  0  0  0  0
    9.4143    7.6732   15.6751 H   0  0  0  0  0  0  0  0  0  0  0  0
    7.5875    6.3986   14.6406 H   0  0  0  0  0  0  0  0  0  0  0  0
    2.7587    5.8575    8.9113 H   0  0  0  0  0  0  0  0  0  0  0  0
    2.7482    6.8742    7.4285 H   0  0  0  0  0  0  0  0  0  0  0  0
    2.8309    7.6246    9.0408 H   0  0  0  0  0  0  0  0  0  0  0  0
    5.1358    7.4027    5.5170 H   0  0  0  0  0  0  0  0  0  0  0  0
    5.4929    9.5548    4.3693 H   0  0  0  0  0  0  0  0  0  0  0  0
    5.8342   11.6141    5.6794 H   0  0  0  0  0  0  0  0  0  0  0  0
    5.8122   11.5276    8.1451 H   0  0  0  0  0  0  0  0  0  0  0  0
    5.4632    9.3609    9.2962 H   0  0  0  0  0  0  0  0  0  0  0  0
    3.4318    4.5714    6.9262 H   0  0  0  0  0  0  0  0  0  0  0  0
    4.2191    2.8141    5.4028 H   0  0  0  0  0  0  0  0  0  0  0  0
    6.6074    2.6477    4.8228 H   0  0  0  0  0  0  0  0  0  0  0  0
    8.2242    4.2519    5.7789 H   0  0  0  0  0  0  0  0  0  0  0  0
    7.4340    6.0270    7.3143 H   0  0  0  0  0  0  0  0  0  0  0  0
  1  2  1  0  0  0  0
  1  5  1  0  0  0  0
  3  1  1  0  0  0  0
  4  3  1  0  0  0  0
  5 15  1  0  0  0  0
  5  6  1  0  0  0  0
  6 33  1  0  0  0  0
  6 34  1  0  0  0  0
  7  8  1  0  0  0  0
  7  1  1  0  0  0  0
  8 46  1  0  0  0  0
  8 48  1  0  0  0  0
  9  5  1  0  0  0  0
  9 14  1  0  0  0  0
 10  9  2  0  0  0  0
 11 10  1  0  0  0  0
 11 12  2  0  0  0  0
 12 13  1  0  0  0  0
 13 14  2  0  0  0  0
 13 39  1  0  0  0  0
 14 40  1  0  0  0  0
 15 20  1  0  0  0  0
 16 17  1  0  0  0  0
 16 15  2  0  0  0  0
 17 18  2  0  0  0  0
 18 43  1  0  0  0  0
 18 19  1  0  0  0  0
 19 44  1  0  0  0  0
 20 45  1  0  0  0  0
 20 19  2  0  0  0  0
 21 26  1  0  0  0  0
 21  7  1  0  0  0  0
 22 21  2  0  0  0  0
 23 22  1  0  0  0  0
 23 24  2  0  0  0  0
 24 25  1  0  0  0  0
 25 52  1  0  0  0  0
 25 26  2  0  0  0  0
 26 53  1  0  0  0  0
 27  7  1  0  0  0  0
 28 54  1  0  0  0  0
 28 27  2  0  0  0  0
 29 28  1  0  0  0  0
 30 29  2  0  0  0  0
 30 31  1  0  0  0  0
 31 32  2  0  0  0  0
 32 27  1  0  0  0  0
 32 58  1  0  0  0  0
 35  6  1  0  0  0  0
 36 10  1  0  0  0  0
 37 11  1  0  0  0  0
 38 12  1  0  0  0  0
 41 16  1  0  0  0  0
 42 17  1  0  0  0  0
 47  8  1  0  0  0  0
 49 22  1  0  0  0  0
 50 23  1  0  0  0  0
 51 24  1  0  0  0  0
 55 29  1  0  0  0  0
 56 30  1  0  0  0  0
 57 31  1  0  0  0  0
M  END
$$$$
