CSD_code = DACGOF | q = 0 | S = 0 | Stoichiometry = C17H8BrF3N3O4Re | MND = 6
 OpenBabel04212202023D

 37 40  0  0  0  0  0  0  0  0999 V2000
    4.8890    4.7806    3.5664 Re  0  0  0  0  0  0  0  0  0  0  0  0
    4.5536    6.1964    1.4420 Br  0  0  0  0  0  0  0  0  0  0  0  0
    9.5331   -0.3869   -3.8849 F   0  0  0  0  0  0  0  0  0  0  0  0
    7.7290    0.7496   -4.2314 F   0  0  0  0  0  0  0  0  0  0  0  0
    7.6898   -0.9408   -2.9035 F   0  0  0  0  0  0  0  0  0  0  0  0
    5.4544    2.9292    5.9716 O   0  0  0  0  0  1  0  0  0  0  0  0
    1.8117    4.7601    3.9001 O   0  0  0  0  0  1  0  0  0  0  0  0
    5.1522    7.4268    5.1503 O   0  0  0  0  0  1  0  0  0  0  0  0
    9.9077    1.3312   -1.8208 O   0  0  0  0  0  0  0  0  0  0  0  0
    4.9372    3.1602    2.1562 N   0  0  0  0  0  0  0  0  0  0  0  0
    6.9371    4.7397    2.9234 N   0  0  0  0  0  0  0  0  0  0  0  0
    7.6338    1.4019   -1.4830 N   0  0  0  0  0  0  0  0  0  0  0  0
    6.7657    1.0395   -1.8563 H   0  0  0  0  0  0  0  0  0  0  0  0
    5.2386    3.6233    5.0856 C   0  0  0  0  0  2  0  0  0  0  0  0
    2.9537    4.7629    3.8352 C   0  0  0  0  0  2  0  0  0  0  0  0
    5.0343    6.4218    4.6173 C   0  0  0  0  0  2  0  0  0  0  0  0
    3.9256    2.3854    1.8060 C   0  0  0  0  0  0  0  0  0  0  0  0
    3.0190    2.4706    2.3906 H   0  0  0  0  0  0  0  0  0  0  0  0
    3.9941    1.4941    0.7401 C   0  0  0  0  0  0  0  0  0  0  0  0
    3.1380    0.8836    0.5033 H   0  0  0  0  0  0  0  0  0  0  0  0
    5.1507    1.4066   -0.0014 C   0  0  0  0  0  0  0  0  0  0  0  0
    5.1933    0.7045   -0.8207 H   0  0  0  0  0  0  0  0  0  0  0  0
    6.2451    2.2188    0.3365 C   0  0  0  0  0  0  0  0  0  0  0  0
    7.5057    2.2308   -0.3587 C   0  0  0  0  0  0  0  0  0  0  0  0
    8.5298    3.0252    0.0614 C   0  0  0  0  0  0  0  0  0  0  0  0
    9.4723    3.0216   -0.4605 H   0  0  0  0  0  0  0  0  0  0  0  0
    8.3879    3.8858    1.1800 C   0  0  0  0  0  0  0  0  0  0  0  0
    9.4155    4.7317    1.6262 C   0  0  0  0  0  0  0  0  0  0  0  0
   10.3667    4.7324    1.1170 H   0  0  0  0  0  0  0  0  0  0  0  0
    9.1752    5.5481    2.7063 C   0  0  0  0  0  0  0  0  0  0  0  0
    9.9337    6.2158    3.0816 H   0  0  0  0  0  0  0  0  0  0  0  0
    7.9249    5.5221    3.3234 C   0  0  0  0  0  0  0  0  0  0  0  0
    7.7214    6.1657    4.1695 H   0  0  0  0  0  0  0  0  0  0  0  0
    7.1598    3.9245    1.8689 C   0  0  0  0  0  0  0  0  0  0  0  0
    6.0856    3.0800    1.4463 C   0  0  0  0  0  0  0  0  0  0  0  0
    8.7778    1.0342   -2.0989 C   0  0  0  0  0  0  0  0  0  0  0  0
    8.4511    0.0985   -3.3028 C   0  0  0  0  0  0  0  0  0  0  0  0
  1 15  1  0  0  0  0
  1 16  1  0  0  0  0
  1 14  1  0  0  0  0
  2  1  1  0  0  0  0
  3 37  1  0  0  0  0
  4 37  1  0  0  0  0
 10  1  1  0  0  0  0
 11 32  1  0  0  0  0
 11  1  1  0  0  0  0
 12 24  1  0  0  0  0
 13 12  1  0  0  0  0
 14  6  1  0  0  0  0
 15  7  1  0  0  0  0
 16  8  1  0  0  0  0
 17 10  1  0  0  0  0
 17 18  1  0  0  0  0
 19 17  2  0  0  0  0
 20 19  1  0  0  0  0
 21 23  2  0  0  0  0
 21 19  1  0  0  0  0
 22 21  1  0  0  0  0
 23 35  1  0  0  0  0
 24 25  2  0  0  0  0
 24 23  1  0  0  0  0
 25 27  1  0  0  0  0
 26 25  1  0  0  0  0
 27 28  2  0  0  0  0
 27 34  1  0  0  0  0
 28 30  1  0  0  0  0
 29 28  1  0  0  0  0
 30 31  1  0  0  0  0
 30 32  2  0  0  0  0
 32 33  1  0  0  0  0
 34 11  1  0  0  0  0
 35 34  2  0  0  0  0
 35 10  1  0  0  0  0
 36  9  2  0  0  0  0
 36 12  1  0  0  0  0
 37  5  1  0  0  0  0
 37 36  1  0  0  0  0
M  END
$$$$
