CSD_code = DACRUV | q = 0 | S = 0 | Stoichiometry = C30H27Cl2NP2Pt | MND = 4
 OpenBabel04212202023D

 63 69  0  0  1  0  0  0  0  0999 V2000
    0.4749    4.1314    3.4258 Pt  0  0  0  0  0  0  0  0  0  0  0  0
    0.3605    3.4172    5.6216 Cl  0  0  0  0  0  0  0  0  0  0  0  0
   -0.9079    2.4396    2.7045 Cl  0  0  0  0  0  0  0  0  0  0  0  0
    0.6925    4.7401    1.2535 P   0  0  0  0  0  4  0  0  0  0  0  0
    1.8829    5.7615    4.1075 P   0  0  0  0  0  4  0  0  0  0  0  0
    1.2395    6.2909    0.8509 N   0  0  2  0  0  0  0  0  0  0  0  0
    1.8842    7.2082    2.9435 C   0  0  1  0  0  0  0  0  0  0  0  0
    2.4752    8.0243    3.3693 H   0  0  0  0  0  0  0  0  0  0  0  0
    2.4205    6.8142    1.5313 C   0  0  2  0  0  0  0  0  0  0  0  0
    3.2729    6.1367    1.5296 H   0  0  0  0  0  0  0  0  0  0  0  0
    2.5715    8.1277    0.8074 C   0  0  0  0  0  0  0  0  0  0  0  0
    3.5084    8.6209    0.6331 H   0  0  0  0  0  0  0  0  0  0  0  0
    1.3399    8.5343    0.5245 C   0  0  0  0  0  0  0  0  0  0  0  0
    1.0157    9.4437    0.0570 H   0  0  0  0  0  0  0  0  0  0  0  0
    0.4122    7.4770    1.0697 C   0  0  2  0  0  0  0  0  0  0  0  0
   -0.5808    7.4134    0.6313 H   0  0  0  0  0  0  0  0  0  0  0  0
    0.4459    7.6400    2.6131 C   0  0  0  0  0  0  0  0  0  0  0  0
    0.2161    8.6561    2.9276 H   0  0  0  0  0  0  0  0  0  0  0  0
   -0.2806    6.9521    3.0608 H   0  0  0  0  0  0  0  0  0  0  0  0
    1.5858    6.5713    5.7022 C   0  0  0  0  0  0  0  0  0  0  0  0
    0.2615    6.7081    6.1076 C   0  0  0  0  0  0  0  0  0  0  0  0
   -0.5267    6.2922    5.4925 H   0  0  0  0  0  0  0  0  0  0  0  0
   -0.0347    7.3274    7.3064 C   0  0  0  0  0  0  0  0  0  0  0  0
   -1.0620    7.4254    7.6241 H   0  0  0  0  0  0  0  0  0  0  0  0
    0.9895    7.8063    8.1081 C   0  0  0  0  0  0  0  0  0  0  0  0
    0.7598    8.2823    9.0499 H   0  0  0  0  0  0  0  0  0  0  0  0
    2.3087    7.6595    7.7126 C   0  0  0  0  0  0  0  0  0  0  0  0
    3.1062    8.0192    8.3462 H   0  0  0  0  0  0  0  0  0  0  0  0
    2.6122    7.0421    6.5118 C   0  0  0  0  0  0  0  0  0  0  0  0
    3.6429    6.9102    6.2148 H   0  0  0  0  0  0  0  0  0  0  0  0
    3.6103    5.2093    4.1105 C   0  0  0  0  0  0  0  0  0  0  0  0
    3.8056    3.8345    4.2126 C   0  0  0  0  0  0  0  0  0  0  0  0
    2.9389    3.1896    4.3180 H   0  0  0  0  0  0  0  0  0  0  0  0
    5.0837    3.3082    4.1908 C   0  0  0  0  0  0  0  0  0  0  0  0
    5.2301    2.2417    4.2717 H   0  0  0  0  0  0  0  0  0  0  0  0
    6.1747    4.1525    4.0636 C   0  0  0  0  0  0  0  0  0  0  0  0
    7.1749    3.7457    4.0450 H   0  0  0  0  0  0  0  0  0  0  0  0
    5.9860    5.5215    3.9579 C   0  0  0  0  0  0  0  0  0  0  0  0
    6.8384    6.1778    3.8575 H   0  0  0  0  0  0  0  0  0  0  0  0
    4.7094    6.0540    3.9787 C   0  0  0  0  0  0  0  0  0  0  0  0
    4.5717    7.1224    3.8866 H   0  0  0  0  0  0  0  0  0  0  0  0
    2.0084    3.7625    0.4821 C   0  0  0  0  0  0  0  0  0  0  0  0
    2.7289    4.2133   -0.6200 C   0  0  0  0  0  0  0  0  0  0  0  0
    2.4964    5.1755   -1.0541 H   0  0  0  0  0  0  0  0  0  0  0  0
    3.7454    3.4325   -1.1394 C   0  0  0  0  0  0  0  0  0  0  0  0
    4.3047    3.7793   -1.9964 H   0  0  0  0  0  0  0  0  0  0  0  0
    4.0489    2.2084   -0.5635 C   0  0  0  0  0  0  0  0  0  0  0  0
    4.8445    1.6042   -0.9744 H   0  0  0  0  0  0  0  0  0  0  0  0
    3.3375    1.7616    0.5381 C   0  0  0  0  0  0  0  0  0  0  0  0
    3.5770    0.8095    0.9876 H   0  0  0  0  0  0  0  0  0  0  0  0
    2.3201    2.5377    1.0626 C   0  0  0  0  0  0  0  0  0  0  0  0
    1.7489    2.2004    1.9212 H   0  0  0  0  0  0  0  0  0  0  0  0
   -0.7713    4.6511    0.1892 C   0  0  0  0  0  0  0  0  0  0  0  0
   -0.6928    4.3795   -1.1700 C   0  0  0  0  0  0  0  0  0  0  0  0
    0.2659    4.1808   -1.6264 H   0  0  0  0  0  0  0  0  0  0  0  0
   -1.8510    4.3486   -1.9270 C   0  0  0  0  0  0  0  0  0  0  0  0
   -1.7958    4.1295   -2.9834 H   0  0  0  0  0  0  0  0  0  0  0  0
   -3.0796    4.5877   -1.3331 C   0  0  0  0  0  0  0  0  0  0  0  0
   -3.9803    4.5552   -1.9284 H   0  0  0  0  0  0  0  0  0  0  0  0
   -3.1581    4.8551    0.0246 C   0  0  0  0  0  0  0  0  0  0  0  0
   -4.1177    5.0292    0.4882 H   0  0  0  0  0  0  0  0  0  0  0  0
   -2.0054    4.8843    0.7863 C   0  0  0  0  0  0  0  0  0  0  0  0
   -2.0505    5.0578    1.8553 H   0  0  0  0  0  0  0  0  0  0  0  0
  1  5  1  0  0  0  0
  1  2  1  0  0  0  0
  3  1  1  0  0  0  0
  4  1  1  0  0  0  0
  5 31  1  0  0  0  0
  5 20  1  0  0  0  0
  6 15  1  0  0  0  0
  6  4  1  1  0  0  0
  6  9  1  0  0  0  0
  7  8  1  1  0  0  0
  7  5  1  0  0  0  0
  9 10  1  6  0  0  0
  9  7  1  0  0  0  0
 11  9  1  0  0  0  0
 12 11  1  0  0  0  0
 13 11  2  0  0  0  0
 13 15  1  0  0  0  0
 14 13  1  0  0  0  0
 15 16  1  6  0  0  0
 15 17  1  0  0  0  0
 17 18  1  0  0  0  0
 17  7  1  0  0  0  0
 17 19  1  0  0  0  0
 20 21  2  0  0  0  0
 20 29  1  0  0  0  0
 21 23  1  0  0  0  0
 22 21  1  0  0  0  0
 23 24  1  0  0  0  0
 23 25  2  0  0  0  0
 25 26  1  0  0  0  0
 27 25  1  0  0  0  0
 27 28  1  0  0  0  0
 29 27  2  0  0  0  0
 30 29  1  0  0  0  0
 31 32  1  0  0  0  0
 32 33  1  0  0  0  0
 34 32  2  0  0  0  0
 34 35  1  0  0  0  0
 36 34  1  0  0  0  0
 37 36  1  0  0  0  0
 38 40  1  0  0  0  0
 38 36  2  0  0  0  0
 39 38  1  0  0  0  0
 40 31  2  0  0  0  0
 41 40  1  0  0  0  0
 42 51  1  0  0  0  0
 42  4  1  0  0  0  0
 43 42  2  0  0  0  0
 44 43  1  0  0  0  0
 45 43  1  0  0  0  0
 45 47  2  0  0  0  0
 46 45  1  0  0  0  0
 47 49  1  0  0  0  0
 48 47  1  0  0  0  0
 49 50  1  0  0  0  0
 49 51  2  0  0  0  0
 51 52  1  0  0  0  0
 53 62  1  0  0  0  0
 53  4  1  0  0  0  0
 54 53  2  0  0  0  0
 55 54  1  0  0  0  0
 56 58  2  0  0  0  0
 56 54  1  0  0  0  0
 57 56  1  0  0  0  0
 58 60  1  0  0  0  0
 59 58  1  0  0  0  0
 60 61  1  0  0  0  0
 60 62  2  0  0  0  0
 62 63  1  0  0  0  0
M  END
$$$$
