CSD_code = DADHIC | q = 0 | S = 0 | Stoichiometry = C26H22CdI2N6O4 | MND = 4
 OpenBabel04212202023D

 61 64  0  0  0  0  0  0  0  0999 V2000
   -2.2698    1.8904    6.4783 I   0  0  0  0  0  0  0  0  0  0  0  0
   -0.0002    2.7587    7.6137 Cd  0  0  0  0  0  0  0  0  0  0  0  0
    1.7441    7.7236    2.3670 O   0  0  0  0  0  0  0  0  0  0  0  0
    8.2339    9.5514   -2.9386 O   0  0  0  0  0  0  0  0  0  0  0  0
    0.8420    4.3729    5.9724 N   0  0  0  0  0  0  0  0  0  0  0  0
    3.6813    6.5243    2.4416 N   0  0  0  0  0  0  0  0  0  0  0  0
    4.2945    7.2129    1.4645 N   0  0  0  0  0  0  0  0  0  0  0  0
    0.0791    4.7999    4.9677 C   0  0  0  0  0  3  0  0  0  0  0  0
    0.5611    5.5947    3.9437 C   0  0  0  0  0  0  0  0  0  0  0  0
    1.9058    5.9545    3.9433 C   0  0  0  0  0  0  0  0  0  0  0  0
    2.6973    5.5221    5.0034 C   0  0  0  0  0  0  0  0  0  0  0  0
    2.1207    4.7408    5.9898 C   0  0  0  0  0  0  0  0  0  0  0  0
    2.4132    6.8377    2.8406 C   0  0  0  0  0  0  0  0  0  0  0  0
    5.4481    6.8466    1.0745 C   0  0  0  0  0  0  0  0  0  0  0  0
    6.1537    7.5564    0.0358 C   0  0  0  0  0  0  0  0  0  0  0  0
    5.5856    8.6753   -0.5798 C   0  0  0  0  0  0  0  0  0  0  0  0
    6.2655    9.3482   -1.5700 C   0  0  0  0  0  0  0  0  0  0  0  0
    7.5305    8.9193   -1.9700 C   0  0  0  0  0  0  0  0  0  0  0  0
    8.1041    7.8037   -1.3615 C   0  0  0  0  0  0  0  0  0  0  0  0
    7.4217    7.1330   -0.3715 C   0  0  0  0  0  0  0  0  0  0  0  0
   -0.9595    4.4917    4.9849 H   0  0  0  0  0  0  0  0  0  0  0  0
   -0.0843    5.9358    3.1500 H   0  0  0  0  0  0  0  0  0  0  0  0
    4.1538    5.7100    2.8447 H   0  0  0  0  0  0  0  0  0  0  0  0
    7.7321   10.3025   -3.2796 H   0  0  0  0  0  0  0  0  0  0  0  0
    3.7365    5.8017    5.0854 H   0  0  0  0  0  0  0  0  0  0  0  0
    2.7130    4.3907    6.8268 H   0  0  0  0  0  0  0  0  0  0  0  0
    5.9531    5.9749    1.5154 H   0  0  0  0  0  0  0  0  0  0  0  0
    4.6069    8.9959   -0.2614 H   0  0  0  0  0  0  0  0  0  0  0  0
    5.8211   10.2140   -2.0432 H   0  0  0  0  0  0  0  0  0  0  0  0
    9.0828    7.4855   -1.6833 H   0  0  0  0  0  0  0  0  0  0  0  0
    7.8730    6.2692    0.0951 H   0  0  0  0  0  0  0  0  0  0  0  0
    2.2700    1.8903    8.7467 I   0  0  0  0  0  0  0  0  0  0  0  0
   -1.7444    7.7240   12.8587 O   0  0  0  0  0  0  0  0  0  0  0  0
   -8.2342    9.5522   18.1651 O   0  0  0  0  0  0  0  0  0  0  0  0
   -0.8423    4.3721    9.2548 N   0  0  0  0  0  0  0  0  0  0  0  0
   -3.6810    6.5238   12.7859 N   0  0  0  0  0  0  0  0  0  0  0  0
   -4.2942    7.2126   13.7629 N   0  0  0  0  0  0  0  0  0  0  0  0
   -0.0793    4.7989   10.2595 C   0  0  0  0  0  3  0  0  0  0  0  0
   -0.5613    5.5937   11.2834 C   0  0  0  0  0  0  0  0  0  0  0  0
   -1.9059    5.9539   11.2836 C   0  0  0  0  0  0  0  0  0  0  0  0
   -2.6974    5.5217   10.2235 C   0  0  0  0  0  0  0  0  0  0  0  0
   -2.1209    4.7402    9.2372 C   0  0  0  0  0  0  0  0  0  0  0  0
   -2.4132    6.8376   12.3860 C   0  0  0  0  0  0  0  0  0  0  0  0
   -5.4476    6.8462   14.1532 C   0  0  0  0  0  0  0  0  0  0  0  0
   -6.1534    7.5562   15.1916 C   0  0  0  0  0  0  0  0  0  0  0  0
   -5.5855    8.6753   15.8070 C   0  0  0  0  0  0  0  0  0  0  0  0
   -6.2656    9.3485   16.7969 C   0  0  0  0  0  0  0  0  0  0  0  0
   -7.5306    8.9198   17.1968 C   0  0  0  0  0  0  0  0  0  0  0  0
   -8.1041    7.8040   16.5885 C   0  0  0  0  0  0  0  0  0  0  0  0
   -7.4215    7.1330   15.5987 C   0  0  0  0  0  0  0  0  0  0  0  0
    0.9591    4.4903   10.2424 H   0  0  0  0  0  0  0  0  0  0  0  0
    0.0841    5.9346   12.0771 H   0  0  0  0  0  0  0  0  0  0  0  0
   -4.1534    5.7091   12.3832 H   0  0  0  0  0  0  0  0  0  0  0  0
   -7.7326   10.3033   18.5059 H   0  0  0  0  0  0  0  0  0  0  0  0
   -3.7365    5.8015   10.1414 H   0  0  0  0  0  0  0  0  0  0  0  0
   -2.7132    4.3903    8.4000 H   0  0  0  0  0  0  0  0  0  0  0  0
   -5.9525    5.9742   13.7125 H   0  0  0  0  0  0  0  0  0  0  0  0
   -4.6067    8.9959   15.4887 H   0  0  0  0  0  0  0  0  0  0  0  0
   -5.8212   10.2144   17.2699 H   0  0  0  0  0  0  0  0  0  0  0  0
   -9.0828    7.4859   16.9102 H   0  0  0  0  0  0  0  0  0  0  0  0
   -7.8727    6.2691   15.1325 H   0  0  0  0  0  0  0  0  0  0  0  0
  1  2  1  0  0  0  0
  2 32  1  0  0  0  0
  2 35  1  0  0  0  0
  3 13  2  0  0  0  0
  4 18  1  0  0  0  0
  5 12  1  0  0  0  0
  5  2  1  0  0  0  0
  6 13  1  0  0  0  0
  6 23  1  0  0  0  0
  7  6  1  0  0  0  0
  8 21  1  0  0  0  0
  8  5  1  0  0  0  0
  9  8  1  0  0  0  0
 10  9  2  0  0  0  0
 10 11  1  0  0  0  0
 11 25  1  0  0  0  0
 11 12  2  0  0  0  0
 12 26  1  0  0  0  0
 13 10  1  0  0  0  0
 14  7  2  0  0  0  0
 14 27  1  0  0  0  0
 15 14  1  0  0  0  0
 16 28  1  0  0  0  0
 16 15  2  0  0  0  0
 17 16  1  0  0  0  0
 18 17  2  0  0  0  0
 18 19  1  0  0  0  0
 19 20  2  0  0  0  0
 20 15  1  0  0  0  0
 20 31  1  0  0  0  0
 22  9  1  0  0  0  0
 24  4  1  0  0  0  0
 29 17  1  0  0  0  0
 30 19  1  0  0  0  0
 34 54  1  0  0  0  0
 35 38  1  0  0  0  0
 36 37  1  0  0  0  0
 37 44  2  0  0  0  0
 38 39  1  0  0  0  0
 39 40  2  0  0  0  0
 39 52  1  0  0  0  0
 40 43  1  0  0  0  0
 41 40  1  0  0  0  0
 42 35  1  0  0  0  0
 42 41  2  0  0  0  0
 43 36  1  0  0  0  0
 43 33  2  0  0  0  0
 44 45  1  0  0  0  0
 45 50  2  0  0  0  0
 45 46  1  0  0  0  0
 46 47  2  0  0  0  0
 47 48  1  0  0  0  0
 47 59  1  0  0  0  0
 48 34  1  0  0  0  0
 49 60  1  0  0  0  0
 49 48  2  0  0  0  0
 50 49  1  0  0  0  0
 51 38  1  0  0  0  0
 53 36  1  0  0  0  0
 55 41  1  0  0  0  0
 56 42  1  0  0  0  0
 57 44  1  0  0  0  0
 58 46  1  0  0  0  0
 61 50  1  0  0  0  0
M  END
$$$$
