CSD_code = DADNUS | q = 0 | S = 0 | Stoichiometry = C17H22ClN2Rh | MND = 6
 OpenBabel04212202023D

 43 44  0  0  1  0  0  0  0  0999 V2000
    5.7672    8.8029    8.5540 Rh  0  0  0  0  0  0  0  0  0  0  0  0
    7.7384    9.4557    9.4775 Cl  0  0  0  0  0 15  0  0  0  0  0  0
    6.9066    7.4842    7.6169 C   0  0  0  0  0  3  0  0  0  0  0  0
    7.5484    7.6817    6.4444 N   0  0  0  0  0  0  0  0  0  0  0  0
    7.4536    8.8823    5.6603 C   0  0  0  0  0  0  0  0  0  0  0  0
    8.3643    6.6108    6.1646 C   0  0  0  0  0  0  0  0  0  0  0  0
    8.2100    5.7092    7.2335 C   0  0  0  0  0  0  0  0  0  0  0  0
    7.3098    6.2877    8.0973 N   0  0  0  0  0  0  0  0  0  0  0  0
    6.9227    5.7547    9.3746 C   0  0  0  0  0  0  0  0  0  0  0  0
    8.8986    4.5076    7.2643 C   0  0  0  0  0  0  0  0  0  0  0  0
    9.7407    4.2348    6.2010 C   0  0  0  0  0  0  0  0  0  0  0  0
    9.8934    5.1273    5.1429 C   0  0  0  0  0  0  0  0  0  0  0  0
    9.2105    6.3299    5.1043 C   0  0  0  0  0  0  0  0  0  0  0  0
    4.0713    8.6512    7.2821 C   0  0  0  0  0  3  0  0  0  0  0  0
    3.9899    7.6955    8.2997 C   0  0  2  0  0  0  0  0  0  0  0  0
    3.0999    7.8113    9.5170 C   0  0  0  0  0  0  0  0  0  0  0  0
    3.1960    9.1791   10.2197 C   0  0  0  0  0  0  0  0  0  0  0  0
    4.5572    9.8171   10.0519 C   0  0  0  0  0  3  0  0  0  0  0  0
    4.8629   10.7003    9.0402 C   0  0  0  0  0  3  0  0  0  0  0  0
    3.9200   11.1039    7.9296 C   0  0  0  0  0  0  0  0  0  0  0  0
    3.2230    9.9064    7.2541 C   0  0  0  0  0  0  0  0  0  0  0  0
    8.4488    9.2936    5.4857 H   0  0  0  0  0  0  0  0  0  0  0  0
    6.8620    9.6087    6.2297 H   0  0  0  0  0  0  0  0  0  0  0  0
    6.9726    8.6827    4.6996 H   0  0  0  0  0  0  0  0  0  0  0  0
    6.3008    4.8644    9.2536 H   0  0  0  0  0  0  0  0  0  0  0  0
    6.3625    6.5319    9.9065 H   0  0  0  0  0  0  0  0  0  0  0  0
    7.8100    5.4978    9.9547 H   0  0  0  0  0  0  0  0  0  0  0  0
    8.7854    3.8138    8.0823 H   0  0  0  0  0  0  0  0  0  0  0  0
   10.2943    3.3084    6.1903 H   0  0  0  0  0  0  0  0  0  0  0  0
   10.5621    4.8738    4.3346 H   0  0  0  0  0  0  0  0  0  0  0  0
    9.3338    7.0189    4.2837 H   0  0  0  0  0  0  0  0  0  0  0  0
    4.3676    8.2926    6.2963 H   0  0  0  0  0  0  0  0  0  0  0  0
    4.1970    6.6600    8.0252 H   0  0  0  0  0  0  0  0  0  0  0  0
    3.3916    7.0288   10.2230 H   0  0  0  0  0  0  0  0  0  0  0  0
    2.0617    7.6110    9.2274 H   0  0  0  0  0  0  0  0  0  0  0  0
    2.9956    9.0419   11.2843 H   0  0  0  0  0  0  0  0  0  0  0  0
    2.4350    9.8591    9.8342 H   0  0  0  0  0  0  0  0  0  0  0  0
    5.1719    9.8430   10.9517 H   0  0  0  0  0  0  0  0  0  0  0  0
    5.6823   11.4006    9.2027 H   0  0  0  0  0  0  0  0  0  0  0  0
    4.4964   11.6495    7.1776 H   0  0  0  0  0  0  0  0  0  0  0  0
    3.1712   11.7980    8.3271 H   0  0  0  0  0  0  0  0  0  0  0  0
    2.2668    9.7001    7.7374 H   0  0  0  0  0  0  0  0  0  0  0  0
    3.0068   10.1679    6.2159 H   0  0  0  0  0  0  0  0  0  0  0  0
  3  8  1  0  0  0  0
  3  1  1  0  0  0  0
  4  3  1  0  0  0  0
  5 23  1  0  0  0  0
  5  4  1  0  0  0  0
  6  4  1  0  0  0  0
  6  7  1  0  0  0  0
  7 10  2  0  0  0  0
  7  8  1  0  0  0  0
  8  9  1  0  0  0  0
  9 26  1  0  0  0  0
  9 27  1  0  0  0  0
 10 28  1  0  0  0  0
 11 10  1  0  0  0  0
 12 11  2  0  0  0  0
 13 12  1  0  0  0  0
 13  6  2  0  0  0  0
 14 15  1  0  0  0  0
 15 33  1  6  0  0  0
 15  1  1  0  0  0  0
 15 16  1  0  0  0  0
 16 17  1  0  0  0  0
 16 34  1  0  0  0  0
 17 36  1  0  0  0  0
 18 17  1  0  0  0  0
 18 38  1  0  0  0  0
 19 39  1  0  0  0  0
 19 18  1  0  0  0  0
 20 41  1  0  0  0  0
 20 19  1  0  0  0  0
 21 14  1  0  0  0  0
 21 42  1  0  0  0  0
 21 20  1  0  0  0  0
 22  5  1  0  0  0  0
 24  5  1  0  0  0  0
 25  9  1  0  0  0  0
 29 11  1  0  0  0  0
 30 12  1  0  0  0  0
 31 13  1  0  0  0  0
 32 14  1  0  0  0  0
 35 16  1  0  0  0  0
 37 17  1  0  0  0  0
 40 20  1  0  0  0  0
 43 21  1  0  0  0  0
M  END
$$$$
