CSD_code = DADPAA | q = 0 | S = 0 | Stoichiometry = C13H20BrN2Rh | MND = 6
 OpenBabel04212202023D

 37 37  0  0  1  0  0  0  0  0999 V2000
   -1.2103    2.3073    4.0785 Rh  0  0  0  0  0  0  0  0  0  0  0  0
   -1.7613    4.3815    2.9680 Br  0  0  0  0  0 15  0  0  0  0  0  0
   -2.5446    2.9007    5.4396 C   0  0  1  0  0  3  0  0  0  0  0  0
   -2.3043    3.6642    6.5234 N   0  0  0  0  0  0  0  0  0  0  0  0
   -1.0064    4.1518    6.9019 C   0  0  0  0  0  0  0  0  0  0  0  0
   -3.4803    3.9689    7.1578 C   0  0  0  0  0  0  0  0  0  0  0  0
   -4.4724    3.3850    6.4475 C   0  0  0  0  0  0  0  0  0  0  0  0
   -3.8809    2.7368    5.3951 N   0  0  0  0  0  0  0  0  0  0  0  0
   -4.5813    2.0517    4.3438 C   0  0  0  0  0  0  0  0  0  0  0  0
   -0.2981    0.8273    5.3126 C   0  0  0  0  0  3  0  0  0  0  0  0
   -1.3938    0.2764    4.6404 C   0  0  2  0  0  0  0  0  0  0  0  0
   -1.2939   -0.6314    3.4354 C   0  0  0  0  0  0  0  0  0  0  0  0
   -0.3455   -0.0989    2.3444 C   0  0  0  0  0  0  0  0  0  0  0  0
   -0.2808    1.4121    2.3272 C   0  0  0  0  0  3  0  0  0  0  0  0
    0.6630    2.1401    3.0210 C   0  0  0  0  0  3  0  0  0  0  0  0
    1.7108    1.5472    3.9349 C   0  0  0  0  0  0  0  0  0  0  0  0
    1.1390    0.5278    4.9391 C   0  0  0  0  0  0  0  0  0  0  0  0
   -1.0245    5.2390    6.9901 H   0  0  0  0  0  0  0  0  0  0  0  0
   -0.2963    3.8710    6.1153 H   0  0  0  0  0  0  0  0  0  0  0  0
   -0.6888    3.7194    7.8535 H   0  0  0  0  0  0  0  0  0  0  0  0
   -3.5151    4.5717    8.0417 H   0  0  0  0  0  0  0  0  0  0  0  0
   -5.5322    3.3850    6.5984 H   0  0  0  0  0  0  0  0  0  0  0  0
   -5.3513    2.6993    3.9230 H   0  0  0  0  0  0  0  0  0  0  0  0
   -5.0455    1.1352    4.7153 H   0  0  0  0  0  0  0  0  0  0  0  0
   -3.8582    1.8051    3.5585 H   0  0  0  0  0  0  0  0  0  0  0  0
   -0.4424    1.0722    6.3653 H   0  0  0  0  0  0  0  0  0  0  0  0
   -2.2984    0.1026    5.2262 H   0  0  0  0  0  0  0  0  0  0  0  0
   -2.2962   -0.7421    3.0116 H   0  0  0  0  0  0  0  0  0  0  0  0
   -0.9716   -1.6281    3.7594 H   0  0  0  0  0  0  0  0  0  0  0  0
   -0.6957   -0.4507    1.3716 H   0  0  0  0  0  0  0  0  0  0  0  0
    0.6606   -0.4967    2.4869 H   0  0  0  0  0  0  0  0  0  0  0  0
   -0.7527    1.8817    1.4633 H   0  0  0  0  0  0  0  0  0  0  0  0
    0.9178    3.1345    2.6523 H   0  0  0  0  0  0  0  0  0  0  0  0
    2.1810    2.3655    4.4877 H   0  0  0  0  0  0  0  0  0  0  0  0
    2.4938    1.0788    3.3280 H   0  0  0  0  0  0  0  0  0  0  0  0
    1.1970   -0.4827    4.5308 H   0  0  0  0  0  0  0  0  0  0  0  0
    1.7530    0.5435    5.8425 H   0  0  0  0  0  0  0  0  0  0  0  0
  1 11  1  0  0  0  0
  3  1  1  6  0  0  0
  3  4  1  0  0  0  0
  4  5  1  0  0  0  0
  4  6  1  0  0  0  0
  5 18  1  0  0  0  0
  5 20  1  0  0  0  0
  6 21  1  0  0  0  0
  7 22  1  0  0  0  0
  7  6  2  0  0  0  0
  8  3  1  0  0  0  0
  8  7  1  0  0  0  0
  9 24  1  0  0  0  0
  9  8  1  0  0  0  0
 10 26  1  0  0  0  0
 11 27  1  1  0  0  0
 11 10  1  0  0  0  0
 12 29  1  0  0  0  0
 12 11  1  0  0  0  0
 13 31  1  0  0  0  0
 13 12  1  0  0  0  0
 14 13  1  0  0  0  0
 14 15  1  0  0  0  0
 15 16  1  0  0  0  0
 16 34  1  0  0  0  0
 16 17  1  0  0  0  0
 17 10  1  0  0  0  0
 17 37  1  0  0  0  0
 19  5  1  0  0  0  0
 23  9  1  0  0  0  0
 25  9  1  0  0  0  0
 28 12  1  0  0  0  0
 30 13  1  0  0  0  0
 32 14  1  0  0  0  0
 33 15  1  0  0  0  0
 35 16  1  0  0  0  0
 36 17  1  0  0  0  0
M  END
$$$$
