CSD_code = DAFPEH | q = 0 | S = 0 | Stoichiometry = C26H32Br2N2Ni | MND = 4
 OpenBabel04212202023D

 63 66  0  0  1  0  0  0  0  0999 V2000
   14.6377    4.1857   11.6559 Ni  0  0  0  0  0  0  0  0  0  0  0  0
   16.4506    4.6644   11.6229 N   0  0  0  0  0  0  0  0  0  0  0  0
   15.1604    3.2351    9.8745 N   0  0  0  0  0  0  0  0  0  0  0  0
   16.8999    4.7156   10.4141 C   0  0  2  0  0  3  0  0  0  0  0  0
   14.4418    2.4342    9.0624 C   0  0  0  0  0  0  0  0  0  0  0  0
   18.8254    5.2385   14.3709 C   0  0  0  0  0  0  0  0  0  0  0  0
   19.6172    4.7214   14.8896 H   0  0  0  0  0  0  0  0  0  0  0  0
   13.5268    1.4922    9.6117 C   0  0  0  0  0  0  0  0  0  0  0  0
   13.5058    1.2116   11.0928 C   0  0  0  0  0  0  0  0  0  0  0  0
   13.9758    2.0600   11.6289 H   0  0  0  0  0  0  0  0  0  0  0  0
   14.5838    7.8091   13.5110 C   0  0  0  0  0  0  0  0  0  0  0  0
   14.3158    7.0228   14.2124 H   0  0  0  0  0  0  0  0  0  0  0  0
   13.6760    8.1595   13.0248 H   0  0  0  0  0  0  0  0  0  0  0  0
   15.0170    8.6381   14.0644 H   0  0  0  0  0  0  0  0  0  0  0  0
   12.8480    0.9180    7.3515 C   0  0  0  0  0  0  0  0  0  0  0  0
   12.2008    0.3372    6.7116 H   0  0  0  0  0  0  0  0  0  0  0  0
   17.1304    5.2934   12.6868 C   0  0  0  0  0  0  0  0  0  0  0  0
   16.1482    3.9836    9.3979 C   0  0  0  0  0  0  0  0  0  0  0  0
   15.5559    7.2730   12.4592 C   0  0  0  0  0  0  0  0  0  0  0  0
   14.9900    6.5427   11.8457 H   0  0  0  0  0  0  0  0  0  0  0  0
   14.6105    2.5171    7.6488 C   0  0  0  0  0  0  0  0  0  0  0  0
   12.7458    0.7712    8.7404 C   0  0  0  0  0  0  0  0  0  0  0  0
   12.0376    0.0578    9.1306 H   0  0  0  0  0  0  0  0  0  0  0  0
   15.6259    3.3626    7.1540 C   0  0  0  0  0  0  0  0  0  0  0  0
   15.7672    3.4410    6.0856 H   0  0  0  0  0  0  0  0  0  0  0  0
   16.4277    4.0533    8.0173 C   0  0  0  0  0  0  0  0  0  0  0  0
   17.2310    4.6734    7.6547 H   0  0  0  0  0  0  0  0  0  0  0  0
   17.4459    7.1797   14.1223 C   0  0  0  0  0  0  0  0  0  0  0  0
   17.1731    8.1727   14.4418 H   0  0  0  0  0  0  0  0  0  0  0  0
   16.7348    6.5734   13.0987 C   0  0  0  0  0  0  0  0  0  0  0  0
   13.7824    1.7557    6.8074 C   0  0  0  0  0  3  0  0  0  0  0  0
   13.9056    1.8400    5.7378 H   0  0  0  0  0  0  0  0  0  0  0  0
   16.0289    8.3952   11.5338 C   0  0  0  0  0  0  0  0  0  0  0  0
   16.6863    8.0131   10.7543 H   0  0  0  0  0  0  0  0  0  0  0  0
   16.5747    9.1464   12.1009 H   0  0  0  0  0  0  0  0  0  0  0  0
   15.1747    8.8738   11.0599 H   0  0  0  0  0  0  0  0  0  0  0  0
   12.0989    1.0240   11.6549 C   0  0  0  0  0  0  0  0  0  0  0  0
   11.4564    1.8482   11.3558 H   0  0  0  0  0  0  0  0  0  0  0  0
   12.1442    1.0051   12.7411 H   0  0  0  0  0  0  0  0  0  0  0  0
   11.6563    0.0899   11.3172 H   0  0  0  0  0  0  0  0  0  0  0  0
   18.4856    3.1689   12.9778 C   0  0  0  0  0  0  0  0  0  0  0  0
   17.9012    2.8745   12.0991 H   0  0  0  0  0  0  0  0  0  0  0  0
   19.9665    2.9964   12.6358 C   0  0  0  0  0  0  0  0  0  0  0  0
   20.2650    3.6818   11.8441 H   0  0  0  0  0  0  0  0  0  0  0  0
   20.1538    1.9788   12.2997 H   0  0  0  0  0  0  0  0  0  0  0  0
   20.5914    3.1858   13.5042 H   0  0  0  0  0  0  0  0  0  0  0  0
   18.0753    2.2510   14.1326 C   0  0  0  0  0  0  0  0  0  0  0  0
   17.0214    2.3875   14.3637 H   0  0  0  0  0  0  0  0  0  0  0  0
   18.6518    2.4754   15.0262 H   0  0  0  0  0  0  0  0  0  0  0  0
   18.2437    1.2107   13.8629 H   0  0  0  0  0  0  0  0  0  0  0  0
   18.1560    4.5986   13.3388 C   0  0  0  0  0  0  0  0  0  0  0  0
   14.3738   -0.0211   11.3694 C   0  0  0  0  0  0  0  0  0  0  0  0
   15.3910    0.1338   11.0138 H   0  0  0  0  0  0  0  0  0  0  0  0
   13.9633   -0.8964   10.8693 H   0  0  0  0  0  0  0  0  0  0  0  0
   14.4075   -0.2132   12.4388 H   0  0  0  0  0  0  0  0  0  0  0  0
   18.4912    6.5252   14.7462 C   0  0  0  0  0  0  0  0  0  0  0  0
   19.0318    7.0121   15.5437 H   0  0  0  0  0  0  0  0  0  0  0  0
   18.1440    5.4493   10.0250 C   0  0  0  0  0  0  0  0  0  0  0  0
   18.6038    5.9143   10.8945 H   0  0  0  0  0  0  0  0  0  0  0  0
   17.9111    6.2221    9.2925 H   0  0  0  0  0  0  0  0  0  0  0  0
   18.8552    4.7579    9.5733 H   0  0  0  0  0  0  0  0  0  0  0  0
   14.3646    4.0032   13.8727 Br  0  0  0  0  0  0  0  0  0  0  0  0
   12.5397    4.6760   11.1510 Br  0  0  0  0  0  0  0  0  0  0  0  0
  1 62  1  0  0  0  0
  2  1  1  0  0  0  0
  2 17  1  0  0  0  0
  3  1  1  0  0  0  0
  4 58  1  1  0  0  0
  4  2  1  0  0  0  0
  5  8  2  0  0  0  0
  5  3  1  0  0  0  0
  6 56  1  0  0  0  0
  6  7  1  0  0  0  0
  8  9  1  0  0  0  0
  9 52  1  0  0  0  0
  9 10  1  0  0  0  0
  9 37  1  0  0  0  0
 11 14  1  0  0  0  0
 11 12  1  0  0  0  0
 13 11  1  0  0  0  0
 15 22  2  0  0  0  0
 16 15  1  0  0  0  0
 17 30  2  0  0  0  0
 17 51  1  0  0  0  0
 18  3  1  0  0  0  0
 18  4  1  0  0  0  0
 19 30  1  0  0  0  0
 19 11  1  0  0  0  0
 20 19  1  0  0  0  0
 21  5  1  0  0  0  0
 22 23  1  0  0  0  0
 22  8  1  0  0  0  0
 24 21  2  0  0  0  0
 24 26  1  0  0  0  0
 25 24  1  0  0  0  0
 26 18  2  0  0  0  0
 27 26  1  0  0  0  0
 28 29  1  0  0  0  0
 28 56  2  0  0  0  0
 30 28  1  0  0  0  0
 31 15  1  0  0  0  0
 31 21  1  0  0  0  0
 32 31  1  0  0  0  0
 33 35  1  0  0  0  0
 33 19  1  0  0  0  0
 34 33  1  0  0  0  0
 36 33  1  0  0  0  0
 37 39  1  0  0  0  0
 38 37  1  0  0  0  0
 40 37  1  0  0  0  0
 41 51  1  0  0  0  0
 41 47  1  0  0  0  0
 42 41  1  0  0  0  0
 43 41  1  0  0  0  0
 43 46  1  0  0  0  0
 44 43  1  0  0  0  0
 45 43  1  0  0  0  0
 47 48  1  0  0  0  0
 47 49  1  0  0  0  0
 50 47  1  0  0  0  0
 51  6  2  0  0  0  0
 52 55  1  0  0  0  0
 53 52  1  0  0  0  0
 54 52  1  0  0  0  0
 56 57  1  0  0  0  0
 58 59  1  0  0  0  0
 60 58  1  0  0  0  0
 61 58  1  0  0  0  0
 63  1  1  0  0  0  0
M  END
$$$$
