CSD_code = DAFQAE | q = 0 | S = 0 | Stoichiometry = C18H16Cl2N4Pd | MND = 4
 OpenBabel04212202023D

 41 44  0  0  1  0  0  0  0  0999 V2000
    4.6186    1.0726    6.0738 Pd  0  0  0  0  0  0  0  0  0  0  0  0
    5.6728   -0.0355    4.3532 Cl  0  0  0  0  0  0  0  0  0  0  0  0
    3.0729    1.4516    4.8604 N   0  0  0  0  0  0  0  0  0  0  0  0
    3.1433    1.1015    3.5730 N   0  0  0  0  0  0  0  0  0  0  0  0
    4.0043    0.6287    3.2672 H   0  0  0  0  0  0  0  0  0  0  0  0
    2.0211    1.4263    2.9043 C   0  0  2  0  0  3  0  0  0  0  0  0
    1.8822    2.0175    5.0389 C   0  0  0  0  0  0  0  0  0  0  0  0
    1.5685    2.3912    5.9960 H   0  0  0  0  0  0  0  0  0  0  0  0
    1.1822    2.0292    3.8370 C   0  0  0  0  0  0  0  0  0  0  0  0
    0.1953    2.4111    3.6811 H   0  0  0  0  0  0  0  0  0  0  0  0
    1.8281    1.1506    1.4913 C   0  0  0  0  0  0  0  0  0  0  0  0
    0.7895    1.7678    0.7931 C   0  0  0  0  0  0  0  0  0  0  0  0
    0.1391    2.4594    1.3054 H   0  0  0  0  0  0  0  0  0  0  0  0
    0.5974    1.5093   -0.5503 C   0  0  0  0  0  0  0  0  0  0  0  0
   -0.2089    1.9950   -1.0795 H   0  0  0  0  0  0  0  0  0  0  0  0
    2.4694    0.0136   -0.5335 C   0  0  0  0  0  0  0  0  0  0  0  0
    3.1244   -0.6725   -1.0493 H   0  0  0  0  0  0  0  0  0  0  0  0
    1.4363    0.6323   -1.2183 C   0  0  0  0  0  0  0  0  0  0  0  0
    1.2851    0.4315   -2.2682 H   0  0  0  0  0  0  0  0  0  0  0  0
    2.6677    0.2672    0.8103 C   0  0  0  0  0  0  0  0  0  0  0  0
    3.4699   -0.2334    1.3312 H   0  0  0  0  0  0  0  0  0  0  0  0
    3.5642    2.1803    7.7945 Cl  0  0  0  0  0  0  0  0  0  0  0  0
    6.1643    0.6935    7.2871 N   0  0  0  0  0  0  0  0  0  0  0  0
    6.0939    1.0436    8.5745 N   0  0  0  0  0  0  0  0  0  0  0  0
    5.2329    1.5163    8.8804 H   0  0  0  0  0  0  0  0  0  0  0  0
    7.2162    0.7190    9.2432 C   0  0  1  0  0  3  0  0  0  0  0  0
    7.3551    0.1277    7.1087 C   0  0  0  0  0  0  0  0  0  0  0  0
    7.6688   -0.2461    6.1515 H   0  0  0  0  0  0  0  0  0  0  0  0
    8.0552    0.1162    8.3105 C   0  0  0  0  0  0  0  0  0  0  0  0
    9.0421   -0.2656    8.4664 H   0  0  0  0  0  0  0  0  0  0  0  0
    7.4092    0.9947   10.6562 C   0  0  0  0  0  0  0  0  0  0  0  0
    8.4475    0.3774   11.3546 C   0  0  0  0  0  0  0  0  0  0  0  0
    9.0979   -0.3144   10.8423 H   0  0  0  0  0  0  0  0  0  0  0  0
    8.6394    0.6358   12.6980 C   0  0  0  0  0  0  0  0  0  0  0  0
    9.4455    0.1499   13.2273 H   0  0  0  0  0  0  0  0  0  0  0  0
    6.7677    2.1318   12.6810 C   0  0  0  0  0  0  0  0  0  0  0  0
    6.1127    2.8180   13.1967 H   0  0  0  0  0  0  0  0  0  0  0  0
    7.8005    1.5128   13.3659 C   0  0  0  0  0  0  0  0  0  0  0  0
    7.9515    1.7135   14.4159 H   0  0  0  0  0  0  0  0  0  0  0  0
    6.5695    1.8782   11.3370 C   0  0  0  0  0  0  0  0  0  0  0  0
    5.7676    2.3790   10.8160 H   0  0  0  0  0  0  0  0  0  0  0  0
  1 23  1  0  0  0  0
  1 22  1  0  0  0  0
  2  1  1  0  0  0  0
  3  7  1  0  0  0  0
  3  1  1  0  0  0  0
  4  3  1  0  0  0  0
  5  4  1  0  0  0  0
  6 11  1  1  0  0  0
  6  4  1  0  0  0  0
  6  9  1  0  0  0  0
  7  8  1  0  0  0  0
  9  7  2  0  0  0  0
 10  9  1  0  0  0  0
 12 13  1  0  0  0  0
 12 11  2  0  0  0  0
 14 12  1  0  0  0  0
 15 14  1  0  0  0  0
 16 20  2  0  0  0  0
 17 16  1  0  0  0  0
 18 14  2  0  0  0  0
 18 16  1  0  0  0  0
 19 18  1  0  0  0  0
 20 21  1  0  0  0  0
 20 11  1  0  0  0  0
 23 24  1  0  0  0  0
 24 25  1  0  0  0  0
 24 26  1  0  0  0  0
 26 31  1  6  0  0  0
 27 23  1  0  0  0  0
 27 29  2  0  0  0  0
 28 27  1  0  0  0  0
 29 30  1  0  0  0  0
 29 26  1  0  0  0  0
 31 40  2  0  0  0  0
 31 32  1  0  0  0  0
 32 34  2  0  0  0  0
 33 32  1  0  0  0  0
 34 35  1  0  0  0  0
 34 38  1  0  0  0  0
 36 37  1  0  0  0  0
 36 38  2  0  0  0  0
 38 39  1  0  0  0  0
 40 36  1  0  0  0  0
 41 40  1  0  0  0  0
M  END
$$$$
