CSD_code = DAFXEO | q = 0 | S = 0 | Stoichiometry = C24H30Cl2N2O2Ti | MND = 6
 OpenBabel04212202023D

 61 65  0  0  1  0  0  0  0  0999 V2000
   10.0416    1.3297    4.0291 Ti  0  0  0  0  0  0  0  0  0  0  0  0
   11.4251    3.1757    4.0708 Cl  0  0  0  0  0  0  0  0  0  0  0  0
    8.3732   -0.2515    4.2330 Cl  0  0  0  0  0  0  0  0  0  0  0  0
   11.2730    0.2895    4.6877 O   0  0  0  0  0  0  0  0  0  0  0  0
   10.0649    1.2013    2.2924 O   0  0  0  0  0  0  0  0  0  0  0  0
    9.6038    1.8014    5.9866 N   0  0  1  0  0  0  0  0  0  0  0  0
    8.5147    2.6859    3.7595 N   0  0  1  0  0  0  0  0  0  0  0  0
   10.4016    1.6509    6.9744 C   0  0  0  0  0  3  0  0  0  0  0  0
   10.1304    2.0635    7.9558 H   0  0  0  0  0  0  0  0  0  0  0  0
   11.6530    0.9571    6.9128 C   0  0  0  0  0  0  0  0  0  0  0  0
   12.4808    0.9360    8.0449 C   0  0  0  0  0  0  0  0  0  0  0  0
   12.1646    1.4582    8.9363 H   0  0  0  0  0  0  0  0  0  0  0  0
   13.6786    0.2704    8.0126 C   0  0  0  0  0  0  0  0  0  0  0  0
   14.3218    0.2583    8.8789 H   0  0  0  0  0  0  0  0  0  0  0  0
   14.0715   -0.3984    6.8540 C   0  0  0  0  0  0  0  0  0  0  0  0
   15.0195   -0.9108    6.8679 H   0  0  0  0  0  0  0  0  0  0  0  0
   13.2945   -0.4225    5.7130 C   0  0  0  0  0  0  0  0  0  0  0  0
   13.7134   -1.1581    4.4473 C   0  0  0  0  0  0  0  0  0  0  0  0
   15.0773   -1.8426    4.5884 C   0  0  0  0  0  0  0  0  0  0  0  0
   15.3190   -2.3491    3.6563 H   0  0  0  0  0  0  0  0  0  0  0  0
   15.0654   -2.5884    5.3798 H   0  0  0  0  0  0  0  0  0  0  0  0
   15.8632   -1.1182    4.7888 H   0  0  0  0  0  0  0  0  0  0  0  0
   13.8085   -0.1516    3.2902 C   0  0  0  0  0  0  0  0  0  0  0  0
   14.1030   -0.6643    2.3770 H   0  0  0  0  0  0  0  0  0  0  0  0
   14.5537    0.6087    3.5174 H   0  0  0  0  0  0  0  0  0  0  0  0
   12.8534    0.3469    3.1162 H   0  0  0  0  0  0  0  0  0  0  0  0
   12.6703   -2.2428    4.1366 C   0  0  0  0  0  0  0  0  0  0  0  0
   12.9362   -2.7633    3.2191 H   0  0  0  0  0  0  0  0  0  0  0  0
   11.6763   -1.8148    4.0155 H   0  0  0  0  0  0  0  0  0  0  0  0
   12.6344   -2.9687    4.9472 H   0  0  0  0  0  0  0  0  0  0  0  0
   12.0553    0.2754    5.7272 C   0  0  0  0  0  0  0  0  0  0  0  0
    9.2032    1.2779    1.3205 C   0  0  0  0  0  0  0  0  0  0  0  0
    9.4190    0.6090    0.0841 C   0  0  0  0  0  0  0  0  0  0  0  0
   10.6804   -0.2250   -0.0944 C   0  0  0  0  0  0  0  0  0  0  0  0
   11.9054    0.6913    0.0505 C   0  0  0  0  0  0  0  0  0  0  0  0
   12.8193    0.1098   -0.0490 H   0  0  0  0  0  0  0  0  0  0  0  0
   11.9162    1.1891    1.0190 H   0  0  0  0  0  0  0  0  0  0  0  0
   11.8950    1.4536   -0.7267 H   0  0  0  0  0  0  0  0  0  0  0  0
   10.7045   -1.3319    0.9710 C   0  0  0  0  0  0  0  0  0  0  0  0
   11.6018   -1.9365    0.8565 H   0  0  0  0  0  0  0  0  0  0  0  0
    9.8346   -1.9767    0.8590 H   0  0  0  0  0  0  0  0  0  0  0  0
   10.6933   -0.9143    1.9791 H   0  0  0  0  0  0  0  0  0  0  0  0
   10.7528   -0.8955   -1.4706 C   0  0  0  0  0  0  0  0  0  0  0  0
   11.6718   -1.4741   -1.5363 H   0  0  0  0  0  0  0  0  0  0  0  0
   10.7652   -0.1580   -2.2697 H   0  0  0  0  0  0  0  0  0  0  0  0
    9.9179   -1.5757   -1.6219 H   0  0  0  0  0  0  0  0  0  0  0  0
    8.4652    0.7405   -0.9055 C   0  0  0  0  0  0  0  0  0  0  0  0
    8.5985    0.2370   -1.8489 H   0  0  0  0  0  0  0  0  0  0  0  0
    7.3149    1.5105   -0.7382 C   0  0  0  0  0  0  0  0  0  0  0  0
    6.6000    1.5822   -1.5433 H   0  0  0  0  0  0  0  0  0  0  0  0
    7.0996    2.1700    0.4439 C   0  0  0  0  0  0  0  0  0  0  0  0
    6.2120    2.7692    0.5868 H   0  0  0  0  0  0  0  0  0  0  0  0
    8.0271    2.0653    1.4909 C   0  0  0  0  0  0  0  0  0  0  0  0
    7.7835    2.7696    2.7138 C   0  0  0  0  0  3  0  0  0  0  0  0
    6.9036    3.4274    2.7209 H   0  0  0  0  0  0  0  0  0  0  0  0
    8.2040    3.4437    4.9415 C   0  0  0  0  0  0  0  0  0  0  0  0
    8.9476    4.2493    5.0287 H   0  0  0  0  0  0  0  0  0  0  0  0
    7.1932    3.8775    4.9071 H   0  0  0  0  0  0  0  0  0  0  0  0
    8.3553    2.4975    6.1443 C   0  0  0  0  0  0  0  0  0  0  0  0
    8.3032    3.0545    7.0919 H   0  0  0  0  0  0  0  0  0  0  0  0
    7.5485    1.7509    6.1112 H   0  0  0  0  0  0  0  0  0  0  0  0
  1  2  1  0  0  0  0
  1  3  1  0  0  0  0
  1  4  1  0  0  0  0
  1  6  1  0  0  0  0
  4 31  1  0  0  0  0
  5  1  1  0  0  0  0
  6 59  1  0  0  0  0
  6  8  1  6  0  0  0
  7 54  1  1  0  0  0
  7  1  1  0  0  0  0
  7 56  1  0  0  0  0
  8  9  1  0  0  0  0
 10  8  1  0  0  0  0
 10 11  1  0  0  0  0
 11 12  1  0  0  0  0
 13 11  2  0  0  0  0
 13 14  1  0  0  0  0
 15 16  1  0  0  0  0
 15 13  1  0  0  0  0
 17 31  1  0  0  0  0
 17 15  2  0  0  0  0
 18 19  1  0  0  0  0
 18 17  1  0  0  0  0
 19 22  1  0  0  0  0
 19 21  1  0  0  0  0
 20 19  1  0  0  0  0
 23 25  1  0  0  0  0
 23 18  1  0  0  0  0
 24 23  1  0  0  0  0
 26 23  1  0  0  0  0
 27 18  1  0  0  0  0
 27 30  1  0  0  0  0
 28 27  1  0  0  0  0
 29 27  1  0  0  0  0
 31 10  2  0  0  0  0
 32 53  1  0  0  0  0
 32  5  1  0  0  0  0
 33 32  2  0  0  0  0
 34 35  1  0  0  0  0
 34 33  1  0  0  0  0
 34 39  1  0  0  0  0
 35 37  1  0  0  0  0
 36 35  1  0  0  0  0
 38 35  1  0  0  0  0
 39 42  1  0  0  0  0
 40 39  1  0  0  0  0
 41 39  1  0  0  0  0
 43 34  1  0  0  0  0
 44 43  1  0  0  0  0
 45 43  1  0  0  0  0
 46 43  1  0  0  0  0
 47 49  2  0  0  0  0
 47 33  1  0  0  0  0
 48 47  1  0  0  0  0
 49 51  1  0  0  0  0
 50 49  1  0  0  0  0
 51 52  1  0  0  0  0
 51 53  2  0  0  0  0
 53 54  1  0  0  0  0
 54 55  1  0  0  0  0
 56 57  1  0  0  0  0
 56 59  1  0  0  0  0
 58 56  1  0  0  0  0
 59 60  1  0  0  0  0
 61 59  1  0  0  0  0
M  END
$$$$
