CSD_code = DAFYIU | q = 1 | S = 0 | Stoichiometry = C12H24Cl2CoN4(1+) | MND = 6
 OpenBabel04212202023D

 43 46  0  0  1  0  0  0  0  0999 V2000
    2.2857    2.3134    1.1343 Co  0  0  0  0  0  0  0  0  0  0  0  0
    0.1286    2.3134    0.7502 Cl  0  0  0  0  0  0  0  0  0  0  0  0
    4.5026    2.3130    1.4914 Cl  0  0  0  0  0  0  0  0  0  0  0  0
    2.1276    0.8990    2.5125 N   0  0  1  0  0  4  0  0  0  0  0  0
    2.5041    0.9301   -0.1193 N   0  0  2  0  0  0  0  0  0  0  0  0
    1.2118    1.0535    3.6480 C   0  0  0  0  0  0  0  0  0  0  0  0
    1.5191    2.3134    4.4472 C   0  0  0  0  0  0  0  0  0  0  0  0
    1.8872   -0.3579    1.7992 C   0  0  0  0  0  0  0  0  0  0  0  0
    2.7431   -0.3419    0.5397 C   0  0  0  0  0  0  0  0  0  0  0  0
    2.4695    1.0190   -1.3883 C   0  0  2  0  0  3  0  0  0  0  0  0
    2.1825    2.3134   -2.0862 C   0  0  0  0  0  0  0  0  0  0  0  0
    2.6668   -0.1503   -2.3019 C   0  0  0  0  0  0  0  0  0  0  0  0
    3.6433   -0.6027   -2.1327 H   0  0  0  0  0  0  0  0  0  0  0  0
    2.5993    0.1457   -3.3437 H   0  0  0  0  0  0  0  0  0  0  0  0
    1.9087   -0.9118   -2.1190 H   0  0  0  0  0  0  0  0  0  0  0  0
    1.2917    0.1762    4.3007 H   0  0  0  0  0  0  0  0  0  0  0  0
    0.1924    1.1052    3.2577 H   0  0  0  0  0  0  0  0  0  0  0  0
    0.9040    2.3134    5.3467 H   0  0  0  0  0  0  0  0  0  0  0  0
    2.5669    2.3134    4.7585 H   0  0  0  0  0  0  0  0  0  0  0  0
    0.8302   -0.3937    1.5206 H   0  0  0  0  0  0  0  0  0  0  0  0
    2.1225   -1.2279    2.4217 H   0  0  0  0  0  0  0  0  0  0  0  0
    2.4953   -1.1947   -0.0935 H   0  0  0  0  0  0  0  0  0  0  0  0
    3.8056   -0.3885    0.8038 H   0  0  0  0  0  0  0  0  0  0  0  0
    2.7031    2.3134   -3.0456 H   0  0  0  0  0  0  0  0  0  0  0  0
    1.1060    2.3134   -2.3126 H   0  0  0  0  0  0  0  0  0  0  0  0
    3.0828    0.8628    2.8865 H   0  0  0  0  0  0  0  0  0  0  0  0
    2.1276    3.7278    2.5125 N   0  0  2  0  0  4  0  0  0  0  0  0
    2.5040    3.6967   -0.1193 N   0  0  1  0  0  0  0  0  0  0  0  0
    1.2118    3.5734    3.6480 C   0  0  0  0  0  0  0  0  0  0  0  0
    1.8872    4.9848    1.7992 C   0  0  0  0  0  0  0  0  0  0  0  0
    2.7431    4.9687    0.5396 C   0  0  0  0  0  0  0  0  0  0  0  0
    2.4695    3.6078   -1.3883 C   0  0  2  0  0  3  0  0  0  0  0  0
    2.6668    4.7771   -2.3019 C   0  0  0  0  0  0  0  0  0  0  0  0
    3.6432    5.2296   -2.1327 H   0  0  0  0  0  0  0  0  0  0  0  0
    2.5992    4.4811   -3.3437 H   0  0  0  0  0  0  0  0  0  0  0  0
    1.9087    5.5386   -2.1190 H   0  0  0  0  0  0  0  0  0  0  0  0
    1.2917    4.4506    4.3007 H   0  0  0  0  0  0  0  0  0  0  0  0
    0.1924    3.5217    3.2577 H   0  0  0  0  0  0  0  0  0  0  0  0
    0.8302    5.0206    1.5206 H   0  0  0  0  0  0  0  0  0  0  0  0
    2.1226    5.8548    2.4217 H   0  0  0  0  0  0  0  0  0  0  0  0
    2.4953    5.8216   -0.0935 H   0  0  0  0  0  0  0  0  0  0  0  0
    3.8056    5.0153    0.8037 H   0  0  0  0  0  0  0  0  0  0  0  0
    3.0827    3.7641    2.8865 H   0  0  0  0  0  0  0  0  0  0  0  0
  1  3  1  0  0  0  0
  1  4  1  0  0  0  0
  1 27  1  0  0  0  0
  2  1  1  0  0  0  0
  4 26  1  1  0  0  0
  4  6  1  0  0  0  0
  5  9  1  6  0  0  0
  5  1  1  0  0  0  0
  6 16  1  0  0  0  0
  6  7  1  0  0  0  0
  7 19  1  0  0  0  0
  7 18  1  0  0  0  0
  8 21  1  0  0  0  0
  8  4  1  0  0  0  0
  9 23  1  0  0  0  0
  9  8  1  0  0  0  0
 10 12  1  1  0  0  0
 10  5  1  0  0  0  0
 11 32  1  0  0  0  0
 11 10  1  0  0  0  0
 12 13  1  0  0  0  0
 12 15  1  0  0  0  0
 14 12  1  0  0  0  0
 17  6  1  0  0  0  0
 20  8  1  0  0  0  0
 22  9  1  0  0  0  0
 24 11  1  0  0  0  0
 25 11  1  0  0  0  0
 27 43  1  1  0  0  0
 27 29  1  0  0  0  0
 28 31  1  6  0  0  0
 28  1  1  0  0  0  0
 29 37  1  0  0  0  0
 29  7  1  0  0  0  0
 30 40  1  0  0  0  0
 30 27  1  0  0  0  0
 31 42  1  0  0  0  0
 31 30  1  0  0  0  0
 32 33  1  1  0  0  0
 32 28  1  0  0  0  0
 33 34  1  0  0  0  0
 33 36  1  0  0  0  0
 35 33  1  0  0  0  0
 38 29  1  0  0  0  0
 39 30  1  0  0  0  0
 41 31  1  0  0  0  0
M  END
$$$$
