CSD_code = DAGGIB | q = 0 | S = 0 | Stoichiometry = C24H23CuIN3 | MND = 4
 OpenBabel04212202023D

 52 55  0  0  0  0  0  0  0  0999 V2000
    2.1683    3.6315    1.0164 I   0  0  0  0  0  0  0  0  0  0  0  0
    0.9072    1.4750    0.9890 Cu  0  0  0  0  0  0  0  0  0  0  0  0
   -0.0461    0.6107    2.7077 N   0  0  0  0  0  0  0  0  0  0  0  0
    2.2247    0.0053    1.2171 N   0  0  0  0  0  0  0  0  0  0  0  0
   -1.5757    2.6439    0.0739 N   0  0  0  0  0  2  0  0  0  0  0  0
    0.4903   -0.7215    2.7204 C   0  0  0  0  0  0  0  0  0  0  0  0
    1.9980   -0.6197    2.4922 C   0  0  0  0  0  0  0  0  0  0  0  0
    3.3322   -0.1801    0.6112 C   0  0  0  0  0  3  0  0  0  0  0  0
    3.6888    0.4019   -0.6631 C   0  0  0  0  0  0  0  0  0  0  0  0
    2.7447    0.9721   -1.5208 C   0  0  0  0  0  0  0  0  0  0  0  0
    3.1413    1.5533   -2.7078 C   0  0  0  0  0  0  0  0  0  0  0  0
    4.4815    1.5756   -3.0605 C   0  0  0  0  0  0  0  0  0  0  0  0
    5.4260    0.9966   -2.2273 C   0  0  0  0  0  0  0  0  0  0  0  0
    5.0345    0.4078   -1.0423 C   0  0  0  0  0  0  0  0  0  0  0  0
   -1.1898    0.8465    3.2099 C   0  0  0  0  0  3  0  0  0  0  0  0
   -1.7826    2.1666    3.2816 C   0  0  0  0  0  0  0  0  0  0  0  0
   -1.0035    3.3223    3.2068 C   0  0  0  0  0  0  0  0  0  0  0  0
   -1.5944    4.5683    3.2674 C   0  0  0  0  0  0  0  0  0  0  0  0
   -2.9684    4.6812    3.4098 C   0  0  0  0  0  0  0  0  0  0  0  0
   -3.7505    3.5403    3.5013 C   0  0  0  0  0  0  0  0  0  0  0  0
   -3.1641    2.2914    3.4457 C   0  0  0  0  0  0  0  0  0  0  0  0
   -0.7294    1.8336    0.1067 C   0  0  0  0  0  2  0  0  0  0  0  0
   -2.4180    3.7034    0.1081 C   0  0  0  0  0  0  0  0  0  0  0  0
   -3.7921    3.5065    0.2145 C   0  0  0  0  0  0  0  0  0  0  0  0
   -4.6286    4.6020    0.2772 C   0  0  0  0  0  0  0  0  0  0  0  0
   -4.1205    5.8960    0.2327 C   0  0  0  0  0  0  0  0  0  0  0  0
   -2.7449    6.0723    0.1177 C   0  0  0  0  0  0  0  0  0  0  0  0
   -1.8894    4.9928    0.0552 C   0  0  0  0  0  0  0  0  0  0  0  0
   -5.0389    7.0771    0.2872 C   0  0  0  0  0  0  0  0  0  0  0  0
    0.2752   -1.2409    3.6635 H   0  0  0  0  0  0  0  0  0  0  0  0
    0.0467   -1.3034    1.9013 H   0  0  0  0  0  0  0  0  0  0  0  0
    2.4704   -1.6087    2.5522 H   0  0  0  0  0  0  0  0  0  0  0  0
    2.4254    0.0151    3.2792 H   0  0  0  0  0  0  0  0  0  0  0  0
    4.1081   -0.7982    1.0773 H   0  0  0  0  0  0  0  0  0  0  0  0
    1.6991    0.9485   -1.2503 H   0  0  0  0  0  0  0  0  0  0  0  0
    2.4039    2.0001   -3.3578 H   0  0  0  0  0  0  0  0  0  0  0  0
    4.7900    2.0432   -3.9836 H   0  0  0  0  0  0  0  0  0  0  0  0
    6.4704    1.0097   -2.5021 H   0  0  0  0  0  0  0  0  0  0  0  0
    5.7731   -0.0337   -0.3878 H   0  0  0  0  0  0  0  0  0  0  0  0
   -1.8007    0.0300    3.6192 H   0  0  0  0  0  0  0  0  0  0  0  0
    0.0649    3.2302    3.1129 H   0  0  0  0  0  0  0  0  0  0  0  0
   -0.9785    5.4519    3.2022 H   0  0  0  0  0  0  0  0  0  0  0  0
   -3.4306    5.6559    3.4532 H   0  0  0  0  0  0  0  0  0  0  0  0
   -4.8207    3.6267    3.6192 H   0  0  0  0  0  0  0  0  0  0  0  0
   -3.7757    1.4020    3.5134 H   0  0  0  0  0  0  0  0  0  0  0  0
   -4.1880    2.5026    0.2556 H   0  0  0  0  0  0  0  0  0  0  0  0
   -5.6950    4.4514    0.3648 H   0  0  0  0  0  0  0  0  0  0  0  0
   -2.3368    7.0716    0.0831 H   0  0  0  0  0  0  0  0  0  0  0  0
   -0.8212    5.1275   -0.0193 H   0  0  0  0  0  0  0  0  0  0  0  0
   -5.9337    6.8487    0.8618 H   0  0  0  0  0  0  0  0  0  0  0  0
   -5.3489    7.3536   -0.7212 H   0  0  0  0  0  0  0  0  0  0  0  0
   -4.5404    7.9356    0.7310 H   0  0  0  0  0  0  0  0  0  0  0  0
  2  1  1  0  0  0  0
  2  4  1  0  0  0  0
  2  3  1  0  0  0  0
  3  6  1  0  0  0  0
  3 15  1  0  0  0  0
  4  7  1  0  0  0  0
  5 22  1  0  0  0  0
  5 23  1  0  0  0  0
  6 30  1  0  0  0  0
  7 32  1  0  0  0  0
  7  6  1  0  0  0  0
  7 33  1  0  0  0  0
  8 34  1  0  0  0  0
  8  4  1  0  0  0  0
  9  8  1  0  0  0  0
 10 35  1  0  0  0  0
 10  9  2  0  0  0  0
 11 10  1  0  0  0  0
 12 11  2  0  0  0  0
 12 13  1  0  0  0  0
 13 14  2  0  0  0  0
 14  9  1  0  0  0  0
 14 39  1  0  0  0  0
 15 16  1  0  0  0  0
 15 40  1  0  0  0  0
 16 21  1  0  0  0  0
 17 18  1  0  0  0  0
 17 16  2  0  0  0  0
 18 19  2  0  0  0  0
 19 43  1  0  0  0  0
 19 20  1  0  0  0  0
 20 44  1  0  0  0  0
 21 20  2  0  0  0  0
 21 45  1  0  0  0  0
 22  2  1  0  0  0  0
 23 24  1  0  0  0  0
 24 46  1  0  0  0  0
 24 25  2  0  0  0  0
 25 47  1  0  0  0  0
 26 25  1  0  0  0  0
 26 29  1  0  0  0  0
 27 26  2  0  0  0  0
 28 23  2  0  0  0  0
 28 27  1  0  0  0  0
 29 52  1  0  0  0  0
 29 50  1  0  0  0  0
 31  6  1  0  0  0  0
 36 11  1  0  0  0  0
 37 12  1  0  0  0  0
 38 13  1  0  0  0  0
 41 17  1  0  0  0  0
 42 18  1  0  0  0  0
 48 27  1  0  0  0  0
 49 28  1  0  0  0  0
 51 29  1  0  0  0  0
M  END
$$$$
