CSD_code = DAGNAC | q = 0 | S = 0 | Stoichiometry = C7H18Br2N2Zn | MND = 4
 OpenBabel04212202023D

 30 30  0  0  0  0  0  0  0  0999 V2000
    7.5799    1.9185   18.1343 C   0  0  0  0  0  0  0  0  0  0  0  0
    8.4393    2.4916   18.4718 H   0  0  0  0  0  0  0  0  0  0  0  0
    7.2508    1.2991   18.9664 H   0  0  0  0  0  0  0  0  0  0  0  0
    6.7732    2.6111   17.8688 H   0  0  0  0  0  0  0  0  0  0  0  0
    6.7482    0.2713   16.6516 C   0  0  0  0  0  0  0  0  0  0  0  0
    6.4594   -0.3472   17.5011 H   0  0  0  0  0  0  0  0  0  0  0  0
    6.9620   -0.3768   15.8038 H   0  0  0  0  0  0  0  0  0  0  0  0
    5.9056    0.9207   16.3891 H   0  0  0  0  0  0  0  0  0  0  0  0
    8.2923    1.8760   15.8245 C   0  0  0  0  0  0  0  0  0  0  0  0
    7.4676    2.5725   15.6094 H   0  0  0  0  0  0  0  0  0  0  0  0
    8.3870    1.1971   14.9728 H   0  0  0  0  0  0  0  0  0  0  0  0
    9.5852    2.6840   15.9419 C   0  0  0  0  0  0  0  0  0  0  0  0
    9.5852    3.3841   15.1033 H   0  0  0  0  0  0  0  0  0  0  0  0
    9.5852    3.2840   16.8509 H   0  0  0  0  0  0  0  0  0  0  0  0
    7.9332    1.0653   16.9987 N   0  0  0  0  0  4  0  0  0  0  0  0
    9.5852   -0.5761   19.8060 Br  0  0  0  0  0  0  0  0  0  0  0  0
    9.5852   -1.7018   15.4911 Br  0  0  0  0  0  0  0  0  0  0  0  0
    9.5852   -0.3615   17.4547 Zn  0  0  0  0  0  0  0  0  0  0  0  0
   11.5905    1.9185   18.1343 C   0  0  0  0  0  0  0  0  0  0  0  0
   10.7311    2.4916   18.4718 H   0  0  0  0  0  0  0  0  0  0  0  0
   11.9196    1.2991   18.9664 H   0  0  0  0  0  0  0  0  0  0  0  0
   12.3972    2.6111   17.8688 H   0  0  0  0  0  0  0  0  0  0  0  0
   12.4222    0.2713   16.6516 C   0  0  0  0  0  0  0  0  0  0  0  0
   12.7110   -0.3472   17.5011 H   0  0  0  0  0  0  0  0  0  0  0  0
   12.2084   -0.3768   15.8038 H   0  0  0  0  0  0  0  0  0  0  0  0
   13.2648    0.9207   16.3891 H   0  0  0  0  0  0  0  0  0  0  0  0
   10.8781    1.8760   15.8245 C   0  0  0  0  0  0  0  0  0  0  0  0
   11.7028    2.5725   15.6094 H   0  0  0  0  0  0  0  0  0  0  0  0
   10.7834    1.1971   14.9728 H   0  0  0  0  0  0  0  0  0  0  0  0
   11.2372    1.0653   16.9987 N   0  0  0  0  0  4  0  0  0  0  0  0
  1  2  1  0  0  0  0
  1  3  1  0  0  0  0
  4  1  1  0  0  0  0
  5 15  1  0  0  0  0
  5  6  1  0  0  0  0
  7  5  1  0  0  0  0
  8  5  1  0  0  0  0
  9 12  1  0  0  0  0
  9 15  1  0  0  0  0
 10  9  1  0  0  0  0
 11  9  1  0  0  0  0
 12 14  1  0  0  0  0
 13 12  1  0  0  0  0
 15 18  1  0  0  0  0
 15  1  1  0  0  0  0
 17 18  1  0  0  0  0
 18 16  1  0  0  0  0
 19 20  1  0  0  0  0
 19 21  1  0  0  0  0
 22 19  1  0  0  0  0
 23 30  1  0  0  0  0
 23 24  1  0  0  0  0
 25 23  1  0  0  0  0
 26 23  1  0  0  0  0
 27 12  1  0  0  0  0
 27 30  1  0  0  0  0
 28 27  1  0  0  0  0
 29 27  1  0  0  0  0
 30 18  1  0  0  0  0
 30 19  1  0  0  0  0
M  END
$$$$
