CSD_code = DAHYES | q = 0 | S = 0 | Stoichiometry = C20H24HgI2N2O4 | MND = 4
 OpenBabel04212202023D

 53 53  0  0  0  0  0  0  0  0999 V2000
   13.6211    4.3618    2.8783 Hg  0  0  0  0  0  0  0  0  0  0  0  0
   14.7617    5.1147    5.1096 I   0  0  0  0  0  0  0  0  0  0  0  0
    9.0789    2.4145    1.4735 O   0  0  0  0  0  0  0  0  0  0  0  0
    7.5223    4.7697    1.2216 O   0  0  0  0  0  0  0  0  0  0  0  0
   12.3377    2.2924    3.4647 N   0  0  0  0  0  0  0  0  0  0  0  0
   13.1305    1.0941    3.4747 C   0  0  0  0  0  0  0  0  0  0  0  0
   11.0871    2.2219    3.2587 C   0  0  0  0  0  0  0  0  0  0  0  0
   10.2675    3.4202    3.2167 C   0  0  0  0  0  0  0  0  0  0  0  0
    9.2542    3.5152    2.2481 C   0  0  0  0  0  0  0  0  0  0  0  0
    8.5236    4.7181    2.1468 C   0  0  0  0  0  0  0  0  0  0  0  0
    8.8326    5.7727    2.9960 C   0  0  0  0  0  0  0  0  0  0  0  0
    9.8179    5.6574    3.9645 C   0  0  0  0  0  0  0  0  0  0  0  0
   10.5359    4.4881    4.0789 C   0  0  0  0  0  0  0  0  0  0  0  0
    8.5985    2.5416    0.1479 C   0  0  0  0  0  0  0  0  0  0  0  0
    6.8810    6.0007    0.9847 C   0  0  0  0  0  0  0  0  0  0  0  0
   12.5076    0.1897    3.4275 H   0  0  0  0  0  0  0  0  0  0  0  0
   13.7114    1.0880    4.4031 H   0  0  0  0  0  0  0  0  0  0  0  0
   10.5897    1.2655    3.0727 H   0  0  0  0  0  0  0  0  0  0  0  0
    8.2891    6.7000    2.9186 H   0  0  0  0  0  0  0  0  0  0  0  0
   10.0153    6.4869    4.6257 H   0  0  0  0  0  0  0  0  0  0  0  0
   11.2630    4.3591    4.8709 H   0  0  0  0  0  0  0  0  0  0  0  0
    8.8293    1.5891   -0.3290 H   0  0  0  0  0  0  0  0  0  0  0  0
    7.5215    2.7134    0.1222 H   0  0  0  0  0  0  0  0  0  0  0  0
    9.1127    3.3470   -0.3802 H   0  0  0  0  0  0  0  0  0  0  0  0
    6.1976    5.8154    0.1574 H   0  0  0  0  0  0  0  0  0  0  0  0
    6.3082    6.3315    1.8568 H   0  0  0  0  0  0  0  0  0  0  0  0
    7.5971    6.7756    0.6965 H   0  0  0  0  0  0  0  0  0  0  0  0
   12.4757    5.1142    0.6477 I   0  0  0  0  0  0  0  0  0  0  0  0
   18.1586    2.4136    4.2839 O   0  0  0  0  0  0  0  0  0  0  0  0
   19.7144    4.7698    4.5357 O   0  0  0  0  0  0  0  0  0  0  0  0
   14.8991    2.2913    2.2939 N   0  0  0  0  0  0  0  0  0  0  0  0
   14.1060    1.0933    2.2846 C   0  0  0  0  0  0  0  0  0  0  0  0
   16.1497    2.2207    2.5001 C   0  0  0  0  0  0  0  0  0  0  0  0
   16.9693    3.4190    2.5412 C   0  0  0  0  0  0  0  0  0  0  0  0
   17.9829    3.5144    3.5094 C   0  0  0  0  0  0  0  0  0  0  0  0
   18.7131    4.7175    3.6105 C   0  0  0  0  0  0  0  0  0  0  0  0
   18.4037    5.7718    2.7610 C   0  0  0  0  0  0  0  0  0  0  0  0
   17.4185    5.6560    1.7925 C   0  0  0  0  0  0  0  0  0  0  0  0
   16.7005    4.4866    1.6787 C   0  0  0  0  0  0  0  0  0  0  0  0
   18.6410    2.5402    5.6087 C   0  0  0  0  0  0  0  0  0  0  0  0
   20.3545    6.0013    4.7729 C   0  0  0  0  0  0  0  0  0  0  0  0
   14.7285    0.1887    2.3328 H   0  0  0  0  0  0  0  0  0  0  0  0
   13.5250    1.0867    1.3563 H   0  0  0  0  0  0  0  0  0  0  0  0
   16.6471    1.2643    2.6856 H   0  0  0  0  0  0  0  0  0  0  0  0
   18.9471    6.6993    2.8381 H   0  0  0  0  0  0  0  0  0  0  0  0
   17.2209    6.4853    1.1311 H   0  0  0  0  0  0  0  0  0  0  0  0
   15.9729    4.3574    0.8872 H   0  0  0  0  0  0  0  0  0  0  0  0
   18.4114    1.5872    6.0854 H   0  0  0  0  0  0  0  0  0  0  0  0
   19.7180    2.7124    5.6329 H   0  0  0  0  0  0  0  0  0  0  0  0
   18.1273    3.3450    6.1382 H   0  0  0  0  0  0  0  0  0  0  0  0
   21.0376    5.8166    5.6006 H   0  0  0  0  0  0  0  0  0  0  0  0
   20.9275    6.3327    3.9011 H   0  0  0  0  0  0  0  0  0  0  0  0
   19.6376    6.7756    5.0608 H   0  0  0  0  0  0  0  0  0  0  0  0
  1  2  1  0  0  0  0
  3  9  1  0  0  0  0
  4 10  1  0  0  0  0
  5  6  1  0  0  0  0
  6 17  1  0  0  0  0
  7  5  2  0  0  0  0
  8  7  1  0  0  0  0
  8 13  1  0  0  0  0
  9  8  2  0  0  0  0
 10  9  1  0  0  0  0
 10 11  2  0  0  0  0
 11 12  1  0  0  0  0
 12 13  2  0  0  0  0
 12 20  1  0  0  0  0
 13 21  1  0  0  0  0
 14  3  1  0  0  0  0
 15  4  1  0  0  0  0
 15 26  1  0  0  0  0
 16  6  1  0  0  0  0
 18  7  1  0  0  0  0
 19 11  1  0  0  0  0
 22 14  1  0  0  0  0
 23 14  1  0  0  0  0
 24 14  1  0  0  0  0
 25 15  1  0  0  0  0
 27 15  1  0  0  0  0
 28  1  1  0  0  0  0
 29 40  1  0  0  0  0
 30 41  1  0  0  0  0
 31 33  2  0  0  0  0
 32 31  1  0  0  0  0
 32 42  1  0  0  0  0
 32  6  1  0  0  0  0
 33 34  1  0  0  0  0
 33 44  1  0  0  0  0
 34 35  1  0  0  0  0
 35 36  2  0  0  0  0
 35 29  1  0  0  0  0
 36 30  1  0  0  0  0
 37 45  1  0  0  0  0
 37 36  1  0  0  0  0
 38 37  2  0  0  0  0
 39 38  1  0  0  0  0
 39 34  2  0  0  0  0
 40 49  1  0  0  0  0
 40 48  1  0  0  0  0
 40 50  1  0  0  0  0
 41 53  1  0  0  0  0
 41 51  1  0  0  0  0
 43 32  1  0  0  0  0
 46 38  1  0  0  0  0
 47 39  1  0  0  0  0
 52 41  1  0  0  0  0
M  END
$$$$
