CSD_code = DAJCOJ | q = 0 | S = 0 | Stoichiometry = C17H38ClNOP2Ru | MND = 6
 OpenBabel04212202023D

 61 62  0  0  0  0  0  0  0  0999 V2000
    1.5664   10.3490    9.3271 Ru  0  0  0  0  0  0  0  0  0  0  0  0
    1.9245   10.1813   10.8074 H   0  0  0  0  0  0  0  0  0  0  0  0
    0.7661   10.7555    7.1170 Cl  0  0  0  0  0  0  0  0  0  0  0  0
    2.4640   12.4605    9.3345 P   0  0  0  0  0  4  0  0  0  0  0  0
    0.1749    8.5280    9.4414 P   0  0  0  0  0  4  0  0  0  0  0  0
    4.0221    8.8937    8.4453 O   0  0  0  0  0  1  0  0  0  0  0  0
   -0.2717   11.4341    9.9060 N   0  0  0  0  0  4  0  0  0  0  0  0
   -0.2715   11.4612   10.9312 H   0  0  0  0  0  0  0  0  0  0  0  0
    1.0227   13.5123    9.8703 C   0  0  0  0  0  0  0  0  0  0  0  0
    1.0301   13.5875   10.9608 H   0  0  0  0  0  0  0  0  0  0  0  0
    1.0806   14.5178    9.4476 H   0  0  0  0  0  0  0  0  0  0  0  0
   -0.2545   12.8147    9.4165 C   0  0  0  0  0  0  0  0  0  0  0  0
   -1.1420   13.3639    9.7721 H   0  0  0  0  0  0  0  0  0  0  0  0
   -0.2875   12.7748    8.3216 H   0  0  0  0  0  0  0  0  0  0  0  0
   -1.4745   10.7191    9.4723 C   0  0  0  0  0  0  0  0  0  0  0  0
   -1.4813   10.7238    8.3762 H   0  0  0  0  0  0  0  0  0  0  0  0
   -2.3821   11.2342    9.8285 H   0  0  0  0  0  0  0  0  0  0  0  0
   -1.4398    9.2832    9.9829 C   0  0  0  0  0  0  0  0  0  0  0  0
   -2.2940    8.7204    9.5999 H   0  0  0  0  0  0  0  0  0  0  0  0
   -1.4787    9.2825   11.0754 H   0  0  0  0  0  0  0  0  0  0  0  0
    3.8042   12.9679   10.5292 C   0  0  0  0  0  0  0  0  0  0  0  0
    4.0308   14.0288   10.3762 H   0  0  0  0  0  0  0  0  0  0  0  0
    5.0321   12.1143   10.2252 C   0  0  0  0  0  0  0  0  0  0  0  0
    5.8233   12.3069   10.9484 H   0  0  0  0  0  0  0  0  0  0  0  0
    5.4233   12.3191    9.2320 H   0  0  0  0  0  0  0  0  0  0  0  0
    4.7586   11.0594   10.2774 H   0  0  0  0  0  0  0  0  0  0  0  0
    3.3740   12.7472   11.9761 C   0  0  0  0  0  0  0  0  0  0  0  0
    2.9309   11.7570   12.0805 H   0  0  0  0  0  0  0  0  0  0  0  0
    2.6605   13.4972   12.3108 H   0  0  0  0  0  0  0  0  0  0  0  0
    4.2418   12.8027   12.6309 H   0  0  0  0  0  0  0  0  0  0  0  0
    2.9068   13.2860    7.7184 C   0  0  0  0  0  0  0  0  0  0  0  0
    1.9291   13.3710    7.2218 H   0  0  0  0  0  0  0  0  0  0  0  0
    3.7784   12.3809    6.8516 C   0  0  0  0  0  0  0  0  0  0  0  0
    3.8219   12.7703    5.8356 H   0  0  0  0  0  0  0  0  0  0  0  0
    3.3570   11.3773    6.8126 H   0  0  0  0  0  0  0  0  0  0  0  0
    4.7943   12.3116    7.2331 H   0  0  0  0  0  0  0  0  0  0  0  0
    3.5227   14.6750    7.8501 C   0  0  0  0  0  0  0  0  0  0  0  0
    4.5493   14.6123    8.2046 H   0  0  0  0  0  0  0  0  0  0  0  0
    2.9579   15.3121    8.5290 H   0  0  0  0  0  0  0  0  0  0  0  0
    3.5370   15.1554    6.8729 H   0  0  0  0  0  0  0  0  0  0  0  0
    0.4229    7.1617   10.6874 C   0  0  0  0  0  0  0  0  0  0  0  0
   -0.3943    6.4390   10.5864 H   0  0  0  0  0  0  0  0  0  0  0  0
    0.4430    7.7048   12.1129 C   0  0  0  0  0  0  0  0  0  0  0  0
    0.8336    6.9474   12.7901 H   0  0  0  0  0  0  0  0  0  0  0  0
   -0.5506    7.9778   12.4620 H   0  0  0  0  0  0  0  0  0  0  0  0
    1.0944    8.5769   12.1643 H   0  0  0  0  0  0  0  0  0  0  0  0
    1.7605    6.4969   10.3749 C   0  0  0  0  0  0  0  0  0  0  0  0
    2.5459    7.2542   10.3689 H   0  0  0  0  0  0  0  0  0  0  0  0
    1.7454    6.0095    9.4035 H   0  0  0  0  0  0  0  0  0  0  0  0
    2.0028    5.7476   11.1272 H   0  0  0  0  0  0  0  0  0  0  0  0
   -0.3604    7.6705    7.8706 C   0  0  0  0  0  0  0  0  0  0  0  0
   -0.9291    8.4581    7.3548 H   0  0  0  0  0  0  0  0  0  0  0  0
    0.8370    7.3250    6.9891 C   0  0  0  0  0  0  0  0  0  0  0  0
    1.4086    6.4919    7.3912 H   0  0  0  0  0  0  0  0  0  0  0  0
    1.4996    8.1848    6.9002 H   0  0  0  0  0  0  0  0  0  0  0  0
    0.4967    7.0543    5.9908 H   0  0  0  0  0  0  0  0  0  0  0  0
   -1.2598    6.4556    8.0729 C   0  0  0  0  0  0  0  0  0  0  0  0
   -1.6940    6.1671    7.1167 H   0  0  0  0  0  0  0  0  0  0  0  0
   -2.0762    6.6596    8.7642 H   0  0  0  0  0  0  0  0  0  0  0  0
   -0.6895    5.6086    8.4481 H   0  0  0  0  0  0  0  0  0  0  0  0
    3.0758    9.4554    8.7942 C   0  0  0  0  0  2  0  0  0  0  0  0
  1  4  1  0  0  0  0
  1  5  1  0  0  0  0
  1  7  1  0  0  0  0
  1  2  1  0  0  0  0
  3  1  1  0  0  0  0
  4  9  1  0  0  0  0
  4 21  1  0  0  0  0
  5 18  1  0  0  0  0
  5 41  1  0  0  0  0
  6 61  1  0  0  0  0
  7  8  1  0  0  0  0
  9 10  1  0  0  0  0
 11  9  1  0  0  0  0
 12 13  1  0  0  0  0
 12  9  1  0  0  0  0
 12  7  1  0  0  0  0
 14 12  1  0  0  0  0
 15 17  1  0  0  0  0
 15  7  1  0  0  0  0
 15 18  1  0  0  0  0
 16 15  1  0  0  0  0
 18 20  1  0  0  0  0
 19 18  1  0  0  0  0
 21 27  1  0  0  0  0
 22 21  1  0  0  0  0
 23 26  1  0  0  0  0
 23 21  1  0  0  0  0
 23 24  1  0  0  0  0
 25 23  1  0  0  0  0
 27 28  1  0  0  0  0
 27 29  1  0  0  0  0
 27 30  1  0  0  0  0
 31 37  1  0  0  0  0
 31  4  1  0  0  0  0
 32 31  1  0  0  0  0
 33 36  1  0  0  0  0
 33 31  1  0  0  0  0
 34 33  1  0  0  0  0
 35 33  1  0  0  0  0
 37 38  1  0  0  0  0
 37 39  1  0  0  0  0
 40 37  1  0  0  0  0
 41 43  1  0  0  0  0
 42 41  1  0  0  0  0
 43 46  1  0  0  0  0
 43 45  1  0  0  0  0
 43 44  1  0  0  0  0
 47 41  1  0  0  0  0
 47 50  1  0  0  0  0
 48 47  1  0  0  0  0
 49 47  1  0  0  0  0
 51 57  1  0  0  0  0
 51  5  1  0  0  0  0
 52 51  1  0  0  0  0
 53 54  1  0  0  0  0
 53 51  1  0  0  0  0
 55 53  1  0  0  0  0
 56 53  1  0  0  0  0
 57 60  1  0  0  0  0
 57 59  1  0  0  0  0
 58 57  1  0  0  0  0
 61  1  1  0  0  0  0
M  END
$$$$
