CSD_code = DAJCEX | q = 0 | S = 0 | Stoichiometry = C24H32CdCl2N6O2 | MND = 6
 OpenBabel04212202023D

 67 72  0  0  1  0  0  0  0  0999 V2000
    8.5121    2.4772    3.8943 Cd  0  0  0  0  0  0  0  0  0  0  0  0
    6.6687    3.8830    3.1975 Cl  0  0  0  0  0  0  0  0  0  0  0  0
    9.3278    2.5418    1.6347 N   0  0  0  0  0  0  0  0  0  0  0  0
    7.3555    0.9427    2.6051 N   0  0  2  0  0  0  0  0  0  0  0  0
    6.2354    0.8902    0.6865 N   0  0  0  0  0  0  0  0  0  0  0  0
    5.9903    0.9564   -0.5408 O   0  0  0  0  0  1  0  0  0  0  0  0
   10.2881    3.3415    1.2056 C   0  0  0  0  0  3  0  0  0  0  0  0
   10.9888    3.6819    1.9584 H   0  0  0  0  0  0  0  0  0  0  0  0
   10.3983    3.7442   -0.1189 C   0  0  0  0  0  0  0  0  0  0  0  0
   11.1958    4.4039   -0.4220 H   0  0  0  0  0  0  0  0  0  0  0  0
    9.4578    3.2883   -1.0275 C   0  0  0  0  0  0  0  0  0  0  0  0
    9.5031    3.5828   -2.0654 H   0  0  0  0  0  0  0  0  0  0  0  0
    8.4455    2.4521   -0.5863 C   0  0  0  0  0  0  0  0  0  0  0  0
    7.6869    2.0869   -1.2598 H   0  0  0  0  0  0  0  0  0  0  0  0
    8.4118    2.1029    0.7626 C   0  0  0  0  0  0  0  0  0  0  0  0
    7.3500    1.2893    1.3490 C   0  0  1  0  0  3  0  0  0  0  0  0
    6.1647    0.1688    2.8997 C   0  0  0  0  0  0  0  0  0  0  0  0
    5.2484    0.4056    1.6649 C   0  0  0  0  0  0  0  0  0  0  0  0
    5.5664    0.6165    4.2307 C   0  0  0  0  0  0  0  0  0  0  0  0
    6.2800    0.4084    5.0256 H   0  0  0  0  0  0  0  0  0  0  0  0
    4.6439    0.0763    4.4288 H   0  0  0  0  0  0  0  0  0  0  0  0
    5.3734    1.6846    4.2193 H   0  0  0  0  0  0  0  0  0  0  0  0
    6.6172   -1.2955    3.0354 C   0  0  0  0  0  0  0  0  0  0  0  0
    7.0948   -1.6428    2.1216 H   0  0  0  0  0  0  0  0  0  0  0  0
    5.7731   -1.9370    3.2703 H   0  0  0  0  0  0  0  0  0  0  0  0
    7.3402   -1.3561    3.8448 H   0  0  0  0  0  0  0  0  0  0  0  0
    4.2713    1.5751    1.8483 C   0  0  0  0  0  0  0  0  0  0  0  0
    4.7947    2.4608    2.2066 H   0  0  0  0  0  0  0  0  0  0  0  0
    3.4855    1.3096    2.5486 H   0  0  0  0  0  0  0  0  0  0  0  0
    3.8208    1.8067    0.8850 H   0  0  0  0  0  0  0  0  0  0  0  0
    4.5089   -0.8012    1.1047 C   0  0  0  0  0  0  0  0  0  0  0  0
    3.9981   -0.5051    0.1910 H   0  0  0  0  0  0  0  0  0  0  0  0
    3.7714   -1.1513    1.8212 H   0  0  0  0  0  0  0  0  0  0  0  0
    5.1860   -1.6144    0.8602 H   0  0  0  0  0  0  0  0  0  0  0  0
   10.3556    3.8829    4.5911 Cl  0  0  0  0  0  0  0  0  0  0  0  0
    7.6963    2.5417    6.1539 N   0  0  0  0  0  0  0  0  0  0  0  0
    6.7360    3.3413    6.5830 C   0  0  0  0  0  3  0  0  0  0  0  0
    6.0356    3.6820    5.8302 H   0  0  0  0  0  0  0  0  0  0  0  0
    6.6260    3.7443    7.9075 C   0  0  0  0  0  0  0  0  0  0  0  0
    5.8285    4.4040    8.2106 H   0  0  0  0  0  0  0  0  0  0  0  0
    7.5665    3.2883    8.8161 C   0  0  0  0  0  0  0  0  0  0  0  0
    7.5213    3.5828    9.8540 H   0  0  0  0  0  0  0  0  0  0  0  0
    8.5788    2.4521    8.3749 C   0  0  0  0  0  0  0  0  0  0  0  0
    9.3374    2.0870    9.0484 H   0  0  0  0  0  0  0  0  0  0  0  0
    8.6124    2.1029    7.0261 C   0  0  0  0  0  0  0  0  0  0  0  0
    9.6741    1.2893    6.4397 C   0  0  1  0  0  3  0  0  0  0  0  0
    9.6687    0.9427    5.1835 N   0  0  2  0  0  0  0  0  0  0  0  0
   10.8595    0.1687    4.8889 C   0  0  0  0  0  0  0  0  0  0  0  0
   11.7758    0.4055    6.1237 C   0  0  0  0  0  0  0  0  0  0  0  0
   10.7888    0.8901    7.1021 N   0  0  0  0  0  0  0  0  0  0  0  0
   11.0338    0.9563    8.3295 O   0  0  0  0  0  1  0  0  0  0  0  0
   12.7529    1.5751    5.9403 C   0  0  0  0  0  0  0  0  0  0  0  0
   12.2294    2.4607    5.5820 H   0  0  0  0  0  0  0  0  0  0  0  0
   13.5387    1.3096    5.2400 H   0  0  0  0  0  0  0  0  0  0  0  0
   13.2034    1.8067    6.9036 H   0  0  0  0  0  0  0  0  0  0  0  0
   12.5155   -0.8011    6.6839 C   0  0  0  0  0  0  0  0  0  0  0  0
   13.0260   -0.5050    7.5977 H   0  0  0  0  0  0  0  0  0  0  0  0
   13.2532   -1.1510    5.9674 H   0  0  0  0  0  0  0  0  0  0  0  0
   11.8384   -1.6145    6.9281 H   0  0  0  0  0  0  0  0  0  0  0  0
   11.4578    0.6164    3.5579 C   0  0  0  0  0  0  0  0  0  0  0  0
   10.7442    0.4084    2.7630 H   0  0  0  0  0  0  0  0  0  0  0  0
   12.3803    0.0762    3.3597 H   0  0  0  0  0  0  0  0  0  0  0  0
   11.6508    1.6844    3.5693 H   0  0  0  0  0  0  0  0  0  0  0  0
   10.4070   -1.2955    4.7532 C   0  0  0  0  0  0  0  0  0  0  0  0
    9.9295   -1.6427    5.6670 H   0  0  0  0  0  0  0  0  0  0  0  0
   11.2511   -1.9370    4.5183 H   0  0  0  0  0  0  0  0  0  0  0  0
    9.6839   -1.3561    3.9438 H   0  0  0  0  0  0  0  0  0  0  0  0
  1 35  1  0  0  0  0
  1 47  1  0  0  0  0
  1 36  1  0  0  0  0
  2  1  1  0  0  0  0
  3  1  1  0  0  0  0
  4 17  1  1  0  0  0
  4  1  1  0  0  0  0
  5 16  1  0  0  0  0
  5 18  1  0  0  0  0
  6  5  1  0  0  0  0
  7  3  1  0  0  0  0
  7  8  1  0  0  0  0
  9  7  1  0  0  0  0
 10  9  1  0  0  0  0
 11 13  1  0  0  0  0
 11  9  2  0  0  0  0
 12 11  1  0  0  0  0
 13 15  2  0  0  0  0
 14 13  1  0  0  0  0
 15  3  1  0  0  0  0
 16 15  1  1  0  0  0
 16  4  1  0  0  0  0
 17 23  1  0  0  0  0
 17 19  1  0  0  0  0
 18 27  1  0  0  0  0
 18 17  1  0  0  0  0
 19 21  1  0  0  0  0
 19 20  1  0  0  0  0
 22 19  1  0  0  0  0
 23 25  1  0  0  0  0
 23 26  1  0  0  0  0
 24 23  1  0  0  0  0
 27 28  1  0  0  0  0
 27 29  1  0  0  0  0
 30 27  1  0  0  0  0
 31 18  1  0  0  0  0
 31 33  1  0  0  0  0
 32 31  1  0  0  0  0
 34 31  1  0  0  0  0
 36 37  1  0  0  0  0
 36 45  1  0  0  0  0
 37 39  1  0  0  0  0
 38 37  1  0  0  0  0
 39 40  1  0  0  0  0
 39 41  2  0  0  0  0
 41 42  1  0  0  0  0
 43 41  1  0  0  0  0
 43 44  1  0  0  0  0
 45 43  2  0  0  0  0
 46 45  1  6  0  0  0
 46 50  1  0  0  0  0
 47 48  1  6  0  0  0
 47 46  1  0  0  0  0
 48 49  1  0  0  0  0
 49 56  1  0  0  0  0
 49 50  1  0  0  0  0
 50 51  1  0  0  0  0
 52 49  1  0  0  0  0
 52 55  1  0  0  0  0
 53 52  1  0  0  0  0
 54 52  1  0  0  0  0
 56 59  1  0  0  0  0
 56 57  1  0  0  0  0
 58 56  1  0  0  0  0
 60 63  1  0  0  0  0
 60 48  1  0  0  0  0
 61 60  1  0  0  0  0
 62 60  1  0  0  0  0
 64 48  1  0  0  0  0
 64 65  1  0  0  0  0
 66 64  1  0  0  0  0
 67 64  1  0  0  0  0
M  END
$$$$
