CSD_code = DAJCEZ | q = 0 | S = 0 | Stoichiometry = C18H40ClNOP2Ru | MND = 6
 OpenBabel04212202023D

 64 65  0  0  0  0  0  0  0  0999 V2000
    3.3069    3.0605   11.3620 Ru  0  0  0  0  0  0  0  0  0  0  0  0
    4.3198    3.6460   10.3669 H   0  0  0  0  0  0  0  0  0  0  0  0
    1.8257    2.0496   12.9208 Cl  0  0  0  0  0  0  0  0  0  0  0  0
    3.4424    5.0581   12.4785 P   0  0  0  0  0  4  0  0  0  0  0  0
    3.6778    0.9879   10.4706 P   0  0  0  0  0  4  0  0  0  0  0  0
    0.9084    3.7328    9.7201 O   0  0  0  0  0  1  0  0  0  0  0  0
    5.0798    2.5428   12.6578 N   0  0  0  0  0  4  0  0  0  0  0  0
    4.9951    4.8951   13.4960 C   0  0  0  0  0  0  0  0  0  0  0  0
    5.5630    5.8290   13.4841 H   0  0  0  0  0  0  0  0  0  0  0  0
    4.7398    4.6691   14.5315 H   0  0  0  0  0  0  0  0  0  0  0  0
    5.8450    3.7802   12.8909 C   0  0  0  0  0  0  0  0  0  0  0  0
    6.2262    4.1231   11.9234 H   0  0  0  0  0  0  0  0  0  0  0  0
    6.7062    3.5655   13.5463 H   0  0  0  0  0  0  0  0  0  0  0  0
    5.9395    1.5940   11.9290 C   0  0  0  0  0  0  0  0  0  0  0  0
    6.7639    1.2634   12.5835 H   0  0  0  0  0  0  0  0  0  0  0  0
    6.3712    2.1228   11.0744 H   0  0  0  0  0  0  0  0  0  0  0  0
    5.1678    0.3839   11.4090 C   0  0  0  0  0  0  0  0  0  0  0  0
    4.8170   -0.2388   12.2368 H   0  0  0  0  0  0  0  0  0  0  0  0
    5.8179   -0.2265   10.7778 H   0  0  0  0  0  0  0  0  0  0  0  0
    3.9178    6.5466   11.4456 C   0  0  0  0  0  0  0  0  0  0  0  0
    4.9431    6.2898   11.1386 H   0  0  0  0  0  0  0  0  0  0  0  0
    3.0801    6.6515   10.1754 C   0  0  0  0  0  0  0  0  0  0  0  0
    2.0676    6.9830   10.3912 H   0  0  0  0  0  0  0  0  0  0  0  0
    3.0301    5.6790    9.6853 H   0  0  0  0  0  0  0  0  0  0  0  0
    3.5303    7.3669    9.4887 H   0  0  0  0  0  0  0  0  0  0  0  0
    3.9445    7.8776   12.1902 C   0  0  0  0  0  0  0  0  0  0  0  0
    4.4554    8.6228   11.5818 H   0  0  0  0  0  0  0  0  0  0  0  0
    4.4696    7.8027   13.1413 H   0  0  0  0  0  0  0  0  0  0  0  0
    2.9351    8.2371   12.3759 H   0  0  0  0  0  0  0  0  0  0  0  0
    2.1855    5.7073   13.6967 C   0  0  0  0  0  0  0  0  0  0  0  0
    2.4849    6.7178   13.9988 H   0  0  0  0  0  0  0  0  0  0  0  0
    2.0551    4.8291   14.9383 C   0  0  0  0  0  0  0  0  0  0  0  0
    1.1976    5.1591   15.5230 H   0  0  0  0  0  0  0  0  0  0  0  0
    2.9320    4.8899   15.5813 H   0  0  0  0  0  0  0  0  0  0  0  0
    1.8832    3.7931   14.6498 H   0  0  0  0  0  0  0  0  0  0  0  0
    0.8492    5.7492   12.9589 C   0  0  0  0  0  0  0  0  0  0  0  0
    0.5804    4.7413   12.6411 H   0  0  0  0  0  0  0  0  0  0  0  0
    0.8995    6.3837   12.0760 H   0  0  0  0  0  0  0  0  0  0  0  0
    0.0618    6.1257   13.6103 H   0  0  0  0  0  0  0  0  0  0  0  0
    4.1819    0.8063    8.6836 C   0  0  0  0  0  0  0  0  0  0  0  0
    4.2075   -0.2626    8.4421 H   0  0  0  0  0  0  0  0  0  0  0  0
    3.1374    1.5169    7.8278 C   0  0  0  0  0  0  0  0  0  0  0  0
    3.1085    2.5720    8.1031 H   0  0  0  0  0  0  0  0  0  0  0  0
    2.1446    1.1018    7.9791 H   0  0  0  0  0  0  0  0  0  0  0  0
    3.3882    1.4362    6.7709 H   0  0  0  0  0  0  0  0  0  0  0  0
    5.5528    1.4177    8.4154 C   0  0  0  0  0  0  0  0  0  0  0  0
    5.7521    1.4151    7.3449 H   0  0  0  0  0  0  0  0  0  0  0  0
    6.3530    0.8666    8.9052 H   0  0  0  0  0  0  0  0  0  0  0  0
    5.5643    2.4510    8.7598 H   0  0  0  0  0  0  0  0  0  0  0  0
    2.5083   -0.4309   10.7917 C   0  0  0  0  0  0  0  0  0  0  0  0
    2.4402   -0.4276   11.8897 H   0  0  0  0  0  0  0  0  0  0  0  0
    1.1106   -0.1382   10.2537 C   0  0  0  0  0  0  0  0  0  0  0  0
    1.0609   -0.2808    9.1760 H   0  0  0  0  0  0  0  0  0  0  0  0
    0.8235    0.8868   10.4888 H   0  0  0  0  0  0  0  0  0  0  0  0
    0.3865   -0.8066   10.7167 H   0  0  0  0  0  0  0  0  0  0  0  0
    3.0042   -1.7961   10.3258 C   0  0  0  0  0  0  0  0  0  0  0  0
    2.3735   -2.5726   10.7560 H   0  0  0  0  0  0  0  0  0  0  0  0
    4.0307   -1.9842   10.6346 H   0  0  0  0  0  0  0  0  0  0  0  0
    2.9434   -1.8847    9.2431 H   0  0  0  0  0  0  0  0  0  0  0  0
    1.8515    3.4838   10.3350 C   0  0  0  0  0  2  0  0  0  0  0  0
    4.7305    1.9589   13.9548 C   0  0  0  0  0  0  0  0  0  0  0  0
    5.6363    1.7629   14.5459 H   0  0  0  0  0  0  0  0  0  0  0  0
    4.1818    1.0296   13.8190 H   0  0  0  0  0  0  0  0  0  0  0  0
    4.0748    2.6276   14.5076 H   0  0  0  0  0  0  0  0  0  0  0  0
  1  4  1  0  0  0  0
  1  7  1  0  0  0  0
  1  3  1  0  0  0  0
  2  1  1  0  0  0  0
  4  8  1  0  0  0  0
  4 30  1  0  0  0  0
  5 50  1  0  0  0  0
  5  1  1  0  0  0  0
  5 17  1  0  0  0  0
  6 60  1  0  0  0  0
  7 11  1  0  0  0  0
  7 61  1  0  0  0  0
  8 10  1  0  0  0  0
  9  8  1  0  0  0  0
 11  8  1  0  0  0  0
 11 13  1  0  0  0  0
 12 11  1  0  0  0  0
 14 15  1  0  0  0  0
 14  7  1  0  0  0  0
 16 14  1  0  0  0  0
 17 14  1  0  0  0  0
 17 18  1  0  0  0  0
 19 17  1  0  0  0  0
 20 26  1  0  0  0  0
 20  4  1  0  0  0  0
 21 20  1  0  0  0  0
 22 23  1  0  0  0  0
 22 20  1  0  0  0  0
 24 22  1  0  0  0  0
 25 22  1  0  0  0  0
 26 29  1  0  0  0  0
 26 28  1  0  0  0  0
 27 26  1  0  0  0  0
 30 31  1  0  0  0  0
 30 32  1  0  0  0  0
 32 33  1  0  0  0  0
 32 34  1  0  0  0  0
 35 32  1  0  0  0  0
 36 39  1  0  0  0  0
 36 30  1  0  0  0  0
 37 36  1  0  0  0  0
 38 36  1  0  0  0  0
 40  5  1  0  0  0  0
 41 40  1  0  0  0  0
 42 44  1  0  0  0  0
 42 43  1  0  0  0  0
 42 40  1  0  0  0  0
 45 42  1  0  0  0  0
 46 40  1  0  0  0  0
 46 49  1  0  0  0  0
 46 48  1  0  0  0  0
 47 46  1  0  0  0  0
 50 51  1  0  0  0  0
 52 54  1  0  0  0  0
 52 55  1  0  0  0  0
 52 50  1  0  0  0  0
 53 52  1  0  0  0  0
 56 58  1  0  0  0  0
 56 57  1  0  0  0  0
 56 50  1  0  0  0  0
 59 56  1  0  0  0  0
 60  1  1  0  0  0  0
 61 64  1  0  0  0  0
 61 62  1  0  0  0  0
 63 61  1  0  0  0  0
M  END
$$$$
