CSD_code = DAJDAV | q = 0 | S = 0 | Stoichiometry = C16H37BrCuNP2 | MND = 4
 OpenBabel04212202023D

 58 59  0  0  1  0  0  0  0  0999 V2000
   -2.5100    3.5388    0.0907 C   0  0  0  0  0  0  0  0  0  0  0  0
   -3.4414    3.6472   -0.4777 H   0  0  0  0  0  0  0  0  0  0  0  0
   -2.3403    4.7063    1.0609 C   0  0  0  0  0  0  0  0  0  0  0  0
   -3.1251    4.6880    1.8153 H   0  0  0  0  0  0  0  0  0  0  0  0
   -2.3833    5.6665    0.5517 H   0  0  0  0  0  0  0  0  0  0  0  0
   -1.3795    4.6263    1.5687 H   0  0  0  0  0  0  0  0  0  0  0  0
   -2.5335    2.2279    0.8759 C   0  0  0  0  0  0  0  0  0  0  0  0
   -1.5564    2.0202    1.3092 H   0  0  0  0  0  0  0  0  0  0  0  0
   -2.8247    1.3833    0.2552 H   0  0  0  0  0  0  0  0  0  0  0  0
   -3.2504    2.2995    1.6918 H   0  0  0  0  0  0  0  0  0  0  0  0
   -1.3134    4.9973   -2.2255 C   0  0  0  0  0  0  0  0  0  0  0  0
   -0.8526    4.6567   -3.1653 H   0  0  0  0  0  0  0  0  0  0  0  0
   -0.5055    6.1911   -1.7228 C   0  0  0  0  0  0  0  0  0  0  0  0
   -0.4328    6.9594   -2.4914 H   0  0  0  0  0  0  0  0  0  0  0  0
    0.5012    5.8702   -1.4549 H   0  0  0  0  0  0  0  0  0  0  0  0
   -0.9631    6.6355   -0.8423 H   0  0  0  0  0  0  0  0  0  0  0  0
   -2.7610    5.3778   -2.5107 C   0  0  0  0  0  0  0  0  0  0  0  0
   -3.2376    5.7972   -1.6283 H   0  0  0  0  0  0  0  0  0  0  0  0
   -3.3426    4.5203   -2.8442 H   0  0  0  0  0  0  0  0  0  0  0  0
   -2.7914    6.1307   -3.2976 H   0  0  0  0  0  0  0  0  0  0  0  0
   -1.5131    2.1620   -2.2406 C   0  0  0  0  0  0  0  0  0  0  0  0
   -1.8854    1.3231   -1.6493 H   0  0  0  0  0  0  0  0  0  0  0  0
   -2.2989    2.4786   -2.9310 H   0  0  0  0  0  0  0  0  0  0  0  0
   -0.2696    1.7129   -3.0041 C   0  0  0  0  0  0  0  0  0  0  0  0
   -0.5308    0.9037   -3.7100 H   0  0  0  0  0  0  0  0  0  0  0  0
    0.1256    2.5485   -3.5914 H   0  0  0  0  0  0  0  0  0  0  0  0
    2.0440    0.9672   -2.6078 C   0  0  0  0  0  0  0  0  0  0  0  0
    1.9538    0.3331   -3.5076 H   0  0  0  0  0  0  0  0  0  0  0  0
    2.5809    0.3971   -1.8478 H   0  0  0  0  0  0  0  0  0  0  0  0
    2.8460    2.2235   -2.9618 C   0  0  0  0  0  0  0  0  0  0  0  0
    2.3668    2.7384   -3.7998 H   0  0  0  0  0  0  0  0  0  0  0  0
    3.8567    1.9425   -3.2663 H   0  0  0  0  0  0  0  0  0  0  0  0
    4.5020    3.0435   -0.6761 C   0  0  0  0  0  0  0  0  0  0  0  0
    5.3328    3.4354   -1.2758 H   0  0  0  0  0  0  0  0  0  0  0  0
    4.6895    1.5432   -0.4691 C   0  0  0  0  0  0  0  0  0  0  0  0
    5.5823    1.3716    0.1303 H   0  0  0  0  0  0  0  0  0  0  0  0
    4.8118    1.0090   -1.4092 H   0  0  0  0  0  0  0  0  0  0  0  0
    3.8443    1.1281    0.0767 H   0  0  0  0  0  0  0  0  0  0  0  0
    4.4715    3.7294    0.6903 C   0  0  0  0  0  0  0  0  0  0  0  0
    3.6754    3.3030    1.2975 H   0  0  0  0  0  0  0  0  0  0  0  0
    4.3029    4.8002    0.6076 H   0  0  0  0  0  0  0  0  0  0  0  0
    5.4134    3.5699    1.2124 H   0  0  0  0  0  0  0  0  0  0  0  0
    3.2751    4.9862   -2.5398 C   0  0  0  0  0  0  0  0  0  0  0  0
    2.3485    5.1391   -3.1148 H   0  0  0  0  0  0  0  0  0  0  0  0
    3.4580    6.1837   -1.6100 C   0  0  0  0  0  0  0  0  0  0  0  0
    4.4512    6.1745   -1.1668 H   0  0  0  0  0  0  0  0  0  0  0  0
    2.7214    6.1719   -0.8066 H   0  0  0  0  0  0  0  0  0  0  0  0
    3.3460    7.1154   -2.1632 H   0  0  0  0  0  0  0  0  0  0  0  0
    4.4384    4.8971   -3.5229 C   0  0  0  0  0  0  0  0  0  0  0  0
    4.5240    5.8404   -4.0614 H   0  0  0  0  0  0  0  0  0  0  0  0
    4.2948    4.1055   -4.2536 H   0  0  0  0  0  0  0  0  0  0  0  0
    5.3793    4.7255   -3.0055 H   0  0  0  0  0  0  0  0  0  0  0  0
    0.7472    1.3087   -2.0559 N   0  0  1  0  0  4  0  0  0  0  0  0
    0.3989    0.5475   -1.4795 H   0  0  0  0  0  0  0  0  0  0  0  0
   -1.0521    3.5342   -1.0771 P   0  0  0  0  0  4  0  0  0  0  0  0
    2.8925    3.4334   -1.5507 P   0  0  0  0  0  4  0  0  0  0  0  0
    1.0148    2.9477   -0.3515 Cu  0  0  2  0  0  0  0  0  0  0  0  0
    1.2731    1.5784    1.4887 Br  0  0  0  0  0  0  0  0  0  0  0  0
  1  7  1  0  0  0  0
  1  3  1  0  0  0  0
  2  1  1  0  0  0  0
  3  6  1  0  0  0  0
  3  4  1  0  0  0  0
  5  3  1  0  0  0  0
  7  8  1  0  0  0  0
  7 10  1  0  0  0  0
  9  7  1  0  0  0  0
 11 13  1  0  0  0  0
 11 55  1  0  0  0  0
 12 11  1  0  0  0  0
 13 15  1  0  0  0  0
 13 16  1  0  0  0  0
 14 13  1  0  0  0  0
 17 11  1  0  0  0  0
 17 18  1  0  0  0  0
 19 17  1  0  0  0  0
 20 17  1  0  0  0  0
 21 22  1  0  0  0  0
 21 55  1  0  0  0  0
 23 21  1  0  0  0  0
 24 21  1  0  0  0  0
 24 53  1  0  0  0  0
 25 24  1  0  0  0  0
 26 24  1  0  0  0  0
 27 53  1  0  0  0  0
 27 29  1  0  0  0  0
 28 27  1  0  0  0  0
 30 27  1  0  0  0  0
 30 56  1  0  0  0  0
 31 30  1  0  0  0  0
 32 30  1  0  0  0  0
 33 35  1  0  0  0  0
 33 39  1  0  0  0  0
 34 33  1  0  0  0  0
 35 38  1  0  0  0  0
 35 36  1  0  0  0  0
 37 35  1  0  0  0  0
 39 42  1  0  0  0  0
 39 40  1  0  0  0  0
 41 39  1  0  0  0  0
 43 45  1  0  0  0  0
 43 56  1  0  0  0  0
 44 43  1  0  0  0  0
 45 46  1  0  0  0  0
 45 47  1  0  0  0  0
 48 45  1  0  0  0  0
 49 52  1  0  0  0  0
 49 43  1  0  0  0  0
 50 49  1  0  0  0  0
 51 49  1  0  0  0  0
 53 54  1  1  0  0  0
 53 57  1  0  0  0  0
 55 57  1  0  0  0  0
 55  1  1  0  0  0  0
 56 33  1  0  0  0  0
 56 57  1  0  0  0  0
 57 58  1  1  0  0  0
M  END
$$$$
