CSD_code = DAJDEZ | q = 0 | S = 0 | Stoichiometry = C16H36BrNNiP2 | MND = 4
 OpenBabel04212202023D

 57 58  0  0  1  0  0  0  0  0999 V2000
    2.6067   11.3355   10.1404 C   0  0  0  0  0  0  0  0  0  0  0  0
    2.4742   11.7140   11.1621 H   0  0  0  0  0  0  0  0  0  0  0  0
    1.7468   10.0937    9.9251 C   0  0  0  0  0  0  0  0  0  0  0  0
    0.6921   10.3654    9.9392 H   0  0  0  0  0  0  0  0  0  0  0  0
    1.9154    9.3519   10.7016 H   0  0  0  0  0  0  0  0  0  0  0  0
    1.9691    9.6349    8.9631 H   0  0  0  0  0  0  0  0  0  0  0  0
    2.2288   12.4264    9.1414 C   0  0  0  0  0  0  0  0  0  0  0  0
    2.4573   12.0920    8.1272 H   0  0  0  0  0  0  0  0  0  0  0  0
    2.7793   13.3460    9.3333 H   0  0  0  0  0  0  0  0  0  0  0  0
    1.1639   12.6481    9.1941 H   0  0  0  0  0  0  0  0  0  0  0  0
    4.7550    9.5617   11.0893 C   0  0  0  0  0  0  0  0  0  0  0  0
    4.1594    8.7164   10.7229 H   0  0  0  0  0  0  0  0  0  0  0  0
    4.3753    9.8732   12.5320 C   0  0  0  0  0  0  0  0  0  0  0  0
    4.6334    9.0269   13.1669 H   0  0  0  0  0  0  0  0  0  0  0  0
    3.3084   10.0565   12.6342 H   0  0  0  0  0  0  0  0  0  0  0  0
    4.9138   10.7454   12.8985 H   0  0  0  0  0  0  0  0  0  0  0  0
    6.2299    9.1822   10.9642 C   0  0  0  0  0  0  0  0  0  0  0  0
    6.8719    9.9190   11.4438 H   0  0  0  0  0  0  0  0  0  0  0  0
    6.5126    9.1186    9.9098 H   0  0  0  0  0  0  0  0  0  0  0  0
    6.4170    8.2142   11.4243 H   0  0  0  0  0  0  0  0  0  0  0  0
    5.2852   12.4078   10.6266 C   0  0  0  0  0  0  0  0  0  0  0  0
    4.6555   12.9857   11.3066 H   0  0  0  0  0  0  0  0  0  0  0  0
    6.1540   12.0341   11.1719 H   0  0  0  0  0  0  0  0  0  0  0  0
    5.7588   13.2415    9.4388 C   0  0  0  0  0  0  0  0  0  0  0  0
    4.9530   13.9322    9.1162 H   0  0  0  0  0  0  0  0  0  0  0  0
    6.6005   13.8841    9.7537 H   0  0  0  0  0  0  0  0  0  0  0  0
    6.6596   13.2479    7.2651 C   0  0  0  0  0  0  0  0  0  0  0  0
    7.4648   13.9018    7.6451 H   0  0  0  0  0  0  0  0  0  0  0  0
    5.8558   13.9278    6.9153 H   0  0  0  0  0  0  0  0  0  0  0  0
    7.1873   12.4206    6.0956 C   0  0  0  0  0  0  0  0  0  0  0  0
    8.1905   12.0621    6.3339 H   0  0  0  0  0  0  0  0  0  0  0  0
    7.2229   12.9983    5.1694 H   0  0  0  0  0  0  0  0  0  0  0  0
    4.9973   11.3056    4.5088 C   0  0  0  0  0  0  0  0  0  0  0  0
    5.6366   11.7023    3.7094 H   0  0  0  0  0  0  0  0  0  0  0  0
    3.9872   12.3711    4.9278 C   0  0  0  0  0  0  0  0  0  0  0  0
    3.2929   12.5879    4.1173 H   0  0  0  0  0  0  0  0  0  0  0  0
    4.4845   13.2980    5.2097 H   0  0  0  0  0  0  0  0  0  0  0  0
    3.4106   12.0137    5.7837 H   0  0  0  0  0  0  0  0  0  0  0  0
    4.2784   10.0480    4.0303 C   0  0  0  0  0  0  0  0  0  0  0  0
    3.7479    9.5720    4.8533 H   0  0  0  0  0  0  0  0  0  0  0  0
    4.9741    9.3253    3.6115 H   0  0  0  0  0  0  0  0  0  0  0  0
    3.5534   10.3061    3.2596 H   0  0  0  0  0  0  0  0  0  0  0  0
    7.1912    9.5672    5.4211 C   0  0  0  0  0  0  0  0  0  0  0  0
    6.5248    8.7130    5.2481 H   0  0  0  0  0  0  0  0  0  0  0  0
    8.1204    9.2075    6.5795 C   0  0  0  0  0  0  0  0  0  0  0  0
    8.6003    8.2472    6.4026 H   0  0  0  0  0  0  0  0  0  0  0  0
    7.5496    9.1373    7.5097 H   0  0  0  0  0  0  0  0  0  0  0  0
    8.8968    9.9587    6.7142 H   0  0  0  0  0  0  0  0  0  0  0  0
    7.9713    9.8786    4.1495 C   0  0  0  0  0  0  0  0  0  0  0  0
    8.6029   10.7553    4.2825 H   0  0  0  0  0  0  0  0  0  0  0  0
    7.3078   10.0547    3.3063 H   0  0  0  0  0  0  0  0  0  0  0  0
    8.6141    9.0352    3.9013 H   0  0  0  0  0  0  0  0  0  0  0  0
    4.4133   10.9530    9.9064 P   0  0  0  0  0  4  0  0  0  0  0  0
    6.0830   10.9499    5.9785 P   0  0  0  0  0  4  0  0  0  0  0  0
    5.2699   10.7878    7.9521 Ni  0  0  2  0  0  0  0  0  0  0  0  0
    4.4730    8.7088    7.6125 Br  0  0  0  0  0  0  0  0  0  0  0  0
    6.2106   12.4030    8.3499 N   0  0  2  0  0  0  0  0  0  0  0  0
  1  2  1  0  0  0  0
  3  4  1  0  0  0  0
  3  1  1  0  0  0  0
  3  5  1  0  0  0  0
  6  3  1  0  0  0  0
  7 10  1  0  0  0  0
  7  9  1  0  0  0  0
  7  1  1  0  0  0  0
  8  7  1  0  0  0  0
 11 13  1  0  0  0  0
 12 11  1  0  0  0  0
 13 15  1  0  0  0  0
 13 16  1  0  0  0  0
 13 14  1  0  0  0  0
 17 11  1  0  0  0  0
 17 20  1  0  0  0  0
 17 18  1  0  0  0  0
 19 17  1  0  0  0  0
 21 23  1  0  0  0  0
 21 22  1  0  0  0  0
 24 26  1  0  0  0  0
 24 21  1  0  0  0  0
 25 24  1  0  0  0  0
 27 28  1  0  0  0  0
 29 27  1  0  0  0  0
 30 31  1  0  0  0  0
 30 27  1  0  0  0  0
 32 30  1  0  0  0  0
 33 35  1  0  0  0  0
 33 54  1  0  0  0  0
 34 33  1  0  0  0  0
 35 37  1  0  0  0  0
 35 38  1  0  0  0  0
 36 35  1  0  0  0  0
 39 33  1  0  0  0  0
 39 40  1  0  0  0  0
 41 39  1  0  0  0  0
 42 39  1  0  0  0  0
 43 54  1  0  0  0  0
 43 45  1  0  0  0  0
 44 43  1  0  0  0  0
 45 48  1  0  0  0  0
 45 47  1  0  0  0  0
 46 45  1  0  0  0  0
 49 50  1  0  0  0  0
 49 43  1  0  0  0  0
 51 49  1  0  0  0  0
 52 49  1  0  0  0  0
 53  1  1  0  0  0  0
 53 21  1  0  0  0  0
 53 11  1  0  0  0  0
 54 30  1  0  0  0  0
 54 55  1  0  0  0  0
 55 56  1  1  0  0  0
 55 57  1  0  0  0  0
 55 53  1  0  0  0  0
 57 27  1  6  0  0  0
 57 24  1  0  0  0  0
M  END
$$$$
