CSD_code = DAJJAC | q = 0 | S = 0 | Stoichiometry = C17H20Cl2N3Rh | MND = 6
 OpenBabel04212202023D

 43 48  0  0  1  0  0  0  0  0999 V2000
    2.3453    2.8902    5.6685 Rh  0  0  0  0  0  0  0  0  0  0  0  0
    0.8633    4.9074    4.4325 C   0  0  2  0  0  3  0  0  0  0  0  0
    2.1815    4.0567    7.8004 Cl  0  0  0  0  0  0  0  0  0  0  0  0
    2.0941    4.5723    4.8187 N   0  0  0  0  0  0  0  0  0  0  0  0
    4.3984    3.2987    5.3139 N   0  0  1  0  0  4  0  0  0  0  0  0
    0.6671    5.9711    3.5700 C   0  0  0  0  0  0  0  0  0  0  0  0
   -0.3277    6.2472    3.2584 H   0  0  0  0  0  0  0  0  0  0  0  0
    2.6557    0.7984    6.4953 Cl  0  0  0  0  0  0  0  0  0  0  0  0
    0.2585    2.6901    5.3319 N   0  0  1  0  0  4  0  0  0  0  0  0
    1.7766    6.6759    3.1201 C   0  0  0  0  0  0  0  0  0  0  0  0
    1.6515    7.5047    2.4412 H   0  0  0  0  0  0  0  0  0  0  0  0
    3.0463    6.3202    3.5577 C   0  0  0  0  0  0  0  0  0  0  0  0
    3.9166    6.8698    3.2362 H   0  0  0  0  0  0  0  0  0  0  0  0
    3.1727    5.2463    4.4207 C   0  0  0  0  0  0  0  0  0  0  0  0
    4.4322    4.7612    5.0802 C   0  0  0  0  0  0  0  0  0  0  0  0
    4.4637    5.2471    6.0640 H   0  0  0  0  0  0  0  0  0  0  0  0
    5.3286    5.0499    4.5170 H   0  0  0  0  0  0  0  0  0  0  0  0
    5.2874    2.9604    6.4284 C   0  0  0  0  0  0  0  0  0  0  0  0
    6.3210    3.2529    6.2129 H   0  0  0  0  0  0  0  0  0  0  0  0
    5.2382    1.8873    6.6111 H   0  0  0  0  0  0  0  0  0  0  0  0
    4.9405    3.4666    7.3299 H   0  0  0  0  0  0  0  0  0  0  0  0
    4.8202    2.5693    4.0832 C   0  0  0  0  0  0  0  0  0  0  0  0
    5.6383    3.1064    3.5863 H   0  0  0  0  0  0  0  0  0  0  0  0
    5.1935    1.5890    4.3969 H   0  0  0  0  0  0  0  0  0  0  0  0
    3.6440    2.3300    3.1734 C   0  0  0  0  0  0  0  0  0  0  0  0
    1.2414    1.9786    3.1831 C   0  0  0  0  0  0  0  0  0  0  0  0
    2.4341    2.2312    3.8390 C   0  0  0  0  0  0  0  0  0  0  0  0
    1.2660    1.7879    1.8100 C   0  0  0  0  0  0  0  0  0  0  0  0
    0.3563    1.5757    1.2661 H   0  0  0  0  0  0  0  0  0  0  0  0
    0.0531    1.8714    4.1023 C   0  0  0  0  0  0  0  0  0  0  0  0
   -0.0220    0.8251    4.4158 H   0  0  0  0  0  0  0  0  0  0  0  0
   -0.8883    2.1525    3.6129 H   0  0  0  0  0  0  0  0  0  0  0  0
    3.6643    2.1384    1.8004 C   0  0  0  0  0  0  0  0  0  0  0  0
    4.5925    2.1947    1.2491 H   0  0  0  0  0  0  0  0  0  0  0  0
    2.4752    1.8758    1.1336 C   0  0  0  0  0  0  0  0  0  0  0  0
    2.4918    1.7336    0.0631 H   0  0  0  0  0  0  0  0  0  0  0  0
   -0.4860    2.1097    6.4524 C   0  0  0  0  0  0  0  0  0  0  0  0
   -1.5621    2.0937    6.2467 H   0  0  0  0  0  0  0  0  0  0  0  0
   -0.2908    2.6931    7.3530 H   0  0  0  0  0  0  0  0  0  0  0  0
   -0.1296    1.0955    6.6308 H   0  0  0  0  0  0  0  0  0  0  0  0
   -0.1966    4.0813    5.1037 C   0  0  0  0  0  0  0  0  0  0  0  0
   -1.1445    4.1006    4.5512 H   0  0  0  0  0  0  0  0  0  0  0  0
   -0.3550    4.5374    6.0895 H   0  0  0  0  0  0  0  0  0  0  0  0
  1  8  1  0  0  0  0
  1  3  1  0  0  0  0
  2  6  1  1  0  0  0
  2  4  1  0  0  0  0
  2 41  1  0  0  0  0
  4  1  1  0  0  0  0
  5  1  1  0  0  0  0
  5 18  1  1  0  0  0
  7  6  1  0  0  0  0
  9  1  1  0  0  0  0
  9 37  1  1  0  0  0
 10 12  1  0  0  0  0
 10  6  2  0  0  0  0
 11 10  1  0  0  0  0
 12 14  2  0  0  0  0
 13 12  1  0  0  0  0
 14  4  1  0  0  0  0
 14 15  1  0  0  0  0
 15  5  1  0  0  0  0
 15 16  1  0  0  0  0
 17 15  1  0  0  0  0
 18 20  1  0  0  0  0
 18 21  1  0  0  0  0
 19 18  1  0  0  0  0
 22 24  1  0  0  0  0
 22  5  1  0  0  0  0
 23 22  1  0  0  0  0
 25 27  1  0  0  0  0
 25 22  1  0  0  0  0
 26 27  2  0  0  0  0
 26 30  1  0  0  0  0
 27  1  1  0  0  0  0
 28 26  1  0  0  0  0
 29 28  1  0  0  0  0
 30 31  1  0  0  0  0
 30  9  1  0  0  0  0
 32 30  1  0  0  0  0
 33 25  2  0  0  0  0
 34 33  1  0  0  0  0
 35 33  1  0  0  0  0
 35 28  2  0  0  0  0
 36 35  1  0  0  0  0
 37 40  1  0  0  0  0
 37 39  1  0  0  0  0
 38 37  1  0  0  0  0
 41  9  1  0  0  0  0
 41 43  1  0  0  0  0
 42 41  1  0  0  0  0
M  END
$$$$
