CSD_code = DAJKEH | q = 0 | S = 0 | Stoichiometry = C13H15BrN6S3Zn | MND = 5
 OpenBabel04212202023D

 39 44  0  0  1  0  0  0  0  0999 V2000
    5.9646    3.6685    1.1475 Zn  0  0  0  0  0  0  0  0  0  0  0  0
    4.4530    4.3591    2.7750 Br  0  0  0  0  0  0  0  0  0  0  0  0
    8.8937    2.1027    0.2201 S   0  0  0  0  0  0  0  0  0  0  0  0
    8.1244    4.3833   -1.4428 S   0  0  0  0  0  0  0  0  0  0  0  0
    6.6963    1.8512   -1.6977 S   0  0  0  0  0  0  0  0  0  0  0  0
    7.3030    2.6923    2.3549 N   0  0  0  0  0  0  0  0  0  0  0  0
    9.1104    1.5442    2.8618 N   0  0  0  0  0  0  0  0  0  0  0  0
    6.5775    5.5150    0.4964 N   0  0  0  0  0  0  0  0  0  0  0  0
    7.6957    6.9603   -0.7296 N   0  0  0  0  0  0  0  0  0  0  0  0
    4.6902    2.5022    0.0338 N   0  0  0  0  0  0  0  0  0  0  0  0
    4.1019    1.1035   -1.5606 N   0  0  0  0  0  0  0  0  0  0  0  0
    7.4769    2.9719   -0.5083 C   0  0  2  0  0  0  0  0  0  0  0  0
    8.3946    2.1264    1.8793 C   0  0  1  0  0  3  0  0  0  0  0  0
    7.3133    2.4730    3.7035 C   0  0  0  0  0  0  0  0  0  0  0  0
    6.5212    2.8408    4.3244 H   0  0  0  0  0  0  0  0  0  0  0  0
    8.4254    1.7673    4.0309 C   0  0  0  0  0  0  0  0  0  0  0  0
    8.7844    1.4066    4.9720 H   0  0  0  0  0  0  0  0  0  0  0  0
   10.3591    0.8526    2.7176 C   0  0  0  0  0  0  0  0  0  0  0  0
   10.4509    0.4896    1.6944 H   0  0  0  0  0  0  0  0  0  0  0  0
   10.3917    0.0100    3.4077 H   0  0  0  0  0  0  0  0  0  0  0  0
   11.1973    1.5210    2.9296 H   0  0  0  0  0  0  0  0  0  0  0  0
    7.4220    5.6598   -0.5055 C   0  0  1  0  0  3  0  0  0  0  0  0
    6.2878    6.7747    0.9390 C   0  0  0  0  0  0  0  0  0  0  0  0
    5.6141    6.9265    1.7584 H   0  0  0  0  0  0  0  0  0  0  0  0
    6.9690    7.6775    0.1884 C   0  0  0  0  0  0  0  0  0  0  0  0
    7.0056    8.7461    0.2259 H   0  0  0  0  0  0  0  0  0  0  0  0
    8.5530    7.4852   -1.7529 C   0  0  0  0  0  0  0  0  0  0  0  0
    9.3472    6.7677   -1.9599 H   0  0  0  0  0  0  0  0  0  0  0  0
    8.9879    8.4248   -1.4152 H   0  0  0  0  0  0  0  0  0  0  0  0
    7.9927    7.6600   -2.6748 H   0  0  0  0  0  0  0  0  0  0  0  0
    5.1001    1.8346   -1.0265 C   0  0  1  0  0  3  0  0  0  0  0  0
    3.3688    2.1928    0.1932 C   0  0  0  0  0  0  0  0  0  0  0  0
    2.8004    2.6135    0.9982 H   0  0  0  0  0  0  0  0  0  0  0  0
    2.9918    1.3315   -0.7861 C   0  0  0  0  0  0  0  0  0  0  0  0
    2.0514    0.8664   -0.9960 H   0  0  0  0  0  0  0  0  0  0  0  0
    4.1979    0.2740   -2.7271 C   0  0  0  0  0  0  0  0  0  0  0  0
    5.1112   -0.3210   -2.6808 H   0  0  0  0  0  0  0  0  0  0  0  0
    4.2320    0.8863   -3.6315 H   0  0  0  0  0  0  0  0  0  0  0  0
    3.3337   -0.3857   -2.7709 H   0  0  0  0  0  0  0  0  0  0  0  0
  1  6  1  0  0  0  0
  1  2  1  0  0  0  0
  4 12  1  0  0  0  0
  6 14  1  0  0  0  0
  7 16  1  0  0  0  0
  8 23  1  0  0  0  0
  8  1  1  0  0  0  0
  9 22  1  0  0  0  0
  9 25  1  0  0  0  0
 10 32  1  0  0  0  0
 10  1  1  0  0  0  0
 11 31  1  0  0  0  0
 11 34  1  0  0  0  0
 12  5  1  6  0  0  0
 12  3  1  0  0  0  0
 12  1  1  0  0  0  0
 13  3  1  6  0  0  0
 13  6  1  0  0  0  0
 13  7  1  0  0  0  0
 14 16  2  0  0  0  0
 14 15  1  0  0  0  0
 16 17  1  0  0  0  0
 18  7  1  0  0  0  0
 18 21  1  0  0  0  0
 18 20  1  0  0  0  0
 19 18  1  0  0  0  0
 22  4  1  1  0  0  0
 22  8  1  0  0  0  0
 23 24  1  0  0  0  0
 25 26  1  0  0  0  0
 25 23  2  0  0  0  0
 27 29  1  0  0  0  0
 27  9  1  0  0  0  0
 28 27  1  0  0  0  0
 30 27  1  0  0  0  0
 31  5  1  6  0  0  0
 31 10  1  0  0  0  0
 32 33  1  0  0  0  0
 34 32  2  0  0  0  0
 35 34  1  0  0  0  0
 36 37  1  0  0  0  0
 36 11  1  0  0  0  0
 38 36  1  0  0  0  0
 39 36  1  0  0  0  0
M  END
$$$$
