CSD_code = DAJQOX | q = 0 | S = 0 | Stoichiometry = C12H9AuCl2FN | MND = 4
 OpenBabel04212202023D

 26 28  0  0  0  0  0  0  0  0999 V2000
    1.4032    1.6488    4.1855 Au  0  0  0  0  0  0  0  0  0  0  0  0
    2.5602   -0.2501    3.5632 Cl  0  0  0  0  0  0  0  0  0  0  0  0
    0.7530    2.0067    2.0963 Cl  0  0  0  0  0  0  0  0  0  0  0  0
    0.6555    4.9638    8.0984 F   0  0  0  0  0  0  0  0  0  0  0  0
    1.8361    1.4200    6.1670 N   0  0  0  0  0  0  0  0  0  0  0  0
    2.4924    0.3724    6.6443 C   0  0  0  0  0  0  0  0  0  0  0  0
    2.9954   -0.2434    5.9112 H   0  0  0  0  0  0  0  0  0  0  0  0
    2.4978    0.0831    7.9954 C   0  0  0  0  0  0  0  0  0  0  0  0
    3.0688   -0.7506    8.3686 H   0  0  0  0  0  0  0  0  0  0  0  0
    1.6920    0.8416    8.8243 C   0  0  0  0  0  0  0  0  0  0  0  0
    1.5880    0.5808    9.8674 H   0  0  0  0  0  0  0  0  0  0  0  0
    0.9837    1.9347    8.3302 C   0  0  0  0  0  0  0  0  0  0  0  0
    1.1655    2.2682    6.9791 C   0  0  0  0  0  0  0  0  0  0  0  0
    0.0110    2.6178    9.2346 C   0  0  0  0  0  0  0  0  0  0  0  0
    0.4972    3.3996    9.8156 H   0  0  0  0  0  0  0  0  0  0  0  0
   -0.4002    1.8909    9.9320 H   0  0  0  0  0  0  0  0  0  0  0  0
   -0.8053    3.0648    8.6738 H   0  0  0  0  0  0  0  0  0  0  0  0
    0.6383    3.4299    6.2705 C   0  0  0  0  0  0  0  0  0  0  0  0
    0.3385    4.6793    6.8195 C   0  0  0  0  0  0  0  0  0  0  0  0
   -0.2179    5.6970    6.0676 C   0  0  0  0  0  0  0  0  0  0  0  0
   -0.4383    6.6382    6.5463 H   0  0  0  0  0  0  0  0  0  0  0  0
   -0.4528    5.4925    4.7217 C   0  0  0  0  0  0  0  0  0  0  0  0
   -0.9004    6.2723    4.1259 H   0  0  0  0  0  0  0  0  0  0  0  0
   -0.0541    4.3050    4.1220 C   0  0  0  0  0  0  0  0  0  0  0  0
   -0.1681    4.1725    3.0578 H   0  0  0  0  0  0  0  0  0  0  0  0
    0.5061    3.2957    4.8755 C   0  0  0  0  0  0  0  0  0  0  0  0
  1 26  2  0  0  0  0
  1  5  1  0  0  0  0
  2  1  1  0  0  0  0
  3  1  1  0  0  0  0
  5  6  1  0  0  0  0
  5 13  1  0  0  0  0
  6  8  2  0  0  0  0
  7  6  1  0  0  0  0
  8  9  1  0  0  0  0
  8 10  1  0  0  0  0
 10 11  1  0  0  0  0
 12 10  2  0  0  0  0
 12 14  1  0  0  0  0
 13 12  1  0  0  0  0
 14 15  1  0  0  0  0
 14 16  1  0  0  0  0
 17 14  1  0  0  0  0
 18 19  1  0  0  0  0
 18 13  2  0  0  0  0
 19  4  1  0  0  0  0
 20 21  1  0  0  0  0
 20 19  2  0  0  0  0
 22 20  1  0  0  0  0
 23 22  1  0  0  0  0
 24 22  2  0  0  0  0
 24 26  1  0  0  0  0
 25 24  1  0  0  0  0
 26 18  1  0  0  0  0
M  END
$$$$
