CSD_code = DAKMUZ | q = 0 | S = 0 | Stoichiometry = C18H24Cl2N2Zn | MND = 4
 OpenBabel04212202023D

 47 49  0  0  0  0  0  0  0  0999 V2000
   16.5066    8.1884    7.4134 C   0  0  0  0  0  3  0  0  0  0  0  0
   16.4711    8.6333    8.3981 H   0  0  0  0  0  0  0  0  0  0  0  0
   16.8464    8.9429    6.3031 C   0  0  0  0  0  0  0  0  0  0  0  0
   17.0738    9.9863    6.4355 H   0  0  0  0  0  0  0  0  0  0  0  0
   16.8960    8.3356    5.0525 C   0  0  0  0  0  0  0  0  0  0  0  0
   17.2571    9.0749    3.7787 C   0  0  0  0  0  0  0  0  0  0  0  0
   18.4623    8.3873    3.1218 C   0  0  0  0  0  0  0  0  0  0  0  0
   18.2335    7.3669    2.8272 H   0  0  0  0  0  0  0  0  0  0  0  0
   19.3051    8.3644    3.8090 H   0  0  0  0  0  0  0  0  0  0  0  0
   18.7589    8.9366    2.2317 H   0  0  0  0  0  0  0  0  0  0  0  0
   17.6187   10.5388    4.0398 C   0  0  0  0  0  0  0  0  0  0  0  0
   18.4728   10.6172    4.7080 H   0  0  0  0  0  0  0  0  0  0  0  0
   16.7785   11.0819    4.4656 H   0  0  0  0  0  0  0  0  0  0  0  0
   17.8836   11.0180    3.1001 H   0  0  0  0  0  0  0  0  0  0  0  0
   16.0473    9.0315    2.8335 C   0  0  0  0  0  0  0  0  0  0  0  0
   15.1814    9.4906    3.3058 H   0  0  0  0  0  0  0  0  0  0  0  0
   15.7883    8.0112    2.5635 H   0  0  0  0  0  0  0  0  0  0  0  0
   16.2717    9.5784    1.9210 H   0  0  0  0  0  0  0  0  0  0  0  0
   16.5824    6.9784    5.0064 C   0  0  0  0  0  0  0  0  0  0  0  0
   16.6279    6.4516    4.0679 H   0  0  0  0  0  0  0  0  0  0  0  0
   16.2366    6.2896    6.1629 C   0  0  0  0  0  0  0  0  0  0  0  0
   16.2087    6.9035    7.3488 N   0  0  0  0  0  0  0  0  0  0  0  0
   18.1008    5.5917    9.8308 Cl  0  0  0  0  0  0  0  0  0  0  0  0
   16.0675    5.5722    9.0024 Zn  0  0  0  0  0  0  0  0  0  0  0  0
   15.6248    2.9564    7.4135 C   0  0  0  0  0  3  0  0  0  0  0  0
   15.6590    2.5119    8.3984 H   0  0  0  0  0  0  0  0  0  0  0  0
   15.2854    2.2019    6.3032 C   0  0  0  0  0  0  0  0  0  0  0  0
   15.0576    1.1585    6.4356 H   0  0  0  0  0  0  0  0  0  0  0  0
   15.2364    2.8090    5.0525 C   0  0  0  0  0  0  0  0  0  0  0  0
   14.8760    2.0695    3.7786 C   0  0  0  0  0  0  0  0  0  0  0  0
   13.6711    2.7570    3.1210 C   0  0  0  0  0  0  0  0  0  0  0  0
   13.9000    3.7774    2.8265 H   0  0  0  0  0  0  0  0  0  0  0  0
   12.8280    2.7799    3.8077 H   0  0  0  0  0  0  0  0  0  0  0  0
   13.3750    2.2076    2.2307 H   0  0  0  0  0  0  0  0  0  0  0  0
   14.5143    0.6057    4.0396 C   0  0  0  0  0  0  0  0  0  0  0  0
   13.6598    0.5273    4.7074 H   0  0  0  0  0  0  0  0  0  0  0  0
   15.3543    0.0627    4.4659 H   0  0  0  0  0  0  0  0  0  0  0  0
   14.2500    0.1263    3.0999 H   0  0  0  0  0  0  0  0  0  0  0  0
   16.0863    2.1128    2.8339 C   0  0  0  0  0  0  0  0  0  0  0  0
   16.9519    1.6538    3.3067 H   0  0  0  0  0  0  0  0  0  0  0  0
   16.3454    3.1331    2.5639 H   0  0  0  0  0  0  0  0  0  0  0  0
   15.8623    1.5658    1.9214 H   0  0  0  0  0  0  0  0  0  0  0  0
   15.5500    4.1661    5.0063 C   0  0  0  0  0  0  0  0  0  0  0  0
   15.5053    4.6928    4.0677 H   0  0  0  0  0  0  0  0  0  0  0  0
   15.8952    4.8551    6.1629 C   0  0  0  0  0  0  0  0  0  0  0  0
   15.9228    4.2413    7.3489 N   0  0  0  0  0  0  0  0  0  0  0  0
   14.0377    5.5527    9.8389 Cl  0  0  0  0  0  0  0  0  0  0  0  0
  1  2  1  0  0  0  0
  3  4  1  0  0  0  0
  3  1  1  0  0  0  0
  5  3  2  0  0  0  0
  6 11  1  0  0  0  0
  6  5  1  0  0  0  0
  7  6  1  0  0  0  0
  7  9  1  0  0  0  0
  8  7  1  0  0  0  0
 10  7  1  0  0  0  0
 11 13  1  0  0  0  0
 11 12  1  0  0  0  0
 14 11  1  0  0  0  0
 15 16  1  0  0  0  0
 15  6  1  0  0  0  0
 17 15  1  0  0  0  0
 18 15  1  0  0  0  0
 19  5  1  0  0  0  0
 19 21  2  0  0  0  0
 20 19  1  0  0  0  0
 21 45  1  0  0  0  0
 21 22  1  0  0  0  0
 22  1  1  0  0  0  0
 22 24  1  0  0  0  0
 24 23  1  0  0  0  0
 24 47  1  0  0  0  0
 25 26  1  0  0  0  0
 27 28  1  0  0  0  0
 27 25  1  0  0  0  0
 29 27  2  0  0  0  0
 30 35  1  0  0  0  0
 30 29  1  0  0  0  0
 31 30  1  0  0  0  0
 31 33  1  0  0  0  0
 32 31  1  0  0  0  0
 34 31  1  0  0  0  0
 35 37  1  0  0  0  0
 35 36  1  0  0  0  0
 38 35  1  0  0  0  0
 39 40  1  0  0  0  0
 39 30  1  0  0  0  0
 41 39  1  0  0  0  0
 42 39  1  0  0  0  0
 43 29  1  0  0  0  0
 43 45  2  0  0  0  0
 44 43  1  0  0  0  0
 45 46  1  0  0  0  0
 46 25  1  0  0  0  0
 46 24  1  0  0  0  0
M  END
$$$$
