CSD_code = DAKSIT | q = 0 | S = 0 | Stoichiometry = C23H23IN5ORh | MND = 6
 OpenBabel04212202023D

 54 59  0  0  1  0  0  0  0  0999 V2000
    1.9724    1.2992    2.7257 I   0  0  0  0  0  0  0  0  0  0  0  0
    3.6456    3.5188    2.7747 Rh  0  0  0  0  0  0  0  0  0  0  0  0
    4.8186    2.1911    5.1892 O   0  0  0  0  0  1  0  0  0  0  0  0
    2.7920    4.3329    1.1393 N   0  0  0  0  0  0  0  0  0  0  0  0
    4.9191    2.5826    1.5436 N   0  0  1  0  0  0  0  0  0  0  0  0
    4.6352    2.2856    0.2738 N   0  0  0  0  0  0  0  0  0  0  0  0
    2.2842    4.5358    3.8477 N   0  0  1  0  0  0  0  0  0  0  0  0
    1.6579    5.6405    3.4307 N   0  0  0  0  0  0  0  0  0  0  0  0
    2.5394    3.5465    0.0411 C   0  0  0  0  0  0  0  0  0  0  0  0
    3.3837    2.4853   -0.3392 C   0  0  0  0  0  0  0  0  0  0  0  0
    3.0087    1.6094   -1.3560 C   0  0  0  0  0  0  0  0  0  0  0  0
    3.6377    0.7596   -1.5741 H   0  0  0  0  0  0  0  0  0  0  0  0
    1.8366    1.7812   -2.0640 C   0  0  0  0  0  0  0  0  0  0  0  0
    1.0232    2.8644   -1.7299 C   0  0  0  0  0  0  0  0  0  0  0  0
    0.0971    3.0169   -2.2644 H   0  0  0  0  0  0  0  0  0  0  0  0
    1.3586    3.7121   -0.7050 C   0  0  0  0  0  0  0  0  0  0  0  0
    0.6888    4.5129   -0.4265 H   0  0  0  0  0  0  0  0  0  0  0  0
    1.4271    0.8266   -3.1422 C   0  0  0  0  0  0  0  0  0  0  0  0
    0.5134    0.3080   -2.8541 H   0  0  0  0  0  0  0  0  0  0  0  0
    2.2009    0.0849   -3.3223 H   0  0  0  0  0  0  0  0  0  0  0  0
    1.2292    1.3607   -4.0709 H   0  0  0  0  0  0  0  0  0  0  0  0
    6.1796    2.2148    1.7645 C   0  0  0  0  0  3  0  0  0  0  0  0
    6.6463    2.3529    2.7217 H   0  0  0  0  0  0  0  0  0  0  0  0
    6.7248    1.6780    0.6048 C   0  0  0  0  0  0  0  0  0  0  0  0
    7.7147    1.2970    0.4650 H   0  0  0  0  0  0  0  0  0  0  0  0
    5.7110    1.7436   -0.3257 C   0  0  0  0  0  0  0  0  0  0  0  0
    5.7092    1.4667   -1.3592 H   0  0  0  0  0  0  0  0  0  0  0  0
    1.7190    4.1718    4.9964 C   0  0  0  0  0  3  0  0  0  0  0  0
    2.0322    3.2926    5.5271 H   0  0  0  0  0  0  0  0  0  0  0  0
    0.7023    5.0601    5.3266 C   0  0  0  0  0  0  0  0  0  0  0  0
    0.0621    5.0263    6.1827 H   0  0  0  0  0  0  0  0  0  0  0  0
    0.6892    5.9805    4.3031 C   0  0  0  0  0  0  0  0  0  0  0  0
    0.0384    6.8129    4.1332 H   0  0  0  0  0  0  0  0  0  0  0  0
    2.4217    5.6495    1.1013 C   0  0  0  0  0  0  0  0  0  0  0  0
    1.9601    6.3347    2.2443 C   0  0  0  0  0  0  0  0  0  0  0  0
    1.7450    7.7099    2.2127 C   0  0  0  0  0  0  0  0  0  0  0  0
    1.4477    8.2152    3.1202 H   0  0  0  0  0  0  0  0  0  0  0  0
    1.9155    8.4428    1.0542 C   0  0  0  0  0  0  0  0  0  0  0  0
    2.3092    7.7614   -0.0984 C   0  0  0  0  0  0  0  0  0  0  0  0
    2.4424    8.3110   -1.0188 H   0  0  0  0  0  0  0  0  0  0  0  0
    2.5616    6.4130   -0.0746 C   0  0  0  0  0  0  0  0  0  0  0  0
    2.9003    5.9114   -0.9703 H   0  0  0  0  0  0  0  0  0  0  0  0
    1.6731    9.9206    1.0236 C   0  0  0  0  0  0  0  0  0  0  0  0
    2.4636   10.4270    0.4729 H   0  0  0  0  0  0  0  0  0  0  0  0
    1.6290   10.3298    2.0299 H   0  0  0  0  0  0  0  0  0  0  0  0
    0.7282   10.1372    0.5240 H   0  0  0  0  0  0  0  0  0  0  0  0
    4.3887    2.7233    4.2747 C   0  0  0  0  0  2  0  0  0  0  0  0
    4.9786    5.1797    2.9111 C   0  0  0  0  0  0  0  0  0  0  0  0
    4.4012    6.0428    3.2618 H   0  0  0  0  0  0  0  0  0  0  0  0
    5.7312    4.9697    3.6803 H   0  0  0  0  0  0  0  0  0  0  0  0
    5.7121    5.5910    1.6403 C   0  0  0  0  0  0  0  0  0  0  0  0
    5.0265    5.8374    0.8318 H   0  0  0  0  0  0  0  0  0  0  0  0
    6.3994    4.8198    1.2959 H   0  0  0  0  0  0  0  0  0  0  0  0
    6.3035    6.4861    1.8480 H   0  0  0  0  0  0  0  0  0  0  0  0
  1  2  1  0  0  0  0
  2 48  1  0  0  0  0
  2  7  1  0  0  0  0
  2 47  1  0  0  0  0
  4  2  1  0  0  0  0
  5 22  1  6  0  0  0
  5  2  1  0  0  0  0
  6  5  1  0  0  0  0
  7 28  1  6  0  0  0
  8  7  1  0  0  0  0
  8 32  1  0  0  0  0
  9  4  1  0  0  0  0
 10  9  1  0  0  0  0
 10  6  1  0  0  0  0
 11 10  2  0  0  0  0
 12 11  1  0  0  0  0
 13 14  2  0  0  0  0
 13 11  1  0  0  0  0
 14 16  1  0  0  0  0
 15 14  1  0  0  0  0
 16 17  1  0  0  0  0
 16  9  2  0  0  0  0
 18 19  1  0  0  0  0
 18 13  1  0  0  0  0
 20 18  1  0  0  0  0
 21 18  1  0  0  0  0
 22 23  1  0  0  0  0
 24 22  1  0  0  0  0
 25 24  1  0  0  0  0
 26  6  1  0  0  0  0
 26 24  2  0  0  0  0
 27 26  1  0  0  0  0
 28 30  1  0  0  0  0
 28 29  1  0  0  0  0
 30 31  1  0  0  0  0
 32 30  2  0  0  0  0
 33 32  1  0  0  0  0
 34  4  1  0  0  0  0
 34 35  1  0  0  0  0
 35  8  1  0  0  0  0
 36 35  2  0  0  0  0
 36 37  1  0  0  0  0
 38 36  1  0  0  0  0
 39 41  1  0  0  0  0
 39 38  2  0  0  0  0
 40 39  1  0  0  0  0
 41 34  2  0  0  0  0
 42 41  1  0  0  0  0
 43 38  1  0  0  0  0
 43 45  1  0  0  0  0
 44 43  1  0  0  0  0
 46 43  1  0  0  0  0
 47  3  1  0  0  0  0
 48 49  1  0  0  0  0
 48 50  1  0  0  0  0
 51 54  1  0  0  0  0
 51 48  1  0  0  0  0
 52 51  1  0  0  0  0
 53 51  1  0  0  0  0
M  END
$$$$
