CSD_code = DALDUR | q = 1 | S = 0 | Stoichiometry = C21H22BrIN3Os(1+) | MND = 9
 OpenBabel04212202023D

 49 51  0  0  1  0  0  0  0  0999 V2000
    0.9217    2.1971    9.9948 Os  0  0  0  0  0  0  0  0  0  0  0  0
   -1.3863    3.3163   10.2023 I   0  0  0  0  0 15  0  0  0  0  0  0
    0.7112    0.9971   11.5656 N   0  0  0  0  0  0  0  0  0  0  0  0
    0.0305   -0.1431   11.6422 C   0  0  0  0  0  3  0  0  0  0  0  0
   -0.4666   -0.4892   10.7456 H   0  0  0  0  0  0  0  0  0  0  0  0
   -1.0325   -2.4786   12.8474 Br  0  0  0  0  0  0  0  0  0  0  0  0
   -0.0676   -0.8545   12.8253 C   0  0  0  0  0  0  0  0  0  0  0  0
    0.5431   -0.3626   13.9861 C   0  0  0  0  0  0  0  0  0  0  0  0
    0.4574   -0.9062   14.9132 H   0  0  0  0  0  0  0  0  0  0  0  0
    1.2377    0.8194   13.9166 C   0  0  0  0  0  0  0  0  0  0  0  0
    1.7203    1.2559   14.7746 H   0  0  0  0  0  0  0  0  0  0  0  0
    1.3175    1.4923   12.6891 C   0  0  0  0  0  0  0  0  0  0  0  0
    1.9997    2.6389   12.5212 N   0  0  0  0  0  2  0  0  0  0  0  0
    1.9335    3.1132   11.3272 N   0  0  0  0  0  0  0  0  0  0  0  0
    2.6701    4.2661   11.0642 C   0  0  0  0  0  0  0  0  0  0  0  0
    3.8278    4.5497   11.7971 C   0  0  0  0  0  0  0  0  0  0  0  0
    4.1321    3.8626   12.5710 H   0  0  0  0  0  0  0  0  0  0  0  0
    4.5529    5.6894   11.5158 C   0  0  0  0  0  0  0  0  0  0  0  0
    5.4470    5.9046   12.0792 H   0  0  0  0  0  0  0  0  0  0  0  0
    4.1340    6.5578   10.5175 C   0  0  0  0  0  0  0  0  0  0  0  0
    4.7019    7.4498   10.3052 H   0  0  0  0  0  0  0  0  0  0  0  0
    2.9755    6.2890    9.8019 C   0  0  0  0  0  0  0  0  0  0  0  0
    2.6354    6.9795    9.0460 H   0  0  0  0  0  0  0  0  0  0  0  0
    2.2428    5.1494   10.0672 C   0  0  0  0  0  0  0  0  0  0  0  0
    1.3114    4.9700    9.5455 H   0  0  0  0  0  0  0  0  0  0  0  0
    2.6970    1.9218    8.4717 C   0  0  2  0  0  0  0  0  0  0  0  0
    3.7111    2.1278    8.7943 H   0  0  0  0  0  0  0  0  0  0  0  0
    2.0509    2.8609    7.6427 C   0  0  0  0  0  0  0  0  0  0  0  0
    2.5563    3.7874    7.4053 H   0  0  0  0  0  0  0  0  0  0  0  0
    0.7994    2.5937    7.0927 C   0  0  0  0  0  0  0  0  0  0  0  0
    0.2227    1.3231    7.3363 C   0  0  0  0  0  0  0  0  0  0  0  0
   -0.7262    1.0867    6.8746 H   0  0  0  0  0  0  0  0  0  0  0  0
    0.8852    0.3640    8.0805 C   0  0  0  0  0  0  0  0  0  0  0  0
    0.4707   -0.6329    8.1616 H   0  0  0  0  0  0  0  0  0  0  0  0
    2.1335    0.6423    8.6967 C   0  0  1  0  0  3  0  0  0  0  0  0
    2.9191   -0.4914    9.3182 C   0  0  0  0  0  0  0  0  0  0  0  0
    2.2093   -1.1940    9.7719 H   0  0  0  0  0  0  0  0  0  0  0  0
    3.9059   -0.0392   10.3948 C   0  0  0  0  0  0  0  0  0  0  0  0
    3.4260    0.6004   11.1373 H   0  0  0  0  0  0  0  0  0  0  0  0
    4.7459    0.4980    9.9613 H   0  0  0  0  0  0  0  0  0  0  0  0
    4.3035   -0.9098   10.9094 H   0  0  0  0  0  0  0  0  0  0  0  0
    3.6606   -1.2249    8.1924 C   0  0  0  0  0  0  0  0  0  0  0  0
    4.2091   -2.0681    8.6025 H   0  0  0  0  0  0  0  0  0  0  0  0
    4.3673   -0.5580    7.7036 H   0  0  0  0  0  0  0  0  0  0  0  0
    2.9645   -1.5979    7.4451 H   0  0  0  0  0  0  0  0  0  0  0  0
    0.0830    3.5817    6.2377 C   0  0  0  0  0  0  0  0  0  0  0  0
    0.6915    4.4631    6.0546 H   0  0  0  0  0  0  0  0  0  0  0  0
   -0.8467    3.8924    6.7175 H   0  0  0  0  0  0  0  0  0  0  0  0
   -0.1833    3.1309    5.2829 H   0  0  0  0  0  0  0  0  0  0  0  0
  1 14  1  0  0  0  0
  1  3  1  0  0  0  0
  3  4  1  0  0  0  0
  3 12  1  0  0  0  0
  4  7  1  0  0  0  0
  5  4  1  0  0  0  0
  7  6  1  0  0  0  0
  7  8  2  0  0  0  0
  8  9  1  0  0  0  0
 10  8  1  0  0  0  0
 10 11  1  0  0  0  0
 12 10  2  0  0  0  0
 13 12  1  0  0  0  0
 14 13  1  0  0  0  0
 15 14  1  0  0  0  0
 15 16  1  0  0  0  0
 16 17  1  0  0  0  0
 18 16  2  0  0  0  0
 18 19  1  0  0  0  0
 20 18  1  0  0  0  0
 21 20  1  0  0  0  0
 22 24  1  0  0  0  0
 22 20  2  0  0  0  0
 23 22  1  0  0  0  0
 24 15  2  0  0  0  0
 25 24  1  0  0  0  0
 26 35  1  0  0  0  0
 26 27  1  1  0  0  0
 26  1  1  0  0  0  0
 28 26  1  0  0  0  0
 29 28  1  0  0  0  0
 30 31  1  0  0  0  0
 30 28  2  0  0  0  0
 31 33  2  0  0  0  0
 32 31  1  0  0  0  0
 33 34  1  0  0  0  0
 33 35  1  0  0  0  0
 35 36  1  6  0  0  0
 36 37  1  0  0  0  0
 36 38  1  0  0  0  0
 38 41  1  0  0  0  0
 38 39  1  0  0  0  0
 40 38  1  0  0  0  0
 42 43  1  0  0  0  0
 42 36  1  0  0  0  0
 44 42  1  0  0  0  0
 45 42  1  0  0  0  0
 46 48  1  0  0  0  0
 46 30  1  0  0  0  0
 47 46  1  0  0  0  0
 49 46  1  0  0  0  0
M  END
$$$$
