CSD_code = DALDOL | q = 0 | S = 0 | Stoichiometry = C18H13BrClN3OPdS | MND = 4
 OpenBabel04212202023D

 39 43  0  0  0  0  0  0  0  0999 V2000
    2.5243    1.0978    5.9227 C   0  0  0  0  0  0  0  0  0  0  0  0
    3.0703    0.7546    7.2004 C   0  0  0  0  0  0  0  0  0  0  0  0
    4.1922   -0.0848    7.2555 C   0  0  0  0  0  0  0  0  0  0  0  0
    4.7262   -0.5460    6.0777 C   0  0  0  0  0  0  0  0  0  0  0  0
    5.6009   -1.1775    6.1058 H   0  0  0  0  0  0  0  0  0  0  0  0
    4.1557   -0.2268    4.8404 C   0  0  0  0  0  3  0  0  0  0  0  0
    4.6371   -0.6211    3.9600 H   0  0  0  0  0  0  0  0  0  0  0  0
    3.0285    0.5689    4.7093 C   0  0  0  0  0  0  0  0  0  0  0  0
    2.3433    0.8218    3.4366 C   0  0  0  0  0  0  0  0  0  0  0  0
    2.5377   -0.0783    2.3791 C   0  0  0  0  0  0  0  0  0  0  0  0
    3.1898   -0.9277    2.5109 H   0  0  0  0  0  0  0  0  0  0  0  0
    1.8879    0.0640    1.1783 C   0  0  0  0  0  0  0  0  0  0  0  0
    2.0407   -0.6345    0.3712 H   0  0  0  0  0  0  0  0  0  0  0  0
    0.9937    1.1186    0.9945 C   0  0  0  0  0  0  0  0  0  0  0  0
    0.7802    2.0111    2.0398 C   0  0  0  0  0  0  0  0  0  0  0  0
    0.0708    2.8182    1.8981 H   0  0  0  0  0  0  0  0  0  0  0  0
    1.4440    1.8956    3.2635 C   0  0  0  0  0  0  0  0  0  0  0  0
   -0.5403    2.2077   -0.4698 C   0  0  0  0  0  0  0  0  0  0  0  0
   -1.3945    2.1503    0.2131 H   0  0  0  0  0  0  0  0  0  0  0  0
   -0.8863    2.0531   -1.4908 H   0  0  0  0  0  0  0  0  0  0  0  0
   -0.0790    3.1986   -0.3915 H   0  0  0  0  0  0  0  0  0  0  0  0
    1.6347    5.4065    2.8849 C   0  0  0  0  0  3  0  0  0  0  0  0
    2.6209    4.9485    2.8937 H   0  0  0  0  0  0  0  0  0  0  0  0
    1.4125    6.6273    2.2713 C   0  0  0  0  0  0  0  0  0  0  0  0
    2.2296    7.1503    1.8002 H   0  0  0  0  0  0  0  0  0  0  0  0
    0.1324    7.1604    2.2787 C   0  0  0  0  0  0  0  0  0  0  0  0
   -0.0722    8.1115    1.8117 H   0  0  0  0  0  0  0  0  0  0  0  0
   -0.8791    6.4448    2.9034 C   0  0  0  0  0  0  0  0  0  0  0  0
   -1.8885    6.8228    2.9368 H   0  0  0  0  0  0  0  0  0  0  0  0
   -0.5730    5.2346    3.4983 C   0  0  0  0  0  0  0  0  0  0  0  0
   -1.3335    4.6455    4.0098 H   0  0  0  0  0  0  0  0  0  0  0  0
    4.9391   -0.5607    8.9284 Br  0  0  0  0  0  0  0  0  0  0  0  0
    0.6090    4.6843    6.5386 Cl  0  0  0  0  0  0  0  0  0  0  0  0
    1.5030    1.9543    6.0671 N   0  0  0  0  0  0  0  0  0  0  0  0
    2.4091    1.3309    8.2075 N   0  0  0  0  0  2  0  0  0  0  0  0
    0.6609    4.7258    3.4895 N   0  0  0  0  0  0  0  0  0  0  0  0
    0.3891    1.1827   -0.2248 O   0  0  0  0  0  0  0  0  0  0  0  0
    1.0375    3.2597    4.7136 Pd  0  0  1  0  0  0  0  0  0  0  0  0
    1.2641    2.2833    7.6485 S   0  0  0  0  0  0  0  0  0  0  0  0
  1 34  1  0  0  0  0
  1  2  2  0  0  0  0
  2  3  1  0  0  0  0
  2 35  1  0  0  0  0
  3 32  1  0  0  0  0
  4  5  1  0  0  0  0
  4  3  2  0  0  0  0
  6  4  1  0  0  0  0
  7  6  1  0  0  0  0
  8  6  1  0  0  0  0
  8  1  1  0  0  0  0
  9  8  2  0  0  0  0
 10 11  1  0  0  0  0
 10  9  1  0  0  0  0
 12 10  2  0  0  0  0
 13 12  1  0  0  0  0
 14 12  1  0  0  0  0
 14 15  2  0  0  0  0
 15 17  1  0  0  0  0
 16 15  1  0  0  0  0
 17  9  1  0  0  0  0
 17 38  2  0  0  0  0
 18 21  1  0  0  0  0
 18 37  1  0  0  0  0
 18 19  1  0  0  0  0
 20 18  1  0  0  0  0
 22 23  1  0  0  0  0
 22 36  1  0  0  0  0
 24 26  2  0  0  0  0
 24 22  1  0  0  0  0
 25 24  1  0  0  0  0
 26 28  1  0  0  0  0
 27 26  1  0  0  0  0
 28 29  1  0  0  0  0
 28 30  2  0  0  0  0
 30 31  1  0  0  0  0
 34 39  1  0  0  0  0
 36 30  1  0  0  0  0
 36 38  1  0  0  0  0
 37 14  1  0  0  0  0
 38 34  1  0  0  0  0
 38 33  1  1  0  0  0
 39 35  1  0  0  0  0
M  END
$$$$
