CSD_code = DALGEE | q = 1 | S = 0 | Stoichiometry = C21H22BrClN3Os(1+) | MND = 9
 OpenBabel04212202023D

 49 52  0  0  1  0  0  0  0  0999 V2000
    4.7397    8.7315   -0.0499 Os  0  0  2  0  0  0  0  0  0  0  0  0
    5.5323    9.9314   -1.7670 Cl  0  0  0  0  0  0  0  0  0  0  0  0
    5.9918    9.6121    1.1995 N   0  0  0  0  0  0  0  0  0  0  0  0
    5.8729   10.8078    1.7689 C   0  0  0  0  0  3  0  0  0  0  0  0
    4.9741   11.3708    1.5587 H   0  0  0  0  0  0  0  0  0  0  0  0
    6.6152   13.0311    3.3618 Br  0  0  0  0  0  0  0  0  0  0  0  0
    6.8633   11.3288    2.5836 C   0  0  0  0  0  0  0  0  0  0  0  0
    8.0324   10.5944    2.8162 C   0  0  0  0  0  0  0  0  0  0  0  0
    8.8096   10.9989    3.4448 H   0  0  0  0  0  0  0  0  0  0  0  0
    8.1677    9.3644    2.2199 C   0  0  0  0  0  0  0  0  0  0  0  0
    9.0487    8.7585    2.3480 H   0  0  0  0  0  0  0  0  0  0  0  0
    7.1358    8.8834    1.4018 C   0  0  0  0  0  0  0  0  0  0  0  0
    7.1858    7.6989    0.7671 N   0  0  0  0  0  2  0  0  0  0  0  0
    6.1576    7.4753    0.0241 N   0  0  0  0  0  0  0  0  0  0  0  0
    6.1243    6.2711   -0.6733 C   0  0  0  0  0  0  0  0  0  0  0  0
    6.7742    5.1345   -0.1831 C   0  0  0  0  0  0  0  0  0  0  0  0
    7.3141    5.2066    0.7477 H   0  0  0  0  0  0  0  0  0  0  0  0
    6.7068    3.9520   -0.8926 C   0  0  0  0  0  0  0  0  0  0  0  0
    7.2033    3.0728   -0.5133 H   0  0  0  0  0  0  0  0  0  0  0  0
    6.0081    3.8925   -2.0903 C   0  0  0  0  0  0  0  0  0  0  0  0
    5.9619    2.9666   -2.6416 H   0  0  0  0  0  0  0  0  0  0  0  0
    5.3821    5.0263   -2.5903 C   0  0  0  0  0  0  0  0  0  0  0  0
    4.8649    4.9842   -3.5361 H   0  0  0  0  0  0  0  0  0  0  0  0
    5.4340    6.2143   -1.8885 C   0  0  0  0  0  0  0  0  0  0  0  0
    4.9971    7.1176   -2.2964 H   0  0  0  0  0  0  0  0  0  0  0  0
    2.4739    9.6425    0.8461 C   0  0  0  0  0  0  0  0  0  0  0  0
    2.3318   10.5275    1.4502 H   0  0  0  0  0  0  0  0  0  0  0  0
    2.9404    8.4631    1.4617 C   0  0  1  0  0  0  0  0  0  0  0  0
    3.1004    8.4523    2.5349 H   0  0  0  0  0  0  0  0  0  0  0  0
    2.9872    7.2449    0.7448 C   0  0  2  0  0  3  0  0  0  0  0  0
    2.5805    7.2608   -0.6089 C   0  0  0  0  0  0  0  0  0  0  0  0
    2.5261    6.3274   -1.1520 H   0  0  0  0  0  0  0  0  0  0  0  0
    2.2207    8.4488   -1.2295 C   0  0  0  0  0  0  0  0  0  0  0  0
    1.9078    8.4365   -2.2650 H   0  0  0  0  0  0  0  0  0  0  0  0
    2.1523    9.6665   -0.5113 C   0  0  0  0  0  0  0  0  0  0  0  0
    1.6417   10.9151   -1.1815 C   0  0  0  0  0  0  0  0  0  0  0  0
    1.6538   10.7503   -2.2636 H   0  0  0  0  0  0  0  0  0  0  0  0
    2.5199   12.1298   -0.8748 C   0  0  0  0  0  0  0  0  0  0  0  0
    3.5631   11.9136   -1.1002 H   0  0  0  0  0  0  0  0  0  0  0  0
    2.4338   12.4320    0.1662 H   0  0  0  0  0  0  0  0  0  0  0  0
    2.2074   12.9687   -1.4899 H   0  0  0  0  0  0  0  0  0  0  0  0
    0.1922   11.1623   -0.7471 C   0  0  0  0  0  0  0  0  0  0  0  0
   -0.1976   12.0380   -1.2579 H   0  0  0  0  0  0  0  0  0  0  0  0
    0.1328   11.3350    0.3250 H   0  0  0  0  0  0  0  0  0  0  0  0
   -0.4368   10.3105   -0.9956 H   0  0  0  0  0  0  0  0  0  0  0  0
    3.2722    5.9480    1.4400 C   0  0  0  0  0  0  0  0  0  0  0  0
    3.9124    6.0930    2.3076 H   0  0  0  0  0  0  0  0  0  0  0  0
    3.7402    5.2319    0.7675 H   0  0  0  0  0  0  0  0  0  0  0  0
    2.3328    5.5146    1.7859 H   0  0  0  0  0  0  0  0  0  0  0  0
  1  2  1  6  0  0  0
  1 14  1  0  0  0  0
  1  3  1  0  0  0  0
  1 28  1  0  0  0  0
  3 12  1  0  0  0  0
  3  4  1  0  0  0  0
  4  7  1  0  0  0  0
  5  4  1  0  0  0  0
  7  8  2  0  0  0  0
  7  6  1  0  0  0  0
  8  9  1  0  0  0  0
 10 11  1  0  0  0  0
 10  8  1  0  0  0  0
 12 10  2  0  0  0  0
 13 12  1  0  0  0  0
 14 13  1  0  0  0  0
 15 16  1  0  0  0  0
 15 14  1  0  0  0  0
 16 17  1  0  0  0  0
 18 19  1  0  0  0  0
 18 16  2  0  0  0  0
 20 18  1  0  0  0  0
 21 20  1  0  0  0  0
 22 20  2  0  0  0  0
 22 24  1  0  0  0  0
 23 22  1  0  0  0  0
 24 15  2  0  0  0  0
 25 24  1  0  0  0  0
 26 27  1  0  0  0  0
 26 28  1  0  0  0  0
 28 29  1  1  0  0  0
 30 46  1  1  0  0  0
 30 28  1  0  0  0  0
 31 30  1  0  0  0  0
 32 31  1  0  0  0  0
 33 31  2  0  0  0  0
 33 35  1  0  0  0  0
 34 33  1  0  0  0  0
 35 26  2  0  0  0  0
 36 38  1  0  0  0  0
 36 42  1  0  0  0  0
 36 35  1  0  0  0  0
 37 36  1  0  0  0  0
 38 40  1  0  0  0  0
 39 38  1  0  0  0  0
 41 38  1  0  0  0  0
 42 44  1  0  0  0  0
 43 42  1  0  0  0  0
 45 42  1  0  0  0  0
 46 49  1  0  0  0  0
 46 47  1  0  0  0  0
 48 46  1  0  0  0  0
M  END
$$$$
