CSD_code = DALGII | q = 1 | S = 0 | Stoichiometry = C21H22Cl2N3Os(1+) | MND = 9
 OpenBabel04212202023D

 49 52  0  0  1  0  0  0  0  0999 V2000
    7.5888   10.1231    3.4207 Os  0  0  2  0  0  0  0  0  0  0  0  0
    9.0217    9.3656    1.8769 Cl  0  0  0  0  0  0  0  0  0  0  0  0
    7.8407   11.9946    2.8038 N   0  0  0  0  0  0  0  0  0  0  0  0
    7.2975   12.6040    1.7500 C   0  0  0  0  0  3  0  0  0  0  0  0
    6.5991   12.0229    1.1638 H   0  0  0  0  0  0  0  0  0  0  0  0
    7.6075   13.8980    1.4002 C   0  0  0  0  0  0  0  0  0  0  0  0
    7.1507   14.3552    0.5391 H   0  0  0  0  0  0  0  0  0  0  0  0
    8.9452   16.2134    1.7608 Cl  0  0  0  0  0  0  0  0  0  0  0  0
    8.5387   14.6079    2.1729 C   0  0  0  0  0  0  0  0  0  0  0  0
    9.1267   13.9878    3.2604 C   0  0  0  0  0  0  0  0  0  0  0  0
    9.8604   14.4776    3.8774 H   0  0  0  0  0  0  0  0  0  0  0  0
    8.7681   12.6698    3.5522 C   0  0  0  0  0  0  0  0  0  0  0  0
    9.3014   11.9775    4.5788 N   0  0  0  0  0  2  0  0  0  0  0  0
    8.8808   10.7626    4.6452 N   0  0  0  0  0  0  0  0  0  0  0  0
    9.3810    9.9718    5.6766 C   0  0  0  0  0  0  0  0  0  0  0  0
    9.7953   10.5397    6.8849 C   0  0  0  0  0  0  0  0  0  0  0  0
    9.7294   11.6095    7.0040 H   0  0  0  0  0  0  0  0  0  0  0  0
   10.2710    9.7251    7.8931 C   0  0  0  0  0  0  0  0  0  0  0  0
   10.5863   10.1611    8.8279 H   0  0  0  0  0  0  0  0  0  0  0  0
   10.3485    8.3521    7.7061 C   0  0  0  0  0  0  0  0  0  0  0  0
   10.7246    7.7213    8.4961 H   0  0  0  0  0  0  0  0  0  0  0  0
    9.9591    7.7890    6.4984 C   0  0  0  0  0  0  0  0  0  0  0  0
   10.0479    6.7246    6.3459 H   0  0  0  0  0  0  0  0  0  0  0  0
    9.4740    8.5897    5.4834 C   0  0  0  0  0  0  0  0  0  0  0  0
    9.2197    8.1674    4.5187 H   0  0  0  0  0  0  0  0  0  0  0  0
    5.1174    9.7066    2.7380 C   0  0  0  0  0  0  0  0  0  0  0  0
    4.5703   10.2381    1.9721 H   0  0  0  0  0  0  0  0  0  0  0  0
    5.3115   10.3230    3.9914 C   0  0  1  0  0  0  0  0  0  0  0  0
    4.8660   11.2943    4.1801 H   0  0  0  0  0  0  0  0  0  0  0  0
    5.8809    9.6035    5.0676 C   0  0  2  0  0  3  0  0  0  0  0  0
    6.2656    8.2634    4.8352 C   0  0  0  0  0  0  0  0  0  0  0  0
    6.6236    7.6683    5.6639 H   0  0  0  0  0  0  0  0  0  0  0  0
    6.1594    7.7021    3.5714 C   0  0  0  0  0  0  0  0  0  0  0  0
    6.4564    6.6736    3.4172 H   0  0  0  0  0  0  0  0  0  0  0  0
    5.5764    8.4117    2.4948 C   0  0  0  0  0  0  0  0  0  0  0  0
    5.3646    7.7323    1.1671 C   0  0  0  0  0  0  0  0  0  0  0  0
    5.9846    6.8305    1.1435 H   0  0  0  0  0  0  0  0  0  0  0  0
    5.7758    8.6236   -0.0062 C   0  0  0  0  0  0  0  0  0  0  0  0
    6.7896    8.9957    0.1336 H   0  0  0  0  0  0  0  0  0  0  0  0
    5.0991    9.4668   -0.1226 H   0  0  0  0  0  0  0  0  0  0  0  0
    5.7495    8.0475   -0.9267 H   0  0  0  0  0  0  0  0  0  0  0  0
    3.8953    7.3108    1.0481 C   0  0  0  0  0  0  0  0  0  0  0  0
    3.6138    6.6532    1.8674 H   0  0  0  0  0  0  0  0  0  0  0  0
    3.7420    6.7799    0.1130 H   0  0  0  0  0  0  0  0  0  0  0  0
    3.2410    8.1794    1.0618 H   0  0  0  0  0  0  0  0  0  0  0  0
    5.8992   10.1717    6.4547 C   0  0  0  0  0  0  0  0  0  0  0  0
    5.9497   11.2585    6.4390 H   0  0  0  0  0  0  0  0  0  0  0  0
    6.7374    9.7845    7.0305 H   0  0  0  0  0  0  0  0  0  0  0  0
    4.9814    9.8862    6.9703 H   0  0  0  0  0  0  0  0  0  0  0  0
  1  2  1  6  0  0  0
  1 28  1  0  0  0  0
  1 14  1  0  0  0  0
  3  1  1  0  0  0  0
  3 12  1  0  0  0  0
  4  3  1  0  0  0  0
  5  4  1  0  0  0  0
  6  4  1  0  0  0  0
  6  9  2  0  0  0  0
  7  6  1  0  0  0  0
  8  9  1  0  0  0  0
  9 10  1  0  0  0  0
 10 12  2  0  0  0  0
 10 11  1  0  0  0  0
 12 13  1  0  0  0  0
 13 14  1  0  0  0  0
 14 15  1  0  0  0  0
 15 16  1  0  0  0  0
 16 17  1  0  0  0  0
 16 18  2  0  0  0  0
 18 19  1  0  0  0  0
 20 18  1  0  0  0  0
 20 21  1  0  0  0  0
 22 20  2  0  0  0  0
 23 22  1  0  0  0  0
 24 15  2  0  0  0  0
 24 22  1  0  0  0  0
 25 24  1  0  0  0  0
 26 28  1  0  0  0  0
 27 26  1  0  0  0  0
 28 29  1  1  0  0  0
 28 30  1  0  0  0  0
 30 46  1  1  0  0  0
 31 30  1  0  0  0  0
 31 32  1  0  0  0  0
 33 31  2  0  0  0  0
 34 33  1  0  0  0  0
 35 26  2  0  0  0  0
 35 33  1  0  0  0  0
 36 35  1  0  0  0  0
 37 36  1  0  0  0  0
 38 39  1  0  0  0  0
 38 36  1  0  0  0  0
 40 38  1  0  0  0  0
 41 38  1  0  0  0  0
 42 45  1  0  0  0  0
 42 36  1  0  0  0  0
 42 43  1  0  0  0  0
 44 42  1  0  0  0  0
 46 49  1  0  0  0  0
 46 48  1  0  0  0  0
 47 46  1  0  0  0  0
M  END
$$$$
