CSD_code = DALWES | q = 1 | S = 0 | Stoichiometry = C6H13ClN7Pt(1+) | MND = 4
 OpenBabel04212202023D

 28 29  0  0  1  0  0  0  0  0999 V2000
    6.3195    3.9673    4.4677 Pt  0  0  0  0  0  0  0  0  0  0  0  0
    4.7914    5.4685    5.1791 Cl  0  0  0  0  0  0  0  0  0  0  0  0
    6.9733   -0.6263    5.7363 N   0  0  0  0  0  0  0  0  0  0  0  0
    8.7617   -0.8447    4.1925 N   0  0  0  0  0  2  0  0  0  0  0  0
    5.7578    1.3000    6.0780 N   0  0  0  0  0  0  0  0  0  0  0  0
    5.6830    2.3132    6.0219 H   0  0  0  0  0  0  0  0  0  0  0  0
    5.2872    0.8082    6.8199 H   0  0  0  0  0  0  0  0  0  0  0  0
    7.6700    2.5026    3.9022 N   0  0  0  0  0  0  0  0  0  0  0  0
    9.2271    1.2141    2.9855 N   0  0  0  0  0  0  0  0  0  0  0  0
    4.8185    3.1559    3.3000 N   0  0  0  0  0  4  0  0  0  0  0  0
    4.9397    3.3954    2.3131 H   0  0  0  0  0  0  0  0  0  0  0  0
    3.9698    3.6298    3.6313 H   0  0  0  0  0  0  0  0  0  0  0  0
    4.6827    2.1463    3.3770 H   0  0  0  0  0  0  0  0  0  0  0  0
    7.6846    4.9689    5.6519 N   0  0  0  0  0  4  0  0  0  0  0  0
    7.1009    5.6246    6.1857 H   0  0  0  0  0  0  0  0  0  0  0  0
    8.3306    5.5235    5.0855 H   0  0  0  0  0  0  0  0  0  0  0  0
    8.2284    4.4039    6.3065 H   0  0  0  0  0  0  0  0  0  0  0  0
    7.9303   -1.2951    5.1132 C   0  0  0  0  0  0  0  0  0  0  0  0
    8.0443   -2.3310    5.3965 H   0  0  0  0  0  0  0  0  0  0  0  0
    8.5619    0.4323    3.8912 C   0  0  0  0  0  0  0  0  0  0  0  0
    7.5792    1.2527    4.4690 C   0  0  0  0  0  0  0  0  0  0  0  0
    6.7584    0.6554    5.4539 C   0  0  2  0  0  3  0  0  0  0  0  0
    8.6574    2.4324    3.0320 C   0  0  0  0  0  3  0  0  0  0  0  0
    8.9796    3.2512    2.4165 H   0  0  0  0  0  0  0  0  0  0  0  0
   10.3209    0.7785    2.1612 C   0  0  0  0  0  0  0  0  0  0  0  0
   10.6381    1.5903    1.5108 H   0  0  0  0  0  0  0  0  0  0  0  0
   10.0079   -0.0764    1.5616 H   0  0  0  0  0  0  0  0  0  0  0  0
   11.1528    0.4625    2.7912 H   0  0  0  0  0  0  0  0  0  0  0  0
  1  2  1  0  0  0  0
  1 14  1  0  0  0  0
  4 18  1  0  0  0  0
  5  7  1  0  0  0  0
  6  5  1  0  0  0  0
  8  1  1  0  0  0  0
  8 21  1  0  0  0  0
  9 23  1  0  0  0  0
  9 20  1  0  0  0  0
 10 13  1  0  0  0  0
 10 12  1  0  0  0  0
 10  1  1  0  0  0  0
 11 10  1  0  0  0  0
 14 15  1  0  0  0  0
 14 17  1  0  0  0  0
 16 14  1  0  0  0  0
 18 19  1  0  0  0  0
 18  3  2  0  0  0  0
 20  4  1  0  0  0  0
 20 21  2  0  0  0  0
 21 22  1  0  0  0  0
 22  3  1  0  0  0  0
 22  5  1  6  0  0  0
 23  8  1  0  0  0  0
 24 23  1  0  0  0  0
 25 28  1  0  0  0  0
 25  9  1  0  0  0  0
 26 25  1  0  0  0  0
 27 25  1  0  0  0  0
M  END
$$$$
