CSD_code = DALYOF | q = 0 | S = 0 | Stoichiometry = C18H15AuClN2OP | MND = 2
 OpenBabel04212202023D

 39 41  0  0  0  0  0  0  0  0999 V2000
    3.0013    1.4758   -0.2649 Au  0  0  0  0  0  0  0  0  0  0  0  0
    2.4789   -0.3071   -1.5500 Cl  0  0  0  0  0  0  0  0  0  0  0  0
    3.4790    3.2878    0.9649 P   0  0  0  0  0  4  0  0  0  0  0  0
    2.1427    3.8351    1.8645 N   0  0  0  0  0  0  0  0  0  0  0  0
    1.5938    4.6737    1.7083 H   0  0  0  0  0  0  0  0  0  0  0  0
    1.6244    2.7971    2.5765 C   0  0  0  0  0  0  0  0  0  0  0  0
    2.2683    1.7617    2.6160 O   0  0  0  0  0  0  0  0  0  0  0  0
    0.3163    3.0196    3.2257 C   0  0  0  0  0  0  0  0  0  0  0  0
   -0.2384    4.2177    3.0388 N   0  0  0  0  0  0  0  0  0  0  0  0
   -1.4176    4.4443    3.5833 C   0  0  0  0  0  0  0  0  0  0  0  0
   -1.8302    5.4288    3.4068 H   0  0  0  0  0  0  0  0  0  0  0  0
   -2.1064    3.4998    4.3354 C   0  0  0  0  0  0  0  0  0  0  0  0
   -3.0711    3.7365    4.7562 H   0  0  0  0  0  0  0  0  0  0  0  0
   -1.5274    2.2551    4.5265 C   0  0  0  0  0  0  0  0  0  0  0  0
   -2.0324    1.4935    5.1025 H   0  0  0  0  0  0  0  0  0  0  0  0
   -0.2871    2.0046    3.9620 C   0  0  0  0  0  0  0  0  0  0  0  0
    0.2172    1.0572    4.0663 H   0  0  0  0  0  0  0  0  0  0  0  0
    3.8544    4.8144    0.0635 C   0  0  0  0  0  0  0  0  0  0  0  0
    2.8331    5.3919   -0.6884 C   0  0  0  0  0  0  0  0  0  0  0  0
    1.8445    4.9497   -0.6765 H   0  0  0  0  0  0  0  0  0  0  0  0
    3.0858    6.5132   -1.4549 C   0  0  0  0  0  0  0  0  0  0  0  0
    2.2904    6.9644   -2.0292 H   0  0  0  0  0  0  0  0  0  0  0  0
    4.3635    7.0501   -1.4946 C   0  0  0  0  0  0  0  0  0  0  0  0
    4.5617    7.9246   -2.0960 H   0  0  0  0  0  0  0  0  0  0  0  0
    5.3888    6.4579   -0.7761 C   0  0  0  0  0  0  0  0  0  0  0  0
    6.3872    6.8672   -0.8206 H   0  0  0  0  0  0  0  0  0  0  0  0
    5.1405    5.3371   -0.0032 C   0  0  0  0  0  0  0  0  0  0  0  0
    5.9401    4.8685    0.5534 H   0  0  0  0  0  0  0  0  0  0  0  0
    4.7846    3.1695    2.2097 C   0  0  0  0  0  0  0  0  0  0  0  0
    4.9702    4.1834    3.1447 C   0  0  0  0  0  0  0  0  0  0  0  0
    4.3320    5.0570    3.1231 H   0  0  0  0  0  0  0  0  0  0  0  0
    5.9708    4.0614    4.0899 C   0  0  0  0  0  0  0  0  0  0  0  0
    6.1196    4.8432    4.8202 H   0  0  0  0  0  0  0  0  0  0  0  0
    6.7828    2.9368    4.1015 C   0  0  0  0  0  0  0  0  0  0  0  0
    7.5625    2.8466    4.8433 H   0  0  0  0  0  0  0  0  0  0  0  0
    6.5951    1.9281    3.1706 C   0  0  0  0  0  0  0  0  0  0  0  0
    7.2254    1.0517    3.1867 H   0  0  0  0  0  0  0  0  0  0  0  0
    5.5931    2.0412    2.2229 C   0  0  0  0  0  0  0  0  0  0  0  0
    5.4176    1.2594    1.4955 H   0  0  0  0  0  0  0  0  0  0  0  0
  1  3  1  0  0  0  0
  2  1  1  0  0  0  0
  3  4  1  0  0  0  0
  3 29  1  0  0  0  0
  4  6  1  0  0  0  0
  5  4  1  0  0  0  0
  6  7  2  0  0  0  0
  6  8  1  0  0  0  0
  8 16  1  0  0  0  0
  9  8  2  0  0  0  0
  9 10  1  0  0  0  0
 10 12  2  0  0  0  0
 11 10  1  0  0  0  0
 12 14  1  0  0  0  0
 12 13  1  0  0  0  0
 14 15  1  0  0  0  0
 16 17  1  0  0  0  0
 16 14  2  0  0  0  0
 18  3  1  0  0  0  0
 19 20  1  0  0  0  0
 19 18  2  0  0  0  0
 21 19  1  0  0  0  0
 22 21  1  0  0  0  0
 23 21  2  0  0  0  0
 23 25  1  0  0  0  0
 24 23  1  0  0  0  0
 25 27  2  0  0  0  0
 26 25  1  0  0  0  0
 27 18  1  0  0  0  0
 27 28  1  0  0  0  0
 29 38  2  0  0  0  0
 29 30  1  0  0  0  0
 30 32  2  0  0  0  0
 31 30  1  0  0  0  0
 32 34  1  0  0  0  0
 32 33  1  0  0  0  0
 34 35  1  0  0  0  0
 36 37  1  0  0  0  0
 36 34  2  0  0  0  0
 38 36  1  0  0  0  0
 39 38  1  0  0  0  0
M  END
$$$$
