CSD_code = DALYIZ | q = 0 | S = 0 | Stoichiometry = C24H30Cl2N2OP2Pt | MND = 4
 OpenBabel04212202023D

 62 64  0  0  0  0  0  0  0  0999 V2000
    2.8266    6.2073    5.0373 Pt  0  0  0  0  0  0  0  0  0  0  0  0
    1.1836    4.6571    5.4139 P   0  0  0  0  0  4  0  0  0  0  0  0
    4.3723    7.8760    4.7535 Cl  0  0  0  0  0  0  0  0  0  0  0  0
    1.5654    7.6759    6.2960 Cl  0  0  0  0  0  0  0  0  0  0  0  0
    0.1440    5.1082    6.6641 N   0  0  0  0  0  0  0  0  0  0  0  0
    0.2303    6.0905    6.9737 H   0  0  0  0  0  0  0  0  0  0  0  0
   -0.8868    3.1234    7.0427 O   0  0  0  0  0  0  0  0  0  0  0  0
   -0.7101    4.2911    7.3312 C   0  0  0  0  0  0  0  0  0  0  0  0
   -1.4149    4.9660    8.4613 C   0  0  0  0  0  0  0  0  0  0  0  0
   -1.1261    6.2465    8.6700 N   0  0  0  0  0  0  0  0  0  0  0  0
   -1.7320    6.8738    9.6565 C   0  0  0  0  0  0  0  0  0  0  0  0
   -1.4599    7.9130    9.7827 H   0  0  0  0  0  0  0  0  0  0  0  0
   -2.6592    6.2606   10.4915 C   0  0  0  0  0  0  0  0  0  0  0  0
   -3.1299    6.8158   11.2878 H   0  0  0  0  0  0  0  0  0  0  0  0
   -2.9600    4.9253   10.2750 C   0  0  0  0  0  0  0  0  0  0  0  0
   -3.6750    4.4124   10.9019 H   0  0  0  0  0  0  0  0  0  0  0  0
   -2.3270    4.2589    9.2383 C   0  0  0  0  0  0  0  0  0  0  0  0
   -2.5166    3.2203    9.0175 H   0  0  0  0  0  0  0  0  0  0  0  0
    0.1016    4.4629    3.9643 C   0  0  0  0  0  0  0  0  0  0  0  0
    0.3659    5.2871    2.8746 C   0  0  0  0  0  0  0  0  0  0  0  0
    1.1982    5.9867    2.9354 H   0  0  0  0  0  0  0  0  0  0  0  0
   -0.4275    5.2240    1.7444 C   0  0  0  0  0  0  0  0  0  0  0  0
   -0.2217    5.8655    0.9003 H   0  0  0  0  0  0  0  0  0  0  0  0
   -1.4939    4.3397    1.7026 C   0  0  0  0  0  0  0  0  0  0  0  0
   -2.1166    4.2880    0.8216 H   0  0  0  0  0  0  0  0  0  0  0  0
   -1.7706    3.5295    2.7927 C   0  0  0  0  0  0  0  0  0  0  0  0
   -2.6100    2.8504    2.7600 H   0  0  0  0  0  0  0  0  0  0  0  0
   -0.9795    3.5871    3.9268 C   0  0  0  0  0  0  0  0  0  0  0  0
   -1.1978    2.9668    4.7831 H   0  0  0  0  0  0  0  0  0  0  0  0
    1.6974    2.9941    5.9405 C   0  0  0  0  0  0  0  0  0  0  0  0
    1.5353    1.8376    5.1904 C   0  0  0  0  0  0  0  0  0  0  0  0
    0.9984    1.8669    4.2528 H   0  0  0  0  0  0  0  0  0  0  0  0
    2.0404    0.6373    5.6604 C   0  0  0  0  0  0  0  0  0  0  0  0
    1.9060   -0.2635    5.0795 H   0  0  0  0  0  0  0  0  0  0  0  0
    2.7102    0.5861    6.8711 C   0  0  0  0  0  0  0  0  0  0  0  0
    3.0999   -0.3538    7.2330 H   0  0  0  0  0  0  0  0  0  0  0  0
    2.8771    1.7403    7.6210 C   0  0  0  0  0  0  0  0  0  0  0  0
    3.3973    1.7015    8.5668 H   0  0  0  0  0  0  0  0  0  0  0  0
    2.3789    2.9406    7.1538 C   0  0  0  0  0  0  0  0  0  0  0  0
    2.5073    3.8516    7.7255 H   0  0  0  0  0  0  0  0  0  0  0  0
    4.2450    4.8614    3.8265 P   0  0  0  0  0  4  0  0  0  0  0  0
    5.5447    5.6277    2.7779 C   0  0  0  0  0  0  0  0  0  0  0  0
    6.1171    6.2906    3.4302 H   0  0  0  0  0  0  0  0  0  0  0  0
    6.2066    4.8408    2.4046 H   0  0  0  0  0  0  0  0  0  0  0  0
    4.9408    6.4388    1.6388 C   0  0  0  0  0  0  0  0  0  0  0  0
    5.7225    6.9609    1.0917 H   0  0  0  0  0  0  0  0  0  0  0  0
    4.2576    7.1810    2.0484 H   0  0  0  0  0  0  0  0  0  0  0  0
    4.3976    5.8044    0.9411 H   0  0  0  0  0  0  0  0  0  0  0  0
    3.4572    3.6166    2.7109 C   0  0  0  0  0  0  0  0  0  0  0  0
    2.6780    3.1287    3.3016 H   0  0  0  0  0  0  0  0  0  0  0  0
    2.9562    4.1725    1.9139 H   0  0  0  0  0  0  0  0  0  0  0  0
    4.3895    2.5690    2.1170 C   0  0  0  0  0  0  0  0  0  0  0  0
    3.8196    1.8876    1.4880 H   0  0  0  0  0  0  0  0  0  0  0  0
    4.8676    1.9851    2.8993 H   0  0  0  0  0  0  0  0  0  0  0  0
    5.1599    3.0261    1.5015 H   0  0  0  0  0  0  0  0  0  0  0  0
    5.2163    3.8386    5.0112 C   0  0  0  0  0  0  0  0  0  0  0  0
    4.5823    3.0045    5.3258 H   0  0  0  0  0  0  0  0  0  0  0  0
    6.1057    3.4392    4.5167 H   0  0  0  0  0  0  0  0  0  0  0  0
    5.6042    4.6852    6.2189 C   0  0  0  0  0  0  0  0  0  0  0  0
    6.0758    4.0754    6.9867 H   0  0  0  0  0  0  0  0  0  0  0  0
    4.7119    5.1560    6.6441 H   0  0  0  0  0  0  0  0  0  0  0  0
    6.2910    5.4776    5.9302 H   0  0  0  0  0  0  0  0  0  0  0  0
  1  2  1  0  0  0  0
  1  4  1  0  0  0  0
  2 30  1  0  0  0  0
  2  5  1  0  0  0  0
  3  1  1  0  0  0  0
  5  6  1  0  0  0  0
  5  8  1  0  0  0  0
  7  8  2  0  0  0  0
  8  9  1  0  0  0  0
  9 10  2  0  0  0  0
  9 17  1  0  0  0  0
 10 11  1  0  0  0  0
 11 12  1  0  0  0  0
 11 13  2  0  0  0  0
 13 14  1  0  0  0  0
 15 13  1  0  0  0  0
 15 16  1  0  0  0  0
 17 15  2  0  0  0  0
 18 17  1  0  0  0  0
 19  2  1  0  0  0  0
 20 21  1  0  0  0  0
 20 19  2  0  0  0  0
 22 20  1  0  0  0  0
 23 22  1  0  0  0  0
 24 22  2  0  0  0  0
 24 26  1  0  0  0  0
 25 24  1  0  0  0  0
 26 28  2  0  0  0  0
 27 26  1  0  0  0  0
 28 19  1  0  0  0  0
 28 29  1  0  0  0  0
 30 39  1  0  0  0  0
 31 33  1  0  0  0  0
 31 30  2  0  0  0  0
 32 31  1  0  0  0  0
 33 35  2  0  0  0  0
 34 33  1  0  0  0  0
 35 36  1  0  0  0  0
 35 37  1  0  0  0  0
 37 38  1  0  0  0  0
 39 37  2  0  0  0  0
 39 40  1  0  0  0  0
 41 56  1  0  0  0  0
 41  1  1  0  0  0  0
 42 43  1  0  0  0  0
 42 41  1  0  0  0  0
 44 42  1  0  0  0  0
 45 47  1  0  0  0  0
 45 42  1  0  0  0  0
 46 45  1  0  0  0  0
 48 45  1  0  0  0  0
 49 50  1  0  0  0  0
 49 41  1  0  0  0  0
 51 49  1  0  0  0  0
 52 49  1  0  0  0  0
 52 54  1  0  0  0  0
 53 52  1  0  0  0  0
 55 52  1  0  0  0  0
 56 57  1  0  0  0  0
 56 59  1  0  0  0  0
 58 56  1  0  0  0  0
 59 61  1  0  0  0  0
 59 60  1  0  0  0  0
 62 59  1  0  0  0  0
M  END
$$$$
