CSD_code = DAMJOS | q = 0 | S = 0 | Stoichiometry = C17H21ClN4O2Zn | MND = 4
 OpenBabel04212202023D

 46 50  0  0  1  0  0  0  0  0999 V2000
    6.2464    3.5541    3.8509 Zn  0  0  0  0  0  0  0  0  0  0  0  0
    5.7286    5.3396    2.6623 Cl  0  0  0  0  0  0  0  0  0  0  0  0
    6.3102    4.0393    5.8139 O   0  0  0  0  0  0  0  0  0  0  0  0
    4.5272    3.1167    4.9748 O   0  0  0  0  0  0  0  0  0  0  0  0
    8.2789    3.4817    3.1369 N   0  0  0  0  0  0  0  0  0  0  0  0
    8.9355    5.0498    1.5065 N   0  0  0  0  0  0  0  0  0  0  0  0
    9.1363    5.5157    3.7645 N   0  0  0  0  0  0  0  0  0  0  0  0
    6.3241    1.6275    3.0646 N   0  0  0  0  0  0  0  0  0  0  0  0
    8.7657    4.6668    2.7938 C   0  0  0  0  0  3  0  0  0  0  0  0
    8.2319    4.3896    0.4314 C   0  0  0  0  0  0  0  0  0  0  0  0
    8.8746    3.6585   -0.0681 H   0  0  0  0  0  0  0  0  0  0  0  0
    7.8995    5.1316   -0.2918 H   0  0  0  0  0  0  0  0  0  0  0  0
    7.3474    3.8829    0.8151 H   0  0  0  0  0  0  0  0  0  0  0  0
    9.4189    6.3983    1.2853 C   0  0  0  0  0  0  0  0  0  0  0  0
    9.2803    6.6582    0.2369 H   0  0  0  0  0  0  0  0  0  0  0  0
   10.4904    6.4400    1.5165 H   0  0  0  0  0  0  0  0  0  0  0  0
    8.6476    7.3356    2.2080 C   0  0  0  0  0  0  0  0  0  0  0  0
    8.8842    8.3796    2.0106 H   0  0  0  0  0  0  0  0  0  0  0  0
    7.5791    7.1666    2.0586 H   0  0  0  0  0  0  0  0  0  0  0  0
    9.0283    6.9582    3.6297 C   0  0  0  0  0  0  0  0  0  0  0  0
    9.9946    7.3997    3.9066 H   0  0  0  0  0  0  0  0  0  0  0  0
    8.2699    7.3166    4.3335 H   0  0  0  0  0  0  0  0  0  0  0  0
    9.2453    5.0507    5.1291 C   0  0  0  0  0  0  0  0  0  0  0  0
    8.3005    5.1422    5.6666 H   0  0  0  0  0  0  0  0  0  0  0  0
   10.0083    5.6459    5.6325 H   0  0  0  0  0  0  0  0  0  0  0  0
    9.5393    4.0043    5.1301 H   0  0  0  0  0  0  0  0  0  0  0  0
    8.5160    2.3249    2.4630 C   0  0  0  0  0  0  0  0  0  0  0  0
    9.7207    2.0181    1.8427 C   0  0  0  0  0  0  0  0  0  0  0  0
   10.5055    2.7604    1.8275 H   0  0  0  0  0  0  0  0  0  0  0  0
    9.9395    0.7663    1.2695 C   0  0  0  0  0  0  0  0  0  0  0  0
   10.8931    0.5686    0.8015 H   0  0  0  0  0  0  0  0  0  0  0  0
    8.9759   -0.2097    1.2924 C   0  0  0  0  0  3  0  0  0  0  0  0
    9.1505   -1.1767    0.8462 H   0  0  0  0  0  0  0  0  0  0  0  0
    7.7362    0.0494    1.9044 C   0  0  0  0  0  0  0  0  0  0  0  0
    7.5019    1.3212    2.4913 C   0  0  0  0  0  0  0  0  0  0  0  0
    6.6850   -0.8890    1.9657 C   0  0  0  0  0  0  0  0  0  0  0  0
    6.8309   -1.8701    1.5363 H   0  0  0  0  0  0  0  0  0  0  0  0
    5.5021   -0.5450    2.5636 C   0  0  0  0  0  0  0  0  0  0  0  0
    4.6800   -1.2406    2.6242 H   0  0  0  0  0  0  0  0  0  0  0  0
    5.3610    0.7398    3.1055 C   0  0  0  0  0  0  0  0  0  0  0  0
    4.4464    1.0531    3.5872 H   0  0  0  0  0  0  0  0  0  0  0  0
    5.1211    3.6512    5.9289 C   0  0  2  0  0  3  0  0  0  0  0  0
    4.4101    3.8530    7.2484 C   0  0  0  0  0  0  0  0  0  0  0  0
    5.0996    3.6730    8.0682 H   0  0  0  0  0  0  0  0  0  0  0  0
    3.5514    3.1919    7.3114 H   0  0  0  0  0  0  0  0  0  0  0  0
    4.0709    4.8855    7.2998 H   0  0  0  0  0  0  0  0  0  0  0  0
  1  4  1  0  0  0  0
  1  3  1  0  0  0  0
  2  1  1  0  0  0  0
  3 42  1  0  0  0  0
  4 42  1  0  0  0  0
  5  1  1  0  0  0  0
  6  9  1  0  0  0  0
  7 23  1  0  0  0  0
  8 40  1  0  0  0  0
  8  1  1  0  0  0  0
  9  5  1  0  0  0  0
  9  7  1  0  0  0  0
 10 13  1  0  0  0  0
 10  6  1  0  0  0  0
 11 10  1  0  0  0  0
 12 10  1  0  0  0  0
 14  6  1  0  0  0  0
 14 16  1  0  0  0  0
 14 17  1  0  0  0  0
 15 14  1  0  0  0  0
 17 20  1  0  0  0  0
 18 17  1  0  0  0  0
 19 17  1  0  0  0  0
 20  7  1  0  0  0  0
 20 21  1  0  0  0  0
 20 22  1  0  0  0  0
 23 26  1  0  0  0  0
 23 25  1  0  0  0  0
 23 24  1  0  0  0  0
 27 35  2  0  0  0  0
 27  5  1  0  0  0  0
 28 27  1  0  0  0  0
 29 28  1  0  0  0  0
 30 32  1  0  0  0  0
 30 28  2  0  0  0  0
 31 30  1  0  0  0  0
 32 34  1  0  0  0  0
 33 32  1  0  0  0  0
 34 36  2  0  0  0  0
 34 35  1  0  0  0  0
 35  8  1  0  0  0  0
 36 38  1  0  0  0  0
 37 36  1  0  0  0  0
 38 39  1  0  0  0  0
 38 40  2  0  0  0  0
 40 41  1  0  0  0  0
 42 43  1  6  0  0  0
 43 46  1  0  0  0  0
 43 45  1  0  0  0  0
 43 44  1  0  0  0  0
M  END
$$$$
