CSD_code = DAMJIM | q = 0 | S = 0 | Stoichiometry = C15H18Cl2N4Zn | MND = 4
 OpenBabel04212202023D

 40 43  0  0  0  0  0  0  0  0999 V2000
   10.4280    2.0575    2.7200 Zn  0  0  0  0  0  0  0  0  0  0  0  0
   11.7281    0.5704    1.7806 Cl  0  0  0  0  0  0  0  0  0  0  0  0
    9.0281    1.5114    4.3987 Cl  0  0  0  0  0  0  0  0  0  0  0  0
    8.9725    3.0790    1.6114 N   0  0  0  0  0  0  0  0  0  0  0  0
    6.8476    3.3574    2.5730 N   0  0  0  0  0  0  0  0  0  0  0  0
    7.3799    1.4662    1.3151 N   0  0  0  0  0  0  0  0  0  0  0  0
   11.3627    3.9330    2.5888 N   0  0  0  0  0  0  0  0  0  0  0  0
    7.7352    2.6505    1.8394 C   0  0  0  0  0  3  0  0  0  0  0  0
    7.2909    4.4489    3.4144 C   0  0  0  0  0  0  0  0  0  0  0  0
    8.3276    4.3017    3.7141 H   0  0  0  0  0  0  0  0  0  0  0  0
    6.6826    4.4657    4.3168 H   0  0  0  0  0  0  0  0  0  0  0  0
    7.1982    5.4094    2.9003 H   0  0  0  0  0  0  0  0  0  0  0  0
    5.5477    2.8261    2.9463 C   0  0  0  0  0  0  0  0  0  0  0  0
    4.8358    3.6582    2.9469 H   0  0  0  0  0  0  0  0  0  0  0  0
    5.6118    2.4212    3.9643 H   0  0  0  0  0  0  0  0  0  0  0  0
    5.0948    1.7348    1.9933 C   0  0  0  0  0  0  0  0  0  0  0  0
    4.2035    1.2460    2.3839 H   0  0  0  0  0  0  0  0  0  0  0  0
    4.8621    2.1577    1.0142 H   0  0  0  0  0  0  0  0  0  0  0  0
    6.2439    0.7486    1.8552 C   0  0  0  0  0  0  0  0  0  0  0  0
    6.5003    0.3161    2.8299 H   0  0  0  0  0  0  0  0  0  0  0  0
    5.9895   -0.0595    1.1677 H   0  0  0  0  0  0  0  0  0  0  0  0
    8.3090    0.7066    0.5116 C   0  0  0  0  0  0  0  0  0  0  0  0
    7.7435    0.1000   -0.1957 H   0  0  0  0  0  0  0  0  0  0  0  0
    8.9290    0.0489    1.1279 H   0  0  0  0  0  0  0  0  0  0  0  0
    8.9608    1.3819   -0.0378 H   0  0  0  0  0  0  0  0  0  0  0  0
    9.3341    4.3775    1.4124 C   0  0  0  0  0  0  0  0  0  0  0  0
    8.5636    5.2860    0.6991 C   0  0  0  0  0  0  0  0  0  0  0  0
    7.5919    4.9772    0.3411 H   0  0  0  0  0  0  0  0  0  0  0  0
    9.0338    6.5667    0.4120 C   0  0  0  0  0  0  0  0  0  0  0  0
    8.4023    7.2393   -0.1501 H   0  0  0  0  0  0  0  0  0  0  0  0
   10.2765    6.9769    0.8208 C   0  0  0  0  0  3  0  0  0  0  0  0
   10.6407    7.9665    0.5919 H   0  0  0  0  0  0  0  0  0  0  0  0
   11.0969    6.0976    1.5504 C   0  0  0  0  0  0  0  0  0  0  0  0
   10.6254    4.7931    1.8590 C   0  0  0  0  0  0  0  0  0  0  0  0
   12.3854    6.4429    2.0079 C   0  0  0  0  0  0  0  0  0  0  0  0
   12.7789    7.4230    1.7792 H   0  0  0  0  0  0  0  0  0  0  0  0
   13.1154    5.5364    2.7287 C   0  0  0  0  0  0  0  0  0  0  0  0
   14.1049    5.7684    3.0891 H   0  0  0  0  0  0  0  0  0  0  0  0
   12.5571    4.2812    3.0032 C   0  0  0  0  0  0  0  0  0  0  0  0
   13.1050    3.5444    3.5738 H   0  0  0  0  0  0  0  0  0  0  0  0
  1  3  1  0  0  0  0
  2  1  1  0  0  0  0
  4  8  1  0  0  0  0
  4  1  1  0  0  0  0
  5 13  1  0  0  0  0
  5  9  1  0  0  0  0
  6  8  1  0  0  0  0
  6 19  1  0  0  0  0
  7  1  1  0  0  0  0
  7 39  1  0  0  0  0
  8  5  1  0  0  0  0
  9 10  1  0  0  0  0
  9 11  1  0  0  0  0
 12  9  1  0  0  0  0
 13 14  1  0  0  0  0
 13 15  1  0  0  0  0
 16 17  1  0  0  0  0
 16 13  1  0  0  0  0
 18 16  1  0  0  0  0
 19 16  1  0  0  0  0
 19 20  1  0  0  0  0
 21 19  1  0  0  0  0
 22 24  1  0  0  0  0
 22  6  1  0  0  0  0
 23 22  1  0  0  0  0
 25 22  1  0  0  0  0
 26  4  1  0  0  0  0
 26 34  2  0  0  0  0
 27 26  1  0  0  0  0
 28 27  1  0  0  0  0
 29 27  2  0  0  0  0
 29 31  1  0  0  0  0
 30 29  1  0  0  0  0
 31 33  1  0  0  0  0
 32 31  1  0  0  0  0
 33 34  1  0  0  0  0
 33 35  2  0  0  0  0
 34  7  1  0  0  0  0
 35 37  1  0  0  0  0
 36 35  1  0  0  0  0
 37 39  2  0  0  0  0
 37 38  1  0  0  0  0
 39 40  1  0  0  0  0
M  END
$$$$
