CSD_code = DAMJAE | q = 0 | S = 0 | Stoichiometry = C22H21Cl2NO3PRe | MND = 6
 OpenBabel04212202023D

 51 55  0  0  1  0  0  0  0  0999 V2000
    5.3301    3.0063   12.7061 Re  0  0  0  0  0  0  0  0  0  0  0  0
    4.3091    1.8323   14.6221 P   0  0  0  0  0  4  0  0  0  0  0  0
    5.7019    4.2414   10.7732 Cl  0  0  0  0  0  0  0  0  0  0  0  0
    5.2314    4.8778   13.9888 Cl  0  0  0  0  0  0  0  0  0  0  0  0
    5.0181    1.3167   11.2050 N   0  0  1  0  0  0  0  0  0  0  0  0
    6.9086    2.5949   12.9919 O   0  0  0  0  0  1  0  0  0  0  0  0
    3.4492    3.0406   12.2597 O   0  0  0  0  0  0  0  0  0  0  0  0
    3.6308    0.6418    9.6106 O   0  0  0  0  0  0  0  0  0  0  0  0
    2.9368    2.4980   11.1128 C   0  0  0  0  0  0  0  0  0  0  0  0
    2.8537    3.2665   10.3218 H   0  0  0  0  0  0  0  0  0  0  0  0
    1.9392    2.0577   11.2776 H   0  0  0  0  0  0  0  0  0  0  0  0
    3.8905    1.4503   10.6285 C   0  0  2  0  0  3  0  0  0  0  0  0
    4.8007   -0.1714    9.4212 C   0  0  0  0  0  0  0  0  0  0  0  0
    5.1638   -0.0114    8.4041 H   0  0  0  0  0  0  0  0  0  0  0  0
    4.5075   -1.2167    9.5455 H   0  0  0  0  0  0  0  0  0  0  0  0
    5.7898    0.3157   10.5048 C   0  0  0  0  0  0  0  0  0  0  0  0
    6.0958   -0.4708   11.1966 H   0  0  0  0  0  0  0  0  0  0  0  0
    6.6845    0.7867   10.0920 H   0  0  0  0  0  0  0  0  0  0  0  0
    3.2820    0.4861   13.9768 C   0  0  0  0  0  0  0  0  0  0  0  0
    1.8961    0.5589   13.9123 C   0  0  0  0  0  0  0  0  0  0  0  0
    1.3806    1.4012   14.3521 H   0  0  0  0  0  0  0  0  0  0  0  0
    1.1827   -0.4472   13.2820 C   0  0  0  0  0  0  0  0  0  0  0  0
    0.1052   -0.3892   13.2310 H   0  0  0  0  0  0  0  0  0  0  0  0
    1.8447   -1.5228   12.7141 C   0  0  0  0  0  0  0  0  0  0  0  0
    1.2839   -2.3009   12.2182 H   0  0  0  0  0  0  0  0  0  0  0  0
    3.2281   -1.6015   12.7827 C   0  0  0  0  0  0  0  0  0  0  0  0
    3.7430   -2.4452   12.3457 H   0  0  0  0  0  0  0  0  0  0  0  0
    3.9449   -0.5999   13.4074 C   0  0  0  0  0  0  0  0  0  0  0  0
    5.0250   -0.6393   13.4662 H   0  0  0  0  0  0  0  0  0  0  0  0
    5.4679    1.0224   15.7584 C   0  0  0  0  0  0  0  0  0  0  0  0
    5.1283   -0.1300   16.4618 C   0  0  0  0  0  0  0  0  0  0  0  0
    4.1560   -0.5826   16.3203 H   0  0  0  0  0  0  0  0  0  0  0  0
    6.0385   -0.6909   17.3395 C   0  0  0  0  0  0  0  0  0  0  0  0
    5.7766   -1.5856   17.8848 H   0  0  0  0  0  0  0  0  0  0  0  0
    7.2820   -0.1060   17.5201 C   0  0  0  0  0  0  0  0  0  0  0  0
    7.9886   -0.5489   18.2063 H   0  0  0  0  0  0  0  0  0  0  0  0
    7.6213    1.0408   16.8198 C   0  0  0  0  0  0  0  0  0  0  0  0
    8.5918    1.4917   16.9581 H   0  0  0  0  0  0  0  0  0  0  0  0
    6.7180    1.6068   15.9377 C   0  0  0  0  0  0  0  0  0  0  0  0
    6.9724    2.4924   15.3683 H   0  0  0  0  0  0  0  0  0  0  0  0
    3.2193    2.8158   15.6892 C   0  0  0  0  0  0  0  0  0  0  0  0
    3.2410    2.6747   17.0729 C   0  0  0  0  0  0  0  0  0  0  0  0
    3.9204    1.9754   17.5380 H   0  0  0  0  0  0  0  0  0  0  0  0
    2.3952    3.4410   17.8554 C   0  0  0  0  0  0  0  0  0  0  0  0
    2.4158    3.3306   18.9296 H   0  0  0  0  0  0  0  0  0  0  0  0
    1.5330    4.3514   17.2681 C   0  0  0  0  0  0  0  0  0  0  0  0
    0.8801    4.9515   17.8843 H   0  0  0  0  0  0  0  0  0  0  0  0
    1.5177    4.5018   15.8905 C   0  0  0  0  0  0  0  0  0  0  0  0
    0.8567    5.2220   15.4319 H   0  0  0  0  0  0  0  0  0  0  0  0
    2.3584    3.7405   15.1010 C   0  0  0  0  0  0  0  0  0  0  0  0
    2.3701    3.8716   14.0283 H   0  0  0  0  0  0  0  0  0  0  0  0
  1  6  1  0  0  0  0
  1  4  1  0  0  0  0
  1  2  1  0  0  0  0
  2 41  1  0  0  0  0
  2 30  1  0  0  0  0
  3  1  1  0  0  0  0
  5 16  1  6  0  0  0
  5  1  1  0  0  0  0
  7  1  1  0  0  0  0
  9 11  1  0  0  0  0
  9  7  1  0  0  0  0
 10  9  1  0  0  0  0
 12  8  1  6  0  0  0
 12  9  1  0  0  0  0
 12  5  1  0  0  0  0
 13 15  1  0  0  0  0
 13  8  1  0  0  0  0
 13 16  1  0  0  0  0
 14 13  1  0  0  0  0
 16 17  1  0  0  0  0
 18 16  1  0  0  0  0
 19  2  1  0  0  0  0
 20 19  1  0  0  0  0
 20 21  1  0  0  0  0
 22 20  2  0  0  0  0
 23 22  1  0  0  0  0
 24 26  2  0  0  0  0
 24 22  1  0  0  0  0
 25 24  1  0  0  0  0
 26 28  1  0  0  0  0
 27 26  1  0  0  0  0
 28 29  1  0  0  0  0
 28 19  2  0  0  0  0
 30 39  2  0  0  0  0
 30 31  1  0  0  0  0
 31 33  2  0  0  0  0
 32 31  1  0  0  0  0
 33 35  1  0  0  0  0
 33 34  1  0  0  0  0
 35 36  1  0  0  0  0
 37 38  1  0  0  0  0
 37 35  2  0  0  0  0
 39 37  1  0  0  0  0
 40 39  1  0  0  0  0
 41 42  1  0  0  0  0
 42 43  1  0  0  0  0
 42 44  2  0  0  0  0
 44 45  1  0  0  0  0
 46 44  1  0  0  0  0
 46 47  1  0  0  0  0
 48 46  2  0  0  0  0
 49 48  1  0  0  0  0
 50 41  2  0  0  0  0
 50 48  1  0  0  0  0
 51 50  1  0  0  0  0
M  END
$$$$
