CSD_code = DAMJEJ | q = 0 | S = 0 | Stoichiometry = C18H32Cl2N4NiS2 | MND = 4
 OpenBabel04212202023D

 59 60  0  0  1  0  0  0  0  0999 V2000
    2.7820    3.5858    8.1886 Ni  0  0  0  0  0  0  0  0  0  0  0  0
    3.5330    3.7831    6.2740 Cl  0  0  0  0  0  0  0  0  0  0  0  0
    2.6982    3.2879   10.2336 Cl  0  0  0  0  0  0  0  0  0  0  0  0
    0.8705    2.0610    7.4012 S   0  0  0  0  0  0  0  0  0  0  0  0
    1.7549    5.6901    8.3826 S   0  0  0  0  0  0  0  0  0  0  0  0
    1.5630    0.2065    9.2417 N   0  0  0  0  0  0  0  0  0  0  0  0
    0.0836    1.6407    9.9581 N   0  0  0  0  0  0  0  0  0  0  0  0
    1.0464    6.0420    5.7855 N   0  0  0  0  0  0  0  0  0  0  0  0
    2.9890    6.8902    6.2888 N   0  0  0  0  0  0  0  0  0  0  0  0
    0.8511    1.3012    8.9067 C   0  0  2  0  0  3  0  0  0  0  0  0
   -0.7171    2.8373    9.9876 C   0  0  0  0  0  0  0  0  0  0  0  0
   -0.1503    3.6164    9.4633 H   0  0  0  0  0  0  0  0  0  0  0  0
   -0.8447    3.1425   11.0258 H   0  0  0  0  0  0  0  0  0  0  0  0
   -2.0638    2.6269    9.3052 C   0  0  0  0  0  0  0  0  0  0  0  0
   -1.9099    2.3385    8.2684 H   0  0  0  0  0  0  0  0  0  0  0  0
   -2.6349    3.5504    9.3314 H   0  0  0  0  0  0  0  0  0  0  0  0
   -2.6337    1.8466    9.8054 H   0  0  0  0  0  0  0  0  0  0  0  0
    0.3490    0.7729   10.9961 C   0  0  0  0  0  0  0  0  0  0  0  0
   -0.3037    0.9090   12.3230 C   0  0  0  0  0  0  0  0  0  0  0  0
   -0.0741    0.0472   12.9421 H   0  0  0  0  0  0  0  0  0  0  0  0
   -1.3847    0.9855   12.2173 H   0  0  0  0  0  0  0  0  0  0  0  0
    0.0600    1.8033   12.8290 H   0  0  0  0  0  0  0  0  0  0  0  0
    1.2777   -0.1183   10.5533 C   0  0  0  0  0  0  0  0  0  0  0  0
    1.9275   -1.2636   11.2413 C   0  0  0  0  0  0  0  0  0  0  0  0
    1.5565   -1.3424   12.2583 H   0  0  0  0  0  0  0  0  0  0  0  0
    3.0069   -1.1243   11.2794 H   0  0  0  0  0  0  0  0  0  0  0  0
    1.7191   -2.1993   10.7218 H   0  0  0  0  0  0  0  0  0  0  0  0
    2.5823   -0.3586    8.3917 C   0  0  0  0  0  0  0  0  0  0  0  0
    2.2103   -0.3081    7.3633 H   0  0  0  0  0  0  0  0  0  0  0  0
    2.7313   -1.4039    8.6693 H   0  0  0  0  0  0  0  0  0  0  0  0
    3.8868    0.4249    8.4999 C   0  0  0  0  0  0  0  0  0  0  0  0
    3.7185    1.4725    8.2047 H   0  0  0  0  0  0  0  0  0  0  0  0
    4.6345    0.0054    7.8327 H   0  0  0  0  0  0  0  0  0  0  0  0
    4.2634    0.4201    9.5201 H   0  0  0  0  0  0  0  0  0  0  0  0
    1.9440    6.1957    6.7743 C   0  0  1  0  0  3  0  0  0  0  0  0
   -0.1728    5.2870    5.9290 C   0  0  0  0  0  0  0  0  0  0  0  0
    0.0543    4.4167    6.5547 H   0  0  0  0  0  0  0  0  0  0  0  0
   -0.4793    4.9348    4.9442 H   0  0  0  0  0  0  0  0  0  0  0  0
   -1.2713    6.1196    6.5802 C   0  0  0  0  0  0  0  0  0  0  0  0
   -0.9558    6.4345    7.5716 H   0  0  0  0  0  0  0  0  0  0  0  0
   -2.1731    5.5219    6.6733 H   0  0  0  0  0  0  0  0  0  0  0  0
   -1.4943    7.0030    5.9853 H   0  0  0  0  0  0  0  0  0  0  0  0
    1.5443    6.6291    4.6433 C   0  0  0  0  0  0  0  0  0  0  0  0
    0.8039    6.6104    3.3559 C   0  0  0  0  0  0  0  0  0  0  0  0
    1.3064    7.2411    2.6290 H   0  0  0  0  0  0  0  0  0  0  0  0
   -0.2144    6.9727    3.4888 H   0  0  0  0  0  0  0  0  0  0  0  0
    0.7606    5.5967    2.9578 H   0  0  0  0  0  0  0  0  0  0  0  0
    2.7615    7.1569    4.9575 C   0  0  0  0  0  0  0  0  0  0  0  0
    3.7502    7.8773    4.1154 C   0  0  0  0  0  0  0  0  0  0  0  0
    4.6316    7.2569    3.9531 H   0  0  0  0  0  0  0  0  0  0  0  0
    4.0637    8.8048    4.5920 H   0  0  0  0  0  0  0  0  0  0  0  0
    3.3155    8.1115    3.1485 H   0  0  0  0  0  0  0  0  0  0  0  0
    4.1772    7.1671    7.0539 C   0  0  0  0  0  0  0  0  0  0  0  0
    5.0171    7.2691    6.3660 H   0  0  0  0  0  0  0  0  0  0  0  0
    4.3559    6.2975    7.6979 H   0  0  0  0  0  0  0  0  0  0  0  0
    4.0102    8.4169    7.9107 C   0  0  0  0  0  0  0  0  0  0  0  0
    3.8013    9.2864    7.2907 H   0  0  0  0  0  0  0  0  0  0  0  0
    4.9202    8.5989    8.4750 H   0  0  0  0  0  0  0  0  0  0  0  0
    3.1890    8.2781    8.6094 H   0  0  0  0  0  0  0  0  0  0  0  0
  1  5  1  0  0  0  0
  1  3  1  0  0  0  0
  2  1  1  0  0  0  0
  4  1  1  0  0  0  0
  6 23  1  0  0  0  0
  7 11  1  0  0  0  0
  7 18  1  0  0  0  0
  8 36  1  0  0  0  0
  8 35  1  0  0  0  0
  9 35  1  0  0  0  0
  9 53  1  0  0  0  0
 10  4  1  6  0  0  0
 10  6  1  0  0  0  0
 10  7  1  0  0  0  0
 11 13  1  0  0  0  0
 12 11  1  0  0  0  0
 14 16  1  0  0  0  0
 14 17  1  0  0  0  0
 14 11  1  0  0  0  0
 15 14  1  0  0  0  0
 18 19  1  0  0  0  0
 19 22  1  0  0  0  0
 19 20  1  0  0  0  0
 21 19  1  0  0  0  0
 23 18  2  0  0  0  0
 23 24  1  0  0  0  0
 24 26  1  0  0  0  0
 24 25  1  0  0  0  0
 27 24  1  0  0  0  0
 28 31  1  0  0  0  0
 28 30  1  0  0  0  0
 28  6  1  0  0  0  0
 29 28  1  0  0  0  0
 31 34  1  0  0  0  0
 32 31  1  0  0  0  0
 33 31  1  0  0  0  0
 35  5  1  1  0  0  0
 36 37  1  0  0  0  0
 36 39  1  0  0  0  0
 38 36  1  0  0  0  0
 39 41  1  0  0  0  0
 39 40  1  0  0  0  0
 42 39  1  0  0  0  0
 43 48  2  0  0  0  0
 43  8  1  0  0  0  0
 44 46  1  0  0  0  0
 44 43  1  0  0  0  0
 45 44  1  0  0  0  0
 47 44  1  0  0  0  0
 48  9  1  0  0  0  0
 49 51  1  0  0  0  0
 49 48  1  0  0  0  0
 50 49  1  0  0  0  0
 52 49  1  0  0  0  0
 53 55  1  0  0  0  0
 53 56  1  0  0  0  0
 54 53  1  0  0  0  0
 56 58  1  0  0  0  0
 56 59  1  0  0  0  0
 57 56  1  0  0  0  0
M  END
$$$$
