CSD_code = DAMVUI | q = 0 | S = 0 | Stoichiometry = C14H18BrCuN2 | MND = 3
 OpenBabel04212202023D

 36 37  0  0  1  0  0  0  0  0999 V2000
    6.1173   -1.3718    3.1463 Cu  0  0  0  0  0  0  0  0  0  0  0  0
    6.1201    0.9252    3.1472 Br  0  0  0  0  0  0  0  0  0  0  0  0
    4.5746   -2.2751    4.0088 N   0  0  0  0  0  0  0  0  0  0  0  0
    3.7658   -3.0335    3.2604 C   0  0  2  0  0  3  0  0  0  0  0  0
    4.2502   -3.4337    1.9037 C   0  0  0  0  0  0  0  0  0  0  0  0
    2.5176   -3.4313    3.7158 C   0  0  0  0  0  0  0  0  0  0  0  0
    2.0945   -3.0257    4.9703 C   0  0  0  0  0  0  0  0  0  0  0  0
    2.9400   -2.2398    5.7339 C   0  0  0  0  0  0  0  0  0  0  0  0
    4.1810   -1.8785    5.2273 C   0  0  0  0  0  0  0  0  0  0  0  0
    5.1107   -1.0174    6.0105 C   0  0  0  0  0  0  0  0  0  0  0  0
    3.9294   -2.6933    1.1697 H   0  0  0  0  0  0  0  0  0  0  0  0
    5.3391   -3.4787    1.8879 H   0  0  0  0  0  0  0  0  0  0  0  0
    3.8397   -4.3981    1.6137 H   0  0  0  0  0  0  0  0  0  0  0  0
    1.8910   -4.0477    3.0906 H   0  0  0  0  0  0  0  0  0  0  0  0
    1.1259   -3.3191    5.3457 H   0  0  0  0  0  0  0  0  0  0  0  0
    2.6465   -1.9040    6.7157 H   0  0  0  0  0  0  0  0  0  0  0  0
    6.1380   -1.3633    5.9102 H   0  0  0  0  0  0  0  0  0  0  0  0
    5.0740    0.0017    5.6203 H   0  0  0  0  0  0  0  0  0  0  0  0
    4.8339   -0.9959    7.0608 H   0  0  0  0  0  0  0  0  0  0  0  0
    7.6589   -2.2758    2.2824 N   0  0  0  0  0  0  0  0  0  0  0  0
    8.4685   -3.0340    3.0303 C   0  0  2  0  0  3  0  0  0  0  0  0
    8.0516   -1.8793    1.0636 C   0  0  0  0  0  0  0  0  0  0  0  0
    7.9849   -3.4342    4.3873 C   0  0  0  0  0  0  0  0  0  0  0  0
    9.7166   -3.4312    2.5742 C   0  0  0  0  0  0  0  0  0  0  0  0
    9.2924   -2.2403    0.5561 C   0  0  0  0  0  0  0  0  0  0  0  0
    7.1211   -1.0182    0.2810 C   0  0  0  0  0  0  0  0  0  0  0  0
    8.3052   -2.6933    5.1210 H   0  0  0  0  0  0  0  0  0  0  0  0
    6.8960   -3.4802    4.4034 H   0  0  0  0  0  0  0  0  0  0  0  0
    8.3963   -4.3981    4.6774 H   0  0  0  0  0  0  0  0  0  0  0  0
   10.1387   -3.0257    1.3193 C   0  0  0  0  0  0  0  0  0  0  0  0
   10.3439   -4.0472    3.1991 H   0  0  0  0  0  0  0  0  0  0  0  0
    9.5851   -1.9046   -0.4259 H   0  0  0  0  0  0  0  0  0  0  0  0
    6.0939   -1.3638    0.3827 H   0  0  0  0  0  0  0  0  0  0  0  0
    7.1589    0.0011    0.6706 H   0  0  0  0  0  0  0  0  0  0  0  0
    7.3969   -0.9975   -0.7697 H   0  0  0  0  0  0  0  0  0  0  0  0
   11.1071   -3.3188    0.9433 H   0  0  0  0  0  0  0  0  0  0  0  0
  1  2  1  0  0  0  0
  1  3  1  0  0  0  0
  3  9  1  0  0  0  0
  4  5  1  6  0  0  0
  4  6  1  0  0  0  0
  4  3  1  0  0  0  0
  6  7  2  0  0  0  0
  7 15  1  0  0  0  0
  7  8  1  0  0  0  0
  8 16  1  0  0  0  0
  9  8  2  0  0  0  0
  9 10  1  0  0  0  0
 10 19  1  0  0  0  0
 11  5  1  0  0  0  0
 12  5  1  0  0  0  0
 13  5  1  0  0  0  0
 14  6  1  0  0  0  0
 17 10  1  0  0  0  0
 18 10  1  0  0  0  0
 20 21  1  0  0  0  0
 20  1  1  0  0  0  0
 21 23  1  1  0  0  0
 22 20  1  0  0  0  0
 23 28  1  0  0  0  0
 23 29  1  0  0  0  0
 23 27  1  0  0  0  0
 24 21  1  0  0  0  0
 24 31  1  0  0  0  0
 25 22  2  0  0  0  0
 25 30  1  0  0  0  0
 26 33  1  0  0  0  0
 26 34  1  0  0  0  0
 26 22  1  0  0  0  0
 30 24  2  0  0  0  0
 32 25  1  0  0  0  0
 35 26  1  0  0  0  0
 36 30  1  0  0  0  0
M  END
$$$$
