CSD_code = DAMWET | q = 0 | S = 0 | Stoichiometry = C18H21BrCuN3 | MND = 4
 OpenBabel04212202023D

 44 46  0  0  0  0  0  0  0  0999 V2000
    0.0817    0.1175    0.2386 Cu  0  0  2  0  0  0  0  0  0  0  0  0
    0.7446    1.1018    2.2118 Br  0  0  0  0  0  0  0  0  0  0  0  0
    1.6757   -0.3000   -0.9250 N   0  0  0  0  0  0  0  0  0  0  0  0
    1.6436   -1.2068   -1.8968 C   0  0  0  0  0  3  0  0  0  0  0  0
    2.7456   -1.5431   -2.6672 C   0  0  0  0  0  0  0  0  0  0  0  0
    2.6579   -2.5688   -3.7528 C   0  0  0  0  0  0  0  0  0  0  0  0
    3.9434   -0.8863   -2.3915 C   0  0  0  0  0  0  0  0  0  0  0  0
    3.9817    0.0517   -1.3739 C   0  0  0  0  0  0  0  0  0  0  0  0
    2.8237    0.3162   -0.6639 C   0  0  0  0  0  0  0  0  0  0  0  0
    0.6918   -1.6966   -2.0612 H   0  0  0  0  0  0  0  0  0  0  0  0
    1.6536   -2.9801   -3.8214 H   0  0  0  0  0  0  0  0  0  0  0  0
    3.3552   -3.3828   -3.5593 H   0  0  0  0  0  0  0  0  0  0  0  0
    2.9222   -2.1266   -4.7129 H   0  0  0  0  0  0  0  0  0  0  0  0
    4.8289   -1.1151   -2.9670 H   0  0  0  0  0  0  0  0  0  0  0  0
    4.8944    0.5721   -1.1311 H   0  0  0  0  0  0  0  0  0  0  0  0
    2.8111    1.0338    0.1445 H   0  0  0  0  0  0  0  0  0  0  0  0
   -1.1452    1.3400   -0.7953 N   0  0  0  0  0  0  0  0  0  0  0  0
   -0.9052   -1.6058    0.5937 N   0  0  0  0  0  0  0  0  0  0  0  0
   -1.3475    1.2227   -2.1042 C   0  0  0  0  0  3  0  0  0  0  0  0
   -1.7258    2.3440   -0.1467 C   0  0  0  0  0  0  0  0  0  0  0  0
   -1.7354   -2.1577   -0.2861 C   0  0  0  0  0  3  0  0  0  0  0  0
   -0.7674   -2.1755    1.7863 C   0  0  0  0  0  0  0  0  0  0  0  0
   -2.1440    2.0887   -2.8367 C   0  0  0  0  0  0  0  0  0  0  0  0
   -0.8393    0.4013   -2.5939 H   0  0  0  0  0  0  0  0  0  0  0  0
   -2.5385    3.2639   -0.7857 C   0  0  0  0  0  0  0  0  0  0  0  0
   -1.5223    2.4135    0.9127 H   0  0  0  0  0  0  0  0  0  0  0  0
   -2.4647   -3.3088   -0.0333 C   0  0  0  0  0  0  0  0  0  0  0  0
   -1.8300   -1.6487   -1.2373 H   0  0  0  0  0  0  0  0  0  0  0  0
   -1.4512   -3.3259    2.1384 C   0  0  0  0  0  0  0  0  0  0  0  0
   -0.0962   -1.6861    2.4781 H   0  0  0  0  0  0  0  0  0  0  0  0
   -2.3435    1.9122   -4.3090 C   0  0  0  0  0  0  0  0  0  0  0  0
   -2.7551    3.1341   -2.1469 C   0  0  0  0  0  0  0  0  0  0  0  0
   -2.9911    4.0658   -0.2245 H   0  0  0  0  0  0  0  0  0  0  0  0
   -3.3841   -3.8937   -1.0585 C   0  0  0  0  0  0  0  0  0  0  0  0
   -2.3079   -3.9039    1.2171 C   0  0  0  0  0  0  0  0  0  0  0  0
   -1.3132   -3.7577    3.1168 H   0  0  0  0  0  0  0  0  0  0  0  0
   -1.7883    1.0532   -4.6782 H   0  0  0  0  0  0  0  0  0  0  0  0
   -2.0080    2.7998   -4.8437 H   0  0  0  0  0  0  0  0  0  0  0  0
   -3.4002    1.7697   -4.5328 H   0  0  0  0  0  0  0  0  0  0  0  0
   -3.3860    3.8336   -2.6763 H   0  0  0  0  0  0  0  0  0  0  0  0
   -3.3868   -3.2961   -1.9669 H   0  0  0  0  0  0  0  0  0  0  0  0
   -4.4004   -3.9413   -0.6698 H   0  0  0  0  0  0  0  0  0  0  0  0
   -3.0761   -4.9088   -1.3072 H   0  0  0  0  0  0  0  0  0  0  0  0
   -2.8553   -4.8036    1.4588 H   0  0  0  0  0  0  0  0  0  0  0  0
  1 18  1  0  0  0  0
  1  2  1  1  0  0  0
  3  9  1  0  0  0  0
  3  1  1  0  0  0  0
  4  3  1  0  0  0  0
  5  7  2  0  0  0  0
  5  4  1  0  0  0  0
  6 12  1  0  0  0  0
  6  5  1  0  0  0  0
  7  8  1  0  0  0  0
  8 15  1  0  0  0  0
  8  9  2  0  0  0  0
  9 16  1  0  0  0  0
 10  4  1  0  0  0  0
 11  6  1  0  0  0  0
 13  6  1  0  0  0  0
 14  7  1  0  0  0  0
 17 20  1  0  0  0  0
 17  1  1  0  0  0  0
 18 22  1  0  0  0  0
 19 17  1  0  0  0  0
 20 26  1  0  0  0  0
 21 27  1  0  0  0  0
 21 18  1  0  0  0  0
 22 29  2  0  0  0  0
 22 30  1  0  0  0  0
 23 32  2  0  0  0  0
 23 19  1  0  0  0  0
 24 19  1  0  0  0  0
 25 33  1  0  0  0  0
 25 20  2  0  0  0  0
 27 35  2  0  0  0  0
 28 21  1  0  0  0  0
 29 36  1  0  0  0  0
 31 23  1  0  0  0  0
 32 25  1  0  0  0  0
 34 42  1  0  0  0  0
 34 27  1  0  0  0  0
 35 44  1  0  0  0  0
 35 29  1  0  0  0  0
 37 31  1  0  0  0  0
 38 31  1  0  0  0  0
 39 31  1  0  0  0  0
 40 32  1  0  0  0  0
 41 34  1  0  0  0  0
 43 34  1  0  0  0  0
M  END
$$$$
