CSD_code = DANBEZ | q = 0 | S = 0 | Stoichiometry = C29H24BrO5P2Re | MND = 6
 OpenBabel04212202023D

 62 66  0  0  0  0  0  0  0  0999 V2000
    3.7166    1.5980    3.5695 Re  0  0  0  0  0  0  0  0  0  0  0  0
    5.2233    1.6675    1.4945 Br  0  0  0  0  0  0  0  0  0  0  0  0
    2.5556    1.4342    5.1173 C   0  0  0  0  0  2  0  0  0  0  0  0
    1.9136    1.3559    6.0667 O   0  0  0  0  0  1  0  0  0  0  0  0
    4.3791    3.3035    4.2456 C   0  0  0  0  0  2  0  0  0  0  0  0
    4.7769    4.2885    4.6780 O   0  0  0  0  0  1  0  0  0  0  0  0
    5.1984    0.6989    4.4788 C   0  0  0  0  0  2  0  0  0  0  0  0
    6.1001    0.1831    4.9542 O   0  0  0  0  0  1  0  0  0  0  0  0
    2.0654    1.1150   -0.0492 C   0  0  0  0  0  0  0  0  0  0  0  0
    3.0661    1.5562   -0.1124 H   0  0  0  0  0  0  0  0  0  0  0  0
    1.5029    1.3784   -0.9506 H   0  0  0  0  0  0  0  0  0  0  0  0
    2.1743   -0.4014    0.0470 C   0  0  0  0  0  0  0  0  0  0  0  0
    1.1850   -0.8180    0.2796 H   0  0  0  0  0  0  0  0  0  0  0  0
    2.5256   -0.8001   -0.9086 H   0  0  0  0  0  0  0  0  0  0  0  0
    2.0039    2.5977    2.1624 P   0  0  0  0  0  4  0  0  0  0  0  0
    1.3334    1.6128    1.0661 O   0  0  0  0  0  0  0  0  0  0  0  0
    2.3555    4.1021    1.1891 C   0  0  0  0  0  0  0  0  0  0  0  0
    1.3763    4.5454    0.3046 C   0  0  0  0  0  0  0  0  0  0  0  0
    0.4497    3.9940    0.2131 H   0  0  0  0  0  0  0  0  0  0  0  0
    1.5925    5.6840   -0.4457 C   0  0  0  0  0  0  0  0  0  0  0  0
    0.8339    6.0280   -1.1337 H   0  0  0  0  0  0  0  0  0  0  0  0
    2.7816    6.3859   -0.3130 C   0  0  0  0  0  0  0  0  0  0  0  0
    2.9489    7.2750   -0.9027 H   0  0  0  0  0  0  0  0  0  0  0  0
    3.7527    5.9485    0.5706 C   0  0  0  0  0  0  0  0  0  0  0  0
    4.6800    6.4913    0.6722 H   0  0  0  0  0  0  0  0  0  0  0  0
    3.5420    4.8067    1.3243 C   0  0  0  0  0  0  0  0  0  0  0  0
    4.3083    4.4596    2.0020 H   0  0  0  0  0  0  0  0  0  0  0  0
    0.4860    3.1100    3.0124 C   0  0  0  0  0  0  0  0  0  0  0  0
   -0.7859    2.6915    2.6490 C   0  0  0  0  0  0  0  0  0  0  0  0
   -0.9136    2.0166    1.8157 H   0  0  0  0  0  0  0  0  0  0  0  0
   -1.8812    3.1306    3.3725 C   0  0  0  0  0  0  0  0  0  0  0  0
   -2.8725    2.8031    3.0942 H   0  0  0  0  0  0  0  0  0  0  0  0
   -1.7103    3.9835    4.4500 C   0  0  0  0  0  0  0  0  0  0  0  0
   -2.5689    4.3210    5.0114 H   0  0  0  0  0  0  0  0  0  0  0  0
   -0.4389    4.4002    4.8143 C   0  0  0  0  0  0  0  0  0  0  0  0
   -0.3047    5.0608    5.6575 H   0  0  0  0  0  0  0  0  0  0  0  0
    0.6579    3.9600    4.0997 C   0  0  0  0  0  0  0  0  0  0  0  0
    1.6611    4.2627    4.3785 H   0  0  0  0  0  0  0  0  0  0  0  0
    3.0341   -0.5449    2.5888 P   0  0  0  0  0  4  0  0  0  0  0  0
    3.1169   -0.8388    1.0016 O   0  0  0  0  0  0  0  0  0  0  0  0
    4.2046   -1.8202    3.1151 C   0  0  0  0  0  0  0  0  0  0  0  0
    4.0990   -2.3019    4.4162 C   0  0  0  0  0  0  0  0  0  0  0  0
    3.2852   -1.9621    5.0460 H   0  0  0  0  0  0  0  0  0  0  0  0
    5.0338   -3.1999    4.8929 C   0  0  0  0  0  0  0  0  0  0  0  0
    4.9515   -3.5794    5.9007 H   0  0  0  0  0  0  0  0  0  0  0  0
    6.0833   -3.6017    4.0803 C   0  0  0  0  0  0  0  0  0  0  0  0
    6.8185   -4.2968    4.4579 H   0  0  0  0  0  0  0  0  0  0  0  0
    6.1999   -3.1034    2.7936 C   0  0  0  0  0  0  0  0  0  0  0  0
    7.0284   -3.4038    2.1694 H   0  0  0  0  0  0  0  0  0  0  0  0
    5.2647   -2.2070    2.3064 C   0  0  0  0  0  0  0  0  0  0  0  0
    5.3585   -1.7970    1.3116 H   0  0  0  0  0  0  0  0  0  0  0  0
    1.4131   -1.2769    3.0109 C   0  0  0  0  0  0  0  0  0  0  0  0
    1.1698   -2.6111    2.7019 C   0  0  0  0  0  0  0  0  0  0  0  0
    1.9586   -3.2080    2.2631 H   0  0  0  0  0  0  0  0  0  0  0  0
   -0.0710   -3.1600    2.9639 C   0  0  0  0  0  0  0  0  0  0  0  0
   -0.2609   -4.1976    2.7311 H   0  0  0  0  0  0  0  0  0  0  0  0
   -1.0713   -2.3803    3.5261 C   0  0  0  0  0  0  0  0  0  0  0  0
   -2.0393   -2.8137    3.7300 H   0  0  0  0  0  0  0  0  0  0  0  0
   -0.8328   -1.0495    3.8246 C   0  0  0  0  0  0  0  0  0  0  0  0
   -1.6103   -0.4381    4.2585 H   0  0  0  0  0  0  0  0  0  0  0  0
    0.4098   -0.4980    3.5657 C   0  0  0  0  0  0  0  0  0  0  0  0
    0.6014    0.5434    3.7935 H   0  0  0  0  0  0  0  0  0  0  0  0
  1  5  1  0  0  0  0
  1  7  1  0  0  0  0
  1  3  1  0  0  0  0
  2  1  1  0  0  0  0
  3  4  1  0  0  0  0
  5  6  1  0  0  0  0
  7  8  1  0  0  0  0
  9 12  1  0  0  0  0
  9 16  1  0  0  0  0
 10  9  1  0  0  0  0
 11  9  1  0  0  0  0
 12 13  1  0  0  0  0
 12 40  1  0  0  0  0
 14 12  1  0  0  0  0
 15 28  1  0  0  0  0
 15  1  1  0  0  0  0
 16 15  1  0  0  0  0
 17 26  1  0  0  0  0
 17 15  1  0  0  0  0
 18 17  2  0  0  0  0
 19 18  1  0  0  0  0
 20 22  2  0  0  0  0
 20 18  1  0  0  0  0
 21 20  1  0  0  0  0
 22 24  1  0  0  0  0
 23 22  1  0  0  0  0
 24 25  1  0  0  0  0
 24 26  2  0  0  0  0
 26 27  1  0  0  0  0
 28 37  1  0  0  0  0
 29 28  2  0  0  0  0
 29 31  1  0  0  0  0
 30 29  1  0  0  0  0
 31 33  2  0  0  0  0
 32 31  1  0  0  0  0
 33 35  1  0  0  0  0
 33 34  1  0  0  0  0
 35 36  1  0  0  0  0
 37 38  1  0  0  0  0
 37 35  2  0  0  0  0
 39 52  1  0  0  0  0
 39 41  1  0  0  0  0
 39  1  1  0  0  0  0
 40 39  1  0  0  0  0
 41 42  1  0  0  0  0
 42 44  2  0  0  0  0
 42 43  1  0  0  0  0
 44 45  1  0  0  0  0
 46 47  1  0  0  0  0
 46 44  1  0  0  0  0
 48 46  2  0  0  0  0
 49 48  1  0  0  0  0
 50 48  1  0  0  0  0
 50 41  2  0  0  0  0
 51 50  1  0  0  0  0
 52 61  1  0  0  0  0
 53 55  1  0  0  0  0
 53 52  2  0  0  0  0
 54 53  1  0  0  0  0
 55 57  2  0  0  0  0
 56 55  1  0  0  0  0
 57 58  1  0  0  0  0
 57 59  1  0  0  0  0
 59 60  1  0  0  0  0
 61 62  1  0  0  0  0
 61 59  2  0  0  0  0
M  END
$$$$
