CSD_code = DANBIG | q = 0 | S = 0 | Stoichiometry = C18H22ClN3NiO | MND = 4
 OpenBabel04212202023D

 46 50  0  0  0  0  0  0  0  0999 V2000
    1.7179    5.9961    8.4155 Ni  0  0  1  0  0  0  0  0  0  0  0  0
    0.9910    5.1811   10.1836 Cl  0  0  0  0  0  0  0  0  0  0  0  0
    5.3059    5.2206   11.2686 O   0  0  0  0  0  0  0  0  0  0  0  0
   -0.0490    5.8392    7.4625 N   0  0  0  0  0  4  0  0  0  0  0  0
    2.3208    6.7737    6.8706 N   0  0  0  0  0  0  0  0  0  0  0  0
    3.6676    6.1923    9.0529 N   0  0  0  0  0  4  0  0  0  0  0  0
   -0.3255    4.4205    7.1832 C   0  0  0  0  0  0  0  0  0  0  0  0
   -1.2668    4.3111    6.6351 H   0  0  0  0  0  0  0  0  0  0  0  0
   -0.3943    3.8693    8.1215 H   0  0  0  0  0  0  0  0  0  0  0  0
    0.4834    4.0042    6.5802 H   0  0  0  0  0  0  0  0  0  0  0  0
   -1.1596    6.4135    8.2413 C   0  0  0  0  0  0  0  0  0  0  0  0
   -0.9710    7.4748    8.4068 H   0  0  0  0  0  0  0  0  0  0  0  0
   -1.2318    5.9111    9.2050 H   0  0  0  0  0  0  0  0  0  0  0  0
   -2.1092    6.2977    7.7117 H   0  0  0  0  0  0  0  0  0  0  0  0
    0.0866    6.5794    6.2041 C   0  0  0  0  0  0  0  0  0  0  0  0
   -0.9649    6.7883    5.3354 C   0  0  0  0  0  0  0  0  0  0  0  0
   -1.9338    6.3473    5.5171 H   0  0  0  0  0  0  0  0  0  0  0  0
   -0.7852    7.5889    4.2180 C   0  0  0  0  0  0  0  0  0  0  0  0
   -1.6027    7.7504    3.5332 H   0  0  0  0  0  0  0  0  0  0  0  0
    0.4348    8.2137    4.0169 C   0  0  0  0  0  0  0  0  0  0  0  0
    0.5581    8.8922    3.1856 H   0  0  0  0  0  0  0  0  0  0  0  0
    1.4998    7.9920    4.8654 C   0  0  0  0  0  0  0  0  0  0  0  0
    2.4178    8.5360    4.7185 H   0  0  0  0  0  0  0  0  0  0  0  0
    1.3647    7.1128    5.9508 C   0  0  0  0  0  0  0  0  0  0  0  0
    3.6712    6.9157    6.7420 C   0  0  0  0  0  0  0  0  0  0  0  0
    4.3719    7.1462    5.5478 C   0  0  0  0  0  0  0  0  0  0  0  0
    3.8585    7.0841    4.6024 H   0  0  0  0  0  0  0  0  0  0  0  0
    5.7218    7.4217    5.5778 C   0  0  0  0  0  0  0  0  0  0  0  0
    6.2459    7.6117    4.6526 H   0  0  0  0  0  0  0  0  0  0  0  0
    6.4046    7.4657    6.7812 C   0  0  0  0  0  0  0  0  0  0  0  0
    7.4506    7.7283    6.8093 H   0  0  0  0  0  0  0  0  0  0  0  0
    5.7550    7.1106    7.9548 C   0  0  0  0  0  0  0  0  0  0  0  0
    6.3309    7.1005    8.8642 H   0  0  0  0  0  0  0  0  0  0  0  0
    4.4147    6.7756    7.9386 C   0  0  0  0  0  0  0  0  0  0  0  0
    4.0599    4.7710    9.2437 C   0  0  0  0  0  0  0  0  0  0  0  0
    3.2854    4.2819    9.8443 H   0  0  0  0  0  0  0  0  0  0  0  0
    4.1269    4.2890    8.2638 H   0  0  0  0  0  0  0  0  0  0  0  0
    5.3801    4.6105   10.0006 C   0  0  0  0  0  0  0  0  0  0  0  0
    5.5613    3.5501   10.1886 H   0  0  0  0  0  0  0  0  0  0  0  0
    6.2239    5.0135    9.4236 H   0  0  0  0  0  0  0  0  0  0  0  0
    5.0506    6.6009   11.1598 C   0  0  0  0  0  0  0  0  0  0  0  0
    5.9329    7.1142   10.7519 H   0  0  0  0  0  0  0  0  0  0  0  0
    4.8986    6.9569   12.1817 H   0  0  0  0  0  0  0  0  0  0  0  0
    3.7864    6.9097   10.3417 C   0  0  0  0  0  0  0  0  0  0  0  0
    3.7287    7.9830   10.1463 H   0  0  0  0  0  0  0  0  0  0  0  0
    2.9283    6.6107   10.9524 H   0  0  0  0  0  0  0  0  0  0  0  0
  1  6  1  0  0  0  0
  1  2  1  1  0  0  0
  4 11  1  0  0  0  0
  4  1  1  0  0  0  0
  5  1  1  0  0  0  0
  6 35  1  0  0  0  0
  6 44  1  0  0  0  0
  7  4  1  0  0  0  0
  7  9  1  0  0  0  0
  8  7  1  0  0  0  0
 10  7  1  0  0  0  0
 11 12  1  0  0  0  0
 11 13  1  0  0  0  0
 14 11  1  0  0  0  0
 15  4  1  0  0  0  0
 16 17  1  0  0  0  0
 16 15  2  0  0  0  0
 18 16  1  0  0  0  0
 19 18  1  0  0  0  0
 20 18  2  0  0  0  0
 20 22  1  0  0  0  0
 21 20  1  0  0  0  0
 22 24  2  0  0  0  0
 23 22  1  0  0  0  0
 24 15  1  0  0  0  0
 24  5  1  0  0  0  0
 25  5  1  0  0  0  0
 25 34  1  0  0  0  0
 26 28  1  0  0  0  0
 26 25  2  0  0  0  0
 27 26  1  0  0  0  0
 28 30  2  0  0  0  0
 29 28  1  0  0  0  0
 30 31  1  0  0  0  0
 30 32  1  0  0  0  0
 32 33  1  0  0  0  0
 34 32  2  0  0  0  0
 34  6  1  0  0  0  0
 35 36  1  0  0  0  0
 35 38  1  0  0  0  0
 37 35  1  0  0  0  0
 38 39  1  0  0  0  0
 38  3  1  0  0  0  0
 40 38  1  0  0  0  0
 41  3  1  0  0  0  0
 41 43  1  0  0  0  0
 42 41  1  0  0  0  0
 44 46  1  0  0  0  0
 44 41  1  0  0  0  0
 45 44  1  0  0  0  0
M  END
$$$$
