CSD_code = DANBOM | q = 0 | S = 0 | Stoichiometry = C19H24ClN3Ni | MND = 4
 OpenBabel04212202023D

 48 52  0  0  0  0  0  0  0  0999 V2000
    4.2746    5.7291    6.0937 Ni  0  0  2  0  0  0  0  0  0  0  0  0
    6.2235    6.0992    5.4528 Cl  0  0  0  0  0  0  0  0  0  0  0  0
    4.3583    3.7672    5.6414 N   0  0  0  0  0  4  0  0  0  0  0  0
    2.5330    5.4012    6.5641 N   0  0  0  0  0  0  0  0  0  0  0  0
    3.9176    7.6191    6.8017 N   0  0  0  0  0  4  0  0  0  0  0  0
    5.2389    3.0930    6.6089 C   0  0  0  0  0  0  0  0  0  0  0  0
    4.8597    3.2519    7.6198 H   0  0  0  0  0  0  0  0  0  0  0  0
    6.2466    3.5026    6.5348 H   0  0  0  0  0  0  0  0  0  0  0  0
    5.2769    2.0164    6.4126 H   0  0  0  0  0  0  0  0  0  0  0  0
    4.8473    3.5194    4.2744 C   0  0  0  0  0  0  0  0  0  0  0  0
    4.9042    2.4473    4.0664 H   0  0  0  0  0  0  0  0  0  0  0  0
    5.8394    3.9526    4.1535 H   0  0  0  0  0  0  0  0  0  0  0  0
    4.1669    3.9849    3.5606 H   0  0  0  0  0  0  0  0  0  0  0  0
    2.9920    3.2508    5.7626 C   0  0  0  0  0  0  0  0  0  0  0  0
    2.6436    1.9586    5.4265 C   0  0  0  0  0  0  0  0  0  0  0  0
    3.3915    1.2426    5.1190 H   0  0  0  0  0  0  0  0  0  0  0  0
    1.3135    1.5711    5.4693 C   0  0  0  0  0  0  0  0  0  0  0  0
    1.0377    0.5595    5.2156 H   0  0  0  0  0  0  0  0  0  0  0  0
    0.3432    2.5051    5.7942 C   0  0  0  0  0  0  0  0  0  0  0  0
   -0.6999    2.2259    5.7624 H   0  0  0  0  0  0  0  0  0  0  0  0
    0.6823    3.7928    6.1543 C   0  0  0  0  0  0  0  0  0  0  0  0
   -0.0961    4.5130    6.3434 H   0  0  0  0  0  0  0  0  0  0  0  0
    2.0311    4.1783    6.2092 C   0  0  0  0  0  0  0  0  0  0  0  0
    1.9019    6.3721    7.2867 C   0  0  0  0  0  0  0  0  0  0  0  0
    0.7265    6.2221    8.0388 C   0  0  0  0  0  0  0  0  0  0  0  0
    0.3112    5.2415    8.2020 H   0  0  0  0  0  0  0  0  0  0  0  0
    0.1160    7.3245    8.5974 C   0  0  0  0  0  0  0  0  0  0  0  0
   -0.7978    7.1974    9.1592 H   0  0  0  0  0  0  0  0  0  0  0  0
    0.6584    8.5878    8.4358 C   0  0  0  0  0  0  0  0  0  0  0  0
    0.1564    9.4550    8.8365 H   0  0  0  0  0  0  0  0  0  0  0  0
    1.8879    8.7346    7.8098 C   0  0  0  0  0  0  0  0  0  0  0  0
    2.3124    9.7214    7.7553 H   0  0  0  0  0  0  0  0  0  0  0  0
    2.5411    7.6349    7.2886 C   0  0  0  0  0  0  0  0  0  0  0  0
    4.8493    7.6201    7.9610 C   0  0  0  0  0  0  0  0  0  0  0  0
    5.8359    7.3040    7.6062 H   0  0  0  0  0  0  0  0  0  0  0  0
    4.4795    6.8895    8.6898 H   0  0  0  0  0  0  0  0  0  0  0  0
    5.0142    8.9876    8.6183 C   0  0  0  0  0  0  0  0  0  0  0  0
    5.7206    8.8854    9.4441 H   0  0  0  0  0  0  0  0  0  0  0  0
    4.0677    9.3362    9.0325 H   0  0  0  0  0  0  0  0  0  0  0  0
    5.5483    9.9741    7.5859 C   0  0  0  0  0  0  0  0  0  0  0  0
    5.6968   10.9577    8.0353 H   0  0  0  0  0  0  0  0  0  0  0  0
    6.5146    9.6194    7.2207 H   0  0  0  0  0  0  0  0  0  0  0  0
    4.5722   10.0732    6.4191 C   0  0  0  0  0  0  0  0  0  0  0  0
    5.0118   10.6692    5.6165 H   0  0  0  0  0  0  0  0  0  0  0  0
    3.6670   10.5906    6.7360 H   0  0  0  0  0  0  0  0  0  0  0  0
    4.2576    8.6897    5.8387 C   0  0  0  0  0  0  0  0  0  0  0  0
    3.4317    8.7625    5.1256 H   0  0  0  0  0  0  0  0  0  0  0  0
    5.1507    8.3578    5.3006 H   0  0  0  0  0  0  0  0  0  0  0  0
  1  2  1  6  0  0  0
  1  4  1  0  0  0  0
  1  5  1  0  0  0  0
  3 14  1  0  0  0  0
  3  1  1  0  0  0  0
  3  6  1  0  0  0  0
  4 24  1  0  0  0  0
  5 33  1  0  0  0  0
  5 34  1  0  0  0  0
  6  7  1  0  0  0  0
  8  6  1  0  0  0  0
  9  6  1  0  0  0  0
 10  3  1  0  0  0  0
 11 10  1  0  0  0  0
 12 10  1  0  0  0  0
 13 10  1  0  0  0  0
 14 23  1  0  0  0  0
 15 17  1  0  0  0  0
 15 14  2  0  0  0  0
 16 15  1  0  0  0  0
 17 19  2  0  0  0  0
 18 17  1  0  0  0  0
 19 21  1  0  0  0  0
 20 19  1  0  0  0  0
 21 23  2  0  0  0  0
 21 22  1  0  0  0  0
 23  4  1  0  0  0  0
 24 33  2  0  0  0  0
 24 25  1  0  0  0  0
 25 26  1  0  0  0  0
 25 27  2  0  0  0  0
 27 28  1  0  0  0  0
 29 27  1  0  0  0  0
 29 30  1  0  0  0  0
 31 29  2  0  0  0  0
 32 31  1  0  0  0  0
 33 31  1  0  0  0  0
 34 37  1  0  0  0  0
 34 36  1  0  0  0  0
 35 34  1  0  0  0  0
 37 39  1  0  0  0  0
 37 38  1  0  0  0  0
 40 41  1  0  0  0  0
 40 37  1  0  0  0  0
 42 40  1  0  0  0  0
 43 45  1  0  0  0  0
 43 40  1  0  0  0  0
 44 43  1  0  0  0  0
 46 43  1  0  0  0  0
 46  5  1  0  0  0  0
 47 46  1  0  0  0  0
 48 46  1  0  0  0  0
M  END
$$$$
