CSD_code = DANDAA | q = 0 | S = 0 | Stoichiometry = C12H20Cl3Ta | MND = 5
 OpenBabel04212202023D

 36 36  0  0  0  0  0  0  0  0999 V2000
    0.9590    5.0940    5.4600 Ta  0  0  0  0  0  0  0  0  0  0  0  0
    1.8772    6.0286    7.3259 Cl  0  0  0  0  0  0  0  0  0  0  0  0
    2.9718    4.4579    4.6073 Cl  0  0  0  0  0  0  0  0  0  0  0  0
   -0.2214    4.2425    3.7058 Cl  0  0  0  0  0  0  0  0  0  0  0  0
   -0.6432    4.2867    6.7883 C   0  0  0  0  0  0  0  0  0  0  0  0
   -1.5766    5.2382    6.8606 C   0  0  0  0  0  0  0  0  0  0  0  0
   -1.4665    6.5180    6.1672 C   0  0  0  0  0  0  0  0  0  0  0  0
   -0.4233    6.8456    5.4018 C   0  0  0  0  0  0  0  0  0  0  0  0
   -0.6449    2.9445    7.4558 C   0  0  0  0  0  0  0  0  0  0  0  0
   -0.5601    1.8652    6.3643 C   0  0  0  0  0  0  0  0  0  0  0  0
    0.6003    2.8550    8.3532 C   0  0  0  0  0  0  0  0  0  0  0  0
   -1.8977    2.7038    8.3068 C   0  0  0  0  0  0  0  0  0  0  0  0
   -0.2025    8.1206    4.6451 C   0  0  0  0  0  0  0  0  0  0  0  0
   -0.1047    7.7790    3.1493 C   0  0  0  0  0  0  0  0  0  0  0  0
    1.1288    8.7316    5.1121 C   0  0  0  0  0  0  0  0  0  0  0  0
   -1.3267    9.1417    4.8576 C   0  0  0  0  0  0  0  0  0  0  0  0
    0.3515    1.9794    5.7756 H   0  0  0  0  0  0  0  0  0  0  0  0
   -1.4135    1.9396    5.6936 H   0  0  0  0  0  0  0  0  0  0  0  0
   -0.5570    0.8757    6.8158 H   0  0  0  0  0  0  0  0  0  0  0  0
    0.5812    3.6425    9.1036 H   0  0  0  0  0  0  0  0  0  0  0  0
    1.5121    2.9632    7.7636 H   0  0  0  0  0  0  0  0  0  0  0  0
    0.6292    1.8925    8.8588 H   0  0  0  0  0  0  0  0  0  0  0  0
   -2.7922    2.7484    7.6909 H   0  0  0  0  0  0  0  0  0  0  0  0
   -1.9720    3.4475    9.0959 H   0  0  0  0  0  0  0  0  0  0  0  0
   -1.8467    1.7197    8.7666 H   0  0  0  0  0  0  0  0  0  0  0  0
    0.0601    8.6837    2.5686 H   0  0  0  0  0  0  0  0  0  0  0  0
   -1.0250    7.3089    2.8091 H   0  0  0  0  0  0  0  0  0  0  0  0
    0.7219    7.0919    2.9620 H   0  0  0  0  0  0  0  0  0  0  0  0
    1.0956    8.9353    6.1804 H   0  0  0  0  0  0  0  0  0  0  0  0
    1.3179    9.6641    4.5853 H   0  0  0  0  0  0  0  0  0  0  0  0
    1.9586    8.0502    4.9167 H   0  0  0  0  0  0  0  0  0  0  0  0
   -2.2764    8.7425    4.5111 H   0  0  0  0  0  0  0  0  0  0  0  0
   -1.1114   10.0482    4.2970 H   0  0  0  0  0  0  0  0  0  0  0  0
   -1.4127    9.4009    5.9097 H   0  0  0  0  0  0  0  0  0  0  0  0
   -2.4783    5.1063    7.4493 H   0  0  0  0  0  0  0  0  0  0  0  0
   -2.2986    7.1983    6.3153 H   0  0  0  0  0  0  0  0  0  0  0  0
  1  5  1  0  0  0  0
  1  2  1  0  0  0  0
  3  1  1  0  0  0  0
  4  1  1  0  0  0  0
  5  6  2  0  0  0  0
  5  9  1  0  0  0  0
  6 35  1  0  0  0  0
  7 36  1  0  0  0  0
  7  6  1  0  0  0  0
  8  1  1  0  0  0  0
  8  7  2  0  0  0  0
  9 12  1  0  0  0  0
  9 11  1  0  0  0  0
 10 19  1  0  0  0  0
 10  9  1  0  0  0  0
 11 22  1  0  0  0  0
 11 20  1  0  0  0  0
 12 25  1  0  0  0  0
 12 24  1  0  0  0  0
 13 16  1  0  0  0  0
 13 15  1  0  0  0  0
 13  8  1  0  0  0  0
 14 13  1  0  0  0  0
 15 29  1  0  0  0  0
 16 34  1  0  0  0  0
 17 10  1  0  0  0  0
 18 10  1  0  0  0  0
 21 11  1  0  0  0  0
 23 12  1  0  0  0  0
 26 14  1  0  0  0  0
 27 14  1  0  0  0  0
 28 14  1  0  0  0  0
 30 15  1  0  0  0  0
 31 15  1  0  0  0  0
 32 16  1  0  0  0  0
 33 16  1  0  0  0  0
M  END
$$$$
