CSD_code = DANMOW | q = 0 | S = 0 | Stoichiometry = C15H33ClN2O3RuS3 | MND = 6
 OpenBabel04212202023D

 58 59  0  0  1  0  0  0  0  0999 V2000
    5.5019    4.9077    2.2775 Ru  0  0  0  0  0  0  0  0  0  0  0  0
    5.4418    4.6739   -0.1102 Cl  0  0  0  0  0  0  0  0  0  0  0  0
    5.3046    2.6489    2.3168 S   0  0  0  0  0  0  0  0  0  0  0  0
    7.7829    4.7611    2.2095 S   0  0  0  0  0  0  0  0  0  0  0  0
    3.2700    5.1316    2.2626 S   0  0  0  0  0  0  0  0  0  0  0  0
    6.6128    1.9950    2.1983 O   0  0  0  0  0  1  0  0  0  0  0  0
    2.5471    3.9558    2.7411 O   0  0  0  0  0  1  0  0  0  0  0  0
    8.4046    6.0843    2.2707 O   0  0  0  0  0  1  0  0  0  0  0  0
    5.9250    7.3546    3.7029 N   0  0  0  0  0  0  0  0  0  0  0  0
    5.7733    8.0124    1.6677 N   0  0  0  0  0  0  0  0  0  0  0  0
    5.7389    6.9174    2.4464 C   0  0  1  0  0  3  0  0  0  0  0  0
    6.0929    8.7179    3.7283 C   0  0  0  0  0  0  0  0  0  0  0  0
    5.9945    9.1382    2.4364 C   0  0  0  0  0  0  0  0  0  0  0  0
    6.0576    6.4288    4.8034 C   0  0  0  0  0  0  0  0  0  0  0  0
    5.5149    6.8294    5.6682 H   0  0  0  0  0  0  0  0  0  0  0  0
    7.1216    6.3741    5.0617 H   0  0  0  0  0  0  0  0  0  0  0  0
    5.5370    5.0578    4.3650 C   0  0  0  0  0  0  0  0  0  0  0  0
    6.1706    4.2856    4.8093 H   0  0  0  0  0  0  0  0  0  0  0  0
    4.5327    4.9028    4.7752 H   0  0  0  0  0  0  0  0  0  0  0  0
    6.3368    9.4663    4.9889 C   0  0  0  0  0  0  0  0  0  0  0  0
    6.4591   10.5253    4.7825 H   0  0  0  0  0  0  0  0  0  0  0  0
    7.2408    9.1004    5.4742 H   0  0  0  0  0  0  0  0  0  0  0  0
    5.5049    9.3402    5.6822 H   0  0  0  0  0  0  0  0  0  0  0  0
    6.0609   10.5094    1.8655 C   0  0  0  0  0  0  0  0  0  0  0  0
    6.0978   11.2420    2.6666 H   0  0  0  0  0  0  0  0  0  0  0  0
    5.1862   10.7161    1.2493 H   0  0  0  0  0  0  0  0  0  0  0  0
    6.9483   10.6323    1.2467 H   0  0  0  0  0  0  0  0  0  0  0  0
    5.7823    7.9802    0.2239 C   0  0  0  0  0  0  0  0  0  0  0  0
    5.2169    8.8323   -0.1630 H   0  0  0  0  0  0  0  0  0  0  0  0
    5.3032    7.0491   -0.0874 H   0  0  0  0  0  0  0  0  0  0  0  0
    7.2149    7.9847   -0.3032 C   0  0  0  0  0  0  0  0  0  0  0  0
    7.6893    8.9545   -0.1760 H   0  0  0  0  0  0  0  0  0  0  0  0
    7.2163    7.7257   -1.3574 H   0  0  0  0  0  0  0  0  0  0  0  0
    7.7895    7.2423    0.2459 H   0  0  0  0  0  0  0  0  0  0  0  0
    4.2412    1.8560    1.0711 C   0  0  0  0  0  0  0  0  0  0  0  0
    4.5445    2.2288    0.0974 H   0  0  0  0  0  0  0  0  0  0  0  0
    3.2181    2.1391    1.2891 H   0  0  0  0  0  0  0  0  0  0  0  0
    4.3891    0.7843    1.1307 H   0  0  0  0  0  0  0  0  0  0  0  0
    4.5248    1.8607    3.7646 C   0  0  0  0  0  0  0  0  0  0  0  0
    4.5210    0.7884    3.6106 H   0  0  0  0  0  0  0  0  0  0  0  0
    3.5220    2.2597    3.8512 H   0  0  0  0  0  0  0  0  0  0  0  0
    5.1152    2.1109    4.6383 H   0  0  0  0  0  0  0  0  0  0  0  0
    8.6805    3.7703    3.4524 C   0  0  0  0  0  0  0  0  0  0  0  0
    9.7364    3.8248    3.2168 H   0  0  0  0  0  0  0  0  0  0  0  0
    8.3070    2.7558    3.3950 H   0  0  0  0  0  0  0  0  0  0  0  0
    8.4949    4.2053    4.4274 H   0  0  0  0  0  0  0  0  0  0  0  0
    8.4817    3.9501    0.7423 C   0  0  0  0  0  0  0  0  0  0  0  0
    8.0407    4.4167   -0.1331 H   0  0  0  0  0  0  0  0  0  0  0  0
    8.2049    2.9037    0.7929 H   0  0  0  0  0  0  0  0  0  0  0  0
    9.5553    4.0950    0.7566 H   0  0  0  0  0  0  0  0  0  0  0  0
    2.4759    5.5834    0.6853 C   0  0  0  0  0  0  0  0  0  0  0  0
    2.8833    4.9373   -0.0859 H   0  0  0  0  0  0  0  0  0  0  0  0
    2.7222    6.6141    0.4623 H   0  0  0  0  0  0  0  0  0  0  0  0
    1.4085    5.4341    0.7957 H   0  0  0  0  0  0  0  0  0  0  0  0
    2.5821    6.5408    3.2134 C   0  0  0  0  0  0  0  0  0  0  0  0
    1.5047    6.5394    3.0986 H   0  0  0  0  0  0  0  0  0  0  0  0
    3.0234    7.4537    2.8316 H   0  0  0  0  0  0  0  0  0  0  0  0
    2.8454    6.4013    4.2549 H   0  0  0  0  0  0  0  0  0  0  0  0
  1  3  1  0  0  0  0
  1 11  1  0  0  0  0
  1 17  1  0  0  0  0
  2  1  1  0  0  0  0
  3 39  1  0  0  0  0
  4  8  1  0  0  0  0
  4  1  1  0  0  0  0
  4 43  1  0  0  0  0
  5  1  1  0  0  0  0
  5  7  1  0  0  0  0
  5 55  1  0  0  0  0
  6  3  1  0  0  0  0
  9 12  1  0  0  0  0
  9 14  1  0  0  0  0
 10 13  1  0  0  0  0
 11 10  1  6  0  0  0
 11  9  1  0  0  0  0
 12 20  1  0  0  0  0
 13 12  2  0  0  0  0
 14 16  1  0  0  0  0
 14 15  1  0  0  0  0
 17 19  1  0  0  0  0
 17 14  1  0  0  0  0
 17 18  1  0  0  0  0
 20 22  1  0  0  0  0
 20 23  1  0  0  0  0
 21 20  1  0  0  0  0
 24 13  1  0  0  0  0
 24 25  1  0  0  0  0
 26 24  1  0  0  0  0
 27 24  1  0  0  0  0
 28 10  1  0  0  0  0
 29 28  1  0  0  0  0
 30 28  1  0  0  0  0
 31 32  1  0  0  0  0
 31 28  1  0  0  0  0
 31 34  1  0  0  0  0
 33 31  1  0  0  0  0
 35 38  1  0  0  0  0
 35 37  1  0  0  0  0
 35  3  1  0  0  0  0
 36 35  1  0  0  0  0
 39 41  1  0  0  0  0
 39 42  1  0  0  0  0
 40 39  1  0  0  0  0
 43 46  1  0  0  0  0
 44 43  1  0  0  0  0
 45 43  1  0  0  0  0
 47 50  1  0  0  0  0
 47 49  1  0  0  0  0
 47  4  1  0  0  0  0
 48 47  1  0  0  0  0
 51 54  1  0  0  0  0
 51  5  1  0  0  0  0
 52 51  1  0  0  0  0
 53 51  1  0  0  0  0
 55 58  1  0  0  0  0
 56 55  1  0  0  0  0
 57 55  1  0  0  0  0
M  END
$$$$
