CSD_code = DANMUC | q = 0 | S = 0 | Stoichiometry = C12H15ClN2O3Ru | MND = 6
 OpenBabel04212202023D

 34 35  0  0  1  0  0  0  0  0999 V2000
    8.4857   -0.2175    9.4111 Ru  0  0  0  0  0  0  0  0  0  0  0  0
    6.2781    0.1641   10.2868 Cl  0  0  0  0  0  0  0  0  0  0  0  0
    9.2990    1.4435   11.7813 O   0  0  0  0  0  1  0  0  0  0  0  0
    7.9480   -2.6207   11.1789 O   0  0  0  0  0  1  0  0  0  0  0  0
   11.1571   -0.5900    8.0988 O   0  0  0  0  0  1  0  0  0  0  0  0
    7.4629    0.1790    6.7114 N   0  0  0  0  0  0  0  0  0  0  0  0
    6.6557   -1.7314    7.2471 N   0  0  0  0  0  0  0  0  0  0  0  0
    9.0800    0.7555   10.9020 C   0  0  0  0  0  2  0  0  0  0  0  0
    8.2164   -1.8090   10.4250 C   0  0  0  0  0  2  0  0  0  0  0  0
   10.1410   -0.4696    8.6177 C   0  0  0  0  0  2  0  0  0  0  0  0
    7.4792   -0.7566    7.6749 C   0  0  2  0  0  3  0  0  0  0  0  0
    6.6553   -0.1985    5.6680 C   0  0  0  0  0  0  0  0  0  0  0  0
    6.1411   -1.4159    6.0069 C   0  0  0  0  0  0  0  0  0  0  0  0
    8.2131    1.4032    6.8705 C   0  0  0  0  0  0  0  0  0  0  0  0
    7.6726    2.2154    6.3712 H   0  0  0  0  0  0  0  0  0  0  0  0
    9.1906    1.2883    6.3820 H   0  0  0  0  0  0  0  0  0  0  0  0
    8.3793    1.6611    8.3722 C   0  0  0  0  0  0  0  0  0  0  0  0
    7.4784    2.1891    8.7173 H   0  0  0  0  0  0  0  0  0  0  0  0
    9.2104    2.3645    8.5004 H   0  0  0  0  0  0  0  0  0  0  0  0
    6.4583    0.6476    4.4631 C   0  0  0  0  0  0  0  0  0  0  0  0
    5.8472    0.1265    3.7321 H   0  0  0  0  0  0  0  0  0  0  0  0
    7.4170    0.8927    4.0070 H   0  0  0  0  0  0  0  0  0  0  0  0
    5.9586    1.5799    4.7267 H   0  0  0  0  0  0  0  0  0  0  0  0
    5.1977   -2.2984    5.2722 C   0  0  0  0  0  0  0  0  0  0  0  0
    4.9842   -1.8752    4.2950 H   0  0  0  0  0  0  0  0  0  0  0  0
    4.2563   -2.3957    5.8136 H   0  0  0  0  0  0  0  0  0  0  0  0
    5.6194   -3.2932    5.1326 H   0  0  0  0  0  0  0  0  0  0  0  0
    6.3711   -2.9415    7.9816 C   0  0  0  0  0  0  0  0  0  0  0  0
    5.4240   -3.3513    7.6275 H   0  0  0  0  0  0  0  0  0  0  0  0
    6.2542   -2.6758    9.0358 H   0  0  0  0  0  0  0  0  0  0  0  0
    7.4913   -3.9637    7.8103 C   0  0  0  0  0  0  0  0  0  0  0  0
    7.5881   -4.2587    6.7677 H   0  0  0  0  0  0  0  0  0  0  0  0
    7.2801   -4.8477    8.4047 H   0  0  0  0  0  0  0  0  0  0  0  0
    8.4385   -3.5377    8.1395 H   0  0  0  0  0  0  0  0  0  0  0  0
  1  2  1  0  0  0  0
  1  9  1  0  0  0  0
  1  8  1  0  0  0  0
  5 10  1  0  0  0  0
  6 14  1  0  0  0  0
  7 11  1  0  0  0  0
  7 28  1  0  0  0  0
  8  3  1  0  0  0  0
  9  4  1  0  0  0  0
 10  1  1  0  0  0  0
 11  6  1  1  0  0  0
 11  1  1  0  0  0  0
 12 13  2  0  0  0  0
 12  6  1  0  0  0  0
 13  7  1  0  0  0  0
 14 17  1  0  0  0  0
 15 14  1  0  0  0  0
 16 14  1  0  0  0  0
 17 19  1  0  0  0  0
 17 18  1  0  0  0  0
 17  1  1  0  0  0  0
 20 23  1  0  0  0  0
 20 12  1  0  0  0  0
 21 20  1  0  0  0  0
 22 20  1  0  0  0  0
 24 26  1  0  0  0  0
 24 13  1  0  0  0  0
 25 24  1  0  0  0  0
 27 24  1  0  0  0  0
 28 30  1  0  0  0  0
 29 28  1  0  0  0  0
 31 28  1  0  0  0  0
 31 34  1  0  0  0  0
 31 33  1  0  0  0  0
 32 31  1  0  0  0  0
M  END
$$$$
