CSD_code = DANQER | q = 0 | S = 0 | Stoichiometry = C20H24ClN3Ni | MND = 4
 OpenBabel04212202023D

 49 54  0  0  0  0  0  0  0  0999 V2000
    1.7010    4.4854    5.2720 Ni  0  0  0  0  0  0  0  0  0  0  0  0
    0.7812    4.4435    7.1218 Cl  0  0  0  0  0  0  0  0  0  0  0  0
    0.2364    3.5034    4.2920 N   0  0  0  0  0  4  0  0  0  0  0  0
    2.5224    4.5231    3.6335 N   0  0  0  0  0  0  0  0  0  0  0  0
    3.3439    5.4803    5.8938 N   0  0  0  0  0  4  0  0  0  0  0  0
   -0.6014    2.4880    4.9658 C   0  0  0  0  0  0  0  0  0  0  0  0
   -0.5674    2.6724    6.0411 H   0  0  0  0  0  0  0  0  0  0  0  0
   -0.1899    1.4968    4.7754 H   0  0  0  0  0  0  0  0  0  0  0  0
   -2.0473    2.6598    4.4557 C   0  0  0  0  0  0  0  0  0  0  0  0
   -2.7166    2.8353    5.2966 H   0  0  0  0  0  0  0  0  0  0  0  0
   -2.4030    1.7752    3.9290 H   0  0  0  0  0  0  0  0  0  0  0  0
   -1.9999    3.8873    3.5400 C   0  0  0  0  0  0  0  0  0  0  0  0
   -1.9237    3.5959    2.4920 H   0  0  0  0  0  0  0  0  0  0  0  0
   -2.8725    4.5267    3.6553 H   0  0  0  0  0  0  0  0  0  0  0  0
   -0.7215    4.5973    3.9811 C   0  0  0  0  0  0  0  0  0  0  0  0
   -0.9118    5.1653    4.8988 H   0  0  0  0  0  0  0  0  0  0  0  0
   -0.3094    5.2601    3.2167 H   0  0  0  0  0  0  0  0  0  0  0  0
    0.8376    3.0105    3.0521 C   0  0  0  0  0  0  0  0  0  0  0  0
    0.2836    2.0413    2.2448 C   0  0  0  0  0  0  0  0  0  0  0  0
   -0.6488    1.5634    2.4982 H   0  0  0  0  0  0  0  0  0  0  0  0
    0.9467    1.6395    1.0913 C   0  0  0  0  0  0  0  0  0  0  0  0
    0.5112    0.8777    0.4634 H   0  0  0  0  0  0  0  0  0  0  0  0
    2.1730    2.1940    0.7745 C   0  0  0  0  0  0  0  0  0  0  0  0
    2.7080    1.8525   -0.0997 H   0  0  0  0  0  0  0  0  0  0  0  0
    2.7419    3.1657    1.5749 C   0  0  0  0  0  0  0  0  0  0  0  0
    3.7284    3.5347    1.3469 H   0  0  0  0  0  0  0  0  0  0  0  0
    2.0701    3.6142    2.7182 C   0  0  0  0  0  0  0  0  0  0  0  0
    3.5068    5.4592    3.4801 C   0  0  0  0  0  0  0  0  0  0  0  0
    4.0104    5.9616    2.2745 C   0  0  0  0  0  0  0  0  0  0  0  0
    3.6112    5.6166    1.3349 H   0  0  0  0  0  0  0  0  0  0  0  0
    4.9706    6.9548    2.2860 C   0  0  0  0  0  0  0  0  0  0  0  0
    5.3430    7.3380    1.3470 H   0  0  0  0  0  0  0  0  0  0  0  0
    5.4389    7.4784    3.4770 C   0  0  0  0  0  0  0  0  0  0  0  0
    6.1852    8.2577    3.4765 H   0  0  0  0  0  0  0  0  0  0  0  0
    4.9218    7.0215    4.6833 C   0  0  0  0  0  0  0  0  0  0  0  0
    5.2665    7.4739    5.5989 H   0  0  0  0  0  0  0  0  0  0  0  0
    3.9649    6.0302    4.6879 C   0  0  0  0  0  0  0  0  0  0  0  0
    4.1919    4.3860    6.4362 C   0  0  0  0  0  0  0  0  0  0  0  0
    3.5847    3.7805    7.1183 H   0  0  0  0  0  0  0  0  0  0  0  0
    4.5710    3.7592    5.6260 H   0  0  0  0  0  0  0  0  0  0  0  0
    5.2953    5.0942    7.2200 C   0  0  0  0  0  0  0  0  0  0  0  0
    6.0809    5.4282    6.5416 H   0  0  0  0  0  0  0  0  0  0  0  0
    5.7416    4.4381    7.9643 H   0  0  0  0  0  0  0  0  0  0  0  0
    4.5620    6.2827    7.8500 C   0  0  0  0  0  0  0  0  0  0  0  0
    5.1759    7.1823    7.8535 H   0  0  0  0  0  0  0  0  0  0  0  0
    4.2934    6.0624    8.8824 H   0  0  0  0  0  0  0  0  0  0  0  0
    3.2831    6.4555    7.0036 C   0  0  0  0  0  0  0  0  0  0  0  0
    3.1659    7.4594    6.5958 H   0  0  0  0  0  0  0  0  0  0  0  0
    2.4063    6.2285    7.6126 H   0  0  0  0  0  0  0  0  0  0  0  0
  1  5  1  0  0  0  0
  1  2  1  0  0  0  0
  3  6  1  0  0  0  0
  3  1  1  0  0  0  0
  4  1  1  0  0  0  0
  5 38  1  0  0  0  0
  5 47  1  0  0  0  0
  6  7  1  0  0  0  0
  8  6  1  0  0  0  0
  9  6  1  0  0  0  0
  9 10  1  0  0  0  0
 11  9  1  0  0  0  0
 12 14  1  0  0  0  0
 12 15  1  0  0  0  0
 12  9  1  0  0  0  0
 13 12  1  0  0  0  0
 15  3  1  0  0  0  0
 15 16  1  0  0  0  0
 17 15  1  0  0  0  0
 18  3  1  0  0  0  0
 19 20  1  0  0  0  0
 19 18  2  0  0  0  0
 21 19  1  0  0  0  0
 22 21  1  0  0  0  0
 23 21  2  0  0  0  0
 23 25  1  0  0  0  0
 24 23  1  0  0  0  0
 25 27  2  0  0  0  0
 26 25  1  0  0  0  0
 27 18  1  0  0  0  0
 27  4  1  0  0  0  0
 28  4  1  0  0  0  0
 28 37  1  0  0  0  0
 29 31  1  0  0  0  0
 29 28  2  0  0  0  0
 30 29  1  0  0  0  0
 31 33  2  0  0  0  0
 32 31  1  0  0  0  0
 33 35  1  0  0  0  0
 34 33  1  0  0  0  0
 35 37  2  0  0  0  0
 35 36  1  0  0  0  0
 37  5  1  0  0  0  0
 38 39  1  0  0  0  0
 38 41  1  0  0  0  0
 40 38  1  0  0  0  0
 41 44  1  0  0  0  0
 41 43  1  0  0  0  0
 42 41  1  0  0  0  0
 44 45  1  0  0  0  0
 44 46  1  0  0  0  0
 47 49  1  0  0  0  0
 47 44  1  0  0  0  0
 48 47  1  0  0  0  0
M  END
$$$$
