CSD_code = DANWEU | q = 0 | S = 0 | Stoichiometry = C12H26Cl2MoNO6P | MND = 6
 OpenBabel04212202023D

 49 49  0  0  1  0  0  0  0  0999 V2000
    2.8415    0.8348    2.0254 Mo  0  0  0  0  0  0  0  0  0  0  0  0
    4.0063    2.6855    2.6488 Cl  0  0  0  0  0  0  0  0  0  0  0  0
    1.8050   -0.4328    0.3609 Cl  0  0  0  0  0  0  0  0  0  0  0  0
    3.7566    1.1966   -1.1959 P   0  0  0  0  0  4  0  0  0  0  0  0
    1.5736    0.9585    3.0536 O   0  0  0  0  0  1  0  0  0  0  0  0
    3.8811   -0.3151    2.5498 O   0  0  0  0  0  1  0  0  0  0  0  0
    4.1631    1.2303    0.2262 O   0  0  0  0  0  0  0  0  0  0  0  0
    4.6582    2.2152   -2.0471 O   0  0  0  0  0  0  0  0  0  0  0  0
    3.9738   -0.2417   -1.7782 O   0  0  0  0  0  0  0  0  0  0  0  0
    1.8780    2.5139    0.7087 O   0  0  0  0  0  0  0  0  0  0  0  0
    2.1248    4.2646   -0.6655 N   0  0  0  0  0  0  0  0  0  0  0  0
    2.1171    1.9653   -1.5727 C   0  0  0  0  0  0  0  0  0  0  0  0
    2.0159    2.9576   -0.4403 C   0  0  1  0  0  3  0  0  0  0  0  0
    2.2651    4.8633   -1.9803 C   0  0  0  0  0  0  0  0  0  0  0  0
    0.9178    5.0083   -2.6854 C   0  0  0  0  0  0  0  0  0  0  0  0
    2.0807    5.1867    0.4659 C   0  0  0  0  0  0  0  0  0  0  0  0
    3.4756    5.6534    0.8641 C   0  0  0  0  0  0  0  0  0  0  0  0
    5.9789    2.5450   -1.5599 C   0  0  0  0  0  0  0  0  0  0  0  0
    6.9069    1.3513   -1.7129 C   0  0  0  0  0  0  0  0  0  0  0  0
    6.4447    3.7567   -2.3516 C   0  0  0  0  0  0  0  0  0  0  0  0
    3.7971   -0.6517   -3.1424 C   0  0  0  0  0  0  0  0  0  0  0  0
    4.6743   -1.8831   -3.3216 C   0  0  0  0  0  0  0  0  0  0  0  0
    2.3290   -0.9616   -3.4005 C   0  0  0  0  0  0  0  0  0  0  0  0
    1.3216    1.2274   -1.4615 H   0  0  0  0  0  0  0  0  0  0  0  0
    2.1270    2.3949   -2.5683 H   0  0  0  0  0  0  0  0  0  0  0  0
    2.7019    5.8533   -1.8371 H   0  0  0  0  0  0  0  0  0  0  0  0
    2.9640    4.2818   -2.5854 H   0  0  0  0  0  0  0  0  0  0  0  0
    1.0570    5.4794   -3.6547 H   0  0  0  0  0  0  0  0  0  0  0  0
    0.2479    5.6282   -2.0950 H   0  0  0  0  0  0  0  0  0  0  0  0
    0.4425    4.0420   -2.8314 H   0  0  0  0  0  0  0  0  0  0  0  0
    1.4490    6.0327    0.1821 H   0  0  0  0  0  0  0  0  0  0  0  0
    1.6241    4.6632    1.3076 H   0  0  0  0  0  0  0  0  0  0  0  0
    3.3926    6.3843    1.6627 H   0  0  0  0  0  0  0  0  0  0  0  0
    3.9973    6.1138    0.0271 H   0  0  0  0  0  0  0  0  0  0  0  0
    4.0534    4.8110    1.2386 H   0  0  0  0  0  0  0  0  0  0  0  0
    5.8881    2.7959   -0.4961 H   0  0  0  0  0  0  0  0  0  0  0  0
    7.8995    1.6072   -1.3525 H   0  0  0  0  0  0  0  0  0  0  0  0
    6.9713    1.0541   -2.7580 H   0  0  0  0  0  0  0  0  0  0  0  0
    6.5220    0.5196   -1.1254 H   0  0  0  0  0  0  0  0  0  0  0  0
    7.4262    4.0634   -2.0033 H   0  0  0  0  0  0  0  0  0  0  0  0
    5.7517    4.5833   -2.2204 H   0  0  0  0  0  0  0  0  0  0  0  0
    6.5029    3.5114   -3.4094 H   0  0  0  0  0  0  0  0  0  0  0  0
    4.1444    0.1592   -3.7966 H   0  0  0  0  0  0  0  0  0  0  0  0
    4.6260   -2.2314   -4.3495 H   0  0  0  0  0  0  0  0  0  0  0  0
    4.3278   -2.6692   -2.6571 H   0  0  0  0  0  0  0  0  0  0  0  0
    5.7062   -1.6502   -3.0735 H   0  0  0  0  0  0  0  0  0  0  0  0
    2.2295   -1.5652   -4.2985 H   0  0  0  0  0  0  0  0  0  0  0  0
    1.7507   -0.0510   -3.5284 H   0  0  0  0  0  0  0  0  0  0  0  0
    1.9309   -1.5103   -2.5507 H   0  0  0  0  0  0  0  0  0  0  0  0
  1  6  1  0  0  0  0
  1  2  1  0  0  0  0
  1  5  1  0  0  0  0
  3  1  1  0  0  0  0
  4  7  1  0  0  0  0
  7  1  1  0  0  0  0
  8 18  1  0  0  0  0
  8  4  1  0  0  0  0
  9  4  1  0  0  0  0
 10  1  1  0  0  0  0
 11 16  1  0  0  0  0
 12 24  1  0  0  0  0
 12  4  1  0  0  0  0
 12 13  1  0  0  0  0
 13 11  1  1  0  0  0
 13 10  1  0  0  0  0
 14 26  1  0  0  0  0
 14 11  1  0  0  0  0
 15 29  1  0  0  0  0
 15 14  1  0  0  0  0
 16 17  1  0  0  0  0
 16 32  1  0  0  0  0
 17 35  1  0  0  0  0
 17 33  1  0  0  0  0
 18 36  1  0  0  0  0
 19 18  1  0  0  0  0
 19 37  1  0  0  0  0
 19 39  1  0  0  0  0
 20 41  1  0  0  0  0
 20 40  1  0  0  0  0
 20 18  1  0  0  0  0
 21  9  1  0  0  0  0
 22 21  1  0  0  0  0
 22 46  1  0  0  0  0
 22 45  1  0  0  0  0
 23 21  1  0  0  0  0
 23 49  1  0  0  0  0
 25 12  1  0  0  0  0
 27 14  1  0  0  0  0
 28 15  1  0  0  0  0
 30 15  1  0  0  0  0
 31 16  1  0  0  0  0
 34 17  1  0  0  0  0
 38 19  1  0  0  0  0
 42 20  1  0  0  0  0
 43 21  1  0  0  0  0
 44 22  1  0  0  0  0
 47 23  1  0  0  0  0
 48 23  1  0  0  0  0
M  END
$$$$
