CSD_code = DAPGUY | q = 0 | S = 0 | Stoichiometry = C19H27AuClN5S2 | MND = 4
 OpenBabel04212202023D

 55 58  0  0  1  0  0  0  0  0999 V2000
  -11.4512    3.8935    4.4048 Au  0  0  1  0  0  0  0  0  0  0  0  0
  -13.6994    4.0469    4.4965 Cl  0  0  0  0  0  0  0  0  0  0  0  0
  -11.3521    4.9238    6.5010 S   0  0  0  0  0  0  0  0  0  0  0  0
  -11.5046    2.7276    2.4041 S   0  0  0  0  0  0  0  0  0  0  0  0
   -8.7670    5.3579    5.7964 N   0  0  0  0  0  0  0  0  0  0  0  0
   -9.4488    3.7195    4.2351 N   0  0  0  0  0  0  0  0  0  0  0  0
   -8.9727    2.8712    3.2985 N   0  0  0  0  0  0  0  0  0  0  0  0
   -9.2844    1.5415    1.4878 N   0  0  0  0  0  0  0  0  0  0  0  0
   -9.7423    6.9401    7.0731 N   0  0  0  0  0  0  0  0  0  0  0  0
   -9.8394    5.7848    6.4064 C   0  0  0  0  0  0  0  0  0  0  0  0
   -8.5545    4.3539    4.9719 C   0  0  1  0  0  3  0  0  0  0  0  0
   -9.7680    2.3810    2.4155 C   0  0  0  0  0  0  0  0  0  0  0  0
   -7.1186    4.0226    4.8101 C   0  0  0  0  0  0  0  0  0  0  0  0
   -6.6773    2.7051    4.8576 C   0  0  0  0  0  0  0  0  0  0  0  0
   -7.3875    1.9079    5.0128 H   0  0  0  0  0  0  0  0  0  0  0  0
   -5.3307    2.4229    4.7205 C   0  0  0  0  0  0  0  0  0  0  0  0
   -4.9915    1.3983    4.7607 H   0  0  0  0  0  0  0  0  0  0  0  0
   -4.4180    3.4481    4.5332 C   0  0  0  0  0  0  0  0  0  0  0  0
   -3.3682    3.2230    4.4181 H   0  0  0  0  0  0  0  0  0  0  0  0
   -4.8539    4.7622    4.4997 C   0  0  0  0  0  0  0  0  0  0  0  0
   -4.1445    5.5646    4.3606 H   0  0  0  0  0  0  0  0  0  0  0  0
   -6.1984    5.0515    4.6447 C   0  0  0  0  0  0  0  0  0  0  0  0
   -6.5481    6.0716    4.6189 H   0  0  0  0  0  0  0  0  0  0  0  0
  -10.0755    1.1049    0.3639 C   0  0  0  0  0  0  0  0  0  0  0  0
  -11.1031    0.9531    0.7036 H   0  0  0  0  0  0  0  0  0  0  0  0
   -9.6725    0.1440    0.0314 H   0  0  0  0  0  0  0  0  0  0  0  0
  -10.0682    2.1059   -0.7938 C   0  0  0  0  0  0  0  0  0  0  0  0
  -10.5950    1.6524   -1.6352 H   0  0  0  0  0  0  0  0  0  0  0  0
  -10.6255    2.9942   -0.4914 H   0  0  0  0  0  0  0  0  0  0  0  0
   -8.6622    2.5211   -1.2295 C   0  0  0  0  0  0  0  0  0  0  0  0
   -8.7589    3.0999   -2.1505 H   0  0  0  0  0  0  0  0  0  0  0  0
   -8.0642    1.6378   -1.4621 H   0  0  0  0  0  0  0  0  0  0  0  0
   -7.9448    3.3806   -0.1822 C   0  0  0  0  0  0  0  0  0  0  0  0
   -8.6887    3.9780    0.3488 H   0  0  0  0  0  0  0  0  0  0  0  0
   -7.2722    4.0796   -0.6837 H   0  0  0  0  0  0  0  0  0  0  0  0
   -7.1178    2.5902    0.8348 C   0  0  0  0  0  0  0  0  0  0  0  0
   -6.8533    3.2578    1.6560 H   0  0  0  0  0  0  0  0  0  0  0  0
   -6.1916    2.2461    0.3711 H   0  0  0  0  0  0  0  0  0  0  0  0
   -7.8516    1.3648    1.4008 C   0  0  0  0  0  0  0  0  0  0  0  0
   -7.6774    0.4938    0.7671 H   0  0  0  0  0  0  0  0  0  0  0  0
   -7.4709    1.1519    2.4021 H   0  0  0  0  0  0  0  0  0  0  0  0
   -8.4674    7.6366    7.0837 C   0  0  0  0  0  0  0  0  0  0  0  0
   -8.6515    8.6596    7.4161 H   0  0  0  0  0  0  0  0  0  0  0  0
   -8.0844    7.6620    6.0606 H   0  0  0  0  0  0  0  0  0  0  0  0
   -7.4342    6.9686    7.9867 C   0  0  0  0  0  0  0  0  0  0  0  0
   -7.2458    5.9564    7.6418 H   0  0  0  0  0  0  0  0  0  0  0  0
   -7.7821    6.9323    9.0151 H   0  0  0  0  0  0  0  0  0  0  0  0
   -6.5042    7.5297    7.9524 H   0  0  0  0  0  0  0  0  0  0  0  0
  -10.8319    7.4634    7.8676 C   0  0  0  0  0  0  0  0  0  0  0  0
  -11.7715    7.2123    7.3689 H   0  0  0  0  0  0  0  0  0  0  0  0
  -10.7341    8.5513    7.8988 H   0  0  0  0  0  0  0  0  0  0  0  0
  -10.8556    6.8957    9.2840 C   0  0  0  0  0  0  0  0  0  0  0  0
   -9.9627    7.1802    9.8347 H   0  0  0  0  0  0  0  0  0  0  0  0
  -10.9190    5.8118    9.2447 H   0  0  0  0  0  0  0  0  0  0  0  0
  -11.7259    7.2743    9.8124 H   0  0  0  0  0  0  0  0  0  0  0  0
  1  2  1  6  0  0  0
  1  3  1  0  0  0  0
  4 12  1  0  0  0  0
  4  1  1  0  0  0  0
  5 10  2  0  0  0  0
  6  1  1  0  0  0  0
  6 11  1  0  0  0  0
  7  6  1  0  0  0  0
  8 12  1  0  0  0  0
  9 42  1  0  0  0  0
  9 49  1  0  0  0  0
 10  3  1  0  0  0  0
 10  9  1  0  0  0  0
 11 13  1  6  0  0  0
 11  5  1  0  0  0  0
 12  7  2  0  0  0  0
 13 14  1  0  0  0  0
 14 15  1  0  0  0  0
 16 17  1  0  0  0  0
 16 14  2  0  0  0  0
 18 16  1  0  0  0  0
 19 18  1  0  0  0  0
 20 18  2  0  0  0  0
 20 22  1  0  0  0  0
 21 20  1  0  0  0  0
 22 13  2  0  0  0  0
 23 22  1  0  0  0  0
 24 25  1  0  0  0  0
 24  8  1  0  0  0  0
 26 24  1  0  0  0  0
 27 29  1  0  0  0  0
 27 24  1  0  0  0  0
 28 27  1  0  0  0  0
 30 27  1  0  0  0  0
 30 33  1  0  0  0  0
 31 30  1  0  0  0  0
 32 30  1  0  0  0  0
 33 34  1  0  0  0  0
 33 36  1  0  0  0  0
 35 33  1  0  0  0  0
 36 39  1  0  0  0  0
 36 37  1  0  0  0  0
 38 36  1  0  0  0  0
 39  8  1  0  0  0  0
 39 41  1  0  0  0  0
 40 39  1  0  0  0  0
 42 43  1  0  0  0  0
 42 45  1  0  0  0  0
 44 42  1  0  0  0  0
 45 47  1  0  0  0  0
 46 45  1  0  0  0  0
 48 45  1  0  0  0  0
 49 51  1  0  0  0  0
 49 52  1  0  0  0  0
 50 49  1  0  0  0  0
 52 55  1  0  0  0  0
 52 53  1  0  0  0  0
 54 52  1  0  0  0  0
M  END
$$$$
