CSD_code = DAPGOS | q = 0 | S = 0 | Stoichiometry = C19H27AuClN5S | MND = 2
 OpenBabel04212202023D

 54 56  0  0  1  0  0  0  0  0999 V2000
    5.5986   22.5308    6.6659 Au  0  0  0  0  0  0  0  0  0  0  0  0
    3.4041   22.4914    5.8718 S   0  0  0  0  0  0  0  0  0  0  0  0
    7.6506   22.4976    7.6058 Cl  0  0  0  0  0  0  0  0  0  0  0  0
    4.9667   19.4027    8.6274 N   0  0  0  0  0  0  0  0  0  0  0  0
    3.7801   18.9289    6.7935 N   0  0  0  0  0  2  0  0  0  0  0  0
    3.4613   20.1904    7.2298 N   0  0  0  0  0  0  0  0  0  0  0  0
    1.5672   20.6210    5.9462 N   0  0  0  0  0  0  0  0  0  0  0  0
    4.1544   21.5603    9.1211 N   0  0  0  0  0  0  0  0  0  0  0  0
    4.2128   20.4407    8.3733 C   0  0  1  0  0  3  0  0  0  0  0  0
    4.6943   18.5131    7.6363 C   0  0  0  0  0  0  0  0  0  0  0  0
    2.7520   21.0256    6.3917 C   0  0  2  0  0  3  0  0  0  0  0  0
    5.3474   17.2227    7.5514 C   0  0  0  0  0  0  0  0  0  0  0  0
    4.9544   16.2853    6.5984 C   0  0  0  0  0  0  0  0  0  0  0  0
    4.1503   16.5306    5.9219 H   0  0  0  0  0  0  0  0  0  0  0  0
    5.5949   15.0634    6.5304 C   0  0  0  0  0  0  0  0  0  0  0  0
    5.2912   14.3366    5.7908 H   0  0  0  0  0  0  0  0  0  0  0  0
    6.6276   14.7684    7.4071 C   0  0  0  0  0  0  0  0  0  0  0  0
    7.1270   13.8123    7.3493 H   0  0  0  0  0  0  0  0  0  0  0  0
    7.0212   15.6997    8.3551 C   0  0  0  0  0  0  0  0  0  0  0  0
    7.8284   15.4696    9.0346 H   0  0  0  0  0  0  0  0  0  0  0  0
    6.3858   16.9241    8.4308 C   0  0  0  0  0  0  0  0  0  0  0  0
    6.6808   17.6664    9.1557 H   0  0  0  0  0  0  0  0  0  0  0  0
    0.9211   19.4309    6.4612 C   0  0  0  0  0  0  0  0  0  0  0  0
   -0.1432   19.6465    6.5777 H   0  0  0  0  0  0  0  0  0  0  0  0
    1.3352   19.2167    7.4486 H   0  0  0  0  0  0  0  0  0  0  0  0
    1.1257   18.2105    5.5590 C   0  0  0  0  0  0  0  0  0  0  0  0
    2.1694   18.1962    5.2443 H   0  0  0  0  0  0  0  0  0  0  0  0
    0.9497   17.3154    6.1572 H   0  0  0  0  0  0  0  0  0  0  0  0
    0.1995   18.1893    4.3489 C   0  0  0  0  0  0  0  0  0  0  0  0
   -0.8370   18.0987    4.6842 H   0  0  0  0  0  0  0  0  0  0  0  0
    0.4296   17.3019    3.7567 H   0  0  0  0  0  0  0  0  0  0  0  0
    0.3297   19.4245    3.4613 C   0  0  0  0  0  0  0  0  0  0  0  0
    1.3710   19.5555    3.1628 H   0  0  0  0  0  0  0  0  0  0  0  0
   -0.2539   19.2545    2.5548 H   0  0  0  0  0  0  0  0  0  0  0  0
   -0.1753   20.7010    4.1373 C   0  0  0  0  0  0  0  0  0  0  0  0
   -1.0484   20.4725    4.7505 H   0  0  0  0  0  0  0  0  0  0  0  0
   -0.5014   21.4093    3.3732 H   0  0  0  0  0  0  0  0  0  0  0  0
    0.8914   21.4281    4.9463 C   0  0  0  0  0  0  0  0  0  0  0  0
    1.6598   21.8036    4.2631 H   0  0  0  0  0  0  0  0  0  0  0  0
    0.4516   22.3026    5.4417 H   0  0  0  0  0  0  0  0  0  0  0  0
    2.9149   22.2941    9.3063 C   0  0  0  0  0  0  0  0  0  0  0  0
    2.5324   22.0895   10.3153 H   0  0  0  0  0  0  0  0  0  0  0  0
    2.1746   21.9248    8.5909 H   0  0  0  0  0  0  0  0  0  0  0  0
    3.0779   23.7999    9.1316 C   0  0  0  0  0  0  0  0  0  0  0  0
    3.8039   24.1974    9.8342 H   0  0  0  0  0  0  0  0  0  0  0  0
    2.1226   24.2877    9.3083 H   0  0  0  0  0  0  0  0  0  0  0  0
    3.4116   24.0386    8.1256 H   0  0  0  0  0  0  0  0  0  0  0  0
    5.1354   21.6341   10.1983 C   0  0  0  0  0  0  0  0  0  0  0  0
    5.1883   22.6750   10.5180 H   0  0  0  0  0  0  0  0  0  0  0  0
    6.0998   21.3586    9.7685 H   0  0  0  0  0  0  0  0  0  0  0  0
    4.8149   20.7255   11.3797 C   0  0  0  0  0  0  0  0  0  0  0  0
    3.8600   20.9846   11.8338 H   0  0  0  0  0  0  0  0  0  0  0  0
    5.5918   20.8291   12.1312 H   0  0  0  0  0  0  0  0  0  0  0  0
    4.7842   19.6912   11.0489 H   0  0  0  0  0  0  0  0  0  0  0  0
  1  3  1  0  0  0  0
  2  1  1  0  0  0  0
  5  6  1  0  0  0  0
  5 10  1  0  0  0  0
  6  9  1  0  0  0  0
  7 11  1  0  0  0  0
  7 23  1  0  0  0  0
  8 41  1  0  0  0  0
  8 48  1  0  0  0  0
  9  4  1  0  0  0  0
  9  8  1  1  0  0  0
 10  4  2  0  0  0  0
 11  2  1  6  0  0  0
 11  6  1  0  0  0  0
 12 10  1  0  0  0  0
 12 21  1  0  0  0  0
 13 12  2  0  0  0  0
 14 13  1  0  0  0  0
 15 13  1  0  0  0  0
 15 17  2  0  0  0  0
 16 15  1  0  0  0  0
 17 19  1  0  0  0  0
 18 17  1  0  0  0  0
 19 21  2  0  0  0  0
 19 20  1  0  0  0  0
 21 22  1  0  0  0  0
 23 24  1  0  0  0  0
 23 25  1  0  0  0  0
 26 28  1  0  0  0  0
 26 23  1  0  0  0  0
 27 26  1  0  0  0  0
 29 30  1  0  0  0  0
 29 26  1  0  0  0  0
 31 29  1  0  0  0  0
 32 35  1  0  0  0  0
 32 29  1  0  0  0  0
 33 32  1  0  0  0  0
 34 32  1  0  0  0  0
 35 36  1  0  0  0  0
 35 38  1  0  0  0  0
 37 35  1  0  0  0  0
 38 40  1  0  0  0  0
 38  7  1  0  0  0  0
 39 38  1  0  0  0  0
 41 42  1  0  0  0  0
 43 41  1  0  0  0  0
 44 41  1  0  0  0  0
 44 46  1  0  0  0  0
 44 45  1  0  0  0  0
 47 44  1  0  0  0  0
 48 49  1  0  0  0  0
 48 51  1  0  0  0  0
 50 48  1  0  0  0  0
 51 52  1  0  0  0  0
 51 53  1  0  0  0  0
 54 51  1  0  0  0  0
M  END
$$$$
