CSD_code = DAPQIU | q = 0 | S = 0 | Stoichiometry = C16H30Cl4N2O2Ti | MND = 6
 OpenBabel04212202023D

 55 54  0  0  0  0  0  0  0  0999 V2000
   -0.0002    0.0000   -0.0001 Ti  0  0  0  0  0  0  0  0  0  0  0  0
   -0.9350   -1.9455    0.8738 Cl  0  0  0  0  0  0  0  0  0  0  0  0
    1.5623   -0.0454    1.7062 Cl  0  0  0  0  0  0  0  0  0  0  0  0
    1.0475   -1.0099   -1.0189 O   0  0  0  0  0  0  0  0  0  0  0  0
   -0.0104   -3.3072   -2.0333 N   0  0  0  0  0  4  0  0  0  0  0  0
    2.1452   -1.4003   -1.5428 C   0  0  0  0  0  0  0  0  0  0  0  0
    2.2365   -2.5643   -2.3014 C   0  0  0  0  0  0  0  0  0  0  0  0
    1.1877   -3.4635   -2.5453 C   0  0  0  0  0  0  0  0  0  0  0  0
    1.4516   -4.6429   -3.4295 C   0  0  0  0  0  0  0  0  0  0  0  0
    3.3460   -0.5376   -1.3035 C   0  0  0  0  0  0  0  0  0  0  0  0
   -1.1586   -4.1846   -2.1346 C   0  0  0  0  0  0  0  0  0  0  0  0
   -1.1959   -5.0882   -0.9007 C   0  0  0  0  0  0  0  0  0  0  0  0
   -2.4080   -3.3146   -2.2003 C   0  0  0  0  0  0  0  0  0  0  0  0
   -0.1685   -2.5253   -1.3910 H   0  0  0  0  0  0  0  0  0  0  0  0
    3.1955   -2.7923   -2.7363 H   0  0  0  0  0  0  0  0  0  0  0  0
    0.8226   -4.5911   -4.3173 H   0  0  0  0  0  0  0  0  0  0  0  0
    2.4900   -4.6637   -3.7438 H   0  0  0  0  0  0  0  0  0  0  0  0
    1.2242   -5.5701   -2.9076 H   0  0  0  0  0  0  0  0  0  0  0  0
    4.2416   -0.9336   -1.7706 H   0  0  0  0  0  0  0  0  0  0  0  0
    3.1380    0.4694   -1.6748 H   0  0  0  0  0  0  0  0  0  0  0  0
    3.4876   -0.4459   -0.2222 H   0  0  0  0  0  0  0  0  0  0  0  0
   -1.0742   -4.7880   -3.0442 H   0  0  0  0  0  0  0  0  0  0  0  0
   -0.3072   -5.7130   -0.8439 H   0  0  0  0  0  0  0  0  0  0  0  0
   -1.2467   -4.4678   -0.0088 H   0  0  0  0  0  0  0  0  0  0  0  0
   -2.0715   -5.7296   -0.9362 H   0  0  0  0  0  0  0  0  0  0  0  0
   -2.4955   -2.7331   -1.2851 H   0  0  0  0  0  0  0  0  0  0  0  0
   -2.3549   -2.6231   -3.0373 H   0  0  0  0  0  0  0  0  0  0  0  0
   -3.2927   -3.9351   -2.3102 H   0  0  0  0  0  0  0  0  0  0  0  0
    0.9356    1.9452   -0.8739 Cl  0  0  0  0  0  0  0  0  0  0  0  0
   -1.5627    0.0451   -1.7066 Cl  0  0  0  0  0  0  0  0  0  0  0  0
   -1.0476    1.0100    1.0189 O   0  0  0  0  0  0  0  0  0  0  0  0
   -2.1453    1.4003    1.5429 C   0  0  0  0  0  0  0  0  0  0  0  0
   -2.2366    2.5644    2.3014 C   0  0  0  0  0  0  0  0  0  0  0  0
   -1.1877    3.4636    2.5454 C   0  0  0  0  0  0  0  0  0  0  0  0
    0.0104    3.3071    2.0333 N   0  0  0  0  0  4  0  0  0  0  0  0
    1.1586    4.1846    2.1345 C   0  0  0  0  0  0  0  0  0  0  0  0
    1.1959    5.0882    0.9007 C   0  0  0  0  0  0  0  0  0  0  0  0
    0.3072    5.7130    0.8439 H   0  0  0  0  0  0  0  0  0  0  0  0
    1.2466    4.4678    0.0087 H   0  0  0  0  0  0  0  0  0  0  0  0
    2.0716    5.7295    0.9361 H   0  0  0  0  0  0  0  0  0  0  0  0
    2.4080    3.3146    2.2003 C   0  0  0  0  0  0  0  0  0  0  0  0
    2.4955    2.7330    1.2850 H   0  0  0  0  0  0  0  0  0  0  0  0
    2.3549    2.6231    3.0372 H   0  0  0  0  0  0  0  0  0  0  0  0
    3.2927    3.9351    2.3101 H   0  0  0  0  0  0  0  0  0  0  0  0
    1.0743    4.7880    3.0442 H   0  0  0  0  0  0  0  0  0  0  0  0
    0.1685    2.5253    1.3909 H   0  0  0  0  0  0  0  0  0  0  0  0
   -1.4515    4.6429    3.4295 C   0  0  0  0  0  0  0  0  0  0  0  0
   -0.8225    4.5912    4.3173 H   0  0  0  0  0  0  0  0  0  0  0  0
   -2.4899    4.6638    3.7439 H   0  0  0  0  0  0  0  0  0  0  0  0
   -1.2241    5.5702    2.9077 H   0  0  0  0  0  0  0  0  0  0  0  0
   -3.1954    2.7924    2.7364 H   0  0  0  0  0  0  0  0  0  0  0  0
   -3.3461    0.5377    1.3037 C   0  0  0  0  0  0  0  0  0  0  0  0
   -4.2417    0.9337    1.7707 H   0  0  0  0  0  0  0  0  0  0  0  0
   -3.1381   -0.4694    1.6750 H   0  0  0  0  0  0  0  0  0  0  0  0
   -3.4877    0.4459    0.2223 H   0  0  0  0  0  0  0  0  0  0  0  0
  1  2  1  0  0  0  0
  1 31  1  0  0  0  0
  1  3  1  0  0  0  0
  4  1  1  0  0  0  0
  5 14  1  0  0  0  0
  6 10  1  0  0  0  0
  6  4  1  0  0  0  0
  7  6  2  0  0  0  0
  8  7  1  0  0  0  0
  8  5  2  0  0  0  0
  9 18  1  0  0  0  0
  9  8  1  0  0  0  0
 10 21  1  0  0  0  0
 11  5  1  0  0  0  0
 11 12  1  0  0  0  0
 12 23  1  0  0  0  0
 12 24  1  0  0  0  0
 13 11  1  0  0  0  0
 13 26  1  0  0  0  0
 15  7  1  0  0  0  0
 16  9  1  0  0  0  0
 17  9  1  0  0  0  0
 19 10  1  0  0  0  0
 20 10  1  0  0  0  0
 22 11  1  0  0  0  0
 25 12  1  0  0  0  0
 27 13  1  0  0  0  0
 28 13  1  0  0  0  0
 29  1  1  0  0  0  0
 30  1  1  0  0  0  0
 31 32  1  0  0  0  0
 32 33  2  0  0  0  0
 33 34  1  0  0  0  0
 33 51  1  0  0  0  0
 34 47  1  0  0  0  0
 35 36  1  0  0  0  0
 35 34  2  0  0  0  0
 36 41  1  0  0  0  0
 36 45  1  0  0  0  0
 37 40  1  0  0  0  0
 37 36  1  0  0  0  0
 38 37  1  0  0  0  0
 39 37  1  0  0  0  0
 41 44  1  0  0  0  0
 41 43  1  0  0  0  0
 42 41  1  0  0  0  0
 46 35  1  0  0  0  0
 47 49  1  0  0  0  0
 47 48  1  0  0  0  0
 50 47  1  0  0  0  0
 52 32  1  0  0  0  0
 52 54  1  0  0  0  0
 52 53  1  0  0  0  0
 55 52  1  0  0  0  0
M  END
$$$$
