CSD_code = DAPVAU | q = 0 | S = 0 | Stoichiometry = C24H36Cl2N4O2Pd | MND = 4
 OpenBabel04212202023D

 69 70  0  0  0  0  0  0  0  0999 V2000
    4.0014    9.1420    5.9497 Pd  0  0  0  0  0  0  0  0  0  0  0  0
    4.1836    6.9746    6.7135 Cl  0  0  0  0  0  0  0  0  0  0  0  0
    3.2520    8.0808    3.5774 O   0  0  0  0  0  0  0  0  0  0  0  0
    5.5954    8.9188    4.8777 N   0  0  0  0  0  0  0  0  0  0  0  0
    2.5019    5.8985    1.6479 C   0  0  0  0  0  0  0  0  0  0  0  0
    2.2777    6.9598    1.7023 H   0  0  0  0  0  0  0  0  0  0  0  0
    1.5908    5.3600    1.4003 H   0  0  0  0  0  0  0  0  0  0  0  0
    3.2310    5.7323    0.8576 H   0  0  0  0  0  0  0  0  0  0  0  0
    6.6637    9.6740    5.1284 C   0  0  0  0  0  3  0  0  0  0  0  0
    6.6256   10.2670    6.0386 H   0  0  0  0  0  0  0  0  0  0  0  0
    4.2747    7.4011    3.5648 C   0  0  0  0  0  0  0  0  0  0  0  0
    4.3033    6.0869    3.3027 N   0  0  0  0  0  0  0  0  0  0  0  0
    7.7504    9.7164    4.2747 C   0  0  0  0  0  0  0  0  0  0  0  0
    8.5944   10.3457    4.5070 H   0  0  0  0  0  0  0  0  0  0  0  0
    6.6172    8.1556    2.8707 C   0  0  0  0  0  0  0  0  0  0  0  0
    6.5506    7.5585    1.9748 H   0  0  0  0  0  0  0  0  0  0  0  0
    3.0400    5.4079    2.9916 C   0  0  0  0  0  0  0  0  0  0  0  0
    3.2796    4.3465    2.9025 H   0  0  0  0  0  0  0  0  0  0  0  0
    5.5783    8.1356    3.7937 C   0  0  0  0  0  0  0  0  0  0  0  0
    5.4798    5.2590    3.5447 C   0  0  0  0  0  0  0  0  0  0  0  0
    6.2871    5.9341    3.8399 H   0  0  0  0  0  0  0  0  0  0  0  0
    5.9041    4.5220    2.2730 C   0  0  0  0  0  0  0  0  0  0  0  0
    5.1769    3.7651    1.9911 H   0  0  0  0  0  0  0  0  0  0  0  0
    6.8576    4.0284    2.4417 H   0  0  0  0  0  0  0  0  0  0  0  0
    6.0157    5.2159    1.4429 H   0  0  0  0  0  0  0  0  0  0  0  0
    7.7190    8.9594    3.1117 C   0  0  0  0  0  0  0  0  0  0  0  0
    8.5352    8.9952    2.4065 H   0  0  0  0  0  0  0  0  0  0  0  0
    5.2562    4.2990    4.7135 C   0  0  0  0  0  0  0  0  0  0  0  0
    4.9232    4.8619    5.5833 H   0  0  0  0  0  0  0  0  0  0  0  0
    6.1935    3.8049    4.9555 H   0  0  0  0  0  0  0  0  0  0  0  0
    4.5186    3.5367    4.4791 H   0  0  0  0  0  0  0  0  0  0  0  0
    2.0049    5.5802    4.1034 C   0  0  0  0  0  0  0  0  0  0  0  0
    1.5427    6.5601    4.0289 H   0  0  0  0  0  0  0  0  0  0  0  0
    2.4812    5.4921    5.0770 H   0  0  0  0  0  0  0  0  0  0  0  0
    1.2342    4.8187    4.0098 H   0  0  0  0  0  0  0  0  0  0  0  0
    3.8195   11.3096    5.1858 Cl  0  0  0  0  0  0  0  0  0  0  0  0
    4.7509   10.2038    8.3219 O   0  0  0  0  0  0  0  0  0  0  0  0
    2.4074    9.3658    7.0215 N   0  0  0  0  0  0  0  0  0  0  0  0
    5.5010   12.3861   10.2515 C   0  0  0  0  0  0  0  0  0  0  0  0
    5.7252   11.3247   10.1970 H   0  0  0  0  0  0  0  0  0  0  0  0
    6.4121   12.9245   10.4991 H   0  0  0  0  0  0  0  0  0  0  0  0
    4.7719   12.5522   11.0418 H   0  0  0  0  0  0  0  0  0  0  0  0
    1.3392    8.6107    6.7709 C   0  0  0  0  0  3  0  0  0  0  0  0
    1.3772    8.0176    5.8607 H   0  0  0  0  0  0  0  0  0  0  0  0
    3.7282   10.8835    8.3346 C   0  0  0  0  0  0  0  0  0  0  0  0
    3.6996   12.1977    8.5967 N   0  0  0  0  0  0  0  0  0  0  0  0
    0.2525    8.5682    7.6246 C   0  0  0  0  0  0  0  0  0  0  0  0
   -0.5915    7.9389    7.3923 H   0  0  0  0  0  0  0  0  0  0  0  0
    1.3857   10.1290    9.0286 C   0  0  0  0  0  0  0  0  0  0  0  0
    1.4523   10.7261    9.9245 H   0  0  0  0  0  0  0  0  0  0  0  0
    4.9629   12.8767    8.9078 C   0  0  0  0  0  0  0  0  0  0  0  0
    4.7233   13.9381    8.9969 H   0  0  0  0  0  0  0  0  0  0  0  0
    2.4245   10.1490    8.1056 C   0  0  0  0  0  0  0  0  0  0  0  0
    2.5231   13.0256    8.3546 C   0  0  0  0  0  0  0  0  0  0  0  0
    1.7158   12.3505    8.0594 H   0  0  0  0  0  0  0  0  0  0  0  0
    2.0988   13.7626    9.6263 C   0  0  0  0  0  0  0  0  0  0  0  0
    2.8260   14.5194    9.9083 H   0  0  0  0  0  0  0  0  0  0  0  0
    1.1454   14.2561    9.4577 H   0  0  0  0  0  0  0  0  0  0  0  0
    1.9872   13.0687   10.4565 H   0  0  0  0  0  0  0  0  0  0  0  0
    0.2839    9.3252    8.7876 C   0  0  0  0  0  0  0  0  0  0  0  0
   -0.5323    9.2894    9.4928 H   0  0  0  0  0  0  0  0  0  0  0  0
    2.7467   13.9857    7.1859 C   0  0  0  0  0  0  0  0  0  0  0  0
    3.0797   13.4228    6.3161 H   0  0  0  0  0  0  0  0  0  0  0  0
    1.8095   14.4798    6.9439 H   0  0  0  0  0  0  0  0  0  0  0  0
    3.4843   14.7479    7.4203 H   0  0  0  0  0  0  0  0  0  0  0  0
    5.9980   12.7043    7.7960 C   0  0  0  0  0  0  0  0  0  0  0  0
    6.4602   11.7244    7.8705 H   0  0  0  0  0  0  0  0  0  0  0  0
    5.5217   12.7925    6.8224 H   0  0  0  0  0  0  0  0  0  0  0  0
    6.7688   13.4658    7.8895 H   0  0  0  0  0  0  0  0  0  0  0  0
  1  2  1  0  0  0  0
  1 38  1  0  0  0  0
  4  9  1  0  0  0  0
  4  1  1  0  0  0  0
  5  6  1  0  0  0  0
  5 17  1  0  0  0  0
  7  5  1  0  0  0  0
  8  5  1  0  0  0  0
  9 10  1  0  0  0  0
 11  3  2  0  0  0  0
 11 19  1  0  0  0  0
 12 20  1  0  0  0  0
 12 11  1  0  0  0  0
 13 14  1  0  0  0  0
 13  9  1  0  0  0  0
 15 26  1  0  0  0  0
 15 19  2  0  0  0  0
 16 15  1  0  0  0  0
 17 12  1  0  0  0  0
 17 32  1  0  0  0  0
 18 17  1  0  0  0  0
 19  4  1  0  0  0  0
 20 21  1  0  0  0  0
 20 28  1  0  0  0  0
 22 24  1  0  0  0  0
 22 20  1  0  0  0  0
 23 22  1  0  0  0  0
 25 22  1  0  0  0  0
 26 13  2  0  0  0  0
 27 26  1  0  0  0  0
 28 30  1  0  0  0  0
 28 29  1  0  0  0  0
 31 28  1  0  0  0  0
 32 34  1  0  0  0  0
 33 32  1  0  0  0  0
 35 32  1  0  0  0  0
 36  1  1  0  0  0  0
 37 45  2  0  0  0  0
 38 53  1  0  0  0  0
 39 41  1  0  0  0  0
 39 42  1  0  0  0  0
 40 39  1  0  0  0  0
 43 38  1  0  0  0  0
 43 47  1  0  0  0  0
 44 43  1  0  0  0  0
 45 46  1  0  0  0  0
 46 51  1  0  0  0  0
 47 60  2  0  0  0  0
 48 47  1  0  0  0  0
 49 50  1  0  0  0  0
 51 52  1  0  0  0  0
 51 39  1  0  0  0  0
 53 45  1  0  0  0  0
 53 49  2  0  0  0  0
 54 46  1  0  0  0  0
 54 56  1  0  0  0  0
 55 54  1  0  0  0  0
 56 57  1  0  0  0  0
 56 59  1  0  0  0  0
 58 56  1  0  0  0  0
 60 49  1  0  0  0  0
 60 61  1  0  0  0  0
 62 65  1  0  0  0  0
 62 54  1  0  0  0  0
 63 62  1  0  0  0  0
 64 62  1  0  0  0  0
 66 67  1  0  0  0  0
 66 69  1  0  0  0  0
 66 51  1  0  0  0  0
 68 66  1  0  0  0  0
M  END
$$$$
