CSD_code = DAPZOL | q = 1 | S = 0 | Stoichiometry = C28H24BrN4Pd(1+) | MND = 5
 OpenBabel04212202023D

 58 64  0  0  1  0  0  0  0  0999 V2000
    8.4397   -0.3885   26.9697 C   0  0  0  0  0  0  0  0  0  0  0  0
    8.0092   -0.0909   26.0132 H   0  0  0  0  0  0  0  0  0  0  0  0
    7.9326    0.1487   27.7720 H   0  0  0  0  0  0  0  0  0  0  0  0
    8.2705   -1.4517   27.1265 H   0  0  0  0  0  0  0  0  0  0  0  0
    9.9030   -0.0945   26.9804 C   0  0  0  0  0  0  0  0  0  0  0  0
   10.7499   -0.6973   27.9288 C   0  0  0  0  0  0  0  0  0  0  0  0
   10.3197   -1.3500   28.6720 H   0  0  0  0  0  0  0  0  0  0  0  0
   12.0994   -0.4584   27.8976 C   0  0  0  0  0  0  0  0  0  0  0  0
   12.7614   -0.9091   28.6211 H   0  0  0  0  0  0  0  0  0  0  0  0
   12.6308    0.3621   26.8852 C   0  0  0  0  0  0  0  0  0  0  0  0
   11.7148    0.9439   25.9840 C   0  0  0  0  0  0  0  0  0  0  0  0
   14.0216    0.6075   26.7182 C   0  0  0  0  0  0  0  0  0  0  0  0
   14.7038    0.1868   27.4405 H   0  0  0  0  0  0  0  0  0  0  0  0
   10.6964    3.0994   21.8270 C   0  0  0  0  0  0  0  0  0  0  0  0
    9.7038    2.7368   22.1071 H   0  0  0  0  0  0  0  0  0  0  0  0
   10.9914    2.6782   20.8671 H   0  0  0  0  0  0  0  0  0  0  0  0
   10.6467    4.1825   21.7141 H   0  0  0  0  0  0  0  0  0  0  0  0
   11.7015    2.7356   22.8634 C   0  0  0  0  0  0  0  0  0  0  0  0
   13.0749    2.9170   22.6074 C   0  0  0  0  0  0  0  0  0  0  0  0
   13.3681    3.3813   21.6793 H   0  0  0  0  0  0  0  0  0  0  0  0
   14.0108    2.5277   23.5274 C   0  0  0  0  0  0  0  0  0  0  0  0
   15.0638    2.6922   23.3582 H   0  0  0  0  0  0  0  0  0  0  0  0
   13.5878    1.8636   24.6951 C   0  0  0  0  0  0  0  0  0  0  0  0
   12.1991    1.7187   24.8834 C   0  0  0  0  0  0  0  0  0  0  0  0
   14.4809    1.3244   25.6620 C   0  0  0  0  0  0  0  0  0  0  0  0
   15.5385    1.4847   25.5210 H   0  0  0  0  0  0  0  0  0  0  0  0
    9.3138    3.4548   27.7489 C   0  0  0  0  0  0  0  0  0  0  0  0
    9.2735    4.1857   28.5524 H   0  0  0  0  0  0  0  0  0  0  0  0
   10.0020    3.8308   26.9746 H   0  0  0  0  0  0  0  0  0  0  0  0
    9.7154    2.5225   28.1572 H   0  0  0  0  0  0  0  0  0  0  0  0
    7.9439    3.2282   27.1825 C   0  0  0  0  0  0  0  0  0  0  0  0
    6.8131    3.6775   27.8795 C   0  0  0  0  0  0  0  0  0  0  0  0
    6.9422    4.1777   28.8258 H   0  0  0  0  0  0  0  0  0  0  0  0
    5.5660    3.5080   27.3375 C   0  0  0  0  0  0  0  0  0  0  0  0
    4.6859    3.8762   27.8417 H   0  0  0  0  0  0  0  0  0  0  0  0
    5.4350    2.8554   26.1008 C   0  0  0  0  0  0  0  0  0  0  0  0
    6.6142    2.3979   25.4692 C   0  0  0  0  0  0  0  0  0  0  0  0
    4.1707    2.6616   25.4781 C   0  0  0  0  0  0  0  0  0  0  0  0
    3.2954    3.0388   25.9839 H   0  0  0  0  0  0  0  0  0  0  0  0
    8.8123   -0.0442   21.9924 C   0  0  0  0  0  0  0  0  0  0  0  0
    9.6336    0.2133   22.6664 H   0  0  0  0  0  0  0  0  0  0  0  0
    9.0166    0.3462   20.9972 H   0  0  0  0  0  0  0  0  0  0  0  0
    8.7391   -1.1278   21.9145 H   0  0  0  0  0  0  0  0  0  0  0  0
    7.5373    0.5204   22.5266 C   0  0  0  0  0  0  0  0  0  0  0  0
    6.3138    0.3217   21.8618 C   0  0  0  0  0  0  0  0  0  0  0  0
    6.2962   -0.2239   20.9316 H   0  0  0  0  0  0  0  0  0  0  0  0
    5.1643    0.8225   22.4126 C   0  0  0  0  0  0  0  0  0  0  0  0
    4.2084    0.6844   21.9299 H   0  0  0  0  0  0  0  0  0  0  0  0
    5.2249    1.5203   23.6340 C   0  0  2  0  0  3  0  0  0  0  0  0
    6.4979    1.6949   24.2191 C   0  0  0  0  0  0  0  0  0  0  0  0
    4.0686    2.0292   24.2849 C   0  0  0  0  0  0  0  0  0  0  0  0
    3.1097    1.8903   23.8097 H   0  0  0  0  0  0  0  0  0  0  0  0
   10.3813    0.7276   26.0640 N   0  0  0  0  0  0  0  0  0  0  0  0
   11.2903    2.2096   24.0067 N   0  0  0  0  0  0  0  0  0  0  0  0
    7.8316    2.6066   26.0165 N   0  0  0  0  0  0  0  0  0  0  0  0
    7.6150    1.1944   23.6557 N   0  0  0  0  0  0  0  0  0  0  0  0
    9.1009    4.6305   24.2358 Br  0  0  0  0  0  0  0  0  0  0  0  0
    9.5068    2.3457   24.9303 Pd  0  0  1  0  0  0  0  0  0  0  0  0
  1  5  1  0  0  0  0
  1  4  1  0  0  0  0
  1  3  1  0  0  0  0
  2  1  1  0  0  0  0
  5  6  2  0  0  0  0
  6  7  1  0  0  0  0
  8  6  1  0  0  0  0
  8  9  1  0  0  0  0
 10  8  2  0  0  0  0
 11 53  1  0  0  0  0
 11 10  1  0  0  0  0
 12 10  1  0  0  0  0
 12 13  1  0  0  0  0
 14 15  1  0  0  0  0
 14 18  1  0  0  0  0
 16 14  1  0  0  0  0
 17 14  1  0  0  0  0
 18 54  1  0  0  0  0
 19 18  2  0  0  0  0
 19 21  1  0  0  0  0
 20 19  1  0  0  0  0
 21 23  2  0  0  0  0
 22 21  1  0  0  0  0
 23 24  1  0  0  0  0
 23 25  1  0  0  0  0
 24 11  2  0  0  0  0
 25 12  2  0  0  0  0
 26 25  1  0  0  0  0
 27 30  1  0  0  0  0
 27 28  1  0  0  0  0
 29 27  1  0  0  0  0
 31 27  1  0  0  0  0
 31 32  2  0  0  0  0
 32 33  1  0  0  0  0
 34 35  1  0  0  0  0
 34 32  1  0  0  0  0
 36 34  2  0  0  0  0
 37 55  1  0  0  0  0
 37 36  1  0  0  0  0
 38 39  1  0  0  0  0
 38 36  1  0  0  0  0
 40 44  1  0  0  0  0
 40 41  1  0  0  0  0
 42 40  1  0  0  0  0
 43 40  1  0  0  0  0
 44 56  2  0  0  0  0
 45 47  2  0  0  0  0
 45 44  1  0  0  0  0
 46 45  1  0  0  0  0
 48 47  1  0  0  0  0
 49 47  1  1  0  0  0
 49 50  1  0  0  0  0
 49 51  1  0  0  0  0
 50 37  2  0  0  0  0
 51 38  2  0  0  0  0
 52 51  1  0  0  0  0
 53  5  1  0  0  0  0
 54 24  1  0  0  0  0
 54 58  1  0  0  0  0
 55 31  1  0  0  0  0
 56 50  1  0  0  0  0
 58 57  1  1  0  0  0
 58 55  1  0  0  0  0
 58 53  1  0  0  0  0
M  END
$$$$
