CSD_code = DAQLUC | q = 0 | S = 0 | Stoichiometry = C30H34Cl2Ti | MND = 12
 OpenBabel04212202023D

 67 70  0  0  1  0  0  0  0  0999 V2000
    4.6564    3.5983   -0.0008 Ti  0  0  0  0  0  0  0  0  0  0  0  0
    4.0058    1.9850   -1.4347 Cl  0  0  0  0  0  0  0  0  0  0  0  0
    6.5610    5.0084    0.1817 C   0  0  2  0  0  3  0  0  0  0  0  0
    7.0998    3.7021   -0.0256 C   0  0  0  0  0  0  0  0  0  0  0  0
    8.1811    3.0442    0.7754 C   0  0  0  0  0  0  0  0  0  0  0  0
    8.6270    3.7523    1.4716 H   0  0  0  0  0  0  0  0  0  0  0  0
    8.9553    2.6834    0.0972 H   0  0  0  0  0  0  0  0  0  0  0  0
    7.8104    2.1893    1.3420 H   0  0  0  0  0  0  0  0  0  0  0  0
    6.6623    3.2454   -1.2874 C   0  0  0  0  0  0  0  0  0  0  0  0
    7.1125    1.9687   -1.9264 C   0  0  0  0  0  0  0  0  0  0  0  0
    6.4946    1.7204   -2.7863 H   0  0  0  0  0  0  0  0  0  0  0  0
    7.0626    1.1466   -1.2110 H   0  0  0  0  0  0  0  0  0  0  0  0
    8.1484    2.0678   -2.2611 H   0  0  0  0  0  0  0  0  0  0  0  0
    5.9003    4.2818   -1.9008 C   0  0  1  0  0  0  0  0  0  0  0  0
    5.5057    4.2918   -3.3474 C   0  0  0  0  0  0  0  0  0  0  0  0
    4.9428    3.3956   -3.6089 H   0  0  0  0  0  0  0  0  0  0  0  0
    6.4079    4.3105   -3.9634 H   0  0  0  0  0  0  0  0  0  0  0  0
    4.9089    5.1680   -3.5882 H   0  0  0  0  0  0  0  0  0  0  0  0
    5.8537    5.3844   -1.0098 C   0  0  2  0  0  3  0  0  0  0  0  0
    5.4951    6.7761   -1.4457 C   0  0  0  0  0  0  0  0  0  0  0  0
    5.5068    7.4718   -0.6130 H   0  0  0  0  0  0  0  0  0  0  0  0
    4.5195    6.8209   -1.9273 H   0  0  0  0  0  0  0  0  0  0  0  0
    6.2369    7.1117   -2.1758 H   0  0  0  0  0  0  0  0  0  0  0  0
    6.9717    5.8359    1.3204 C   0  0  0  0  0  0  0  0  0  0  0  0
    6.9311    5.2867    2.6061 C   0  0  0  0  0  0  0  0  0  0  0  0
    6.5540    4.2798    2.7324 H   0  0  0  0  0  0  0  0  0  0  0  0
    7.3535    6.0177    3.7001 C   0  0  0  0  0  0  0  0  0  0  0  0
    7.3096    5.5806    4.6872 H   0  0  0  0  0  0  0  0  0  0  0  0
    7.8339    7.3070    3.5335 C   0  0  0  0  0  0  0  0  0  0  0  0
    8.1607    7.8800    4.3884 H   0  0  0  0  0  0  0  0  0  0  0  0
    7.9077    7.8502    2.2618 C   0  0  0  0  0  0  0  0  0  0  0  0
    8.3038    8.8458    2.1232 H   0  0  0  0  0  0  0  0  0  0  0  0
    7.4892    7.1223    1.1624 C   0  0  0  0  0  0  0  0  0  0  0  0
    7.5922    7.5428    0.1740 H   0  0  0  0  0  0  0  0  0  0  0  0
    5.3074    1.9885    1.4354 Cl  0  0  0  0  0  0  0  0  0  0  0  0
    2.7522    5.0086   -0.1816 C   0  0  2  0  0  3  0  0  0  0  0  0
    2.2134    3.7023    0.0258 C   0  0  0  0  0  0  0  0  0  0  0  0
    2.6516    3.2452    1.2872 C   0  0  0  0  0  0  0  0  0  0  0  0
    1.1323    3.0443   -0.7754 C   0  0  0  0  0  0  0  0  0  0  0  0
    0.6865    3.7523   -1.4716 H   0  0  0  0  0  0  0  0  0  0  0  0
    0.3581    2.6834   -0.0972 H   0  0  0  0  0  0  0  0  0  0  0  0
    1.5031    2.1895   -1.3419 H   0  0  0  0  0  0  0  0  0  0  0  0
    2.2011    1.9687    1.9264 C   0  0  0  0  0  0  0  0  0  0  0  0
    2.8192    1.7202    2.7861 H   0  0  0  0  0  0  0  0  0  0  0  0
    2.2507    1.1467    1.2109 H   0  0  0  0  0  0  0  0  0  0  0  0
    1.1653    2.0680    2.2613 H   0  0  0  0  0  0  0  0  0  0  0  0
    3.4138    4.2815    1.9006 C   0  0  2  0  0  0  0  0  0  0  0  0
    3.4598    5.3844    1.0098 C   0  0  2  0  0  3  0  0  0  0  0  0
    2.3416    5.8361   -1.3204 C   0  0  0  0  0  0  0  0  0  0  0  0
    2.3822    5.2867   -2.6061 C   0  0  0  0  0  0  0  0  0  0  0  0
    2.7596    4.2800   -2.7323 H   0  0  0  0  0  0  0  0  0  0  0  0
    1.9600    6.0178   -3.7001 C   0  0  0  0  0  0  0  0  0  0  0  0
    2.0043    5.5808   -4.6872 H   0  0  0  0  0  0  0  0  0  0  0  0
    1.4797    7.3072   -3.5335 C   0  0  0  0  0  0  0  0  0  0  0  0
    1.1530    7.8802   -4.3884 H   0  0  0  0  0  0  0  0  0  0  0  0
    1.4059    7.8503   -2.2618 C   0  0  0  0  0  0  0  0  0  0  0  0
    1.0096    8.8459   -2.1232 H   0  0  0  0  0  0  0  0  0  0  0  0
    1.8243    7.1224   -1.1624 C   0  0  0  0  0  0  0  0  0  0  0  0
    1.7211    7.5428   -0.1740 H   0  0  0  0  0  0  0  0  0  0  0  0
    3.8079    4.2919    3.3473 C   0  0  0  0  0  0  0  0  0  0  0  0
    4.3703    3.3955    3.6092 H   0  0  0  0  0  0  0  0  0  0  0  0
    2.9056    4.3111    3.9631 H   0  0  0  0  0  0  0  0  0  0  0  0
    4.4049    5.1679    3.5882 H   0  0  0  0  0  0  0  0  0  0  0  0
    3.8183    6.7761    1.4458 C   0  0  0  0  0  0  0  0  0  0  0  0
    3.8064    7.4719    0.6132 H   0  0  0  0  0  0  0  0  0  0  0  0
    4.7939    6.8210    1.9272 H   0  0  0  0  0  0  0  0  0  0  0  0
    3.0766    7.1117    2.1760 H   0  0  0  0  0  0  0  0  0  0  0  0
  1 35  1  0  0  0  0
  1 47  1  0  0  0  0
  2  1  1  0  0  0  0
  3 24  1  6  0  0  0
  4  3  1  0  0  0  0
  4  5  1  0  0  0  0
  5  8  1  0  0  0  0
  5  6  1  0  0  0  0
  7  5  1  0  0  0  0
  9  4  2  0  0  0  0
 10  9  1  0  0  0  0
 10 12  1  0  0  0  0
 11 10  1  0  0  0  0
 13 10  1  0  0  0  0
 14 15  1  6  0  0  0
 14  9  1  0  0  0  0
 14 19  1  0  0  0  0
 14  1  1  0  0  0  0
 16 15  1  0  0  0  0
 17 15  1  0  0  0  0
 18 15  1  0  0  0  0
 19 20  1  6  0  0  0
 19  3  1  0  0  0  0
 20 21  1  0  0  0  0
 22 20  1  0  0  0  0
 23 20  1  0  0  0  0
 24 25  1  0  0  0  0
 25 26  1  0  0  0  0
 25 27  2  0  0  0  0
 27 28  1  0  0  0  0
 29 27  1  0  0  0  0
 29 30  1  0  0  0  0
 31 29  2  0  0  0  0
 32 31  1  0  0  0  0
 33 24  2  0  0  0  0
 33 31  1  0  0  0  0
 34 33  1  0  0  0  0
 36 49  1  1  0  0  0
 36 37  1  0  0  0  0
 36 48  1  0  0  0  0
 37 38  2  0  0  0  0
 38 47  1  0  0  0  0
 38 43  1  0  0  0  0
 39 41  1  0  0  0  0
 39 37  1  0  0  0  0
 40 39  1  0  0  0  0
 42 39  1  0  0  0  0
 43 46  1  0  0  0  0
 43 44  1  0  0  0  0
 45 43  1  0  0  0  0
 47 60  1  1  0  0  0
 48 64  1  1  0  0  0
 48 47  1  0  0  0  0
 49 58  1  0  0  0  0
 50 49  2  0  0  0  0
 51 50  1  0  0  0  0
 52 54  2  0  0  0  0
 52 50  1  0  0  0  0
 53 52  1  0  0  0  0
 54 56  1  0  0  0  0
 55 54  1  0  0  0  0
 56 57  1  0  0  0  0
 56 58  2  0  0  0  0
 58 59  1  0  0  0  0
 60 63  1  0  0  0  0
 60 61  1  0  0  0  0
 60 62  1  0  0  0  0
 64 66  1  0  0  0  0
 64 67  1  0  0  0  0
 65 64  1  0  0  0  0
M  END
$$$$
