CSD_code = DAQWAT | q = 0 | S = 0 | Stoichiometry = C24H21AuClNOP2 | MND = 2
 OpenBabel04212202023D

 51 54  0  0  0  0  0  0  0  0999 V2000
    3.9627    4.1763    8.2854 Au  0  0  0  0  0  0  0  0  0  0  0  0
    2.3501    5.5595    9.0595 Cl  0  0  0  0  0  0  0  0  0  0  0  0
    4.6240    3.9190    4.9607 P   0  0  0  0  0  0  0  0  0  0  0  0
    5.6244    2.9761    7.4118 P   0  0  0  0  0  4  0  0  0  0  0  0
    3.6720    2.8173    5.0443 O   0  0  0  0  0  0  0  0  0  0  0  0
    6.0454    3.5687    5.8785 N   0  0  0  0  0  0  0  0  0  0  0  0
    3.9808    5.5248    5.5130 C   0  0  0  0  0  0  0  0  0  0  0  0
    2.6031    5.6781    5.4172 C   0  0  0  0  0  0  0  0  0  0  0  0
    2.0088    6.8547    5.8319 C   0  0  0  0  0  0  0  0  0  0  0  0
    2.7906    7.8809    6.3350 C   0  0  0  0  0  0  0  0  0  0  0  0
    4.1661    7.7361    6.4159 C   0  0  0  0  0  0  0  0  0  0  0  0
    4.7670    6.5616    6.0029 C   0  0  0  0  0  0  0  0  0  0  0  0
    5.3521    4.1514    3.3132 C   0  0  0  0  0  0  0  0  0  0  0  0
    6.0072    5.3122    2.9250 C   0  0  0  0  0  0  0  0  0  0  0  0
    6.5443    5.3997    1.6533 C   0  0  0  0  0  0  0  0  0  0  0  0
    6.4259    4.3356    0.7729 C   0  0  0  0  0  0  0  0  0  0  0  0
    5.7640    3.1808    1.1582 C   0  0  0  0  0  0  0  0  0  0  0  0
    5.2247    3.0896    2.4285 C   0  0  0  0  0  0  0  0  0  0  0  0
    7.2408    2.9934    8.2295 C   0  0  0  0  0  0  0  0  0  0  0  0
    7.3737    3.6413    9.4505 C   0  0  0  0  0  0  0  0  0  0  0  0
    8.6026    3.6601   10.0870 C   0  0  0  0  0  0  0  0  0  0  0  0
    9.6914    3.0318    9.5048 C   0  0  0  0  0  0  0  0  0  0  0  0
    9.5572    2.3825    8.2862 C   0  0  0  0  0  0  0  0  0  0  0  0
    8.3330    2.3583    7.6460 C   0  0  0  0  0  0  0  0  0  0  0  0
    5.3340    1.2307    7.0624 C   0  0  0  0  0  0  0  0  0  0  0  0
    5.7080    0.6131    5.8760 C   0  0  0  0  0  0  0  0  0  0  0  0
    5.4292   -0.7290    5.6941 C   0  0  0  0  0  0  0  0  0  0  0  0
    4.7876   -1.4513    6.6876 C   0  0  0  0  0  0  0  0  0  0  0  0
    4.4144   -0.8337    7.8710 C   0  0  0  0  0  0  0  0  0  0  0  0
    4.6825    0.5089    8.0578 C   0  0  0  0  0  0  0  0  0  0  0  0
    6.7078    4.3387    5.9155 H   0  0  0  0  0  0  0  0  0  0  0  0
    2.0150    4.8504    5.0472 H   0  0  0  0  0  0  0  0  0  0  0  0
    0.9364    6.9638    5.7834 H   0  0  0  0  0  0  0  0  0  0  0  0
    2.3268    8.7917    6.6812 H   0  0  0  0  0  0  0  0  0  0  0  0
    4.7721    8.5349    6.8177 H   0  0  0  0  0  0  0  0  0  0  0  0
    5.8409    6.4484    6.0918 H   0  0  0  0  0  0  0  0  0  0  0  0
    6.0840    6.1460    3.6083 H   0  0  0  0  0  0  0  0  0  0  0  0
    7.0532    6.3014    1.3454 H   0  0  0  0  0  0  0  0  0  0  0  0
    6.8456    4.4110   -0.2193 H   0  0  0  0  0  0  0  0  0  0  0  0
    5.6656    2.3567    0.4671 H   0  0  0  0  0  0  0  0  0  0  0  0
    4.6902    2.2083    2.7537 H   0  0  0  0  0  0  0  0  0  0  0  0
    6.5097    4.1256    9.8885 H   0  0  0  0  0  0  0  0  0  0  0  0
    8.7103    4.1635   11.0361 H   0  0  0  0  0  0  0  0  0  0  0  0
   10.6494    3.0452   10.0028 H   0  0  0  0  0  0  0  0  0  0  0  0
   10.4090    1.8919    7.8387 H   0  0  0  0  0  0  0  0  0  0  0  0
    8.2100    1.8500    6.6994 H   0  0  0  0  0  0  0  0  0  0  0  0
    6.1904    1.1850    5.0961 H   0  0  0  0  0  0  0  0  0  0  0  0
    5.7082   -1.2138    4.7699 H   0  0  0  0  0  0  0  0  0  0  0  0
    4.5682   -2.4977    6.5347 H   0  0  0  0  0  0  0  0  0  0  0  0
    3.9053   -1.3960    8.6397 H   0  0  0  0  0  0  0  0  0  0  0  0
    4.3822    1.0175    8.9664 H   0  0  0  0  0  0  0  0  0  0  0  0
  1  2  1  0  0  0  0
  3  5  2  0  0  0  0
  3  7  1  0  0  0  0
  3  6  1  0  0  0  0
  4 19  1  0  0  0  0
  4  1  1  0  0  0  0
  6 31  1  0  0  0  0
  6  4  1  0  0  0  0
  7 12  1  0  0  0  0
  8  7  2  0  0  0  0
  8  9  1  0  0  0  0
  9 10  2  0  0  0  0
 10 11  1  0  0  0  0
 10 34  1  0  0  0  0
 11 35  1  0  0  0  0
 12 36  1  0  0  0  0
 12 11  2  0  0  0  0
 13  3  1  0  0  0  0
 14 13  1  0  0  0  0
 14 37  1  0  0  0  0
 15 14  2  0  0  0  0
 16 17  2  0  0  0  0
 16 15  1  0  0  0  0
 17 18  1  0  0  0  0
 18 41  1  0  0  0  0
 18 13  2  0  0  0  0
 19 20  1  0  0  0  0
 20 42  1  0  0  0  0
 20 21  2  0  0  0  0
 21 43  1  0  0  0  0
 22 44  1  0  0  0  0
 22 21  1  0  0  0  0
 23 22  2  0  0  0  0
 24 19  2  0  0  0  0
 24 23  1  0  0  0  0
 25  4  1  0  0  0  0
 25 30  1  0  0  0  0
 26 25  2  0  0  0  0
 27 26  1  0  0  0  0
 27 28  2  0  0  0  0
 28 29  1  0  0  0  0
 29 30  2  0  0  0  0
 29 50  1  0  0  0  0
 30 51  1  0  0  0  0
 32  8  1  0  0  0  0
 33  9  1  0  0  0  0
 38 15  1  0  0  0  0
 39 16  1  0  0  0  0
 40 17  1  0  0  0  0
 45 23  1  0  0  0  0
 46 24  1  0  0  0  0
 47 26  1  0  0  0  0
 48 27  1  0  0  0  0
 49 28  1  0  0  0  0
M  END
$$$$
