CSD_code = DARTEY | q = 0 | S = 0 | Stoichiometry = C14H15AgClN5 | MND = 2
 OpenBabel04212202023D

 36 38  0  0  1  0  0  0  0  0999 V2000
    0.0986    1.2019    8.7644 C   0  0  1  0  0  3  0  0  0  0  0  0
   -0.3421    0.2038    6.8041 C   0  0  0  0  0  0  0  0  0  0  0  0
   -1.4969    0.7677    7.2665 C   0  0  0  0  0  0  0  0  0  0  0  0
   -2.4701    0.7686    6.8224 H   0  0  0  0  0  0  0  0  0  0  0  0
    1.9981    0.0884    7.6733 C   0  0  0  0  0  0  0  0  0  0  0  0
    2.5105    0.4654    8.5629 H   0  0  0  0  0  0  0  0  0  0  0  0
    2.4728    0.5091    6.7851 H   0  0  0  0  0  0  0  0  0  0  0  0
    2.0810   -0.9995    7.6511 H   0  0  0  0  0  0  0  0  0  0  0  0
   -2.1619    2.0738    9.2535 C   0  0  0  0  0  0  0  0  0  0  0  0
   -2.9824    1.4128    9.5367 H   0  0  0  0  0  0  0  0  0  0  0  0
   -2.5665    2.9218    8.6988 H   0  0  0  0  0  0  0  0  0  0  0  0
   -1.6654    2.4386   10.1562 H   0  0  0  0  0  0  0  0  0  0  0  0
   -0.1826   -0.5358    5.5806 C   0  0  0  0  0  0  0  0  0  0  0  0
    0.8937   -1.1644    4.9748 C   0  0  0  0  0  0  0  0  0  0  0  0
    1.9243   -1.2810    5.2303 H   0  0  0  0  0  0  0  0  0  0  0  0
    1.0707   -2.3993    2.7989 C   0  0  0  0  0  0  0  0  0  0  0  0
    0.2988   -2.8383    2.1606 H   0  0  0  0  0  0  0  0  0  0  0  0
    1.6725   -3.1982    3.2415 H   0  0  0  0  0  0  0  0  0  0  0  0
    1.9393   -1.4539    2.0039 C   0  0  0  0  0  0  0  0  0  0  0  0
    3.3104   -1.6421    1.9144 C   0  0  0  0  0  0  0  0  0  0  0  0
    3.7717   -2.4877    2.4049 H   0  0  0  0  0  0  0  0  0  0  0  0
    4.0892   -0.7549    1.1904 C   0  0  0  0  0  0  0  0  0  0  0  0
    5.1553   -0.9108    1.1213 H   0  0  0  0  0  0  0  0  0  0  0  0
    3.5031    0.3297    0.5616 C   0  0  0  0  0  0  0  0  0  0  0  0
    4.1115    1.0220   -0.0003 H   0  0  0  0  0  0  0  0  0  0  0  0
    2.1346    0.5254    0.6542 C   0  0  0  0  0  0  0  0  0  0  0  0
    1.6739    1.3706    0.1655 H   0  0  0  0  0  0  0  0  0  0  0  0
    1.3547   -0.3632    1.3711 C   0  0  0  0  0  0  0  0  0  0  0  0
    0.2867   -0.2160    1.4457 H   0  0  0  0  0  0  0  0  0  0  0  0
    0.6219    0.4871    7.7453 N   0  0  0  0  0  0  0  0  0  0  0  0
   -1.2036    1.3654    8.4537 N   0  0  0  0  0  0  0  0  0  0  0  0
    0.3781   -1.6887    3.8412 N   0  0  0  0  0  0  0  0  0  0  0  0
   -0.9108   -1.3983    3.7503 N   0  0  0  0  0  0  0  0  0  0  0  0
   -1.2594   -0.7208    4.7705 N   0  0  0  0  0  0  0  0  0  0  0  0
    1.1233    1.9052   10.5224 Ag  0  0  0  0  0  0  0  0  0  0  0  0
    2.2063    2.6131   12.3412 Cl  0  0  0  0  0  0  0  0  0  0  0  0
  1 35  1  1  0  0  0
  2  3  2  0  0  0  0
  2 30  1  0  0  0  0
  3 31  1  0  0  0  0
  4  3  1  0  0  0  0
  5 30  1  0  0  0  0
  5  6  1  0  0  0  0
  7  5  1  0  0  0  0
  8  5  1  0  0  0  0
  9 10  1  0  0  0  0
  9 12  1  0  0  0  0
 11  9  1  0  0  0  0
 13  2  1  0  0  0  0
 14 15  1  0  0  0  0
 14 13  2  0  0  0  0
 16 18  1  0  0  0  0
 16 32  1  0  0  0  0
 17 16  1  0  0  0  0
 19 16  1  0  0  0  0
 20 19  1  0  0  0  0
 20 21  1  0  0  0  0
 22 20  2  0  0  0  0
 23 22  1  0  0  0  0
 24 26  2  0  0  0  0
 24 22  1  0  0  0  0
 25 24  1  0  0  0  0
 26 28  1  0  0  0  0
 27 26  1  0  0  0  0
 28 29  1  0  0  0  0
 28 19  2  0  0  0  0
 30  1  1  0  0  0  0
 31  1  1  0  0  0  0
 31  9  1  0  0  0  0
 32 14  1  0  0  0  0
 33 32  1  0  0  0  0
 33 34  2  0  0  0  0
 34 13  1  0  0  0  0
 35 36  1  0  0  0  0
M  END
$$$$
