CSD_code = DARTIC | q = 0 | S = 0 | Stoichiometry = C14H15AuClN5 | MND = 2
 OpenBabel04212202023D

 36 38  0  0  1  0  0  0  0  0999 V2000
   -1.2007    0.8615    9.5990 Au  0  0  0  0  0  0  0  0  0  0  0  0
   -3.1565    0.4501   10.6214 Cl  0  0  0  0  0  0  0  0  0  0  0  0
    1.5896    1.9176    9.1605 N   0  0  0  0  0  0  0  0  0  0  0  0
    0.9052    0.8239    7.4412 N   0  0  0  0  0  0  0  0  0  0  0  0
    3.7699    0.5346    4.0168 N   0  0  0  0  0  0  0  0  0  0  0  0
    4.1946    1.5152    5.8441 N   0  0  0  0  0  0  0  0  0  0  0  0
    4.6761    1.2113    4.7053 N   0  0  0  0  0  0  0  0  0  0  0  0
    2.9236    1.0401    5.9391 C   0  0  0  0  0  0  0  0  0  0  0  0
    0.5439    1.2250    8.6752 C   0  0  1  0  0  3  0  0  0  0  0  0
    2.6009    1.9546    8.2477 C   0  0  0  0  0  0  0  0  0  0  0  0
    3.5343    2.4495    8.4144 H   0  0  0  0  0  0  0  0  0  0  0  0
    2.6390    0.4003    4.7432 C   0  0  0  0  0  0  0  0  0  0  0  0
    1.7810   -0.1078    4.3601 H   0  0  0  0  0  0  0  0  0  0  0  0
    2.1782    1.2630    7.1490 C   0  0  0  0  0  0  0  0  0  0  0  0
    3.2404    0.9740    1.6969 C   0  0  0  0  0  0  0  0  0  0  0  0
    1.6522    2.5330   10.4553 C   0  0  0  0  0  0  0  0  0  0  0  0
    0.6998    2.3797   10.9614 H   0  0  0  0  0  0  0  0  0  0  0  0
    1.8424    3.6027   10.3553 H   0  0  0  0  0  0  0  0  0  0  0  0
    2.4520    2.0859   11.0483 H   0  0  0  0  0  0  0  0  0  0  0  0
    2.2461    0.4441    0.8882 C   0  0  0  0  0  0  0  0  0  0  0  0
    2.0262   -0.6136    0.9266 H   0  0  0  0  0  0  0  0  0  0  0  0
    4.0083    0.1047    2.6636 C   0  0  0  0  0  0  0  0  0  0  0  0
    3.7154   -0.9438    2.5592 H   0  0  0  0  0  0  0  0  0  0  0  0
    5.0844    0.2001    2.4951 H   0  0  0  0  0  0  0  0  0  0  0  0
    3.5155    2.3353    1.6421 C   0  0  0  0  0  0  0  0  0  0  0  0
    4.2866    2.7465    2.2780 H   0  0  0  0  0  0  0  0  0  0  0  0
    0.0703    0.0465    6.5716 C   0  0  0  0  0  0  0  0  0  0  0  0
    0.5560   -0.8984    6.3229 H   0  0  0  0  0  0  0  0  0  0  0  0
   -0.1453    0.5988    5.6552 H   0  0  0  0  0  0  0  0  0  0  0  0
   -0.8646   -0.1583    7.0930 H   0  0  0  0  0  0  0  0  0  0  0  0
    1.5404    1.2647    0.0243 C   0  0  0  0  0  0  0  0  0  0  0  0
    0.7710    0.8442   -0.6057 H   0  0  0  0  0  0  0  0  0  0  0  0
    1.8185    2.6194   -0.0283 C   0  0  0  0  0  0  0  0  0  0  0  0
    1.2662    3.2586   -0.7004 H   0  0  0  0  0  0  0  0  0  0  0  0
    2.8062    3.1542    0.7831 C   0  0  0  0  0  0  0  0  0  0  0  0
    3.0256    4.2105    0.7449 H   0  0  0  0  0  0  0  0  0  0  0  0
  1  2  1  0  0  0  0
  3 16  1  0  0  0  0
  4  9  1  0  0  0  0
  5  7  1  0  0  0  0
  5 12  1  0  0  0  0
  6  8  1  0  0  0  0
  7  6  2  0  0  0  0
  8 14  1  0  0  0  0
  9  3  1  0  0  0  0
  9  1  1  1  0  0  0
 10 11  1  0  0  0  0
 10  3  1  0  0  0  0
 12  8  2  0  0  0  0
 13 12  1  0  0  0  0
 14  4  1  0  0  0  0
 14 10  2  0  0  0  0
 15 22  1  0  0  0  0
 16 17  1  0  0  0  0
 16 19  1  0  0  0  0
 18 16  1  0  0  0  0
 20 21  1  0  0  0  0
 20 15  2  0  0  0  0
 22  5  1  0  0  0  0
 23 22  1  0  0  0  0
 24 22  1  0  0  0  0
 25 15  1  0  0  0  0
 25 26  1  0  0  0  0
 27 30  1  0  0  0  0
 27  4  1  0  0  0  0
 28 27  1  0  0  0  0
 29 27  1  0  0  0  0
 31 20  1  0  0  0  0
 32 31  1  0  0  0  0
 33 31  2  0  0  0  0
 33 35  1  0  0  0  0
 34 33  1  0  0  0  0
 35 25  2  0  0  0  0
 36 35  1  0  0  0  0
M  END
$$$$
