CSD_code = DASDUY | q = 0 | S = 0 | Stoichiometry = C23H36Cl2N2Zr | MND = 8
 OpenBabel04212202023D

 64 65  0  0  1  0  0  0  0  0999 V2000
    3.4193    6.5793    9.1097 Zr  0  0  0  0  0  0  0  0  0  0  0  0
    1.4779    7.7780    9.6156 Cl  0  0  0  0  0  0  0  0  0  0  0  0
    2.4703    5.0461    7.5974 Cl  0  0  0  0  0  0  0  0  0  0  0  0
    3.9732    5.5257   10.6917 N   0  0  0  0  0  0  0  0  0  0  0  0
    3.8596    1.3369   11.0420 N   0  0  0  0  0  0  0  0  0  0  0  0
    5.3501    6.6786    7.6541 C   0  0  1  0  0  0  0  0  0  0  0  0
    4.3525    7.4007    6.9409 C   0  0  0  0  0  0  0  0  0  0  0  0
    4.0336    8.5571    7.6904 C   0  0  0  0  0  0  0  0  0  0  0  0
    4.8553    8.5818    8.8543 C   0  0  0  0  0  0  0  0  0  0  0  0
    5.6835    7.4190    8.8290 C   0  0  0  0  0  0  0  0  0  0  0  0
    6.0016    5.3975    7.2051 C   0  0  0  0  0  0  0  0  0  0  0  0
    6.7178    5.5865    6.4014 H   0  0  0  0  0  0  0  0  0  0  0  0
    5.2527    4.6965    6.8274 H   0  0  0  0  0  0  0  0  0  0  0  0
    6.5356    4.9254    8.0303 H   0  0  0  0  0  0  0  0  0  0  0  0
    3.8165    7.0736    5.5756 C   0  0  0  0  0  0  0  0  0  0  0  0
    2.7320    7.1912    5.5363 H   0  0  0  0  0  0  0  0  0  0  0  0
    4.0548    6.0485    5.2993 H   0  0  0  0  0  0  0  0  0  0  0  0
    4.2562    7.7415    4.8306 H   0  0  0  0  0  0  0  0  0  0  0  0
    3.0863    9.6490    7.2793 C   0  0  0  0  0  0  0  0  0  0  0  0
    3.6267   10.4613    6.7857 H   0  0  0  0  0  0  0  0  0  0  0  0
    2.5704   10.0662    8.1454 H   0  0  0  0  0  0  0  0  0  0  0  0
    2.3378    9.2713    6.5826 H   0  0  0  0  0  0  0  0  0  0  0  0
    4.9449    9.7766    9.7660 C   0  0  0  0  0  0  0  0  0  0  0  0
    3.9817    9.9993   10.2314 H   0  0  0  0  0  0  0  0  0  0  0  0
    5.2405   10.6555    9.1886 H   0  0  0  0  0  0  0  0  0  0  0  0
    5.6827    9.6327   10.5522 H   0  0  0  0  0  0  0  0  0  0  0  0
    6.8430    7.0864    9.7334 C   0  0  0  0  0  0  0  0  0  0  0  0
    7.7361    6.8966    9.1352 H   0  0  0  0  0  0  0  0  0  0  0  0
    6.6421    6.1950   10.3345 H   0  0  0  0  0  0  0  0  0  0  0  0
    7.0679    7.9155   10.4022 H   0  0  0  0  0  0  0  0  0  0  0  0
    4.0070    4.0986   10.4137 C   0  0  0  0  0  0  0  0  0  0  0  0
    4.7104    3.5709   11.0762 H   0  0  0  0  0  0  0  0  0  0  0  0
    4.3886    3.9881    9.3796 H   0  0  0  0  0  0  0  0  0  0  0  0
    2.6689    3.3774   10.5156 C   0  0  0  0  0  0  0  0  0  0  0  0
    2.6326    2.0137   10.8445 C   0  0  0  0  0  0  0  0  0  0  0  0
    1.3986    1.3911   11.0168 C   0  0  0  0  0  0  0  0  0  0  0  0
    1.3562    0.3466   11.2856 H   0  0  0  0  0  0  0  0  0  0  0  0
    0.2197    2.0887   10.8308 C   0  0  0  0  0  0  0  0  0  0  0  0
   -0.7267    1.5841   10.9587 H   0  0  0  0  0  0  0  0  0  0  0  0
    0.2549    3.4251   10.4746 C   0  0  0  0  0  0  0  0  0  0  0  0
   -0.6612    3.9746   10.3203 H   0  0  0  0  0  0  0  0  0  0  0  0
    1.4754    4.0618   10.3277 C   0  0  0  0  0  0  0  0  0  0  0  0
    1.5058    5.1262   10.0894 H   0  0  0  0  0  0  0  0  0  0  0  0
    4.5671    0.9975    9.8222 C   0  0  0  0  0  0  0  0  0  0  0  0
    4.1841    0.0688    9.3750 H   0  0  0  0  0  0  0  0  0  0  0  0
    5.6261    0.8597   10.0483 H   0  0  0  0  0  0  0  0  0  0  0  0
    4.4584    1.7938    9.0915 H   0  0  0  0  0  0  0  0  0  0  0  0
    3.8476    0.2336   11.9765 C   0  0  0  0  0  0  0  0  0  0  0  0
    3.2929    0.5203   12.8678 H   0  0  0  0  0  0  0  0  0  0  0  0
    4.8797    0.0203   12.2607 H   0  0  0  0  0  0  0  0  0  0  0  0
    3.4145   -0.6889   11.5637 H   0  0  0  0  0  0  0  0  0  0  0  0
    3.8803    5.9444   12.0885 C   0  0  0  0  0  0  0  0  0  0  0  0
    4.0914    7.4702   12.0932 C   0  0  0  0  0  0  0  0  0  0  0  0
    5.1005    7.7060   11.7627 H   0  0  0  0  0  0  0  0  0  0  0  0
    3.9537    7.8650   13.0981 H   0  0  0  0  0  0  0  0  0  0  0  0
    3.3579    7.9429   11.4291 H   0  0  0  0  0  0  0  0  0  0  0  0
    4.9718    5.2909   12.9601 C   0  0  0  0  0  0  0  0  0  0  0  0
    4.7435    4.2452   13.1488 H   0  0  0  0  0  0  0  0  0  0  0  0
    5.0314    5.8015   13.9177 H   0  0  0  0  0  0  0  0  0  0  0  0
    5.9410    5.3589   12.4695 H   0  0  0  0  0  0  0  0  0  0  0  0
    2.5064    5.6678   12.7358 C   0  0  0  0  0  0  0  0  0  0  0  0
    1.7208    6.1845   12.1837 H   0  0  0  0  0  0  0  0  0  0  0  0
    2.5077    6.0346   13.7604 H   0  0  0  0  0  0  0  0  0  0  0  0
    2.2891    4.6032   12.7541 H   0  0  0  0  0  0  0  0  0  0  0  0
  1  2  1  0  0  0  0
  1  4  1  0  0  0  0
  3  1  1  0  0  0  0
  4 52  1  0  0  0  0
  5 48  1  0  0  0  0
  6 11  1  6  0  0  0
  6 10  1  0  0  0  0
  6  1  1  0  0  0  0
  7  6  1  0  0  0  0
  7  8  2  0  0  0  0
  8  9  1  0  0  0  0
  9 23  1  0  0  0  0
 10  9  2  0  0  0  0
 10 27  1  0  0  0  0
 11 14  1  0  0  0  0
 12 11  1  0  0  0  0
 13 11  1  0  0  0  0
 15  7  1  0  0  0  0
 16 15  1  0  0  0  0
 17 15  1  0  0  0  0
 18 15  1  0  0  0  0
 19  8  1  0  0  0  0
 19 21  1  0  0  0  0
 20 19  1  0  0  0  0
 22 19  1  0  0  0  0
 23 24  1  0  0  0  0
 23 26  1  0  0  0  0
 25 23  1  0  0  0  0
 27 29  1  0  0  0  0
 27 30  1  0  0  0  0
 28 27  1  0  0  0  0
 31 34  1  0  0  0  0
 31  4  1  0  0  0  0
 31 32  1  0  0  0  0
 33 31  1  0  0  0  0
 34 35  1  0  0  0  0
 35 36  2  0  0  0  0
 35  5  1  0  0  0  0
 36 37  1  0  0  0  0
 38 39  1  0  0  0  0
 38 36  1  0  0  0  0
 40 38  2  0  0  0  0
 41 40  1  0  0  0  0
 42 40  1  0  0  0  0
 42 34  2  0  0  0  0
 43 42  1  0  0  0  0
 44 46  1  0  0  0  0
 44  5  1  0  0  0  0
 45 44  1  0  0  0  0
 47 44  1  0  0  0  0
 48 50  1  0  0  0  0
 48 49  1  0  0  0  0
 51 48  1  0  0  0  0
 52 53  1  0  0  0  0
 52 61  1  0  0  0  0
 52 57  1  0  0  0  0
 53 55  1  0  0  0  0
 54 53  1  0  0  0  0
 56 53  1  0  0  0  0
 57 58  1  0  0  0  0
 57 59  1  0  0  0  0
 60 57  1  0  0  0  0
 61 64  1  0  0  0  0
 61 63  1  0  0  0  0
 62 61  1  0  0  0  0
M  END
$$$$
