CSD_code = DASDOS | q = 0 | S = 0 | Stoichiometry = C22H34Cl2N2Zr | MND = 8
 OpenBabel04212202023D

 61 62  0  0  1  0  0  0  0  0999 V2000
    4.3569    3.6419   12.1978 Zr  0  0  0  0  0  0  0  0  0  0  0  0
    4.6777    3.7825   14.5251 Cl  0  0  0  0  0  0  0  0  0  0  0  0
    3.8943    1.3429   12.4423 Cl  0  0  0  0  0  0  0  0  0  0  0  0
    2.9862    5.0969   12.0325 N   0  0  0  0  0  0  0  0  0  0  0  0
   -0.4660    5.2766   10.0264 N   0  0  0  0  0  0  0  0  0  0  0  0
    5.9126    5.2242   11.0228 C   0  0  0  0  0  0  0  0  0  0  0  0
    6.5678    4.6109   12.1280 C   0  0  0  0  0  0  0  0  0  0  0  0
    6.7024    3.2201   11.8466 C   0  0  2  0  0  0  0  0  0  0  0  0
    6.1266    2.9785   10.5704 C   0  0  0  0  0  0  0  0  0  0  0  0
    5.6483    4.2187   10.0537 C   0  0  0  0  0  0  0  0  0  0  0  0
    5.6617    6.7046   10.9262 C   0  0  0  0  0  0  0  0  0  0  0  0
    6.5660    7.2550   11.1880 H   0  0  0  0  0  0  0  0  0  0  0  0
    4.8671    7.0054   11.6157 H   0  0  0  0  0  0  0  0  0  0  0  0
    5.3729    6.9959    9.9182 H   0  0  0  0  0  0  0  0  0  0  0  0
    7.1359    5.3566   13.3037 C   0  0  0  0  0  0  0  0  0  0  0  0
    7.4251    4.6693   14.0967 H   0  0  0  0  0  0  0  0  0  0  0  0
    6.4039    6.0599   13.7079 H   0  0  0  0  0  0  0  0  0  0  0  0
    8.0216    5.9217   13.0008 H   0  0  0  0  0  0  0  0  0  0  0  0
    7.3374    2.1964   12.7496 C   0  0  0  0  0  0  0  0  0  0  0  0
    8.4197    2.3382   12.7963 H   0  0  0  0  0  0  0  0  0  0  0  0
    7.1404    1.1893   12.3837 H   0  0  0  0  0  0  0  0  0  0  0  0
    6.9395    2.2776   13.7663 H   0  0  0  0  0  0  0  0  0  0  0  0
    6.1304    1.6622    9.8386 C   0  0  0  0  0  0  0  0  0  0  0  0
    5.6017    1.7458    8.8901 H   0  0  0  0  0  0  0  0  0  0  0  0
    5.6526    0.8775   10.4306 H   0  0  0  0  0  0  0  0  0  0  0  0
    7.1542    1.3462    9.6277 H   0  0  0  0  0  0  0  0  0  0  0  0
    5.2012    4.4318    8.6294 C   0  0  0  0  0  0  0  0  0  0  0  0
    5.0029    5.4845    8.4373 H   0  0  0  0  0  0  0  0  0  0  0  0
    4.3024    3.8652    8.3736 H   0  0  0  0  0  0  0  0  0  0  0  0
    5.9932    4.1187    7.9458 H   0  0  0  0  0  0  0  0  0  0  0  0
    2.3696    5.3121   10.7267 C   0  0  0  0  0  0  0  0  0  0  0  0
    3.1709    5.5594   10.0160 H   0  0  0  0  0  0  0  0  0  0  0  0
    1.6836    6.1626   10.7659 H   0  0  0  0  0  0  0  0  0  0  0  0
    1.6283    4.0771   10.2424 C   0  0  0  0  0  0  0  0  0  0  0  0
    0.2471    4.0630    9.9802 C   0  0  0  0  0  0  0  0  0  0  0  0
   -0.3748    2.8369    9.7416 C   0  0  0  0  0  0  0  0  0  0  0  0
   -1.4387    2.8004    9.5664 H   0  0  0  0  0  0  0  0  0  0  0  0
    0.3495    1.6592    9.7134 C   0  0  0  0  0  0  0  0  0  0  0  0
   -0.1585    0.7253    9.5266 H   0  0  0  0  0  0  0  0  0  0  0  0
    1.7210    1.6793    9.9014 C   0  0  0  0  0  0  0  0  0  0  0  0
    2.2989    0.7689    9.8596 H   0  0  0  0  0  0  0  0  0  0  0  0
    2.3446    2.8876   10.1679 C   0  0  0  0  0  0  0  0  0  0  0  0
    3.4316    2.9170   10.3225 H   0  0  0  0  0  0  0  0  0  0  0  0
   -0.1952    6.2004    8.9411 C   0  0  0  0  0  0  0  0  0  0  0  0
    0.8496    6.1435    8.6480 H   0  0  0  0  0  0  0  0  0  0  0  0
   -0.4207    7.2168    9.2687 H   0  0  0  0  0  0  0  0  0  0  0  0
   -0.8124    5.9770    8.0590 H   0  0  0  0  0  0  0  0  0  0  0  0
   -1.8780    5.2035   10.3284 C   0  0  0  0  0  0  0  0  0  0  0  0
   -2.4916    4.8816    9.4750 H   0  0  0  0  0  0  0  0  0  0  0  0
   -2.2115    6.1995   10.6244 H   0  0  0  0  0  0  0  0  0  0  0  0
   -2.0381    4.5226   11.1621 H   0  0  0  0  0  0  0  0  0  0  0  0
    2.0679    5.1501   13.1732 C   0  0  0  0  0  0  0  0  0  0  0  0
    1.3646    3.7950   13.4285 C   0  0  0  0  0  0  0  0  0  0  0  0
    0.6674    3.5646   12.6225 H   0  0  0  0  0  0  0  0  0  0  0  0
    0.8095    3.8386   14.3646 H   0  0  0  0  0  0  0  0  0  0  0  0
    2.1052    2.9871   13.5055 H   0  0  0  0  0  0  0  0  0  0  0  0
    1.0109    6.2626   13.1004 C   0  0  0  0  0  0  0  0  0  0  0  0
    1.4791    7.2125   12.8500 H   0  0  0  0  0  0  0  0  0  0  0  0
    0.5365    6.3624   14.0734 H   0  0  0  0  0  0  0  0  0  0  0  0
    0.2428    6.0305   12.3666 H   0  0  0  0  0  0  0  0  0  0  0  0
    2.7010    5.3705   14.0511 H   0  0  0  0  0  0  0  0  0  0  0  0
  1  3  1  0  0  0  0
  1  2  1  0  0  0  0
  4  1  1  0  0  0  0
  4 52  1  0  0  0  0
  5 48  1  0  0  0  0
  6  7  2  0  0  0  0
  7 15  1  0  0  0  0
  8  7  1  0  0  0  0
  8  1  1  0  0  0  0
  8 19  1  1  0  0  0
  9  8  1  0  0  0  0
 10  9  2  0  0  0  0
 10  6  1  0  0  0  0
 11  6  1  0  0  0  0
 11 12  1  0  0  0  0
 11 13  1  0  0  0  0
 14 11  1  0  0  0  0
 15 17  1  0  0  0  0
 15 16  1  0  0  0  0
 18 15  1  0  0  0  0
 19 20  1  0  0  0  0
 19 22  1  0  0  0  0
 21 19  1  0  0  0  0
 23 25  1  0  0  0  0
 23  9  1  0  0  0  0
 24 23  1  0  0  0  0
 26 23  1  0  0  0  0
 27 10  1  0  0  0  0
 28 27  1  0  0  0  0
 29 27  1  0  0  0  0
 30 27  1  0  0  0  0
 31 33  1  0  0  0  0
 31  4  1  0  0  0  0
 32 31  1  0  0  0  0
 34 31  1  0  0  0  0
 35  5  1  0  0  0  0
 35 34  2  0  0  0  0
 36 35  1  0  0  0  0
 37 36  1  0  0  0  0
 38 36  2  0  0  0  0
 38 40  1  0  0  0  0
 39 38  1  0  0  0  0
 40 42  2  0  0  0  0
 41 40  1  0  0  0  0
 42 34  1  0  0  0  0
 42 43  1  0  0  0  0
 44 46  1  0  0  0  0
 44  5  1  0  0  0  0
 45 44  1  0  0  0  0
 47 44  1  0  0  0  0
 48 50  1  0  0  0  0
 48 51  1  0  0  0  0
 49 48  1  0  0  0  0
 52 53  1  0  0  0  0
 52 61  1  0  0  0  0
 53 56  1  0  0  0  0
 53 55  1  0  0  0  0
 54 53  1  0  0  0  0
 57 52  1  0  0  0  0
 57 59  1  0  0  0  0
 58 57  1  0  0  0  0
 60 57  1  0  0  0  0
M  END
$$$$
