CSD_code = DASQUJ | q = 0 | S = 0 | Stoichiometry = C6H16Cl2N2Zn | MND = 4
 OpenBabel04212202023D

 27 27  0  0  0  0  0  0  0  0999 V2000
    5.7788    2.1040    8.1711 Zn  0  0  0  0  0  0  0  0  0  0  0  0
    6.1387    0.1075    7.3287 Cl  0  0  0  0  0  0  0  0  0  0  0  0
    7.1816    2.2251    9.8387 N   0  0  0  0  0  4  0  0  0  0  0  0
    7.6472    1.3272    9.9489 H   0  0  0  0  0  0  0  0  0  0  0  0
    7.9069    2.9257    9.7057 H   0  0  0  0  0  0  0  0  0  0  0  0
    6.4189    2.5529   11.0567 C   0  0  0  0  0  0  0  0  0  0  0  0
    6.0781    4.0435   10.9639 C   0  0  0  0  0  0  0  0  0  0  0  0
    5.6422    4.2858    9.9984 H   0  0  0  0  0  0  0  0  0  0  0  0
    5.4032    4.3535   11.7547 H   0  0  0  0  0  0  0  0  0  0  0  0
    6.9900    4.6273   11.0679 H   0  0  0  0  0  0  0  0  0  0  0  0
    7.2912    2.3236   12.2968 C   0  0  0  0  0  0  0  0  0  0  0  0
    6.7820    2.6534   13.1967 H   0  0  0  0  0  0  0  0  0  0  0  0
    8.2091    2.9016   12.2056 H   0  0  0  0  0  0  0  0  0  0  0  0
    7.5634    1.2786   12.4139 H   0  0  0  0  0  0  0  0  0  0  0  0
    5.4188    4.1005    7.3287 Cl  0  0  0  0  0  0  0  0  0  0  0  0
    5.1387    1.6551   11.0567 C   0  0  0  0  0  0  0  0  0  0  0  0
    4.3759    1.9828    9.8387 N   0  0  0  0  0  4  0  0  0  0  0  0
    3.9103    2.8808    9.9489 H   0  0  0  0  0  0  0  0  0  0  0  0
    3.6506    1.2823    9.7057 H   0  0  0  0  0  0  0  0  0  0  0  0
    5.4794    0.1645   10.9639 C   0  0  0  0  0  0  0  0  0  0  0  0
    5.9153   -0.0778    9.9984 H   0  0  0  0  0  0  0  0  0  0  0  0
    6.1543   -0.1455   11.7546 H   0  0  0  0  0  0  0  0  0  0  0  0
    4.5675   -0.4193   11.0679 H   0  0  0  0  0  0  0  0  0  0  0  0
    4.2663    1.8844   12.2968 C   0  0  0  0  0  0  0  0  0  0  0  0
    4.7755    1.5546   13.1967 H   0  0  0  0  0  0  0  0  0  0  0  0
    3.3484    1.3064   12.2056 H   0  0  0  0  0  0  0  0  0  0  0  0
    3.9941    2.9294   12.4139 H   0  0  0  0  0  0  0  0  0  0  0  0
  1 17  1  0  0  0  0
  1  3  1  0  0  0  0
  2  1  1  0  0  0  0
  3  4  1  0  0  0  0
  3  6  1  0  0  0  0
  5  3  1  0  0  0  0
  6 11  1  0  0  0  0
  7  6  1  0  0  0  0
  7 10  1  0  0  0  0
  7  9  1  0  0  0  0
  8  7  1  0  0  0  0
 11 14  1  0  0  0  0
 11 12  1  0  0  0  0
 13 11  1  0  0  0  0
 15  1  1  0  0  0  0
 16  6  1  0  0  0  0
 16 24  1  0  0  0  0
 17 18  1  0  0  0  0
 17 16  1  0  0  0  0
 19 17  1  0  0  0  0
 20 16  1  0  0  0  0
 20 23  1  0  0  0  0
 20 22  1  0  0  0  0
 21 20  1  0  0  0  0
 24 27  1  0  0  0  0
 24 25  1  0  0  0  0
 26 24  1  0  0  0  0
M  END
$$$$
