CSD_code = DAVLAO | q = 0 | S = 0 | Stoichiometry = C18H10Cl2F5NOTi | MND = 9
 OpenBabel04212202023D

 38 41  0  0  1  0  0  0  0  0999 V2000
   -0.7692    2.0637    2.8935 Ti  0  0  0  0  0  0  0  0  0  0  0  0
   -0.4702   -0.1003    3.4681 Cl  0  0  0  0  0  0  0  0  0  0  0  0
   -2.3160    1.3120    1.4910 Cl  0  0  0  0  0  0  0  0  0  0  0  0
    1.7708   -0.4669    0.2849 F   0  0  0  0  0  0  0  0  0  0  0  0
    3.3687   -2.4317    1.2765 F   0  0  0  0  0  0  0  0  0  0  0  0
    4.3081   -2.2829    3.8284 F   0  0  0  0  0  0  0  0  0  0  0  0
    3.6374   -0.1505    5.4032 F   0  0  0  0  0  0  0  0  0  0  0  0
    2.0187    1.8396    4.3628 F   0  0  0  0  0  0  0  0  0  0  0  0
   -0.6231    3.4507    1.5967 O   0  0  0  0  0  0  0  0  0  0  0  0
    1.0820    1.7692    1.9057 N   0  0  0  0  0  0  0  0  0  0  0  0
    2.2682   -0.3610    1.5243 C   0  0  0  0  0  0  0  0  0  0  0  0
    3.0597   -1.3811    2.0374 C   0  0  0  0  0  0  0  0  0  0  0  0
    3.5371   -1.3089    3.3435 C   0  0  0  0  0  0  0  0  0  0  0  0
    3.1996   -0.2188    4.1462 C   0  0  0  0  0  0  0  0  0  0  0  0
    2.4130    0.7866    3.6152 C   0  0  0  0  0  0  0  0  0  0  0  0
    1.9364    0.7581    2.2989 C   0  0  0  0  0  0  0  0  0  0  0  0
    1.2190    2.4025    0.7343 C   0  0  0  0  0  0  0  0  0  0  0  0
    2.3395    2.2787   -0.1025 C   0  0  0  0  0  0  0  0  0  0  0  0
    3.1472    1.6732    0.2920 H   0  0  0  0  0  0  0  0  0  0  0  0
    2.5493    2.8058   -1.3591 C   0  0  0  0  0  0  0  0  0  0  0  0
    3.4946    2.5378   -1.8149 H   0  0  0  0  0  0  0  0  0  0  0  0
    1.7184    3.6030   -2.1385 C   0  0  0  0  0  0  0  0  0  0  0  0
    2.0790    3.8271   -3.1335 H   0  0  0  0  0  0  0  0  0  0  0  0
    0.5038    4.1696   -1.7876 C   0  0  0  0  0  0  0  0  0  0  0  0
    0.0300    4.7758   -2.5496 H   0  0  0  0  0  0  0  0  0  0  0  0
   -0.1721    4.1004   -0.5838 C   0  0  0  0  0  0  0  0  0  0  0  0
   -1.0869    4.6741   -0.4932 H   0  0  0  0  0  0  0  0  0  0  0  0
    0.1199    3.3485    0.5613 C   0  0  1  0  0  3  0  0  0  0  0  0
   -0.3972    3.5645    4.6633 C   0  0  0  0  0  0  0  0  0  0  0  0
    0.5332    4.0640    4.9018 H   0  0  0  0  0  0  0  0  0  0  0  0
   -1.4793    4.1276    3.9518 C   0  0  0  0  0  0  0  0  0  0  0  0
   -1.4961    5.1085    3.4973 H   0  0  0  0  0  0  0  0  0  0  0  0
   -2.5541    3.2202    3.9899 C   0  0  0  0  0  0  0  0  0  0  0  0
   -3.5426    3.3896    3.5833 H   0  0  0  0  0  0  0  0  0  0  0  0
   -2.1587    2.1085    4.7648 C   0  0  0  0  0  0  0  0  0  0  0  0
   -2.7938    1.2827    5.0649 H   0  0  0  0  0  0  0  0  0  0  0  0
   -0.8280    2.3266    5.1920 C   0  0  1  0  0  0  0  0  0  0  0  0
   -0.2783    1.7049    5.8869 H   0  0  0  0  0  0  0  0  0  0  0  0
  1  2  1  0  0  0  0
  1 37  1  0  0  0  0
  3  1  1  0  0  0  0
  4 11  1  0  0  0  0
  5 12  1  0  0  0  0
  9  1  1  0  0  0  0
 10 16  1  0  0  0  0
 10  1  1  0  0  0  0
 11 12  2  0  0  0  0
 11 16  1  0  0  0  0
 12 13  1  0  0  0  0
 13  6  1  0  0  0  0
 13 14  2  0  0  0  0
 14  7  1  0  0  0  0
 15 14  1  0  0  0  0
 15  8  1  0  0  0  0
 16 15  2  0  0  0  0
 17 10  1  0  0  0  0
 18 19  1  0  0  0  0
 18 17  2  0  0  0  0
 20 18  1  0  0  0  0
 21 20  1  0  0  0  0
 22 24  1  0  0  0  0
 22 20  2  0  0  0  0
 23 22  1  0  0  0  0
 24 26  2  0  0  0  0
 25 24  1  0  0  0  0
 26 27  1  0  0  0  0
 28 26  1  6  0  0  0
 28 17  1  0  0  0  0
 28  9  1  0  0  0  0
 29 30  1  0  0  0  0
 29 37  1  0  0  0  0
 31 33  1  0  0  0  0
 31 29  2  0  0  0  0
 32 31  1  0  0  0  0
 33 35  2  0  0  0  0
 34 33  1  0  0  0  0
 35 36  1  0  0  0  0
 35 37  1  0  0  0  0
 37 38  1  1  0  0  0
M  END
$$$$
