CSD_code = DAWBEJ | q = 0 | S = 0 | Stoichiometry = C24H23ClN2Pd | MND = 4
 OpenBabel04212202023D

 51 55  0  0  0  0  0  0  0  0999 V2000
   17.9653   -8.9174    7.6400 Pd  0  0  0  0  0  0  0  0  0  0  0  0
   19.4089   -8.5849    9.3932 Cl  0  0  0  0  0  0  0  0  0  0  0  0
   17.4890  -10.9186    7.8794 N   0  0  0  0  0  0  0  0  0  0  0  0
   18.0222   -7.0661    6.7072 N   0  0  0  0  0  0  0  0  0  0  0  0
   17.1901   -9.3273    5.9411 C   0  0  0  0  0  0  0  0  0  0  0  0
   16.9162  -10.6659    5.6353 C   0  0  0  0  0  0  0  0  0  0  0  0
   16.5627  -11.0058    4.3263 C   0  0  0  0  0  0  0  0  0  0  0  0
   16.5229  -10.0328    3.3294 C   0  0  0  0  0  0  0  0  0  0  0  0
   16.8784   -8.7157    3.6341 C   0  0  0  0  0  0  0  0  0  0  0  0
   17.2339   -8.3545    4.9330 C   0  0  0  0  0  0  0  0  0  0  0  0
   17.0698  -11.5026    6.7954 C   0  0  0  0  0  3  0  0  0  0  0  0
   17.6781   -7.0888    5.4534 C   0  0  0  0  0  3  0  0  0  0  0  0
   16.1309  -10.3617    1.8940 C   0  0  0  0  0  0  0  0  0  0  0  0
   15.7633  -11.8355    1.7010 C   0  0  0  0  0  0  0  0  0  0  0  0
   17.3089  -10.0402    0.9634 C   0  0  0  0  0  0  0  0  0  0  0  0
   14.9109   -9.5141    1.5060 C   0  0  0  0  0  0  0  0  0  0  0  0
   17.6231  -11.5786    9.0979 C   0  0  0  0  0  0  0  0  0  0  0  0
   17.2884  -10.8593   10.2486 C   0  0  0  0  0  0  0  0  0  0  0  0
   17.4099  -11.4474   11.4903 C   0  0  0  0  0  0  0  0  0  0  0  0
   17.8769  -12.7489   11.5998 C   0  0  0  0  0  0  0  0  0  0  0  0
   18.2179  -13.4620   10.4623 C   0  0  0  0  0  0  0  0  0  0  0  0
   18.0885  -12.8883    9.2112 C   0  0  0  0  0  0  0  0  0  0  0  0
   18.4138   -5.9052    7.3688 C   0  0  0  0  0  0  0  0  0  0  0  0
   18.0111   -5.7669    8.6999 C   0  0  0  0  0  0  0  0  0  0  0  0
   18.3785   -4.6492    9.4199 C   0  0  0  0  0  0  0  0  0  0  0  0
   19.1582   -3.6668    8.8277 C   0  0  0  0  0  0  0  0  0  0  0  0
   19.5646   -3.8033    7.5106 C   0  0  0  0  0  0  0  0  0  0  0  0
   19.1932   -4.9129    6.7747 C   0  0  0  0  0  0  0  0  0  0  0  0
   16.3418  -12.0367    4.1002 H   0  0  0  0  0  0  0  0  0  0  0  0
   16.9008   -7.9661    2.8567 H   0  0  0  0  0  0  0  0  0  0  0  0
   16.8099  -12.5612    6.7924 H   0  0  0  0  0  0  0  0  0  0  0  0
   17.6892   -6.1805    4.8508 H   0  0  0  0  0  0  0  0  0  0  0  0
   14.9186  -12.1142    2.3268 H   0  0  0  0  0  0  0  0  0  0  0  0
   15.4813  -12.0032    0.6635 H   0  0  0  0  0  0  0  0  0  0  0  0
   16.6071  -12.4840    1.9254 H   0  0  0  0  0  0  0  0  0  0  0  0
   18.1876  -10.6096    1.2589 H   0  0  0  0  0  0  0  0  0  0  0  0
   17.0572  -10.3017   -0.0620 H   0  0  0  0  0  0  0  0  0  0  0  0
   17.5628   -8.9844    0.9901 H   0  0  0  0  0  0  0  0  0  0  0  0
   15.1300   -8.4514    1.5592 H   0  0  0  0  0  0  0  0  0  0  0  0
   14.6021   -9.7463    0.4891 H   0  0  0  0  0  0  0  0  0  0  0  0
   14.0795   -9.7241    2.1756 H   0  0  0  0  0  0  0  0  0  0  0  0
   16.9347   -9.8353   10.1352 H   0  0  0  0  0  0  0  0  0  0  0  0
   17.1527  -10.8886   12.3771 H   0  0  0  0  0  0  0  0  0  0  0  0
   17.9864  -13.2034   12.5729 H   0  0  0  0  0  0  0  0  0  0  0  0
   18.5945  -14.4704   10.5494 H   0  0  0  0  0  0  0  0  0  0  0  0
   18.3870  -13.4339    8.3275 H   0  0  0  0  0  0  0  0  0  0  0  0
   17.4077   -6.5575    9.1440 H   0  0  0  0  0  0  0  0  0  0  0  0
   18.0675   -4.5463   10.4484 H   0  0  0  0  0  0  0  0  0  0  0  0
   19.4585   -2.7996    9.3965 H   0  0  0  0  0  0  0  0  0  0  0  0
   20.1842   -3.0449    7.0546 H   0  0  0  0  0  0  0  0  0  0  0  0
   19.5412   -5.0347    5.7589 H   0  0  0  0  0  0  0  0  0  0  0  0
  1  3  1  0  0  0  0
  1  2  1  0  0  0  0
  3 17  1  0  0  0  0
  4 23  1  0  0  0  0
  4  1  1  0  0  0  0
  5  1  1  0  0  0  0
  6  5  1  0  0  0  0
  6 11  1  0  0  0  0
  7  6  2  0  0  0  0
  8  9  2  0  0  0  0
  8  7  1  0  0  0  0
  9 10  1  0  0  0  0
 10 12  1  0  0  0  0
 10  5  2  0  0  0  0
 11  3  1  0  0  0  0
 12  4  1  0  0  0  0
 13  8  1  0  0  0  0
 14 13  1  0  0  0  0
 14 35  1  0  0  0  0
 14 33  1  0  0  0  0
 15 38  1  0  0  0  0
 15 36  1  0  0  0  0
 15 13  1  0  0  0  0
 16 39  1  0  0  0  0
 16 13  1  0  0  0  0
 16 41  1  0  0  0  0
 17 22  2  0  0  0  0
 17 18  1  0  0  0  0
 18 19  2  0  0  0  0
 19 20  1  0  0  0  0
 19 43  1  0  0  0  0
 20 44  1  0  0  0  0
 21 45  1  0  0  0  0
 21 20  2  0  0  0  0
 22 21  1  0  0  0  0
 23 24  1  0  0  0  0
 24 47  1  0  0  0  0
 24 25  2  0  0  0  0
 25 48  1  0  0  0  0
 26 49  1  0  0  0  0
 26 25  1  0  0  0  0
 27 26  2  0  0  0  0
 28 23  2  0  0  0  0
 28 27  1  0  0  0  0
 29  7  1  0  0  0  0
 30  9  1  0  0  0  0
 31 11  1  0  0  0  0
 32 12  1  0  0  0  0
 34 14  1  0  0  0  0
 37 15  1  0  0  0  0
 40 16  1  0  0  0  0
 42 18  1  0  0  0  0
 46 22  1  0  0  0  0
 50 27  1  0  0  0  0
 51 28  1  0  0  0  0
M  END
$$$$
