CSD_code = DAWHOZ | q = 0 | S = 0 | Stoichiometry = C23H22Br2NNiOP | MND = 4
 OpenBabel04212202023D

 51 55  0  0  1  0  0  0  0  0999 V2000
    1.6722   13.6621    0.2557 Br  0  0  0  0  0  0  0  0  0  0  0  0
   -0.1845   12.3254    3.9328 Br  0  0  0  0  0  0  0  0  0  0  0  0
    0.9856   13.2680    2.3233 Ni  0  0  0  0  0  0  0  0  0  0  0  0
    2.8209   12.6074    3.0640 P   0  0  0  0  0  4  0  0  0  0  0  0
    3.3269   16.9460    3.2724 O   0  0  0  0  0  0  0  0  0  0  0  0
    2.0821   15.1004    3.4114 N   0  0  1  0  0  0  0  0  0  0  0  0
    4.2106   13.5094    2.3084 C   0  0  0  0  0  0  0  0  0  0  0  0
    5.2097   12.8415    1.6133 C   0  0  0  0  0  0  0  0  0  0  0  0
    5.1736   11.7660    1.5234 H   0  0  0  0  0  0  0  0  0  0  0  0
    6.2433   13.5454    1.0183 C   0  0  0  0  0  0  0  0  0  0  0  0
    7.0090   13.0094    0.4780 H   0  0  0  0  0  0  0  0  0  0  0  0
    6.2932   14.9272    1.1058 C   0  0  0  0  0  0  0  0  0  0  0  0
    7.0983   15.4722    0.6376 H   0  0  0  0  0  0  0  0  0  0  0  0
    5.2975   15.6100    1.7782 C   0  0  0  0  0  0  0  0  0  0  0  0
    5.3056   16.6873    1.8393 H   0  0  0  0  0  0  0  0  0  0  0  0
    4.2509   14.9117    2.3718 C   0  0  0  0  0  0  0  0  0  0  0  0
    3.1762   15.6372    3.0289 C   0  0  2  0  0  3  0  0  0  0  0  0
    2.1383   17.3874    3.9237 C   0  0  0  0  0  0  0  0  0  0  0  0
    1.6785   18.1708    3.3158 H   0  0  0  0  0  0  0  0  0  0  0  0
    2.4105   17.7984    4.8994 H   0  0  0  0  0  0  0  0  0  0  0  0
    1.2487   16.1192    4.0374 C   0  0  0  0  0  0  0  0  0  0  0  0
    0.9720   15.7223    5.4864 C   0  0  0  0  0  0  0  0  0  0  0  0
    1.9058   15.5989    6.0323 H   0  0  0  0  0  0  0  0  0  0  0  0
    0.4347   14.7775    5.5138 H   0  0  0  0  0  0  0  0  0  0  0  0
    0.3697   16.4859    5.9717 H   0  0  0  0  0  0  0  0  0  0  0  0
   -0.0515   16.2445    3.2435 C   0  0  0  0  0  0  0  0  0  0  0  0
    0.1525   16.5696    2.2234 H   0  0  0  0  0  0  0  0  0  0  0  0
   -0.7230   16.9560    3.7174 H   0  0  0  0  0  0  0  0  0  0  0  0
   -0.5509   15.2725    3.2109 H   0  0  0  0  0  0  0  0  0  0  0  0
    3.2201   12.6308    4.8418 C   0  0  0  0  0  0  0  0  0  0  0  0
    4.0871   13.5622    5.4013 C   0  0  0  0  0  0  0  0  0  0  0  0
    4.5592   14.3117    4.7832 H   0  0  0  0  0  0  0  0  0  0  0  0
    4.3566   13.5294    6.7584 C   0  0  0  0  0  0  0  0  0  0  0  0
    5.0296   14.2587    7.1856 H   0  0  0  0  0  0  0  0  0  0  0  0
    3.7676   12.5704    7.5649 C   0  0  0  0  0  0  0  0  0  0  0  0
    3.9740   12.5555    8.6246 H   0  0  0  0  0  0  0  0  0  0  0  0
    2.9156   11.6304    7.0081 C   0  0  0  0  0  0  0  0  0  0  0  0
    2.4562   10.8772    7.6296 H   0  0  0  0  0  0  0  0  0  0  0  0
    2.6432   11.6579    5.6537 C   0  0  0  0  0  0  0  0  0  0  0  0
    1.9692   10.9303    5.2256 H   0  0  0  0  0  0  0  0  0  0  0  0
    3.0694   10.8573    2.6360 C   0  0  0  0  0  0  0  0  0  0  0  0
    2.1561   10.2484    1.7840 C   0  0  0  0  0  0  0  0  0  0  0  0
    1.3190   10.8244    1.3904 H   0  0  0  0  0  0  0  0  0  0  0  0
    2.3029    8.9153    1.4456 C   0  0  0  0  0  0  0  0  0  0  0  0
    1.5915    8.4452    0.7840 H   0  0  0  0  0  0  0  0  0  0  0  0
    3.3614    8.1879    1.9631 C   0  0  0  0  0  0  0  0  0  0  0  0
    3.4785    7.1467    1.7026 H   0  0  0  0  0  0  0  0  0  0  0  0
    4.2689    8.7891    2.8230 C   0  0  0  0  0  0  0  0  0  0  0  0
    5.0887    8.2162    3.2306 H   0  0  0  0  0  0  0  0  0  0  0  0
    4.1261   10.1203    3.1656 C   0  0  0  0  0  0  0  0  0  0  0  0
    4.8243   10.5927    3.8438 H   0  0  0  0  0  0  0  0  0  0  0  0
  1  3  1  0  0  0  0
  3  4  1  0  0  0  0
  3  6  1  0  0  0  0
  3  2  1  0  0  0  0
  4 30  1  0  0  0  0
  5 18  1  0  0  0  0
  6 21  1  6  0  0  0
  7 16  1  0  0  0  0
  7  4  1  0  0  0  0
  8  7  2  0  0  0  0
  9  8  1  0  0  0  0
 10 12  2  0  0  0  0
 10  8  1  0  0  0  0
 11 10  1  0  0  0  0
 12 14  1  0  0  0  0
 13 12  1  0  0  0  0
 14 15  1  0  0  0  0
 14 16  2  0  0  0  0
 17 16  1  1  0  0  0
 17  5  1  0  0  0  0
 17  6  1  0  0  0  0
 18 21  1  0  0  0  0
 18 20  1  0  0  0  0
 19 18  1  0  0  0  0
 21 22  1  0  0  0  0
 22 24  1  0  0  0  0
 22 25  1  0  0  0  0
 22 23  1  0  0  0  0
 26 28  1  0  0  0  0
 26 21  1  0  0  0  0
 27 26  1  0  0  0  0
 29 26  1  0  0  0  0
 30 31  2  0  0  0  0
 30 39  1  0  0  0  0
 31 33  1  0  0  0  0
 32 31  1  0  0  0  0
 33 34  1  0  0  0  0
 33 35  2  0  0  0  0
 35 36  1  0  0  0  0
 37 35  1  0  0  0  0
 37 38  1  0  0  0  0
 39 37  2  0  0  0  0
 40 39  1  0  0  0  0
 41  4  1  0  0  0  0
 41 50  1  0  0  0  0
 42 41  2  0  0  0  0
 43 42  1  0  0  0  0
 44 42  1  0  0  0  0
 44 46  2  0  0  0  0
 45 44  1  0  0  0  0
 46 48  1  0  0  0  0
 47 46  1  0  0  0  0
 48 50  2  0  0  0  0
 48 49  1  0  0  0  0
 50 51  1  0  0  0  0
M  END
$$$$
