CSD_code = DAWHUF | q = 0 | S = 0 | Stoichiometry = C24H24Br2NNiOP | MND = 4
 OpenBabel04212202023D

 54 57  0  0  0  0  0  0  0  0999 V2000
    7.3030    3.8229    7.7939 Ni  0  0  0  0  0  0  0  0  0  0  0  0
    6.4690    3.2997    9.7753 Br  0  0  0  0  0  0  0  0  0  0  0  0
    8.9362    3.9976    6.3320 Br  0  0  0  0  0  0  0  0  0  0  0  0
    5.4586    5.1718    7.0526 N   0  0  0  0  0  0  0  0  0  0  0  0
    3.4476    6.0130    7.5253 O   0  0  0  0  0  0  0  0  0  0  0  0
    6.0883    2.6730    6.5400 P   0  0  0  0  0  4  0  0  0  0  0  0
    5.5838    3.1577    4.8529 C   0  0  0  0  0  0  0  0  0  0  0  0
    4.4042    2.6013    4.3589 C   0  0  0  0  0  0  0  0  0  0  0  0
    3.8305    1.9173    4.9684 H   0  0  0  0  0  0  0  0  0  0  0  0
    3.9671    2.9142    3.0856 C   0  0  0  0  0  0  0  0  0  0  0  0
    3.0524    2.4767    2.7134 H   0  0  0  0  0  0  0  0  0  0  0  0
    4.6975    3.7835    2.2909 C   0  0  0  0  0  0  0  0  0  0  0  0
    4.3501    4.0303    1.2987 H   0  0  0  0  0  0  0  0  0  0  0  0
    5.8748    4.3276    2.7731 C   0  0  0  0  0  0  0  0  0  0  0  0
    6.4558    4.9990    2.1588 H   0  0  0  0  0  0  0  0  0  0  0  0
    6.3189    4.0153    4.0471 C   0  0  0  0  0  0  0  0  0  0  0  0
    7.2428    4.4372    4.4066 H   0  0  0  0  0  0  0  0  0  0  0  0
    6.7480    0.9872    6.3469 C   0  0  0  0  0  0  0  0  0  0  0  0
    6.9001    0.3905    5.1002 C   0  0  0  0  0  0  0  0  0  0  0  0
    6.5823    0.9103    4.2081 H   0  0  0  0  0  0  0  0  0  0  0  0
    7.4669   -0.8685    5.0068 C   0  0  0  0  0  0  0  0  0  0  0  0
    7.5847   -1.3287    4.0369 H   0  0  0  0  0  0  0  0  0  0  0  0
    7.8918   -1.5311    6.1464 C   0  0  0  0  0  0  0  0  0  0  0  0
    8.3412   -2.5096    6.0652 H   0  0  0  0  0  0  0  0  0  0  0  0
    7.7558   -0.9323    7.3891 C   0  0  0  0  0  0  0  0  0  0  0  0
    8.0982   -1.4400    8.2783 H   0  0  0  0  0  0  0  0  0  0  0  0
    7.1947    0.3262    7.4903 C   0  0  0  0  0  0  0  0  0  0  0  0
    7.1031    0.8030    8.4584 H   0  0  0  0  0  0  0  0  0  0  0  0
    4.4473    2.4758    7.3039 C   0  0  0  0  0  0  0  0  0  0  0  0
    3.9342    1.2272    7.6187 C   0  0  0  0  0  0  0  0  0  0  0  0
    4.5273    0.3437    7.4259 H   0  0  0  0  0  0  0  0  0  0  0  0
    2.6722    1.0879    8.1868 C   0  0  0  0  0  0  0  0  0  0  0  0
    1.9154    2.2297    8.4270 C   0  0  0  0  0  0  0  0  0  0  0  0
    0.9335    2.1355    8.8664 H   0  0  0  0  0  0  0  0  0  0  0  0
    2.4125    3.4819    8.1271 C   0  0  0  0  0  0  0  0  0  0  0  0
    1.8349    4.3696    8.3332 H   0  0  0  0  0  0  0  0  0  0  0  0
    3.6815    3.6209    7.5728 C   0  0  0  0  0  0  0  0  0  0  0  0
    4.2377    4.9431    7.3587 C   0  0  0  0  0  0  0  0  0  0  0  0
    4.2530    7.1665    7.3014 C   0  0  0  0  0  0  0  0  0  0  0  0
    4.2063    7.8019    8.1891 H   0  0  0  0  0  0  0  0  0  0  0  0
    3.8479    7.7106    6.4433 H   0  0  0  0  0  0  0  0  0  0  0  0
    5.6781    6.6139    7.0330 C   0  0  0  0  0  0  0  0  0  0  0  0
    6.2344    7.0511    5.6810 C   0  0  0  0  0  0  0  0  0  0  0  0
    7.2192    6.6161    5.5321 H   0  0  0  0  0  0  0  0  0  0  0  0
    6.3216    8.1344    5.6527 H   0  0  0  0  0  0  0  0  0  0  0  0
    5.5817    6.7213    4.8752 H   0  0  0  0  0  0  0  0  0  0  0  0
    6.6601    6.9551    8.1563 C   0  0  0  0  0  0  0  0  0  0  0  0
    6.2231    6.7341    9.1296 H   0  0  0  0  0  0  0  0  0  0  0  0
    6.9413    8.0044    8.1190 H   0  0  0  0  0  0  0  0  0  0  0  0
    7.5677    6.3524    8.0342 H   0  0  0  0  0  0  0  0  0  0  0  0
    2.1600   -0.2690    8.5500 C   0  0  0  0  0  0  0  0  0  0  0  0
    1.0785   -0.2625    8.6584 H   0  0  0  0  0  0  0  0  0  0  0  0
    2.5963   -0.5792    9.4996 H   0  0  0  0  0  0  0  0  0  0  0  0
    2.4405   -1.0045    7.7990 H   0  0  0  0  0  0  0  0  0  0  0  0
  1  2  1  0  0  0  0
  3  1  1  0  0  0  0
  4 38  2  0  0  0  0
  6 29  1  0  0  0  0
  6  1  1  0  0  0  0
  7  6  1  0  0  0  0
  8  7  1  0  0  0  0
  8  9  1  0  0  0  0
 10  8  2  0  0  0  0
 11 10  1  0  0  0  0
 12 14  2  0  0  0  0
 12 10  1  0  0  0  0
 13 12  1  0  0  0  0
 14 16  1  0  0  0  0
 15 14  1  0  0  0  0
 16 17  1  0  0  0  0
 16  7  2  0  0  0  0
 18  6  1  0  0  0  0
 18 27  1  0  0  0  0
 19 18  2  0  0  0  0
 20 19  1  0  0  0  0
 21 19  1  0  0  0  0
 21 23  2  0  0  0  0
 22 21  1  0  0  0  0
 23 25  1  0  0  0  0
 24 23  1  0  0  0  0
 25 27  2  0  0  0  0
 25 26  1  0  0  0  0
 27 28  1  0  0  0  0
 29 37  2  0  0  0  0
 29 30  1  0  0  0  0
 30 32  2  0  0  0  0
 31 30  1  0  0  0  0
 32 33  1  0  0  0  0
 32 51  1  0  0  0  0
 33 34  1  0  0  0  0
 35 36  1  0  0  0  0
 35 33  2  0  0  0  0
 37 35  1  0  0  0  0
 38  5  1  0  0  0  0
 38 37  1  0  0  0  0
 39  5  1  0  0  0  0
 39 40  1  0  0  0  0
 41 39  1  0  0  0  0
 42  4  1  0  0  0  0
 42 39  1  0  0  0  0
 42 47  1  0  0  0  0
 43 42  1  0  0  0  0
 44 43  1  0  0  0  0
 45 43  1  0  0  0  0
 46 43  1  0  0  0  0
 47 48  1  0  0  0  0
 49 47  1  0  0  0  0
 50 47  1  0  0  0  0
 51 52  1  0  0  0  0
 51 53  1  0  0  0  0
 54 51  1  0  0  0  0
M  END
$$$$
