CSD_code = DAWJAN | q = 0 | S = 0 | Stoichiometry = C24H24Br2NNiO2P | MND = 4
 OpenBabel04212202023D

 55 59  0  0  1  0  0  0  0  0999 V2000
    1.8747    3.2173    3.0852 Ni  0  0  0  0  0  0  0  0  0  0  0  0
    1.4729    5.3414    2.6161 Br  0  0  0  0  0  0  0  0  0  0  0  0
    2.7062    1.1986    2.8112 Br  0  0  0  0  0  0  0  0  0  0  0  0
   -0.1101    2.5698    3.1207 P   0  0  0  0  0  4  0  0  0  0  0  0
    0.2967    4.3602    7.0938 O   0  0  0  0  0  0  0  0  0  0  0  0
   -3.7033    6.8629    5.1993 O   0  0  0  0  0  0  0  0  0  0  0  0
    1.1083    3.2195    5.3569 N   0  0  2  0  0  0  0  0  0  0  0  0
   -0.6868    2.2386    1.4282 C   0  0  0  0  0  0  0  0  0  0  0  0
    0.1380    2.5931    0.3676 C   0  0  0  0  0  0  0  0  0  0  0  0
    1.1017    3.0609    0.5674 H   0  0  0  0  0  0  0  0  0  0  0  0
   -0.2573    2.3433   -0.9341 C   0  0  0  0  0  0  0  0  0  0  0  0
    0.3857    2.6192   -1.7559 H   0  0  0  0  0  0  0  0  0  0  0  0
   -1.4767    1.7336   -1.1763 C   0  0  0  0  0  0  0  0  0  0  0  0
   -1.7879    1.5350   -2.1910 H   0  0  0  0  0  0  0  0  0  0  0  0
   -2.2979    1.3680   -0.1198 C   0  0  0  0  0  0  0  0  0  0  0  0
   -3.2446    0.8853   -0.3131 H   0  0  0  0  0  0  0  0  0  0  0  0
   -1.9074    1.6141    1.1828 C   0  0  0  0  0  0  0  0  0  0  0  0
   -2.5383    1.3224    2.0118 H   0  0  0  0  0  0  0  0  0  0  0  0
   -0.6143    1.0576    4.0033 C   0  0  0  0  0  0  0  0  0  0  0  0
   -0.3067   -0.1717    3.4267 C   0  0  0  0  0  0  0  0  0  0  0  0
    0.2296   -0.2074    2.4896 H   0  0  0  0  0  0  0  0  0  0  0  0
   -0.6685   -1.3464    4.0578 C   0  0  0  0  0  0  0  0  0  0  0  0
   -0.4152   -2.2940    3.6076 H   0  0  0  0  0  0  0  0  0  0  0  0
   -1.3433   -1.3061    5.2670 C   0  0  0  0  0  0  0  0  0  0  0  0
   -1.6180   -2.2233    5.7662 H   0  0  0  0  0  0  0  0  0  0  0  0
   -1.6684   -0.0856    5.8346 C   0  0  0  0  0  0  0  0  0  0  0  0
   -2.2043   -0.0490    6.7721 H   0  0  0  0  0  0  0  0  0  0  0  0
   -1.3072    1.0943    5.2076 C   0  0  0  0  0  0  0  0  0  0  0  0
   -1.5709    2.0408    5.6568 H   0  0  0  0  0  0  0  0  0  0  0  0
   -1.2197    3.8450    3.7855 C   0  0  0  0  0  0  0  0  0  0  0  0
   -2.2911    4.3355    3.0446 C   0  0  0  0  0  0  0  0  0  0  0  0
   -2.4885    3.9390    2.0601 H   0  0  0  0  0  0  0  0  0  0  0  0
   -3.0969    5.3342    3.5443 C   0  0  0  0  0  0  0  0  0  0  0  0
   -3.9252    5.7169    2.9696 H   0  0  0  0  0  0  0  0  0  0  0  0
   -2.8524    5.8914    4.8043 C   0  0  0  0  0  0  0  0  0  0  0  0
   -1.7754    5.4242    5.5485 C   0  0  0  0  0  0  0  0  0  0  0  0
   -1.5299    5.8338    6.5149 H   0  0  0  0  0  0  0  0  0  0  0  0
   -0.9624    4.4170    5.0393 C   0  0  0  0  0  0  0  0  0  0  0  0
    0.1865    3.9759    5.8133 C   0  0  1  0  0  3  0  0  0  0  0  0
    1.4905    3.7707    7.6032 C   0  0  0  0  0  0  0  0  0  0  0  0
    1.2259    3.1270    8.4465 H   0  0  0  0  0  0  0  0  0  0  0  0
    2.1530    4.5680    7.9494 H   0  0  0  0  0  0  0  0  0  0  0  0
    2.0855    2.9742    6.4098 C   0  0  0  0  0  0  0  0  0  0  0  0
    2.1645    1.4735    6.6837 C   0  0  0  0  0  0  0  0  0  0  0  0
    1.1854    1.0845    6.9578 H   0  0  0  0  0  0  0  0  0  0  0  0
    2.8673    1.2797    7.4898 H   0  0  0  0  0  0  0  0  0  0  0  0
    2.4988    0.9531    5.7896 H   0  0  0  0  0  0  0  0  0  0  0  0
    3.4394    3.5227    5.9592 C   0  0  0  0  0  0  0  0  0  0  0  0
    3.7246    3.0513    5.0150 H   0  0  0  0  0  0  0  0  0  0  0  0
    4.2074    3.3008    6.6959 H   0  0  0  0  0  0  0  0  0  0  0  0
    3.3859    4.6010    5.8112 H   0  0  0  0  0  0  0  0  0  0  0  0
   -3.4699    7.5122    6.4290 C   0  0  0  0  0  0  0  0  0  0  0  0
   -3.5325    6.8144    7.2697 H   0  0  0  0  0  0  0  0  0  0  0  0
   -4.2579    8.2576    6.5203 H   0  0  0  0  0  0  0  0  0  0  0  0
   -2.4963    8.0105    6.4379 H   0  0  0  0  0  0  0  0  0  0  0  0
  1  4  1  0  0  0  0
  1  7  1  0  0  0  0
  2  1  1  0  0  0  0
  3  1  1  0  0  0  0
  4 30  1  0  0  0  0
  4 19  1  0  0  0  0
  5 40  1  0  0  0  0
  6 52  1  0  0  0  0
  7 39  1  0  0  0  0
  7 43  1  1  0  0  0
  8  4  1  0  0  0  0
  9 10  1  0  0  0  0
  9  8  2  0  0  0  0
 11  9  1  0  0  0  0
 12 11  1  0  0  0  0
 13 11  2  0  0  0  0
 13 15  1  0  0  0  0
 14 13  1  0  0  0  0
 15 17  2  0  0  0  0
 16 15  1  0  0  0  0
 17  8  1  0  0  0  0
 17 18  1  0  0  0  0
 19 28  1  0  0  0  0
 20 19  2  0  0  0  0
 20 22  1  0  0  0  0
 21 20  1  0  0  0  0
 22 24  2  0  0  0  0
 23 22  1  0  0  0  0
 24 25  1  0  0  0  0
 24 26  1  0  0  0  0
 26 27  1  0  0  0  0
 28 29  1  0  0  0  0
 28 26  2  0  0  0  0
 30 38  1  0  0  0  0
 31 33  1  0  0  0  0
 31 30  2  0  0  0  0
 32 31  1  0  0  0  0
 33 35  2  0  0  0  0
 34 33  1  0  0  0  0
 35  6  1  0  0  0  0
 35 36  1  0  0  0  0
 36 37  1  0  0  0  0
 38 36  2  0  0  0  0
 39 38  1  1  0  0  0
 39  5  1  0  0  0  0
 40 42  1  0  0  0  0
 40 41  1  0  0  0  0
 43 44  1  0  0  0  0
 43 40  1  0  0  0  0
 44 45  1  0  0  0  0
 44 46  1  0  0  0  0
 47 44  1  0  0  0  0
 48 43  1  0  0  0  0
 48 50  1  0  0  0  0
 49 48  1  0  0  0  0
 51 48  1  0  0  0  0
 52 55  1  0  0  0  0
 52 54  1  0  0  0  0
 52 53  1  0  0  0  0
M  END
$$$$
