CSD_code = DAXHOA | q = 0 | S = 0 | Stoichiometry = C20H18Cl2N6Zn | MND = 4
 OpenBabel04212202023D

 47 50  0  0  0  0  0  0  0  0999 V2000
    8.1651    0.7775    7.6734 Zn  0  0  0  0  0  0  0  0  0  0  0  0
    7.8356   -1.2662    6.8288 Cl  0  0  0  0  0  0  0  0  0  0  0  0
    8.1059    1.6833    9.6567 Cl  0  0  0  0  0  0  0  0  0  0  0  0
    9.6366    1.5724    6.3390 N   0  0  0  0  0  0  0  0  0  0  0  0
   10.3732    0.7798    2.8427 N   0  0  0  0  0  0  0  0  0  0  0  0
   10.9404    1.2472    2.1463 H   0  0  0  0  0  0  0  0  0  0  0  0
    8.1994   -2.2805    0.9982 N   0  0  0  0  0  0  0  0  0  0  0  0
    6.4234    1.6027    6.6507 N   0  0  0  0  0  0  0  0  0  0  0  0
    5.1962    1.2485    3.2302 N   0  0  0  0  0  0  0  0  0  0  0  0
    4.3757    0.8052    2.8415 H   0  0  0  0  0  0  0  0  0  0  0  0
    8.2364    2.0100    0.4738 N   0  0  0  0  0  0  0  0  0  0  0  0
   10.0530    2.8314    6.4013 C   0  0  0  0  0  3  0  0  0  0  0  0
    9.9055    3.3397    7.3417 H   0  0  0  0  0  0  0  0  0  0  0  0
   10.6639    3.4463    5.3184 C   0  0  0  0  0  0  0  0  0  0  0  0
   11.0308    4.4564    5.4058 H   0  0  0  0  0  0  0  0  0  0  0  0
   10.7763    2.7570    4.1285 C   0  0  0  0  0  0  0  0  0  0  0  0
   11.2338    3.2197    3.2653 H   0  0  0  0  0  0  0  0  0  0  0  0
   10.2904    1.4435    4.0397 C   0  0  0  0  0  0  0  0  0  0  0  0
    9.7787    0.8832    5.2151 C   0  0  0  0  0  0  0  0  0  0  0  0
    9.4912   -0.1543    5.2746 H   0  0  0  0  0  0  0  0  0  0  0  0
    9.6305   -0.2648    2.3145 C   0  0  0  0  0  0  0  0  0  0  0  0
    9.9732   -0.6903    1.0257 C   0  0  0  0  0  0  0  0  0  0  0  0
   10.7982   -0.2306    0.5028 H   0  0  0  0  0  0  0  0  0  0  0  0
    9.2346   -1.6882    0.4240 C   0  0  0  0  0  0  0  0  0  0  0  0
    9.4793   -2.0324   -0.5716 H   0  0  0  0  0  0  0  0  0  0  0  0
    7.8793   -1.8842    2.2160 C   0  0  0  0  0  0  0  0  0  0  0  0
    7.0326   -2.3847    2.6659 H   0  0  0  0  0  0  0  0  0  0  0  0
    8.5431   -0.8927    2.9207 C   0  0  0  0  0  0  0  0  0  0  0  0
    8.1855   -0.6398    3.9019 H   0  0  0  0  0  0  0  0  0  0  0  0
    5.2818    1.7430    7.3157 C   0  0  0  0  0  3  0  0  0  0  0  0
    5.3672    1.8817    8.3833 H   0  0  0  0  0  0  0  0  0  0  0  0
    4.0509    1.6961    6.6786 C   0  0  0  0  0  0  0  0  0  0  0  0
    3.1431    1.7857    7.2531 H   0  0  0  0  0  0  0  0  0  0  0  0
    4.0030    1.5192    5.3100 C   0  0  0  0  0  0  0  0  0  0  0  0
    3.0580    1.4516    4.7907 H   0  0  0  0  0  0  0  0  0  0  0  0
    5.2030    1.4258    4.5973 C   0  0  0  0  0  0  0  0  0  0  0  0
    6.3866    1.4564    5.3364 C   0  0  0  0  0  0  0  0  0  0  0  0
    7.3374    1.3175    4.8467 H   0  0  0  0  0  0  0  0  0  0  0  0
    6.2211    1.5069    2.3426 C   0  0  0  0  0  0  0  0  0  0  0  0
    6.2668    0.8298    1.1206 C   0  0  0  0  0  0  0  0  0  0  0  0
    5.5235    0.0866    0.8771 H   0  0  0  0  0  0  0  0  0  0  0  0
    7.2907    1.1137    0.2380 C   0  0  0  0  0  0  0  0  0  0  0  0
    7.3640    0.5930   -0.7066 H   0  0  0  0  0  0  0  0  0  0  0  0
    8.1660    2.6816    1.6111 C   0  0  0  0  0  0  0  0  0  0  0  0
    8.9279    3.4368    1.7566 H   0  0  0  0  0  0  0  0  0  0  0  0
    7.1961    2.4806    2.5746 C   0  0  0  0  0  0  0  0  0  0  0  0
    7.1802    3.0866    3.4664 H   0  0  0  0  0  0  0  0  0  0  0  0
  1  3  1  0  0  0  0
  2  1  1  0  0  0  0
  4 12  1  0  0  0  0
  4  1  1  0  0  0  0
  5 18  1  0  0  0  0
  6  5  1  0  0  0  0
  7 26  1  0  0  0  0
  8 30  1  0  0  0  0
  8  1  1  0  0  0  0
  9 36  1  0  0  0  0
 10  9  1  0  0  0  0
 11 44  1  0  0  0  0
 12 13  1  0  0  0  0
 14 15  1  0  0  0  0
 14 12  1  0  0  0  0
 16 14  2  0  0  0  0
 17 16  1  0  0  0  0
 18 16  1  0  0  0  0
 18 19  2  0  0  0  0
 19 20  1  0  0  0  0
 19  4  1  0  0  0  0
 21  5  1  0  0  0  0
 21 28  1  0  0  0  0
 22 21  2  0  0  0  0
 23 22  1  0  0  0  0
 24  7  2  0  0  0  0
 24 22  1  0  0  0  0
 25 24  1  0  0  0  0
 26 27  1  0  0  0  0
 26 28  2  0  0  0  0
 28 29  1  0  0  0  0
 30 31  1  0  0  0  0
 32 33  1  0  0  0  0
 32 30  1  0  0  0  0
 34 32  2  0  0  0  0
 35 34  1  0  0  0  0
 36 34  1  0  0  0  0
 36 37  2  0  0  0  0
 37  8  1  0  0  0  0
 38 37  1  0  0  0  0
 39 46  1  0  0  0  0
 39  9  1  0  0  0  0
 40 39  2  0  0  0  0
 41 40  1  0  0  0  0
 42 11  2  0  0  0  0
 42 40  1  0  0  0  0
 43 42  1  0  0  0  0
 44 45  1  0  0  0  0
 44 46  2  0  0  0  0
 46 47  1  0  0  0  0
M  END
$$$$
