CSD_code = DAXHES | q = 0 | S = 0 | Stoichiometry = C22H28Br2N4Pd | MND = 4
 OpenBabel04212202023D

 57 60  0  0  0  0  0  0  0  0999 V2000
    4.1900    2.6542    9.2353 Pd  0  0  0  0  0  0  0  0  0  0  0  0
    6.3635    3.7256    8.9887 Br  0  0  0  0  0  0  0  0  0  0  0  0
    2.0262    5.1569    6.7149 N   0  0  0  0  0  0  0  0  0  0  0  0
    3.3645    3.8757    7.9268 N   0  0  0  0  0  0  0  0  0  0  0  0
   -2.1521    4.0206    7.5184 C   0  0  0  0  0  0  0  0  0  0  0  0
   -2.9248    4.7425    7.2622 H   0  0  0  0  0  0  0  0  0  0  0  0
   -2.4172    3.5464    8.4590 H   0  0  0  0  0  0  0  0  0  0  0  0
   -2.1255    3.2543    6.7475 H   0  0  0  0  0  0  0  0  0  0  0  0
   -0.7945    4.7005    7.6382 C   0  0  0  0  0  0  0  0  0  0  0  0
   -0.0549    3.9521    7.9294 H   0  0  0  0  0  0  0  0  0  0  0  0
   -0.8365    5.4573    8.4254 H   0  0  0  0  0  0  0  0  0  0  0  0
   -0.3846    5.3595    6.3222 C   0  0  0  0  0  0  0  0  0  0  0  0
   -1.1411    6.0892    6.0270 H   0  0  0  0  0  0  0  0  0  0  0  0
   -0.3274    4.5983    5.5414 H   0  0  0  0  0  0  0  0  0  0  0  0
    0.9646    6.0810    6.4189 C   0  0  0  0  0  0  0  0  0  0  0  0
    1.1937    6.5815    5.4735 H   0  0  0  0  0  0  0  0  0  0  0  0
    0.9335    6.8312    7.2132 H   0  0  0  0  0  0  0  0  0  0  0  0
    2.5135    4.8670    7.9433 C   0  0  0  0  0  3  0  0  0  0  0  0
    2.2255    5.4125    8.8250 H   0  0  0  0  0  0  0  0  0  0  0  0
    2.5955    4.2602    5.8416 C   0  0  0  0  0  0  0  0  0  0  0  0
    3.4440    3.4536    6.6244 C   0  0  0  0  0  0  0  0  0  0  0  0
    4.1781    2.4065    6.0734 C   0  0  0  0  0  0  0  0  0  0  0  0
    4.8231    1.7877    6.7036 H   0  0  0  0  0  0  0  0  0  0  0  0
    4.0465    2.2034    4.7174 C   0  0  0  0  0  0  0  0  0  0  0  0
    4.5929    1.4045    4.2401 H   0  0  0  0  0  0  0  0  0  0  0  0
    3.2152    3.0131    3.9362 C   0  0  0  0  0  0  0  0  0  0  0  0
    3.1460    2.8162    2.8771 H   0  0  0  0  0  0  0  0  0  0  0  0
    2.4771    4.0473    4.4746 C   0  0  0  0  0  0  0  0  0  0  0  0
    1.8359    4.6584    3.8585 H   0  0  0  0  0  0  0  0  0  0  0  0
    2.0158    1.5840    9.4849 Br  0  0  0  0  0  0  0  0  0  0  0  0
    6.3526    0.1528   11.7579 N   0  0  0  0  0  0  0  0  0  0  0  0
    5.0143    1.4339   10.5458 N   0  0  0  0  0  0  0  0  0  0  0  0
   10.5308    1.2893   10.9545 C   0  0  0  0  0  0  0  0  0  0  0  0
   11.3036    0.5673   11.2107 H   0  0  0  0  0  0  0  0  0  0  0  0
   10.7960    1.7634   10.0139 H   0  0  0  0  0  0  0  0  0  0  0  0
   10.5043    2.0556   11.7254 H   0  0  0  0  0  0  0  0  0  0  0  0
    9.1732    0.6093   10.8347 C   0  0  0  0  0  0  0  0  0  0  0  0
    8.4336    1.3578   10.5436 H   0  0  0  0  0  0  0  0  0  0  0  0
    9.2152   -0.1474   10.0476 H   0  0  0  0  0  0  0  0  0  0  0  0
    8.7635   -0.0497   12.1507 C   0  0  0  0  0  0  0  0  0  0  0  0
    9.5200   -0.7793   12.4459 H   0  0  0  0  0  0  0  0  0  0  0  0
    8.7062    0.7115   12.9316 H   0  0  0  0  0  0  0  0  0  0  0  0
    7.4142   -0.7712   12.0540 C   0  0  0  0  0  0  0  0  0  0  0  0
    7.1853   -1.2717   12.9994 H   0  0  0  0  0  0  0  0  0  0  0  0
    7.4455   -1.5214   11.2597 H   0  0  0  0  0  0  0  0  0  0  0  0
    5.8652    0.4425   10.5296 C   0  0  0  0  0  3  0  0  0  0  0  0
    6.1533   -0.1030    9.6480 H   0  0  0  0  0  0  0  0  0  0  0  0
    5.7833    1.0496   12.6311 C   0  0  0  0  0  0  0  0  0  0  0  0
    4.9348    1.8562   11.8482 C   0  0  0  0  0  0  0  0  0  0  0  0
    4.2009    2.9034   12.3991 C   0  0  0  0  0  0  0  0  0  0  0  0
    3.5557    3.5221   11.7689 H   0  0  0  0  0  0  0  0  0  0  0  0
    4.3325    3.1066   13.7552 C   0  0  0  0  0  0  0  0  0  0  0  0
    3.7859    3.9054   14.2324 H   0  0  0  0  0  0  0  0  0  0  0  0
    5.1637    2.2969   14.5364 C   0  0  0  0  0  0  0  0  0  0  0  0
    5.2328    2.4938   15.5956 H   0  0  0  0  0  0  0  0  0  0  0  0
    5.9017    1.2626   13.9981 C   0  0  0  0  0  0  0  0  0  0  0  0
    6.5428    0.6515   14.6143 H   0  0  0  0  0  0  0  0  0  0  0  0
  1 30  1  0  0  0  0
  1 32  1  0  0  0  0
  2  1  1  0  0  0  0
  3 18  1  0  0  0  0
  4 18  1  0  0  0  0
  4  1  1  0  0  0  0
  5  9  1  0  0  0  0
  5  7  1  0  0  0  0
  6  5  1  0  0  0  0
  8  5  1  0  0  0  0
  9 10  1  0  0  0  0
  9 11  1  0  0  0  0
 12 15  1  0  0  0  0
 12  9  1  0  0  0  0
 13 12  1  0  0  0  0
 14 12  1  0  0  0  0
 15  3  1  0  0  0  0
 15 17  1  0  0  0  0
 16 15  1  0  0  0  0
 18 19  1  0  0  0  0
 20 21  1  0  0  0  0
 20  3  1  0  0  0  0
 21  4  1  0  0  0  0
 22 21  2  0  0  0  0
 22 23  1  0  0  0  0
 24 22  1  0  0  0  0
 25 24  1  0  0  0  0
 26 28  1  0  0  0  0
 26 24  2  0  0  0  0
 27 26  1  0  0  0  0
 28 20  2  0  0  0  0
 29 28  1  0  0  0  0
 31 43  1  0  0  0  0
 31 48  1  0  0  0  0
 32 49  1  0  0  0  0
 33 34  1  0  0  0  0
 33 36  1  0  0  0  0
 35 33  1  0  0  0  0
 37 33  1  0  0  0  0
 37 40  1  0  0  0  0
 38 37  1  0  0  0  0
 39 37  1  0  0  0  0
 40 41  1  0  0  0  0
 40 42  1  0  0  0  0
 43 40  1  0  0  0  0
 43 44  1  0  0  0  0
 45 43  1  0  0  0  0
 46 32  1  0  0  0  0
 46 31  1  0  0  0  0
 47 46  1  0  0  0  0
 48 56  1  0  0  0  0
 49 50  1  0  0  0  0
 49 48  2  0  0  0  0
 50 52  2  0  0  0  0
 51 50  1  0  0  0  0
 52 53  1  0  0  0  0
 52 54  1  0  0  0  0
 54 55  1  0  0  0  0
 56 54  2  0  0  0  0
 56 57  1  0  0  0  0
M  END
$$$$
