CSD_code = DAXPOI | q = 0 | S = 0 | Stoichiometry = C10H11BrMnN3O3 | MND = 6
 OpenBabel04212202023D

 29 30  0  0  1  0  0  0  0  0999 V2000
    4.8860    2.2139    6.5833 Mn  0  0  0  0  0  0  0  0  0  0  0  0
    2.9517    2.3129    8.1450 Br  0  0  0  0  0  0  0  0  0  0  0  0
    3.9814    3.7921    5.6549 N   0  0  1  0  0  0  0  0  0  0  0  0
    2.9275    3.4319    4.8729 N   0  0  0  0  0  0  0  0  0  0  0  0
    3.6047    1.3390    5.3025 N   0  0  0  0  0  0  0  0  0  0  0  0
    6.2782    2.1878    5.4850 C   0  0  0  0  0  2  0  0  0  0  0  0
    7.2136    2.1569    4.8145 O   0  0  0  0  0  1  0  0  0  0  0  0
    5.8197    3.0888    7.8278 C   0  0  0  0  0  2  0  0  0  0  0  0
    6.4140    3.5836    8.6775 O   0  0  0  0  0  1  0  0  0  0  0  0
    5.4164    0.6887    7.3404 C   0  0  0  0  0  2  0  0  0  0  0  0
    5.7704   -0.2740    7.8548 O   0  0  0  0  0  1  0  0  0  0  0  0
    2.7448    2.0751    4.7016 C   0  0  1  0  0  3  0  0  0  0  0  0
    1.6082    1.5478    3.8927 C   0  0  0  0  0  0  0  0  0  0  0  0
    1.6618    0.4616    3.8533 H   0  0  0  0  0  0  0  0  0  0  0  0
    1.6327    1.9336    2.8762 H   0  0  0  0  0  0  0  0  0  0  0  0
    0.6606    1.8253    4.3514 H   0  0  0  0  0  0  0  0  0  0  0  0
    4.0055    5.1089    5.7088 C   0  0  1  0  0  3  0  0  0  0  0  0
    2.9388    5.6222    4.9433 C   0  0  0  0  0  0  0  0  0  0  0  0
    2.6991    6.6562    4.8026 H   0  0  0  0  0  0  0  0  0  0  0  0
    2.2658    4.5473    4.4237 C   0  0  0  0  0  0  0  0  0  0  0  0
    5.0088    5.8750    6.4858 C   0  0  0  0  0  0  0  0  0  0  0  0
    4.7555    5.8459    7.5464 H   0  0  0  0  0  0  0  0  0  0  0  0
    5.0224    6.9120    6.1616 H   0  0  0  0  0  0  0  0  0  0  0  0
    6.0007    5.4408    6.3634 H   0  0  0  0  0  0  0  0  0  0  0  0
    1.0595    4.5697    3.5607 C   0  0  0  0  0  0  0  0  0  0  0  0
    0.7728    5.6063    3.4036 H   0  0  0  0  0  0  0  0  0  0  0  0
    0.2239    4.0539    4.0304 H   0  0  0  0  0  0  0  0  0  0  0  0
    1.2484    4.1189    2.5874 H   0  0  0  0  0  0  0  0  0  0  0  0
    3.4522    0.3370    5.1920 H   0  0  0  0  0  0  0  0  0  0  0  0
  1 10  1  0  0  0  0
  1  8  1  0  0  0  0
  1  2  1  0  0  0  0
  3  4  1  1  0  0  0
  3 17  1  0  0  0  0
  3  1  1  0  0  0  0
  5  1  1  0  0  0  0
  6  1  1  0  0  0  0
  7  6  1  0  0  0  0
  8  9  1  0  0  0  0
 10 11  1  0  0  0  0
 12 13  1  1  0  0  0
 12  4  1  0  0  0  0
 12  5  1  0  0  0  0
 13 16  1  0  0  0  0
 14 13  1  0  0  0  0
 15 13  1  0  0  0  0
 17 21  1  1  0  0  0
 18 17  1  0  0  0  0
 19 18  1  0  0  0  0
 20  4  1  0  0  0  0
 20 18  2  0  0  0  0
 21 22  1  0  0  0  0
 23 21  1  0  0  0  0
 24 21  1  0  0  0  0
 25 27  1  0  0  0  0
 25 20  1  0  0  0  0
 26 25  1  0  0  0  0
 28 25  1  0  0  0  0
 29  5  1  0  0  0  0
M  END
$$$$
