CSD_code = DAXPIC | q = 0 | S = 0 | Stoichiometry = C13H16BrMnN4O3 | MND = 6
 OpenBabel04212202023D

 38 39  0  0  1  0  0  0  0  0999 V2000
   12.4162    8.2080   10.7300 Mn  0  0  0  0  0  0  0  0  0  0  0  0
   11.2579    7.6179   12.8683 Br  0  0  0  0  0  0  0  0  0  0  0  0
   11.2689   10.0306   10.7518 N   0  0  0  0  0  0  0  0  0  0  0  0
   11.0404   10.6456   11.9247 N   0  0  0  0  0  0  0  0  0  0  0  0
   11.3136   10.2017   12.7955 H   0  0  0  0  0  0  0  0  0  0  0  0
   10.7610    7.4097    9.6826 N   0  0  0  0  0  0  0  0  0  0  0  0
    9.5352    7.5141   10.2221 N   0  0  0  0  0  0  0  0  0  0  0  0
    9.4372    7.7646   11.2037 H   0  0  0  0  0  0  0  0  0  0  0  0
   13.3843    8.6383    9.3120 C   0  0  0  0  0  2  0  0  0  0  0  0
   14.1513    8.8870    8.4867 O   0  0  0  0  0  1  0  0  0  0  0  0
   13.2741    6.6526   10.8061 C   0  0  0  0  0  2  0  0  0  0  0  0
   13.8818    5.6798   10.8765 O   0  0  0  0  0  1  0  0  0  0  0  0
   13.7385    8.9295   11.6699 C   0  0  0  0  0  2  0  0  0  0  0  0
   14.6394    9.3539   12.2470 O   0  0  0  0  0  1  0  0  0  0  0  0
   10.3390   11.7808   11.7726 C   0  0  2  0  0  3  0  0  0  0  0  0
   10.1137   11.9104   10.4175 C   0  0  0  0  0  0  0  0  0  0  0  0
    9.5902   12.6993    9.9184 H   0  0  0  0  0  0  0  0  0  0  0  0
   10.7127   10.7949    9.8152 C   0  0  0  0  0  0  0  0  0  0  0  0
    9.9578   12.6344   12.9229 C   0  0  0  0  0  0  0  0  0  0  0  0
   10.8408   13.1048   13.3549 H   0  0  0  0  0  0  0  0  0  0  0  0
    9.4804   12.0374   13.6985 H   0  0  0  0  0  0  0  0  0  0  0  0
    9.2728   13.4126   12.5995 H   0  0  0  0  0  0  0  0  0  0  0  0
   10.7273   10.4701    8.3648 C   0  0  0  0  0  0  0  0  0  0  0  0
   11.6095    9.8847    8.1138 H   0  0  0  0  0  0  0  0  0  0  0  0
   10.7276   11.3870    7.7805 H   0  0  0  0  0  0  0  0  0  0  0  0
    9.8422    9.8929    8.0929 H   0  0  0  0  0  0  0  0  0  0  0  0
    8.5802    7.0550    9.3956 C   0  0  2  0  0  3  0  0  0  0  0  0
    9.2302    6.6554    8.2459 C   0  0  0  0  0  0  0  0  0  0  0  0
    8.7907    6.2390    7.3632 H   0  0  0  0  0  0  0  0  0  0  0  0
   10.5951    6.8869    8.4706 C   0  0  0  0  0  0  0  0  0  0  0  0
    7.1457    7.0493    9.7713 C   0  0  0  0  0  0  0  0  0  0  0  0
    7.0086    6.5682   10.7386 H   0  0  0  0  0  0  0  0  0  0  0  0
    6.5676    6.5139    9.0240 H   0  0  0  0  0  0  0  0  0  0  0  0
    6.7644    8.0681    9.8438 H   0  0  0  0  0  0  0  0  0  0  0  0
   11.7126    6.5984    7.5347 C   0  0  0  0  0  0  0  0  0  0  0  0
   11.9463    7.4746    6.9296 H   0  0  0  0  0  0  0  0  0  0  0  0
   11.4322    5.7886    6.8657 H   0  0  0  0  0  0  0  0  0  0  0  0
   12.6092    6.3143    8.0844 H   0  0  0  0  0  0  0  0  0  0  0  0
  1  3  1  0  0  0  0
  1 11  1  0  0  0  0
  1 13  1  0  0  0  0
  1  2  1  0  0  0  0
  3  4  1  0  0  0  0
  4  5  1  0  0  0  0
  6  7  1  0  0  0  0
  6  1  1  0  0  0  0
  7  8  1  0  0  0  0
  9  1  1  0  0  0  0
 10  9  1  0  0  0  0
 11 12  1  0  0  0  0
 13 14  1  0  0  0  0
 15  4  1  0  0  0  0
 15 19  1  6  0  0  0
 16 15  1  0  0  0  0
 17 16  1  0  0  0  0
 18 16  2  0  0  0  0
 18  3  1  0  0  0  0
 19 20  1  0  0  0  0
 19 21  1  0  0  0  0
 22 19  1  0  0  0  0
 23 18  1  0  0  0  0
 24 23  1  0  0  0  0
 25 23  1  0  0  0  0
 26 23  1  0  0  0  0
 27 31  1  6  0  0  0
 27  7  1  0  0  0  0
 28 30  2  0  0  0  0
 28 27  1  0  0  0  0
 29 28  1  0  0  0  0
 30  6  1  0  0  0  0
 31 34  1  0  0  0  0
 31 32  1  0  0  0  0
 33 31  1  0  0  0  0
 35 38  1  0  0  0  0
 35 30  1  0  0  0  0
 36 35  1  0  0  0  0
 37 35  1  0  0  0  0
M  END
$$$$
