CSD_code = DAYKOD | q = 1 | S = 0 | Stoichiometry = C8H24Cl2CoN4(1+) | MND = 6
 OpenBabel04212202023D

 39 40  0  0  0  0  0  0  0  0999 V2000
   -0.6824    7.8450   16.1399 Co  0  0  0  0  0  0  0  0  0  0  0  0
   -0.0327    5.7731   16.6125 Cl  0  0  0  0  0  0  0  0  0  0  0  0
   -1.3322    9.9190   15.6772 Cl  0  0  0  0  0  0  0  0  0  0  0  0
   -2.0462    7.1868   14.8827 N   0  0  0  0  0  4  0  0  0  0  0  0
   -2.1128    7.6731   17.4616 N   0  0  0  0  0  4  0  0  0  0  0  0
    0.6770    8.5262   17.3690 N   0  0  0  0  0  4  0  0  0  0  0  0
    0.7367    8.0388   14.7900 N   0  0  0  0  0  4  0  0  0  0  0  0
   -3.3522    6.8558   15.5238 C   0  0  0  0  0  0  0  0  0  0  0  0
   -3.4203    7.7258   16.7864 C   0  0  0  0  0  0  0  0  0  0  0  0
   -3.3835    5.3676   15.8610 C   0  0  0  0  0  0  0  0  0  0  0  0
   -4.4929    7.2111   14.5719 C   0  0  0  0  0  0  0  0  0  0  0  0
    1.6890    9.2871   16.6173 C   0  0  0  0  0  0  0  0  0  0  0  0
    2.0411    8.5051   15.3442 C   0  0  0  0  0  0  0  0  0  0  0  0
    2.7282    9.4199   14.3321 C   0  0  0  0  0  0  0  0  0  0  0  0
    2.9186    7.2943   15.6499 C   0  0  0  0  0  0  0  0  0  0  0  0
   -1.7488    6.3733   14.3408 H   0  0  0  0  0  0  0  0  0  0  0  0
   -2.2158    7.9538   14.2259 H   0  0  0  0  0  0  0  0  0  0  0  0
   -2.1128    8.3708   18.2062 H   0  0  0  0  0  0  0  0  0  0  0  0
   -2.0070    6.7561   17.9043 H   0  0  0  0  0  0  0  0  0  0  0  0
    1.1279    7.7153   17.8016 H   0  0  0  0  0  0  0  0  0  0  0  0
    0.3313    9.1193   18.1239 H   0  0  0  0  0  0  0  0  0  0  0  0
    0.4081    8.7585   14.1401 H   0  0  0  0  0  0  0  0  0  0  0  0
    0.9119    7.1891   14.2505 H   0  0  0  0  0  0  0  0  0  0  0  0
   -4.2234    7.3901   17.4478 H   0  0  0  0  0  0  0  0  0  0  0  0
   -3.6092    8.7620   16.4985 H   0  0  0  0  0  0  0  0  0  0  0  0
   -4.2645    5.1305   16.4497 H   0  0  0  0  0  0  0  0  0  0  0  0
   -2.4998    5.0680   16.4167 H   0  0  0  0  0  0  0  0  0  0  0  0
   -3.4252    4.7754   14.9501 H   0  0  0  0  0  0  0  0  0  0  0  0
   -4.4241    6.6313   13.6547 H   0  0  0  0  0  0  0  0  0  0  0  0
   -4.4757    8.2696   14.3210 H   0  0  0  0  0  0  0  0  0  0  0  0
   -5.4500    6.9905   15.0353 H   0  0  0  0  0  0  0  0  0  0  0  0
    1.2504   10.2475   16.3390 H   0  0  0  0  0  0  0  0  0  0  0  0
    2.5815    9.4672   17.2225 H   0  0  0  0  0  0  0  0  0  0  0  0
    2.9369    8.8849   13.4088 H   0  0  0  0  0  0  0  0  0  0  0  0
    3.6727    9.7777   14.7312 H   0  0  0  0  0  0  0  0  0  0  0  0
    2.1087   10.2849   14.1050 H   0  0  0  0  0  0  0  0  0  0  0  0
    3.8149    7.5997   16.1813 H   0  0  0  0  0  0  0  0  0  0  0  0
    3.2301    6.8117   14.7268 H   0  0  0  0  0  0  0  0  0  0  0  0
    2.3881    6.5613   16.2505 H   0  0  0  0  0  0  0  0  0  0  0  0
  1  2  1  0  0  0  0
  1  6  1  0  0  0  0
  1  5  1  0  0  0  0
  3  1  1  0  0  0  0
  4  8  1  0  0  0  0
  4  1  1  0  0  0  0
  5 19  1  0  0  0  0
  5 18  1  0  0  0  0
  6 20  1  0  0  0  0
  6 21  1  0  0  0  0
  7 13  1  0  0  0  0
  7  1  1  0  0  0  0
  8 10  1  0  0  0  0
  8  9  1  0  0  0  0
  9 24  1  0  0  0  0
  9  5  1  0  0  0  0
 10 27  1  0  0  0  0
 10 26  1  0  0  0  0
 11 31  1  0  0  0  0
 11  8  1  0  0  0  0
 12 33  1  0  0  0  0
 12  6  1  0  0  0  0
 13 15  1  0  0  0  0
 13 12  1  0  0  0  0
 14 35  1  0  0  0  0
 14 13  1  0  0  0  0
 15 37  1  0  0  0  0
 15 39  1  0  0  0  0
 16  4  1  0  0  0  0
 17  4  1  0  0  0  0
 22  7  1  0  0  0  0
 23  7  1  0  0  0  0
 25  9  1  0  0  0  0
 28 10  1  0  0  0  0
 29 11  1  0  0  0  0
 30 11  1  0  0  0  0
 32 12  1  0  0  0  0
 34 14  1  0  0  0  0
 36 14  1  0  0  0  0
 38 15  1  0  0  0  0
M  END
$$$$
