CSD_code = DAYLIA | q = 0 | S = 0 | Stoichiometry = C20H14ClN2O4Re | MND = 6
 OpenBabel04212202023D

 42 45  0  0  1  0  0  0  0  0999 V2000
    9.2527   11.3171    8.5687 Re  0  0  0  0  0  0  0  0  0  0  0  0
   11.2628   12.5918    8.5851 Cl  0  0  0  0  0  0  0  0  0  0  0  0
    8.8454   12.0249   11.5545 O   0  0  0  0  0  1  0  0  0  0  0  0
    6.7533    9.5295    8.2633 O   0  0  0  0  0  1  0  0  0  0  0  0
    7.7040   13.9118    7.9363 O   0  0  0  0  0  1  0  0  0  0  0  0
    8.7603    8.1026   10.1130 O   0  0  0  0  0  0  0  0  0  0  0  0
   10.7713    9.7418    8.7098 N   0  0  0  0  0  0  0  0  0  0  0  0
    9.8194   10.9570    6.5444 N   0  0  0  0  0  0  0  0  0  0  0  0
    8.9895   11.6929   10.4672 C   0  0  0  0  0  2  0  0  0  0  0  0
    7.6945   10.1751    8.4131 C   0  0  0  0  0  2  0  0  0  0  0  0
    8.2241   12.9234    8.1931 C   0  0  0  0  0  2  0  0  0  0  0  0
    9.2597   11.5325    5.4830 C   0  0  0  0  0  3  0  0  0  0  0  0
    8.3829   12.1385    5.6717 H   0  0  0  0  0  0  0  0  0  0  0  0
    9.7440   11.3862    4.1974 C   0  0  0  0  0  0  0  0  0  0  0  0
    9.2571   11.8864    3.3761 H   0  0  0  0  0  0  0  0  0  0  0  0
   10.8597   10.5868    3.9970 C   0  0  0  0  0  0  0  0  0  0  0  0
   11.2675   10.4396    3.0086 H   0  0  0  0  0  0  0  0  0  0  0  0
   11.4411    9.9798    5.0924 C   0  0  0  0  0  0  0  0  0  0  0  0
   12.3002    9.3442    4.9563 H   0  0  0  0  0  0  0  0  0  0  0  0
   10.9096   10.1927    6.3649 C   0  0  0  0  0  0  0  0  0  0  0  0
   11.4893    9.6034    7.5799 C   0  0  1  0  0  3  0  0  0  0  0  0
   12.7286    8.9690    7.5679 C   0  0  0  0  0  0  0  0  0  0  0  0
   13.3024    8.8978    6.6593 H   0  0  0  0  0  0  0  0  0  0  0  0
   13.2440    8.4640    8.7473 C   0  0  0  0  0  0  0  0  0  0  0  0
   14.2122    7.9869    8.7639 H   0  0  0  0  0  0  0  0  0  0  0  0
   12.4931    8.5902    9.8983 C   0  0  0  0  0  0  0  0  0  0  0  0
   12.8440    8.2069   10.8434 H   0  0  0  0  0  0  0  0  0  0  0  0
   11.2554    9.2309    9.8425 C   0  0  0  0  0  0  0  0  0  0  0  0
   10.4885    9.3481   11.0972 C   0  0  0  0  0  0  0  0  0  0  0  0
   11.0625    9.9767   12.1939 C   0  0  0  0  0  0  0  0  0  0  0  0
   12.0411   10.4214   12.0889 H   0  0  0  0  0  0  0  0  0  0  0  0
   10.3753   10.0726   13.3895 C   0  0  0  0  0  0  0  0  0  0  0  0
   10.8192   10.5830   14.2295 H   0  0  0  0  0  0  0  0  0  0  0  0
    9.1151    9.5131   13.4957 C   0  0  0  0  0  0  0  0  0  0  0  0
    8.5687    9.5848   14.4239 H   0  0  0  0  0  0  0  0  0  0  0  0
    8.5404    8.8518   12.4238 C   0  0  0  0  0  0  0  0  0  0  0  0
    7.5603    8.4180   12.5383 H   0  0  0  0  0  0  0  0  0  0  0  0
    9.2156    8.7622   11.2125 C   0  0  0  0  0  0  0  0  0  0  0  0
    7.5467    7.3929   10.2178 C   0  0  0  0  0  0  0  0  0  0  0  0
    7.6080    6.6166   10.9876 H   0  0  0  0  0  0  0  0  0  0  0  0
    7.3932    6.9284    9.2455 H   0  0  0  0  0  0  0  0  0  0  0  0
    6.7070    8.0592   10.4309 H   0  0  0  0  0  0  0  0  0  0  0  0
  1  2  1  0  0  0  0
  1  7  1  0  0  0  0
  1  9  1  0  0  0  0
  4 10  1  0  0  0  0
  5 11  1  0  0  0  0
  6 39  1  0  0  0  0
  6 38  1  0  0  0  0
  7 28  1  0  0  0  0
  8  1  1  0  0  0  0
  9  3  1  0  0  0  0
 10  1  1  0  0  0  0
 11  1  1  0  0  0  0
 12 13  1  0  0  0  0
 12  8  1  0  0  0  0
 14 12  1  0  0  0  0
 15 14  1  0  0  0  0
 16 14  2  0  0  0  0
 16 18  1  0  0  0  0
 17 16  1  0  0  0  0
 18 20  2  0  0  0  0
 19 18  1  0  0  0  0
 20  8  1  0  0  0  0
 21 20  1  1  0  0  0
 21  7  1  0  0  0  0
 22 21  1  0  0  0  0
 22 24  2  0  0  0  0
 23 22  1  0  0  0  0
 24 25  1  0  0  0  0
 24 26  1  0  0  0  0
 26 27  1  0  0  0  0
 28 26  2  0  0  0  0
 28 29  1  0  0  0  0
 29 38  2  0  0  0  0
 29 30  1  0  0  0  0
 30 32  2  0  0  0  0
 31 30  1  0  0  0  0
 32 34  1  0  0  0  0
 32 33  1  0  0  0  0
 34 35  1  0  0  0  0
 36 37  1  0  0  0  0
 36 34  2  0  0  0  0
 38 36  1  0  0  0  0
 39 42  1  0  0  0  0
 39 40  1  0  0  0  0
 41 39  1  0  0  0  0
M  END
$$$$
