CSD_code = DAYTOP | q = 0 | S = 0 | Stoichiometry = C12H16CdCl2N8 | MND = 6
 OpenBabel04212202023D

 39 42  0  0  0  0  0  0  0  0999 V2000
    9.5246    4.0787    8.4063 Cd  0  0  0  0  0  0  0  0  0  0  0  0
    9.9114    5.5209   10.3759 Cl  0  0  0  0  0  0  0  0  0  0  0  0
    9.1510    2.6479    6.4278 Cl  0  0  0  0  0  0  0  0  0  0  0  0
   11.7923    3.6196    8.2228 N   0  0  0  0  0  0  0  0  0  0  0  0
   13.6515    2.9940    7.2556 N   0  0  0  0  0  0  0  0  0  0  0  0
   14.2826    2.5606    6.6015 H   0  0  0  0  0  0  0  0  0  0  0  0
    7.2720    4.5889    8.5546 N   0  0  0  0  0  0  0  0  0  0  0  0
    5.4286    5.4244    9.3830 N   0  0  0  0  0  0  0  0  0  0  0  0
    4.8042    5.9349    9.9859 H   0  0  0  0  0  0  0  0  0  0  0  0
    9.1364    2.2326    9.7425 N   0  0  0  0  0  0  0  0  0  0  0  0
    8.5135    0.2032   10.2677 N   0  0  0  0  0  0  0  0  0  0  0  0
    8.2170   -0.7543   10.1711 H   0  0  0  0  0  0  0  0  0  0  0  0
    9.9327    5.9303    7.0640 N   0  0  0  0  0  0  0  0  0  0  0  0
   10.6657    7.9243    6.5445 N   0  0  0  0  0  0  0  0  0  0  0  0
   11.0023    8.8682    6.6440 H   0  0  0  0  0  0  0  0  0  0  0  0
   12.8375    4.1215    8.9334 C   0  0  0  0  0  0  0  0  0  0  0  0
   12.6678    4.7159    9.8100 H   0  0  0  0  0  0  0  0  0  0  0  0
   14.0068    3.7409    8.3452 C   0  0  0  0  0  0  0  0  0  0  0  0
   15.0292    3.9302    8.6000 H   0  0  0  0  0  0  0  0  0  0  0  0
   12.3036    2.9505    7.2239 C   0  0  0  0  0  3  0  0  0  0  0  0
   11.7242    2.4392    6.4785 H   0  0  0  0  0  0  0  0  0  0  0  0
    6.2302    4.1856    7.7794 C   0  0  0  0  0  0  0  0  0  0  0  0
    6.3946    3.5606    6.9233 H   0  0  0  0  0  0  0  0  0  0  0  0
    5.0706    4.6976    8.2808 C   0  0  0  0  0  0  0  0  0  0  0  0
    4.0535    4.6112    7.9585 H   0  0  0  0  0  0  0  0  0  0  0  0
    6.7682    5.3280    9.5071 C   0  0  0  0  0  3  0  0  0  0  0  0
    7.3476    5.7938   10.2818 H   0  0  0  0  0  0  0  0  0  0  0  0
    9.1152    2.1261   11.0980 C   0  0  0  0  0  0  0  0  0  0  0  0
    9.3787    2.9618   11.7167 H   0  0  0  0  0  0  0  0  0  0  0  0
    8.7290    0.8657   11.4450 C   0  0  0  0  0  0  0  0  0  0  0  0
    8.5937    0.3971   12.3979 H   0  0  0  0  0  0  0  0  0  0  0  0
    8.7723    1.0708    9.2680 C   0  0  0  0  0  3  0  0  0  0  0  0
    8.6907    0.8432    8.2219 H   0  0  0  0  0  0  0  0  0  0  0  0
   10.0093    6.0216    5.7093 C   0  0  0  0  0  0  0  0  0  0  0  0
    9.7318    5.1919    5.0887 H   0  0  0  0  0  0  0  0  0  0  0  0
   10.4643    7.2598    5.3658 C   0  0  0  0  0  0  0  0  0  0  0  0
   10.6558    7.7120    4.4146 H   0  0  0  0  0  0  0  0  0  0  0  0
   10.3313    7.0794    7.5414 C   0  0  0  0  0  3  0  0  0  0  0  0
   10.3865    7.3132    8.5878 H   0  0  0  0  0  0  0  0  0  0  0  0
  1  7  1  0  0  0  0
  1 10  1  0  0  0  0
  1  2  1  0  0  0  0
  3  1  1  0  0  0  0
  4  1  1  0  0  0  0
  4 16  1  0  0  0  0
  5 18  1  0  0  0  0
  6  5  1  0  0  0  0
  7 26  1  0  0  0  0
  8 26  1  0  0  0  0
  8  9  1  0  0  0  0
 10 28  1  0  0  0  0
 11 30  1  0  0  0  0
 12 11  1  0  0  0  0
 13 38  1  0  0  0  0
 13  1  1  0  0  0  0
 14 15  1  0  0  0  0
 14 38  1  0  0  0  0
 16 17  1  0  0  0  0
 18 19  1  0  0  0  0
 18 16  2  0  0  0  0
 20  5  1  0  0  0  0
 20  4  1  0  0  0  0
 21 20  1  0  0  0  0
 22 24  2  0  0  0  0
 22  7  1  0  0  0  0
 23 22  1  0  0  0  0
 24  8  1  0  0  0  0
 25 24  1  0  0  0  0
 26 27  1  0  0  0  0
 28 30  2  0  0  0  0
 28 29  1  0  0  0  0
 30 31  1  0  0  0  0
 32 10  1  0  0  0  0
 32 11  1  0  0  0  0
 33 32  1  0  0  0  0
 34 13  1  0  0  0  0
 35 34  1  0  0  0  0
 36 34  2  0  0  0  0
 36 14  1  0  0  0  0
 37 36  1  0  0  0  0
 38 39  1  0  0  0  0
M  END
$$$$
