CSD_code = DAZFAO | q = 0 | S = 0 | Stoichiometry = C30H24Cl2N2O2Zn | MND = 4
 OpenBabel04212202023D

 61 67  0  0  1  0  0  0  0  0999 V2000
    3.3944    7.8686    6.4655 Zn  0  0  0  0  0  0  0  0  0  0  0  0
    3.1181    6.1918    5.1083 Cl  0  0  0  0  0  0  0  0  0  0  0  0
    5.0176    7.7606    8.0056 Cl  0  0  0  0  0  0  0  0  0  0  0  0
    1.2054   11.0730    7.9540 O   0  0  0  0  0  0  0  0  0  0  0  0
    2.1946   10.4102    7.3202 C   0  0  2  0  0  3  0  0  0  0  0  0
    1.9418    9.1354    7.1605 N   0  0  0  0  0  0  0  0  0  0  0  0
    0.7093    8.9119    7.7192 C   0  0  0  0  0  0  0  0  0  0  0  0
    0.2507   10.1429    8.2178 C   0  0  0  0  0  0  0  0  0  0  0  0
   -0.9726   10.2705    8.8481 C   0  0  0  0  0  0  0  0  0  0  0  0
   -1.3151   11.2188    9.2284 H   0  0  0  0  0  0  0  0  0  0  0  0
   -1.7252    9.1150    8.9612 C   0  0  0  0  0  0  0  0  0  0  0  0
   -2.6880    9.1634    9.4462 H   0  0  0  0  0  0  0  0  0  0  0  0
   -1.2770    7.8890    8.4668 C   0  0  0  0  0  0  0  0  0  0  0  0
   -1.9060    7.0196    8.5814 H   0  0  0  0  0  0  0  0  0  0  0  0
   -0.0551    7.7598    7.8374 C   0  0  0  0  0  0  0  0  0  0  0  0
    0.3015    6.8188    7.4493 H   0  0  0  0  0  0  0  0  0  0  0  0
    3.3758   11.1345    6.9288 C   0  0  0  0  0  0  0  0  0  0  0  0
    4.3643   10.5051    6.0680 C   0  0  0  0  0  0  0  0  0  0  0  0
    5.6372   11.1746    5.9337 C   0  0  0  0  0  0  0  0  0  0  0  0
    5.7432   12.5612    6.3054 C   0  0  0  0  0  0  0  0  0  0  0  0
    4.6955   13.1739    7.0402 C   0  0  0  0  0  0  0  0  0  0  0  0
    3.5577   12.4150    7.3850 C   0  0  0  0  0  0  0  0  0  0  0  0
    2.8064   12.8654    8.0183 H   0  0  0  0  0  0  0  0  0  0  0  0
    6.8408   13.3662    5.9541 C   0  0  0  0  0  0  0  0  0  0  0  0
    7.6323   12.9629    5.3415 H   0  0  0  0  0  0  0  0  0  0  0  0
    6.9150   14.6840    6.3334 C   0  0  0  0  0  0  0  0  0  0  0  0
    7.7664   15.2792    6.0375 H   0  0  0  0  0  0  0  0  0  0  0  0
    5.8966   15.2683    7.0907 C   0  0  0  0  0  0  0  0  0  0  0  0
    5.9727   16.3026    7.3893 H   0  0  0  0  0  0  0  0  0  0  0  0
    4.8017   14.5207    7.4336 C   0  0  0  0  0  0  0  0  0  0  0  0
    3.9940   14.9570    8.0030 H   0  0  0  0  0  0  0  0  0  0  0  0
    4.1142    9.4291    5.4746 O   0  0  0  0  0  0  0  0  0  0  0  0
    6.7910   10.4506    5.5948 C   0  0  0  0  0  3  0  0  0  0  0  0
    7.7203   10.9924    5.6893 H   0  0  0  0  0  0  0  0  0  0  0  0
    6.8661    9.1008    5.3094 C   0  0  0  0  0  0  0  0  0  0  0  0
    5.9388    8.5544    5.2650 H   0  0  0  0  0  0  0  0  0  0  0  0
    8.0180    8.3541    5.1291 C   0  0  0  0  0  0  0  0  0  0  0  0
    7.9771    7.0133    5.0344 N   0  0  0  0  0  0  0  0  0  0  0  0
    9.2325    6.4873    4.7586 C   0  0  0  0  0  0  0  0  0  0  0  0
   10.1619    7.5297    4.6875 C   0  0  0  0  0  0  0  0  0  0  0  0
    9.4501    8.8306    4.9584 C   0  0  0  0  0  0  0  0  0  0  0  0
    9.6153    5.1723    4.5535 C   0  0  0  0  0  0  0  0  0  0  0  0
    8.9106    4.3575    4.5969 H   0  0  0  0  0  0  0  0  0  0  0  0
   10.9517    4.9242    4.2796 C   0  0  0  0  0  0  0  0  0  0  0  0
   11.2750    3.9077    4.1154 H   0  0  0  0  0  0  0  0  0  0  0  0
   11.8765    5.9542    4.2115 C   0  0  0  0  0  0  0  0  0  0  0  0
   12.9099    5.7310    3.9960 H   0  0  0  0  0  0  0  0  0  0  0  0
   11.4862    7.2717    4.4167 C   0  0  0  0  0  0  0  0  0  0  0  0
   12.2092    8.0713    4.3616 H   0  0  0  0  0  0  0  0  0  0  0  0
    6.8020    6.2148    5.2599 C   0  0  0  0  0  0  0  0  0  0  0  0
    7.0774    5.1657    5.3021 H   0  0  0  0  0  0  0  0  0  0  0  0
    6.0671    6.3518    4.4641 H   0  0  0  0  0  0  0  0  0  0  0  0
    6.3366    6.4915    6.2091 H   0  0  0  0  0  0  0  0  0  0  0  0
    9.9969    9.4477    6.2544 C   0  0  0  0  0  0  0  0  0  0  0  0
    9.5428   10.4111    6.4625 H   0  0  0  0  0  0  0  0  0  0  0  0
   11.0722    9.5834    6.1654 H   0  0  0  0  0  0  0  0  0  0  0  0
    9.7990    8.7875    7.0956 H   0  0  0  0  0  0  0  0  0  0  0  0
    9.6021    9.7870    3.7707 C   0  0  0  0  0  0  0  0  0  0  0  0
    9.0147   10.6885    3.9146 H   0  0  0  0  0  0  0  0  0  0  0  0
    9.2676    9.3031    2.8557 H   0  0  0  0  0  0  0  0  0  0  0  0
   10.6471   10.0632    3.6533 H   0  0  0  0  0  0  0  0  0  0  0  0
  1  6  1  0  0  0  0
  1  3  1  0  0  0  0
  2  1  1  0  0  0  0
  4  8  1  0  0  0  0
  5 17  1  1  0  0  0
  5  4  1  0  0  0  0
  6  5  1  0  0  0  0
  6  7  1  0  0  0  0
  7 15  2  0  0  0  0
  7  8  1  0  0  0  0
  8  9  2  0  0  0  0
  9 11  1  0  0  0  0
  9 10  1  0  0  0  0
 11 12  1  0  0  0  0
 13 14  1  0  0  0  0
 13 11  2  0  0  0  0
 15 13  1  0  0  0  0
 16 15  1  0  0  0  0
 17 22  1  0  0  0  0
 18 17  2  0  0  0  0
 19 18  1  0  0  0  0
 19 20  2  0  0  0  0
 20 21  1  0  0  0  0
 21 22  2  0  0  0  0
 21 30  1  0  0  0  0
 22 23  1  0  0  0  0
 24 20  1  0  0  0  0
 24 26  2  0  0  0  0
 25 24  1  0  0  0  0
 26 28  1  0  0  0  0
 27 26  1  0  0  0  0
 28 29  1  0  0  0  0
 28 30  2  0  0  0  0
 30 31  1  0  0  0  0
 32 18  1  0  0  0  0
 32  1  1  0  0  0  0
 33 34  1  0  0  0  0
 33 19  1  0  0  0  0
 35 33  1  0  0  0  0
 36 35  1  0  0  0  0
 37 35  2  0  0  0  0
 38 37  1  0  0  0  0
 38 50  1  0  0  0  0
 39 38  1  0  0  0  0
 40 39  1  0  0  0  0
 40 41  1  0  0  0  0
 41 37  1  0  0  0  0
 41 54  1  0  0  0  0
 42 43  1  0  0  0  0
 42 39  2  0  0  0  0
 44 42  1  0  0  0  0
 45 44  1  0  0  0  0
 46 44  2  0  0  0  0
 46 48  1  0  0  0  0
 47 46  1  0  0  0  0
 48 40  2  0  0  0  0
 49 48  1  0  0  0  0
 50 51  1  0  0  0  0
 50 53  1  0  0  0  0
 52 50  1  0  0  0  0
 54 55  1  0  0  0  0
 54 57  1  0  0  0  0
 56 54  1  0  0  0  0
 58 59  1  0  0  0  0
 58 41  1  0  0  0  0
 60 58  1  0  0  0  0
 61 58  1  0  0  0  0
M  END
$$$$
