CSD_code = DAZJUK | q = -1 | S = 0 | Stoichiometry = C7H9Cl3N5Zn(1-) | MND = 4
 OpenBabel04212202023D

 25 26  0  0  1  0  0  0  0  0999 V2000
    0.4884   17.8903    8.1643 Zn  0  0  0  0  0  0  0  0  0  0  0  0
    1.0438   18.7638   13.9017 C   0  0  0  0  0  0  0  0  0  0  0  0
    1.7258   19.4936   11.9393 C   0  0  0  0  0  0  0  0  0  0  0  0
    0.7066   18.7956   11.2777 C   0  0  0  0  0  0  0  0  0  0  0  0
   -0.1715   18.0337   12.0840 C   0  0  1  0  0  3  0  0  0  0  0  0
    1.8491   19.8196    9.7937 C   0  0  0  0  0  3  0  0  0  0  0  0
    3.6510   20.8869   11.1557 C   0  0  0  0  0  0  0  0  0  0  0  0
    4.8611   19.9681   11.0112 C   0  0  0  0  0  0  0  0  0  0  0  0
    0.0460   18.0537   13.4123 N   0  0  0  0  0  0  0  0  0  0  0  0
    1.9265   19.5090   13.2609 N   0  0  0  0  0  2  0  0  0  0  0  0
   -1.2033   17.3383   11.6175 N   0  0  0  0  0  0  0  0  0  0  0  0
    0.8186   19.0304    9.9301 N   0  0  0  0  0  0  0  0  0  0  0  0
    2.4315   20.1473   10.9693 N   0  0  0  0  0  0  0  0  0  0  0  0
    0.6351   19.5584    6.6357 Cl  0  0  0  0  0  0  0  0  0  0  0  0
   -1.5171   16.8368    8.6088 Cl  0  0  0  0  0  0  0  0  0  0  0  0
    2.3899   16.6709    8.4324 Cl  0  0  0  0  0  0  0  0  0  0  0  0
    1.1549   18.7300   14.9792 H   0  0  0  0  0  0  0  0  0  0  0  0
   -1.7152   16.7738   12.2737 H   0  0  0  0  0  0  0  0  0  0  0  0
   -1.3451   17.1917   10.6106 H   0  0  0  0  0  0  0  0  0  0  0  0
    2.1898   20.1881    8.8455 H   0  0  0  0  0  0  0  0  0  0  0  0
    3.6870   21.6879   10.4118 H   0  0  0  0  0  0  0  0  0  0  0  0
    3.6194   21.3185   12.1595 H   0  0  0  0  0  0  0  0  0  0  0  0
    5.7809   20.5387   11.1125 H   0  0  0  0  0  0  0  0  0  0  0  0
    4.8484   19.4814   10.0387 H   0  0  0  0  0  0  0  0  0  0  0  0
    4.8343   19.1995   11.7796 H   0  0  0  0  0  0  0  0  0  0  0  0
  1 16  1  0  0  0  0
  1 15  1  0  0  0  0
  1 12  1  0  0  0  0
  2 17  1  0  0  0  0
  3 10  1  0  0  0  0
  4  3  2  0  0  0  0
  4  5  1  0  0  0  0
  5 11  1  1  0  0  0
  5  9  1  0  0  0  0
  6 12  1  0  0  0  0
  6 13  1  0  0  0  0
  7 22  1  0  0  0  0
  8 23  1  0  0  0  0
  8  7  1  0  0  0  0
  8 25  1  0  0  0  0
  9  2  2  0  0  0  0
 10  2  1  0  0  0  0
 11 18  1  0  0  0  0
 12  4  1  0  0  0  0
 13  7  1  0  0  0  0
 13  3  1  0  0  0  0
 14  1  1  0  0  0  0
 19 11  1  0  0  0  0
 20  6  1  0  0  0  0
 21  7  1  0  0  0  0
 24  8  1  0  0  0  0
M  END
$$$$
