CSD_code = DAZRAY | q = 0 | S = 0 | Stoichiometry = C16H32Cl2N4Zn | MND = 4
 OpenBabel04212202023D

 55 57  0  0  1  0  0  0  0  0999 V2000
   -2.0064   -4.3585   -6.8068 Zn  0  0  0  0  0  0  0  0  0  0  0  0
   -1.0133   -2.6360   -7.7955 Cl  0  0  0  0  0  0  0  0  0  0  0  0
   -3.5785   -4.1535   -5.2018 Cl  0  0  0  0  0  0  0  0  0  0  0  0
   -3.2830   -4.9562   -8.4301 N   0  0  0  0  0  4  0  0  0  0  0  0
   -2.9117   -7.1587   -6.0306 N   0  0  1  0  0  0  0  0  0  0  0  0
   -1.3359   -7.3968   -4.3314 N   0  0  0  0  0  0  0  0  0  0  0  0
   -0.9695   -5.9749   -6.1784 N   0  0  0  0  0  0  0  0  0  0  0  0
   -4.1844   -3.8315   -8.7269 C   0  0  0  0  0  0  0  0  0  0  0  0
   -3.5791   -2.9233   -8.7571 H   0  0  0  0  0  0  0  0  0  0  0  0
   -4.9373   -3.7211   -7.9477 H   0  0  0  0  0  0  0  0  0  0  0  0
   -4.7712   -4.1102  -10.1159 C   0  0  0  0  0  0  0  0  0  0  0  0
   -5.7086   -4.6620  -10.0401 H   0  0  0  0  0  0  0  0  0  0  0  0
   -4.9738   -3.1813  -10.6440 H   0  0  0  0  0  0  0  0  0  0  0  0
   -3.6852   -4.9469  -10.8085 C   0  0  0  0  0  0  0  0  0  0  0  0
   -4.0810   -5.9014  -11.1569 H   0  0  0  0  0  0  0  0  0  0  0  0
   -3.2622   -4.4317  -11.6681 H   0  0  0  0  0  0  0  0  0  0  0  0
   -2.6137   -5.1508   -9.7222 C   0  0  0  0  0  0  0  0  0  0  0  0
   -2.1375   -6.1287   -9.7766 H   0  0  0  0  0  0  0  0  0  0  0  0
   -1.8423   -4.3836   -9.8067 H   0  0  0  0  0  0  0  0  0  0  0  0
   -4.0458   -6.1375   -8.0185 C   0  0  0  0  0  0  0  0  0  0  0  0
   -4.6255   -6.5300   -8.8610 H   0  0  0  0  0  0  0  0  0  0  0  0
   -4.7335   -5.8217   -7.2332 H   0  0  0  0  0  0  0  0  0  0  0  0
   -3.1639   -7.2632   -7.4564 C   0  0  2  0  0  0  0  0  0  0  0  0
   -2.2038   -7.2846   -7.9765 H   0  0  0  0  0  0  0  0  0  0  0  0
   -3.9046   -8.6051   -7.5179 C   0  0  0  0  0  0  0  0  0  0  0  0
   -4.4356   -8.7588   -8.4543 H   0  0  0  0  0  0  0  0  0  0  0  0
   -3.1920   -9.4207   -7.3863 H   0  0  0  0  0  0  0  0  0  0  0  0
   -4.8409   -8.5172   -6.3115 C   0  0  0  0  0  0  0  0  0  0  0  0
   -5.0858   -9.4999   -5.9127 H   0  0  0  0  0  0  0  0  0  0  0  0
   -5.7710   -8.0245   -6.5894 H   0  0  0  0  0  0  0  0  0  0  0  0
   -4.0590   -7.6677   -5.2958 C   0  0  0  0  0  0  0  0  0  0  0  0
   -4.6462   -6.8223   -4.9221 H   0  0  0  0  0  0  0  0  0  0  0  0
   -3.7588   -8.2709   -4.4370 H   0  0  0  0  0  0  0  0  0  0  0  0
   -1.7243   -6.7916   -5.4971 C   0  0  1  0  0  3  0  0  0  0  0  0
   -0.9282   -6.6465   -3.1443 C   0  0  0  0  0  0  0  0  0  0  0  0
   -0.3309   -5.7972   -3.4748 H   0  0  0  0  0  0  0  0  0  0  0  0
   -2.1538   -6.1222   -2.3974 C   0  0  0  0  0  0  0  0  0  0  0  0
   -2.7510   -5.4910   -3.0532 H   0  0  0  0  0  0  0  0  0  0  0  0
   -1.8429   -5.5318   -1.5399 H   0  0  0  0  0  0  0  0  0  0  0  0
   -2.7715   -6.9463   -2.0427 H   0  0  0  0  0  0  0  0  0  0  0  0
   -0.0779   -7.5576   -2.2658 C   0  0  0  0  0  0  0  0  0  0  0  0
    0.7763   -7.9359   -2.8221 H   0  0  0  0  0  0  0  0  0  0  0  0
   -0.6649   -8.4039   -1.9139 H   0  0  0  0  0  0  0  0  0  0  0  0
    0.2852   -7.0078   -1.4025 H   0  0  0  0  0  0  0  0  0  0  0  0
    0.4740   -5.9413   -5.9839 C   0  0  0  0  0  0  0  0  0  0  0  0
    0.7619   -6.7289   -5.2746 H   0  0  0  0  0  0  0  0  0  0  0  0
    1.1166   -6.2415   -7.3402 C   0  0  0  0  0  0  0  0  0  0  0  0
    0.8201   -7.2266   -7.6945 H   0  0  0  0  0  0  0  0  0  0  0  0
    2.1995   -6.2096   -7.2559 H   0  0  0  0  0  0  0  0  0  0  0  0
    0.7968   -5.4956   -8.0639 H   0  0  0  0  0  0  0  0  0  0  0  0
    0.9585   -4.5822   -5.4820 C   0  0  0  0  0  0  0  0  0  0  0  0
    0.3875   -4.2458   -4.6182 H   0  0  0  0  0  0  0  0  0  0  0  0
    0.8518   -3.8387   -6.2677 H   0  0  0  0  0  0  0  0  0  0  0  0
    2.0081   -4.6429   -5.2030 H   0  0  0  0  0  0  0  0  0  0  0  0
   -1.9232   -8.1776   -4.0677 H   0  0  0  0  0  0  0  0  0  0  0  0
  1  7  1  0  0  0  0
  1  3  1  0  0  0  0
  2  1  1  0  0  0  0
  4 20  1  0  0  0  0
  4  1  1  0  0  0  0
  5 34  1  0  0  0  0
  5 31  1  1  0  0  0
  6 55  1  0  0  0  0
  6 35  1  0  0  0  0
  7 45  1  0  0  0  0
  7 34  1  0  0  0  0
  8  4  1  0  0  0  0
  8 10  1  0  0  0  0
  9  8  1  0  0  0  0
 11 12  1  0  0  0  0
 11  8  1  0  0  0  0
 13 11  1  0  0  0  0
 14 11  1  0  0  0  0
 14 17  1  0  0  0  0
 15 14  1  0  0  0  0
 16 14  1  0  0  0  0
 17  4  1  0  0  0  0
 18 17  1  0  0  0  0
 19 17  1  0  0  0  0
 20 23  1  0  0  0  0
 20 22  1  0  0  0  0
 21 20  1  0  0  0  0
 23 24  1  6  0  0  0
 23  5  1  0  0  0  0
 25 23  1  0  0  0  0
 25 27  1  0  0  0  0
 25 28  1  0  0  0  0
 26 25  1  0  0  0  0
 28 29  1  0  0  0  0
 28 31  1  0  0  0  0
 30 28  1  0  0  0  0
 31 32  1  0  0  0  0
 31 33  1  0  0  0  0
 34  6  1  6  0  0  0
 35 37  1  0  0  0  0
 35 41  1  0  0  0  0
 36 35  1  0  0  0  0
 37 40  1  0  0  0  0
 37 39  1  0  0  0  0
 38 37  1  0  0  0  0
 41 43  1  0  0  0  0
 41 44  1  0  0  0  0
 42 41  1  0  0  0  0
 45 51  1  0  0  0  0
 45 46  1  0  0  0  0
 47 49  1  0  0  0  0
 47 45  1  0  0  0  0
 48 47  1  0  0  0  0
 50 47  1  0  0  0  0
 51 54  1  0  0  0  0
 51 52  1  0  0  0  0
 53 51  1  0  0  0  0
M  END
$$$$
