CSD_code = DAZRIG | q = 0 | S = 0 | Stoichiometry = C17H34Cl2N4Zn | MND = 4
 OpenBabel04212202023D

 58 60  0  0  1  0  0  0  0  0999 V2000
    2.0324    3.4180    4.1482 Zn  0  0  0  0  0  0  0  0  0  0  0  0
    4.0551    3.5642    5.1345 Cl  0  0  0  0  0  0  0  0  0  0  0  0
    0.8706    5.2034    3.5151 Cl  0  0  0  0  0  0  0  0  0  0  0  0
    2.9714    0.6082    4.7492 N   0  0  2  0  0  0  0  0  0  0  0  0
    0.8299    2.8329    5.8553 N   0  0  0  0  0  4  0  0  0  0  0  0
    4.0821    0.3316    2.7199 N   0  0  0  0  0  0  0  0  0  0  0  0
    2.2521    1.8048    2.9498 N   0  0  0  0  0  0  0  0  0  0  0  0
    3.1147    0.9657    3.4524 C   0  0  1  0  0  3  0  0  0  0  0  0
    4.0209    0.0894    5.6125 C   0  0  0  0  0  0  0  0  0  0  0  0
    4.5630    0.9311    6.0562 H   0  0  0  0  0  0  0  0  0  0  0  0
    4.7412   -0.5165    5.0597 H   0  0  0  0  0  0  0  0  0  0  0  0
    3.2909   -0.7569    6.6681 C   0  0  0  0  0  0  0  0  0  0  0  0
    3.7416   -1.7413    6.7795 H   0  0  0  0  0  0  0  0  0  0  0  0
    3.3134   -0.2639    7.6385 H   0  0  0  0  0  0  0  0  0  0  0  0
    1.8556   -0.8388    6.1459 C   0  0  0  0  0  0  0  0  0  0  0  0
    1.1260   -0.9931    6.9374 H   0  0  0  0  0  0  0  0  0  0  0  0
    1.7607   -1.6526    5.4253 H   0  0  0  0  0  0  0  0  0  0  0  0
    1.6900    0.5050    5.4234 C   0  0  1  0  0  0  0  0  0  0  0  0
    0.9023    0.4798    4.6680 H   0  0  0  0  0  0  0  0  0  0  0  0
    1.4190    1.6259    6.4393 C   0  0  0  0  0  0  0  0  0  0  0  0
    0.7776    1.2225    7.2303 H   0  0  0  0  0  0  0  0  0  0  0  0
    2.3725    1.9187    6.8812 H   0  0  0  0  0  0  0  0  0  0  0  0
    0.9285    3.9708    6.7867 C   0  0  0  0  0  0  0  0  0  0  0  0
    0.6307    4.8657    6.2341 H   0  0  0  0  0  0  0  0  0  0  0  0
    1.9744    4.0882    7.0787 H   0  0  0  0  0  0  0  0  0  0  0  0
    0.0394    3.8376    8.0208 C   0  0  0  0  0  0  0  0  0  0  0  0
    0.1609    4.7320    8.6332 H   0  0  0  0  0  0  0  0  0  0  0  0
    0.3444    2.9809    8.6255 H   0  0  0  0  0  0  0  0  0  0  0  0
   -1.4164    3.6853    7.5924 C   0  0  0  0  0  0  0  0  0  0  0  0
   -2.0603    3.5436    8.4627 H   0  0  0  0  0  0  0  0  0  0  0  0
   -1.7357    4.5946    7.0793 H   0  0  0  0  0  0  0  0  0  0  0  0
   -1.5415    2.5020    6.6384 C   0  0  0  0  0  0  0  0  0  0  0  0
   -1.3413    1.5707    7.1732 H   0  0  0  0  0  0  0  0  0  0  0  0
   -2.5571    2.4391    6.2446 H   0  0  0  0  0  0  0  0  0  0  0  0
   -0.5774    2.6689    5.4635 C   0  0  0  0  0  0  0  0  0  0  0  0
   -0.6617    1.8176    4.7856 H   0  0  0  0  0  0  0  0  0  0  0  0
   -0.8518    3.5659    4.9031 H   0  0  0  0  0  0  0  0  0  0  0  0
    5.1010    1.0474    1.9534 C   0  0  0  0  0  0  0  0  0  0  0  0
    4.6240    1.9076    1.4848 H   0  0  0  0  0  0  0  0  0  0  0  0
    6.2113    1.5453    2.8777 C   0  0  0  0  0  0  0  0  0  0  0  0
    5.7957    2.1904    3.6499 H   0  0  0  0  0  0  0  0  0  0  0  0
    6.9419    2.1143    2.3094 H   0  0  0  0  0  0  0  0  0  0  0  0
    6.7210    0.7089    3.3541 H   0  0  0  0  0  0  0  0  0  0  0  0
    5.6397    0.1125    0.8760 C   0  0  0  0  0  0  0  0  0  0  0  0
    4.8324   -0.2444    0.2413 H   0  0  0  0  0  0  0  0  0  0  0  0
    6.1310   -0.7470    1.3284 H   0  0  0  0  0  0  0  0  0  0  0  0
    6.3628    0.6361    0.2576 H   0  0  0  0  0  0  0  0  0  0  0  0
    1.9832    1.8498    1.5190 C   0  0  0  0  0  0  0  0  0  0  0  0
    2.5405    1.0450    1.0208 H   0  0  0  0  0  0  0  0  0  0  0  0
    0.4848    1.5984    1.3345 C   0  0  0  0  0  0  0  0  0  0  0  0
    0.2087    0.6222    1.7282 H   0  0  0  0  0  0  0  0  0  0  0  0
    0.2265    1.6372    0.2798 H   0  0  0  0  0  0  0  0  0  0  0  0
   -0.0773    2.3644    1.8636 H   0  0  0  0  0  0  0  0  0  0  0  0
    2.3509    3.1995    0.9050 C   0  0  0  0  0  0  0  0  0  0  0  0
    3.3610    3.5023    1.1756 H   0  0  0  0  0  0  0  0  0  0  0  0
    1.6639    3.9648    1.2570 H   0  0  0  0  0  0  0  0  0  0  0  0
    2.2825    3.1446   -0.1792 H   0  0  0  0  0  0  0  0  0  0  0  0
    4.4944   -0.4599    3.1972 H   0  0  0  0  0  0  0  0  0  0  0  0
  1  2  1  0  0  0  0
  1  5  1  0  0  0  0
  3  1  1  0  0  0  0
  4 18  1  0  0  0  0
  4  9  1  6  0  0  0
  5 20  1  0  0  0  0
  5 23  1  0  0  0  0
  6 58  1  0  0  0  0
  7  8  1  0  0  0  0
  7  1  1  0  0  0  0
  8  6  1  6  0  0  0
  8  4  1  0  0  0  0
  9 10  1  0  0  0  0
  9 12  1  0  0  0  0
 11  9  1  0  0  0  0
 12 13  1  0  0  0  0
 12 14  1  0  0  0  0
 15 12  1  0  0  0  0
 15 16  1  0  0  0  0
 17 15  1  0  0  0  0
 18 19  1  6  0  0  0
 18 15  1  0  0  0  0
 18 20  1  0  0  0  0
 20 22  1  0  0  0  0
 20 21  1  0  0  0  0
 23 25  1  0  0  0  0
 23 26  1  0  0  0  0
 24 23  1  0  0  0  0
 26 28  1  0  0  0  0
 26 27  1  0  0  0  0
 29 26  1  0  0  0  0
 29 30  1  0  0  0  0
 31 29  1  0  0  0  0
 32 33  1  0  0  0  0
 32 29  1  0  0  0  0
 34 32  1  0  0  0  0
 35  5  1  0  0  0  0
 35 32  1  0  0  0  0
 36 35  1  0  0  0  0
 37 35  1  0  0  0  0
 38  6  1  0  0  0  0
 38 40  1  0  0  0  0
 39 38  1  0  0  0  0
 40 43  1  0  0  0  0
 40 41  1  0  0  0  0
 42 40  1  0  0  0  0
 44 46  1  0  0  0  0
 44 38  1  0  0  0  0
 45 44  1  0  0  0  0
 47 44  1  0  0  0  0
 48  7  1  0  0  0  0
 49 48  1  0  0  0  0
 50 48  1  0  0  0  0
 50 51  1  0  0  0  0
 50 53  1  0  0  0  0
 52 50  1  0  0  0  0
 54 55  1  0  0  0  0
 54 56  1  0  0  0  0
 54 48  1  0  0  0  0
 57 54  1  0  0  0  0
M  END
$$$$
