CSD_code = DCAZPD | q = 0 | S = 0 | Stoichiometry = C24H20Cl2N4Pd | MND = 4
 OpenBabel04212202023D

 51 54  0  0  0  0  0  0  0  0999 V2000
    2.1273    3.6855    2.3318 Cl  0  0  0  0  0  0  0  0  0  0  0  0
   -0.1779   -0.3137    2.3336 Cl  0  0  0  0  0  0  0  0  0  0  0  0
    1.6831    0.9424    4.9546 C   0  0  0  0  0  0  0  0  0  0  0  0
    1.2338    0.2660    6.0892 C   0  0  0  0  0  0  0  0  0  0  0  0
    2.0898   -0.5889    6.7553 C   0  0  0  0  0  0  0  0  0  0  0  0
    3.3960   -0.7480    6.3187 C   0  0  0  0  0  0  0  0  0  0  0  0
    3.8502   -0.0527    5.2078 C   0  0  0  0  0  0  0  0  0  0  0  0
    2.9987    0.7841    4.5118 C   0  0  0  0  0  0  0  0  0  0  0  0
   -0.8921    3.2902    4.3196 C   0  0  0  0  0  0  0  0  0  0  0  0
   -1.7296    2.8166    3.2989 C   0  0  0  0  0  0  0  0  0  0  0  0
   -2.7462    3.6291    2.8249 C   0  0  0  0  0  0  0  0  0  0  0  0
   -2.9057    4.9154    3.3120 C   0  0  0  0  0  0  0  0  0  0  0  0
   -2.0680    5.3876    4.3137 C   0  0  0  0  0  0  0  0  0  0  0  0
   -1.0837    4.5766    4.8364 C   0  0  0  0  0  0  0  0  0  0  0  0
   -0.0258    1.9226   -0.2877 C   0  0  0  0  0  0  0  0  0  0  0  0
   -0.3871    1.1915   -1.4199 C   0  0  0  0  0  0  0  0  0  0  0  0
   -1.5569    1.5014   -2.0853 C   0  0  0  0  0  0  0  0  0  0  0  0
   -2.3489    2.5531   -1.6508 C   0  0  0  0  0  0  0  0  0  0  0  0
   -1.9737    3.2979   -0.5425 C   0  0  0  0  0  0  0  0  0  0  0  0
   -0.8220    2.9827    0.1532 C   0  0  0  0  0  0  0  0  0  0  0  0
    3.2975    0.8724    0.3445 C   0  0  0  0  0  0  0  0  0  0  0  0
    4.5061    1.3484   -0.1766 C   0  0  0  0  0  0  0  0  0  0  0  0
    5.7019    0.9017    0.3434 C   0  0  0  0  0  0  0  0  0  0  0  0
    5.7145   -0.0580    1.3468 C   0  0  0  0  0  0  0  0  0  0  0  0
    4.5219   -0.5613    1.8386 C   0  0  0  0  0  0  0  0  0  0  0  0
    3.3088   -0.0877    1.3671 C   0  0  0  0  0  0  0  0  0  0  0  0
    0.2118    0.4024    6.4092 H   0  0  0  0  0  0  0  0  0  0  0  0
    1.7390   -1.1298    7.6211 H   0  0  0  0  0  0  0  0  0  0  0  0
    4.0629   -1.4118    6.8480 H   0  0  0  0  0  0  0  0  0  0  0  0
    4.8751   -0.1585    4.8854 H   0  0  0  0  0  0  0  0  0  0  0  0
    3.3550    1.3641    3.6604 H   0  0  0  0  0  0  0  0  0  0  0  0
   -1.6614    1.7834    2.9621 H   0  0  0  0  0  0  0  0  0  0  0  0
   -3.4172    3.2464    2.0701 H   0  0  0  0  0  0  0  0  0  0  0  0
   -3.6913    5.5470    2.9249 H   0  0  0  0  0  0  0  0  0  0  0  0
   -2.1957    6.3889    4.6965 H   0  0  0  0  0  0  0  0  0  0  0  0
   -0.4272    4.9243    5.6185 H   0  0  0  0  0  0  0  0  0  0  0  0
    0.2430    0.3747   -1.7383 H   0  0  0  0  0  0  0  0  0  0  0  0
   -1.8500    0.9241   -2.9490 H   0  0  0  0  0  0  0  0  0  0  0  0
   -3.2584    2.7956   -2.1796 H   0  0  0  0  0  0  0  0  0  0  0  0
   -2.5789    4.1324   -0.2217 H   0  0  0  0  0  0  0  0  0  0  0  0
   -0.4978    3.5839    1.0026 H   0  0  0  0  0  0  0  0  0  0  0  0
    4.4771    2.0893   -0.9599 H   0  0  0  0  0  0  0  0  0  0  0  0
    6.6321    1.2906   -0.0430 H   0  0  0  0  0  0  0  0  0  0  0  0
    6.6552   -0.4226    1.7315 H   0  0  0  0  0  0  0  0  0  0  0  0
    4.5279   -1.3323    2.5949 H   0  0  0  0  0  0  0  0  0  0  0  0
    2.3807   -0.5442    1.7077 H   0  0  0  0  0  0  0  0  0  0  0  0
    0.8293    1.7911    4.2428 N   0  0  0  0  0  0  0  0  0  0  0  0
    0.0549    2.4956    4.9270 N   0  0  0  0  0  2  0  0  0  0  0  0
    1.1374    1.6112    0.4235 N   0  0  0  0  0  0  0  0  0  0  0  0
    2.1345    1.2935   -0.2612 N   0  0  0  0  0  2  0  0  0  0  0  0
    0.9827    1.6998    2.3330 Pd  0  0  0  0  0  0  0  0  0  0  0  0
  1 51  1  0  0  0  0
  3  4  1  0  0  0  0
  4 27  1  0  0  0  0
  4  5  2  0  0  0  0
  5 28  1  0  0  0  0
  6  5  1  0  0  0  0
  6 29  1  0  0  0  0
  7  6  2  0  0  0  0
  8  3  2  0  0  0  0
  8  7  1  0  0  0  0
  9 14  1  0  0  0  0
  9 48  1  0  0  0  0
 10  9  2  0  0  0  0
 11 10  1  0  0  0  0
 11 12  2  0  0  0  0
 12 13  1  0  0  0  0
 13 35  1  0  0  0  0
 13 14  2  0  0  0  0
 14 36  1  0  0  0  0
 15 20  1  0  0  0  0
 15 49  1  0  0  0  0
 16 15  2  0  0  0  0
 17 18  2  0  0  0  0
 17 16  1  0  0  0  0
 18 19  1  0  0  0  0
 19 40  1  0  0  0  0
 19 20  2  0  0  0  0
 20 41  1  0  0  0  0
 21 26  1  0  0  0  0
 22 23  1  0  0  0  0
 22 21  2  0  0  0  0
 23 24  2  0  0  0  0
 24 44  1  0  0  0  0
 24 25  1  0  0  0  0
 25 45  1  0  0  0  0
 26 46  1  0  0  0  0
 26 25  2  0  0  0  0
 30  7  1  0  0  0  0
 31  8  1  0  0  0  0
 32 10  1  0  0  0  0
 33 11  1  0  0  0  0
 34 12  1  0  0  0  0
 37 16  1  0  0  0  0
 38 17  1  0  0  0  0
 39 18  1  0  0  0  0
 42 22  1  0  0  0  0
 43 23  1  0  0  0  0
 47 48  1  0  0  0  0
 47  3  1  0  0  0  0
 49 51  1  0  0  0  0
 50 21  1  0  0  0  0
 50 49  1  0  0  0  0
 51  2  1  0  0  0  0
 51 47  1  0  0  0  0
M  END
$$$$
