CSD_code = DEBFOF | q = 0 | S = 0 | Stoichiometry = C11H9ClN4Pd | MND = 4
 OpenBabel04212202023D

 26 29  0  0  0  0  0  0  0  0999 V2000
    2.6543    4.4491    1.0932 Pd  0  0  2  0  0  0  0  0  0  0  0  0
    3.1984    2.9981    2.6943 Cl  0  0  0  0  0  0  0  0  0  0  0  0
    2.4813    3.1240   -0.4487 N   0  0  0  0  0  0  0  0  0  0  0  0
    2.1940    5.6946   -0.2611 N   0  0  0  0  0  0  0  0  0  0  0  0
    2.1009    6.9577    0.0524 N   0  0  0  0  0  0  0  0  0  0  0  0
    2.6797    6.1523    2.1840 N   0  0  0  0  0  0  0  0  0  0  0  0
    2.6429    1.8073   -0.4762 C   0  0  0  0  0  0  0  0  0  0  0  0
    2.4858    1.0639   -1.6339 C   0  0  0  0  0  0  0  0  0  0  0  0
    2.1466    1.7237   -2.8115 C   0  0  0  0  0  0  0  0  0  0  0  0
    1.9759    3.0912   -2.7928 C   0  0  0  0  0  0  0  0  0  0  0  0
    2.1470    3.7935   -1.5907 C   0  0  0  0  0  0  0  0  0  0  0  0
    1.9935    5.2087   -1.4621 C   0  0  0  0  0  0  0  0  0  0  0  0
    2.3600    7.1971    1.3547 C   0  0  0  0  0  0  0  0  0  0  0  0
    2.3059    8.5064    1.8632 C   0  0  0  0  0  0  0  0  0  0  0  0
    2.5769    8.7282    3.1918 C   0  0  0  0  0  0  0  0  0  0  0  0
    2.9011    7.6508    4.0162 C   0  0  0  0  0  0  0  0  0  0  0  0
    2.9394    6.3842    3.4685 C   0  0  0  0  0  0  0  0  0  0  0  0
    2.9076    1.3395    0.4657 H   0  0  0  0  0  0  0  0  0  0  0  0
    2.6261   -0.0041   -1.6140 H   0  0  0  0  0  0  0  0  0  0  0  0
    2.0187    1.1704   -3.7298 H   0  0  0  0  0  0  0  0  0  0  0  0
    1.7132    3.6353   -3.6860 H   0  0  0  0  0  0  0  0  0  0  0  0
    1.7295    5.8459   -2.2965 H   0  0  0  0  0  0  0  0  0  0  0  0
    2.0509    9.3040    1.1857 H   0  0  0  0  0  0  0  0  0  0  0  0
    2.5392    9.7288    3.5957 H   0  0  0  0  0  0  0  0  0  0  0  0
    3.1189    7.7946    5.0613 H   0  0  0  0  0  0  0  0  0  0  0  0
    3.1851    5.5135    4.0665 H   0  0  0  0  0  0  0  0  0  0  0  0
  1  6  1  0  0  0  0
  1  2  1  6  0  0  0
  3  1  1  0  0  0  0
  4  5  1  0  0  0  0
  4  1  1  0  0  0  0
  5 13  2  0  0  0  0
  6 17  1  0  0  0  0
  7  3  1  0  0  0  0
  7 18  1  0  0  0  0
  8 19  1  0  0  0  0
  8  7  2  0  0  0  0
  9 10  2  0  0  0  0
  9  8  1  0  0  0  0
 10 11  1  0  0  0  0
 11 12  2  0  0  0  0
 11  3  1  0  0  0  0
 12  4  1  0  0  0  0
 13 14  1  0  0  0  0
 13  6  1  0  0  0  0
 14 15  2  0  0  0  0
 15 24  1  0  0  0  0
 15 16  1  0  0  0  0
 16 25  1  0  0  0  0
 17 16  2  0  0  0  0
 17 26  1  0  0  0  0
 20  9  1  0  0  0  0
 21 10  1  0  0  0  0
 22 12  1  0  0  0  0
 23 14  1  0  0  0  0
M  END
$$$$
