CSD_code = DEBMII | q = 0 | S = 0 | Stoichiometry = C32H29Br2NP2Pt | MND = 4
 OpenBabel04212202023D

 67 72  0  0  0  0  0  0  0  0999 V2000
    4.7495    5.2382   10.6600 C   0  0  0  0  0  0  0  0  0  0  0  0
    5.5409    5.7696   11.1979 H   0  0  0  0  0  0  0  0  0  0  0  0
    3.7919    5.4576   11.1600 H   0  0  0  0  0  0  0  0  0  0  0  0
    3.8506    2.9863   10.4869 C   0  0  0  0  0  0  0  0  0  0  0  0
    2.9726    3.3516   11.0485 H   0  0  0  0  0  0  0  0  0  0  0  0
    4.0657    1.9628   10.8052 H   0  0  0  0  0  0  0  0  0  0  0  0
    4.4034    7.6774    9.2062 C   0  0  0  0  0  0  0  0  0  0  0  0
    3.3998    8.0912   10.0777 C   0  0  0  0  0  0  0  0  0  0  0  0
    2.8125    7.3616   10.6185 H   0  0  0  0  0  0  0  0  0  0  0  0
    3.1330    9.4383   10.2383 C   0  0  0  0  0  0  0  0  0  0  0  0
    2.3542    9.7535   10.9171 H   0  0  0  0  0  0  0  0  0  0  0  0
    3.8511   10.3790    9.5187 C   0  0  0  0  0  0  0  0  0  0  0  0
    3.6355   11.4299    9.6402 H   0  0  0  0  0  0  0  0  0  0  0  0
    4.8302    9.9698    8.6283 C   0  0  0  0  0  0  0  0  0  0  0  0
    5.3743   10.6992    8.0477 H   0  0  0  0  0  0  0  0  0  0  0  0
    5.1043    8.6251    8.4651 C   0  0  0  0  0  0  0  0  0  0  0  0
    5.8473    8.3064    7.7484 H   0  0  0  0  0  0  0  0  0  0  0  0
    6.4158    5.7595    8.4159 C   0  0  0  0  0  0  0  0  0  0  0  0
    7.4303    6.4869    9.0335 C   0  0  0  0  0  0  0  0  0  0  0  0
    7.1869    7.2006    9.8102 H   0  0  0  0  0  0  0  0  0  0  0  0
    8.7434    6.3016    8.6424 C   0  0  0  0  0  0  0  0  0  0  0  0
    9.5298    6.8701    9.1172 H   0  0  0  0  0  0  0  0  0  0  0  0
    9.0518    5.3874    7.6460 C   0  0  0  0  0  0  0  0  0  0  0  0
   10.0797    5.2462    7.3471 H   0  0  0  0  0  0  0  0  0  0  0  0
    8.0456    4.6626    7.0293 C   0  0  0  0  0  0  0  0  0  0  0  0
    8.2828    3.9553    6.2492 H   0  0  0  0  0  0  0  0  0  0  0  0
    6.7299    4.8518    7.4109 C   0  0  0  0  0  0  0  0  0  0  0  0
    5.9316    4.2978    6.9170 H   0  0  0  0  0  0  0  0  0  0  0  0
    6.0094    3.3751   11.5791 C   0  0  0  0  0  0  0  0  0  0  0  0
    5.7707    2.4461   12.5898 C   0  0  0  0  0  0  0  0  0  0  0  0
    4.7767    2.0613   12.7624 H   0  0  0  0  0  0  0  0  0  0  0  0
    6.8023    2.0214   13.4077 C   0  0  0  0  0  0  0  0  0  0  0  0
    6.5960    1.3034   14.1877 H   0  0  0  0  0  0  0  0  0  0  0  0
    8.0832    2.5171   13.2435 C   0  0  0  0  0  0  0  0  0  0  0  0
    8.8832    2.1827   13.8858 H   0  0  0  0  0  0  0  0  0  0  0  0
    8.3268    3.4480   12.2474 C   0  0  0  0  0  0  0  0  0  0  0  0
    9.3218    3.8424   12.1038 H   0  0  0  0  0  0  0  0  0  0  0  0
    7.3045    3.8705   11.4213 C   0  0  0  0  0  0  0  0  0  0  0  0
    7.5087    4.5800   10.6338 H   0  0  0  0  0  0  0  0  0  0  0  0
    4.4792    1.5793    8.0607 C   0  0  0  0  0  0  0  0  0  0  0  0
    4.0250    0.6456    7.1326 C   0  0  0  0  0  0  0  0  0  0  0  0
    2.9879    0.6491    6.8291 H   0  0  0  0  0  0  0  0  0  0  0  0
    4.9087   -0.2685    6.5894 C   0  0  0  0  0  0  0  0  0  0  0  0
    4.5537   -0.9902    5.8694 H   0  0  0  0  0  0  0  0  0  0  0  0
    6.2447   -0.2508    6.9566 C   0  0  0  0  0  0  0  0  0  0  0  0
    6.9325   -0.9630    6.5253 H   0  0  0  0  0  0  0  0  0  0  0  0
    6.7018    0.6884    7.8671 C   0  0  0  0  0  0  0  0  0  0  0  0
    7.7449    0.7127    8.1471 H   0  0  0  0  0  0  0  0  0  0  0  0
    5.8262    1.6071    8.4153 C   0  0  0  0  0  0  0  0  0  0  0  0
    6.1885    2.3493    9.1122 H   0  0  0  0  0  0  0  0  0  0  0  0
    1.7446    2.0745    8.9053 C   0  0  0  0  0  0  0  0  0  0  0  0
    1.6236    0.7557    9.3309 C   0  0  0  0  0  0  0  0  0  0  0  0
    2.5096    0.1547    9.4868 H   0  0  0  0  0  0  0  0  0  0  0  0
    0.3669    0.2154    9.5319 C   0  0  0  0  0  0  0  0  0  0  0  0
    0.2700   -0.8119    9.8514 H   0  0  0  0  0  0  0  0  0  0  0  0
   -0.7656    0.9859    9.3195 C   0  0  0  0  0  0  0  0  0  0  0  0
   -1.7441    0.5553    9.4711 H   0  0  0  0  0  0  0  0  0  0  0  0
   -0.6463    2.3035    8.9084 C   0  0  0  0  0  0  0  0  0  0  0  0
   -1.5287    2.9019    8.7399 H   0  0  0  0  0  0  0  0  0  0  0  0
    0.6075    2.8485    8.7041 C   0  0  0  0  0  0  0  0  0  0  0  0
    0.7149    3.8741    8.3655 H   0  0  0  0  0  0  0  0  0  0  0  0
    5.0118    3.8157   10.6871 N   0  0  0  0  0  0  0  0  0  0  0  0
    2.3549    3.4065    5.7058 Br  0  0  0  0  0  0  0  0  0  0  0  0
    3.6171    6.7019    6.0085 Br  0  0  0  0  0  0  0  0  0  0  0  0
    3.4418    4.7401    7.4174 Pt  0  0  0  0  0  0  0  0  0  0  0  0
    3.3619    2.8598    8.6879 P   0  0  0  0  0  4  0  0  0  0  0  0
    4.6821    5.9091    8.9212 P   0  0  0  0  0  4  0  0  0  0  0  0
  1 62  1  0  0  0  0
  1  3  1  0  0  0  0
  1  2  1  0  0  0  0
  4 62  1  0  0  0  0
  4  6  1  0  0  0  0
  4  5  1  0  0  0  0
  7  8  1  0  0  0  0
  8 10  2  0  0  0  0
  8  9  1  0  0  0  0
 10 11  1  0  0  0  0
 12 13  1  0  0  0  0
 12 10  1  0  0  0  0
 14 12  2  0  0  0  0
 15 14  1  0  0  0  0
 16 14  1  0  0  0  0
 16  7  2  0  0  0  0
 17 16  1  0  0  0  0
 18 67  1  0  0  0  0
 18 19  1  0  0  0  0
 19 20  1  0  0  0  0
 21 19  2  0  0  0  0
 21 22  1  0  0  0  0
 23 21  1  0  0  0  0
 24 23  1  0  0  0  0
 25 27  1  0  0  0  0
 25 23  2  0  0  0  0
 26 25  1  0  0  0  0
 27 18  2  0  0  0  0
 28 27  1  0  0  0  0
 29 30  1  0  0  0  0
 30 31  1  0  0  0  0
 30 32  2  0  0  0  0
 32 33  1  0  0  0  0
 34 32  1  0  0  0  0
 34 35  1  0  0  0  0
 36 34  2  0  0  0  0
 37 36  1  0  0  0  0
 38 29  2  0  0  0  0
 38 36  1  0  0  0  0
 39 38  1  0  0  0  0
 40 49  1  0  0  0  0
 40 66  1  0  0  0  0
 41 40  2  0  0  0  0
 42 41  1  0  0  0  0
 43 45  2  0  0  0  0
 43 41  1  0  0  0  0
 44 43  1  0  0  0  0
 45 47  1  0  0  0  0
 46 45  1  0  0  0  0
 47 48  1  0  0  0  0
 47 49  2  0  0  0  0
 49 50  1  0  0  0  0
 51 52  1  0  0  0  0
 52 53  1  0  0  0  0
 52 54  2  0  0  0  0
 54 55  1  0  0  0  0
 56 57  1  0  0  0  0
 56 54  1  0  0  0  0
 58 56  2  0  0  0  0
 59 58  1  0  0  0  0
 60 51  2  0  0  0  0
 60 58  1  0  0  0  0
 61 60  1  0  0  0  0
 62 29  1  0  0  0  0
 63 65  1  0  0  0  0
 64 65  1  0  0  0  0
 65 66  1  0  0  0  0
 65 67  1  0  0  0  0
 66 51  1  0  0  0  0
 66  4  1  0  0  0  0
 67  7  1  0  0  0  0
 67  1  1  0  0  0  0
M  END
$$$$
