CSD_code = DEBNOP | q = 0 | S = 0 | Stoichiometry = C26H24Cl2P2PtS | MND = 4
 OpenBabel04212202023D

 56 60  0  0  0  0  0  0  0  0999 V2000
    3.7757    3.2964    3.6914 Pt  0  0  0  0  0  0  0  0  0  0  0  0
    1.8481    4.0039    2.7796 P   0  0  0  0  0  4  0  0  0  0  0  0
    4.3759    1.4937    2.4880 P   0  0  0  0  0  4  0  0  0  0  0  0
    1.5769    1.3627    1.3251 S   0  0  0  0  0  0  0  0  0  0  0  0
    3.2504    5.1072    5.0332 Cl  0  0  0  0  0  0  0  0  0  0  0  0
    5.7400    2.6503    4.7299 Cl  0  0  0  0  0  0  0  0  0  0  0  0
    3.3525    1.1742    0.9648 C   0  0  0  0  0  0  0  0  0  0  0  0
    3.6118    1.8481    0.1471 H   0  0  0  0  0  0  0  0  0  0  0  0
    3.4770    0.1423    0.6325 H   0  0  0  0  0  0  0  0  0  0  0  0
    1.3875    3.1696    1.1809 C   0  0  0  0  0  0  0  0  0  0  0  0
    0.3359    3.3388    0.9452 H   0  0  0  0  0  0  0  0  0  0  0  0
    2.0027    3.5186    0.3501 H   0  0  0  0  0  0  0  0  0  0  0  0
    1.7916    5.7469    2.2930 C   0  0  0  0  0  0  0  0  0  0  0  0
    0.9507    6.6773    2.8895 C   0  0  0  0  0  0  0  0  0  0  0  0
    0.2616    6.3652    3.6604 H   0  0  0  0  0  0  0  0  0  0  0  0
    1.0239    8.0066    2.5126 C   0  0  0  0  0  0  0  0  0  0  0  0
    0.3724    8.7310    2.9788 H   0  0  0  0  0  0  0  0  0  0  0  0
    1.9380    8.4134    1.5550 C   0  0  0  0  0  0  0  0  0  0  0  0
    1.9948    9.4535    1.2705 H   0  0  0  0  0  0  0  0  0  0  0  0
    2.7969    7.4912    0.9780 C   0  0  0  0  0  0  0  0  0  0  0  0
    3.5270    7.8125    0.2497 H   0  0  0  0  0  0  0  0  0  0  0  0
    2.7276    6.1626    1.3495 C   0  0  0  0  0  0  0  0  0  0  0  0
    3.4182    5.4392    0.9320 H   0  0  0  0  0  0  0  0  0  0  0  0
    0.3833    3.6553    3.7791 C   0  0  0  0  0  0  0  0  0  0  0  0
   -0.8963    4.0112    3.3614 C   0  0  0  0  0  0  0  0  0  0  0  0
   -1.0365    4.5436    2.4298 H   0  0  0  0  0  0  0  0  0  0  0  0
   -1.9871    3.6919    4.1483 C   0  0  0  0  0  0  0  0  0  0  0  0
   -2.9800    3.9738    3.8294 H   0  0  0  0  0  0  0  0  0  0  0  0
   -1.8094    3.0125    5.3437 C   0  0  0  0  0  0  0  0  0  0  0  0
   -2.6663    2.7673    5.9536 H   0  0  0  0  0  0  0  0  0  0  0  0
   -0.5380    2.6510    5.7574 C   0  0  0  0  0  0  0  0  0  0  0  0
   -0.4012    2.1232    6.6892 H   0  0  0  0  0  0  0  0  0  0  0  0
    0.5570    2.9723    4.9766 C   0  0  0  0  0  0  0  0  0  0  0  0
    1.5636    2.7177    5.2922 H   0  0  0  0  0  0  0  0  0  0  0  0
    4.1256   -0.0576    3.3812 C   0  0  0  0  0  0  0  0  0  0  0  0
    4.4582   -1.2896    2.8248 C   0  0  0  0  0  0  0  0  0  0  0  0
    4.9166   -1.3376    1.8456 H   0  0  0  0  0  0  0  0  0  0  0  0
    4.2133   -2.4500    3.5350 C   0  0  0  0  0  0  0  0  0  0  0  0
    4.4780   -3.4065    3.1085 H   0  0  0  0  0  0  0  0  0  0  0  0
    3.6306   -2.3882    4.7916 C   0  0  0  0  0  0  0  0  0  0  0  0
    3.4433   -3.2989    5.3411 H   0  0  0  0  0  0  0  0  0  0  0  0
    3.2922   -1.1638    5.3437 C   0  0  0  0  0  0  0  0  0  0  0  0
    2.8403   -1.1176    6.3231 H   0  0  0  0  0  0  0  0  0  0  0  0
    3.5400    0.0001    4.6397 C   0  0  0  0  0  0  0  0  0  0  0  0
    3.3030    0.9720    5.0624 H   0  0  0  0  0  0  0  0  0  0  0  0
    6.0502    1.4597    1.7983 C   0  0  0  0  0  0  0  0  0  0  0  0
    7.0402    0.6211    2.2959 C   0  0  0  0  0  0  0  0  0  0  0  0
    6.8104   -0.0634    3.0991 H   0  0  0  0  0  0  0  0  0  0  0  0
    8.3213    0.6894    1.7789 C   0  0  0  0  0  0  0  0  0  0  0  0
    9.0903    0.0386    2.1680 H   0  0  0  0  0  0  0  0  0  0  0  0
    8.6238    1.5978    0.7779 C   0  0  0  0  0  0  0  0  0  0  0  0
    9.6269    1.6505    0.3815 H   0  0  0  0  0  0  0  0  0  0  0  0
    7.6458    2.4550    0.2997 C   0  0  0  0  0  0  0  0  0  0  0  0
    7.8870    3.1801   -0.4639 H   0  0  0  0  0  0  0  0  0  0  0  0
    6.3640    2.3908    0.8119 C   0  0  0  0  0  0  0  0  0  0  0  0
    5.6041    3.0803    0.4658 H   0  0  0  0  0  0  0  0  0  0  0  0
  1  6  1  0  0  0  0
  1  5  1  0  0  0  0
  2  1  1  0  0  0  0
  2 24  1  0  0  0  0
  3 35  1  0  0  0  0
  3  1  1  0  0  0  0
  7  4  1  0  0  0  0
  7  3  1  0  0  0  0
  8  7  1  0  0  0  0
  9  7  1  0  0  0  0
 10  4  1  0  0  0  0
 10  2  1  0  0  0  0
 11 10  1  0  0  0  0
 12 10  1  0  0  0  0
 13  2  1  0  0  0  0
 13 14  1  0  0  0  0
 14 15  1  0  0  0  0
 16 14  2  0  0  0  0
 16 17  1  0  0  0  0
 18 16  1  0  0  0  0
 19 18  1  0  0  0  0
 20 22  1  0  0  0  0
 20 18  2  0  0  0  0
 21 20  1  0  0  0  0
 22 13  2  0  0  0  0
 23 22  1  0  0  0  0
 24 33  1  0  0  0  0
 25 24  2  0  0  0  0
 25 27  1  0  0  0  0
 26 25  1  0  0  0  0
 27 29  2  0  0  0  0
 28 27  1  0  0  0  0
 29 31  1  0  0  0  0
 29 30  1  0  0  0  0
 31 32  1  0  0  0  0
 33 34  1  0  0  0  0
 33 31  2  0  0  0  0
 35 44  1  0  0  0  0
 36 35  2  0  0  0  0
 36 38  1  0  0  0  0
 37 36  1  0  0  0  0
 38 40  2  0  0  0  0
 39 38  1  0  0  0  0
 40 41  1  0  0  0  0
 40 42  1  0  0  0  0
 42 43  1  0  0  0  0
 44 45  1  0  0  0  0
 44 42  2  0  0  0  0
 46 47  1  0  0  0  0
 46  3  1  0  0  0  0
 47 48  1  0  0  0  0
 49 50  1  0  0  0  0
 49 47  2  0  0  0  0
 51 49  1  0  0  0  0
 52 51  1  0  0  0  0
 53 51  2  0  0  0  0
 53 55  1  0  0  0  0
 54 53  1  0  0  0  0
 55 46  2  0  0  0  0
 56 55  1  0  0  0  0
M  END
$$$$
