CSD_code = DEBWEN | q = 0 | S = 0 | Stoichiometry = C18H24Cl2HgN2O4S2 | MND = 8
 OpenBabel04212202023D

 53 54  0  0  0  0  0  0  0  0999 V2000
    1.3118    7.1476    2.5028 C   0  0  0  0  0  0  0  0  0  0  0  0
    0.8154    6.1761    2.3672 H   0  0  0  0  0  0  0  0  0  0  0  0
    2.3200    7.1033    2.0622 H   0  0  0  0  0  0  0  0  0  0  0  0
    1.4255    7.4460    3.9909 C   0  0  0  0  0  0  0  0  0  0  0  0
    1.7123    8.4972    4.1350 H   0  0  0  0  0  0  0  0  0  0  0  0
    2.1947    6.7954    4.4340 H   0  0  0  0  0  0  0  0  0  0  0  0
    0.2048    7.2825    6.0011 C   0  0  0  0  0  0  0  0  0  0  0  0
    0.5767    8.2693    6.3108 H   0  0  0  0  0  0  0  0  0  0  0  0
    0.8600    6.5008    6.4146 H   0  0  0  0  0  0  0  0  0  0  0  0
   -1.2157    7.1026    6.5184 C   0  0  0  0  0  0  0  0  0  0  0  0
   -1.6709    6.2246    6.0414 H   0  0  0  0  0  0  0  0  0  0  0  0
   -1.2022    6.9632    7.6097 H   0  0  0  0  0  0  0  0  0  0  0  0
   -3.2628    8.2811    6.6712 C   0  0  0  0  0  0  0  0  0  0  0  0
   -3.2649    8.1323    7.7615 H   0  0  0  0  0  0  0  0  0  0  0  0
   -3.8526    7.4872    6.1934 H   0  0  0  0  0  0  0  0  0  0  0  0
   -3.8632    9.6394    6.3366 C   0  0  0  0  0  0  0  0  0  0  0  0
   -3.1130   10.4148    6.5449 H   0  0  0  0  0  0  0  0  0  0  0  0
   -4.7548    9.8203    6.9568 H   0  0  0  0  0  0  0  0  0  0  0  0
   -4.6320   10.9488    4.5417 C   0  0  0  0  0  0  0  0  0  0  0  0
   -5.2957   11.4001    5.2952 H   0  0  0  0  0  0  0  0  0  0  0  0
   -3.7579   11.6012    4.4082 H   0  0  0  0  0  0  0  0  0  0  0  0
   -5.4036   10.8248    3.2398 C   0  0  0  0  0  0  0  0  0  0  0  0
   -5.6857   11.8079    2.8682 H   0  0  0  0  0  0  0  0  0  0  0  0
   -6.2763   10.1860    3.3663 H   0  0  0  0  0  0  0  0  0  0  0  0
   -3.2566   11.2654    1.5812 C   0  0  0  0  0  0  0  0  0  0  0  0
   -2.0943   10.9202    0.8243 C   0  0  0  0  0  0  0  0  0  0  0  0
   -0.1473    9.2219   -0.1542 C   0  0  0  0  0  0  0  0  0  0  0  0
   -0.0636    9.1822   -1.2389 H   0  0  0  0  0  0  0  0  0  0  0  0
    0.2668   10.1554    0.2285 H   0  0  0  0  0  0  0  0  0  0  0  0
    0.5204    8.0120    0.4731 C   0  0  0  0  0  0  0  0  0  0  0  0
   -0.0261    7.0934    0.2101 H   0  0  0  0  0  0  0  0  0  0  0  0
    1.5472    7.9299    0.0795 H   0  0  0  0  0  0  0  0  0  0  0  0
   -2.4822   13.3930    1.7833 C   0  0  0  0  0  0  0  0  0  0  0  0
   -2.6271   14.7017    2.2708 C   0  0  0  0  0  0  0  0  0  0  0  0
   -3.5124   14.9449    2.8376 H   0  0  0  0  0  0  0  0  0  0  0  0
   -1.6509   15.6293    2.0194 C   0  0  0  0  0  0  0  0  0  0  0  0
   -1.7560   16.6376    2.3920 H   0  0  0  0  0  0  0  0  0  0  0  0
   -0.5080   15.2876    1.2820 C   0  0  0  0  0  0  0  0  0  0  0  0
    0.2460   16.0392    1.1001 H   0  0  0  0  0  0  0  0  0  0  0  0
   -0.3402   14.0180    0.7954 C   0  0  0  0  0  0  0  0  0  0  0  0
    0.5326   13.7364    0.2272 H   0  0  0  0  0  0  0  0  0  0  0  0
   -1.3252   13.0474    1.0369 C   0  0  0  0  0  0  0  0  0  0  0  0
   -1.0026   10.6767    3.8631 Cl  0  0  0  0  0  0  0  0  0  0  0  0
   -2.8183    6.5193    3.2195 Cl  0  0  0  0  0  0  0  0  0  0  0  0
   -1.9224    8.6021    3.4287 Hg  0  0  0  0  0  0  0  0  0  0  0  0
   -3.4400   12.4686    2.0336 N   0  0  0  0  0  0  0  0  0  0  0  0
   -1.1705   11.7902    0.5575 N   0  0  0  0  0  0  0  0  0  0  0  0
    0.5684    8.1677    1.8751 O   0  0  0  0  0  0  0  0  0  0  0  0
    0.1781    7.1877    4.5950 O   0  0  0  0  0  0  0  0  0  0  0  0
   -1.9344    8.2725    6.1944 O   0  0  0  0  0  0  0  0  0  0  0  0
   -4.2248    9.6634    4.9742 O   0  0  0  0  0  0  0  0  0  0  0  0
   -4.4305   10.0116    1.9346 S   0  0  0  0  0  0  0  0  0  0  0  0
   -1.9237    9.2631    0.2666 S   0  0  0  0  0  0  0  0  0  0  0  0
  1  4  1  0  0  0  0
  2  1  1  0  0  0  0
  3  1  1  0  0  0  0
  4  5  1  0  0  0  0
  4  6  1  0  0  0  0
  4 49  1  0  0  0  0
  7  8  1  0  0  0  0
  7  9  1  0  0  0  0
  7 10  1  0  0  0  0
 10 12  1  0  0  0  0
 11 10  1  0  0  0  0
 13 14  1  0  0  0  0
 15 13  1  0  0  0  0
 16 17  1  0  0  0  0
 16 13  1  0  0  0  0
 16 18  1  0  0  0  0
 19 51  1  0  0  0  0
 19 20  1  0  0  0  0
 21 19  1  0  0  0  0
 22 24  1  0  0  0  0
 22 19  1  0  0  0  0
 23 22  1  0  0  0  0
 25 52  1  0  0  0  0
 25 46  1  0  0  0  0
 26 25  2  0  0  0  0
 27 29  1  0  0  0  0
 27 53  1  0  0  0  0
 27 30  1  0  0  0  0
 28 27  1  0  0  0  0
 30 48  1  0  0  0  0
 31 30  1  0  0  0  0
 32 30  1  0  0  0  0
 33 46  2  0  0  0  0
 33 34  1  0  0  0  0
 34 35  1  0  0  0  0
 36 34  2  0  0  0  0
 36 37  1  0  0  0  0
 38 36  1  0  0  0  0
 39 38  1  0  0  0  0
 40 42  1  0  0  0  0
 40 38  2  0  0  0  0
 41 40  1  0  0  0  0
 42 33  1  0  0  0  0
 44 45  1  0  0  0  0
 45 43  1  0  0  0  0
 47 26  1  0  0  0  0
 47 42  2  0  0  0  0
 48  1  1  0  0  0  0
 49  7  1  0  0  0  0
 50 10  1  0  0  0  0
 50 13  1  0  0  0  0
 51 16  1  0  0  0  0
 52 22  1  0  0  0  0
 53 26  1  0  0  0  0
M  END
$$$$
