CSD_code = DEBXUD | q = 0 | S = 0 | Stoichiometry = C26H24Cl2P2Pt | MND = 4
 OpenBabel04212202023D

 55 59  0  0  0  0  0  0  0  0999 V2000
    9.1154    5.3515    2.6683 Pt  0  0  0  0  0  0  0  0  0  0  0  0
    7.1687    6.0017    0.0626 C   0  0  0  0  0  0  0  0  0  0  0  0
    7.0541    5.9261    1.9140 P   0  0  0  0  0  4  0  0  0  0  0  0
    5.4804    5.1229    2.2951 C   0  0  0  0  0  0  0  0  0  0  0  0
    5.0630    5.2058    3.6230 C   0  0  0  0  0  0  0  0  0  0  0  0
    3.8930    4.5878    4.0189 C   0  0  0  0  0  0  0  0  0  0  0  0
    3.1361    3.8821    3.0963 C   0  0  0  0  0  0  0  0  0  0  0  0
    3.5558    3.7879    1.7798 C   0  0  0  0  0  0  0  0  0  0  0  0
    4.7295    4.4000    1.3751 C   0  0  0  0  0  0  0  0  0  0  0  0
    6.7507    7.6669    2.3312 C   0  0  0  0  0  0  0  0  0  0  0  0
    5.5403    8.2895    2.0435 C   0  0  0  0  0  0  0  0  0  0  0  0
    5.3685    9.6276    2.3467 C   0  0  0  0  0  0  0  0  0  0  0  0
    6.3981   10.3457    2.9358 C   0  0  0  0  0  0  0  0  0  0  0  0
    7.6023    9.7264    3.2295 C   0  0  0  0  0  0  0  0  0  0  0  0
    7.7788    8.3879    2.9291 C   0  0  0  0  0  0  0  0  0  0  0  0
    8.4677    6.7094   -0.3104 C   0  0  0  0  0  0  0  0  0  0  0  0
    9.8615    5.8811    0.5966 P   0  0  0  0  0  4  0  0  0  0  0  0
   10.0943    4.3707   -0.3782 C   0  0  0  0  0  0  0  0  0  0  0  0
    9.7638    3.1551    0.2101 C   0  0  0  0  0  0  0  0  0  0  0  0
    9.9047    1.9795   -0.5051 C   0  0  0  0  0  0  0  0  0  0  0  0
   10.3746    2.0175   -1.8079 C   0  0  0  0  0  0  0  0  0  0  0  0
   10.7048    3.2287   -2.3972 C   0  0  0  0  0  0  0  0  0  0  0  0
   10.5667    4.4065   -1.6868 C   0  0  0  0  0  0  0  0  0  0  0  0
   11.3417    6.8623    0.2650 C   0  0  0  0  0  0  0  0  0  0  0  0
   11.3063    8.2466    0.1316 C   0  0  0  0  0  0  0  0  0  0  0  0
   12.4852    8.9533   -0.0246 C   0  0  0  0  0  0  0  0  0  0  0  0
   13.7009    8.2897   -0.0285 C   0  0  0  0  0  0  0  0  0  0  0  0
   13.7409    6.9137    0.1316 C   0  0  0  0  0  0  0  0  0  0  0  0
   12.5678    6.2001    0.2828 C   0  0  0  0  0  0  0  0  0  0  0  0
   11.2991    4.9566    3.2631 Cl  0  0  0  0  0  0  0  0  0  0  0  0
    8.3076    4.7143    4.7154 Cl  0  0  0  0  0  0  0  0  0  0  0  0
    7.1878    4.9734   -0.3139 H   0  0  0  0  0  0  0  0  0  0  0  0
    6.2984    6.5189   -0.3530 H   0  0  0  0  0  0  0  0  0  0  0  0
    5.6780    5.7397    4.3341 H   0  0  0  0  0  0  0  0  0  0  0  0
    3.5727    4.6501    5.0479 H   0  0  0  0  0  0  0  0  0  0  0  0
    2.2222    3.3969    3.4054 H   0  0  0  0  0  0  0  0  0  0  0  0
    2.9692    3.2301    1.0643 H   0  0  0  0  0  0  0  0  0  0  0  0
    5.0541    4.3122    0.3484 H   0  0  0  0  0  0  0  0  0  0  0  0
    4.7374    7.7207    1.5939 H   0  0  0  0  0  0  0  0  0  0  0  0
    4.4290   10.1129    2.1267 H   0  0  0  0  0  0  0  0  0  0  0  0
    6.2571   11.3899    3.1726 H   0  0  0  0  0  0  0  0  0  0  0  0
    8.3992   10.2847    3.6972 H   0  0  0  0  0  0  0  0  0  0  0  0
    8.7117    7.8789    3.1698 H   0  0  0  0  0  0  0  0  0  0  0  0
    8.6465    6.6804   -1.3893 H   0  0  0  0  0  0  0  0  0  0  0  0
    8.4184    7.7539    0.0105 H   0  0  0  0  0  0  0  0  0  0  0  0
    9.4127    3.1457    1.2408 H   0  0  0  0  0  0  0  0  0  0  0  0
    9.6546    1.0349   -0.0463 H   0  0  0  0  0  0  0  0  0  0  0  0
   10.4900    1.1005   -2.3664 H   0  0  0  0  0  0  0  0  0  0  0  0
   11.0751    3.2523   -3.4116 H   0  0  0  0  0  0  0  0  0  0  0  0
   10.8354    5.3534   -2.1359 H   0  0  0  0  0  0  0  0  0  0  0  0
   10.3637    8.7744    0.1561 H   0  0  0  0  0  0  0  0  0  0  0  0
   12.4556   10.0275   -0.1333 H   0  0  0  0  0  0  0  0  0  0  0  0
   14.6183    8.8472   -0.1451 H   0  0  0  0  0  0  0  0  0  0  0  0
   14.6891    6.3980    0.1465 H   0  0  0  0  0  0  0  0  0  0  0  0
   12.5887    5.1298    0.4302 H   0  0  0  0  0  0  0  0  0  0  0  0
  1 30  1  0  0  0  0
  1 31  1  0  0  0  0
  2  3  1  0  0  0  0
  3  4  1  0  0  0  0
  3 10  1  0  0  0  0
  3  1  1  0  0  0  0
  4  5  1  0  0  0  0
  5  6  2  0  0  0  0
  5 34  1  0  0  0  0
  6 35  1  0  0  0  0
  7 36  1  0  0  0  0
  7  6  1  0  0  0  0
  8  7  2  0  0  0  0
  9  8  1  0  0  0  0
  9  4  2  0  0  0  0
 10 15  1  0  0  0  0
 11 10  2  0  0  0  0
 11 12  1  0  0  0  0
 12 13  2  0  0  0  0
 13 41  1  0  0  0  0
 13 14  1  0  0  0  0
 14 42  1  0  0  0  0
 15 43  1  0  0  0  0
 15 14  2  0  0  0  0
 16 45  1  0  0  0  0
 16  2  1  0  0  0  0
 16 17  1  0  0  0  0
 17  1  1  0  0  0  0
 18 19  1  0  0  0  0
 18 17  1  0  0  0  0
 19 46  1  0  0  0  0
 20 47  1  0  0  0  0
 20 19  2  0  0  0  0
 21 20  1  0  0  0  0
 22 21  2  0  0  0  0
 22 23  1  0  0  0  0
 23 18  2  0  0  0  0
 24 29  1  0  0  0  0
 24 17  1  0  0  0  0
 25 51  1  0  0  0  0
 25 24  2  0  0  0  0
 26 25  1  0  0  0  0
 27 26  2  0  0  0  0
 27 28  1  0  0  0  0
 28 54  1  0  0  0  0
 28 29  2  0  0  0  0
 29 55  1  0  0  0  0
 32  2  1  0  0  0  0
 33  2  1  0  0  0  0
 37  8  1  0  0  0  0
 38  9  1  0  0  0  0
 39 11  1  0  0  0  0
 40 12  1  0  0  0  0
 44 16  1  0  0  0  0
 48 21  1  0  0  0  0
 49 22  1  0  0  0  0
 50 23  1  0  0  0  0
 52 26  1  0  0  0  0
 53 27  1  0  0  0  0
M  END
$$$$
