CSD_code = DEBYIT | q = 0 | S = 0 | Stoichiometry = C20H3ClF15OPPt | MND = 4
 OpenBabel04212202023D

 42 44  0  0  0  0  0  0  0  0999 V2000
    4.4740    2.1200    7.5494 C   0  0  0  0  0  0  0  0  0  0  0  0
    3.6817    1.3925    7.3769 H   0  0  0  0  0  0  0  0  0  0  0  0
    4.4227    2.4558    8.5857 H   0  0  0  0  0  0  0  0  0  0  0  0
    5.4387    1.6361    7.3857 H   0  0  0  0  0  0  0  0  0  0  0  0
    5.4219    4.6435    7.1766 C   0  0  0  0  0  2  0  0  0  0  0  0
    1.6048    5.4357    4.5841 C   0  0  0  0  0  0  0  0  0  0  0  0
    0.9646    5.1772    5.7917 C   0  0  0  0  0  0  0  0  0  0  0  0
   -0.3755    5.4970    5.9843 C   0  0  0  0  0  0  0  0  0  0  0  0
   -1.0919    6.1095    4.9577 C   0  0  0  0  0  0  0  0  0  0  0  0
   -0.4559    6.4189    3.7563 C   0  0  0  0  0  0  0  0  0  0  0  0
    0.8831    6.0892    3.5907 C   0  0  0  0  0  0  0  0  0  0  0  0
    3.9106    6.7398    3.9273 C   0  0  0  0  0  0  0  0  0  0  0  0
    3.9554    7.5620    5.0495 C   0  0  0  0  0  0  0  0  0  0  0  0
    4.4212    8.8660    5.0178 C   0  0  0  0  0  0  0  0  0  0  0  0
    4.8805    9.3796    3.8046 C   0  0  0  0  0  0  0  0  0  0  0  0
    4.8550    8.5810    2.6646 C   0  0  0  0  0  0  0  0  0  0  0  0
    4.3747    7.2744    2.7320 C   0  0  0  0  0  0  0  0  0  0  0  0
    3.5285    4.1853    2.7473 C   0  0  0  0  0  0  0  0  0  0  0  0
    2.5479    3.6408    1.9302 C   0  0  0  0  0  0  0  0  0  0  0  0
    2.8924    2.9424    0.7760 C   0  0  0  0  0  0  0  0  0  0  0  0
    4.2312    2.7594    0.4393 C   0  0  0  0  0  0  0  0  0  0  0  0
    5.2323    3.2667    1.2673 C   0  0  0  0  0  0  0  0  0  0  0  0
    4.8587    3.9604    2.4059 C   0  0  0  0  0  0  0  0  0  0  0  0
    6.1889    5.2328    7.7753 O   0  0  0  0  0  1  0  0  0  0  0  0
    2.7163    2.4639    4.9447 Cl  0  0  0  0  0  0  0  0  0  0  0  0
    3.3714    5.0066    4.3690 P   0  0  0  0  0  4  0  0  0  0  0  0
    1.6518    4.6362    6.7999 F   0  0  0  0  0  0  0  0  0  0  0  0
   -0.9691    5.2348    7.1446 F   0  0  0  0  0  0  0  0  0  0  0  0
   -2.3704    6.4201    5.1314 F   0  0  0  0  0  0  0  0  0  0  0  0
   -1.1230    7.0381    2.7867 F   0  0  0  0  0  0  0  0  0  0  0  0
    1.5047    6.4148    2.4541 F   0  0  0  0  0  0  0  0  0  0  0  0
    3.5086    7.0284    6.2004 F   0  0  0  0  0  0  0  0  0  0  0  0
    4.4321    9.6188    6.1148 F   0  0  0  0  0  0  0  0  0  0  0  0
    5.3354   10.6256    3.7373 F   0  0  0  0  0  0  0  0  0  0  0  0
    5.2862    9.0695    1.5046 F   0  0  0  0  0  0  0  0  0  0  0  0
    4.3529    6.5571    1.6065 F   0  0  0  0  0  0  0  0  0  0  0  0
    1.2582    3.7562    2.2457 F   0  0  0  0  0  0  0  0  0  0  0  0
    1.9389    2.4400   -0.0045 F   0  0  0  0  0  0  0  0  0  0  0  0
    4.5541    2.0906   -0.6621 F   0  0  0  0  0  0  0  0  0  0  0  0
    6.5142    3.0789    0.9671 F   0  0  0  0  0  0  0  0  0  0  0  0
    5.7826    4.4549    3.2470 F   0  0  0  0  0  0  0  0  0  0  0  0
    4.1930    3.6601    6.2000 Pt  0  0  1  0  0  0  0  0  0  0  0  0
  1  3  1  0  0  0  0
  2  1  1  0  0  0  0
  4  1  1  0  0  0  0
  5 24  1  0  0  0  0
  6  7  1  0  0  0  0
  7  8  2  0  0  0  0
  7 27  1  0  0  0  0
  8 28  1  0  0  0  0
  9 29  1  0  0  0  0
  9  8  1  0  0  0  0
 10  9  2  0  0  0  0
 11 10  1  0  0  0  0
 11  6  2  0  0  0  0
 12 26  1  0  0  0  0
 12 13  1  0  0  0  0
 13 32  1  0  0  0  0
 14 13  2  0  0  0  0
 14 33  1  0  0  0  0
 15 14  1  0  0  0  0
 16 17  1  0  0  0  0
 16 15  2  0  0  0  0
 17 12  2  0  0  0  0
 18 26  1  0  0  0  0
 19 37  1  0  0  0  0
 19 18  2  0  0  0  0
 20 19  1  0  0  0  0
 21 20  2  0  0  0  0
 21 22  1  0  0  0  0
 22 23  2  0  0  0  0
 23 18  1  0  0  0  0
 23 41  1  0  0  0  0
 26  6  1  0  0  0  0
 26 42  1  0  0  0  0
 30 10  1  0  0  0  0
 31 11  1  0  0  0  0
 34 15  1  0  0  0  0
 35 16  1  0  0  0  0
 36 17  1  0  0  0  0
 38 20  1  0  0  0  0
 39 21  1  0  0  0  0
 40 22  1  0  0  0  0
 42 25  1  6  0  0  0
 42  5  1  0  0  0  0
 42  1  1  0  0  0  0
M  END
$$$$
