CSD_code = DECKIH | q = 0 | S = 0 | Stoichiometry = C13H23Cl2FeN2P | MND = 4
 OpenBabel04212202023D

 42 43  0  0  1  0  0  0  0  0999 V2000
    1.5884    1.1464    2.9027 Fe  0  0  0  0  0  0  0  0  0  0  0  0
    2.5366    2.8633    3.8798 P   0  0  0  0  0  4  0  0  0  0  0  0
    3.3968    0.0963    2.6446 Cl  0  0  0  0  0  0  0  0  0  0  0  0
   -0.1233    0.3033    2.3696 Cl  0  0  0  0  0  0  0  0  0  0  0  0
    2.3423    4.0942    2.6940 N   0  0  0  0  0  0  0  0  0  0  0  0
    2.7931    4.9910    2.8334 H   0  0  0  0  0  0  0  0  0  0  0  0
    1.5661    2.5476    1.1657 N   0  0  0  0  0  0  0  0  0  0  0  0
    2.0530    3.7757    1.3911 C   0  0  1  0  0  3  0  0  0  0  0  0
    2.2299    4.7014    0.3592 C   0  0  0  0  0  0  0  0  0  0  0  0
    2.6182    5.6847    0.5789 H   0  0  0  0  0  0  0  0  0  0  0  0
    1.9048    4.3336   -0.9300 C   0  0  0  0  0  0  0  0  0  0  0  0
    2.0365    5.0297   -1.7444 H   0  0  0  0  0  0  0  0  0  0  0  0
    1.4115    3.0549   -1.1605 C   0  0  0  0  0  0  0  0  0  0  0  0
    1.1502    2.7285   -2.1533 H   0  0  0  0  0  0  0  0  0  0  0  0
    1.2579    2.2053   -0.0837 C   0  0  0  0  0  0  0  0  0  0  0  0
    0.8674    1.2060   -0.2092 H   0  0  0  0  0  0  0  0  0  0  0  0
    4.3561    3.1437    4.3507 C   0  0  0  0  0  0  0  0  0  0  0  0
    4.7814    1.9736    5.2368 C   0  0  0  0  0  0  0  0  0  0  0  0
    5.8516    2.0263    5.4306 H   0  0  0  0  0  0  0  0  0  0  0  0
    4.5713    1.0356    4.7268 H   0  0  0  0  0  0  0  0  0  0  0  0
    4.2646    1.9820    6.1924 H   0  0  0  0  0  0  0  0  0  0  0  0
    5.1294    3.0573    3.0306 C   0  0  0  0  0  0  0  0  0  0  0  0
    4.9530    3.9248    2.3960 H   0  0  0  0  0  0  0  0  0  0  0  0
    4.8427    2.1565    2.4898 H   0  0  0  0  0  0  0  0  0  0  0  0
    6.1972    3.0026    3.2344 H   0  0  0  0  0  0  0  0  0  0  0  0
    4.6689    4.4708    5.0386 C   0  0  0  0  0  0  0  0  0  0  0  0
    5.7503    4.5786    5.1192 H   0  0  0  0  0  0  0  0  0  0  0  0
    4.2604    4.5051    6.0452 H   0  0  0  0  0  0  0  0  0  0  0  0
    4.2961    5.3234    4.4728 H   0  0  0  0  0  0  0  0  0  0  0  0
    1.3695    3.5535    5.2172 C   0  0  0  0  0  0  0  0  0  0  0  0
    1.6627    2.8656    6.5472 C   0  0  0  0  0  0  0  0  0  0  0  0
    2.5659    3.2570    7.0089 H   0  0  0  0  0  0  0  0  0  0  0  0
    1.7809    1.7926    6.3958 H   0  0  0  0  0  0  0  0  0  0  0  0
    0.8373    3.0238    7.2404 H   0  0  0  0  0  0  0  0  0  0  0  0
   -0.0167    3.1167    4.7298 C   0  0  0  0  0  0  0  0  0  0  0  0
   -0.0905    2.0266    4.7089 H   0  0  0  0  0  0  0  0  0  0  0  0
   -0.2091    3.4920    3.7242 H   0  0  0  0  0  0  0  0  0  0  0  0
   -0.7930    3.4966    5.3919 H   0  0  0  0  0  0  0  0  0  0  0  0
    1.3645    5.0722    5.3724 C   0  0  0  0  0  0  0  0  0  0  0  0
    0.6007    5.3490    6.0988 H   0  0  0  0  0  0  0  0  0  0  0  0
    1.1162    5.5568    4.4308 H   0  0  0  0  0  0  0  0  0  0  0  0
    2.3134    5.4566    5.7304 H   0  0  0  0  0  0  0  0  0  0  0  0
  1  2  1  0  0  0  0
  2 17  1  0  0  0  0
  2 30  1  0  0  0  0
  3  1  1  0  0  0  0
  4  1  1  0  0  0  0
  5  6  1  0  0  0  0
  5  2  1  0  0  0  0
  7  8  1  0  0  0  0
  7  1  1  0  0  0  0
  8  9  1  1  0  0  0
  8  5  1  0  0  0  0
  9 10  1  0  0  0  0
 11  9  2  0  0  0  0
 12 11  1  0  0  0  0
 13 11  1  0  0  0  0
 13 15  2  0  0  0  0
 14 13  1  0  0  0  0
 15  7  1  0  0  0  0
 16 15  1  0  0  0  0
 17 26  1  0  0  0  0
 17 18  1  0  0  0  0
 18 19  1  0  0  0  0
 18 21  1  0  0  0  0
 20 18  1  0  0  0  0
 22 25  1  0  0  0  0
 22 17  1  0  0  0  0
 23 22  1  0  0  0  0
 24 22  1  0  0  0  0
 26 27  1  0  0  0  0
 26 28  1  0  0  0  0
 29 26  1  0  0  0  0
 30 39  1  0  0  0  0
 30 31  1  0  0  0  0
 31 32  1  0  0  0  0
 31 34  1  0  0  0  0
 33 31  1  0  0  0  0
 35 30  1  0  0  0  0
 35 38  1  0  0  0  0
 36 35  1  0  0  0  0
 37 35  1  0  0  0  0
 39 42  1  0  0  0  0
 39 40  1  0  0  0  0
 41 39  1  0  0  0  0
M  END
$$$$
