CSD_code = DECZAN | q = 0 | S = 0 | Stoichiometry = C24H36Cl2O2P2Pt | MND = 4
 OpenBabel04212202023D

 67 69  0  0  0  0  0  0  0  0999 V2000
    4.9602    2.9762    4.6567 Pt  0  0  0  0  0  0  0  0  0  0  0  0
    3.0208    4.2206    4.9175 Cl  0  0  0  0  0  0  0  0  0  0  0  0
    4.1840    1.7983    2.8328 Cl  0  0  0  0  0  0  0  0  0  0  0  0
    6.9450    1.8865    4.4920 P   0  0  0  0  0  4  0  0  0  0  0  0
    5.4365    4.3239    6.4375 P   0  0  0  0  0  4  0  0  0  0  0  0
    7.3769    1.4907    6.0102 O   0  0  0  0  0  0  0  0  0  0  0  0
    6.9842    4.2295    6.9633 O   0  0  0  0  0  0  0  0  0  0  0  0
    8.3758    3.0122    4.1358 C   0  0  0  0  0  0  0  0  0  0  0  0
    9.7485    2.3676    4.2759 C   0  0  0  0  0  0  0  0  0  0  0  0
    8.1809    3.7129    2.7940 C   0  0  0  0  0  0  0  0  0  0  0  0
    7.0912    0.2900    3.5272 C   0  0  0  0  0  0  0  0  0  0  0  0
    8.0649   -0.7079    4.1446 C   0  0  0  0  0  0  0  0  0  0  0  0
    7.3851    0.5488    2.0550 C   0  0  0  0  0  0  0  0  0  0  0  0
    5.4785    6.1058    5.8800 C   0  0  0  0  0  0  0  0  0  0  0  0
    6.3855    6.9941    6.7249 C   0  0  0  0  0  0  0  0  0  0  0  0
    5.9189    6.1449    4.4191 C   0  0  0  0  0  0  0  0  0  0  0  0
    4.4072    4.2387    8.0041 C   0  0  0  0  0  0  0  0  0  0  0  0
    3.4120    3.0848    7.9052 C   0  0  0  0  0  0  0  0  0  0  0  0
    3.6504    5.5192    8.3371 C   0  0  0  0  0  0  0  0  0  0  0  0
    6.4212    1.0988    6.9205 C   0  0  0  0  0  0  0  0  0  0  0  0
    5.4140    0.2044    6.5757 C   0  0  0  0  0  0  0  0  0  0  0  0
    4.5600   -0.2968    7.5424 C   0  0  0  0  0  0  0  0  0  0  0  0
    4.6994    0.1005    8.8617 C   0  0  0  0  0  0  0  0  0  0  0  0
    5.6665    1.0281    9.1977 C   0  0  0  0  0  0  0  0  0  0  0  0
    6.5263    1.5571    8.2369 C   0  0  0  0  0  0  0  0  0  0  0  0
    7.5520    2.5334    8.6436 C   0  0  0  0  0  0  0  0  0  0  0  0
    8.3911    2.2045    9.7076 C   0  0  0  0  0  0  0  0  0  0  0  0
    9.3731    3.0662   10.1524 C   0  0  0  0  0  0  0  0  0  0  0  0
    9.5321    4.2945    9.5330 C   0  0  0  0  0  0  0  0  0  0  0  0
    8.7027    4.6464    8.4875 C   0  0  0  0  0  0  0  0  0  0  0  0
    7.7073    3.7826    8.0355 C   0  0  0  0  0  0  0  0  0  0  0  0
    8.2699    3.7571    4.9349 H   0  0  0  0  0  0  0  0  0  0  0  0
    9.8194    1.8289    5.2181 H   0  0  0  0  0  0  0  0  0  0  0  0
   10.5178    3.1386    4.2636 H   0  0  0  0  0  0  0  0  0  0  0  0
    9.9507    1.6826    3.4563 H   0  0  0  0  0  0  0  0  0  0  0  0
    7.1234    3.9277    2.6322 H   0  0  0  0  0  0  0  0  0  0  0  0
    8.5312    3.0983    1.9702 H   0  0  0  0  0  0  0  0  0  0  0  0
    8.7337    4.6505    2.7691 H   0  0  0  0  0  0  0  0  0  0  0  0
    6.0768   -0.1263    3.5672 H   0  0  0  0  0  0  0  0  0  0  0  0
    7.8392   -0.8877    5.1940 H   0  0  0  0  0  0  0  0  0  0  0  0
    9.0912   -0.3592    4.0710 H   0  0  0  0  0  0  0  0  0  0  0  0
    7.9903   -1.6563    3.6146 H   0  0  0  0  0  0  0  0  0  0  0  0
    6.6936    1.2932    1.6674 H   0  0  0  0  0  0  0  0  0  0  0  0
    7.2416   -0.3707    1.4902 H   0  0  0  0  0  0  0  0  0  0  0  0
    8.4084    0.8810    1.9015 H   0  0  0  0  0  0  0  0  0  0  0  0
    4.4451    6.4528    5.9395 H   0  0  0  0  0  0  0  0  0  0  0  0
    6.2384    6.8396    7.7915 H   0  0  0  0  0  0  0  0  0  0  0  0
    6.1885    8.0404    6.4979 H   0  0  0  0  0  0  0  0  0  0  0  0
    7.4283    6.7888    6.4939 H   0  0  0  0  0  0  0  0  0  0  0  0
    5.2980    5.4780    3.8147 H   0  0  0  0  0  0  0  0  0  0  0  0
    6.9591    5.8385    4.3293 H   0  0  0  0  0  0  0  0  0  0  0  0
    5.8193    7.1528    4.0202 H   0  0  0  0  0  0  0  0  0  0  0  0
    5.1354    4.0258    8.7990 H   0  0  0  0  0  0  0  0  0  0  0  0
    3.8382    2.2370    7.3712 H   0  0  0  0  0  0  0  0  0  0  0  0
    2.5300    3.4081    7.3593 H   0  0  0  0  0  0  0  0  0  0  0  0
    3.1078    2.7557    8.8969 H   0  0  0  0  0  0  0  0  0  0  0  0
    4.3106    6.3649    8.5079 H   0  0  0  0  0  0  0  0  0  0  0  0
    3.0707    5.3564    9.2450 H   0  0  0  0  0  0  0  0  0  0  0  0
    2.9580    5.7619    7.5348 H   0  0  0  0  0  0  0  0  0  0  0  0
    5.3241   -0.1191    5.5493 H   0  0  0  0  0  0  0  0  0  0  0  0
    3.7896   -0.9971    7.2604 H   0  0  0  0  0  0  0  0  0  0  0  0
    4.0459   -0.2988    9.6218 H   0  0  0  0  0  0  0  0  0  0  0  0
    5.7577    1.3710   10.2180 H   0  0  0  0  0  0  0  0  0  0  0  0
    8.2706    1.2373   10.1729 H   0  0  0  0  0  0  0  0  0  0  0  0
   10.0126    2.7810   10.9734 H   0  0  0  0  0  0  0  0  0  0  0  0
   10.2969    4.9802    9.8643 H   0  0  0  0  0  0  0  0  0  0  0  0
    8.8116    5.6025    7.9999 H   0  0  0  0  0  0  0  0  0  0  0  0
  1  2  1  0  0  0  0
  1  5  1  0  0  0  0
  3  1  1  0  0  0  0
  4  1  1  0  0  0  0
  4  6  1  0  0  0  0
  5  7  1  0  0  0  0
  5 17  1  0  0  0  0
  6 20  1  0  0  0  0
  7 31  1  0  0  0  0
  8  9  1  0  0  0  0
  8  4  1  0  0  0  0
  8 32  1  0  0  0  0
  9 33  1  0  0  0  0
 10  8  1  0  0  0  0
 11 39  1  0  0  0  0
 11 12  1  0  0  0  0
 11  4  1  0  0  0  0
 12 40  1  0  0  0  0
 13 11  1  0  0  0  0
 14 46  1  0  0  0  0
 14  5  1  0  0  0  0
 14 15  1  0  0  0  0
 15 47  1  0  0  0  0
 16 14  1  0  0  0  0
 17 19  1  0  0  0  0
 17 53  1  0  0  0  0
 18 17  1  0  0  0  0
 18 56  1  0  0  0  0
 19 57  1  0  0  0  0
 19 58  1  0  0  0  0
 20 25  1  0  0  0  0
 21 20  2  0  0  0  0
 21 22  1  0  0  0  0
 22 23  2  0  0  0  0
 23 24  1  0  0  0  0
 23 62  1  0  0  0  0
 24 63  1  0  0  0  0
 25 26  1  0  0  0  0
 25 24  2  0  0  0  0
 26 27  1  0  0  0  0
 27 28  2  0  0  0  0
 27 64  1  0  0  0  0
 28 65  1  0  0  0  0
 29 66  1  0  0  0  0
 29 28  1  0  0  0  0
 30 29  2  0  0  0  0
 31 30  1  0  0  0  0
 31 26  2  0  0  0  0
 34  9  1  0  0  0  0
 35  9  1  0  0  0  0
 36 10  1  0  0  0  0
 37 10  1  0  0  0  0
 38 10  1  0  0  0  0
 41 12  1  0  0  0  0
 42 12  1  0  0  0  0
 43 13  1  0  0  0  0
 44 13  1  0  0  0  0
 45 13  1  0  0  0  0
 48 15  1  0  0  0  0
 49 15  1  0  0  0  0
 50 16  1  0  0  0  0
 51 16  1  0  0  0  0
 52 16  1  0  0  0  0
 54 18  1  0  0  0  0
 55 18  1  0  0  0  0
 59 19  1  0  0  0  0
 60 21  1  0  0  0  0
 61 22  1  0  0  0  0
 67 30  1  0  0  0  0
M  END
$$$$
