CSD_code = DEDGAW | q = 1 | S = 0 | Stoichiometry = C13H33ClIrNP3S(1+) | MND = 6
 OpenBabel04212202023D

 53 53  0  0  0  0  0  0  0  0999 V2000
   17.5901    2.7965   -2.8412 Ir  0  0  0  0  0  0  0  0  0  0  0  0
   15.4632    2.4338   -3.8969 P   0  0  0  0  0  4  0  0  0  0  0  0
   18.5550    0.6712   -3.4938 P   0  0  0  0  0  4  0  0  0  0  0  0
   19.1867    3.3804   -1.1967 P   0  0  0  0  0  4  0  0  0  0  0  0
   16.7676    1.6822   -0.9160 Cl  0  0  0  0  0  0  0  0  0  0  0  0
   16.4880    4.8324   -2.1804 S   0  0  0  0  0  0  0  0  0  0  0  0
   17.0498    6.0764   -3.1974 C   0  0  0  0  0  0  0  0  0  0  0  0
   16.6416    7.0379   -2.9187 H   0  0  0  0  0  0  0  0  0  0  0  0
   17.8787    6.0478   -4.2574 C   0  0  0  0  0  0  0  0  0  0  0  0
   18.0940    6.9779   -4.7599 H   0  0  0  0  0  0  0  0  0  0  0  0
   18.5176    4.9467   -4.8227 N   0  0  0  0  0  0  0  0  0  0  0  0
   18.4612    3.7113   -4.4099 C   0  0  0  0  0  3  0  0  0  0  0  0
   19.0631    3.0676   -5.0587 H   0  0  0  0  0  0  0  0  0  0  0  0
   19.3053    5.3089   -5.9936 C   0  0  0  0  0  0  0  0  0  0  0  0
   19.7843    4.4306   -6.4206 H   0  0  0  0  0  0  0  0  0  0  0  0
   20.0752    6.0299   -5.7161 H   0  0  0  0  0  0  0  0  0  0  0  0
   18.6630    5.7626   -6.7492 H   0  0  0  0  0  0  0  0  0  0  0  0
   14.9954    0.9562   -4.8803 C   0  0  0  0  0  0  0  0  0  0  0  0
   13.9119    0.9522   -4.9975 H   0  0  0  0  0  0  0  0  0  0  0  0
   15.2967    0.0421   -4.3755 H   0  0  0  0  0  0  0  0  0  0  0  0
   15.4516    0.9917   -5.8670 H   0  0  0  0  0  0  0  0  0  0  0  0
   14.1217    2.4432   -2.6666 C   0  0  0  0  0  0  0  0  0  0  0  0
   13.1597    2.4534   -3.1787 H   0  0  0  0  0  0  0  0  0  0  0  0
   14.2079    3.3184   -2.0256 H   0  0  0  0  0  0  0  0  0  0  0  0
   14.2034    1.5531   -2.0451 H   0  0  0  0  0  0  0  0  0  0  0  0
   14.9425    3.7519   -5.0571 C   0  0  0  0  0  0  0  0  0  0  0  0
   13.9378    3.5351   -5.4174 H   0  0  0  0  0  0  0  0  0  0  0  0
   15.6262    3.7900   -5.9034 H   0  0  0  0  0  0  0  0  0  0  0  0
   14.9431    4.7167   -4.5556 H   0  0  0  0  0  0  0  0  0  0  0  0
   17.7891   -0.8067   -2.7522 C   0  0  0  0  0  0  0  0  0  0  0  0
   18.2789   -1.7037   -3.1303 H   0  0  0  0  0  0  0  0  0  0  0  0
   16.7262   -0.8391   -2.9759 H   0  0  0  0  0  0  0  0  0  0  0  0
   17.8977   -0.7498   -1.6710 H   0  0  0  0  0  0  0  0  0  0  0  0
   20.3270    0.2893   -3.2081 C   0  0  0  0  0  0  0  0  0  0  0  0
   20.6103   -0.5460   -3.8478 H   0  0  0  0  0  0  0  0  0  0  0  0
   20.4799    0.0045   -2.1712 H   0  0  0  0  0  0  0  0  0  0  0  0
   20.9492    1.1497   -3.4462 H   0  0  0  0  0  0  0  0  0  0  0  0
   18.4880    0.3102   -5.2959 C   0  0  0  0  0  0  0  0  0  0  0  0
   18.5713   -0.7644   -5.4499 H   0  0  0  0  0  0  0  0  0  0  0  0
   19.3232    0.8000   -5.7919 H   0  0  0  0  0  0  0  0  0  0  0  0
   17.5626    0.6674   -5.7352 H   0  0  0  0  0  0  0  0  0  0  0  0
   20.5629    4.4583   -1.7548 C   0  0  0  0  0  0  0  0  0  0  0  0
   21.2306    4.6658   -0.9204 H   0  0  0  0  0  0  0  0  0  0  0  0
   20.1585    5.3967   -2.1295 H   0  0  0  0  0  0  0  0  0  0  0  0
   21.1223    3.9712   -2.5509 H   0  0  0  0  0  0  0  0  0  0  0  0
   18.5228    4.3492    0.1962 C   0  0  0  0  0  0  0  0  0  0  0  0
   19.3193    4.4989    0.9249 H   0  0  0  0  0  0  0  0  0  0  0  0
   17.7025    3.8005    0.6556 H   0  0  0  0  0  0  0  0  0  0  0  0
   18.1565    5.3149   -0.1451 H   0  0  0  0  0  0  0  0  0  0  0  0
   20.0833    2.0626   -0.3053 C   0  0  0  0  0  0  0  0  0  0  0  0
   20.4573    2.4721    0.6324 H   0  0  0  0  0  0  0  0  0  0  0  0
   20.9233    1.7098   -0.8965 H   0  0  0  0  0  0  0  0  0  0  0  0
   19.4027    1.2431   -0.0867 H   0  0  0  0  0  0  0  0  0  0  0  0
  1  6  1  0  0  0  0
  1  4  1  0  0  0  0
  1  5  1  0  0  0  0
  2  1  1  0  0  0  0
  2 22  1  0  0  0  0
  3 34  1  0  0  0  0
  3  1  1  0  0  0  0
  3 30  1  0  0  0  0
  4 50  1  0  0  0  0
  4 46  1  0  0  0  0
  7  8  1  0  0  0  0
  7  6  1  0  0  0  0
  9  7  2  0  0  0  0
 10  9  1  0  0  0  0
 11 12  1  0  0  0  0
 11  9  1  0  0  0  0
 12  1  1  0  0  0  0
 13 12  1  0  0  0  0
 14 16  1  0  0  0  0
 14 11  1  0  0  0  0
 15 14  1  0  0  0  0
 17 14  1  0  0  0  0
 18 20  1  0  0  0  0
 18  2  1  0  0  0  0
 19 18  1  0  0  0  0
 21 18  1  0  0  0  0
 22 25  1  0  0  0  0
 22 24  1  0  0  0  0
 23 22  1  0  0  0  0
 26 29  1  0  0  0  0
 26  2  1  0  0  0  0
 27 26  1  0  0  0  0
 28 26  1  0  0  0  0
 30 33  1  0  0  0  0
 31 30  1  0  0  0  0
 32 30  1  0  0  0  0
 34 36  1  0  0  0  0
 35 34  1  0  0  0  0
 37 34  1  0  0  0  0
 38  3  1  0  0  0  0
 39 38  1  0  0  0  0
 40 38  1  0  0  0  0
 41 38  1  0  0  0  0
 42  4  1  0  0  0  0
 42 43  1  0  0  0  0
 44 42  1  0  0  0  0
 45 42  1  0  0  0  0
 46 48  1  0  0  0  0
 46 47  1  0  0  0  0
 49 46  1  0  0  0  0
 50 53  1  0  0  0  0
 50 51  1  0  0  0  0
 52 50  1  0  0  0  0
M  END
$$$$
