CSD_code = DEDZET | q = 0 | S = 0 | Stoichiometry = C6H11INO2Rh | MND = 4
 OpenBabel04212202023D

 22 21  0  0  0  0  0  0  0  0999 V2000
    1.3386    4.4168    9.4844 I   0  0  0  0  0  0  0  0  0  0  0  0
    2.3376    5.4947    7.3689 Rh  0  0  0  0  0  0  0  0  0  0  0  0
    1.0941    3.2744    5.8163 O   0  0  0  0  0  1  0  0  0  0  0  0
    3.4971    6.7261    4.9013 O   0  0  0  0  0  1  0  0  0  0  0  0
    3.2004    7.0847    8.6179 N   0  0  0  0  0  4  0  0  0  0  0  0
    2.8908    6.8078    9.5576 H   0  0  0  0  0  0  0  0  0  0  0  0
    1.5812    4.1340    6.3870 C   0  0  0  0  0  2  0  0  0  0  0  0
    3.0587    6.2673    5.8560 C   0  0  0  0  0  2  0  0  0  0  0  0
    4.6697    7.0924    8.6571 C   0  0  0  0  0  0  0  0  0  0  0  0
    5.0420    7.4505    7.6914 H   0  0  0  0  0  0  0  0  0  0  0  0
    5.0268    7.7816    9.4355 H   0  0  0  0  0  0  0  0  0  0  0  0
    5.1890    5.6854    8.9276 C   0  0  0  0  0  0  0  0  0  0  0  0
    4.9147    5.3579    9.9288 H   0  0  0  0  0  0  0  0  0  0  0  0
    6.2710    5.6537    8.8365 H   0  0  0  0  0  0  0  0  0  0  0  0
    4.7577    4.9823    8.1969 H   0  0  0  0  0  0  0  0  0  0  0  0
    2.6319    8.4185    8.3765 C   0  0  0  0  0  0  0  0  0  0  0  0
    2.9967    8.7828    7.4102 H   0  0  0  0  0  0  0  0  0  0  0  0
    2.9659    9.1216    9.1527 H   0  0  0  0  0  0  0  0  0  0  0  0
    1.1100    8.3399    8.3640 C   0  0  0  0  0  0  0  0  0  0  0  0
    0.7827    7.5704    7.6463 H   0  0  0  0  0  0  0  0  0  0  0  0
    0.6810    9.2919    8.0651 H   0  0  0  0  0  0  0  0  0  0  0  0
    0.7280    8.0810    9.3500 H   0  0  0  0  0  0  0  0  0  0  0  0
  2  5  1  0  0  0  0
  2  1  1  0  0  0  0
  3  7  1  0  0  0  0
  4  8  1  0  0  0  0
  5  9  1  0  0  0  0
  5  6  1  0  0  0  0
  7  2  1  0  0  0  0
  8  2  1  0  0  0  0
  9 12  1  0  0  0  0
  9 11  1  0  0  0  0
 10  9  1  0  0  0  0
 12 13  1  0  0  0  0
 14 12  1  0  0  0  0
 15 12  1  0  0  0  0
 16  5  1  0  0  0  0
 16 18  1  0  0  0  0
 17 16  1  0  0  0  0
 19 16  1  0  0  0  0
 19 22  1  0  0  0  0
 20 19  1  0  0  0  0
 21 19  1  0  0  0  0
M  END
$$$$
