CSD_code = DEFGIF | q = 0 | S = 0 | Stoichiometry = C29H33ClNOPPd | MND = 4
 OpenBabel04212202023D

 67 72  0  0  1  0  0  0  0  0999 V2000
    4.7435   11.4063   12.5500 Pd  0  0  1  0  0  0  0  0  0  0  0  0
    5.7875   11.5500   10.6195 P   0  0  2  0  0  4  0  0  0  0  0  0
    6.1391   13.1135   13.3441 Cl  0  0  0  0  0  0  0  0  0  0  0  0
    4.2296   15.5853    8.5951 O   0  0  0  0  0  0  0  0  0  0  0  0
    3.6941   11.1944   14.3681 N   0  0  0  0  0  4  0  0  0  0  0  0
    3.5874    9.8694   12.0339 C   0  0  0  0  0  0  0  0  0  0  0  0
    3.8345    8.8869   11.0581 C   0  0  0  0  0  0  0  0  0  0  0  0
    4.7083    8.9768   10.4174 H   0  0  0  0  0  0  0  0  0  0  0  0
    2.9984    7.8144   10.9143 C   0  0  0  0  0  0  0  0  0  0  0  0
    3.1984    7.0573   10.1680 H   0  0  0  0  0  0  0  0  0  0  0  0
    1.8564    7.6720   11.7276 C   0  0  0  0  0  0  0  0  0  0  0  0
    0.9765    6.5813   11.5701 C   0  0  0  0  0  0  0  0  0  0  0  0
    1.1990    5.8473   10.8082 H   0  0  0  0  0  0  0  0  0  0  0  0
   -0.1328    6.4530   12.3560 C   0  0  0  0  0  0  0  0  0  0  0  0
   -0.8026    5.6151   12.2295 H   0  0  0  0  0  0  0  0  0  0  0  0
   -0.4103    7.4193   13.3337 C   0  0  0  0  0  0  0  0  0  0  0  0
   -1.2951    7.3155   13.9452 H   0  0  0  0  0  0  0  0  0  0  0  0
    0.4240    8.4864   13.5147 C   0  0  0  0  0  0  0  0  0  0  0  0
    0.1795    9.2218   14.2665 H   0  0  0  0  0  0  0  0  0  0  0  0
    1.5864    8.6477   12.7273 C   0  0  0  0  0  0  0  0  0  0  0  0
    2.4954    9.7255   12.8705 C   0  0  0  0  0  0  0  0  0  0  0  0
    2.3361   10.8138   13.9130 C   0  0  2  0  0  0  0  0  0  0  0  0
    1.7506   10.4797   14.7836 H   0  0  0  0  0  0  0  0  0  0  0  0
    1.6358   12.0038   13.2433 C   0  0  0  0  0  0  0  0  0  0  0  0
    1.2775   12.7330   13.9664 H   0  0  0  0  0  0  0  0  0  0  0  0
    0.7843   11.6427   12.6699 H   0  0  0  0  0  0  0  0  0  0  0  0
    2.3422   12.4902   12.5502 H   0  0  0  0  0  0  0  0  0  0  0  0
    4.3251   10.0853   15.0890 C   0  0  0  0  0  0  0  0  0  0  0  0
    3.8124    9.8980   16.0436 H   0  0  0  0  0  0  0  0  0  0  0  0
    5.3691   10.3392   15.2976 H   0  0  0  0  0  0  0  0  0  0  0  0
    4.2908    9.1704   14.4918 H   0  0  0  0  0  0  0  0  0  0  0  0
    3.6618   12.3566   15.2542 C   0  0  0  0  0  0  0  0  0  0  0  0
    2.9805   12.1850   16.0989 H   0  0  0  0  0  0  0  0  0  0  0  0
    3.3534   13.2490   14.7105 H   0  0  0  0  0  0  0  0  0  0  0  0
    4.6646   12.5420   15.6397 H   0  0  0  0  0  0  0  0  0  0  0  0
    7.9721   10.1167    9.4233 C   0  0  0  0  0  0  0  0  0  0  0  0
    7.7667   10.5945    8.4784 H   0  0  0  0  0  0  0  0  0  0  0  0
    9.0141    9.2129    9.5338 C   0  0  0  0  0  0  0  0  0  0  0  0
    9.6200    8.9879    8.6684 H   0  0  0  0  0  0  0  0  0  0  0  0
    9.2832    8.5947   10.7445 C   0  0  0  0  0  0  0  0  0  0  0  0
   10.0993    7.8913   10.8203 H   0  0  0  0  0  0  0  0  0  0  0  0
    8.5055    8.8751   11.8570 C   0  0  0  0  0  0  0  0  0  0  0  0
    8.7150    8.3909   12.7995 H   0  0  0  0  0  0  0  0  0  0  0  0
    7.4610    9.7741   11.7537 C   0  0  0  0  0  0  0  0  0  0  0  0
    6.8321   10.0065   12.6242 H   0  0  0  0  0  0  0  0  0  0  0  0
    7.1911   10.4057   10.5379 C   0  0  0  0  0  0  0  0  0  0  0  0
    6.2956   13.2516   10.0928 C   0  0  1  0  0  0  0  0  0  0  0  0
    7.0168   13.7753   10.7169 H   0  0  0  0  0  0  0  0  0  0  0  0
    6.6685   13.0794    8.6465 C   0  0  0  0  0  0  0  0  0  0  0  0
    5.8536   12.2008    8.0538 C   0  0  0  0  0  0  0  0  0  0  0  0
    4.8334   11.6802    9.0310 C   0  0  2  0  0  0  0  0  0  0  0  0
    4.2659   10.8141    8.6954 H   0  0  0  0  0  0  0  0  0  0  0  0
    3.9353   12.8666    9.4521 C   0  0  0  0  0  0  0  0  0  0  0  0
    3.4673   13.3343    8.5836 H   0  0  0  0  0  0  0  0  0  0  0  0
    3.1512   12.5125   10.1316 H   0  0  0  0  0  0  0  0  0  0  0  0
    4.8672   13.8713   10.1579 C   0  0  2  0  0  0  0  0  0  0  0  0
    4.6124   13.9815   11.2265 H   0  0  0  0  0  0  0  0  0  0  0  0
    5.7866   11.7924    6.6221 C   0  0  0  0  0  0  0  0  0  0  0  0
    6.6425   12.1588    6.0619 H   0  0  0  0  0  0  0  0  0  0  0  0
    4.8817   12.1946    6.1662 H   0  0  0  0  0  0  0  0  0  0  0  0
    5.7458   10.7063    6.5381 H   0  0  0  0  0  0  0  0  0  0  0  0
    7.7627   13.9007    8.0573 C   0  0  0  0  0  0  0  0  0  0  0  0
    8.0188   13.5647    7.0561 H   0  0  0  0  0  0  0  0  0  0  0  0
    8.6510   13.8475    8.6859 H   0  0  0  0  0  0  0  0  0  0  0  0
    7.4546   14.9453    7.9995 H   0  0  0  0  0  0  0  0  0  0  0  0
    4.8760   15.2365    9.5445 C   0  0  0  0  0  0  0  0  0  0  0  0
    5.5725   15.9331   10.0511 H   0  0  0  0  0  0  0  0  0  0  0  0
  1  3  1  1  0  0  0
  1  5  1  0  0  0  0
  2 46  1  6  0  0  0
  2  1  1  0  0  0  0
  4 66  2  0  0  0  0
  5 28  1  0  0  0  0
  5 32  1  0  0  0  0
  6  1  1  0  0  0  0
  6 21  1  0  0  0  0
  7  6  2  0  0  0  0
  8  7  1  0  0  0  0
  9  7  1  0  0  0  0
  9 11  2  0  0  0  0
 10  9  1  0  0  0  0
 11 20  1  0  0  0  0
 12 11  1  0  0  0  0
 12 14  2  0  0  0  0
 13 12  1  0  0  0  0
 14 16  1  0  0  0  0
 15 14  1  0  0  0  0
 16 18  2  0  0  0  0
 16 17  1  0  0  0  0
 18 19  1  0  0  0  0
 20 21  2  0  0  0  0
 20 18  1  0  0  0  0
 21 22  1  0  0  0  0
 22  5  1  0  0  0  0
 22 23  1  1  0  0  0
 24 22  1  0  0  0  0
 24 25  1  0  0  0  0
 26 24  1  0  0  0  0
 27 24  1  0  0  0  0
 28 30  1  0  0  0  0
 28 29  1  0  0  0  0
 31 28  1  0  0  0  0
 32 35  1  0  0  0  0
 32 33  1  0  0  0  0
 34 32  1  0  0  0  0
 36 38  2  0  0  0  0
 36 46  1  0  0  0  0
 37 36  1  0  0  0  0
 38 40  1  0  0  0  0
 39 38  1  0  0  0  0
 40 41  1  0  0  0  0
 40 42  2  0  0  0  0
 42 43  1  0  0  0  0
 44 42  1  0  0  0  0
 44 45  1  0  0  0  0
 46 44  2  0  0  0  0
 47 56  1  0  0  0  0
 47  2  1  0  0  0  0
 47 48  1  1  0  0  0
 49 47  1  0  0  0  0
 50 49  2  0  0  0  0
 50 51  1  0  0  0  0
 51 52  1  6  0  0  0
 51 53  1  0  0  0  0
 51  2  1  0  0  0  0
 53 55  1  0  0  0  0
 53 56  1  0  0  0  0
 54 53  1  0  0  0  0
 56 57  1  1  0  0  0
 58 50  1  0  0  0  0
 59 58  1  0  0  0  0
 60 58  1  0  0  0  0
 61 58  1  0  0  0  0
 62 49  1  0  0  0  0
 62 64  1  0  0  0  0
 63 62  1  0  0  0  0
 65 62  1  0  0  0  0
 66 67  1  0  0  0  0
 66 56  1  0  0  0  0
M  END
$$$$
