CSD_code = DEFPIN | q = 0 | S = 0 | Stoichiometry = C8H16Cl2O2PtS2 | MND = 4
 OpenBabel04212202023D

 31 32  0  0  0  0  0  0  0  0999 V2000
   -2.0951    2.7020    2.1769 Pt  0  0  0  0  0  0  0  0  0  0  0  0
   -3.3569    4.3702    1.3372 Cl  0  0  0  0  0  0  0  0  0  0  0  0
   -3.9119    1.5687    2.8831 Cl  0  0  0  0  0  0  0  0  0  0  0  0
   -0.1897    3.7117    1.4015 S   0  0  0  0  0  0  0  0  0  0  0  0
   -0.7187    1.1225    3.1053 S   0  0  0  0  0  0  0  0  0  0  0  0
    0.6787    2.6909    0.8292 O   0  0  0  0  0  1  0  0  0  0  0  0
    0.3778    1.8073    3.7775 O   0  0  0  0  0  1  0  0  0  0  0  0
   -0.2948    5.1232    0.2280 C   0  0  0  0  0  0  0  0  0  0  0  0
    0.6148    6.2008    0.7878 C   0  0  0  0  0  0  0  0  0  0  0  0
    0.4918    6.1094    2.3073 C   0  0  0  0  0  0  0  0  0  0  0  0
    0.7505    4.6589    2.6548 C   0  0  0  0  0  0  0  0  0  0  0  0
   -0.0192   -0.0984    1.9319 C   0  0  0  0  0  0  0  0  0  0  0  0
   -0.7191   -1.4005    2.2601 C   0  0  0  0  0  0  0  0  0  0  0  0
   -0.7792   -1.4704    3.7843 C   0  0  0  0  0  0  0  0  0  0  0  0
   -1.3919   -0.1592    4.2373 C   0  0  0  0  0  0  0  0  0  0  0  0
   -0.0033    4.7541   -0.7504 H   0  0  0  0  0  0  0  0  0  0  0  0
   -1.3402    5.4281    0.2238 H   0  0  0  0  0  0  0  0  0  0  0  0
    1.6485    6.0113    0.4921 H   0  0  0  0  0  0  0  0  0  0  0  0
    0.3260    7.1863    0.4226 H   0  0  0  0  0  0  0  0  0  0  0  0
    1.1982    6.7710    2.8089 H   0  0  0  0  0  0  0  0  0  0  0  0
   -0.5201    6.3868    2.6090 H   0  0  0  0  0  0  0  0  0  0  0  0
    1.7905    4.3670    2.5280 H   0  0  0  0  0  0  0  0  0  0  0  0
    0.4068    4.3627    3.6417 H   0  0  0  0  0  0  0  0  0  0  0  0
   -0.1873    0.2599    0.9204 H   0  0  0  0  0  0  0  0  0  0  0  0
    1.0486   -0.1224    2.1364 H   0  0  0  0  0  0  0  0  0  0  0  0
   -1.7328   -1.3889    1.8551 H   0  0  0  0  0  0  0  0  0  0  0  0
   -0.1867   -2.2536    1.8389 H   0  0  0  0  0  0  0  0  0  0  0  0
   -1.3727   -2.3196    4.1227 H   0  0  0  0  0  0  0  0  0  0  0  0
    0.2307   -1.5706    4.1870 H   0  0  0  0  0  0  0  0  0  0  0  0
   -2.4722   -0.1387    4.1015 H   0  0  0  0  0  0  0  0  0  0  0  0
   -1.1317    0.1315    5.2503 H   0  0  0  0  0  0  0  0  0  0  0  0
  1  3  1  0  0  0  0
  1  5  1  0  0  0  0
  2  1  1  0  0  0  0
  4  1  1  0  0  0  0
  4 11  1  0  0  0  0
  5  7  1  0  0  0  0
  5 15  1  0  0  0  0
  6  4  1  0  0  0  0
  8  9  1  0  0  0  0
  8  4  1  0  0  0  0
  9 10  1  0  0  0  0
 10 21  1  0  0  0  0
 10 11  1  0  0  0  0
 10 20  1  0  0  0  0
 11 23  1  0  0  0  0
 12 25  1  0  0  0  0
 12 13  1  0  0  0  0
 12  5  1  0  0  0  0
 13 14  1  0  0  0  0
 14 28  1  0  0  0  0
 14 29  1  0  0  0  0
 14 15  1  0  0  0  0
 15 31  1  0  0  0  0
 16  8  1  0  0  0  0
 17  8  1  0  0  0  0
 18  9  1  0  0  0  0
 19  9  1  0  0  0  0
 22 11  1  0  0  0  0
 24 12  1  0  0  0  0
 26 13  1  0  0  0  0
 27 13  1  0  0  0  0
 30 15  1  0  0  0  0
M  END
$$$$
