CSD_code = DEGLIL | q = -1 | S = 0 | Stoichiometry = C24H27Cl2RuS3(1-) | MND = 5
 OpenBabel04212202023D

 57 59  0  0  0  0  0  0  0  0999 V2000
    3.5067    2.7825   18.4160 Ru  0  0  0  0  0  0  0  0  0  0  0  0
    1.8775    2.3181   16.9490 S   0  0  0  0  0  0  0  0  0  0  0  0
    2.9263    2.7729   20.5770 S   0  0  0  0  0  0  0  0  0  0  0  0
    5.6654    3.0256   17.8910 S   0  0  0  0  0  0  0  0  0  0  0  0
    3.9255    0.4406   18.3460 Cl  0  0  0  0  0  0  0  0  0  0  0  0
    3.1608    5.1408   18.3652 Cl  0  0  0  0  0  0  0  0  0  0  0  0
    1.1694    3.7998   16.3029 C   0  0  0  0  0  0  0  0  0  0  0  0
    0.2403    4.5235   17.0577 C   0  0  0  0  0  0  0  0  0  0  0  0
   -0.3072    5.6714   16.5068 C   0  0  0  0  0  0  0  0  0  0  0  0
   -1.0132    6.2492   17.0873 H   0  0  0  0  0  0  0  0  0  0  0  0
    0.0442    6.0885   15.2359 C   0  0  0  0  0  0  0  0  0  0  0  0
   -0.3839    6.9926   14.8249 H   0  0  0  0  0  0  0  0  0  0  0  0
    0.9412    5.3469   14.4895 C   0  0  0  0  0  0  0  0  0  0  0  0
    1.2097    5.6674   13.4916 H   0  0  0  0  0  0  0  0  0  0  0  0
    1.5092    4.1913   15.0044 C   0  0  0  0  0  0  0  0  0  0  0  0
   -0.1355    4.0725   18.4313 C   0  0  0  0  0  0  0  0  0  0  0  0
   -0.8724    4.7394   18.8729 H   0  0  0  0  0  0  0  0  0  0  0  0
    0.7545    4.0642   19.0677 H   0  0  0  0  0  0  0  0  0  0  0  0
   -0.5369    3.0589   18.4035 H   0  0  0  0  0  0  0  0  0  0  0  0
    2.4421    3.3664   14.1704 C   0  0  0  0  0  0  0  0  0  0  0  0
    3.2292    2.9279   14.7842 H   0  0  0  0  0  0  0  0  0  0  0  0
    2.8930    3.9653   13.3815 H   0  0  0  0  0  0  0  0  0  0  0  0
    1.8936    2.5417   13.7118 H   0  0  0  0  0  0  0  0  0  0  0  0
    2.9470    1.1044   21.1553 C   0  0  0  0  0  0  0  0  0  0  0  0
    1.7743    0.3482   21.0832 C   0  0  0  0  0  0  0  0  0  0  0  0
    1.7746   -0.9273   21.6259 C   0  0  0  0  0  0  0  0  0  0  0  0
    0.8753   -1.5255   21.5685 H   0  0  0  0  0  0  0  0  0  0  0  0
    2.9104   -1.4434   22.2221 C   0  0  0  0  0  0  0  0  0  0  0  0
    2.8957   -2.4403   22.6413 H   0  0  0  0  0  0  0  0  0  0  0  0
    4.0729   -0.6950   22.2580 C   0  0  0  0  0  0  0  0  0  0  0  0
    4.9704   -1.1122   22.6942 H   0  0  0  0  0  0  0  0  0  0  0  0
    4.1114    0.5835   21.7252 C   0  0  0  0  0  0  0  0  0  0  0  0
    0.5760    0.8912   20.3748 C   0  0  0  0  0  0  0  0  0  0  0  0
    0.2588    1.8368   20.8152 H   0  0  0  0  0  0  0  0  0  0  0  0
   -0.2508    0.1849   20.4020 H   0  0  0  0  0  0  0  0  0  0  0  0
    0.8441    1.0820   19.3308 H   0  0  0  0  0  0  0  0  0  0  0  0
    5.3790    1.3729   21.6865 C   0  0  0  0  0  0  0  0  0  0  0  0
    5.6337    1.5660   20.6402 H   0  0  0  0  0  0  0  0  0  0  0  0
    6.1965    0.8279   22.1530 H   0  0  0  0  0  0  0  0  0  0  0  0
    5.2544    2.3342   22.1853 H   0  0  0  0  0  0  0  0  0  0  0  0
    6.1225    4.7326   17.8734 C   0  0  0  0  0  0  0  0  0  0  0  0
    6.5174    5.3504   19.0636 C   0  0  0  0  0  0  0  0  0  0  0  0
    6.9809    6.6559   19.0117 C   0  0  0  0  0  0  0  0  0  0  0  0
    7.2817    7.1448   19.9285 H   0  0  0  0  0  0  0  0  0  0  0  0
    7.0517    7.3377   17.8110 C   0  0  0  0  0  0  0  0  0  0  0  0
    7.4177    8.3552   17.7865 H   0  0  0  0  0  0  0  0  0  0  0  0
    6.6300    6.7250   16.6450 C   0  0  0  0  0  0  0  0  0  0  0  0
    6.6552    7.2676   15.7096 H   0  0  0  0  0  0  0  0  0  0  0  0
    6.1586    5.4222   16.6586 C   0  0  0  0  0  0  0  0  0  0  0  0
    6.3845    4.6292   20.3651 C   0  0  0  0  0  0  0  0  0  0  0  0
    5.3357    4.3481   20.5079 H   0  0  0  0  0  0  0  0  0  0  0  0
    6.6957    5.2583   21.1962 H   0  0  0  0  0  0  0  0  0  0  0  0
    6.9787    3.7152   20.3634 H   0  0  0  0  0  0  0  0  0  0  0  0
    5.6213    4.7793   15.4216 C   0  0  0  0  0  0  0  0  0  0  0  0
    6.0867    3.8084   15.2508 H   0  0  0  0  0  0  0  0  0  0  0  0
    5.7708    5.4114   14.5489 H   0  0  0  0  0  0  0  0  0  0  0  0
    4.5502    4.6195   15.5618 H   0  0  0  0  0  0  0  0  0  0  0  0
  1  3  1  0  0  0  0
  2  1  1  0  0  0  0
  3 24  1  0  0  0  0
  4  1  1  0  0  0  0
  5  1  1  0  0  0  0
  6  1  1  0  0  0  0
  7  2  1  0  0  0  0
  7  8  1  0  0  0  0
  8 16  1  0  0  0  0
  9  8  2  0  0  0  0
  9 10  1  0  0  0  0
 11  9  1  0  0  0  0
 12 11  1  0  0  0  0
 13 15  1  0  0  0  0
 13 11  2  0  0  0  0
 14 13  1  0  0  0  0
 15  7  2  0  0  0  0
 16 17  1  0  0  0  0
 16 18  1  0  0  0  0
 19 16  1  0  0  0  0
 20 21  1  0  0  0  0
 20 15  1  0  0  0  0
 22 20  1  0  0  0  0
 23 20  1  0  0  0  0
 24 32  1  0  0  0  0
 25 24  2  0  0  0  0
 25 26  1  0  0  0  0
 26 28  2  0  0  0  0
 27 26  1  0  0  0  0
 28 30  1  0  0  0  0
 28 29  1  0  0  0  0
 30 31  1  0  0  0  0
 32 30  2  0  0  0  0
 33 35  1  0  0  0  0
 33 34  1  0  0  0  0
 33 25  1  0  0  0  0
 36 33  1  0  0  0  0
 37 32  1  0  0  0  0
 37 39  1  0  0  0  0
 37 40  1  0  0  0  0
 38 37  1  0  0  0  0
 41  4  1  0  0  0  0
 41 42  1  0  0  0  0
 42 50  1  0  0  0  0
 43 42  2  0  0  0  0
 43 44  1  0  0  0  0
 45 43  1  0  0  0  0
 46 45  1  0  0  0  0
 47 49  1  0  0  0  0
 47 45  2  0  0  0  0
 48 47  1  0  0  0  0
 49 41  2  0  0  0  0
 50 51  1  0  0  0  0
 50 52  1  0  0  0  0
 53 50  1  0  0  0  0
 54 57  1  0  0  0  0
 54 49  1  0  0  0  0
 55 54  1  0  0  0  0
 56 54  1  0  0  0  0
M  END
$$$$
