CSD_code = DEGPOX | q = 0 | S = 0 | Stoichiometry = C22H24Cl2N4OSZn | MND = 5
 OpenBabel04212202023D

 55 60  0  0  1  0  0  0  0  0999 V2000
    2.2380    0.5821    2.9546 Zn  0  0  0  0  0  0  0  0  0  0  0  0
    0.5062   -0.0707    4.1475 Cl  0  0  0  0  0  0  0  0  0  0  0  0
    2.6500   -0.3210    0.9383 Cl  0  0  0  0  0  0  0  0  0  0  0  0
    3.7624    2.4009    5.7179 S   0  0  0  0  0  0  0  0  0  0  0  0
    6.8278    4.5350    7.3056 O   0  0  0  0  0  0  0  0  0  0  0  0
    6.3369    5.1344    7.8790 H   0  0  0  0  0  0  0  0  0  0  0  0
    1.4804    2.4350    2.1150 N   0  0  0  0  0  0  0  0  0  0  0  0
    4.0226    2.0426    3.0184 N   0  0  1  0  0  4  0  0  0  0  0  0
    3.8078   -0.4300    4.0713 N   0  0  0  0  0  0  0  0  0  0  0  0
    4.6864    4.1399    2.2854 N   0  0  0  0  0  0  0  0  0  0  0  0
    0.3648    2.4037    1.4013 C   0  0  0  0  0  3  0  0  0  0  0  0
   -0.3034    1.5806    1.6115 H   0  0  0  0  0  0  0  0  0  0  0  0
    0.0697    3.3628    0.4470 C   0  0  0  0  0  0  0  0  0  0  0  0
   -0.8479    3.3041   -0.1155 H   0  0  0  0  0  0  0  0  0  0  0  0
    0.9812    4.3836    0.2295 C   0  0  0  0  0  0  0  0  0  0  0  0
    0.7931    5.1431   -0.5146 H   0  0  0  0  0  0  0  0  0  0  0  0
    2.1429    4.4183    0.9841 C   0  0  0  0  0  0  0  0  0  0  0  0
    2.8770    5.1968    0.8501 H   0  0  0  0  0  0  0  0  0  0  0  0
    2.3516    3.4178    1.9214 C   0  0  0  0  0  0  0  0  0  0  0  0
    3.5627    3.4084    2.8345 C   0  0  1  0  0  0  0  0  0  0  0  0
    3.2381    3.8166    3.8010 H   0  0  0  0  0  0  0  0  0  0  0  0
    4.7164    1.7810    4.2693 C   0  0  2  0  0  0  0  0  0  0  0  0
    5.6974    2.2698    4.3222 H   0  0  0  0  0  0  0  0  0  0  0  0
    4.8400    0.2993    4.4776 C   0  0  1  0  0  3  0  0  0  0  0  0
    5.9356   -0.2698    5.1137 C   0  0  0  0  0  0  0  0  0  0  0  0
    6.7621    0.3458    5.4353 H   0  0  0  0  0  0  0  0  0  0  0  0
    5.9427   -1.6389    5.3236 C   0  0  0  0  0  0  0  0  0  0  0  0
    6.7829   -2.1094    5.8117 H   0  0  0  0  0  0  0  0  0  0  0  0
    4.8574   -2.3888    4.8985 C   0  0  0  0  0  0  0  0  0  0  0  0
    4.8246   -3.4558    5.0467 H   0  0  0  0  0  0  0  0  0  0  0  0
    3.8066   -1.7369    4.2739 C   0  0  0  0  0  0  0  0  0  0  0  0
    2.9320   -2.2652    3.9225 H   0  0  0  0  0  0  0  0  0  0  0  0
    4.9138    1.8520    1.8709 C   0  0  0  0  0  0  0  0  0  0  0  0
    4.2984    1.6077    1.0035 H   0  0  0  0  0  0  0  0  0  0  0  0
    5.5999    1.0239    2.0412 H   0  0  0  0  0  0  0  0  0  0  0  0
    5.6224    3.2014    1.6998 C   0  0  0  0  0  0  0  0  0  0  0  0
    6.5833    3.2172    2.2319 H   0  0  0  0  0  0  0  0  0  0  0  0
    5.8066    3.4291    0.6462 H   0  0  0  0  0  0  0  0  0  0  0  0
    5.0432    5.4066    2.6956 C   0  0  0  0  0  0  0  0  0  0  0  0
    4.1373    6.2241    3.3818 C   0  0  0  0  0  0  0  0  0  0  0  0
    3.1346    5.8791    3.5848 H   0  0  0  0  0  0  0  0  0  0  0  0
    4.5033    7.4921    3.7897 C   0  0  0  0  0  0  0  0  0  0  0  0
    3.7864    8.0997    4.3222 H   0  0  0  0  0  0  0  0  0  0  0  0
    5.7663    7.9880    3.5163 C   0  0  0  0  0  0  0  0  0  0  0  0
    6.0468    8.9788    3.8376 H   0  0  0  0  0  0  0  0  0  0  0  0
    6.6575    7.1998    2.8090 C   0  0  0  0  0  0  0  0  0  0  0  0
    7.6411    7.5766    2.5709 H   0  0  0  0  0  0  0  0  0  0  0  0
    6.3066    5.9286    2.3988 C   0  0  0  0  0  0  0  0  0  0  0  0
    7.0171    5.3445    1.8361 H   0  0  0  0  0  0  0  0  0  0  0  0
    4.7765    3.8430    6.2078 C   0  0  0  0  0  0  0  0  0  0  0  0
    5.0460    4.4267    5.3261 H   0  0  0  0  0  0  0  0  0  0  0  0
    4.1164    4.4419    6.8368 H   0  0  0  0  0  0  0  0  0  0  0  0
    6.0237    3.4313    6.9884 C   0  0  0  0  0  0  0  0  0  0  0  0
    5.7242    2.8762    7.8877 H   0  0  0  0  0  0  0  0  0  0  0  0
    6.6572    2.7808    6.3799 H   0  0  0  0  0  0  0  0  0  0  0  0
  1  8  1  0  0  0  0
  1  9  1  0  0  0  0
  1  2  1  0  0  0  0
  3  1  1  0  0  0  0
  4 50  1  0  0  0  0
  5  6  1  0  0  0  0
  7  1  1  0  0  0  0
  8 33  1  6  0  0  0
  8 22  1  0  0  0  0
  9 31  1  0  0  0  0
  9 24  1  0  0  0  0
 10 39  1  0  0  0  0
 10 20  1  0  0  0  0
 11 12  1  0  0  0  0
 11  7  1  0  0  0  0
 13 11  1  0  0  0  0
 14 13  1  0  0  0  0
 15 13  2  0  0  0  0
 15 17  1  0  0  0  0
 16 15  1  0  0  0  0
 17 19  2  0  0  0  0
 18 17  1  0  0  0  0
 19  7  1  0  0  0  0
 19 20  1  0  0  0  0
 20  8  1  0  0  0  0
 20 21  1  1  0  0  0
 22 23  1  6  0  0  0
 22 24  1  0  0  0  0
 22  4  1  0  0  0  0
 24 25  1  1  0  0  0
 25 27  2  0  0  0  0
 25 26  1  0  0  0  0
 27 28  1  0  0  0  0
 29 30  1  0  0  0  0
 29 27  1  0  0  0  0
 31 29  2  0  0  0  0
 32 31  1  0  0  0  0
 33 35  1  0  0  0  0
 34 33  1  0  0  0  0
 36 33  1  0  0  0  0
 36 37  1  0  0  0  0
 36 10  1  0  0  0  0
 38 36  1  0  0  0  0
 39 40  1  0  0  0  0
 40 41  1  0  0  0  0
 40 42  2  0  0  0  0
 42 43  1  0  0  0  0
 44 42  1  0  0  0  0
 44 45  1  0  0  0  0
 46 44  2  0  0  0  0
 47 46  1  0  0  0  0
 48 39  2  0  0  0  0
 48 46  1  0  0  0  0
 49 48  1  0  0  0  0
 50 52  1  0  0  0  0
 50 53  1  0  0  0  0
 51 50  1  0  0  0  0
 53  5  1  0  0  0  0
 53 54  1  0  0  0  0
 55 53  1  0  0  0  0
M  END
$$$$
