CSD_code = DEGTUF | q = 0 | S = 0 | Stoichiometry = C20H14Cl3N4ORe | MND = 6
 OpenBabel04212202023D

 43 47  0  0  0  0  0  0  0  0999 V2000
    7.2249   14.4052   12.4418 Re  0  0  0  0  0  0  0  0  0  0  0  0
    6.8478   12.4490   11.3910 Cl  0  0  0  0  0  0  0  0  0  0  0  0
    7.0046   13.2571   14.4562 Cl  0  0  0  0  0  0  0  0  0  0  0  0
    6.4619   15.4646   10.5161 Cl  0  0  0  0  0  0  0  0  0  0  0  0
    8.8675   14.5878   12.2978 O   0  0  0  0  0  1  0  0  0  0  0  0
    4.9393   14.5125   12.8368 N   0  0  0  0  0  0  0  0  0  0  0  0
    6.8613   16.1271   13.4645 N   0  0  0  0  0  0  0  0  0  0  0  0
    7.8002   17.0217   13.5602 N   0  0  0  0  0  2  0  0  0  0  0  0
    5.4832   17.4119   14.8480 N   0  0  0  0  0  0  0  0  0  0  0  0
    4.0199   13.6468   12.4353 C   0  0  0  0  0  3  0  0  0  0  0  0
    4.3747   12.8319   11.8174 H   0  0  0  0  0  0  0  0  0  0  0  0
    2.6847   13.7699   12.7866 C   0  0  0  0  0  0  0  0  0  0  0  0
    1.9715   13.0425   12.4345 H   0  0  0  0  0  0  0  0  0  0  0  0
    2.2917   14.8291   13.5927 C   0  0  0  0  0  0  0  0  0  0  0  0
    1.2597   14.9443   13.8870 H   0  0  0  0  0  0  0  0  0  0  0  0
    3.2473   15.7356   14.0136 C   0  0  0  0  0  0  0  0  0  0  0  0
    3.0120   16.5775   14.6437 H   0  0  0  0  0  0  0  0  0  0  0  0
    4.5640   15.5450   13.6070 C   0  0  0  0  0  0  0  0  0  0  0  0
    5.6502   16.4287   13.9882 C   0  0  0  0  0  0  0  0  0  0  0  0
    6.5061   18.2026   15.1367 C   0  0  0  0  0  0  0  0  0  0  0  0
    7.6645   18.1011   14.3004 C   0  0  0  0  0  0  0  0  0  0  0  0
    8.7112   19.1086   14.1729 C   0  0  0  0  0  0  0  0  0  0  0  0
   10.0037   18.7014   13.8380 C   0  0  0  0  0  0  0  0  0  0  0  0
   10.1969   17.6493   13.6994 H   0  0  0  0  0  0  0  0  0  0  0  0
   11.0084   19.6386   13.6967 C   0  0  0  0  0  0  0  0  0  0  0  0
   12.0082   19.3186   13.4462 H   0  0  0  0  0  0  0  0  0  0  0  0
   10.7332   20.9861   13.8705 C   0  0  0  0  0  0  0  0  0  0  0  0
   11.5196   21.7175   13.7590 H   0  0  0  0  0  0  0  0  0  0  0  0
    9.4451   21.3972   14.1770 C   0  0  0  0  0  0  0  0  0  0  0  0
    9.2261   22.4479   14.2936 H   0  0  0  0  0  0  0  0  0  0  0  0
    8.4350   20.4673   14.3298 C   0  0  0  0  0  0  0  0  0  0  0  0
    7.4289   20.7935   14.5481 H   0  0  0  0  0  0  0  0  0  0  0  0
    6.3852   19.0753   16.2946 C   0  0  0  0  0  0  0  0  0  0  0  0
    7.5006   19.4010   17.0690 C   0  0  0  0  0  0  0  0  0  0  0  0
    8.4697   18.9999   16.8134 H   0  0  0  0  0  0  0  0  0  0  0  0
    7.3573   20.2113   18.1780 C   0  0  0  0  0  0  0  0  0  0  0  0
    8.2222   20.4549   18.7762 H   0  0  0  0  0  0  0  0  0  0  0  0
    6.1106   20.7087   18.5253 C   0  0  0  0  0  0  0  0  0  0  0  0
    6.0063   21.3482   19.3887 H   0  0  0  0  0  0  0  0  0  0  0  0
    4.9974   20.3774   17.7685 C   0  0  0  0  0  0  0  0  0  0  0  0
    4.0249   20.7577   18.0429 H   0  0  0  0  0  0  0  0  0  0  0  0
    5.1289   19.5581   16.6648 C   0  0  0  0  0  0  0  0  0  0  0  0
    4.2720   19.2936   16.0650 H   0  0  0  0  0  0  0  0  0  0  0  0
  1  6  1  0  0  0  0
  1  7  1  0  0  0  0
  1  3  1  0  0  0  0
  2  1  1  0  0  0  0
  4  1  1  0  0  0  0
  5  1  1  0  0  0  0
  6 18  1  0  0  0  0
  7  8  1  0  0  0  0
  7 19  1  0  0  0  0
  8 21  1  0  0  0  0
  9 20  1  0  0  0  0
 10 12  1  0  0  0  0
 10  6  1  0  0  0  0
 11 10  1  0  0  0  0
 12 14  2  0  0  0  0
 13 12  1  0  0  0  0
 14 15  1  0  0  0  0
 14 16  1  0  0  0  0
 16 17  1  0  0  0  0
 18 19  1  0  0  0  0
 18 16  2  0  0  0  0
 19  9  2  0  0  0  0
 20 33  1  0  0  0  0
 21 20  2  0  0  0  0
 22 21  1  0  0  0  0
 22 31  1  0  0  0  0
 23 22  2  0  0  0  0
 24 23  1  0  0  0  0
 25 23  1  0  0  0  0
 25 27  2  0  0  0  0
 26 25  1  0  0  0  0
 27 29  1  0  0  0  0
 28 27  1  0  0  0  0
 29 30  1  0  0  0  0
 29 31  2  0  0  0  0
 31 32  1  0  0  0  0
 33 42  2  0  0  0  0
 33 34  1  0  0  0  0
 34 36  2  0  0  0  0
 35 34  1  0  0  0  0
 36 38  1  0  0  0  0
 36 37  1  0  0  0  0
 38 39  1  0  0  0  0
 40 41  1  0  0  0  0
 40 38  2  0  0  0  0
 42 40  1  0  0  0  0
 43 42  1  0  0  0  0
M  END
$$$$
