CSD_code = DEHBUN | q = 0 | S = 0 | Stoichiometry = C12H8ClN3O5Ru | MND = 6
 OpenBabel04212202023D

 30 33  0  0  1  0  0  0  0  0999 V2000
   -0.1472    4.8527    5.3101 Ru  0  0  0  0  0  0  0  0  0  0  0  0
   -1.6677    6.1740    6.5129 Cl  0  0  0  0  0  0  0  0  0  0  0  0
   -1.0006    3.4353    5.5383 N   0  0  0  0  0  2  0  0  0  0  0  0
    1.1850    4.5966    6.8203 N   0  0  0  0  0  0  0  0  0  0  0  0
   -1.1079    5.5024    3.6265 N   0  0  0  0  0  0  0  0  0  0  0  0
   -1.6090    2.4639    5.6621 O   0  0  0  0  0  1  0  0  0  0  0  0
    1.3904    3.9903    4.2034 O   0  0  0  0  0  0  0  0  0  0  0  0
    3.5419    3.5045    4.4127 O   0  0  0  0  0  0  0  0  0  0  0  0
    0.8725    6.5069    4.9788 O   0  0  0  0  0  0  0  0  0  0  0  0
    1.1717    8.1954    3.5569 O   0  0  0  0  0  0  0  0  0  0  0  0
    2.4860    3.8923    4.8581 C   0  0  0  0  0  0  0  0  0  0  0  0
    2.3937    4.2835    6.3430 C   0  0  2  0  0  3  0  0  0  0  0  0
    3.5199    4.2902    7.1534 C   0  0  0  0  0  0  0  0  0  0  0  0
    3.3837    4.6429    8.4854 C   0  0  0  0  0  0  0  0  0  0  0  0
    2.1213    4.9649    8.9647 C   0  0  0  0  0  0  0  0  0  0  0  0
    1.0422    4.9341    8.0973 C   0  0  0  0  0  0  0  0  0  0  0  0
    0.6092    7.1938    3.9318 C   0  0  0  0  0  0  0  0  0  0  0  0
   -0.5668    6.6169    3.1306 C   0  0  2  0  0  3  0  0  0  0  0  0
   -1.0429    7.2279    1.9805 C   0  0  0  0  0  0  0  0  0  0  0  0
   -2.1213    6.6603    1.3244 C   0  0  0  0  0  0  0  0  0  0  0  0
   -2.6812    5.5042    1.8499 C   0  0  0  0  0  0  0  0  0  0  0  0
   -2.1469    4.9543    3.0030 C   0  0  0  0  0  0  0  0  0  0  0  0
    4.4674    4.0280    6.7083 H   0  0  0  0  0  0  0  0  0  0  0  0
    4.2432    4.6716    9.1377 H   0  0  0  0  0  0  0  0  0  0  0  0
    1.9699    5.2465    9.9944 H   0  0  0  0  0  0  0  0  0  0  0  0
    0.0402    5.1913    8.4208 H   0  0  0  0  0  0  0  0  0  0  0  0
   -0.5532    8.1276    1.6415 H   0  0  0  0  0  0  0  0  0  0  0  0
   -2.5203    7.1077    0.4271 H   0  0  0  0  0  0  0  0  0  0  0  0
   -3.5255    5.0290    1.3767 H   0  0  0  0  0  0  0  0  0  0  0  0
   -2.5701    4.0566    3.4378 H   0  0  0  0  0  0  0  0  0  0  0  0
  1  3  1  0  0  0  0
  1  2  1  0  0  0  0
  1  4  1  0  0  0  0
  3  6  1  0  0  0  0
  4 16  1  0  0  0  0
  5  1  1  0  0  0  0
  7 11  1  0  0  0  0
  7  1  1  0  0  0  0
  8 11  2  0  0  0  0
  9  1  1  0  0  0  0
 10 17  2  0  0  0  0
 12 11  1  1  0  0  0
 12  4  1  0  0  0  0
 12 13  1  0  0  0  0
 13 14  2  0  0  0  0
 14 15  1  0  0  0  0
 14 24  1  0  0  0  0
 15 25  1  0  0  0  0
 16 26  1  0  0  0  0
 16 15  2  0  0  0  0
 17  9  1  0  0  0  0
 18 19  1  1  0  0  0
 18  5  1  0  0  0  0
 18 17  1  0  0  0  0
 20 21  1  0  0  0  0
 20 19  2  0  0  0  0
 21 22  2  0  0  0  0
 22 30  1  0  0  0  0
 22  5  1  0  0  0  0
 23 13  1  0  0  0  0
 27 19  1  0  0  0  0
 28 20  1  0  0  0  0
 29 21  1  0  0  0  0
M  END
$$$$
