CSD_code = DEHFUS | q = 0 | S = 0 | Stoichiometry = C23H30Cl4O2W | MND = 6
 OpenBabel04212202023D

 60 62  0  0  0  0  0  0  0  0999 V2000
   -0.4922    9.6009    1.6285 W   0  0  0  0  0  0  0  0  0  0  0  0
    0.4641   10.1405    3.6291 Cl  0  0  0  0  0  0  0  0  0  0  0  0
   -1.9380    8.4156    2.9413 Cl  0  0  0  0  0  0  0  0  0  0  0  0
   -1.8935   11.5532    1.7892 Cl  0  0  0  0  0  0  0  0  0  0  0  0
    0.9133    7.6507    1.5695 Cl  0  0  0  0  0  0  0  0  0  0  0  0
    0.7076   10.5793    0.7474 O   0  0  0  0  0  0  0  0  0  0  0  0
   -1.4047    9.1216    0.1739 O   0  0  0  0  0  0  0  0  0  0  0  0
    1.3429   11.2419   -0.2361 C   0  0  0  0  0  0  0  0  0  0  0  0
    2.1321   12.3882   -0.0063 C   0  0  0  0  0  0  0  0  0  0  0  0
    2.6203   13.0623   -1.1164 C   0  0  0  0  0  0  0  0  0  0  0  0
    3.1965   13.9613   -0.9761 H   0  0  0  0  0  0  0  0  0  0  0  0
    2.4110   12.6222   -2.4156 C   0  0  0  0  0  0  0  0  0  0  0  0
    1.7398   11.4230   -2.6078 C   0  0  0  0  0  0  0  0  0  0  0  0
    1.6368   11.0226   -3.6053 H   0  0  0  0  0  0  0  0  0  0  0  0
    1.2140   10.7238   -1.5382 C   0  0  0  0  0  0  0  0  0  0  0  0
    0.5920    9.3643   -1.7368 C   0  0  0  0  0  0  0  0  0  0  0  0
    0.7358    8.7606   -0.8230 H   0  0  0  0  0  0  0  0  0  0  0  0
    1.1252    8.8704   -2.5530 H   0  0  0  0  0  0  0  0  0  0  0  0
    2.4670   12.8181    1.4122 C   0  0  0  0  0  0  0  0  0  0  0  0
    3.4378   14.0023    1.4604 C   0  0  0  0  0  0  0  0  0  0  0  0
    4.3681   13.7727    0.9461 H   0  0  0  0  0  0  0  0  0  0  0  0
    3.6738   14.2205    2.4992 H   0  0  0  0  0  0  0  0  0  0  0  0
    2.9950   14.8950    1.0250 H   0  0  0  0  0  0  0  0  0  0  0  0
    1.1829   13.2306    2.1400 C   0  0  0  0  0  0  0  0  0  0  0  0
    0.7119   14.0687    1.6302 H   0  0  0  0  0  0  0  0  0  0  0  0
    1.4102   13.5266    3.1610 H   0  0  0  0  0  0  0  0  0  0  0  0
    0.4683   12.4081    2.1777 H   0  0  0  0  0  0  0  0  0  0  0  0
    3.1409   11.6308    2.1187 C   0  0  0  0  0  0  0  0  0  0  0  0
    4.0957   11.4084    1.6451 H   0  0  0  0  0  0  0  0  0  0  0  0
    2.5244   10.7303    2.0813 H   0  0  0  0  0  0  0  0  0  0  0  0
    3.3175   11.8711    3.1641 H   0  0  0  0  0  0  0  0  0  0  0  0
    2.9390   13.3877   -3.5890 C   0  0  0  0  0  0  0  0  0  0  0  0
    3.4641   14.2828   -3.2682 H   0  0  0  0  0  0  0  0  0  0  0  0
    2.1211   13.6804   -4.2458 H   0  0  0  0  0  0  0  0  0  0  0  0
    3.6242   12.7701   -4.1679 H   0  0  0  0  0  0  0  0  0  0  0  0
   -1.8343    9.1300   -1.1006 C   0  0  0  0  0  0  0  0  0  0  0  0
   -3.1760    8.8760   -1.4609 C   0  0  0  0  0  0  0  0  0  0  0  0
   -3.5276    9.0741   -2.7863 C   0  0  0  0  0  0  0  0  0  0  0  0
   -4.5501    8.9285   -3.0919 H   0  0  0  0  0  0  0  0  0  0  0  0
   -2.6104    9.4464   -3.7626 C   0  0  0  0  0  0  0  0  0  0  0  0
   -1.2756    9.5515   -3.4090 C   0  0  0  0  0  0  0  0  0  0  0  0
   -0.5323    9.7554   -4.1650 H   0  0  0  0  0  0  0  0  0  0  0  0
   -0.8739    9.3843   -2.0951 C   0  0  0  0  0  0  0  0  0  0  0  0
   -4.1643    8.3536   -0.4309 C   0  0  0  0  0  0  0  0  0  0  0  0
   -3.5719    7.0806    0.1944 C   0  0  0  0  0  0  0  0  0  0  0  0
   -3.4641    6.3069   -0.5638 H   0  0  0  0  0  0  0  0  0  0  0  0
   -4.2281    6.7118    0.9784 H   0  0  0  0  0  0  0  0  0  0  0  0
   -2.5917    7.2639    0.6382 H   0  0  0  0  0  0  0  0  0  0  0  0
   -5.5183    7.9861   -1.0463 C   0  0  0  0  0  0  0  0  0  0  0  0
   -6.0220    8.8627   -1.4459 H   0  0  0  0  0  0  0  0  0  0  0  0
   -6.1530    7.5617   -0.2721 H   0  0  0  0  0  0  0  0  0  0  0  0
   -5.4064    7.2439   -1.8331 H   0  0  0  0  0  0  0  0  0  0  0  0
   -4.4053    9.4213    0.6413 C   0  0  0  0  0  0  0  0  0  0  0  0
   -4.7975   10.3308    0.1910 H   0  0  0  0  0  0  0  0  0  0  0  0
   -3.4811    9.6679    1.1634 H   0  0  0  0  0  0  0  0  0  0  0  0
   -5.1200    9.0588    1.3758 H   0  0  0  0  0  0  0  0  0  0  0  0
   -3.0656    9.6796   -5.1694 C   0  0  0  0  0  0  0  0  0  0  0  0
   -2.2187    9.8062   -5.8381 H   0  0  0  0  0  0  0  0  0  0  0  0
   -3.6807   10.5775   -5.2176 H   0  0  0  0  0  0  0  0  0  0  0  0
   -3.6696    8.8453   -5.5206 H   0  0  0  0  0  0  0  0  0  0  0  0
  1  4  1  0  0  0  0
  1  3  1  0  0  0  0
  1  2  1  0  0  0  0
  5  1  1  0  0  0  0
  6  1  1  0  0  0  0
  7  1  1  0  0  0  0
  8  9  1  0  0  0  0
  8  6  1  0  0  0  0
  9 19  1  0  0  0  0
 10 11  1  0  0  0  0
 10  9  2  0  0  0  0
 12 10  1  0  0  0  0
 13 12  2  0  0  0  0
 13 15  1  0  0  0  0
 14 13  1  0  0  0  0
 15  8  2  0  0  0  0
 16 15  1  0  0  0  0
 16 17  1  0  0  0  0
 18 16  1  0  0  0  0
 19 20  1  0  0  0  0
 19 28  1  0  0  0  0
 19 24  1  0  0  0  0
 20 22  1  0  0  0  0
 21 20  1  0  0  0  0
 23 20  1  0  0  0  0
 24 27  1  0  0  0  0
 24 26  1  0  0  0  0
 25 24  1  0  0  0  0
 28 31  1  0  0  0  0
 29 28  1  0  0  0  0
 30 28  1  0  0  0  0
 32 33  1  0  0  0  0
 32 12  1  0  0  0  0
 34 32  1  0  0  0  0
 35 32  1  0  0  0  0
 36  7  1  0  0  0  0
 37 36  1  0  0  0  0
 37 44  1  0  0  0  0
 38 37  2  0  0  0  0
 39 38  1  0  0  0  0
 40 41  2  0  0  0  0
 40 38  1  0  0  0  0
 41 43  1  0  0  0  0
 42 41  1  0  0  0  0
 43 16  1  0  0  0  0
 43 36  2  0  0  0  0
 44 45  1  0  0  0  0
 44 53  1  0  0  0  0
 45 48  1  0  0  0  0
 45 47  1  0  0  0  0
 46 45  1  0  0  0  0
 49 44  1  0  0  0  0
 49 51  1  0  0  0  0
 50 49  1  0  0  0  0
 52 49  1  0  0  0  0
 53 55  1  0  0  0  0
 53 56  1  0  0  0  0
 54 53  1  0  0  0  0
 57 40  1  0  0  0  0
 58 57  1  0  0  0  0
 59 57  1  0  0  0  0
 60 57  1  0  0  0  0
M  END
$$$$
