CSD_code = DEJBUQ | q = 0 | S = 0 | Stoichiometry = C10H8Br2Cl2N2Pd | MND = 4
 OpenBabel04212202023D

 25 26  0  0  0  0  0  0  0  0999 V2000
   -0.0018   -0.0003   -0.0015 Pd  0  0  0  0  0  0  0  0  0  0  0  0
    3.8827   -3.1300   -4.2959 Br  0  0  0  0  0  0  0  0  0  0  0  0
   -0.5562    1.5237   -1.6143 Cl  0  0  0  0  0  0  0  0  0  0  0  0
    2.7670   -2.2301   -3.0603 C   0  0  0  0  0  0  0  0  0  0  0  0
    1.6071   -2.8352   -2.5947 C   0  0  0  0  0  0  0  0  0  0  0  0
    1.3230   -3.8218   -2.9241 H   0  0  0  0  0  0  0  0  0  0  0  0
    0.8239   -2.1406   -1.6920 C   0  0  0  0  0  3  0  0  0  0  0  0
   -0.0877   -2.5776   -1.2879 H   0  0  0  0  0  0  0  0  0  0  0  0
    3.1011   -0.9591   -2.6118 C   0  0  0  0  0  0  0  0  0  0  0  0
    3.9947   -0.4640   -2.9566 H   0  0  0  0  0  0  0  0  0  0  0  0
    2.2548   -0.3395   -1.7113 C   0  0  0  0  0  0  0  0  0  0  0  0
    2.4666    0.6619   -1.3405 H   0  0  0  0  0  0  0  0  0  0  0  0
    1.1413   -0.9191   -1.2613 N   0  0  0  0  0  0  0  0  0  0  0  0
   -3.8825    3.1302    4.2959 Br  0  0  0  0  0  0  0  0  0  0  0  0
    0.5565   -1.5225    1.6137 Cl  0  0  0  0  0  0  0  0  0  0  0  0
   -2.7669    2.2302    3.0603 C   0  0  0  0  0  0  0  0  0  0  0  0
   -1.6069    2.8351    2.5947 C   0  0  0  0  0  0  0  0  0  0  0  0
   -1.3228    3.8218    2.9239 H   0  0  0  0  0  0  0  0  0  0  0  0
   -0.8236    2.1403    1.6922 C   0  0  0  0  0  3  0  0  0  0  0  0
    0.0880    2.5772    1.2880 H   0  0  0  0  0  0  0  0  0  0  0  0
   -3.1011    0.9592    2.6121 C   0  0  0  0  0  0  0  0  0  0  0  0
   -3.9948    0.4642    2.9568 H   0  0  0  0  0  0  0  0  0  0  0  0
   -2.2548    0.3394    1.7118 C   0  0  0  0  0  0  0  0  0  0  0  0
   -2.4667   -0.6620    1.3409 H   0  0  0  0  0  0  0  0  0  0  0  0
   -1.1410    0.9186    1.2619 N   0  0  0  0  0  0  0  0  0  0  0  0
  1 25  1  0  0  0  0
  1 15  1  0  0  0  0
  2  4  1  0  0  0  0
  3  1  1  0  0  0  0
  4  9  1  0  0  0  0
  4  5  2  0  0  0  0
  5  7  1  0  0  0  0
  6  5  1  0  0  0  0
  7  8  1  0  0  0  0
  7 13  1  0  0  0  0
  9 11  2  0  0  0  0
 10  9  1  0  0  0  0
 11 12  1  0  0  0  0
 11 13  1  0  0  0  0
 13  1  1  0  0  0  0
 16 14  1  0  0  0  0
 17 18  1  0  0  0  0
 17 16  2  0  0  0  0
 19 17  1  0  0  0  0
 20 19  1  0  0  0  0
 21 22  1  0  0  0  0
 21 16  1  0  0  0  0
 23 21  2  0  0  0  0
 24 23  1  0  0  0  0
 25 19  1  0  0  0  0
 25 23  1  0  0  0  0
M  END
$$$$
