CSD_code = DEJBIE | q = 0 | S = 0 | Stoichiometry = C10H8Br2Cl2N2Pt | MND = 4
 OpenBabel04212202023D

 25 26  0  0  0  0  0  0  0  0999 V2000
    3.0993    7.0694   -0.0002 Pt  0  0  0  0  0  0  0  0  0  0  0  0
    6.9035    1.7592    0.9503 Br  0  0  0  0  0  0  0  0  0  0  0  0
    2.9043    7.3381    2.2841 Cl  0  0  0  0  0  0  0  0  0  0  0  0
    4.2215    5.5034    0.2796 N   0  0  0  0  0  0  0  0  0  0  0  0
    5.3899    5.6090    0.9175 C   0  0  0  0  0  3  0  0  0  0  0  0
    5.6628    6.5958    1.2731 H   0  0  0  0  0  0  0  0  0  0  0  0
    3.8372    4.3033   -0.1623 C   0  0  0  0  0  0  0  0  0  0  0  0
    2.8896    4.2583   -0.6867 H   0  0  0  0  0  0  0  0  0  0  0  0
    6.2195    4.5269    1.1368 C   0  0  0  0  0  0  0  0  0  0  0  0
    7.1569    4.6510    1.6547 H   0  0  0  0  0  0  0  0  0  0  0  0
    5.8134    3.2812    0.6775 C   0  0  0  0  0  0  0  0  0  0  0  0
    4.5983    3.1648    0.0160 C   0  0  0  0  0  0  0  0  0  0  0  0
    4.2545    2.2122   -0.3535 H   0  0  0  0  0  0  0  0  0  0  0  0
   -0.7050   12.3799   -0.9486 Br  0  0  0  0  0  0  0  0  0  0  0  0
    3.2943    6.8010   -2.2847 Cl  0  0  0  0  0  0  0  0  0  0  0  0
    1.9774    8.6355   -0.2803 N   0  0  0  0  0  0  0  0  0  0  0  0
    0.8085    8.5300   -0.9172 C   0  0  0  0  0  3  0  0  0  0  0  0
    0.5353    7.5432   -1.2727 H   0  0  0  0  0  0  0  0  0  0  0  0
    2.3622    9.8355    0.1613 C   0  0  0  0  0  0  0  0  0  0  0  0
    3.3102    9.8805    0.6849 H   0  0  0  0  0  0  0  0  0  0  0  0
   -0.0212    9.6122   -1.1359 C   0  0  0  0  0  0  0  0  0  0  0  0
   -0.9590    9.4882   -1.6531 H   0  0  0  0  0  0  0  0  0  0  0  0
    0.3855   10.8578   -0.6770 C   0  0  0  0  0  0  0  0  0  0  0  0
    1.6010   10.9741   -0.0165 C   0  0  0  0  0  0  0  0  0  0  0  0
    1.9452   11.9267    0.3528 H   0  0  0  0  0  0  0  0  0  0  0  0
  1  4  1  0  0  0  0
  1  3  1  0  0  0  0
  4  5  1  0  0  0  0
  5  9  1  0  0  0  0
  5  6  1  0  0  0  0
  7 12  2  0  0  0  0
  7  4  1  0  0  0  0
  8  7  1  0  0  0  0
  9 10  1  0  0  0  0
 11  2  1  0  0  0  0
 11  9  2  0  0  0  0
 12 11  1  0  0  0  0
 13 12  1  0  0  0  0
 14 23  1  0  0  0  0
 15  1  1  0  0  0  0
 16  1  1  0  0  0  0
 16 19  1  0  0  0  0
 17 16  1  0  0  0  0
 18 17  1  0  0  0  0
 19 20  1  0  0  0  0
 21 17  1  0  0  0  0
 21 23  2  0  0  0  0
 22 21  1  0  0  0  0
 23 24  1  0  0  0  0
 24 19  2  0  0  0  0
 24 25  1  0  0  0  0
M  END
$$$$
