CSD_code = DEKTAR | q = 1 | S = 0 | Stoichiometry = C18H21ClN7ORu(1+) | MND = 6
 OpenBabel04212202023D

 49 53  0  0  1  0  0  0  0  0999 V2000
    4.4004   10.0146    0.5660 Ru  0  0  0  0  0  0  0  0  0  0  0  0
    5.9965    9.8678   -1.1825 Cl  0  0  0  0  0  0  0  0  0  0  0  0
    8.6161    6.3958    2.8935 O   0  0  0  0  0  0  0  0  0  0  0  0
    5.9624   12.6527    1.5584 N   0  0  0  0  0  0  0  0  0  0  0  0
    5.6657   11.3563    1.4462 C   0  0  2  0  0  3  0  0  0  0  0  0
    6.6716   10.7015    2.1098 N   0  0  0  0  0  0  0  0  0  0  0  0
    7.1290   12.8264    2.2652 C   0  0  0  0  0  0  0  0  0  0  0  0
    7.5404   13.7958    2.4583 H   0  0  0  0  0  0  0  0  0  0  0  0
    5.6249    8.8021    1.4888 N   0  0  0  0  0  0  0  0  0  0  0  0
    7.5793   11.6019    2.6144 C   0  0  0  0  0  0  0  0  0  0  0  0
    8.4501   11.3133    3.1640 H   0  0  0  0  0  0  0  0  0  0  0  0
    7.6203    7.1228    2.3837 C   0  0  0  0  0  0  0  0  0  0  0  0
    3.4075   11.1992   -0.5951 N   0  0  0  0  0  2  0  0  0  0  0  0
    7.7106    8.5110    2.5848 C   0  0  0  0  0  0  0  0  0  0  0  0
    8.5779    8.9072    3.0829 H   0  0  0  0  0  0  0  0  0  0  0  0
    2.8304    7.6159   -0.8972 N   0  0  0  0  0  0  0  0  0  0  0  0
    4.4954    7.1908    0.3936 N   0  0  0  0  0  0  0  0  0  0  0  0
    6.7011    9.3146    2.0986 C   0  0  1  0  0  3  0  0  0  0  0  0
    6.5404    6.6095    1.6551 C   0  0  0  0  0  0  0  0  0  0  0  0
    6.4694    5.5634    1.4150 H   0  0  0  0  0  0  0  0  0  0  0  0
    3.1064   10.1418    1.9692 N   0  0  0  0  0  2  0  0  0  0  0  0
    5.5759    7.4987    1.2077 C   0  0  0  0  0  0  0  0  0  0  0  0
    4.0932    5.9866   -0.1340 C   0  0  0  0  0  0  0  0  0  0  0  0
    4.5640    5.0540    0.0952 H   0  0  0  0  0  0  0  0  0  0  0  0
    3.0476    6.2595   -0.9442 C   0  0  0  0  0  0  0  0  0  0  0  0
    2.4494    5.6052   -1.5444 H   0  0  0  0  0  0  0  0  0  0  0  0
    3.7101    8.2086   -0.0870 C   0  0  1  0  0  3  0  0  0  0  0  0
    5.1956   13.7307    0.9985 C   0  0  0  0  0  0  0  0  0  0  0  0
    5.0867   14.5310    1.7306 H   0  0  0  0  0  0  0  0  0  0  0  0
    4.2129   13.3518    0.7182 H   0  0  0  0  0  0  0  0  0  0  0  0
    5.6926   14.1273    0.1111 H   0  0  0  0  0  0  0  0  0  0  0  0
    8.6330    4.9952    2.6966 C   0  0  0  0  0  0  0  0  0  0  0  0
    8.6964    4.7449    1.6344 H   0  0  0  0  0  0  0  0  0  0  0  0
    7.7535    4.5206    3.1401 H   0  0  0  0  0  0  0  0  0  0  0  0
    9.5282    4.6415    3.2038 H   0  0  0  0  0  0  0  0  0  0  0  0
    1.8080    8.2914   -1.6468 C   0  0  0  0  0  0  0  0  0  0  0  0
    2.0878    8.3504   -2.7003 H   0  0  0  0  0  0  0  0  0  0  0  0
    1.6938    9.3001   -1.2504 H   0  0  0  0  0  0  0  0  0  0  0  0
    0.8641    7.7529   -1.5605 H   0  0  0  0  0  0  0  0  0  0  0  0
    3.1377   11.8228   -1.5286 C   0  0  0  0  0  2  0  0  0  0  0  0
    2.3274   10.2181    2.8190 C   0  0  0  0  0  2  0  0  0  0  0  0
    2.7773   12.6048   -2.6717 C   0  0  0  0  0  0  0  0  0  0  0  0
    3.5490   12.4880   -3.4328 H   0  0  0  0  0  0  0  0  0  0  0  0
    2.7002   13.6580   -2.4020 H   0  0  0  0  0  0  0  0  0  0  0  0
    1.8236   12.2670   -3.0769 H   0  0  0  0  0  0  0  0  0  0  0  0
    1.3616   10.3114    3.8729 C   0  0  0  0  0  0  0  0  0  0  0  0
    0.9327   11.3133    3.8934 H   0  0  0  0  0  0  0  0  0  0  0  0
    1.8376   10.1099    4.8326 H   0  0  0  0  0  0  0  0  0  0  0  0
    0.5630    9.5868    3.7130 H   0  0  0  0  0  0  0  0  0  0  0  0
  1  5  1  0  0  0  0
  1  9  1  0  0  0  0
  1 21  1  0  0  0  0
  2  1  1  0  0  0  0
  4  7  1  0  0  0  0
  5  4  1  6  0  0  0
  5  6  1  0  0  0  0
  6 10  1  0  0  0  0
  7  8  1  0  0  0  0
  7 10  2  0  0  0  0
  9 18  1  0  0  0  0
 10 11  1  0  0  0  0
 12 14  2  0  0  0  0
 12  3  1  0  0  0  0
 13  1  1  0  0  0  0
 14 15  1  0  0  0  0
 17 22  1  0  0  0  0
 18  6  1  0  0  0  0
 18 14  1  6  0  0  0
 19 12  1  0  0  0  0
 20 19  1  0  0  0  0
 21 41  1  0  0  0  0
 22  9  1  0  0  0  0
 22 19  2  0  0  0  0
 23 24  1  0  0  0  0
 23 17  1  0  0  0  0
 25 16  1  0  0  0  0
 25 23  2  0  0  0  0
 26 25  1  0  0  0  0
 27 16  1  6  0  0  0
 27 17  1  0  0  0  0
 27  1  1  0  0  0  0
 28  4  1  0  0  0  0
 28 29  1  0  0  0  0
 30 28  1  0  0  0  0
 31 28  1  0  0  0  0
 32  3  1  0  0  0  0
 32 34  1  0  0  0  0
 32 35  1  0  0  0  0
 33 32  1  0  0  0  0
 36 39  1  0  0  0  0
 36 38  1  0  0  0  0
 36 16  1  0  0  0  0
 37 36  1  0  0  0  0
 40 13  1  0  0  0  0
 41 46  1  0  0  0  0
 42 44  1  0  0  0  0
 42 40  1  0  0  0  0
 43 42  1  0  0  0  0
 45 42  1  0  0  0  0
 46 47  1  0  0  0  0
 46 48  1  0  0  0  0
 49 46  1  0  0  0  0
M  END
$$$$
