CSD_code = DELCOP | q = 0 | S = 0 | Stoichiometry = C20H18Cl2CuN3 | MND = 5
 OpenBabel04212202023D

 44 48  0  0  1  0  0  0  0  0999 V2000
    9.0333    3.4663    0.4576 Cu  0  0  0  0  0  0  0  0  0  0  0  0
   10.5752    2.2622    1.4002 Cl  0  0  0  0  0  0  0  0  0  0  0  0
    8.3687    4.8144   -1.2003 Cl  0  0  0  0  0  0  0  0  0  0  0  0
    8.4481    2.0801   -0.6396 N   0  0  0  0  0  0  0  0  0  0  0  0
    7.1494    3.1810    1.3404 N   0  0  2  0  0  0  0  0  0  0  0  0
    9.1970    4.8636    1.6208 N   0  0  0  0  0  0  0  0  0  0  0  0
    9.6967    4.5490    2.4478 H   0  0  0  0  0  0  0  0  0  0  0  0
    7.1188    1.8672   -0.5525 C   0  0  1  0  0  3  0  0  0  0  0  0
    6.4174    2.6661    0.4403 C   0  0  0  0  0  3  0  0  0  0  0  0
    5.3383    2.8024    0.3606 H   0  0  0  0  0  0  0  0  0  0  0  0
    6.8457    4.1633    2.2986 C   0  0  2  0  0  0  0  0  0  0  0  0
    5.8243    4.5646    2.2062 H   0  0  0  0  0  0  0  0  0  0  0  0
    7.9005    5.3396    1.9378 C   0  0  1  0  0  0  0  0  0  0  0  0
    7.4954    5.8078    1.0331 H   0  0  0  0  0  0  0  0  0  0  0  0
    7.9042    6.3531    3.0567 C   0  0  0  0  0  0  0  0  0  0  0  0
    7.0749    7.4627    2.9474 C   0  0  0  0  0  0  0  0  0  0  0  0
    6.4824    7.5996    2.0542 H   0  0  0  0  0  0  0  0  0  0  0  0
    7.0056    8.3927    3.9689 C   0  0  0  0  0  0  0  0  0  0  0  0
    6.3557    9.2496    3.8701 H   0  0  0  0  0  0  0  0  0  0  0  0
    7.7678    8.2258    5.1123 C   0  0  0  0  0  0  0  0  0  0  0  0
    7.7150    8.9511    5.9105 H   0  0  0  0  0  0  0  0  0  0  0  0
    8.6009    7.1265    5.2248 C   0  0  0  0  0  0  0  0  0  0  0  0
    9.2006    6.9894    6.1121 H   0  0  0  0  0  0  0  0  0  0  0  0
    8.6684    6.1928    4.2058 C   0  0  0  0  0  0  0  0  0  0  0  0
    9.3189    5.3391    4.3193 H   0  0  0  0  0  0  0  0  0  0  0  0
    7.0879    3.6844    3.7036 C   0  0  0  0  0  0  0  0  0  0  0  0
    8.0697    2.7459    3.9970 C   0  0  0  0  0  0  0  0  0  0  0  0
    8.6568    2.3062    3.2052 H   0  0  0  0  0  0  0  0  0  0  0  0
    8.3033    2.3752    5.3102 C   0  0  0  0  0  0  0  0  0  0  0  0
    9.0732    1.6497    5.5257 H   0  0  0  0  0  0  0  0  0  0  0  0
    7.5625    2.9332    6.3375 C   0  0  0  0  0  0  0  0  0  0  0  0
    7.7503    2.6449    7.3611 H   0  0  0  0  0  0  0  0  0  0  0  0
    6.5776    3.8625    6.0477 C   0  0  0  0  0  0  0  0  0  0  0  0
    5.9936    4.3018    6.8427 H   0  0  0  0  0  0  0  0  0  0  0  0
    6.3409    4.2367    4.7381 C   0  0  0  0  0  0  0  0  0  0  0  0
    5.5777    4.9691    4.5160 H   0  0  0  0  0  0  0  0  0  0  0  0
    6.4972    0.9417   -1.3861 C   0  0  0  0  0  0  0  0  0  0  0  0
    5.4324    0.7886   -1.3061 H   0  0  0  0  0  0  0  0  0  0  0  0
    7.2595    0.2339   -2.2982 C   0  0  0  0  0  0  0  0  0  0  0  0
    6.7946   -0.4819   -2.9589 H   0  0  0  0  0  0  0  0  0  0  0  0
    8.6281    0.4582   -2.3522 C   0  0  0  0  0  0  0  0  0  0  0  0
    9.2563   -0.0704   -3.0500 H   0  0  0  0  0  0  0  0  0  0  0  0
    9.1825    1.3969   -1.4973 C   0  0  0  0  0  0  0  0  0  0  0  0
   10.2409    1.6165   -1.5006 H   0  0  0  0  0  0  0  0  0  0  0  0
  1  5  1  0  0  0  0
  1  2  1  0  0  0  0
  1  6  1  0  0  0  0
  3  1  1  0  0  0  0
  4  8  1  0  0  0  0
  4  1  1  0  0  0  0
  5  9  1  6  0  0  0
  5 11  1  0  0  0  0
  6 13  1  0  0  0  0
  6  7  1  0  0  0  0
  8 37  1  6  0  0  0
  8  9  1  0  0  0  0
 10  9  1  0  0  0  0
 11 12  1  6  0  0  0
 11 26  1  0  0  0  0
 13 14  1  6  0  0  0
 13 11  1  0  0  0  0
 13 15  1  0  0  0  0
 15 24  1  0  0  0  0
 16 15  2  0  0  0  0
 16 18  1  0  0  0  0
 17 16  1  0  0  0  0
 18 20  2  0  0  0  0
 19 18  1  0  0  0  0
 20 22  1  0  0  0  0
 20 21  1  0  0  0  0
 22 23  1  0  0  0  0
 24 25  1  0  0  0  0
 24 22  2  0  0  0  0
 26 27  2  0  0  0  0
 26 35  1  0  0  0  0
 27 29  1  0  0  0  0
 28 27  1  0  0  0  0
 29 30  1  0  0  0  0
 29 31  2  0  0  0  0
 31 32  1  0  0  0  0
 33 31  1  0  0  0  0
 33 34  1  0  0  0  0
 35 33  2  0  0  0  0
 36 35  1  0  0  0  0
 37 38  1  0  0  0  0
 39 37  2  0  0  0  0
 40 39  1  0  0  0  0
 41 39  1  0  0  0  0
 41 43  2  0  0  0  0
 42 41  1  0  0  0  0
 43  4  1  0  0  0  0
 44 43  1  0  0  0  0
M  END
$$$$
