CSD_code = DEMMAK | q = 0 | S = 0 | Stoichiometry = C20H18IN3Pt | MND = 6
 OpenBabel04212202023D

 43 48  0  0  0  0  0  0  0  0999 V2000
    0.8866    5.9899   10.7440 Pt  0  0  0  0  0  0  0  0  0  0  0  0
   -0.2288    7.2173   12.8107 I   0  0  0  0  0  0  0  0  0  0  0  0
    0.7499    7.6672    9.3226 N   0  0  0  0  0  0  0  0  0  0  0  0
    1.5321    5.1259    9.0558 N   0  0  0  0  0  0  0  0  0  0  0  0
   -0.9130    4.8794   10.0780 N   0  0  0  0  0  0  0  0  0  0  0  0
    0.3101    8.8931    9.4835 C   0  0  0  0  0  0  0  0  0  0  0  0
   -0.3489    9.0739   10.3226 H   0  0  0  0  0  0  0  0  0  0  0  0
    0.6727    9.9444    8.6318 C   0  0  0  0  0  0  0  0  0  0  0  0
    0.2967   10.9362    8.8268 H   0  0  0  0  0  0  0  0  0  0  0  0
    1.4984    9.6857    7.5715 C   0  0  0  0  0  0  0  0  0  0  0  0
    1.8061   10.4701    6.8951 H   0  0  0  0  0  0  0  0  0  0  0  0
    1.9531    8.3691    7.3465 C   0  0  0  0  0  0  0  0  0  0  0  0
    2.7473    8.0007    6.2457 C   0  0  0  0  0  3  0  0  0  0  0  0
    3.0522    8.7588    5.5410 H   0  0  0  0  0  0  0  0  0  0  0  0
    3.1051    6.6887    6.0758 C   0  0  0  0  0  0  0  0  0  0  0  0
    3.7049    6.4012    5.2248 H   0  0  0  0  0  0  0  0  0  0  0  0
    2.7218    5.7007    6.9833 C   0  0  0  0  0  0  0  0  0  0  0  0
    3.0322    4.6858    6.8026 H   0  0  0  0  0  0  0  0  0  0  0  0
    1.9719    6.0126    8.1074 C   0  0  0  0  0  0  0  0  0  0  0  0
    1.5659    7.3759    8.2817 C   0  0  0  0  0  0  0  0  0  0  0  0
   -2.1325    4.8414   10.5596 C   0  0  0  0  0  0  0  0  0  0  0  0
   -2.4488    5.6815   11.1641 H   0  0  0  0  0  0  0  0  0  0  0  0
   -3.0020    3.7661   10.3337 C   0  0  0  0  0  0  0  0  0  0  0  0
   -3.9884    3.7839   10.7690 H   0  0  0  0  0  0  0  0  0  0  0  0
   -2.5731    2.7118    9.5731 C   0  0  0  0  0  0  0  0  0  0  0  0
   -3.2076    1.8565    9.3908 H   0  0  0  0  0  0  0  0  0  0  0  0
   -1.2778    2.7371    9.0145 C   0  0  0  0  0  0  0  0  0  0  0  0
   -0.7619    1.7149    8.1957 C   0  0  0  0  0  3  0  0  0  0  0  0
   -1.3781    0.8556    7.9798 H   0  0  0  0  0  0  0  0  0  0  0  0
    0.5063    1.8220    7.6894 C   0  0  0  0  0  0  0  0  0  0  0  0
    0.9068    1.0323    7.0710 H   0  0  0  0  0  0  0  0  0  0  0  0
    1.3105    2.9329    7.9563 C   0  0  0  0  0  0  0  0  0  0  0  0
    2.3086    2.9601    7.5518 H   0  0  0  0  0  0  0  0  0  0  0  0
    0.8531    3.9672    8.7541 C   0  0  0  0  0  0  0  0  0  0  0  0
   -0.4638    3.8592    9.3075 C   0  0  0  0  0  0  0  0  0  0  0  0
    2.7521    6.7525   11.2147 C   0  0  0  0  0  0  0  0  0  0  0  0
    3.5014    6.3385   10.5364 H   0  0  0  0  0  0  0  0  0  0  0  0
    3.0455    6.5269   12.2403 H   0  0  0  0  0  0  0  0  0  0  0  0
    2.7359    7.8400   11.1028 H   0  0  0  0  0  0  0  0  0  0  0  0
    1.3011    4.3226   11.9009 C   0  0  0  0  0  0  0  0  0  0  0  0
    1.9227    3.6224   11.3388 H   0  0  0  0  0  0  0  0  0  0  0  0
    0.3645    3.8256   12.1685 H   0  0  0  0  0  0  0  0  0  0  0  0
    1.8160    4.5787   12.8273 H   0  0  0  0  0  0  0  0  0  0  0  0
  1 36  1  0  0  0  0
  1 40  1  0  0  0  0
  1  2  1  0  0  0  0
  3  6  1  0  0  0  0
  3  1  1  0  0  0  0
  4  1  1  0  0  0  0
  5 21  1  0  0  0  0
  5  1  1  0  0  0  0
  6  7  1  0  0  0  0
  8  9  1  0  0  0  0
  8  6  2  0  0  0  0
 10  8  1  0  0  0  0
 11 10  1  0  0  0  0
 12 10  2  0  0  0  0
 12 20  1  0  0  0  0
 13 12  1  0  0  0  0
 14 13  1  0  0  0  0
 15 13  1  0  0  0  0
 15 17  2  0  0  0  0
 16 15  1  0  0  0  0
 17 19  1  0  0  0  0
 18 17  1  0  0  0  0
 19 20  2  0  0  0  0
 19  4  1  0  0  0  0
 20  3  1  0  0  0  0
 21 22  1  0  0  0  0
 23 21  2  0  0  0  0
 23 24  1  0  0  0  0
 25 23  1  0  0  0  0
 26 25  1  0  0  0  0
 27 35  1  0  0  0  0
 27 25  2  0  0  0  0
 28 27  1  0  0  0  0
 29 28  1  0  0  0  0
 30 32  2  0  0  0  0
 30 28  1  0  0  0  0
 31 30  1  0  0  0  0
 32 34  1  0  0  0  0
 33 32  1  0  0  0  0
 34  4  1  0  0  0  0
 34 35  2  0  0  0  0
 35  5  1  0  0  0  0
 36 38  1  0  0  0  0
 37 36  1  0  0  0  0
 39 36  1  0  0  0  0
 40 42  1  0  0  0  0
 40 43  1  0  0  0  0
 41 40  1  0  0  0  0
M  END
$$$$
