CSD_code = DENCUV | q = 0 | S = 0 | Stoichiometry = C25H15AuClN | MND = 4
 OpenBabel04212202023D

 43 49  0  0  0  0  0  0  0  0999 V2000
    2.7924    1.5891   10.3905 Au  0  0  1  0  0  0  0  0  0  0  0  0
    0.5981    1.7879   10.5464 Cl  0  0  0  0  0  0  0  0  0  0  0  0
    1.8353   -0.4598    8.2683 C   0  0  0  0  0  0  0  0  0  0  0  0
    0.8081   -0.2101    8.4946 H   0  0  0  0  0  0  0  0  0  0  0  0
    2.8445    0.1710    8.9359 C   0  0  0  0  0  0  0  0  0  0  0  0
    4.1978   -0.1775    8.6157 C   0  0  0  0  0  0  0  0  0  0  0  0
    4.4726   -1.1285    7.6577 C   0  0  0  0  0  0  0  0  0  0  0  0
    5.4924   -1.3930    7.4144 H   0  0  0  0  0  0  0  0  0  0  0  0
    3.4319   -1.7808    6.9736 C   0  0  0  0  0  0  0  0  0  0  0  0
    2.0874   -1.4413    7.2815 C   0  0  0  0  0  0  0  0  0  0  0  0
    1.0451   -2.0953    6.5960 C   0  0  0  0  0  0  0  0  0  0  0  0
    0.0250   -1.8313    6.8344 H   0  0  0  0  0  0  0  0  0  0  0  0
    1.3201   -3.0445    5.6504 C   0  0  0  0  0  0  0  0  0  0  0  0
    0.5158   -3.5429    5.1292 H   0  0  0  0  0  0  0  0  0  0  0  0
    2.6486   -3.3822    5.3466 C   0  0  0  0  0  0  0  0  0  0  0  0
    2.8457   -4.1355    4.5979 H   0  0  0  0  0  0  0  0  0  0  0  0
    3.6823   -2.7644    5.9923 C   0  0  0  0  0  0  0  0  0  0  0  0
    4.7071   -3.0203    5.7619 H   0  0  0  0  0  0  0  0  0  0  0  0
    4.7255    1.4107   10.2561 N   0  0  0  0  0  0  0  0  0  0  0  0
    5.2184    0.5325    9.3675 C   0  0  0  0  0  0  0  0  0  0  0  0
    6.6007    0.3924    9.2599 C   0  0  0  0  0  0  0  0  0  0  0  0
    7.0226   -0.3039    8.5546 H   0  0  0  0  0  0  0  0  0  0  0  0
    7.4198    1.1594   10.0716 C   0  0  0  0  0  0  0  0  0  0  0  0
    8.4926    1.0589    9.9977 H   0  0  0  0  0  0  0  0  0  0  0  0
    6.8734    2.0530   10.9775 C   0  0  0  0  0  0  0  0  0  0  0  0
    7.5075    2.6500   11.6113 H   0  0  0  0  0  0  0  0  0  0  0  0
    5.4872    2.1704   11.0600 C   0  0  0  0  0  0  0  0  0  0  0  0
    5.2981    3.9018   12.8499 C   0  0  0  0  0  0  0  0  0  0  0  0
    6.3725    3.9706   12.9504 H   0  0  0  0  0  0  0  0  0  0  0  0
    4.7258    3.0408   11.9396 C   0  0  0  0  0  0  0  0  0  0  0  0
    3.3009    2.9525   11.8091 C   0  0  0  0  0  0  0  0  0  0  0  0
    2.5249    3.7423   12.6067 C   0  0  0  0  0  0  0  0  0  0  0  0
    1.4483    3.6908   12.5232 H   0  0  0  0  0  0  0  0  0  0  0  0
    3.0845    4.6345   13.5509 C   0  0  0  0  0  0  0  0  0  0  0  0
    4.4976    4.7129   13.6732 C   0  0  0  0  0  0  0  0  0  0  0  0
    5.0550    5.6010   14.6186 C   0  0  0  0  0  0  0  0  0  0  0  0
    6.1309    5.6565   14.7083 H   0  0  0  0  0  0  0  0  0  0  0  0
    4.2496    6.3749   15.4057 C   0  0  0  0  0  0  0  0  0  0  0  0
    4.6813    7.0516   16.1286 H   0  0  0  0  0  0  0  0  0  0  0  0
    2.8530    6.2979   15.2827 C   0  0  0  0  0  0  0  0  0  0  0  0
    2.2324    6.9180   15.9129 H   0  0  0  0  0  0  0  0  0  0  0  0
    2.2829    5.4474   14.3758 C   0  0  0  0  0  0  0  0  0  0  0  0
    1.2090    5.3841   14.2769 H   0  0  0  0  0  0  0  0  0  0  0  0
  1  2  1  6  0  0  0
  1 31  1  0  0  0  0
  3  4  1  0  0  0  0
  3  5  1  0  0  0  0
  5  1  2  0  0  0  0
  6  5  1  0  0  0  0
  6 20  2  0  0  0  0
  7  6  1  0  0  0  0
  8  7  1  0  0  0  0
  9 10  1  0  0  0  0
  9  7  2  0  0  0  0
 10  3  2  0  0  0  0
 11 12  1  0  0  0  0
 11 10  1  0  0  0  0
 13 11  2  0  0  0  0
 14 13  1  0  0  0  0
 15 13  1  0  0  0  0
 15 17  2  0  0  0  0
 16 15  1  0  0  0  0
 17  9  1  0  0  0  0
 18 17  1  0  0  0  0
 19  1  1  0  0  0  0
 19 27  1  0  0  0  0
 20 19  1  0  0  0  0
 21 20  1  0  0  0  0
 21 23  2  0  0  0  0
 22 21  1  0  0  0  0
 23 25  1  0  0  0  0
 24 23  1  0  0  0  0
 25 27  2  0  0  0  0
 25 26  1  0  0  0  0
 27 30  1  0  0  0  0
 28 29  1  0  0  0  0
 28 35  1  0  0  0  0
 30 28  2  0  0  0  0
 31 30  1  0  0  0  0
 31 32  2  0  0  0  0
 32 34  1  0  0  0  0
 33 32  1  0  0  0  0
 34 35  2  0  0  0  0
 34 42  1  0  0  0  0
 35 36  1  0  0  0  0
 36 37  1  0  0  0  0
 36 38  2  0  0  0  0
 38 39  1  0  0  0  0
 40 38  1  0  0  0  0
 40 41  1  0  0  0  0
 42 40  2  0  0  0  0
 43 42  1  0  0  0  0
M  END
$$$$
