CSD_code = DENMUF | q = 0 | S = 0 | Stoichiometry = C19H29Cl2N2PTi | MND = 8
 OpenBabel04212202023D

 54 55  0  0  1  0  0  0  0  0999 V2000
   -1.0856    9.8161    9.8158 Ti  0  0  0  0  0  0  0  0  0  0  0  0
   -1.4479    8.3044   11.3605 Cl  0  0  0  0  0  0  0  0  0  0  0  0
   -1.9456   11.5316   10.8905 Cl  0  0  0  0  0  0  0  0  0  0  0  0
    1.9846   10.0876   10.7165 P   0  0  0  0  0  4  0  0  0  0  0  0
    0.6279   10.1922    9.9523 N   0  0  0  0  0  2  0  0  0  0  0  0
    4.1670    9.7843    7.8684 N   0  0  0  0  0  0  0  0  0  0  0  0
   -2.7735   10.2756    8.2217 C   0  0  0  0  0  0  0  0  0  0  0  0
   -3.5252   11.0510    8.3013 H   0  0  0  0  0  0  0  0  0  0  0  0
   -1.4990   10.4240    7.6281 C   0  0  0  0  0  0  0  0  0  0  0  0
   -1.1367   11.3168    7.1317 H   0  0  0  0  0  0  0  0  0  0  0  0
   -0.8762    9.1519    7.6158 C   0  0  2  0  0  0  0  0  0  0  0  0
    0.0498    8.9006    7.1139 H   0  0  0  0  0  0  0  0  0  0  0  0
   -1.7573    8.2360    8.2323 C   0  0  0  0  0  0  0  0  0  0  0  0
   -1.6115    7.1638    8.3021 H   0  0  0  0  0  0  0  0  0  0  0  0
   -2.9274    8.9344    8.6008 C   0  0  0  0  0  0  0  0  0  0  0  0
   -3.8184    8.4912    9.0275 H   0  0  0  0  0  0  0  0  0  0  0  0
    4.1165    9.3849    6.6086 C   0  0  0  0  0  0  0  0  0  0  0  0
    4.9202    8.7293    6.2992 H   0  0  0  0  0  0  0  0  0  0  0  0
    3.1159    9.7624    5.7289 C   0  0  0  0  0  0  0  0  0  0  0  0
    3.1164    9.4094    4.7097 H   0  0  0  0  0  0  0  0  0  0  0  0
    2.1185   10.6062    6.1982 C   0  0  0  0  0  0  0  0  0  0  0  0
    1.3200   10.9261    5.5437 H   0  0  0  0  0  0  0  0  0  0  0  0
    2.1661   11.0341    7.5130 C   0  0  0  0  0  0  0  0  0  0  0  0
    1.4133   11.6920    7.9249 H   0  0  0  0  0  0  0  0  0  0  0  0
    3.2150   10.5937    8.3208 C   0  0  0  0  0  0  0  0  0  0  0  0
    3.2917   11.0133    9.7459 C   0  0  0  0  0  0  0  0  0  0  0  0
    3.0220   12.0668    9.8252 H   0  0  0  0  0  0  0  0  0  0  0  0
    4.2883   10.8440   10.1457 H   0  0  0  0  0  0  0  0  0  0  0  0
    2.0126    7.6069    9.5879 C   0  0  0  0  0  0  0  0  0  0  0  0
    2.3214    6.5630    9.5595 H   0  0  0  0  0  0  0  0  0  0  0  0
    2.3517    8.0909    8.6739 H   0  0  0  0  0  0  0  0  0  0  0  0
    0.9181    7.6544    9.6278 H   0  0  0  0  0  0  0  0  0  0  0  0
    4.1266    8.2122   10.7882 C   0  0  0  0  0  0  0  0  0  0  0  0
    4.4304    7.1729   10.9095 H   0  0  0  0  0  0  0  0  0  0  0  0
    4.5718    8.7873   11.5965 H   0  0  0  0  0  0  0  0  0  0  0  0
    4.5146    8.5695    9.8370 H   0  0  0  0  0  0  0  0  0  0  0  0
    2.0559    7.5976   12.0638 C   0  0  0  0  0  0  0  0  0  0  0  0
    2.2606    6.5290   11.9991 H   0  0  0  0  0  0  0  0  0  0  0  0
    0.9764    7.7315   12.1273 H   0  0  0  0  0  0  0  0  0  0  0  0
    2.5271    7.9692   12.9703 H   0  0  0  0  0  0  0  0  0  0  0  0
    2.6033    8.2919   10.8201 C   0  0  0  0  0  0  0  0  0  0  0  0
    3.2549   10.9795   13.1248 C   0  0  0  0  0  0  0  0  0  0  0  0
    3.1768   11.5912   14.0230 H   0  0  0  0  0  0  0  0  0  0  0  0
    4.0642   11.3771   12.5160 H   0  0  0  0  0  0  0  0  0  0  0  0
    3.5108    9.9684   13.4304 H   0  0  0  0  0  0  0  0  0  0  0  0
    0.7954   10.4432   13.2220 C   0  0  0  0  0  0  0  0  0  0  0  0
    0.5787   11.1194   14.0484 H   0  0  0  0  0  0  0  0  0  0  0  0
    1.0421    9.4733   13.6417 H   0  0  0  0  0  0  0  0  0  0  0  0
   -0.1094   10.3467   12.6143 H   0  0  0  0  0  0  0  0  0  0  0  0
    1.5552   12.4545   12.0086 C   0  0  0  0  0  0  0  0  0  0  0  0
    1.2355   12.9904   12.9009 H   0  0  0  0  0  0  0  0  0  0  0  0
    0.7217   12.4485   11.3008 H   0  0  0  0  0  0  0  0  0  0  0  0
    2.3937   13.0005   11.5814 H   0  0  0  0  0  0  0  0  0  0  0  0
    1.9290   11.0155   12.3742 C   0  0  0  0  0  0  0  0  0  0  0  0
  1  5  1  0  0  0  0
  1  3  1  0  0  0  0
  1  2  1  0  0  0  0
  4 41  1  0  0  0  0
  4 54  1  0  0  0  0
  5  4  1  0  0  0  0
  6 25  1  0  0  0  0
  7  8  1  0  0  0  0
  7 15  1  0  0  0  0
  9  7  2  0  0  0  0
 10  9  1  0  0  0  0
 11 12  1  6  0  0  0
 11  9  1  0  0  0  0
 11 13  1  0  0  0  0
 11  1  1  0  0  0  0
 13 14  1  0  0  0  0
 13 15  2  0  0  0  0
 15 16  1  0  0  0  0
 17  6  2  0  0  0  0
 18 17  1  0  0  0  0
 19 21  2  0  0  0  0
 19 17  1  0  0  0  0
 20 19  1  0  0  0  0
 21 23  1  0  0  0  0
 22 21  1  0  0  0  0
 23 24  1  0  0  0  0
 23 25  2  0  0  0  0
 25 26  1  0  0  0  0
 26 27  1  0  0  0  0
 26 28  1  0  0  0  0
 26  4  1  0  0  0  0
 29 32  1  0  0  0  0
 29 41  1  0  0  0  0
 30 29  1  0  0  0  0
 31 29  1  0  0  0  0
 33 41  1  0  0  0  0
 33 34  1  0  0  0  0
 33 35  1  0  0  0  0
 36 33  1  0  0  0  0
 37 39  1  0  0  0  0
 37 40  1  0  0  0  0
 38 37  1  0  0  0  0
 41 37  1  0  0  0  0
 42 45  1  0  0  0  0
 42 43  1  0  0  0  0
 44 42  1  0  0  0  0
 46 48  1  0  0  0  0
 46 47  1  0  0  0  0
 49 46  1  0  0  0  0
 50 54  1  0  0  0  0
 50 51  1  0  0  0  0
 52 50  1  0  0  0  0
 53 50  1  0  0  0  0
 54 42  1  0  0  0  0
 54 46  1  0  0  0  0
M  END
$$$$
