CSD_code = DENMER | q = 0 | S = 0 | Stoichiometry = C12H7BrN2NiS2 | MND = 4
 OpenBabel04212202023D

 25 29  0  0  0  0  0  0  0  0999 V2000
   -0.4028    5.8831    2.2293 Br  0  0  0  0  0  0  0  0  0  0  0  0
   -2.1660    7.1073    2.2324 Ni  0  0  1  0  0  0  0  0  0  0  0  0
   -5.6265    5.5213    4.5035 S   0  0  0  0  0  0  0  0  0  0  0  0
   -1.8554   10.8203    0.0027 S   0  0  0  0  0  0  0  0  0  0  0  0
   -3.7210    8.1653    2.2506 N   0  0  0  0  0  0  0  0  0  0  0  0
   -3.7136    9.3332    1.5868 C   0  0  0  0  0  0  0  0  0  0  0  0
   -4.7970    7.7426    2.9177 C   0  0  0  0  0  0  0  0  0  0  0  0
   -5.9632    8.4995    2.9532 C   0  0  0  0  0  0  0  0  0  0  0  0
   -6.8262    8.1472    3.4951 H   0  0  0  0  0  0  0  0  0  0  0  0
   -4.8523   10.1425    1.5822 C   0  0  0  0  0  0  0  0  0  0  0  0
   -4.8423   11.0791    1.0486 H   0  0  0  0  0  0  0  0  0  0  0  0
   -5.9727    9.7116    2.2715 C   0  0  0  0  0  0  0  0  0  0  0  0
   -6.8640   10.3206    2.2819 H   0  0  0  0  0  0  0  0  0  0  0  0
   -1.4794    8.5077    1.1640 C   0  0  0  0  0  0  0  0  0  0  0  0
   -0.2746    8.8353    0.4969 C   0  0  0  0  0  0  0  0  0  0  0  0
    0.6055    8.2155    0.4967 H   0  0  0  0  0  0  0  0  0  0  0  0
   -3.2583    4.7230    4.0154 C   0  0  0  0  0  0  0  0  0  0  0  0
   -2.3352    4.1709    3.9617 H   0  0  0  0  0  0  0  0  0  0  0  0
   -3.3596    5.9114    3.3835 N   0  0  0  0  0  0  0  0  0  0  0  0
   -4.5444    6.4628    3.5415 C   0  0  0  0  0  0  0  0  0  0  0  0
   -2.4328    9.5086    0.9771 C   0  0  0  0  0  0  0  0  0  0  0  0
   -0.3395   10.0305   -0.1550 C   0  0  0  0  0  0  0  0  0  0  0  0
    0.4303   10.5053   -0.7320 H   0  0  0  0  0  0  0  0  0  0  0  0
   -4.3839    4.3441    4.6763 C   0  0  0  0  0  0  0  0  0  0  0  0
   -4.5558    3.4551    5.2475 H   0  0  0  0  0  0  0  0  0  0  0  0
  2  1  1  1  0  0  0
  2  5  1  0  0  0  0
  2 19  1  0  0  0  0
  3 24  1  0  0  0  0
  4 21  1  0  0  0  0
  5  7  1  0  0  0  0
  6  5  1  0  0  0  0
  7  8  1  0  0  0  0
  7 20  2  0  0  0  0
  8  9  1  0  0  0  0
 10  6  2  0  0  0  0
 10 12  1  0  0  0  0
 11 10  1  0  0  0  0
 12 13  1  0  0  0  0
 12  8  2  0  0  0  0
 14  2  1  0  0  0  0
 15 14  1  0  0  0  0
 16 15  1  0  0  0  0
 17 24  2  0  0  0  0
 18 17  1  0  0  0  0
 19 20  1  0  0  0  0
 19 17  1  0  0  0  0
 20  3  1  0  0  0  0
 21 14  2  0  0  0  0
 21  6  1  0  0  0  0
 22  4  1  0  0  0  0
 22 15  2  0  0  0  0
 23 22  1  0  0  0  0
 24 25  1  0  0  0  0
M  END
$$$$
