CSD_code = DENSAR | q = 0 | S = 0 | Stoichiometry = C14H26ClN3O2Pd | MND = 4
 OpenBabel04212202023D

 47 49  0  0  1  0  0  0  0  0999 V2000
    1.0385    4.4368    1.0937 Pd  0  0  1  0  0  0  0  0  0  0  0  0
    2.5561    6.0425    1.3139 Cl  0  0  0  0  0  0  0  0  0  0  0  0
   -0.4520    2.9999    1.6069 N   0  0  1  0  0  0  0  0  0  0  0  0
   -0.8221    5.7474    0.6107 N   0  0  2  0  0  0  0  0  0  0  0  0
   -2.4305    2.4055    2.4786 O   0  0  0  0  0  0  0  0  0  0  0  0
   -2.8064    5.9051   -0.4249 O   0  0  0  0  0  0  0  0  0  0  0  0
    2.5767    3.1506    0.7171 C   0  0  0  0  0  0  0  0  0  0  0  0
    2.9734    3.4423   -0.2643 H   0  0  0  0  0  0  0  0  0  0  0  0
    2.1933    2.1244    0.6669 H   0  0  0  0  0  0  0  0  0  0  0  0
    3.3903    3.2070    1.4439 H   0  0  0  0  0  0  0  0  0  0  0  0
   -0.1124    2.0199    2.6287 C   0  0  2  0  0  0  0  0  0  0  0  0
    0.4029    1.1803    2.1475 H   0  0  0  0  0  0  0  0  0  0  0  0
   -1.4962    1.5814    3.1659 C   0  0  0  0  0  0  0  0  0  0  0  0
   -1.7233    0.5358    2.9431 H   0  0  0  0  0  0  0  0  0  0  0  0
   -1.6144    1.7532    4.2377 H   0  0  0  0  0  0  0  0  0  0  0  0
   -1.7114    3.1967    1.6478 C   0  0  2  0  0  3  0  0  0  0  0  0
   -2.4675    4.0679    0.9136 N   0  0  0  0  0  0  0  0  0  0  0  0
   -3.9012    3.8291    0.8664 C   0  0  0  0  0  0  0  0  0  0  0  0
   -4.3240    4.4089    0.0511 H   0  0  0  0  0  0  0  0  0  0  0  0
   -4.3716    4.1211    1.8078 H   0  0  0  0  0  0  0  0  0  0  0  0
   -4.0816    2.7690    0.6971 H   0  0  0  0  0  0  0  0  0  0  0  0
   -1.9637    5.2304    0.3909 C   0  0  2  0  0  3  0  0  0  0  0  0
   -2.0955    7.0578   -0.8698 C   0  0  0  0  0  0  0  0  0  0  0  0
   -2.0689    7.0403   -1.9607 H   0  0  0  0  0  0  0  0  0  0  0  0
   -2.6353    7.9479   -0.5368 H   0  0  0  0  0  0  0  0  0  0  0  0
   -0.6917    6.9313   -0.2255 C   0  0  2  0  0  0  0  0  0  0  0  0
   -0.4696    7.7870    0.4221 H   0  0  0  0  0  0  0  0  0  0  0  0
    0.4677    6.7837   -1.2353 C   0  0  0  0  0  0  0  0  0  0  0  0
    1.3895    6.7777   -0.6400 H   0  0  0  0  0  0  0  0  0  0  0  0
    0.5189    7.9816   -2.1793 C   0  0  0  0  0  0  0  0  0  0  0  0
    0.5092    8.9119   -1.6165 H   0  0  0  0  0  0  0  0  0  0  0  0
   -0.3189    7.9896   -2.8743 H   0  0  0  0  0  0  0  0  0  0  0  0
    1.4368    7.9466   -2.7598 H   0  0  0  0  0  0  0  0  0  0  0  0
    0.4013    5.4592   -1.9991 C   0  0  0  0  0  0  0  0  0  0  0  0
    1.1691    5.4465   -2.7690 H   0  0  0  0  0  0  0  0  0  0  0  0
   -0.5669    5.3111   -2.4777 H   0  0  0  0  0  0  0  0  0  0  0  0
    0.5970    4.6166   -1.3093 H   0  0  0  0  0  0  0  0  0  0  0  0
    0.8357    2.6180    3.6951 C   0  0  0  0  0  0  0  0  0  0  0  0
    1.7827    2.8378    3.1801 H   0  0  0  0  0  0  0  0  0  0  0  0
    0.3121    3.9411    4.2609 C   0  0  0  0  0  0  0  0  0  0  0  0
    0.3525    4.7261    3.4866 H   0  0  0  0  0  0  0  0  0  0  0  0
    0.9444    4.2584    5.0867 H   0  0  0  0  0  0  0  0  0  0  0  0
   -0.7105    3.8530    4.6268 H   0  0  0  0  0  0  0  0  0  0  0  0
    1.1139    1.5988    4.7974 C   0  0  0  0  0  0  0  0  0  0  0  0
    1.9001    1.9711    5.4486 H   0  0  0  0  0  0  0  0  0  0  0  0
    1.4429    0.6535    4.3719 H   0  0  0  0  0  0  0  0  0  0  0  0
    0.2324    1.4129    5.4072 H   0  0  0  0  0  0  0  0  0  0  0  0
  1  2  1  0  0  0  0
  1  3  1  0  0  0  0
  3 16  1  0  0  0  0
  3 11  1  0  0  0  0
  4  1  1  0  0  0  0
  5 13  1  0  0  0  0
  6 22  1  0  0  0  0
  7  1  1  0  0  0  0
  7 10  1  0  0  0  0
  8  7  1  0  0  0  0
  9  7  1  0  0  0  0
 11 13  1  0  0  0  0
 11 38  1  0  0  0  0
 12 11  1  0  0  0  0
 13 15  1  0  0  0  0
 14 13  1  0  0  0  0
 16  5  1  0  0  0  0
 17 16  1  0  0  0  0
 18 17  1  0  0  0  0
 18 20  1  0  0  0  0
 19 18  1  0  0  0  0
 21 18  1  0  0  0  0
 22  4  1  0  0  0  0
 22 17  1  0  0  0  0
 23 25  1  0  0  0  0
 23  6  1  0  0  0  0
 23 26  1  0  0  0  0
 24 23  1  0  0  0  0
 26 27  1  0  0  0  0
 26  4  1  0  0  0  0
 28 29  1  0  0  0  0
 28 26  1  0  0  0  0
 30 31  1  0  0  0  0
 30 28  1  0  0  0  0
 32 30  1  0  0  0  0
 33 30  1  0  0  0  0
 34 37  1  0  0  0  0
 34 28  1  0  0  0  0
 35 34  1  0  0  0  0
 36 34  1  0  0  0  0
 38 40  1  0  0  0  0
 38 44  1  0  0  0  0
 39 38  1  0  0  0  0
 40 43  1  0  0  0  0
 40 42  1  0  0  0  0
 41 40  1  0  0  0  0
 44 47  1  0  0  0  0
 44 45  1  0  0  0  0
 46 44  1  0  0  0  0
M  END
$$$$
