CSD_code = DEPBEF | q = 0 | S = 0 | Stoichiometry = C10H8Cl4N2Pt | MND = 6
 OpenBabel04212202023D

 25 27  0  0  1  0  0  0  0  0999 V2000
    3.8425    4.6892    8.9178 Pt  0  0  0  0  0  0  0  0  0  0  0  0
    2.9584    5.9291    7.0902 Cl  0  0  0  0  0  0  0  0  0  0  0  0
    4.4879    3.4507   10.8447 Cl  0  0  0  0  0  0  0  0  0  0  0  0
    5.6885    6.0428    9.0587 Cl  0  0  0  0  0  0  0  0  0  0  0  0
    5.0306    3.3097    7.5231 Cl  0  0  0  0  0  0  0  0  0  0  0  0
    2.6558    5.8313   10.1560 N   0  0  0  0  0  0  0  0  0  0  0  0
    2.1131    3.5692    8.8893 N   0  0  0  0  0  0  0  0  0  0  0  0
    3.0320    6.9592   10.7336 C   0  0  0  0  0  3  0  0  0  0  0  0
    2.1775    7.6772   11.5548 C   0  0  0  0  0  0  0  0  0  0  0  0
    0.8982    7.1881   11.7684 C   0  0  0  0  0  0  0  0  0  0  0  0
    0.5167    6.0053   11.1575 C   0  0  0  0  0  0  0  0  0  0  0  0
    1.4241    5.3318   10.3420 C   0  0  0  0  0  0  0  0  0  0  0  0
    1.1246    4.0749    9.6430 C   0  0  1  0  0  3  0  0  0  0  0  0
   -0.0976    3.4103    9.7241 C   0  0  0  0  0  0  0  0  0  0  0  0
   -0.2793    2.2314    9.0205 C   0  0  0  0  0  0  0  0  0  0  0  0
    0.7611    1.7375    8.2490 C   0  0  0  0  0  0  0  0  0  0  0  0
    1.9519    2.4450    8.2126 C   0  0  0  0  0  0  0  0  0  0  0  0
    4.0452    7.2841   10.5250 H   0  0  0  0  0  0  0  0  0  0  0  0
    2.5122    8.5940   12.0113 H   0  0  0  0  0  0  0  0  0  0  0  0
    0.2040    7.7190   12.4015 H   0  0  0  0  0  0  0  0  0  0  0  0
   -0.4746    5.6141   11.3143 H   0  0  0  0  0  0  0  0  0  0  0  0
   -0.8973    3.8052   10.3281 H   0  0  0  0  0  0  0  0  0  0  0  0
   -1.2213    1.7079    9.0754 H   0  0  0  0  0  0  0  0  0  0  0  0
    0.6590    0.8245    7.6859 H   0  0  0  0  0  0  0  0  0  0  0  0
    2.8056    2.1143    7.6316 H   0  0  0  0  0  0  0  0  0  0  0  0
  1  4  1  0  0  0  0
  1  6  1  0  0  0  0
  1  3  1  0  0  0  0
  2  1  1  0  0  0  0
  5  1  1  0  0  0  0
  6 12  1  0  0  0  0
  6  8  1  0  0  0  0
  7  1  1  0  0  0  0
  7 13  1  0  0  0  0
  8  9  1  0  0  0  0
  9 10  2  0  0  0  0
  9 19  1  0  0  0  0
 10 20  1  0  0  0  0
 11 21  1  0  0  0  0
 11 10  1  0  0  0  0
 12 11  2  0  0  0  0
 13 14  1  6  0  0  0
 13 12  1  0  0  0  0
 14 22  1  0  0  0  0
 15 23  1  0  0  0  0
 15 14  2  0  0  0  0
 16 15  1  0  0  0  0
 17 16  2  0  0  0  0
 17  7  1  0  0  0  0
 18  8  1  0  0  0  0
 24 16  1  0  0  0  0
 25 17  1  0  0  0  0
M  END
$$$$
