CSD_code = DEPCIK | q = 0 | S = 0 | Stoichiometry = C5H9AuClN | MND = 2
 OpenBabel04212202023D

 17 16  0  0  0  0  0  0  0  0999 V2000
   -0.2292    1.6532   -0.7591 Au  0  0  0  0  0  0  0  0  0  0  0  0
    1.6823    1.6539   -1.8627 Cl  0  0  0  0  0  0  0  0  0  0  0  0
   -2.8555    1.6538    0.7449 N   0  0  0  0  0  2  0  0  0  0  0  0
   -1.8478    1.6541    0.1738 C   0  0  0  0  0  0  0  0  0  0  0  0
   -4.0780    1.6538    1.4447 C   0  0  0  0  0  0  0  0  0  0  0  0
   -3.7597    1.6538    2.9420 C   0  0  0  0  0  0  0  0  0  0  0  0
   -4.8458    0.3915    1.0443 C   0  0  0  0  0  0  0  0  0  0  0  0
   -4.6851    1.6538    3.5113 H   0  0  0  0  0  0  0  0  0  0  0  0
   -5.0347    0.3832   -0.0267 H   0  0  0  0  0  0  0  0  0  0  0  0
   -3.1843    2.5369    3.2099 H   0  0  0  0  0  0  0  0  0  0  0  0
   -4.2775   -0.4990    1.3028 H   0  0  0  0  0  0  0  0  0  0  0  0
   -5.7977    0.3625    1.5672 H   0  0  0  0  0  0  0  0  0  0  0  0
   -4.8458    2.9161    1.0443 C   0  0  0  0  0  0  0  0  0  0  0  0
   -3.1843    0.7707    3.2099 H   0  0  0  0  0  0  0  0  0  0  0  0
   -5.0347    2.9243   -0.0267 H   0  0  0  0  0  0  0  0  0  0  0  0
   -4.2775    3.8065    1.3028 H   0  0  0  0  0  0  0  0  0  0  0  0
   -5.7977    2.9450    1.5672 H   0  0  0  0  0  0  0  0  0  0  0  0
  1  4  3  0  0  0  0
  2  1  1  0  0  0  0
  3  5  1  0  0  0  0
  4  3  1  0  0  0  0
  5  6  1  0  0  0  0
  6 14  1  0  0  0  0
  6 10  1  0  0  0  0
  6  8  1  0  0  0  0
  7 11  1  0  0  0  0
  7  5  1  0  0  0  0
  7 12  1  0  0  0  0
  9  7  1  0  0  0  0
 13 16  1  0  0  0  0
 13  5  1  0  0  0  0
 13 17  1  0  0  0  0
 15 13  1  0  0  0  0
M  END
$$$$
