CSD_code = DEPHUB | q = 0 | S = 0 | Stoichiometry = C26H26Cl2P2Pd | MND = 4
 OpenBabel04212202023D

 57 60  0  0  0  0  0  0  0  0999 V2000
    3.7819   -0.0998   14.0790 Pd  0  0  0  0  0  0  0  0  0  0  0  0
    6.0047    0.2153   14.1864 P   0  0  0  0  0  4  0  0  0  0  0  0
    3.2311    0.8256   12.0871 P   0  0  0  0  0  4  0  0  0  0  0  0
    1.6077   -0.7753   13.9374 Cl  0  0  0  0  0  0  0  0  0  0  0  0
    3.9673   -0.8500   16.2122 Cl  0  0  0  0  0  0  0  0  0  0  0  0
    7.0104   -0.8748   15.2561 C   0  0  0  0  0  0  0  0  0  0  0  0
    6.5959    1.8722   14.6317 C   0  0  0  0  0  0  0  0  0  0  0  0
    5.6135    2.7812   15.0136 C   0  0  0  0  0  0  0  0  0  0  0  0
    5.9570    4.0642   15.3975 C   0  0  0  0  0  0  0  0  0  0  0  0
    7.2897    4.4438   15.4041 C   0  0  0  0  0  0  0  0  0  0  0  0
    8.2740    3.5350   15.0494 C   0  0  0  0  0  0  0  0  0  0  0  0
    7.9338    2.2482   14.6718 C   0  0  0  0  0  0  0  0  0  0  0  0
    6.6512   -0.2604   12.5485 C   0  0  0  0  0  0  0  0  0  0  0  0
    7.6652    0.3601   11.8361 C   0  0  0  0  0  0  0  0  0  0  0  0
    8.0493   -0.1473   10.6056 C   0  0  0  0  0  0  0  0  0  0  0  0
    7.4286   -1.2695   10.0859 C   0  0  0  0  0  0  0  0  0  0  0  0
    6.4038   -1.8860   10.7885 C   0  0  0  0  0  0  0  0  0  0  0  0
    6.0125   -1.3794   12.0121 C   0  0  0  0  0  0  0  0  0  0  0  0
    2.2235   -0.0793   10.8603 C   0  0  0  0  0  0  0  0  0  0  0  0
    4.5108    1.6259   11.0596 C   0  0  0  0  0  0  0  0  0  0  0  0
    4.9169    1.1317    9.8266 C   0  0  0  0  0  0  0  0  0  0  0  0
    5.9298    1.7613    9.1245 C   0  0  0  0  0  0  0  0  0  0  0  0
    6.5533    2.8800    9.6490 C   0  0  0  0  0  0  0  0  0  0  0  0
    6.1624    3.3709   10.8847 C   0  0  0  0  0  0  0  0  0  0  0  0
    5.1493    2.7466   11.5847 C   0  0  0  0  0  0  0  0  0  0  0  0
    2.2085    2.2741   12.5095 C   0  0  0  0  0  0  0  0  0  0  0  0
    1.7404    3.1311   11.5182 C   0  0  0  0  0  0  0  0  0  0  0  0
    0.9798    4.2341   11.8588 C   0  0  0  0  0  0  0  0  0  0  0  0
    0.6893    4.4947   13.1886 C   0  0  0  0  0  0  0  0  0  0  0  0
    1.1633    3.6524   14.1806 C   0  0  0  0  0  0  0  0  0  0  0  0
    1.9226    2.5453   13.8445 C   0  0  0  0  0  0  0  0  0  0  0  0
    6.7277   -1.9097   15.0594 H   0  0  0  0  0  0  0  0  0  0  0  0
    6.7814   -0.6432   16.2956 H   0  0  0  0  0  0  0  0  0  0  0  0
    8.0717   -0.7302   15.0511 H   0  0  0  0  0  0  0  0  0  0  0  0
    4.5737    2.4525   15.0207 H   0  0  0  0  0  0  0  0  0  0  0  0
    5.1912    4.7655   15.6938 H   0  0  0  0  0  0  0  0  0  0  0  0
    7.5642    5.4457   15.6991 H   0  0  0  0  0  0  0  0  0  0  0  0
    9.3132    3.8294   15.0744 H   0  0  0  0  0  0  0  0  0  0  0  0
    8.7091    1.5386   14.4207 H   0  0  0  0  0  0  0  0  0  0  0  0
    8.1406    1.2476   12.2254 H   0  0  0  0  0  0  0  0  0  0  0  0
    8.8375    0.3394   10.0504 H   0  0  0  0  0  0  0  0  0  0  0  0
    7.7359   -1.6608    9.1275 H   0  0  0  0  0  0  0  0  0  0  0  0
    5.9134   -2.7567   10.3780 H   0  0  0  0  0  0  0  0  0  0  0  0
    5.1961   -1.8485   12.5762 H   0  0  0  0  0  0  0  0  0  0  0  0
    2.0368    0.5464    9.9880 H   0  0  0  0  0  0  0  0  0  0  0  0
    1.2866   -0.3546   11.3422 H   0  0  0  0  0  0  0  0  0  0  0  0
    2.7461   -0.9903   10.5669 H   0  0  0  0  0  0  0  0  0  0  0  0
    4.4477    0.2531    9.4101 H   0  0  0  0  0  0  0  0  0  0  0  0
    6.2336    1.3744    8.1627 H   0  0  0  0  0  0  0  0  0  0  0  0
    7.3432    3.3678    9.0974 H   0  0  0  0  0  0  0  0  0  0  0  0
    6.6470    4.2416   11.3023 H   0  0  0  0  0  0  0  0  0  0  0  0
    4.8349    3.1309   12.5463 H   0  0  0  0  0  0  0  0  0  0  0  0
    1.9788    2.9354   10.4817 H   0  0  0  0  0  0  0  0  0  0  0  0
    0.6118    4.8930   11.0860 H   0  0  0  0  0  0  0  0  0  0  0  0
    0.0926    5.3558   13.4508 H   0  0  0  0  0  0  0  0  0  0  0  0
    0.9372    3.8556   15.2169 H   0  0  0  0  0  0  0  0  0  0  0  0
    2.2733    1.8640   14.6290 H   0  0  0  0  0  0  0  0  0  0  0  0
  1  2  1  0  0  0  0
  1  5  1  0  0  0  0
  2  7  1  0  0  0  0
  2  6  1  0  0  0  0
  3 26  1  0  0  0  0
  3  1  1  0  0  0  0
  4  1  1  0  0  0  0
  6 33  1  0  0  0  0
  7 12  2  0  0  0  0
  7  8  1  0  0  0  0
  8 35  1  0  0  0  0
  8  9  2  0  0  0  0
  9 10  1  0  0  0  0
  9 36  1  0  0  0  0
 10 37  1  0  0  0  0
 11 38  1  0  0  0  0
 11 10  2  0  0  0  0
 12 11  1  0  0  0  0
 13  2  1  0  0  0  0
 14 40  1  0  0  0  0
 14 13  2  0  0  0  0
 15 14  1  0  0  0  0
 16 15  2  0  0  0  0
 16 17  1  0  0  0  0
 17 18  2  0  0  0  0
 18 13  1  0  0  0  0
 18 44  1  0  0  0  0
 19 46  1  0  0  0  0
 19  3  1  0  0  0  0
 20 25  1  0  0  0  0
 20  3  1  0  0  0  0
 21 20  2  0  0  0  0
 22 23  2  0  0  0  0
 22 21  1  0  0  0  0
 23 24  1  0  0  0  0
 24 51  1  0  0  0  0
 24 25  2  0  0  0  0
 25 52  1  0  0  0  0
 26 31  1  0  0  0  0
 27 28  1  0  0  0  0
 27 26  2  0  0  0  0
 28 29  2  0  0  0  0
 29 55  1  0  0  0  0
 29 30  1  0  0  0  0
 30 56  1  0  0  0  0
 31 30  2  0  0  0  0
 31 57  1  0  0  0  0
 32  6  1  0  0  0  0
 34  6  1  0  0  0  0
 39 12  1  0  0  0  0
 41 15  1  0  0  0  0
 42 16  1  0  0  0  0
 43 17  1  0  0  0  0
 45 19  1  0  0  0  0
 47 19  1  0  0  0  0
 48 21  1  0  0  0  0
 49 22  1  0  0  0  0
 50 23  1  0  0  0  0
 53 27  1  0  0  0  0
 54 28  1  0  0  0  0
M  END
$$$$
