CSD_code = DEPJAJ | q = 0 | S = 0 | Stoichiometry = C5H9Cl2F3PtS2 | MND = 4
 OpenBabel04212202023D

 22 22  0  0  1  0  0  0  0  0999 V2000
    1.2170    1.3261    1.0277 Pt  0  0  0  0  0  0  0  0  0  0  0  0
    1.1622    3.0057   -0.4648 Cl  0  0  0  0  0  0  0  0  0  0  0  0
    0.1801    2.6552    2.5175 Cl  0  0  0  0  0  0  0  0  0  0  0  0
    1.3906   -0.4650    2.5992 S   0  0  2  0  0  3  0  0  0  0  0  0
    2.3519   -0.0238   -0.5642 S   0  0  1  0  0  3  0  0  0  0  0  0
    2.5163   -3.3336    2.6078 F   0  0  0  0  0  0  0  0  0  0  0  0
    3.5976   -2.1332    4.0268 F   0  0  0  0  0  0  0  0  0  0  0  0
    4.5826   -2.8485    2.2597 F   0  0  0  0  0  0  0  0  0  0  0  0
    1.9123    0.3936    4.1051 C   0  0  0  0  0  0  0  0  0  0  0  0
    3.9005    0.9149   -0.6995 C   0  0  0  0  0  0  0  0  0  0  0  0
    3.0179   -1.0978    1.9576 C   0  0  1  0  0  0  0  0  0  0  0  0
    3.4193   -2.3581    2.7210 C   0  0  0  0  0  0  0  0  0  0  0  0
    2.8967   -1.4330    0.4757 C   0  0  0  0  0  0  0  0  0  0  0  0
    2.1039   -0.3312    4.8902 H   0  0  0  0  0  0  0  0  0  0  0  0
    1.0771    1.0410    4.3664 H   0  0  0  0  0  0  0  0  0  0  0  0
    2.7861    1.0079    3.9098 H   0  0  0  0  0  0  0  0  0  0  0  0
    4.6039    0.3482   -1.3029 H   0  0  0  0  0  0  0  0  0  0  0  0
    4.3164    1.1366    0.2785 H   0  0  0  0  0  0  0  0  0  0  0  0
    3.6352    1.8444   -1.1972 H   0  0  0  0  0  0  0  0  0  0  0  0
    3.7876   -0.3426    2.1460 H   0  0  0  0  0  0  0  0  0  0  0  0
    3.8486   -1.7892    0.0782 H   0  0  0  0  0  0  0  0  0  0  0  0
    2.1395   -2.2070    0.3349 H   0  0  0  0  0  0  0  0  0  0  0  0
  1  3  1  0  0  0  0
  1  4  1  0  0  0  0
  2  1  1  0  0  0  0
  4  9  1  1  0  0  0
  5 10  1  1  0  0  0
  5 13  1  0  0  0  0
  5  1  1  0  0  0  0
  6 12  1  0  0  0  0
  8 12  1  0  0  0  0
  9 15  1  0  0  0  0
  9 14  1  0  0  0  0
 10 18  1  0  0  0  0
 11 20  1  1  0  0  0
 11  4  1  0  0  0  0
 11 12  1  0  0  0  0
 12  7  1  0  0  0  0
 13 11  1  0  0  0  0
 16  9  1  0  0  0  0
 17 10  1  0  0  0  0
 19 10  1  0  0  0  0
 21 13  1  0  0  0  0
 22 13  1  0  0  0  0
M  END
$$$$
