CSD_code = DEPKUF | q = 0 | S = 0 | Stoichiometry = C25H25Cl2N3Ni | MND = 5
 OpenBabel04212202023D

 56 61  0  0  0  0  0  0  0  0999 V2000
    7.5979    3.2757   11.7010 Ni  0  0  0  0  0  0  0  0  0  0  0  0
    8.0133    3.2195   13.6759 Cl  0  0  0  0  0  0  0  0  0  0  0  0
    9.2976    4.5526   11.1958 Cl  0  0  0  0  0  0  0  0  0  0  0  0
    7.1396    3.2497    9.9257 N   0  0  0  0  0  0  0  0  0  0  0  0
    8.4332    1.2910   11.1242 N   0  0  0  0  0  0  0  0  0  0  0  0
    5.9821    4.7639   11.6165 N   0  0  0  0  0  0  0  0  0  0  0  0
    6.3917    4.2251    9.3981 C   0  0  0  0  0  0  0  0  0  0  0  0
    6.2082    4.3207    8.0072 C   0  0  0  0  0  0  0  0  0  0  0  0
    5.6076    5.1250    7.6112 H   0  0  0  0  0  0  0  0  0  0  0  0
    6.8042    3.4052    7.1766 C   0  0  0  0  0  0  0  0  0  0  0  0
    6.6944    3.4766    6.1047 H   0  0  0  0  0  0  0  0  0  0  0  0
    7.5724    2.3593    7.7283 C   0  0  0  0  0  0  0  0  0  0  0  0
    8.2478    1.3607    6.9729 C   0  0  0  0  0  0  0  0  0  0  0  0
    8.1634    1.3929    5.8965 H   0  0  0  0  0  0  0  0  0  0  0  0
    8.9922    0.3986    7.5782 C   0  0  0  0  0  0  0  0  0  0  0  0
    9.5112   -0.3439    6.9896 H   0  0  0  0  0  0  0  0  0  0  0  0
    9.1074    0.3286    8.9968 C   0  0  0  0  0  0  0  0  0  0  0  0
    9.8510   -0.6404    9.6910 C   0  0  0  0  0  0  0  0  0  0  0  0
   10.3947   -1.3953    9.1413 H   0  0  0  0  0  0  0  0  0  0  0  0
    9.8747   -0.6039   11.0653 C   0  0  0  0  0  0  0  0  0  0  0  0
   10.4422   -1.3276   11.6288 H   0  0  0  0  0  0  0  0  0  0  0  0
    9.1468    0.3798   11.7469 C   0  0  0  0  0  0  0  0  0  0  0  0
    9.1436    0.4250   12.8279 H   0  0  0  0  0  0  0  0  0  0  0  0
    8.4269    1.2854    9.7747 C   0  0  0  0  0  0  0  0  0  0  0  0
    7.6863    2.3225    9.1312 C   0  0  0  0  0  0  0  0  0  0  0  0
    5.8463    5.1211   10.3865 C   0  0  0  0  0  3  0  0  0  0  0  0
    5.3366    6.0335   10.0810 H   0  0  0  0  0  0  0  0  0  0  0  0
    5.5826    5.5415   12.6911 C   0  0  0  0  0  0  0  0  0  0  0  0
    4.7991    4.8994   13.6720 C   0  0  0  0  0  0  0  0  0  0  0  0
    4.3573    5.6374   14.7547 C   0  0  0  0  0  0  0  0  0  0  0  0
    3.7356    5.1761   15.5047 H   0  0  0  0  0  0  0  0  0  0  0  0
    4.7124    6.9685   14.8927 C   0  0  0  0  0  0  0  0  0  0  0  0
    4.3560    7.5354   15.7403 H   0  0  0  0  0  0  0  0  0  0  0  0
    5.5444    7.5654   13.9658 C   0  0  0  0  0  0  0  0  0  0  0  0
    5.8477    8.5909   14.1122 H   0  0  0  0  0  0  0  0  0  0  0  0
    6.0003    6.8748   12.8519 C   0  0  0  0  0  0  0  0  0  0  0  0
    4.4220    3.4522   13.4723 C   0  0  0  0  0  0  0  0  0  0  0  0
    5.2482    2.9704   12.9231 H   0  0  0  0  0  0  0  0  0  0  0  0
    4.2437    2.6942   14.7845 C   0  0  0  0  0  0  0  0  0  0  0  0
    5.1138    2.8415   15.4189 H   0  0  0  0  0  0  0  0  0  0  0  0
    4.1442    1.6302   14.5803 H   0  0  0  0  0  0  0  0  0  0  0  0
    3.3517    3.0172   15.3167 H   0  0  0  0  0  0  0  0  0  0  0  0
    3.1572    3.3574   12.6131 C   0  0  0  0  0  0  0  0  0  0  0  0
    3.3039    3.8440   11.6504 H   0  0  0  0  0  0  0  0  0  0  0  0
    2.3227    3.8406   13.1184 H   0  0  0  0  0  0  0  0  0  0  0  0
    2.8977    2.3157   12.4365 H   0  0  0  0  0  0  0  0  0  0  0  0
    7.0074    7.5242   11.9327 C   0  0  0  0  0  0  0  0  0  0  0  0
    7.3143    6.8160   11.1579 H   0  0  0  0  0  0  0  0  0  0  0  0
    6.4185    8.7613   11.2508 C   0  0  0  0  0  0  0  0  0  0  0  0
    7.1376    9.1750   10.5474 H   0  0  0  0  0  0  0  0  0  0  0  0
    6.1761    9.5282   11.9825 H   0  0  0  0  0  0  0  0  0  0  0  0
    5.5075    8.5124   10.7080 H   0  0  0  0  0  0  0  0  0  0  0  0
    8.2738    7.8750   12.7176 C   0  0  0  0  0  0  0  0  0  0  0  0
    8.6900    6.9727   13.1580 H   0  0  0  0  0  0  0  0  0  0  0  0
    8.0704    8.5917   13.5093 H   0  0  0  0  0  0  0  0  0  0  0  0
    9.0170    8.2971   12.0456 H   0  0  0  0  0  0  0  0  0  0  0  0
  1  2  1  0  0  0  0
  3  1  1  0  0  0  0
  4  1  1  0  0  0  0
  5  1  1  0  0  0  0
  5 22  1  0  0  0  0
  6  1  1  0  0  0  0
  6 28  1  0  0  0  0
  7  4  1  0  0  0  0
  7 26  1  0  0  0  0
  8  7  2  0  0  0  0
  9  8  1  0  0  0  0
 10 12  2  0  0  0  0
 10  8  1  0  0  0  0
 11 10  1  0  0  0  0
 12 25  1  0  0  0  0
 13 15  2  0  0  0  0
 13 12  1  0  0  0  0
 14 13  1  0  0  0  0
 15 17  1  0  0  0  0
 16 15  1  0  0  0  0
 17 18  2  0  0  0  0
 17 24  1  0  0  0  0
 18 20  1  0  0  0  0
 19 18  1  0  0  0  0
 20 21  1  0  0  0  0
 20 22  2  0  0  0  0
 22 23  1  0  0  0  0
 24  5  1  0  0  0  0
 25 24  2  0  0  0  0
 25  4  1  0  0  0  0
 26  6  1  0  0  0  0
 27 26  1  0  0  0  0
 28 36  2  0  0  0  0
 28 29  1  0  0  0  0
 29 30  2  0  0  0  0
 30 32  1  0  0  0  0
 30 31  1  0  0  0  0
 32 33  1  0  0  0  0
 34 35  1  0  0  0  0
 34 32  2  0  0  0  0
 36 34  1  0  0  0  0
 37 29  1  0  0  0  0
 37 39  1  0  0  0  0
 38 37  1  0  0  0  0
 39 42  1  0  0  0  0
 39 40  1  0  0  0  0
 41 39  1  0  0  0  0
 43 45  1  0  0  0  0
 43 37  1  0  0  0  0
 44 43  1  0  0  0  0
 46 43  1  0  0  0  0
 47 53  1  0  0  0  0
 47 36  1  0  0  0  0
 48 47  1  0  0  0  0
 49 47  1  0  0  0  0
 49 51  1  0  0  0  0
 50 49  1  0  0  0  0
 52 49  1  0  0  0  0
 53 54  1  0  0  0  0
 53 55  1  0  0  0  0
 56 53  1  0  0  0  0
M  END
$$$$
