CSD_code = DEPLEQ | q = 0 | S = 0 | Stoichiometry = C24H23Br2N3Ni | MND = 5
 OpenBabel04212202023D

 53 58  0  0  1  0  0  0  0  0999 V2000
    0.8041    3.4953    2.1925 Ni  0  0  0  0  0  0  0  0  0  0  0  0
    2.5524    2.2885    2.8405 N   0  0  0  0  0  0  0  0  0  0  0  0
    1.0027    2.4403    0.7169 N   0  0  0  0  0  0  0  0  0  0  0  0
   -0.2411    4.6334    0.6920 N   0  0  0  0  0  0  0  0  0  0  0  0
   -0.8486    2.0312    3.0612 Br  0  0  0  0  0  0  0  0  0  0  0  0
    0.8140    4.9257    3.8479 Br  0  0  0  0  0  0  0  0  0  0  0  0
    3.2475    2.2010    3.9529 C   0  0  0  0  0  0  0  0  0  0  0  0
    3.1532    3.0262    4.6469 H   0  0  0  0  0  0  0  0  0  0  0  0
    4.0705    1.1055    4.2407 C   0  0  0  0  0  0  0  0  0  0  0  0
    4.6165    1.0869    5.1704 H   0  0  0  0  0  0  0  0  0  0  0  0
    4.1780    0.0757    3.3360 C   0  0  0  0  0  0  0  0  0  0  0  0
    4.8146   -0.7756    3.5294 H   0  0  0  0  0  0  0  0  0  0  0  0
    3.4393    0.1371    2.1427 C   0  0  0  0  0  0  0  0  0  0  0  0
    3.4677   -0.8520    1.1179 C   0  0  0  0  0  0  0  0  0  0  0  0
    4.0986   -1.7163    1.2646 H   0  0  0  0  0  0  0  0  0  0  0  0
    2.7355   -0.7180   -0.0185 C   0  0  0  0  0  0  0  0  0  0  0  0
    2.7775   -1.4710   -0.7916 H   0  0  0  0  0  0  0  0  0  0  0  0
    1.8832    0.4026   -0.2222 C   0  0  0  0  0  0  0  0  0  0  0  0
    1.0765    0.6080   -1.3584 C   0  0  0  0  0  0  0  0  0  0  0  0
    1.0815   -0.1213   -2.1546 H   0  0  0  0  0  0  0  0  0  0  0  0
    0.2950    1.7339   -1.4439 C   0  0  0  0  0  0  0  0  0  0  0  0
   -0.3162    1.9120   -2.3140 H   0  0  0  0  0  0  0  0  0  0  0  0
    0.2749    2.6554   -0.3835 C   0  0  0  0  0  0  0  0  0  0  0  0
    1.8180    1.3802    0.7877 C   0  0  0  0  0  0  0  0  0  0  0  0
    2.6245    1.2702    1.9583 C   0  0  0  0  0  0  0  0  0  0  0  0
   -0.4915    3.8928   -0.3331 C   0  0  2  0  0  3  0  0  0  0  0  0
   -1.4450    4.2467   -1.4269 C   0  0  0  0  0  0  0  0  0  0  0  0
   -1.8380    5.2491   -1.2725 H   0  0  0  0  0  0  0  0  0  0  0  0
   -2.2728    3.5386   -1.4462 H   0  0  0  0  0  0  0  0  0  0  0  0
   -0.9384    4.2070   -2.3905 H   0  0  0  0  0  0  0  0  0  0  0  0
   -0.8555    5.8635    0.9481 C   0  0  0  0  0  0  0  0  0  0  0  0
   -2.1857    5.9574    1.3755 C   0  0  0  0  0  0  0  0  0  0  0  0
   -2.6779    7.2170    1.6906 C   0  0  0  0  0  0  0  0  0  0  0  0
   -3.6918    7.3073    2.0492 H   0  0  0  0  0  0  0  0  0  0  0  0
   -1.8906    8.3444    1.5721 C   0  0  0  0  0  0  0  0  0  0  0  0
   -2.2973    9.3140    1.8174 H   0  0  0  0  0  0  0  0  0  0  0  0
   -0.5706    8.2348    1.1676 C   0  0  0  0  0  0  0  0  0  0  0  0
    0.0381    9.1215    1.1035 H   0  0  0  0  0  0  0  0  0  0  0  0
   -0.0279    6.9986    0.8703 C   0  0  0  0  0  0  0  0  0  0  0  0
   -3.0498    4.7445    1.5877 C   0  0  0  0  0  0  0  0  0  0  0  0
   -3.2811    4.6762    2.6540 H   0  0  0  0  0  0  0  0  0  0  0  0
   -2.5127    3.8331    1.3252 H   0  0  0  0  0  0  0  0  0  0  0  0
   -4.3582    4.7988    0.8003 C   0  0  0  0  0  0  0  0  0  0  0  0
   -4.9183    3.8804    0.9585 H   0  0  0  0  0  0  0  0  0  0  0  0
   -4.1708    4.9102   -0.2662 H   0  0  0  0  0  0  0  0  0  0  0  0
   -4.9753    5.6332    1.1227 H   0  0  0  0  0  0  0  0  0  0  0  0
    1.4062    6.7952    0.4607 C   0  0  0  0  0  0  0  0  0  0  0  0
    1.8118    5.9783    1.0752 H   0  0  0  0  0  0  0  0  0  0  0  0
    1.4361    6.4513   -0.5807 H   0  0  0  0  0  0  0  0  0  0  0  0
    2.3051    8.0130    0.6157 C   0  0  0  0  0  0  0  0  0  0  0  0
    3.3305    7.7455    0.3681 H   0  0  0  0  0  0  0  0  0  0  0  0
    2.2835    8.3705    1.6420 H   0  0  0  0  0  0  0  0  0  0  0  0
    1.9970    8.8170   -0.0494 H   0  0  0  0  0  0  0  0  0  0  0  0
  1  2  1  0  0  0  0
  1  5  1  0  0  0  0
  1  6  1  0  0  0  0
  2  7  1  0  0  0  0
  3 24  1  0  0  0  0
  3  1  1  0  0  0  0
  4 31  1  0  0  0  0
  4  1  1  0  0  0  0
  7  9  2  0  0  0  0
  7  8  1  0  0  0  0
  9 10  1  0  0  0  0
 11 12  1  0  0  0  0
 11  9  1  0  0  0  0
 13 11  2  0  0  0  0
 14 15  1  0  0  0  0
 14 13  1  0  0  0  0
 16 14  2  0  0  0  0
 17 16  1  0  0  0  0
 18 16  1  0  0  0  0
 18 24  1  0  0  0  0
 19 18  2  0  0  0  0
 20 19  1  0  0  0  0
 21 19  1  0  0  0  0
 21 23  2  0  0  0  0
 22 21  1  0  0  0  0
 23 26  1  0  0  0  0
 23  3  1  0  0  0  0
 24 25  2  0  0  0  0
 25 13  1  0  0  0  0
 25  2  1  0  0  0  0
 26 27  1  6  0  0  0
 26  4  1  0  0  0  0
 27 28  1  0  0  0  0
 29 27  1  0  0  0  0
 30 27  1  0  0  0  0
 31 32  1  0  0  0  0
 32 40  1  0  0  0  0
 32 33  2  0  0  0  0
 33 34  1  0  0  0  0
 35 33  1  0  0  0  0
 35 36  1  0  0  0  0
 37 35  2  0  0  0  0
 38 37  1  0  0  0  0
 39 31  2  0  0  0  0
 39 37  1  0  0  0  0
 40 41  1  0  0  0  0
 42 40  1  0  0  0  0
 43 44  1  0  0  0  0
 43 46  1  0  0  0  0
 43 40  1  0  0  0  0
 45 43  1  0  0  0  0
 47 50  1  0  0  0  0
 47 39  1  0  0  0  0
 47 48  1  0  0  0  0
 49 47  1  0  0  0  0
 50 52  1  0  0  0  0
 51 50  1  0  0  0  0
 53 50  1  0  0  0  0
M  END
$$$$
