CSD_code = DEPLAM | q = 0 | S = 0 | Stoichiometry = C22H19Cl2N3Ni | MND = 5
 OpenBabel04212202023D

 47 52  0  0  1  0  0  0  0  0999 V2000
    0.7447   12.8203    2.1577 Ni  0  0  0  0  0  0  0  0  0  0  0  0
   -0.8839   11.4304    2.7476 Cl  0  0  0  0  0  0  0  0  0  0  0  0
    0.5837   14.0358    3.7624 Cl  0  0  0  0  0  0  0  0  0  0  0  0
   -0.2048   14.0251    0.6357 N   0  0  0  0  0  0  0  0  0  0  0  0
    0.9907   11.8047    0.6774 N   0  0  0  0  0  0  0  0  0  0  0  0
    2.4300   11.5828    2.8687 N   0  0  0  0  0  0  0  0  0  0  0  0
   -3.0653   14.1308    1.2627 C   0  0  0  0  0  0  0  0  0  0  0  0
   -3.8918   14.3104    1.9459 H   0  0  0  0  0  0  0  0  0  0  0  0
   -2.5037   13.2699    1.6246 H   0  0  0  0  0  0  0  0  0  0  0  0
   -3.4850   13.8842    0.2866 H   0  0  0  0  0  0  0  0  0  0  0  0
   -2.1912   15.3450    1.1925 C   0  0  0  0  0  0  0  0  0  0  0  0
   -2.7063   16.5989    1.4898 C   0  0  0  0  0  0  0  0  0  0  0  0
   -3.7585   16.6891    1.7172 H   0  0  0  0  0  0  0  0  0  0  0  0
   -1.8989   17.7208    1.5139 C   0  0  0  0  0  0  0  0  0  0  0  0
   -2.3238   18.6865    1.7433 H   0  0  0  0  0  0  0  0  0  0  0  0
   -0.5396   17.6005    1.2793 C   0  0  0  0  0  0  0  0  0  0  0  0
    0.0987   18.4701    1.3348 H   0  0  0  0  0  0  0  0  0  0  0  0
    0.0175   16.3678    0.9916 C   0  0  0  0  0  0  0  0  0  0  0  0
   -0.8224   15.2457    0.9052 C   0  0  0  0  0  0  0  0  0  0  0  0
    1.4869   16.1920    0.7734 C   0  0  0  0  0  0  0  0  0  0  0  0
    2.0284   17.0957    1.0389 H   0  0  0  0  0  0  0  0  0  0  0  0
    1.7050   15.9431   -0.2662 H   0  0  0  0  0  0  0  0  0  0  0  0
    1.8430   15.3656    1.3976 H   0  0  0  0  0  0  0  0  0  0  0  0
   -0.4364   13.2997   -0.4047 C   0  0  1  0  0  3  0  0  0  0  0  0
   -1.3357   13.6844   -1.5348 C   0  0  0  0  0  0  0  0  0  0  0  0
   -1.7032   14.6986   -1.3980 H   0  0  0  0  0  0  0  0  0  0  0  0
   -2.1828   13.0018   -1.5904 H   0  0  0  0  0  0  0  0  0  0  0  0
   -0.7916   13.6281   -2.4769 H   0  0  0  0  0  0  0  0  0  0  0  0
    0.3045   12.0449   -0.4444 C   0  0  0  0  0  0  0  0  0  0  0  0
    0.3296   11.1235   -1.5050 C   0  0  0  0  0  0  0  0  0  0  0  0
   -0.2438   11.3213   -2.3966 H   0  0  0  0  0  0  0  0  0  0  0  0
    1.0657    9.9688   -1.3949 C   0  0  0  0  0  0  0  0  0  0  0  0
    1.0722    9.2410   -2.1926 H   0  0  0  0  0  0  0  0  0  0  0  0
    1.8184    9.7294   -0.2286 C   0  0  0  0  0  0  0  0  0  0  0  0
    2.6106    8.5715    0.0103 C   0  0  0  0  0  0  0  0  0  0  0  0
    2.6539    7.8164   -0.7608 H   0  0  0  0  0  0  0  0  0  0  0  0
    3.2830    8.4044    1.1790 C   0  0  0  0  0  0  0  0  0  0  0  0
    3.8661    7.5118    1.3524 H   0  0  0  0  0  0  0  0  0  0  0  0
    3.2502    9.3923    2.2057 C   0  0  0  0  0  0  0  0  0  0  0  0
    3.9221    9.2912    3.4354 C   0  0  0  0  0  0  0  0  0  0  0  0
    4.5085    8.4109    3.6564 H   0  0  0  0  0  0  0  0  0  0  0  0
    3.8127   10.3206    4.3406 C   0  0  0  0  0  0  0  0  0  0  0  0
    4.3076   10.2709    5.2977 H   0  0  0  0  0  0  0  0  0  0  0  0
    3.0582   11.4553    4.0164 C   0  0  0  0  0  0  0  0  0  0  0  0
    2.9653   12.2821    4.7081 H   0  0  0  0  0  0  0  0  0  0  0  0
    2.5004   10.5638    1.9859 C   0  0  0  0  0  0  0  0  0  0  0  0
    1.7557   10.7102    0.7781 C   0  0  0  0  0  0  0  0  0  0  0  0
  1  2  1  0  0  0  0
  1  6  1  0  0  0  0
  1  3  1  0  0  0  0
  4 19  1  0  0  0  0
  4  1  1  0  0  0  0
  5 47  1  0  0  0  0
  5  1  1  0  0  0  0
  6 44  1  0  0  0  0
  7  9  1  0  0  0  0
  7  8  1  0  0  0  0
 10  7  1  0  0  0  0
 11  7  1  0  0  0  0
 11 12  1  0  0  0  0
 12 14  2  0  0  0  0
 12 13  1  0  0  0  0
 14 15  1  0  0  0  0
 16 17  1  0  0  0  0
 16 14  1  0  0  0  0
 18 16  2  0  0  0  0
 19 18  1  0  0  0  0
 19 11  2  0  0  0  0
 20 18  1  0  0  0  0
 20 21  1  0  0  0  0
 20 23  1  0  0  0  0
 22 20  1  0  0  0  0
 24 25  1  6  0  0  0
 24  4  1  0  0  0  0
 25 26  1  0  0  0  0
 27 25  1  0  0  0  0
 28 25  1  0  0  0  0
 29 24  1  0  0  0  0
 29  5  1  0  0  0  0
 30 32  1  0  0  0  0
 30 29  2  0  0  0  0
 31 30  1  0  0  0  0
 32 34  2  0  0  0  0
 33 32  1  0  0  0  0
 34 35  1  0  0  0  0
 34 47  1  0  0  0  0
 35 37  2  0  0  0  0
 36 35  1  0  0  0  0
 37 38  1  0  0  0  0
 37 39  1  0  0  0  0
 39 40  2  0  0  0  0
 40 41  1  0  0  0  0
 40 42  1  0  0  0  0
 42 43  1  0  0  0  0
 44 42  2  0  0  0  0
 44 45  1  0  0  0  0
 46 39  1  0  0  0  0
 46  6  1  0  0  0  0
 47 46  2  0  0  0  0
M  END
$$$$
