CSD_code = DEQROH | q = 0 | S = 0 | Stoichiometry = C27H21Cl2NO2PRe | MND = 6
 OpenBabel04212202023D

 55 60  0  0  1  0  0  0  0  0999 V2000
    4.9612   -2.1403   15.6588 Re  0  0  0  0  0  0  0  0  0  0  0  0
    4.6195   -3.5631   17.4286 Cl  0  0  0  0  0  0  0  0  0  0  0  0
    5.0651   -3.9332   14.2731 Cl  0  0  0  0  0  0  0  0  0  0  0  0
    6.1007   -0.9407   13.8325 P   0  0  0  0  0  4  0  0  0  0  0  0
    6.9675   -2.2633   16.1211 O   0  0  0  0  0  0  0  0  0  0  0  0
    3.4416   -1.5301   15.3794 O   0  0  0  0  0  1  0  0  0  0  0  0
    5.2779   -0.6187   17.1794 N   0  0  0  0  0  0  0  0  0  0  0  0
    4.3689    0.1853   17.6850 C   0  0  0  0  0  0  0  0  0  0  0  0
    3.3761    0.1115   17.2643 H   0  0  0  0  0  0  0  0  0  0  0  0
    4.6733    1.0877   18.7116 C   0  0  0  0  0  0  0  0  0  0  0  0
    3.8903    1.7212   19.0970 H   0  0  0  0  0  0  0  0  0  0  0  0
    5.9489    1.1541   19.2098 C   0  0  0  0  0  0  0  0  0  0  0  0
    6.2052    1.8439   20.0003 H   0  0  0  0  0  0  0  0  0  0  0  0
    6.9433    0.3011   18.6863 C   0  0  0  0  0  0  0  0  0  0  0  0
    6.5323   -0.5862   17.6647 C   0  0  2  0  0  3  0  0  0  0  0  0
    7.4464   -1.5055   17.0618 C   0  0  0  0  0  0  0  0  0  0  0  0
    8.7627   -1.5015   17.5030 C   0  0  0  0  0  0  0  0  0  0  0  0
    9.4694   -2.1887   17.0649 H   0  0  0  0  0  0  0  0  0  0  0  0
    9.1577   -0.6243   18.5116 C   0  0  0  0  0  0  0  0  0  0  0  0
   10.1868   -0.6496   18.8391 H   0  0  0  0  0  0  0  0  0  0  0  0
    8.2861    0.2619   19.0979 C   0  0  0  0  0  0  0  0  0  0  0  0
    8.6162    0.9280   19.8796 H   0  0  0  0  0  0  0  0  0  0  0  0
    7.1617    0.3513   14.5338 C   0  0  0  0  0  0  0  0  0  0  0  0
    6.5267    1.4077   15.1861 C   0  0  0  0  0  0  0  0  0  0  0  0
    5.4459    1.4682   15.1599 H   0  0  0  0  0  0  0  0  0  0  0  0
    7.2722    2.3534   15.8614 C   0  0  0  0  0  0  0  0  0  0  0  0
    6.7774    3.1684   16.3687 H   0  0  0  0  0  0  0  0  0  0  0  0
    8.6546    2.2473   15.8978 C   0  0  0  0  0  0  0  0  0  0  0  0
    9.2368    2.9791   16.4371 H   0  0  0  0  0  0  0  0  0  0  0  0
    9.2883    1.2040   15.2452 C   0  0  0  0  0  0  0  0  0  0  0  0
   10.3647    1.1242   15.2726 H   0  0  0  0  0  0  0  0  0  0  0  0
    8.5470    0.2538   14.5638 C   0  0  0  0  0  0  0  0  0  0  0  0
    9.0399   -0.5658   14.0605 H   0  0  0  0  0  0  0  0  0  0  0  0
    4.9702   -0.0580   12.7214 C   0  0  0  0  0  0  0  0  0  0  0  0
    5.3223    1.1465   12.1191 C   0  0  0  0  0  0  0  0  0  0  0  0
    6.2851    1.5933   12.3269 H   0  0  0  0  0  0  0  0  0  0  0  0
    4.4361    1.7664   11.2566 C   0  0  0  0  0  0  0  0  0  0  0  0
    4.7073    2.7028   10.7915 H   0  0  0  0  0  0  0  0  0  0  0  0
    3.2053    1.1881   10.9889 C   0  0  0  0  0  0  0  0  0  0  0  0
    2.5174    1.6776   10.3157 H   0  0  0  0  0  0  0  0  0  0  0  0
    2.8553   -0.0128   11.5859 C   0  0  0  0  0  0  0  0  0  0  0  0
    1.8952   -0.4604   11.3790 H   0  0  0  0  0  0  0  0  0  0  0  0
    3.7335   -0.6371   12.4531 C   0  0  0  0  0  0  0  0  0  0  0  0
    3.4679   -1.5669   12.9407 H   0  0  0  0  0  0  0  0  0  0  0  0
    7.1574   -1.9221   12.7320 C   0  0  0  0  0  0  0  0  0  0  0  0
    7.1143   -1.7392   11.3532 C   0  0  0  0  0  0  0  0  0  0  0  0
    6.4415   -1.0122   10.9222 H   0  0  0  0  0  0  0  0  0  0  0  0
    7.9292   -2.4981   10.5320 C   0  0  0  0  0  0  0  0  0  0  0  0
    7.8904   -2.3549    9.4623 H   0  0  0  0  0  0  0  0  0  0  0  0
    8.7830   -3.4431   11.0754 C   0  0  0  0  0  0  0  0  0  0  0  0
    9.4117   -4.0378   10.4294 H   0  0  0  0  0  0  0  0  0  0  0  0
    8.8213   -3.6335   12.4474 C   0  0  0  0  0  0  0  0  0  0  0  0
    9.4769   -4.3790   12.8722 H   0  0  0  0  0  0  0  0  0  0  0  0
    8.0117   -2.8797   13.2758 C   0  0  0  0  0  0  0  0  0  0  0  0
    8.0218   -3.0442   14.3435 H   0  0  0  0  0  0  0  0  0  0  0  0
  1  5  1  0  0  0  0
  1  7  1  0  0  0  0
  1  2  1  0  0  0  0
  3  1  1  0  0  0  0
  4 23  1  0  0  0  0
  4  1  1  0  0  0  0
  5 16  1  0  0  0  0
  6  1  1  0  0  0  0
  7 15  1  0  0  0  0
  7  8  1  0  0  0  0
  8 10  2  0  0  0  0
  9  8  1  0  0  0  0
 10 11  1  0  0  0  0
 10 12  1  0  0  0  0
 12 13  1  0  0  0  0
 14 21  1  0  0  0  0
 14 12  2  0  0  0  0
 15 16  1  6  0  0  0
 15 14  1  0  0  0  0
 16 17  2  0  0  0  0
 17 19  1  0  0  0  0
 18 17  1  0  0  0  0
 19 20  1  0  0  0  0
 19 21  2  0  0  0  0
 21 22  1  0  0  0  0
 23 32  2  0  0  0  0
 23 24  1  0  0  0  0
 24 26  2  0  0  0  0
 25 24  1  0  0  0  0
 26 28  1  0  0  0  0
 26 27  1  0  0  0  0
 28 29  1  0  0  0  0
 30 31  1  0  0  0  0
 30 28  2  0  0  0  0
 32 30  1  0  0  0  0
 33 32  1  0  0  0  0
 34  4  1  0  0  0  0
 35 36  1  0  0  0  0
 35 34  2  0  0  0  0
 37 35  1  0  0  0  0
 38 37  1  0  0  0  0
 39 37  2  0  0  0  0
 39 41  1  0  0  0  0
 40 39  1  0  0  0  0
 41 43  2  0  0  0  0
 42 41  1  0  0  0  0
 43 34  1  0  0  0  0
 43 44  1  0  0  0  0
 45 54  1  0  0  0  0
 45  4  1  0  0  0  0
 46 45  2  0  0  0  0
 47 46  1  0  0  0  0
 48 50  2  0  0  0  0
 48 46  1  0  0  0  0
 49 48  1  0  0  0  0
 50 52  1  0  0  0  0
 51 50  1  0  0  0  0
 52 53  1  0  0  0  0
 52 54  2  0  0  0  0
 54 55  1  0  0  0  0
M  END
$$$$
