CSD_code = DEQRUN | q = 0 | S = 0 | Stoichiometry = C25H23Cl2NO2PRe | MND = 6
 OpenBabel04212202023D

 55 59  0  0  0  0  0  0  0  0999 V2000
    9.2675    2.3317   12.2322 Re  0  0  0  0  0  0  0  0  0  0  0  0
   11.4167    1.6275   12.9083 Cl  0  0  0  0  0  0  0  0  0  0  0  0
    9.0390    3.6954   14.0764 Cl  0  0  0  0  0  0  0  0  0  0  0  0
    6.8859    2.9243   11.6780 P   0  0  0  0  0  4  0  0  0  0  0  0
    9.8681    3.5171   11.2407 O   0  0  0  0  0  1  0  0  0  0  0  0
    8.5445    0.9028   13.0446 O   0  0  0  0  0  0  0  0  0  0  0  0
    9.4517    0.8422   10.4951 N   0  0  0  0  0  0  0  0  0  0  0  0
    9.4404    1.3340    9.2612 C   0  0  0  0  0  3  0  0  0  0  0  0
    9.4742    2.4128    9.1904 H   0  0  0  0  0  0  0  0  0  0  0  0
    9.4030    0.5343    8.1363 C   0  0  0  0  0  0  0  0  0  0  0  0
    9.4099    0.9789    7.1550 H   0  0  0  0  0  0  0  0  0  0  0  0
    9.3521   -0.8408    8.3091 C   0  0  0  0  0  0  0  0  0  0  0  0
    9.3056   -1.5044    7.4588 H   0  0  0  0  0  0  0  0  0  0  0  0
    9.3786   -1.3474    9.5947 C   0  0  0  0  0  0  0  0  0  0  0  0
    9.3609   -2.4125    9.7675 H   0  0  0  0  0  0  0  0  0  0  0  0
    9.4523   -0.4803   10.6834 C   0  0  0  0  0  0  0  0  0  0  0  0
    9.5806   -1.0110   12.0770 C   0  0  0  0  0  0  0  0  0  0  0  0
   10.5399   -0.6580   12.4760 H   0  0  0  0  0  0  0  0  0  0  0  0
    9.5560   -2.1002   12.0792 H   0  0  0  0  0  0  0  0  0  0  0  0
    8.4890   -0.4575   13.0219 C   0  0  0  0  0  0  0  0  0  0  0  0
    7.4876   -0.7877   12.6842 H   0  0  0  0  0  0  0  0  0  0  0  0
    8.6520   -0.8604   14.0340 H   0  0  0  0  0  0  0  0  0  0  0  0
    6.4977    4.6971   11.6228 C   0  0  0  0  0  0  0  0  0  0  0  0
    7.5380    5.6143   11.5161 C   0  0  0  0  0  0  0  0  0  0  0  0
    8.5602    5.2582   11.4806 H   0  0  0  0  0  0  0  0  0  0  0  0
    7.2560    6.9682   11.4683 C   0  0  0  0  0  0  0  0  0  0  0  0
    8.0624    7.6810   11.3901 H   0  0  0  0  0  0  0  0  0  0  0  0
    5.9433    7.4068   11.5288 C   0  0  0  0  0  0  0  0  0  0  0  0
    5.7249    8.4640   11.4972 H   0  0  0  0  0  0  0  0  0  0  0  0
    4.9070    6.4924   11.6377 C   0  0  0  0  0  0  0  0  0  0  0  0
    3.8847    6.8364   11.6904 H   0  0  0  0  0  0  0  0  0  0  0  0
    5.1788    5.1378   11.6870 C   0  0  0  0  0  0  0  0  0  0  0  0
    4.3731    4.4230   11.7807 H   0  0  0  0  0  0  0  0  0  0  0  0
    5.6315    2.2375   12.7968 C   0  0  0  0  0  0  0  0  0  0  0  0
    5.8931    2.2864   14.1640 C   0  0  0  0  0  0  0  0  0  0  0  0
    6.8257    2.7119   14.5124 H   0  0  0  0  0  0  0  0  0  0  0  0
    4.9629    1.7936   15.0614 C   0  0  0  0  0  0  0  0  0  0  0  0
    5.1700    1.8299   16.1203 H   0  0  0  0  0  0  0  0  0  0  0  0
    3.7706    1.2558   14.6039 C   0  0  0  0  0  0  0  0  0  0  0  0
    3.0459    0.8689   15.3050 H   0  0  0  0  0  0  0  0  0  0  0  0
    3.5045    1.2169   13.2447 C   0  0  0  0  0  0  0  0  0  0  0  0
    2.5721    0.8050   12.8865 H   0  0  0  0  0  0  0  0  0  0  0  0
    4.4289    1.7060   12.3389 C   0  0  0  0  0  0  0  0  0  0  0  0
    4.2138    1.6752   11.2794 H   0  0  0  0  0  0  0  0  0  0  0  0
    6.4400    2.2981   10.0345 C   0  0  0  0  0  0  0  0  0  0  0  0
    6.2949    0.9219    9.8605 C   0  0  0  0  0  0  0  0  0  0  0  0
    6.3542    0.2686   10.7215 H   0  0  0  0  0  0  0  0  0  0  0  0
    6.0723    0.3962    8.6033 C   0  0  0  0  0  0  0  0  0  0  0  0
    5.9521   -0.6701    8.4776 H   0  0  0  0  0  0  0  0  0  0  0  0
    6.0084    1.2378    7.5032 C   0  0  0  0  0  0  0  0  0  0  0  0
    5.8369    0.8264    6.5198 H   0  0  0  0  0  0  0  0  0  0  0  0
    6.1666    2.6039    7.6667 C   0  0  0  0  0  0  0  0  0  0  0  0
    6.1200    3.2589    6.8095 H   0  0  0  0  0  0  0  0  0  0  0  0
    6.3859    3.1356    8.9254 C   0  0  0  0  0  0  0  0  0  0  0  0
    6.5140    4.2007    9.0553 H   0  0  0  0  0  0  0  0  0  0  0  0
  1  2  1  0  0  0  0
  1  6  1  0  0  0  0
  1  3  1  0  0  0  0
  4  1  1  0  0  0  0
  4 34  1  0  0  0  0
  5  1  1  0  0  0  0
  7 16  1  0  0  0  0
  7  1  1  0  0  0  0
  8  7  1  0  0  0  0
  9  8  1  0  0  0  0
 10 12  2  0  0  0  0
 10  8  1  0  0  0  0
 11 10  1  0  0  0  0
 12 14  1  0  0  0  0
 13 12  1  0  0  0  0
 14 15  1  0  0  0  0
 14 16  2  0  0  0  0
 16 17  1  0  0  0  0
 17 19  1  0  0  0  0
 17 18  1  0  0  0  0
 17 20  1  0  0  0  0
 20  6  1  0  0  0  0
 20 22  1  0  0  0  0
 21 20  1  0  0  0  0
 23  4  1  0  0  0  0
 23 32  1  0  0  0  0
 24 23  2  0  0  0  0
 25 24  1  0  0  0  0
 26 24  1  0  0  0  0
 26 28  2  0  0  0  0
 27 26  1  0  0  0  0
 28 30  1  0  0  0  0
 29 28  1  0  0  0  0
 30 32  2  0  0  0  0
 30 31  1  0  0  0  0
 32 33  1  0  0  0  0
 34 35  1  0  0  0  0
 35 36  1  0  0  0  0
 35 37  2  0  0  0  0
 37 38  1  0  0  0  0
 39 37  1  0  0  0  0
 39 40  1  0  0  0  0
 41 39  2  0  0  0  0
 42 41  1  0  0  0  0
 43 34  2  0  0  0  0
 43 41  1  0  0  0  0
 44 43  1  0  0  0  0
 45  4  1  0  0  0  0
 46 45  1  0  0  0  0
 46 47  1  0  0  0  0
 48 46  2  0  0  0  0
 49 48  1  0  0  0  0
 50 52  2  0  0  0  0
 50 48  1  0  0  0  0
 51 50  1  0  0  0  0
 52 54  1  0  0  0  0
 53 52  1  0  0  0  0
 54 55  1  0  0  0  0
 54 45  2  0  0  0  0
M  END
$$$$
