CSD_code = DERFAH | q = 0 | S = 0 | Stoichiometry = C3H9Cl3NSiV | MND = 4
 OpenBabel04212202023D

 18 17  0  0  0  0  0  0  0  0999 V2000
    7.5249    2.6045    3.3035 V   0  0  0  0  0  0  0  0  0  0  0  0
    6.6057    0.9351    3.9793 Cl  0  0  0  0  0  0  0  0  0  0  0  0
    7.6478    2.6015    1.2854 Cl  0  0  0  0  0  0  0  0  0  0  0  0
   10.6542    2.6032    4.5015 Si  0  0  0  0  0  0  0  0  0  0  0  0
    9.0239    2.6030    3.8827 N   0  0  0  0  0  2  0  0  0  0  0  0
   10.8278    1.0128    5.5484 C   0  0  0  0  0  0  0  0  0  0  0  0
   11.7996    2.6033    2.9704 C   0  0  0  0  0  0  0  0  0  0  0  0
   10.0916    0.9954    6.3476 H   0  0  0  0  0  0  0  0  0  0  0  0
   10.6713    0.1289    4.9358 H   0  0  0  0  0  0  0  0  0  0  0  0
   11.8131    0.9406    5.9974 H   0  0  0  0  0  0  0  0  0  0  0  0
   12.8454    2.6033    3.2590 H   0  0  0  0  0  0  0  0  0  0  0  0
   11.6199    3.4805    2.3549 H   0  0  0  0  0  0  0  0  0  0  0  0
    6.6051    4.2724    3.9818 Cl  0  0  0  0  0  0  0  0  0  0  0  0
   10.8278    4.1937    5.5484 C   0  0  0  0  0  0  0  0  0  0  0  0
   11.6199    1.7260    2.3549 H   0  0  0  0  0  0  0  0  0  0  0  0
   10.0915    4.2111    6.3476 H   0  0  0  0  0  0  0  0  0  0  0  0
   10.6713    5.0776    4.9358 H   0  0  0  0  0  0  0  0  0  0  0  0
   11.8131    4.2659    5.9974 H   0  0  0  0  0  0  0  0  0  0  0  0
  1  5  1  0  0  0  0
  1  2  1  0  0  0  0
  1 13  1  0  0  0  0
  3  1  1  0  0  0  0
  4  6  1  0  0  0  0
  4 14  1  0  0  0  0
  5  4  1  0  0  0  0
  6 10  1  0  0  0  0
  6  8  1  0  0  0  0
  7 11  1  0  0  0  0
  7  4  1  0  0  0  0
  9  6  1  0  0  0  0
 12  7  1  0  0  0  0
 14 18  1  0  0  0  0
 14 16  1  0  0  0  0
 15  7  1  0  0  0  0
 17 14  1  0  0  0  0
M  END
$$$$
