CSD_code = DESGEO | q = 0 | S = 0 | Stoichiometry = C26H32Cl2N4NiO2 | MND = 6
 OpenBabel04212202023D

 67 68  0  0  0  0  0  0  0  0999 V2000
    3.4257   -6.1634    6.1249 Ni  0  0  0  0  0  0  0  0  0  0  0  0
    1.5346   -6.7165    7.0122 Cl  0  0  0  0  0  0  0  0  0  0  0  0
    2.9450   -6.9647    3.8543 O   0  0  0  0  0  0  0  0  0  0  0  0
    3.8822   -6.9597    3.6164 H   0  0  0  0  0  0  0  0  0  0  0  0
    2.4802   -6.4306    3.2069 H   0  0  0  0  0  0  0  0  0  0  0  0
    2.6679   -4.3881    5.5957 N   0  0  0  0  0  4  0  0  0  0  0  0
    3.2716   -4.1097    4.8200 H   0  0  0  0  0  0  0  0  0  0  0  0
    1.7215   -4.6049    5.2800 H   0  0  0  0  0  0  0  0  0  0  0  0
    1.5477   -2.2846    8.4270 C   0  0  0  0  0  0  0  0  0  0  0  0
    0.6731   -2.1674    9.0511 H   0  0  0  0  0  0  0  0  0  0  0  0
    6.4521   -2.1323   13.7131 N   0  0  0  0  0  0  0  0  0  0  0  0
    7.3630   -1.7028   13.6860 H   0  0  0  0  0  0  0  0  0  0  0  0
    6.4641   -3.1131   13.9427 H   0  0  0  0  0  0  0  0  0  0  0  0
    2.6574   -3.3987    6.6130 C   0  0  0  0  0  0  0  0  0  0  0  0
    3.7769   -2.5983    6.8190 C   0  0  0  0  0  0  0  0  0  0  0  0
    4.6534   -2.7418    6.2052 H   0  0  0  0  0  0  0  0  0  0  0  0
    2.6609   -1.4843    8.6424 C   0  0  0  0  0  0  0  0  0  0  0  0
    1.5381   -3.2319    7.4199 C   0  0  0  0  0  0  0  0  0  0  0  0
    0.6743   -3.8644    7.2750 H   0  0  0  0  0  0  0  0  0  0  0  0
    3.7747   -1.6573    7.8272 C   0  0  0  0  0  0  0  0  0  0  0  0
    4.6509   -1.0481    7.9929 H   0  0  0  0  0  0  0  0  0  0  0  0
    3.7038   -0.9078   10.8026 C   0  0  0  0  0  0  0  0  0  0  0  0
    2.6995   -0.4803    9.7623 C   0  0  0  0  0  0  0  0  0  0  0  0
    2.9772    0.5011    9.3710 H   0  0  0  0  0  0  0  0  0  0  0  0
    1.7091   -0.3989   10.2173 H   0  0  0  0  0  0  0  0  0  0  0  0
    5.7365   -0.5421   12.0449 C   0  0  0  0  0  0  0  0  0  0  0  0
    6.5945    0.0759   12.2694 H   0  0  0  0  0  0  0  0  0  0  0  0
    3.5451   -2.1182   11.4672 C   0  0  0  0  0  0  0  0  0  0  0  0
    2.6921   -2.7406   11.2375 H   0  0  0  0  0  0  0  0  0  0  0  0
    4.4615   -2.5382   12.4083 C   0  0  0  0  0  0  0  0  0  0  0  0
    4.3236   -3.4812   12.9191 H   0  0  0  0  0  0  0  0  0  0  0  0
    5.5730   -1.7529   12.7151 C   0  0  0  0  0  0  0  0  0  0  0  0
    4.8136   -0.1316   11.1029 C   0  0  0  0  0  0  0  0  0  0  0  0
    4.9620    0.8113   10.5948 H   0  0  0  0  0  0  0  0  0  0  0  0
    5.3159   -5.6118    5.2358 Cl  0  0  0  0  0  0  0  0  0  0  0  0
    3.8972   -5.3628    8.3962 O   0  0  0  0  0  0  0  0  0  0  0  0
    2.9602   -5.3871    8.6345 H   0  0  0  0  0  0  0  0  0  0  0  0
    4.3746   -5.8825    9.0459 H   0  0  0  0  0  0  0  0  0  0  0  0
    4.1845   -7.9383    6.6551 N   0  0  0  0  0  4  0  0  0  0  0  0
    3.5808   -8.2167    7.4307 H   0  0  0  0  0  0  0  0  0  0  0  0
    5.1309   -7.7219    6.9710 H   0  0  0  0  0  0  0  0  0  0  0  0
    5.3029  -10.0419    3.8230 C   0  0  0  0  0  0  0  0  0  0  0  0
    6.1771  -10.1594    3.1983 H   0  0  0  0  0  0  0  0  0  0  0  0
    0.3953  -10.1997   -1.4602 N   0  0  0  0  0  0  0  0  0  0  0  0
   -0.5151  -10.6301   -1.4328 H   0  0  0  0  0  0  0  0  0  0  0  0
    0.3822   -9.2188   -1.6894 H   0  0  0  0  0  0  0  0  0  0  0  0
    4.1946   -8.9276    5.6376 C   0  0  0  0  0  0  0  0  0  0  0  0
    3.0746   -9.7275    5.4320 C   0  0  0  0  0  0  0  0  0  0  0  0
    2.1984   -9.5834    6.0461 H   0  0  0  0  0  0  0  0  0  0  0  0
    4.1896  -10.8423    3.6085 C   0  0  0  0  0  0  0  0  0  0  0  0
    5.3133   -9.0944    4.8299 C   0  0  0  0  0  0  0  0  0  0  0  0
    6.1774   -8.4621    4.9741 H   0  0  0  0  0  0  0  0  0  0  0  0
    3.0761  -10.6686    4.4240 C   0  0  0  0  0  0  0  0  0  0  0  0
    2.1996  -11.2775    4.2587 H   0  0  0  0  0  0  0  0  0  0  0  0
    3.1458  -11.4215    1.4493 C   0  0  0  0  0  0  0  0  0  0  0  0
    4.1505  -11.8476    2.4898 C   0  0  0  0  0  0  0  0  0  0  0  0
    3.8728  -12.8284    2.8826 H   0  0  0  0  0  0  0  0  0  0  0  0
    5.1407  -11.9299    2.0346 H   0  0  0  0  0  0  0  0  0  0  0  0
    1.1135  -11.7896    0.2071 C   0  0  0  0  0  0  0  0  0  0  0  0
    0.2563  -12.4087   -0.0174 H   0  0  0  0  0  0  0  0  0  0  0  0
    3.3031  -10.2110    0.7846 C   0  0  0  0  0  0  0  0  0  0  0  0
    4.1556   -9.5878    1.0139 H   0  0  0  0  0  0  0  0  0  0  0  0
    2.3862   -9.7920   -0.1564 C   0  0  0  0  0  0  0  0  0  0  0  0
    2.5230   -8.8489   -0.6672 H   0  0  0  0  0  0  0  0  0  0  0  0
    1.2753  -10.5785   -0.4629 C   0  0  0  0  0  0  0  0  0  0  0  0
    2.0370  -12.1991    1.1490 C   0  0  0  0  0  0  0  0  0  0  0  0
    1.8899  -13.1422    1.6569 H   0  0  0  0  0  0  0  0  0  0  0  0
  1 39  1  0  0  0  0
  1  2  1  0  0  0  0
  4  3  1  0  0  0  0
  5  3  1  0  0  0  0
  6  1  1  0  0  0  0
  6 14  1  0  0  0  0
  7  6  1  0  0  0  0
  8  6  1  0  0  0  0
  9 17  1  0  0  0  0
  9 10  1  0  0  0  0
 11 13  1  0  0  0  0
 12 11  1  0  0  0  0
 14 15  2  0  0  0  0
 14 18  1  0  0  0  0
 15 20  1  0  0  0  0
 16 15  1  0  0  0  0
 17 23  1  0  0  0  0
 18  9  2  0  0  0  0
 19 18  1  0  0  0  0
 20 21  1  0  0  0  0
 20 17  2  0  0  0  0
 22 33  2  0  0  0  0
 22 28  1  0  0  0  0
 23 25  1  0  0  0  0
 23 22  1  0  0  0  0
 24 23  1  0  0  0  0
 26 27  1  0  0  0  0
 26 32  2  0  0  0  0
 28 30  2  0  0  0  0
 29 28  1  0  0  0  0
 30 32  1  0  0  0  0
 30 31  1  0  0  0  0
 32 11  1  0  0  0  0
 33 26  1  0  0  0  0
 34 33  1  0  0  0  0
 35  1  1  0  0  0  0
 36 37  1  0  0  0  0
 36 38  1  0  0  0  0
 39 41  1  0  0  0  0
 39 40  1  0  0  0  0
 42 51  1  0  0  0  0
 43 42  1  0  0  0  0
 44 45  1  0  0  0  0
 44 65  1  0  0  0  0
 46 44  1  0  0  0  0
 47 39  1  0  0  0  0
 48 47  1  0  0  0  0
 48 49  1  0  0  0  0
 50 42  2  0  0  0  0
 50 53  1  0  0  0  0
 51 52  1  0  0  0  0
 51 47  2  0  0  0  0
 53 48  2  0  0  0  0
 54 53  1  0  0  0  0
 55 56  1  0  0  0  0
 56 57  1  0  0  0  0
 56 50  1  0  0  0  0
 58 56  1  0  0  0  0
 59 66  2  0  0  0  0
 60 59  1  0  0  0  0
 61 62  1  0  0  0  0
 61 55  2  0  0  0  0
 63 61  1  0  0  0  0
 64 63  1  0  0  0  0
 65 63  2  0  0  0  0
 65 59  1  0  0  0  0
 66 55  1  0  0  0  0
 66 67  1  0  0  0  0
M  END
$$$$
