CSD_code = DESVAZ | q = 0 | S = 0 | Stoichiometry = C13H23Cl2N3Ti | MND = 5
 OpenBabel04212202023D

 42 42  0  0  0  0  0  0  0  0999 V2000
  -10.9889    3.1696    5.8900 C   0  0  0  0  0  0  0  0  0  0  0  0
  -12.1865    3.9020    5.7141 C   0  0  0  0  0  0  0  0  0  0  0  0
  -13.1017    3.3345    5.5909 H   0  0  0  0  0  0  0  0  0  0  0  0
  -12.1969    5.2765    5.7043 C   0  0  0  0  0  0  0  0  0  0  0  0
  -13.1281    5.8055    5.5562 H   0  0  0  0  0  0  0  0  0  0  0  0
  -11.0184    5.9863    5.8899 C   0  0  0  0  0  0  0  0  0  0  0  0
  -11.0242    7.0659    5.8860 H   0  0  0  0  0  0  0  0  0  0  0  0
   -9.8330    5.2981    6.0831 C   0  0  0  0  0  0  0  0  0  0  0  0
   -8.9174    5.8570    6.2169 H   0  0  0  0  0  0  0  0  0  0  0  0
   -9.7808    3.9129    6.0726 C   0  0  0  0  0  0  0  0  0  0  0  0
   -8.5094    3.2004    6.2752 C   0  0  0  0  0  0  0  0  0  0  0  0
   -7.6141    3.7035    7.3748 C   0  0  0  0  0  0  0  0  0  0  0  0
   -6.8366    2.9786    7.6064 H   0  0  0  0  0  0  0  0  0  0  0  0
   -8.1888    3.9174    8.2743 H   0  0  0  0  0  0  0  0  0  0  0  0
   -7.1287    4.6288    7.0662 H   0  0  0  0  0  0  0  0  0  0  0  0
   -8.1621    2.1630    5.5126 C   0  0  0  0  0  0  0  0  0  0  0  0
   -7.2195    1.6508    5.6500 H   0  0  0  0  0  0  0  0  0  0  0  0
   -8.7689    1.8507    4.6720 H   0  0  0  0  0  0  0  0  0  0  0  0
  -11.7621    0.6905    3.0582 C   0  0  0  0  0  0  0  0  0  0  0  0
  -10.8133    0.2965    2.6819 H   0  0  0  0  0  0  0  0  0  0  0  0
  -11.6276    1.7416    3.3283 H   0  0  0  0  0  0  0  0  0  0  0  0
  -12.5169    0.6121    2.2629 H   0  0  0  0  0  0  0  0  0  0  0  0
  -12.4262   -1.4684    3.9186 C   0  0  0  0  0  0  0  0  0  0  0  0
  -13.1946   -1.5576    3.1381 H   0  0  0  0  0  0  0  0  0  0  0  0
  -12.7681   -1.9928    4.8146 H   0  0  0  0  0  0  0  0  0  0  0  0
  -11.5071   -1.9383    3.5594 H   0  0  0  0  0  0  0  0  0  0  0  0
   -9.8772    0.8469    8.6910 C   0  0  0  0  0  0  0  0  0  0  0  0
  -10.8273    0.4748    9.0838 H   0  0  0  0  0  0  0  0  0  0  0  0
  -10.0179    1.8777    8.3598 H   0  0  0  0  0  0  0  0  0  0  0  0
   -9.1239    0.8154    9.4908 H   0  0  0  0  0  0  0  0  0  0  0  0
   -9.2307   -1.3588    7.9616 C   0  0  0  0  0  0  0  0  0  0  0  0
   -8.4962   -1.4086    8.7778 H   0  0  0  0  0  0  0  0  0  0  0  0
   -8.8546   -1.9376    7.1143 H   0  0  0  0  0  0  0  0  0  0  0  0
  -10.1691   -1.8023    8.3073 H   0  0  0  0  0  0  0  0  0  0  0  0
  -11.0243    1.8464    5.9232 N   0  0  0  0  0  2  0  0  0  0  0  0
  -12.1557   -0.0686    4.2452 N   0  0  0  0  0  4  0  0  0  0  0  0
  -13.0186    0.3436    4.6196 H   0  0  0  0  0  0  0  0  0  0  0  0
   -9.4760    0.0238    7.5500 N   0  0  0  0  0  4  0  0  0  0  0  0
   -8.6030    0.4133    7.1717 H   0  0  0  0  0  0  0  0  0  0  0  0
   -9.2683   -0.9631    4.6826 Cl  0  0  0  0  0  0  0  0  0  0  0  0
  -12.4008   -0.7655    7.1674 Cl  0  0  0  0  0  0  0  0  0  0  0  0
  -10.7923    0.1706    5.8921 Ti  0  0  0  0  0  0  0  0  0  0  0  0
  1 35  1  0  0  0  0
  1 10  1  0  0  0  0
  2  1  2  0  0  0  0
  3  2  1  0  0  0  0
  4  2  1  0  0  0  0
  4  6  2  0  0  0  0
  5  4  1  0  0  0  0
  6  8  1  0  0  0  0
  7  6  1  0  0  0  0
  8  9  1  0  0  0  0
 10  8  2  0  0  0  0
 10 11  1  0  0  0  0
 11 12  1  0  0  0  0
 12 13  1  0  0  0  0
 12 14  1  0  0  0  0
 15 12  1  0  0  0  0
 16 17  1  0  0  0  0
 16 11  2  0  0  0  0
 18 16  1  0  0  0  0
 19 21  1  0  0  0  0
 19 36  1  0  0  0  0
 20 19  1  0  0  0  0
 22 19  1  0  0  0  0
 23 36  1  0  0  0  0
 23 25  1  0  0  0  0
 24 23  1  0  0  0  0
 26 23  1  0  0  0  0
 27 28  1  0  0  0  0
 27 30  1  0  0  0  0
 29 27  1  0  0  0  0
 31 34  1  0  0  0  0
 31 32  1  0  0  0  0
 33 31  1  0  0  0  0
 36 37  1  0  0  0  0
 36 42  1  0  0  0  0
 38 31  1  0  0  0  0
 38 27  1  0  0  0  0
 39 38  1  0  0  0  0
 40 42  1  0  0  0  0
 42 35  1  0  0  0  0
 42 41  1  0  0  0  0
 42 38  1  0  0  0  0
M  END
$$$$
