CSD_code = DESVIH | q = 0 | S = 0 | Stoichiometry = C12H23Cl2N3Ti | MND = 5
 OpenBabel04212202023D

 41 41  0  0  1  0  0  0  0  0999 V2000
    0.3181    3.6253    3.7172 C   0  0  1  0  0  0  0  0  0  0  0  0
    0.0491    2.5912    4.0087 H   0  0  0  0  0  0  0  0  0  0  0  0
    1.3059    4.1808    4.7692 C   0  0  0  0  0  0  0  0  0  0  0  0
    2.1152    3.4691    4.9249 H   0  0  0  0  0  0  0  0  0  0  0  0
    0.7967    4.3511    5.7151 H   0  0  0  0  0  0  0  0  0  0  0  0
    1.7281    5.1201    4.4080 H   0  0  0  0  0  0  0  0  0  0  0  0
   -0.9546    4.4539    3.6530 C   0  0  0  0  0  0  0  0  0  0  0  0
   -2.2041    3.8483    3.7183 C   0  0  0  0  0  0  0  0  0  0  0  0
   -2.2715    2.7849    3.9009 H   0  0  0  0  0  0  0  0  0  0  0  0
   -3.3613    4.5917    3.5540 C   0  0  0  0  0  0  0  0  0  0  0  0
   -4.3244    4.1055    3.6107 H   0  0  0  0  0  0  0  0  0  0  0  0
   -3.2860    5.9533    3.3197 C   0  0  0  0  0  0  0  0  0  0  0  0
   -4.1877    6.5344    3.1929 H   0  0  0  0  0  0  0  0  0  0  0  0
   -2.0452    6.5682    3.2551 C   0  0  0  0  0  0  0  0  0  0  0  0
   -1.9795    7.6339    3.0837 H   0  0  0  0  0  0  0  0  0  0  0  0
   -0.8877    5.8258    3.4172 C   0  0  0  0  0  0  0  0  0  0  0  0
    0.0775    6.3150    3.3718 H   0  0  0  0  0  0  0  0  0  0  0  0
   -1.2206    4.3012    0.0591 C   0  0  0  0  0  0  0  0  0  0  0  0
   -2.1392    4.7682   -0.3238 H   0  0  0  0  0  0  0  0  0  0  0  0
   -1.4400    3.7749    0.9909 H   0  0  0  0  0  0  0  0  0  0  0  0
   -0.8564    3.5771   -0.6745 H   0  0  0  0  0  0  0  0  0  0  0  0
    0.1269    6.0512   -0.9109 C   0  0  0  0  0  0  0  0  0  0  0  0
    0.5666    5.3740   -1.6498 H   0  0  0  0  0  0  0  0  0  0  0  0
    0.8409    6.8480   -0.6849 H   0  0  0  0  0  0  0  0  0  0  0  0
   -0.7782    6.5025   -1.3425 H   0  0  0  0  0  0  0  0  0  0  0  0
    3.8385    2.6476    1.9740 C   0  0  0  0  0  0  0  0  0  0  0  0
    3.6610    2.0769    1.0588 H   0  0  0  0  0  0  0  0  0  0  0  0
    3.1302    2.3085    2.7338 H   0  0  0  0  0  0  0  0  0  0  0  0
    4.8686    2.4675    2.3141 H   0  0  0  0  0  0  0  0  0  0  0  0
    4.5321    4.5668    0.6881 C   0  0  0  0  0  0  0  0  0  0  0  0
    5.5777    4.3758    0.9698 H   0  0  0  0  0  0  0  0  0  0  0  0
    4.3955    5.6441    0.5613 H   0  0  0  0  0  0  0  0  0  0  0  0
    4.3273    4.0651   -0.2621 H   0  0  0  0  0  0  0  0  0  0  0  0
    0.8877    3.6505    2.4270 N   0  0  0  0  0  2  0  0  0  0  0  0
   -0.1798    5.2988    0.3051 N   0  0  0  0  0  4  0  0  0  0  0  0
   -0.5358    5.9528    1.0124 H   0  0  0  0  0  0  0  0  0  0  0  0
    3.6046    4.0647    1.7006 N   0  0  0  0  0  4  0  0  0  0  0  0
    3.7583    4.5903    2.5691 H   0  0  0  0  0  0  0  0  0  0  0  0
    1.8319    3.2163   -0.6403 Cl  0  0  0  0  0  0  0  0  0  0  0  0
    2.1689    6.6863    1.6405 Cl  0  0  0  0  0  0  0  0  0  0  0  0
    1.5916    4.5414    1.1816 Ti  0  0  0  0  0  0  0  0  0  0  0  0
  1  2  1  1  0  0  0
  1  3  1  0  0  0  0
  3  4  1  0  0  0  0
  3  5  1  0  0  0  0
  6  3  1  0  0  0  0
  7  1  1  0  0  0  0
  7  8  1  0  0  0  0
  8  9  1  0  0  0  0
 10 11  1  0  0  0  0
 10  8  2  0  0  0  0
 12 10  1  0  0  0  0
 13 12  1  0  0  0  0
 14 12  2  0  0  0  0
 14 16  1  0  0  0  0
 15 14  1  0  0  0  0
 16  7  2  0  0  0  0
 17 16  1  0  0  0  0
 18 35  1  0  0  0  0
 18 20  1  0  0  0  0
 19 18  1  0  0  0  0
 21 18  1  0  0  0  0
 22 24  1  0  0  0  0
 22 35  1  0  0  0  0
 23 22  1  0  0  0  0
 25 22  1  0  0  0  0
 26 29  1  0  0  0  0
 26 28  1  0  0  0  0
 27 26  1  0  0  0  0
 30 31  1  0  0  0  0
 30 37  1  0  0  0  0
 32 30  1  0  0  0  0
 33 30  1  0  0  0  0
 34  1  1  0  0  0  0
 35 36  1  0  0  0  0
 35 41  1  0  0  0  0
 37 26  1  0  0  0  0
 37 38  1  0  0  0  0
 39 41  1  0  0  0  0
 41 40  1  0  0  0  0
 41 37  1  0  0  0  0
 41 34  1  0  0  0  0
M  END
$$$$
