CSD_code = DESWAA | q = 0 | S = 0 | Stoichiometry = C23H26Cl2N4Ti | MND = 6
 OpenBabel04212202023D

 56 59  0  0  0  0  0  0  0  0999 V2000
    0.2469    8.6288    4.4428 C   0  0  0  0  0  3  0  0  0  0  0  0
    0.1925    9.1434    3.4878 H   0  0  0  0  0  0  0  0  0  0  0  0
   -0.8949    8.1433    5.0576 C   0  0  0  0  0  0  0  0  0  0  0  0
   -1.8560    8.2720    4.5844 H   0  0  0  0  0  0  0  0  0  0  0  0
   -0.7801    7.4887    6.2760 C   0  0  0  0  0  0  0  0  0  0  0  0
   -1.6499    7.0896    6.7760 H   0  0  0  0  0  0  0  0  0  0  0  0
    0.4821    7.3670    6.8343 C   0  0  0  0  0  0  0  0  0  0  0  0
    0.6257    6.8740    7.7832 H   0  0  0  0  0  0  0  0  0  0  0  0
    1.5725    7.8890    6.1554 C   0  0  0  0  0  0  0  0  0  0  0  0
    2.5728    7.7975    6.5689 H   0  0  0  0  0  0  0  0  0  0  0  0
    2.6776   11.4099    5.6112 C   0  0  0  0  0  3  0  0  0  0  0  0
    1.6495   11.0775    5.5174 H   0  0  0  0  0  0  0  0  0  0  0  0
    2.9656   12.6503    6.1574 C   0  0  0  0  0  0  0  0  0  0  0  0
    2.1672   13.2881    6.5032 H   0  0  0  0  0  0  0  0  0  0  0  0
    4.2894   13.0526    6.2379 C   0  0  0  0  0  0  0  0  0  0  0  0
    4.5505   14.0171    6.6482 H   0  0  0  0  0  0  0  0  0  0  0  0
    5.2693   12.1850    5.7846 C   0  0  0  0  0  0  0  0  0  0  0  0
    6.3146   12.4483    5.8341 H   0  0  0  0  0  0  0  0  0  0  0  0
    4.8837   10.9596    5.2621 C   0  0  0  0  0  0  0  0  0  0  0  0
    5.6288   10.2439    4.9275 H   0  0  0  0  0  0  0  0  0  0  0  0
    4.9805   10.5412    1.8220 C   0  0  0  0  0  3  0  0  0  0  0  0
    4.3058   11.3458    2.0965 H   0  0  0  0  0  0  0  0  0  0  0  0
    5.8824   10.7132    0.7822 C   0  0  0  0  0  0  0  0  0  0  0  0
    5.9177   11.6522    0.2518 H   0  0  0  0  0  0  0  0  0  0  0  0
    6.7237    9.6674    0.4424 C   0  0  0  0  0  0  0  0  0  0  0  0
    7.4318    9.7644   -0.3673 H   0  0  0  0  0  0  0  0  0  0  0  0
    6.6372    8.4942    1.1779 C   0  0  0  0  0  0  0  0  0  0  0  0
    7.2783    7.6538    0.9620 H   0  0  0  0  0  0  0  0  0  0  0  0
    5.7062    8.4085    2.1995 C   0  0  0  0  0  0  0  0  0  0  0  0
    5.6221    7.5101    2.8023 H   0  0  0  0  0  0  0  0  0  0  0  0
    2.2210    6.7860    1.7388 C   0  0  0  0  0  0  0  0  0  0  0  0
    3.3312    5.8080    1.2676 C   0  0  0  0  0  0  0  0  0  0  0  0
    2.9263    5.1612    0.4848 H   0  0  0  0  0  0  0  0  0  0  0  0
    4.1531    6.3919    0.8435 H   0  0  0  0  0  0  0  0  0  0  0  0
    3.8182    4.9756    2.4498 C   0  0  0  0  0  0  0  0  0  0  0  0
    4.2012    5.6513    3.2208 H   0  0  0  0  0  0  0  0  0  0  0  0
    4.6256    4.3117    2.1311 H   0  0  0  0  0  0  0  0  0  0  0  0
    2.6691    4.1667    3.0440 C   0  0  0  0  0  0  0  0  0  0  0  0
    3.0291    3.5814    3.8925 H   0  0  0  0  0  0  0  0  0  0  0  0
    2.2763    3.4729    2.2951 H   0  0  0  0  0  0  0  0  0  0  0  0
    1.5618    5.1125    3.4990 C   0  0  0  0  0  0  0  0  0  0  0  0
    1.9692    5.7957    4.2542 H   0  0  0  0  0  0  0  0  0  0  0  0
    0.7357    4.5506    3.9433 H   0  0  0  0  0  0  0  0  0  0  0  0
    1.0555    5.9400    2.3216 C   0  0  0  0  0  0  0  0  0  0  0  0
    0.2566    6.6138    2.6426 H   0  0  0  0  0  0  0  0  0  0  0  0
    0.6648    5.2880    1.5363 H   0  0  0  0  0  0  0  0  0  0  0  0
    1.7341    7.5681    0.5957 C   0  0  0  0  0  0  0  0  0  0  0  0
    1.3749    8.3113   -0.2728 C   0  0  0  0  0  0  0  0  0  0  0  0
    1.0431    8.9399   -1.0453 H   0  0  0  0  0  0  0  0  0  0  0  0
    1.4670    8.4999    4.9724 N   0  0  0  0  0  0  0  0  0  0  0  0
    3.6148   10.5792    5.1668 N   0  0  0  0  0  0  0  0  0  0  0  0
    4.8771    9.4062    2.5142 N   0  0  0  0  0  0  0  0  0  0  0  0
    2.7095    7.6980    2.6861 N   0  0  0  0  0  2  0  0  0  0  0  0
    4.5963    7.7425    5.1469 Cl  0  0  0  0  0  0  0  0  0  0  0  0
    1.9875   10.6819    2.6962 Cl  0  0  0  0  0  0  0  0  0  0  0  0
    3.1466    8.9229    3.7439 Ti  0  0  0  0  0  0  0  0  0  0  0  0
  1 50  1  0  0  0  0
  1  3  1  0  0  0  0
  2  1  1  0  0  0  0
  3  5  2  0  0  0  0
  4  3  1  0  0  0  0
  5  6  1  0  0  0  0
  5  7  1  0  0  0  0
  7  8  1  0  0  0  0
  9 10  1  0  0  0  0
  9  7  2  0  0  0  0
 11 13  1  0  0  0  0
 12 11  1  0  0  0  0
 13 15  2  0  0  0  0
 13 14  1  0  0  0  0
 15 16  1  0  0  0  0
 17 18  1  0  0  0  0
 17 15  1  0  0  0  0
 19 17  2  0  0  0  0
 20 19  1  0  0  0  0
 21 22  1  0  0  0  0
 21 52  1  0  0  0  0
 23 21  1  0  0  0  0
 24 23  1  0  0  0  0
 25 23  2  0  0  0  0
 25 27  1  0  0  0  0
 26 25  1  0  0  0  0
 27 29  2  0  0  0  0
 28 27  1  0  0  0  0
 29 52  1  0  0  0  0
 29 30  1  0  0  0  0
 31 44  1  0  0  0  0
 31 53  1  0  0  0  0
 32 31  1  0  0  0  0
 32 35  1  0  0  0  0
 33 32  1  0  0  0  0
 34 32  1  0  0  0  0
 35 38  1  0  0  0  0
 35 36  1  0  0  0  0
 37 35  1  0  0  0  0
 38 41  1  0  0  0  0
 38 39  1  0  0  0  0
 40 38  1  0  0  0  0
 41 43  1  0  0  0  0
 41 42  1  0  0  0  0
 44 45  1  0  0  0  0
 44 41  1  0  0  0  0
 46 44  1  0  0  0  0
 47 31  1  0  0  0  0
 48 47  3  0  0  0  0
 49 48  1  0  0  0  0
 50  9  1  0  0  0  0
 51 19  1  0  0  0  0
 51 11  1  0  0  0  0
 52 56  1  0  0  0  0
 53 56  1  0  0  0  0
 55 56  1  0  0  0  0
 56 50  1  0  0  0  0
 56 54  1  0  0  0  0
 56 51  1  0  0  0  0
M  END
$$$$
