CSD_code = DESZAC | q = 0 | S = 0 | Stoichiometry = C23H24Cl4OPTa | MND = 6
 OpenBabel04212202023D

 54 57  0  0  0  0  0  0  0  0999 V2000
   11.1019    3.0454   37.1028 Ta  0  0  0  0  0  0  0  0  0  0  0  0
   12.2339    2.4160   39.0841 Cl  0  0  0  0  0  0  0  0  0  0  0  0
    9.1800    3.0848   38.2316 Cl  0  0  0  0  0  0  0  0  0  0  0  0
   10.7092    0.9497   36.2899 Cl  0  0  0  0  0  0  0  0  0  0  0  0
   10.1210    4.2939   35.3847 Cl  0  0  0  0  0  0  0  0  0  0  0  0
   12.0258    5.3984   37.9232 P   0  0  0  0  0  4  0  0  0  0  0  0
   12.6950    3.2305   36.3001 O   0  0  0  0  0  0  0  0  0  0  0  0
   13.8186    3.7730   35.8651 C   0  0  0  0  0  0  0  0  0  0  0  0
   14.3835    3.3930   34.6482 C   0  0  0  0  0  0  0  0  0  0  0  0
   13.8904    2.6203   34.0780 H   0  0  0  0  0  0  0  0  0  0  0  0
   15.5375    3.9941   34.1846 C   0  0  0  0  0  0  0  0  0  0  0  0
   15.9336    3.6677   33.2380 H   0  0  0  0  0  0  0  0  0  0  0  0
   16.1719    4.9932   34.9138 C   0  0  0  0  0  0  0  0  0  0  0  0
   15.6002    5.3643   36.1289 C   0  0  0  0  0  0  0  0  0  0  0  0
   16.0673    6.1352   36.7249 H   0  0  0  0  0  0  0  0  0  0  0  0
   14.4438    4.7830   36.6208 C   0  0  0  0  0  0  0  0  0  0  0  0
   13.8637    5.2056   37.9401 C   0  0  0  0  0  0  0  0  0  0  0  0
   14.3127    6.1433   38.2845 H   0  0  0  0  0  0  0  0  0  0  0  0
   14.0469    4.4299   38.6949 H   0  0  0  0  0  0  0  0  0  0  0  0
   11.6744    6.8230   36.8550 C   0  0  0  0  0  0  0  0  0  0  0  0
   12.5944    7.4284   36.0087 C   0  0  0  0  0  0  0  0  0  0  0  0
   13.6123    7.0732   35.9600 H   0  0  0  0  0  0  0  0  0  0  0  0
   12.1955    8.4861   35.2084 C   0  0  0  0  0  0  0  0  0  0  0  0
   12.9115    8.9559   34.5501 H   0  0  0  0  0  0  0  0  0  0  0  0
   10.8872    8.9361   35.2432 C   0  0  0  0  0  0  0  0  0  0  0  0
   10.5827    9.7578   34.6123 H   0  0  0  0  0  0  0  0  0  0  0  0
    9.9637    8.3248   36.0783 C   0  0  0  0  0  0  0  0  0  0  0  0
    8.9402    8.6675   36.0963 H   0  0  0  0  0  0  0  0  0  0  0  0
   10.3531    7.2690   36.8773 C   0  0  0  0  0  0  0  0  0  0  0  0
    9.6413    6.7686   37.5219 H   0  0  0  0  0  0  0  0  0  0  0  0
   11.7152    6.0854   39.5783 C   0  0  0  0  0  0  0  0  0  0  0  0
   12.1620    7.3631   39.9049 C   0  0  0  0  0  0  0  0  0  0  0  0
   12.6878    7.9537   39.1669 H   0  0  0  0  0  0  0  0  0  0  0  0
   11.9172    7.8770   41.1641 C   0  0  0  0  0  0  0  0  0  0  0  0
   12.2634    8.8682   41.4175 H   0  0  0  0  0  0  0  0  0  0  0  0
   11.2243    7.1231   42.0989 C   0  0  0  0  0  0  0  0  0  0  0  0
   11.0339    7.5287   43.0814 H   0  0  0  0  0  0  0  0  0  0  0  0
   10.7711    5.8559   41.7723 C   0  0  0  0  0  0  0  0  0  0  0  0
   10.2257    5.2727   42.4985 H   0  0  0  0  0  0  0  0  0  0  0  0
   11.0115    5.3342   40.5125 C   0  0  0  0  0  0  0  0  0  0  0  0
   10.6577    4.3474   40.2488 H   0  0  0  0  0  0  0  0  0  0  0  0
   17.4358    5.6931   34.4406 C   0  0  0  0  0  0  0  0  0  0  0  0
   17.1437    7.1927   34.2845 C   0  0  0  0  0  0  0  0  0  0  0  0
   16.8621    7.6445   35.2316 H   0  0  0  0  0  0  0  0  0  0  0  0
   16.3316    7.3448   33.5768 H   0  0  0  0  0  0  0  0  0  0  0  0
   18.0265    7.7076   33.9125 H   0  0  0  0  0  0  0  0  0  0  0  0
   18.5476    5.4821   35.4780 C   0  0  0  0  0  0  0  0  0  0  0  0
   18.2808    5.9063   36.4417 H   0  0  0  0  0  0  0  0  0  0  0  0
   19.4666    5.9562   35.1408 H   0  0  0  0  0  0  0  0  0  0  0  0
   18.7368    4.4198   35.6137 H   0  0  0  0  0  0  0  0  0  0  0  0
   17.9318    5.1599   33.0943 C   0  0  0  0  0  0  0  0  0  0  0  0
   17.1908    5.3154   32.3141 H   0  0  0  0  0  0  0  0  0  0  0  0
   18.1692    4.1009   33.1571 H   0  0  0  0  0  0  0  0  0  0  0  0
   18.8374    5.6899   32.8070 H   0  0  0  0  0  0  0  0  0  0  0  0
  1  6  1  0  0  0  0
  1  3  1  0  0  0  0
  1  2  1  0  0  0  0
  4  1  1  0  0  0  0
  5  1  1  0  0  0  0
  6 17  1  0  0  0  0
  6 31  1  0  0  0  0
  7  1  1  0  0  0  0
  8  7  1  0  0  0  0
  8 16  1  0  0  0  0
  9  8  2  0  0  0  0
 10  9  1  0  0  0  0
 11  9  1  0  0  0  0
 11 13  2  0  0  0  0
 12 11  1  0  0  0  0
 13 14  1  0  0  0  0
 14 16  2  0  0  0  0
 14 15  1  0  0  0  0
 16 17  1  0  0  0  0
 17 18  1  0  0  0  0
 17 19  1  0  0  0  0
 20 29  1  0  0  0  0
 20  6  1  0  0  0  0
 21 20  2  0  0  0  0
 22 21  1  0  0  0  0
 23 25  2  0  0  0  0
 23 21  1  0  0  0  0
 24 23  1  0  0  0  0
 25 27  1  0  0  0  0
 26 25  1  0  0  0  0
 27 28  1  0  0  0  0
 27 29  2  0  0  0  0
 29 30  1  0  0  0  0
 31 32  2  0  0  0  0
 31 40  1  0  0  0  0
 32 34  1  0  0  0  0
 33 32  1  0  0  0  0
 34 35  1  0  0  0  0
 34 36  2  0  0  0  0
 36 37  1  0  0  0  0
 38 36  1  0  0  0  0
 38 39  1  0  0  0  0
 40 38  2  0  0  0  0
 41 40  1  0  0  0  0
 42 13  1  0  0  0  0
 42 47  1  0  0  0  0
 43 42  1  0  0  0  0
 43 44  1  0  0  0  0
 45 43  1  0  0  0  0
 46 43  1  0  0  0  0
 47 50  1  0  0  0  0
 47 48  1  0  0  0  0
 49 47  1  0  0  0  0
 51 53  1  0  0  0  0
 51 42  1  0  0  0  0
 52 51  1  0  0  0  0
 54 51  1  0  0  0  0
M  END
$$$$
