CSD_code = DEVMOH | q = 0 | S = 0 | Stoichiometry = C20H24ClMnN2O5 | MND = 6
 OpenBabel04212202023D

 53 56  0  0  1  0  0  0  0  0999 V2000
    4.4593    8.9804    0.4956 Mn  0  0  0  0  0  0  0  0  0  0  0  0
    4.5892   11.0269    1.3264 Cl  0  0  0  0  0  0  0  0  0  0  0  0
    7.8056    7.6260    2.8484 O   0  0  0  0  0  0  0  0  0  0  0  0
    5.5101    8.1132    1.6667 O   0  0  0  0  0  0  0  0  0  0  0  0
    5.6664    9.3834   -0.7792 O   0  0  0  0  0  0  0  0  0  0  0  0
    7.8751    9.1124   -2.1621 O   0  0  0  0  0  0  0  0  0  0  0  0
    4.4635    6.8416   -0.4665 O   0  0  0  0  0  0  0  0  0  0  0  0
    5.1396    6.4100    0.0719 H   0  0  0  0  0  0  0  0  0  0  0  0
    4.8641    6.9941   -1.3306 H   0  0  0  0  0  0  0  0  0  0  0  0
    2.9835    8.6529    1.7601 N   0  0  1  0  0  0  0  0  0  0  0  0
    3.0311    9.4505   -0.6519 N   0  0  1  0  0  0  0  0  0  0  0  0
   10.0983    7.6213    2.2656 C   0  0  0  0  0  0  0  0  0  0  0  0
    9.9824    6.7100    1.6848 H   0  0  0  0  0  0  0  0  0  0  0  0
   11.1121    7.6725    2.6526 H   0  0  0  0  0  0  0  0  0  0  0  0
    9.9167    8.4721    1.6150 H   0  0  0  0  0  0  0  0  0  0  0  0
    9.1001    7.6378    3.4131 C   0  0  0  0  0  0  0  0  0  0  0  0
    9.2419    6.7567    4.0567 H   0  0  0  0  0  0  0  0  0  0  0  0
    9.2355    8.5420    4.0217 H   0  0  0  0  0  0  0  0  0  0  0  0
    6.7347    7.8400    3.6571 C   0  0  0  0  0  0  0  0  0  0  0  0
    6.7516    7.8295    5.0352 C   0  0  0  0  0  0  0  0  0  0  0  0
    7.6717    7.6502    5.5693 H   0  0  0  0  0  0  0  0  0  0  0  0
    5.5775    8.0401    5.7635 C   0  0  0  0  0  0  0  0  0  0  0  0
    5.6202    8.0184    6.8415 H   0  0  0  0  0  0  0  0  0  0  0  0
    4.3892    8.2674    5.1208 C   0  0  0  0  0  0  0  0  0  0  0  0
    3.4816    8.4254    5.6838 H   0  0  0  0  0  0  0  0  0  0  0  0
    4.3350    8.3211    3.7182 C   0  0  0  0  0  0  0  0  0  0  0  0
    5.5182    8.1151    2.9611 C   0  0  0  0  0  0  0  0  0  0  0  0
    3.0957    8.5266    3.0405 C   0  0  0  0  0  3  0  0  0  0  0  0
    2.1970    8.5392    3.6606 H   0  0  0  0  0  0  0  0  0  0  0  0
    1.6595    8.7648    1.1841 C   0  0  0  0  0  0  0  0  0  0  0  0
    0.9230    9.1101    1.9192 H   0  0  0  0  0  0  0  0  0  0  0  0
    1.3603    7.7777    0.8092 H   0  0  0  0  0  0  0  0  0  0  0  0
    1.7759    9.7402    0.0082 C   0  0  0  0  0  0  0  0  0  0  0  0
    0.9211    9.6562   -0.6734 H   0  0  0  0  0  0  0  0  0  0  0  0
    1.8379   10.7637    0.4025 H   0  0  0  0  0  0  0  0  0  0  0  0
    3.0918    9.5627   -1.9488 C   0  0  0  0  0  3  0  0  0  0  0  0
    2.1782    9.7907   -2.4996 H   0  0  0  0  0  0  0  0  0  0  0  0
    4.2814    9.4484   -2.7125 C   0  0  0  0  0  0  0  0  0  0  0  0
    4.2352    9.5153   -4.1214 C   0  0  0  0  0  0  0  0  0  0  0  0
    3.2731    9.6175   -4.6014 H   0  0  0  0  0  0  0  0  0  0  0  0
    5.3776    9.4422   -4.8651 C   0  0  0  0  0  0  0  0  0  0  0  0
    5.3338    9.4861   -5.9424 H   0  0  0  0  0  0  0  0  0  0  0  0
    6.6285    9.3078   -4.2437 C   0  0  0  0  0  0  0  0  0  0  0  0
    7.5106    9.2458   -4.8613 H   0  0  0  0  0  0  0  0  0  0  0  0
    6.7275    9.2665   -2.8747 C   0  0  0  0  0  0  0  0  0  0  0  0
    5.5480    9.3472   -2.0571 C   0  0  0  0  0  0  0  0  0  0  0  0
    9.1101    9.1266   -2.8435 C   0  0  0  0  0  0  0  0  0  0  0  0
    9.2049   10.0484   -3.4342 H   0  0  0  0  0  0  0  0  0  0  0  0
    9.1761    8.2661   -3.5265 H   0  0  0  0  0  0  0  0  0  0  0  0
   10.2109    9.0550   -1.7966 C   0  0  0  0  0  0  0  0  0  0  0  0
   10.1293    9.9033   -1.1230 H   0  0  0  0  0  0  0  0  0  0  0  0
   11.1846    9.0702   -2.2783 H   0  0  0  0  0  0  0  0  0  0  0  0
   10.1114    8.1423   -1.2155 H   0  0  0  0  0  0  0  0  0  0  0  0
  1  2  1  0  0  0  0
  1  4  1  0  0  0  0
  1 10  1  0  0  0  0
  3 16  1  0  0  0  0
  3 19  1  0  0  0  0
  4 27  1  0  0  0  0
  5  1  1  0  0  0  0
  7  8  1  0  0  0  0
  9  7  1  0  0  0  0
 10 28  1  1  0  0  0
 11 36  1  1  0  0  0
 11 33  1  0  0  0  0
 11  1  1  0  0  0  0
 12 14  1  0  0  0  0
 12 16  1  0  0  0  0
 13 12  1  0  0  0  0
 15 12  1  0  0  0  0
 16 18  1  0  0  0  0
 16 17  1  0  0  0  0
 19 20  1  0  0  0  0
 20 21  1  0  0  0  0
 20 22  2  0  0  0  0
 22 23  1  0  0  0  0
 24 25  1  0  0  0  0
 24 22  1  0  0  0  0
 26 24  2  0  0  0  0
 27 19  2  0  0  0  0
 27 26  1  0  0  0  0
 28 29  1  0  0  0  0
 28 26  1  0  0  0  0
 30 10  1  0  0  0  0
 30 31  1  0  0  0  0
 32 30  1  0  0  0  0
 33 35  1  0  0  0  0
 33 30  1  0  0  0  0
 34 33  1  0  0  0  0
 37 36  1  0  0  0  0
 38 46  1  0  0  0  0
 38 36  1  0  0  0  0
 39 38  2  0  0  0  0
 40 39  1  0  0  0  0
 41 43  2  0  0  0  0
 41 39  1  0  0  0  0
 42 41  1  0  0  0  0
 43 45  1  0  0  0  0
 44 43  1  0  0  0  0
 45  6  1  0  0  0  0
 45 46  2  0  0  0  0
 46  5  1  0  0  0  0
 47  6  1  0  0  0  0
 47 50  1  0  0  0  0
 48 47  1  0  0  0  0
 49 47  1  0  0  0  0
 50 53  1  0  0  0  0
 50 51  1  0  0  0  0
 52 50  1  0  0  0  0
M  END
$$$$
