CSD_code = DEWWEI | q = 0 | S = 0 | Stoichiometry = C29H30Cl2N4Zn | MND = 5
 OpenBabel04212202023D

 66 71  0  0  1  0  0  0  0  0999 V2000
    4.6775    9.5353    6.9205 N   0  0  0  0  0  0  0  0  0  0  0  0
    3.2434    7.4424    6.4011 N   0  0  0  0  0  0  0  0  0  0  0  0
    3.1712    5.7854    8.5401 N   0  0  0  0  0  0  0  0  0  0  0  0
    3.6084    4.8483   11.9140 N   0  0  0  0  0  0  0  0  0  0  0  0
    6.2965    6.8667    7.2861 Cl  0  0  0  0  0  0  0  0  0  0  0  0
    3.7726    8.7695    9.9753 Cl  0  0  0  0  0  0  0  0  0  0  0  0
    4.3762    7.6924    8.1282 Zn  0  0  0  0  0  0  0  0  0  0  0  0
    5.3877   10.5797    7.2967 C   0  0  0  0  0  3  0  0  0  0  0  0
    5.5723   10.6637    8.3586 H   0  0  0  0  0  0  0  0  0  0  0  0
    5.8672   11.5200    6.3954 C   0  0  0  0  0  0  0  0  0  0  0  0
    6.4493   12.3594    6.7399 H   0  0  0  0  0  0  0  0  0  0  0  0
    5.5818   11.3456    5.0516 C   0  0  0  0  0  0  0  0  0  0  0  0
    5.9394   12.0501    4.3156 H   0  0  0  0  0  0  0  0  0  0  0  0
    4.8294   10.2504    4.6588 C   0  0  0  0  0  0  0  0  0  0  0  0
    4.5956   10.1017    3.6172 H   0  0  0  0  0  0  0  0  0  0  0  0
    4.3908    9.3542    5.6300 C   0  0  0  0  0  0  0  0  0  0  0  0
    3.6036    8.1467    5.3341 C   0  0  1  0  0  3  0  0  0  0  0  0
    3.2549    7.7188    4.0541 C   0  0  0  0  0  0  0  0  0  0  0  0
    3.5440    8.2779    3.1799 H   0  0  0  0  0  0  0  0  0  0  0  0
    2.5420    6.5384    3.9194 C   0  0  0  0  0  0  0  0  0  0  0  0
    2.2763    6.1766    2.9371 H   0  0  0  0  0  0  0  0  0  0  0  0
    2.1879    5.8155    5.0458 C   0  0  0  0  0  0  0  0  0  0  0  0
    1.6631    4.8779    4.9589 H   0  0  0  0  0  0  0  0  0  0  0  0
    2.5666    6.3119    6.2924 C   0  0  0  0  0  0  0  0  0  0  0  0
    2.2754    5.6271    7.5625 C   0  0  2  0  0  3  0  0  0  0  0  0
    1.1176    4.8726    7.7171 C   0  0  0  0  0  0  0  0  0  0  0  0
    0.4093    4.7871    6.9085 H   0  0  0  0  0  0  0  0  0  0  0  0
    0.8746    4.2759    8.9448 C   0  0  0  0  0  0  0  0  0  0  0  0
   -0.0298    3.7100    9.1106 H   0  0  0  0  0  0  0  0  0  0  0  0
    1.8169    4.4135    9.9410 C   0  0  0  0  0  0  0  0  0  0  0  0
    1.6934    3.9634   10.9124 H   0  0  0  0  0  0  0  0  0  0  0  0
    2.9753    5.1643    9.7013 C   0  0  0  0  0  0  0  0  0  0  0  0
    4.0037    5.2083   10.7629 C   0  0  0  0  0  0  0  0  0  0  0  0
    5.4063    5.5745   10.4147 C   0  0  0  0  0  0  0  0  0  0  0  0
    5.5040    6.6603   10.3682 H   0  0  0  0  0  0  0  0  0  0  0  0
    5.6909    5.1708    9.4459 H   0  0  0  0  0  0  0  0  0  0  0  0
    6.0831    5.2107   11.1868 H   0  0  0  0  0  0  0  0  0  0  0  0
    4.3826    4.7861   13.0602 C   0  0  0  0  0  0  0  0  0  0  0  0
    4.7318    5.9420   13.7742 C   0  0  0  0  0  0  0  0  0  0  0  0
    5.4210    5.7958   14.9688 C   0  0  0  0  0  0  0  0  0  0  0  0
    5.6944    6.6767   15.5296 H   0  0  0  0  0  0  0  0  0  0  0  0
    5.7755    4.5498   15.4486 C   0  0  0  0  0  0  0  0  0  0  0  0
    6.3281    4.4605   16.3724 H   0  0  0  0  0  0  0  0  0  0  0  0
    5.4156    3.4163   14.7432 C   0  0  0  0  0  0  0  0  0  0  0  0
    5.6946    2.4444   15.1209 H   0  0  0  0  0  0  0  0  0  0  0  0
    4.7028    3.5142   13.5605 C   0  0  0  0  0  0  0  0  0  0  0  0
    4.3207    2.2837   12.7691 C   0  0  0  0  0  0  0  0  0  0  0  0
    3.5748    2.5865   12.0256 H   0  0  0  0  0  0  0  0  0  0  0  0
    5.5411    1.7357   12.0247 C   0  0  0  0  0  0  0  0  0  0  0  0
    5.9484    2.4887   11.3535 H   0  0  0  0  0  0  0  0  0  0  0  0
    5.2681    0.8612   11.4372 H   0  0  0  0  0  0  0  0  0  0  0  0
    6.3177    1.4503   12.7308 H   0  0  0  0  0  0  0  0  0  0  0  0
    3.6971    1.2013   13.6509 C   0  0  0  0  0  0  0  0  0  0  0  0
    3.3038    0.3969   13.0320 H   0  0  0  0  0  0  0  0  0  0  0  0
    2.8824    1.6170   14.2392 H   0  0  0  0  0  0  0  0  0  0  0  0
    4.4302    0.7749   14.3302 H   0  0  0  0  0  0  0  0  0  0  0  0
    4.3327    7.3160   13.2933 C   0  0  0  0  0  0  0  0  0  0  0  0
    3.8778    7.2380   12.3035 H   0  0  0  0  0  0  0  0  0  0  0  0
    3.2825    7.9174   14.2305 C   0  0  0  0  0  0  0  0  0  0  0  0
    3.6855    8.0544   15.2319 H   0  0  0  0  0  0  0  0  0  0  0  0
    2.4156    7.2630   14.2946 H   0  0  0  0  0  0  0  0  0  0  0  0
    2.9611    8.8829   13.8477 H   0  0  0  0  0  0  0  0  0  0  0  0
    5.5422    8.2450   13.1745 C   0  0  0  0  0  0  0  0  0  0  0  0
    5.9254    8.5246   14.1533 H   0  0  0  0  0  0  0  0  0  0  0  0
    5.2498    9.1470   12.6432 H   0  0  0  0  0  0  0  0  0  0  0  0
    6.3420    7.7633   12.6161 H   0  0  0  0  0  0  0  0  0  0  0  0
  1  8  1  0  0  0  0
  1  7  1  0  0  0  0
  2  7  1  0  0  0  0
  3 32  1  0  0  0  0
  4 38  1  0  0  0  0
  5  7  1  0  0  0  0
  7  3  1  0  0  0  0
  7  6  1  0  0  0  0
  8  9  1  0  0  0  0
 10 11  1  0  0  0  0
 10  8  1  0  0  0  0
 12 10  2  0  0  0  0
 13 12  1  0  0  0  0
 14 12  1  0  0  0  0
 14 16  2  0  0  0  0
 15 14  1  0  0  0  0
 16  1  1  0  0  0  0
 17 18  1  6  0  0  0
 17 16  1  0  0  0  0
 17  2  1  0  0  0  0
 19 18  1  0  0  0  0
 20 18  2  0  0  0  0
 20 22  1  0  0  0  0
 21 20  1  0  0  0  0
 22 24  2  0  0  0  0
 23 22  1  0  0  0  0
 24  2  1  0  0  0  0
 25 24  1  1  0  0  0
 25 26  1  0  0  0  0
 25  3  1  0  0  0  0
 26 28  2  0  0  0  0
 27 26  1  0  0  0  0
 28 29  1  0  0  0  0
 28 30  1  0  0  0  0
 30 31  1  0  0  0  0
 32 30  2  0  0  0  0
 32 33  1  0  0  0  0
 33  4  2  0  0  0  0
 34 33  1  0  0  0  0
 34 37  1  0  0  0  0
 35 34  1  0  0  0  0
 36 34  1  0  0  0  0
 38 46  2  0  0  0  0
 38 39  1  0  0  0  0
 39 40  2  0  0  0  0
 40 42  1  0  0  0  0
 40 41  1  0  0  0  0
 42 43  1  0  0  0  0
 44 45  1  0  0  0  0
 44 42  2  0  0  0  0
 46 44  1  0  0  0  0
 47 46  1  0  0  0  0
 47 53  1  0  0  0  0
 48 47  1  0  0  0  0
 49 52  1  0  0  0  0
 49 47  1  0  0  0  0
 50 49  1  0  0  0  0
 51 49  1  0  0  0  0
 53 55  1  0  0  0  0
 53 56  1  0  0  0  0
 54 53  1  0  0  0  0
 57 39  1  0  0  0  0
 57 59  1  0  0  0  0
 58 57  1  0  0  0  0
 59 61  1  0  0  0  0
 59 60  1  0  0  0  0
 62 59  1  0  0  0  0
 63 57  1  0  0  0  0
 63 64  1  0  0  0  0
 65 63  1  0  0  0  0
 66 63  1  0  0  0  0
M  END
$$$$
