CSD_code = DEXCOA | q = 0 | S = 0 | Stoichiometry = C28H33Cl2N3Pd | MND = 4
 OpenBabel04212202023D

 67 71  0  0  1  0  0  0  0  0999 V2000
   -0.7465    8.4082    3.7531 Pd  0  0  0  0  0  0  0  0  0  0  0  0
   -1.5984    9.7289    5.3898 Cl  0  0  0  0  0  0  0  0  0  0  0  0
   -1.7170    9.6324    2.1743 Cl  0  0  0  0  0  0  0  0  0  0  0  0
    0.0487    7.2102    5.1894 N   0  0  0  0  0  0  0  0  0  0  0  0
   -0.0178    7.1622    2.4135 C   0  0  0  0  0  0  0  0  0  0  0  0
    0.6749    7.3534    1.3031 N   0  0  0  0  0  0  0  0  0  0  0  0
   -0.0648    5.8533    2.6798 N   0  0  0  0  0  0  0  0  0  0  0  0
    0.9941    8.6146    0.7289 C   0  0  0  0  0  0  0  0  0  0  0  0
   -0.0581    5.8793    5.1013 C   0  0  1  0  0  3  0  0  0  0  0  0
    1.1345    6.9725    7.2930 C   0  0  0  0  0  0  0  0  0  0  0  0
    1.5909    7.4477    8.1460 H   0  0  0  0  0  0  0  0  0  0  0  0
    1.8890    9.4663    1.3845 C   0  0  0  0  0  0  0  0  0  0  0  0
   -0.4874    4.2264    0.8763 C   0  0  0  0  0  0  0  0  0  0  0  0
   -0.9560    3.5102    1.5556 H   0  0  0  0  0  0  0  0  0  0  0  0
   -1.2583    4.9147    0.5240 H   0  0  0  0  0  0  0  0  0  0  0  0
    1.2497    6.1096    0.7922 C   0  0  0  0  0  0  0  0  0  0  0  0
    2.3369    6.1268    0.9322 H   0  0  0  0  0  0  0  0  0  0  0  0
    1.0461    5.9796   -0.2714 H   0  0  0  0  0  0  0  0  0  0  0  0
    0.5687    5.0343    1.6540 C   0  0  1  0  0  0  0  0  0  0  0  0
    1.2980    4.3506    2.1042 H   0  0  0  0  0  0  0  0  0  0  0  0
    0.4091    8.9707   -0.4898 C   0  0  0  0  0  0  0  0  0  0  0  0
    0.7673   10.1817   -1.0641 C   0  0  0  0  0  0  0  0  0  0  0  0
    0.3264   10.4778   -2.0029 H   0  0  0  0  0  0  0  0  0  0  0  0
   -0.7314    5.3441    3.8552 C   0  0  0  0  0  0  0  0  0  0  0  0
   -0.7074    4.2535    3.8444 H   0  0  0  0  0  0  0  0  0  0  0  0
   -1.7848    5.6857    3.8552 H   0  0  0  0  0  0  0  0  0  0  0  0
    1.6633   11.0262   -0.4396 C   0  0  0  0  0  0  0  0  0  0  0  0
    1.9246   11.9695   -0.8954 H   0  0  0  0  0  0  0  0  0  0  0  0
    0.1266    3.4970   -0.2848 C   0  0  0  0  0  0  0  0  0  0  0  0
    2.5064    9.1280    2.7237 C   0  0  0  0  0  0  0  0  0  0  0  0
    2.1730    8.1307    3.0432 H   0  0  0  0  0  0  0  0  0  0  0  0
    1.5502    1.7513   -1.1368 C   0  0  0  0  0  0  0  0  0  0  0  0
    2.1944    0.9033   -0.9568 H   0  0  0  0  0  0  0  0  0  0  0  0
    2.2087   10.6746    0.7784 C   0  0  0  0  0  0  0  0  0  0  0  0
    2.8900   11.3533    1.2675 H   0  0  0  0  0  0  0  0  0  0  0  0
   -1.9428    8.8789   -1.3033 C   0  0  0  0  0  0  0  0  0  0  0  0
   -2.2401    9.2638   -0.3307 H   0  0  0  0  0  0  0  0  0  0  0  0
   -2.7247    8.2223   -1.6797 H   0  0  0  0  0  0  0  0  0  0  0  0
   -1.8365    9.7136   -1.9901 H   0  0  0  0  0  0  0  0  0  0  0  0
    0.9615    2.4067   -0.0709 C   0  0  0  0  0  0  0  0  0  0  0  0
    1.1449    2.0622    0.9373 H   0  0  0  0  0  0  0  0  0  0  0  0
    0.6325    7.7454    6.2600 C   0  0  0  0  0  0  0  0  0  0  0  0
    0.6600    8.8274    6.2956 H   0  0  0  0  0  0  0  0  0  0  0  0
    1.0312    5.5931    7.2119 C   0  0  0  0  0  0  0  0  0  0  0  0
    1.4077    4.9593    7.9999 H   0  0  0  0  0  0  0  0  0  0  0  0
    0.4276    5.0407    6.0915 C   0  0  0  0  0  0  0  0  0  0  0  0
    0.3233    3.9711    5.9922 H   0  0  0  0  0  0  0  0  0  0  0  0
   -0.6302    8.1051   -1.1617 C   0  0  0  0  0  0  0  0  0  0  0  0
   -0.8395    7.2428   -0.5234 H   0  0  0  0  0  0  0  0  0  0  0  0
    1.3125    2.1786   -2.4325 C   0  0  0  0  0  0  0  0  0  0  0  0
    1.7719    1.6665   -3.2644 H   0  0  0  0  0  0  0  0  0  0  0  0
   -0.1099    3.9142   -1.5879 C   0  0  0  0  0  0  0  0  0  0  0  0
   -0.7701    4.7496   -1.7695 H   0  0  0  0  0  0  0  0  0  0  0  0
    0.4786    3.2599   -2.6560 C   0  0  0  0  0  0  0  0  0  0  0  0
    0.2833    3.5951   -3.6637 H   0  0  0  0  0  0  0  0  0  0  0  0
    4.0349    9.0992    2.6326 C   0  0  0  0  0  0  0  0  0  0  0  0
    4.3609    8.4029    1.8621 H   0  0  0  0  0  0  0  0  0  0  0  0
    4.4601    8.7861    3.5840 H   0  0  0  0  0  0  0  0  0  0  0  0
    4.4298   10.0819    2.3910 H   0  0  0  0  0  0  0  0  0  0  0  0
    2.0398   10.1377    3.7806 C   0  0  0  0  0  0  0  0  0  0  0  0
    0.9350   10.1408    3.8444 H   0  0  0  0  0  0  0  0  0  0  0  0
    2.3626   11.1427    3.5216 H   0  0  0  0  0  0  0  0  0  0  0  0
    2.4593    9.8823    4.7529 H   0  0  0  0  0  0  0  0  0  0  0  0
   -0.1346    7.6097   -2.5234 C   0  0  0  0  0  0  0  0  0  0  0  0
    0.7866    7.0365   -2.4243 H   0  0  0  0  0  0  0  0  0  0  0  0
    0.0609    8.4484   -3.1864 H   0  0  0  0  0  0  0  0  0  0  0  0
   -0.8878    6.9791   -2.9918 H   0  0  0  0  0  0  0  0  0  0  0  0
  1  4  1  0  0  0  0
  1  2  1  0  0  0  0
  3  1  1  0  0  0  0
  4 42  1  0  0  0  0
  5  7  1  0  0  0  0
  5  1  2  0  0  0  0
  6  5  1  0  0  0  0
  7 24  1  0  0  0  0
  8  6  1  0  0  0  0
  8 12  1  0  0  0  0
  9  4  1  0  0  0  0
  9 46  1  6  0  0  0
 10 11  1  0  0  0  0
 12 30  1  0  0  0  0
 13 14  1  0  0  0  0
 13 19  1  0  0  0  0
 15 13  1  0  0  0  0
 16 17  1  0  0  0  0
 16  6  1  0  0  0  0
 16 19  1  0  0  0  0
 18 16  1  0  0  0  0
 19 20  1  1  0  0  0
 19  7  1  0  0  0  0
 21  8  2  0  0  0  0
 22 21  1  0  0  0  0
 22 27  2  0  0  0  0
 23 22  1  0  0  0  0
 24 26  1  0  0  0  0
 24  9  1  0  0  0  0
 25 24  1  0  0  0  0
 27 34  1  0  0  0  0
 28 27  1  0  0  0  0
 29 40  1  0  0  0  0
 29 13  1  0  0  0  0
 30 31  1  0  0  0  0
 30 60  1  0  0  0  0
 32 33  1  0  0  0  0
 32 40  2  0  0  0  0
 34 35  1  0  0  0  0
 34 12  2  0  0  0  0
 36 48  1  0  0  0  0
 36 37  1  0  0  0  0
 38 36  1  0  0  0  0
 39 36  1  0  0  0  0
 40 41  1  0  0  0  0
 42 43  1  0  0  0  0
 42 10  2  0  0  0  0
 44 10  1  0  0  0  0
 44 45  1  0  0  0  0
 46 44  2  0  0  0  0
 47 46  1  0  0  0  0
 48 49  1  0  0  0  0
 48 21  1  0  0  0  0
 50 32  1  0  0  0  0
 51 50  1  0  0  0  0
 52 29  2  0  0  0  0
 53 52  1  0  0  0  0
 54 50  2  0  0  0  0
 54 52  1  0  0  0  0
 55 54  1  0  0  0  0
 56 30  1  0  0  0  0
 56 58  1  0  0  0  0
 57 56  1  0  0  0  0
 59 56  1  0  0  0  0
 60 61  1  0  0  0  0
 60 63  1  0  0  0  0
 62 60  1  0  0  0  0
 64 65  1  0  0  0  0
 64 48  1  0  0  0  0
 66 64  1  0  0  0  0
 67 64  1  0  0  0  0
M  END
$$$$
