CSD_code = DEXCEP | q = 0 | S = 0 | Stoichiometry = C18H24Cl2N4O2OsS2 | MND = 6
 OpenBabel04212202023D

 53 56  0  0  0  0  0  0  0  0999 V2000
    9.9854   16.8580    1.4569 Os  0  0  0  0  0  0  0  0  0  0  0  0
   12.1837   17.2584    0.8560 S   0  0  0  0  0  0  0  0  0  0  0  0
   10.6024   15.4946    3.2229 Cl  0  0  0  0  0  0  0  0  0  0  0  0
   10.0718   18.4829    3.0381 S   0  0  0  0  0  0  0  0  0  0  0  0
    9.4480   18.4137   -0.2155 Cl  0  0  0  0  0  0  0  0  0  0  0  0
    7.9709   16.5522    1.7753 N   0  0  0  0  0  0  0  0  0  0  0  0
    5.7852   16.9151    1.6254 N   0  0  0  0  0  0  0  0  0  0  0  0
    4.9216   17.4116    1.4846 H   0  0  0  0  0  0  0  0  0  0  0  0
    7.0316   17.4457    1.5586 C   0  0  0  0  0  3  0  0  0  0  0  0
    7.2135   18.4711    1.3000 H   0  0  0  0  0  0  0  0  0  0  0  0
    5.0010   14.5573    2.0715 C   0  0  0  0  0  0  0  0  0  0  0  0
    3.9402   14.7408    1.9961 H   0  0  0  0  0  0  0  0  0  0  0  0
    5.9249   15.5790    1.9030 C   0  0  0  0  0  0  0  0  0  0  0  0
    7.3146   15.3539    2.0018 C   0  0  0  0  0  0  0  0  0  0  0  0
    7.8028   14.0818    2.2883 C   0  0  0  0  0  0  0  0  0  0  0  0
    8.8620   13.9238    2.4127 H   0  0  0  0  0  0  0  0  0  0  0  0
    6.8776   13.0717    2.4516 C   0  0  0  0  0  0  0  0  0  0  0  0
    7.2229   12.0747    2.6770 H   0  0  0  0  0  0  0  0  0  0  0  0
   13.2560   16.5521    1.5310 O   0  0  0  0  0  1  0  0  0  0  0  0
    9.8715   15.3195    0.0920 N   0  0  0  0  0  0  0  0  0  0  0  0
   10.6039   14.1468    0.0218 C   0  0  0  0  0  0  0  0  0  0  0  0
   11.7107   13.7073    0.7446 C   0  0  0  0  0  0  0  0  0  0  0  0
   12.1438   14.3160    1.5213 H   0  0  0  0  0  0  0  0  0  0  0  0
    8.9520   15.2338   -0.8417 C   0  0  0  0  0  3  0  0  0  0  0  0
    8.2450   16.0100   -1.0691 H   0  0  0  0  0  0  0  0  0  0  0  0
   11.4199   18.9214    3.3574 O   0  0  0  0  0  1  0  0  0  0  0  0
    5.5036   13.3012    2.3421 C   0  0  0  0  0  0  0  0  0  0  0  0
    4.8192   12.4777    2.4798 H   0  0  0  0  0  0  0  0  0  0  0  0
    9.0198   14.0704   -1.5307 N   0  0  0  0  0  0  0  0  0  0  0  0
    8.4171   13.7903   -2.2858 H   0  0  0  0  0  0  0  0  0  0  0  0
   10.0599   13.3457   -1.0050 C   0  0  0  0  0  0  0  0  0  0  0  0
   10.5817   12.0996   -1.3208 C   0  0  0  0  0  0  0  0  0  0  0  0
   10.1568   11.4961   -2.1081 H   0  0  0  0  0  0  0  0  0  0  0  0
   12.2214   12.4663    0.4251 C   0  0  0  0  0  0  0  0  0  0  0  0
   13.0762   12.0962    0.9688 H   0  0  0  0  0  0  0  0  0  0  0  0
   11.6682   11.6744   -0.5842 C   0  0  0  0  0  0  0  0  0  0  0  0
   12.1049   10.7102   -0.7962 H   0  0  0  0  0  0  0  0  0  0  0  0
   12.4065   16.8791   -0.9297 C   0  0  0  0  0  0  0  0  0  0  0  0
   13.3875   17.2230   -1.2345 H   0  0  0  0  0  0  0  0  0  0  0  0
   11.6232   17.3874   -1.4801 H   0  0  0  0  0  0  0  0  0  0  0  0
   12.3384   15.8048   -1.0622 H   0  0  0  0  0  0  0  0  0  0  0  0
   12.7031   18.9996    0.7102 C   0  0  0  0  0  0  0  0  0  0  0  0
   12.6973   19.4275    1.7060 H   0  0  0  0  0  0  0  0  0  0  0  0
   11.9927   19.5046    0.0661 H   0  0  0  0  0  0  0  0  0  0  0  0
   13.7037   19.0154    0.2960 H   0  0  0  0  0  0  0  0  0  0  0  0
    9.1425   20.0434    2.7428 C   0  0  0  0  0  0  0  0  0  0  0  0
    9.6094   20.8123    3.3461 H   0  0  0  0  0  0  0  0  0  0  0  0
    8.1035   19.9099    3.0160 H   0  0  0  0  0  0  0  0  0  0  0  0
    9.2317   20.2874    1.6892 H   0  0  0  0  0  0  0  0  0  0  0  0
    9.2805   18.0777    4.6331 C   0  0  0  0  0  0  0  0  0  0  0  0
    9.8011   17.2122    5.0295 H   0  0  0  0  0  0  0  0  0  0  0  0
    8.2394   17.8330    4.4534 H   0  0  0  0  0  0  0  0  0  0  0  0
    9.3884   18.9274    5.2965 H   0  0  0  0  0  0  0  0  0  0  0  0
  1  6  1  0  0  0  0
  1  4  1  0  0  0  0
  1  3  1  0  0  0  0
  2  1  1  0  0  0  0
  2 19  1  0  0  0  0
  4 26  1  0  0  0  0
  4 50  1  0  0  0  0
  5  1  1  0  0  0  0
  6 14  1  0  0  0  0
  7 13  1  0  0  0  0
  8  7  1  0  0  0  0
  9  7  1  0  0  0  0
  9  6  1  0  0  0  0
 10  9  1  0  0  0  0
 11 27  1  0  0  0  0
 12 11  1  0  0  0  0
 13 14  1  0  0  0  0
 13 11  2  0  0  0  0
 14 15  2  0  0  0  0
 15 16  1  0  0  0  0
 15 17  1  0  0  0  0
 17 18  1  0  0  0  0
 20  1  1  0  0  0  0
 21 20  1  0  0  0  0
 21 22  1  0  0  0  0
 22 23  1  0  0  0  0
 24 20  1  0  0  0  0
 25 24  1  0  0  0  0
 27 17  2  0  0  0  0
 27 28  1  0  0  0  0
 29 31  1  0  0  0  0
 29 24  1  0  0  0  0
 30 29  1  0  0  0  0
 31 21  2  0  0  0  0
 32 31  1  0  0  0  0
 32 36  2  0  0  0  0
 33 32  1  0  0  0  0
 34 22  2  0  0  0  0
 34 35  1  0  0  0  0
 36 34  1  0  0  0  0
 37 36  1  0  0  0  0
 38  2  1  0  0  0  0
 39 38  1  0  0  0  0
 40 38  1  0  0  0  0
 41 38  1  0  0  0  0
 42  2  1  0  0  0  0
 42 43  1  0  0  0  0
 44 42  1  0  0  0  0
 45 42  1  0  0  0  0
 46 48  1  0  0  0  0
 46  4  1  0  0  0  0
 46 47  1  0  0  0  0
 49 46  1  0  0  0  0
 50 51  1  0  0  0  0
 50 53  1  0  0  0  0
 52 50  1  0  0  0  0
M  END
$$$$
