CSD_code = DEXDIU | q = 0 | S = 0 | Stoichiometry = C13H24Cl2N2O3OsS3 | MND = 6
 OpenBabel04212202023D

 48 49  0  0  0  0  0  0  0  0999 V2000
    4.0932    6.1614   15.1157 Os  0  0  0  0  0  0  0  0  0  0  0  0
    4.8612    7.9531   16.3839 Cl  0  0  0  0  0  0  0  0  0  0  0  0
    6.2151    5.2144   14.9769 Cl  0  0  0  0  0  0  0  0  0  0  0  0
    3.7920    5.0392   17.0588 S   0  0  0  0  0  0  0  0  0  0  0  0
    1.9618    7.0728   15.2409 S   0  0  0  0  0  0  0  0  0  0  0  0
    3.3576    4.4281   13.8075 S   0  0  0  0  0  0  0  0  0  0  0  0
    2.4332    4.4874   17.1209 O   0  0  0  0  0  1  0  0  0  0  0  0
    1.7610    8.0485   14.1810 O   0  0  0  0  0  1  0  0  0  0  0  0
    2.1334    4.7862   13.0987 O   0  0  0  0  0  1  0  0  0  0  0  0
    4.4898    7.2424   13.4584 N   0  0  0  0  0  0  0  0  0  0  0  0
    5.5702    8.0401   13.4426 N   0  0  0  0  0  0  0  0  0  0  0  0
    6.1182    8.1488   14.2895 H   0  0  0  0  0  0  0  0  0  0  0  0
    3.8730    7.3479   12.3002 C   0  0  0  0  0  0  0  0  0  0  0  0
    2.9692    6.8068   12.0971 H   0  0  0  0  0  0  0  0  0  0  0  0
    4.5660    8.2651   11.4790 C   0  0  0  0  0  0  0  0  0  0  0  0
    4.3956    8.7671   10.1841 C   0  0  0  0  0  3  0  0  0  0  0  0
    3.5635    8.4442    9.5785 H   0  0  0  0  0  0  0  0  0  0  0  0
    5.3128    9.6778    9.7216 C   0  0  0  0  0  0  0  0  0  0  0  0
    5.2084   10.0857    8.7274 H   0  0  0  0  0  0  0  0  0  0  0  0
    6.3930   10.1005   10.5122 C   0  0  0  0  0  0  0  0  0  0  0  0
    7.0855   10.8202   10.1023 H   0  0  0  0  0  0  0  0  0  0  0  0
    6.5879    9.6246   11.7873 C   0  0  0  0  0  0  0  0  0  0  0  0
    7.4159    9.9493   12.3968 H   0  0  0  0  0  0  0  0  0  0  0  0
    5.6625    8.6997   12.2671 C   0  0  0  0  0  0  0  0  0  0  0  0
    4.0584    5.9089   18.6385 C   0  0  0  0  0  0  0  0  0  0  0  0
    3.4413    6.7989   18.6639 H   0  0  0  0  0  0  0  0  0  0  0  0
    5.1021    6.1955   18.6825 H   0  0  0  0  0  0  0  0  0  0  0  0
    3.7888    5.2359   19.4440 H   0  0  0  0  0  0  0  0  0  0  0  0
    4.9203    3.6589   17.4495 C   0  0  0  0  0  0  0  0  0  0  0  0
    4.9036    2.9457   16.6350 H   0  0  0  0  0  0  0  0  0  0  0  0
    4.5842    3.1918   18.3675 H   0  0  0  0  0  0  0  0  0  0  0  0
    5.9176    4.0702   17.5465 H   0  0  0  0  0  0  0  0  0  0  0  0
    1.5691    7.9501   16.7983 C   0  0  0  0  0  0  0  0  0  0  0  0
    2.4097    8.5908   17.0454 H   0  0  0  0  0  0  0  0  0  0  0  0
    1.3951    7.2104   17.5704 H   0  0  0  0  0  0  0  0  0  0  0  0
    0.6852    8.5517   16.6225 H   0  0  0  0  0  0  0  0  0  0  0  0
    0.4844    6.0074   15.2490 C   0  0  0  0  0  0  0  0  0  0  0  0
    0.4465    5.5048   14.2899 H   0  0  0  0  0  0  0  0  0  0  0  0
   -0.3862    6.6370   15.3842 H   0  0  0  0  0  0  0  0  0  0  0  0
    0.5965    5.2916   16.0543 H   0  0  0  0  0  0  0  0  0  0  0  0
    4.5324    3.8922   12.5165 C   0  0  0  0  0  0  0  0  0  0  0  0
    4.6817    4.7309   11.8453 H   0  0  0  0  0  0  0  0  0  0  0  0
    4.1077    3.0525   11.9799 H   0  0  0  0  0  0  0  0  0  0  0  0
    5.4683    3.6375   13.0002 H   0  0  0  0  0  0  0  0  0  0  0  0
    3.0383    2.7661   14.5017 C   0  0  0  0  0  0  0  0  0  0  0  0
    2.4977    2.8879   15.4348 H   0  0  0  0  0  0  0  0  0  0  0  0
    3.9857    2.2665   14.6613 H   0  0  0  0  0  0  0  0  0  0  0  0
    2.4293    2.2294   13.7838 H   0  0  0  0  0  0  0  0  0  0  0  0
  1  5  1  0  0  0  0
  1  2  1  0  0  0  0
  1  4  1  0  0  0  0
  3  1  1  0  0  0  0
  4  7  1  0  0  0  0
  4 29  1  0  0  0  0
  4 25  1  0  0  0  0
  5 37  1  0  0  0  0
  5 33  1  0  0  0  0
  6 45  1  0  0  0  0
  6  1  1  0  0  0  0
  8  5  1  0  0  0  0
  9  6  1  0  0  0  0
 10  1  1  0  0  0  0
 11 10  1  0  0  0  0
 11 12  1  0  0  0  0
 13 10  1  0  0  0  0
 14 13  1  0  0  0  0
 15 24  1  0  0  0  0
 15 13  2  0  0  0  0
 16 15  1  0  0  0  0
 17 16  1  0  0  0  0
 18 16  1  0  0  0  0
 18 20  2  0  0  0  0
 19 18  1  0  0  0  0
 20 22  1  0  0  0  0
 21 20  1  0  0  0  0
 22 24  2  0  0  0  0
 22 23  1  0  0  0  0
 24 11  1  0  0  0  0
 25 26  1  0  0  0  0
 25 27  1  0  0  0  0
 25 28  1  0  0  0  0
 29 32  1  0  0  0  0
 29 31  1  0  0  0  0
 30 29  1  0  0  0  0
 33 34  1  0  0  0  0
 33 35  1  0  0  0  0
 36 33  1  0  0  0  0
 37 39  1  0  0  0  0
 37 40  1  0  0  0  0
 38 37  1  0  0  0  0
 41 44  1  0  0  0  0
 41  6  1  0  0  0  0
 42 41  1  0  0  0  0
 43 41  1  0  0  0  0
 45 47  1  0  0  0  0
 45 46  1  0  0  0  0
 48 45  1  0  0  0  0
M  END
$$$$
