CSD_code = DEXDOA | q = 0 | S = 0 | Stoichiometry = C9H22Cl2N2O3OsS3 | MND = 6
 OpenBabel04212202023D

 42 42  0  0  0  0  0  0  0  0999 V2000
   -1.7081    4.4224    6.3619 Os  0  0  0  0  0  0  0  0  0  0  0  0
   -1.0108    5.1389    8.4525 Cl  0  0  0  0  0  0  0  0  0  0  0  0
   -2.7830    6.4054    5.8116 Cl  0  0  0  0  0  0  0  0  0  0  0  0
   -3.6081    3.8448    7.4457 S   0  0  0  0  0  0  0  0  0  0  0  0
   -0.6339    2.4736    6.7737 S   0  0  0  0  0  0  0  0  0  0  0  0
   -2.6078    3.5038    4.4125 S   0  0  0  0  0  0  0  0  0  0  0  0
   -4.6238    3.3358    6.5254 O   0  0  0  0  0  1  0  0  0  0  0  0
   -1.5469    1.3306    6.8124 O   0  0  0  0  0  1  0  0  0  0  0  0
   -1.5439    3.3909    3.3788 O   0  0  0  0  0  1  0  0  0  0  0  0
   -0.0205    5.2267    5.4640 N   0  0  0  0  0  0  0  0  0  0  0  0
    0.2351    5.1883    4.1547 N   0  0  0  0  0  0  0  0  0  0  0  0
   -0.3551    4.5928    3.5572 H   0  0  0  0  0  0  0  0  0  0  0  0
    1.2858    5.9591    3.8449 C   0  0  0  0  0  3  0  0  0  0  0  0
    1.6405    6.0537    2.8390 H   0  0  0  0  0  0  0  0  0  0  0  0
    1.7321    6.5310    5.0164 C   0  0  0  0  0  0  0  0  0  0  0  0
    2.5498    7.2081    5.1453 H   0  0  0  0  0  0  0  0  0  0  0  0
    0.8768    6.0448    6.0051 C   0  0  0  0  0  0  0  0  0  0  0  0
    0.8676    6.2567    7.0569 H   0  0  0  0  0  0  0  0  0  0  0  0
   -3.5072    2.6590    8.8246 C   0  0  0  0  0  0  0  0  0  0  0  0
   -3.0809    1.7397    8.4375 H   0  0  0  0  0  0  0  0  0  0  0  0
   -4.5064    2.4828    9.2040 H   0  0  0  0  0  0  0  0  0  0  0  0
   -2.8649    3.0951    9.5808 H   0  0  0  0  0  0  0  0  0  0  0  0
   -4.3918    5.1954    8.3732 C   0  0  0  0  0  0  0  0  0  0  0  0
   -4.5911    5.9971    7.6694 H   0  0  0  0  0  0  0  0  0  0  0  0
   -3.6889    5.5329    9.1259 H   0  0  0  0  0  0  0  0  0  0  0  0
   -5.3123    4.8273    8.8098 H   0  0  0  0  0  0  0  0  0  0  0  0
    0.4589    2.2972    8.2226 C   0  0  0  0  0  0  0  0  0  0  0  0
   -0.1377    2.4677    9.1110 H   0  0  0  0  0  0  0  0  0  0  0  0
    1.2262    3.0580    8.1555 H   0  0  0  0  0  0  0  0  0  0  0  0
    0.8737    1.2967    8.2242 H   0  0  0  0  0  0  0  0  0  0  0  0
    0.6185    2.0528    5.5095 C   0  0  0  0  0  0  0  0  0  0  0  0
    0.1503    2.1508    4.5346 H   0  0  0  0  0  0  0  0  0  0  0  0
    0.9399    1.0304    5.6681 H   0  0  0  0  0  0  0  0  0  0  0  0
    1.4467    2.7446    5.6028 H   0  0  0  0  0  0  0  0  0  0  0  0
   -3.3596    1.8500    4.3853 C   0  0  0  0  0  0  0  0  0  0  0  0
   -2.7404    1.1841    4.9769 H   0  0  0  0  0  0  0  0  0  0  0  0
   -3.3861    1.5341    3.3492 H   0  0  0  0  0  0  0  0  0  0  0  0
   -4.3467    1.9188    4.8214 H   0  0  0  0  0  0  0  0  0  0  0  0
   -3.9646    4.3943    3.6022 C   0  0  0  0  0  0  0  0  0  0  0  0
   -3.6614    5.4292    3.4847 H   0  0  0  0  0  0  0  0  0  0  0  0
   -4.8164    4.3336    4.2682 H   0  0  0  0  0  0  0  0  0  0  0  0
   -4.1610    3.9296    2.6436 H   0  0  0  0  0  0  0  0  0  0  0  0
  1  5  1  0  0  0  0
  1  4  1  0  0  0  0
  1  2  1  0  0  0  0
  3  1  1  0  0  0  0
  4 23  1  0  0  0  0
  4 19  1  0  0  0  0
  5  8  1  0  0  0  0
  5 27  1  0  0  0  0
  6  1  1  0  0  0  0
  7  4  1  0  0  0  0
  9  6  1  0  0  0  0
 10 17  1  0  0  0  0
 10  1  1  0  0  0  0
 11 10  1  0  0  0  0
 12 11  1  0  0  0  0
 13 11  1  0  0  0  0
 13 15  1  0  0  0  0
 14 13  1  0  0  0  0
 15 16  1  0  0  0  0
 15 17  2  0  0  0  0
 17 18  1  0  0  0  0
 19 21  1  0  0  0  0
 19 22  1  0  0  0  0
 20 19  1  0  0  0  0
 23 26  1  0  0  0  0
 23 25  1  0  0  0  0
 24 23  1  0  0  0  0
 27 30  1  0  0  0  0
 27 28  1  0  0  0  0
 29 27  1  0  0  0  0
 31 34  1  0  0  0  0
 31 33  1  0  0  0  0
 31  5  1  0  0  0  0
 32 31  1  0  0  0  0
 35  6  1  0  0  0  0
 35 38  1  0  0  0  0
 35 36  1  0  0  0  0
 37 35  1  0  0  0  0
 39 41  1  0  0  0  0
 39  6  1  0  0  0  0
 40 39  1  0  0  0  0
 42 39  1  0  0  0  0
M  END
$$$$
