CSD_code = DEYKUO | q = 0 | S = 0 | Stoichiometry = C32H25Cl3O2PRe | MND = 6
 OpenBabel04212202023D

 64 69  0  0  0  0  0  0  0  0999 V2000
    7.2330    4.3800    3.0813 P   0  0  0  0  0  4  0  0  0  0  0  0
    6.3899    3.8772    5.3003 Re  0  0  0  0  0  0  0  0  0  0  0  0
    5.6249    3.3254    7.4347 Cl  0  0  0  0  0  0  0  0  0  0  0  0
    7.3230    6.4152    6.2479 C   0  0  0  0  0  0  0  0  0  0  0  0
    8.4919    5.6334    6.5655 C   0  0  0  0  0  0  0  0  0  0  0  0
    7.1308    7.8587    6.3522 C   0  0  0  0  0  0  0  0  0  0  0  0
    5.8245    8.3415    6.4597 C   0  0  0  0  0  0  0  0  0  0  0  0
    5.0091    7.6352    6.5131 H   0  0  0  0  0  0  0  0  0  0  0  0
    5.5840    9.7000    6.5055 C   0  0  0  0  0  0  0  0  0  0  0  0
    4.5709   10.0622    6.5956 H   0  0  0  0  0  0  0  0  0  0  0  0
    6.6392   10.5955    6.4379 C   0  0  0  0  0  0  0  0  0  0  0  0
    6.4518   11.6580    6.4772 H   0  0  0  0  0  0  0  0  0  0  0  0
    7.9363   10.1233    6.3123 C   0  0  0  0  0  0  0  0  0  0  0  0
    8.7595   10.8192    6.2442 H   0  0  0  0  0  0  0  0  0  0  0  0
    8.1869    8.7658    6.2633 C   0  0  0  0  0  0  0  0  0  0  0  0
    9.1965    8.4077    6.1367 H   0  0  0  0  0  0  0  0  0  0  0  0
    9.6662    6.1416    7.2861 C   0  0  0  0  0  0  0  0  0  0  0  0
    9.5301    6.9870    8.3859 C   0  0  0  0  0  0  0  0  0  0  0  0
    8.5472    7.2968    8.7052 H   0  0  0  0  0  0  0  0  0  0  0  0
   10.6538    7.4031    9.0739 C   0  0  0  0  0  0  0  0  0  0  0  0
   10.5461    8.0518    9.9300 H   0  0  0  0  0  0  0  0  0  0  0  0
   11.9143    6.9874    8.6728 C   0  0  0  0  0  0  0  0  0  0  0  0
   12.7886    7.3200    9.2118 H   0  0  0  0  0  0  0  0  0  0  0  0
   12.0513    6.1367    7.5879 C   0  0  0  0  0  0  0  0  0  0  0  0
   13.0314    5.8039    7.2807 H   0  0  0  0  0  0  0  0  0  0  0  0
   10.9325    5.7046    6.9012 C   0  0  0  0  0  0  0  0  0  0  0  0
   11.0245    5.0358    6.0584 H   0  0  0  0  0  0  0  0  0  0  0  0
    6.1655    3.9469    1.6794 C   0  0  0  0  0  0  0  0  0  0  0  0
    5.5948    2.6770    1.6809 C   0  0  0  0  0  0  0  0  0  0  0  0
    5.7771    2.0138    2.5159 H   0  0  0  0  0  0  0  0  0  0  0  0
    4.7928    2.2801    0.6277 C   0  0  0  0  0  0  0  0  0  0  0  0
    4.3448    1.2981    0.6337 H   0  0  0  0  0  0  0  0  0  0  0  0
    4.5579    3.1447   -0.4298 C   0  0  0  0  0  0  0  0  0  0  0  0
    3.9266    2.8365   -1.2498 H   0  0  0  0  0  0  0  0  0  0  0  0
    5.1280    4.4068   -0.4345 C   0  0  0  0  0  0  0  0  0  0  0  0
    4.9444    5.0810   -1.2584 H   0  0  0  0  0  0  0  0  0  0  0  0
    5.9318    4.8123    0.6161 C   0  0  0  0  0  0  0  0  0  0  0  0
    6.3704    5.8008    0.6122 H   0  0  0  0  0  0  0  0  0  0  0  0
    7.4320    6.1793    2.9725 C   0  0  0  0  0  0  0  0  0  0  0  0
    6.2706    6.9490    3.0524 C   0  0  0  0  0  0  0  0  0  0  0  0
    5.3108    6.4498    3.1000 H   0  0  0  0  0  0  0  0  0  0  0  0
    6.3565    8.3267    3.0823 C   0  0  0  0  0  0  0  0  0  0  0  0
    5.4579    8.9221    3.1409 H   0  0  0  0  0  0  0  0  0  0  0  0
    7.5979    8.9446    3.0502 C   0  0  0  0  0  0  0  0  0  0  0  0
    7.6635   10.0216    3.0807 H   0  0  0  0  0  0  0  0  0  0  0  0
    8.7521    8.1825    2.9930 C   0  0  0  0  0  0  0  0  0  0  0  0
    9.7182    8.6651    2.9798 H   0  0  0  0  0  0  0  0  0  0  0  0
    8.6749    6.8002    2.9586 C   0  0  0  0  0  0  0  0  0  0  0  0
    9.5754    6.2026    2.9195 H   0  0  0  0  0  0  0  0  0  0  0  0
    8.8472    3.6990    2.6004 C   0  0  0  0  0  0  0  0  0  0  0  0
    9.2574    3.7590    1.2709 C   0  0  0  0  0  0  0  0  0  0  0  0
    8.6043    4.1915    0.5259 H   0  0  0  0  0  0  0  0  0  0  0  0
   10.4950    3.2610    0.9092 C   0  0  0  0  0  0  0  0  0  0  0  0
   10.8118    3.3070   -0.1223 H   0  0  0  0  0  0  0  0  0  0  0  0
   11.3267    2.7006    1.8665 C   0  0  0  0  0  0  0  0  0  0  0  0
   12.2913    2.3092    1.5788 H   0  0  0  0  0  0  0  0  0  0  0  0
   10.9193    2.6376    3.1886 C   0  0  0  0  0  0  0  0  0  0  0  0
   11.5646    2.1953    3.9331 H   0  0  0  0  0  0  0  0  0  0  0  0
    9.6812    3.1335    3.5588 C   0  0  0  0  0  0  0  0  0  0  0  0
    9.3561    3.0793    4.5876 H   0  0  0  0  0  0  0  0  0  0  0  0
    6.8142    1.7608    4.9665 Cl  0  0  0  0  0  0  0  0  0  0  0  0
    4.2523    3.9104    4.5427 Cl  0  0  0  0  0  0  0  0  0  0  0  0
    6.4163    5.6719    5.7307 O   0  0  0  0  0  0  0  0  0  0  0  0
    8.4441    4.4298    6.2032 O   0  0  0  0  0  0  0  0  0  0  0  0
  1  2  1  0  0  0  0
  2 63  1  0  0  0  0
  2 64  1  0  0  0  0
  2  3  1  0  0  0  0
  4  6  1  0  0  0  0
  4  5  2  0  0  0  0
  5 17  1  0  0  0  0
  6  7  1  0  0  0  0
  7  9  2  0  0  0  0
  7  8  1  0  0  0  0
  9 10  1  0  0  0  0
 11 12  1  0  0  0  0
 11  9  1  0  0  0  0
 13 11  2  0  0  0  0
 14 13  1  0  0  0  0
 15 13  1  0  0  0  0
 15  6  2  0  0  0  0
 16 15  1  0  0  0  0
 17 18  1  0  0  0  0
 18 19  1  0  0  0  0
 18 20  2  0  0  0  0
 20 21  1  0  0  0  0
 22 20  1  0  0  0  0
 22 23  1  0  0  0  0
 24 22  2  0  0  0  0
 25 24  1  0  0  0  0
 26 17  2  0  0  0  0
 26 24  1  0  0  0  0
 27 26  1  0  0  0  0
 28 29  1  0  0  0  0
 28  1  1  0  0  0  0
 29 30  1  0  0  0  0
 31 32  1  0  0  0  0
 31 29  2  0  0  0  0
 33 31  1  0  0  0  0
 34 33  1  0  0  0  0
 35 33  2  0  0  0  0
 35 37  1  0  0  0  0
 36 35  1  0  0  0  0
 37 28  2  0  0  0  0
 38 37  1  0  0  0  0
 39 40  1  0  0  0  0
 39  1  1  0  0  0  0
 40 42  2  0  0  0  0
 40 41  1  0  0  0  0
 42 43  1  0  0  0  0
 44 45  1  0  0  0  0
 44 42  1  0  0  0  0
 46 44  2  0  0  0  0
 47 46  1  0  0  0  0
 48 39  2  0  0  0  0
 48 46  1  0  0  0  0
 49 48  1  0  0  0  0
 50  1  1  0  0  0  0
 50 59  1  0  0  0  0
 51 50  2  0  0  0  0
 52 51  1  0  0  0  0
 53 51  1  0  0  0  0
 53 55  2  0  0  0  0
 54 53  1  0  0  0  0
 55 57  1  0  0  0  0
 56 55  1  0  0  0  0
 57 59  2  0  0  0  0
 57 58  1  0  0  0  0
 59 60  1  0  0  0  0
 61  2  1  0  0  0  0
 62  2  1  0  0  0  0
 63  4  1  0  0  0  0
 64  5  1  0  0  0  0
M  END
$$$$
