CSD_code = DEYQUU | q = 0 | S = 0 | Stoichiometry = C20H16Br2CdN4 | MND = 6
 OpenBabel04212202023D

 43 48  0  0  1  0  0  0  0  0999 V2000
   -1.9420    4.7018    3.2197 Cd  0  0  0  0  0  0  0  0  0  0  0  0
   -0.0248    3.3295    2.2949 Br  0  0  0  0  0  0  0  0  0  0  0  0
   -3.1246    4.9039    1.0166 N   0  0  0  0  0  0  0  0  0  0  0  0
   -3.5374    6.5811    3.0738 N   0  0  0  0  0  0  0  0  0  0  0  0
   -2.8959    3.9424    0.1367 C   0  0  0  0  0  3  0  0  0  0  0  0
   -1.8554    3.6908   -0.0324 H   0  0  0  0  0  0  0  0  0  0  0  0
   -3.9098    3.2749   -0.5356 C   0  0  0  0  0  0  0  0  0  0  0  0
   -3.6741    2.4908   -1.2369 H   0  0  0  0  0  0  0  0  0  0  0  0
   -5.2208    3.6237   -0.2575 C   0  0  0  0  0  0  0  0  0  0  0  0
   -6.0424    3.1077   -0.7316 H   0  0  0  0  0  0  0  0  0  0  0  0
   -5.4665    4.6406    0.6494 C   0  0  0  0  0  0  0  0  0  0  0  0
   -6.4798    4.9070    0.9021 H   0  0  0  0  0  0  0  0  0  0  0  0
   -4.3866    5.2701    1.2660 C   0  0  0  0  0  0  0  0  0  0  0  0
   -4.5649    6.3506    2.2544 C   0  0  2  0  0  3  0  0  0  0  0  0
   -5.7382    7.1021    2.3346 C   0  0  0  0  0  0  0  0  0  0  0  0
   -6.5484    6.9352    1.6434 H   0  0  0  0  0  0  0  0  0  0  0  0
   -5.8462    8.0775    3.3093 C   0  0  0  0  0  0  0  0  0  0  0  0
   -6.7484    8.6650    3.3949 H   0  0  0  0  0  0  0  0  0  0  0  0
   -4.7823    8.2853    4.1730 C   0  0  0  0  0  0  0  0  0  0  0  0
   -4.8321    9.0269    4.9542 H   0  0  0  0  0  0  0  0  0  0  0  0
   -3.6447    7.5116    4.0051 C   0  0  0  0  0  0  0  0  0  0  0  0
   -2.7798    7.6383    4.6450 H   0  0  0  0  0  0  0  0  0  0  0  0
   -3.8589    3.3285    4.1439 Br  0  0  0  0  0  0  0  0  0  0  0  0
   -0.7601    4.9041    5.4230 N   0  0  0  0  0  0  0  0  0  0  0  0
   -0.3468    6.5817    3.3663 N   0  0  0  0  0  0  0  0  0  0  0  0
   -0.9892    3.9428    6.3031 C   0  0  0  0  0  3  0  0  0  0  0  0
   -2.0297    3.6909    6.4715 H   0  0  0  0  0  0  0  0  0  0  0  0
    0.0244    3.2755    6.9759 C   0  0  0  0  0  0  0  0  0  0  0  0
   -0.2115    2.4913    7.6771 H   0  0  0  0  0  0  0  0  0  0  0  0
    1.3355    3.6242    6.6982 C   0  0  0  0  0  0  0  0  0  0  0  0
    2.1570    3.1083    7.1727 H   0  0  0  0  0  0  0  0  0  0  0  0
    1.5816    4.6410    5.7913 C   0  0  0  0  0  0  0  0  0  0  0  0
    2.5950    4.9075    5.5390 H   0  0  0  0  0  0  0  0  0  0  0  0
    0.5019    5.2703    5.1741 C   0  0  0  0  0  0  0  0  0  0  0  0
    0.6806    6.3509    4.1857 C   0  0  2  0  0  3  0  0  0  0  0  0
    1.8540    7.1022    4.1058 C   0  0  0  0  0  0  0  0  0  0  0  0
    2.6640    6.9352    4.7971 H   0  0  0  0  0  0  0  0  0  0  0  0
    1.9622    8.0778    3.1313 C   0  0  0  0  0  0  0  0  0  0  0  0
    2.8645    8.6651    3.0459 H   0  0  0  0  0  0  0  0  0  0  0  0
    0.8983    8.2859    2.2676 C   0  0  0  0  0  0  0  0  0  0  0  0
    0.9483    9.0276    1.4865 H   0  0  0  0  0  0  0  0  0  0  0  0
   -0.2394    7.5124    2.4353 C   0  0  0  0  0  0  0  0  0  0  0  0
   -1.1040    7.6391    1.7951 H   0  0  0  0  0  0  0  0  0  0  0  0
  1 25  1  0  0  0  0
  1 23  1  0  0  0  0
  1 24  1  0  0  0  0
  2  1  1  0  0  0  0
  3 13  1  0  0  0  0
  3  1  1  0  0  0  0
  4  1  1  0  0  0  0
  4 21  1  0  0  0  0
  5  3  1  0  0  0  0
  6  5  1  0  0  0  0
  7  9  2  0  0  0  0
  7  5  1  0  0  0  0
  8  7  1  0  0  0  0
  9 11  1  0  0  0  0
 10  9  1  0  0  0  0
 11 12  1  0  0  0  0
 11 13  2  0  0  0  0
 14 13  1  6  0  0  0
 14 15  1  0  0  0  0
 14  4  1  0  0  0  0
 15 17  2  0  0  0  0
 16 15  1  0  0  0  0
 17 18  1  0  0  0  0
 17 19  1  0  0  0  0
 19 20  1  0  0  0  0
 21 19  2  0  0  0  0
 21 22  1  0  0  0  0
 24 26  1  0  0  0  0
 25 35  1  0  0  0  0
 26 27  1  0  0  0  0
 26 28  1  0  0  0  0
 28 29  1  0  0  0  0
 30 28  2  0  0  0  0
 30 31  1  0  0  0  0
 32 30  1  0  0  0  0
 33 32  1  0  0  0  0
 34 24  1  0  0  0  0
 34 32  2  0  0  0  0
 35 36  1  1  0  0  0
 35 34  1  0  0  0  0
 36 37  1  0  0  0  0
 38 36  2  0  0  0  0
 39 38  1  0  0  0  0
 40 42  2  0  0  0  0
 40 38  1  0  0  0  0
 41 40  1  0  0  0  0
 42 25  1  0  0  0  0
 43 42  1  0  0  0  0
M  END
$$$$
