CSD_code = DEYRAB | q = 0 | S = 0 | Stoichiometry = C21H26Cl2N2Ru | MND = 9
 OpenBabel04212202023D

 52 53  0  0  1  0  0  0  0  0999 V2000
   -6.4574    4.4130    3.9307 C   0  0  0  0  0  0  0  0  0  0  0  0
   -7.0448    4.4246    4.8561 H   0  0  0  0  0  0  0  0  0  0  0  0
   -7.0274    4.9348    3.1543 H   0  0  0  0  0  0  0  0  0  0  0  0
   -5.0510    4.9926    4.1229 C   0  0  0  0  0  0  0  0  0  0  0  0
   -4.8287    5.8008    3.4199 H   0  0  0  0  0  0  0  0  0  0  0  0
   -4.8784    5.3613    5.1382 H   0  0  0  0  0  0  0  0  0  0  0  0
   -4.8530    2.7532    3.5656 C   0  0  1  0  0  3  0  0  0  0  0  0
   -7.2150    2.0365    3.4842 C   0  0  0  0  0  0  0  0  0  0  0  0
   -7.9612    2.3103    2.7278 H   0  0  0  0  0  0  0  0  0  0  0  0
   -7.7189    1.9878    4.4579 H   0  0  0  0  0  0  0  0  0  0  0  0
   -6.5288    0.7315    3.1459 C   0  0  1  0  0  0  0  0  0  0  0  0
   -6.1916   -0.2096    4.1552 C   0  0  2  0  0  3  0  0  0  0  0  0
   -5.3442   -1.3062    3.8150 C   0  0  0  0  0  0  0  0  0  0  0  0
   -5.1394   -2.0565    4.5702 H   0  0  0  0  0  0  0  0  0  0  0  0
   -4.7490   -1.4076    2.5654 C   0  0  0  0  0  0  0  0  0  0  0  0
   -5.0932   -0.4387    1.5713 C   0  0  0  0  0  0  0  0  0  0  0  0
   -4.6778   -0.5558    0.5753 H   0  0  0  0  0  0  0  0  0  0  0  0
   -6.0379    0.5655    1.8046 C   0  0  0  0  0  0  0  0  0  0  0  0
   -6.7446   -0.1351    5.5500 C   0  0  0  0  0  0  0  0  0  0  0  0
   -6.1750    0.5910    6.1351 H   0  0  0  0  0  0  0  0  0  0  0  0
   -6.6461   -1.0997    6.0432 H   0  0  0  0  0  0  0  0  0  0  0  0
   -7.7964    0.1481    5.5533 H   0  0  0  0  0  0  0  0  0  0  0  0
   -3.7988   -2.5120    2.2143 C   0  0  0  0  0  0  0  0  0  0  0  0
   -3.6442   -3.1779    3.0602 H   0  0  0  0  0  0  0  0  0  0  0  0
   -2.8347   -2.0919    1.9236 H   0  0  0  0  0  0  0  0  0  0  0  0
   -4.1814   -3.0891    1.3715 H   0  0  0  0  0  0  0  0  0  0  0  0
   -6.5109    1.4424    0.6791 C   0  0  0  0  0  0  0  0  0  0  0  0
   -5.9838    1.1923   -0.2386 H   0  0  0  0  0  0  0  0  0  0  0  0
   -6.3379    2.4961    0.8909 H   0  0  0  0  0  0  0  0  0  0  0  0
   -7.5800    1.2941    0.5165 H   0  0  0  0  0  0  0  0  0  0  0  0
   -2.7555    3.9984    3.9751 C   0  0  0  0  0  0  0  0  0  0  0  0
   -2.2978    3.0619    3.6372 H   0  0  0  0  0  0  0  0  0  0  0  0
   -2.5031    4.1375    5.0322 H   0  0  0  0  0  0  0  0  0  0  0  0
   -2.2456    5.1645    3.1692 C   0  0  0  0  0  0  0  0  0  0  0  0
   -1.5818    6.1964    3.8196 C   0  0  0  0  0  0  0  0  0  0  0  0
   -1.4397    6.1393    4.8895 H   0  0  0  0  0  0  0  0  0  0  0  0
   -1.0902    7.2857    3.1231 C   0  0  0  0  0  0  0  0  0  0  0  0
   -0.5710    8.0745    3.6467 H   0  0  0  0  0  0  0  0  0  0  0  0
   -1.2693    7.3538    1.7535 C   0  0  0  0  0  0  0  0  0  0  0  0
   -0.8919    8.1983    1.1958 H   0  0  0  0  0  0  0  0  0  0  0  0
   -1.9304    6.3308    1.0981 C   0  0  0  0  0  0  0  0  0  0  0  0
   -2.0618    6.3844    0.0264 H   0  0  0  0  0  0  0  0  0  0  0  0
   -2.4239    5.2272    1.7834 C   0  0  0  0  0  0  0  0  0  0  0  0
   -3.1331    4.1445    1.0315 C   0  0  0  0  0  0  0  0  0  0  0  0
   -2.8049    3.1596    1.3609 H   0  0  0  0  0  0  0  0  0  0  0  0
   -2.9429    4.2393   -0.0348 H   0  0  0  0  0  0  0  0  0  0  0  0
   -4.2103    4.2078    1.1896 H   0  0  0  0  0  0  0  0  0  0  0  0
   -3.5122    1.0513    5.5059 Cl  0  0  0  0  0 15  0  0  0  0  0  0
   -2.2463    0.9616    2.4410 Cl  0  0  0  0  0 15  0  0  0  0  0  0
   -6.1752    3.0457    3.5273 N   0  0  1  0  0  0  0  0  0  0  0  0
   -4.1863    3.8502    3.8596 N   0  0  0  0  0  0  0  0  0  0  0  0
   -4.4109    0.8342    3.3516 Ru  0  0  0  0  0  0  0  0  0  0  0  0
  1  4  1  0  0  0  0
  1  2  1  0  0  0  0
  3  1  1  0  0  0  0
  4  6  1  0  0  0  0
  5  4  1  0  0  0  0
  7 52  1  1  0  0  0
  7 51  1  0  0  0  0
  8 10  1  0  0  0  0
  9  8  1  0  0  0  0
 11 18  1  6  0  0  0
 11 52  1  0  0  0  0
 11  8  1  0  0  0  0
 11 12  1  0  0  0  0
 12 19  1  6  0  0  0
 13 12  1  0  0  0  0
 13 14  1  0  0  0  0
 15 13  2  0  0  0  0
 16 18  2  0  0  0  0
 16 15  1  0  0  0  0
 17 16  1  0  0  0  0
 19 22  1  0  0  0  0
 19 21  1  0  0  0  0
 19 20  1  0  0  0  0
 23 15  1  0  0  0  0
 23 24  1  0  0  0  0
 25 23  1  0  0  0  0
 26 23  1  0  0  0  0
 27 29  1  0  0  0  0
 27 18  1  0  0  0  0
 28 27  1  0  0  0  0
 30 27  1  0  0  0  0
 31 33  1  0  0  0  0
 32 31  1  0  0  0  0
 34 35  1  0  0  0  0
 34 31  1  0  0  0  0
 35 36  1  0  0  0  0
 37 38  1  0  0  0  0
 37 35  2  0  0  0  0
 39 37  1  0  0  0  0
 40 39  1  0  0  0  0
 41 39  2  0  0  0  0
 41 43  1  0  0  0  0
 42 41  1  0  0  0  0
 43 34  2  0  0  0  0
 44 47  1  0  0  0  0
 44 45  1  0  0  0  0
 44 43  1  0  0  0  0
 46 44  1  0  0  0  0
 50  8  1  1  0  0  0
 50  7  1  0  0  0  0
 50  1  1  0  0  0  0
 51 31  1  0  0  0  0
 51  4  1  0  0  0  0
M  END
$$$$
