CSD_code = DEZJEA | q = 0 | S = 0 | Stoichiometry = C26H22Cl2P2Pt | MND = 4
 OpenBabel04212202023D

 53 57  0  0  0  0  0  0  0  0999 V2000
    7.3283    4.5505    4.2262 Pt  0  0  0  0  0  0  0  0  0  0  0  0
    7.5062    2.8925    2.6599 Cl  0  0  0  0  0  0  0  0  0  0  0  0
    7.6081    6.2197    2.6865 Cl  0  0  0  0  0  0  0  0  0  0  0  0
    7.0176    2.9855    5.8256 P   0  0  0  0  0  4  0  0  0  0  0  0
    7.1228    6.1051    5.8523 P   0  0  0  0  0  4  0  0  0  0  0  0
    6.7600    3.8766    7.3943 C   0  0  0  0  0  0  0  0  0  0  0  0
    6.5398    3.2910    8.2811 H   0  0  0  0  0  0  0  0  0  0  0  0
    6.8034    5.2065    7.4053 C   0  0  0  0  0  0  0  0  0  0  0  0
    6.6215    5.7906    8.3018 H   0  0  0  0  0  0  0  0  0  0  0  0
    8.2822    1.7544    6.2111 C   0  0  0  0  0  0  0  0  0  0  0  0
    9.1970    1.9395    7.2425 C   0  0  0  0  0  0  0  0  0  0  0  0
    9.1265    2.8150    7.8743 H   0  0  0  0  0  0  0  0  0  0  0  0
   10.1942    1.0036    7.4502 C   0  0  0  0  0  0  0  0  0  0  0  0
   10.9022    1.1418    8.2544 H   0  0  0  0  0  0  0  0  0  0  0  0
   10.2906   -0.1043    6.6238 C   0  0  0  0  0  0  0  0  0  0  0  0
   11.0735   -0.8299    6.7874 H   0  0  0  0  0  0  0  0  0  0  0  0
    9.3938   -0.2767    5.5803 C   0  0  0  0  0  0  0  0  0  0  0  0
    9.4818   -1.1325    4.9278 H   0  0  0  0  0  0  0  0  0  0  0  0
    8.3918    0.6506    5.3681 C   0  0  0  0  0  0  0  0  0  0  0  0
    7.6982    0.5446    4.5453 H   0  0  0  0  0  0  0  0  0  0  0  0
    5.4860    2.0259    5.6939 C   0  0  0  0  0  0  0  0  0  0  0  0
    4.5557    2.4237    4.7413 C   0  0  0  0  0  0  0  0  0  0  0  0
    4.7977    3.2585    4.0897 H   0  0  0  0  0  0  0  0  0  0  0  0
    3.3627    1.7363    4.6138 C   0  0  0  0  0  0  0  0  0  0  0  0
    2.6425    2.0362    3.8675 H   0  0  0  0  0  0  0  0  0  0  0  0
    3.0982    0.6562    5.4406 C   0  0  0  0  0  0  0  0  0  0  0  0
    2.1691    0.1151    5.3396 H   0  0  0  0  0  0  0  0  0  0  0  0
    4.0249    0.2604    6.3931 C   0  0  0  0  0  0  0  0  0  0  0  0
    3.8156   -0.5857    7.0312 H   0  0  0  0  0  0  0  0  0  0  0  0
    5.2205    0.9423    6.5245 C   0  0  0  0  0  0  0  0  0  0  0  0
    5.9531    0.6305    7.2569 H   0  0  0  0  0  0  0  0  0  0  0  0
    5.6707    7.1838    5.7436 C   0  0  0  0  0  0  0  0  0  0  0  0
    4.7104    6.8814    4.7857 C   0  0  0  0  0  0  0  0  0  0  0  0
    4.8829    6.0425    4.1180 H   0  0  0  0  0  0  0  0  0  0  0  0
    3.5776    7.6663    4.6740 C   0  0  0  0  0  0  0  0  0  0  0  0
    2.8348    7.4407    3.9238 H   0  0  0  0  0  0  0  0  0  0  0  0
    3.4029    8.7489    5.5213 C   0  0  0  0  0  0  0  0  0  0  0  0
    2.5215    9.3665    5.4321 H   0  0  0  0  0  0  0  0  0  0  0  0
    4.3592    9.0493    6.4794 C   0  0  0  0  0  0  0  0  0  0  0  0
    4.2205    9.8975    7.1337 H   0  0  0  0  0  0  0  0  0  0  0  0
    5.4949    8.2692    6.5954 C   0  0  0  0  0  0  0  0  0  0  0  0
    6.2509    8.5061    7.3321 H   0  0  0  0  0  0  0  0  0  0  0  0
    8.4774    7.2296    6.2579 C   0  0  0  0  0  0  0  0  0  0  0  0
    8.6639    8.3431    5.4417 C   0  0  0  0  0  0  0  0  0  0  0  0
    7.9771    8.5196    4.6253 H   0  0  0  0  0  0  0  0  0  0  0  0
    9.7307    9.1904    5.6721 C   0  0  0  0  0  0  0  0  0  0  0  0
    9.8779   10.0540    5.0410 H   0  0  0  0  0  0  0  0  0  0  0  0
   10.6157    8.9278    6.7068 C   0  0  0  0  0  0  0  0  0  0  0  0
   11.4489    9.5913    6.8850 H   0  0  0  0  0  0  0  0  0  0  0  0
   10.4427    7.8088    7.5054 C   0  0  0  0  0  0  0  0  0  0  0  0
   11.1414    7.5996    8.3022 H   0  0  0  0  0  0  0  0  0  0  0  0
    9.3798    6.9528    7.2794 C   0  0  0  0  0  0  0  0  0  0  0  0
    9.2480    6.0691    7.8895 H   0  0  0  0  0  0  0  0  0  0  0  0
  1  4  1  0  0  0  0
  1  5  1  0  0  0  0
  2  1  1  0  0  0  0
  3  1  1  0  0  0  0
  4 10  1  0  0  0  0
  4  6  1  0  0  0  0
  5 43  1  0  0  0  0
  5  8  1  0  0  0  0
  6  8  2  0  0  0  0
  6  7  1  0  0  0  0
  8  9  1  0  0  0  0
 10 11  1  0  0  0  0
 11 13  2  0  0  0  0
 11 12  1  0  0  0  0
 13 14  1  0  0  0  0
 15 16  1  0  0  0  0
 15 13  1  0  0  0  0
 17 15  2  0  0  0  0
 18 17  1  0  0  0  0
 19 17  1  0  0  0  0
 19 10  2  0  0  0  0
 20 19  1  0  0  0  0
 21  4  1  0  0  0  0
 21 30  1  0  0  0  0
 22 21  2  0  0  0  0
 23 22  1  0  0  0  0
 24 22  1  0  0  0  0
 24 26  2  0  0  0  0
 25 24  1  0  0  0  0
 26 28  1  0  0  0  0
 27 26  1  0  0  0  0
 28 30  2  0  0  0  0
 28 29  1  0  0  0  0
 30 31  1  0  0  0  0
 32  5  1  0  0  0  0
 32 41  1  0  0  0  0
 33 32  2  0  0  0  0
 34 33  1  0  0  0  0
 35 33  1  0  0  0  0
 35 37  2  0  0  0  0
 36 35  1  0  0  0  0
 37 39  1  0  0  0  0
 38 37  1  0  0  0  0
 39 41  2  0  0  0  0
 39 40  1  0  0  0  0
 41 42  1  0  0  0  0
 43 52  1  0  0  0  0
 44 46  1  0  0  0  0
 44 43  2  0  0  0  0
 45 44  1  0  0  0  0
 46 48  2  0  0  0  0
 47 46  1  0  0  0  0
 48 49  1  0  0  0  0
 48 50  1  0  0  0  0
 50 51  1  0  0  0  0
 52 50  2  0  0  0  0
 52 53  1  0  0  0  0
M  END
$$$$
