CSD_code = DEZWUC | q = 0 | S = 0 | Stoichiometry = C20H26Cl2N2Zn | MND = 4
 OpenBabel04212202023D

 51 53  0  0  1  0  0  0  0  0999 V2000
    4.6976    2.0626    0.9912 Zn  0  0  0  0  0  0  0  0  0  0  0  0
    4.5107    0.3061   -0.4046 Cl  0  0  0  0  0  0  0  0  0  0  0  0
    5.1620    3.7580   -0.1513 N   0  0  0  0  0  0  0  0  0  0  0  0
    3.1396    5.8797   -2.1567 C   0  0  0  0  0  0  0  0  0  0  0  0
    3.7250    6.7770   -2.0069 H   0  0  0  0  0  0  0  0  0  0  0  0
    3.1855    2.7460    2.4306 Cl  0  0  0  0  0  0  0  0  0  0  0  0
    6.8251    1.6124    1.2949 N   0  0  0  0  0  4  0  0  0  0  0  0
    2.2531    5.8088   -3.2184 C   0  0  0  0  0  0  0  0  0  0  0  0
    2.1588    6.6458   -3.8948 H   0  0  0  0  0  0  0  0  0  0  0  0
    1.4930    4.6689   -3.4123 C   0  0  0  0  0  0  0  0  0  0  0  0
    0.8044    4.6128   -4.2423 H   0  0  0  0  0  0  0  0  0  0  0  0
    1.6123    3.6041   -2.5340 C   0  0  0  0  0  0  0  0  0  0  0  0
    1.0156    2.7158   -2.6752 H   0  0  0  0  0  0  0  0  0  0  0  0
    2.4913    3.6776   -1.4696 C   0  0  0  0  0  0  0  0  0  0  0  0
    2.5739    2.8525   -0.7749 H   0  0  0  0  0  0  0  0  0  0  0  0
    3.2673    4.8139   -1.2758 C   0  0  0  0  0  0  0  0  0  0  0  0
    3.6658    4.7682    0.8191 H   0  0  0  0  0  0  0  0  0  0  0  0
    4.2283    4.8698   -0.1135 C   0  0  0  0  0  0  0  0  0  0  0  0
    4.7597    5.8276   -0.1088 H   0  0  0  0  0  0  0  0  0  0  0  0
    6.1700    3.7636   -0.9272 C   0  0  2  0  0  3  0  0  0  0  0  0
    6.6241    5.8170   -1.2959 H   0  0  0  0  0  0  0  0  0  0  0  0
    6.4806    4.8939   -1.8583 C   0  0  0  0  0  0  0  0  0  0  0  0
    5.6399    5.0513   -2.5331 H   0  0  0  0  0  0  0  0  0  0  0  0
    7.0969    2.5887   -0.9190 C   0  0  0  0  0  0  0  0  0  0  0  0
    7.3734    4.6987   -2.4436 H   0  0  0  0  0  0  0  0  0  0  0  0
    7.7904    2.3276    0.4434 C   0  0  0  0  0  0  0  0  0  0  0  0
    7.8644    2.7240   -1.6799 H   0  0  0  0  0  0  0  0  0  0  0  0
    8.2120    3.6472    1.0909 C   0  0  0  0  0  0  0  0  0  0  0  0
    6.5120    1.6997   -1.1742 H   0  0  0  0  0  0  0  0  0  0  0  0
    9.0256    1.4560    0.1782 C   0  0  0  0  0  0  0  0  0  0  0  0
    9.7452    1.9923   -0.4349 H   0  0  0  0  0  0  0  0  0  0  0  0
    7.1984    1.3759    2.6959 C   0  0  0  0  0  0  0  0  0  0  0  0
    8.7412    0.5438   -0.3423 H   0  0  0  0  0  0  0  0  0  0  0  0
    6.0822    0.6108    3.3581 C   0  0  0  0  0  0  0  0  0  0  0  0
    9.5195    1.1874    1.1087 H   0  0  0  0  0  0  0  0  0  0  0  0
    5.7818   -0.6820    2.9385 C   0  0  0  0  0  0  0  0  0  0  0  0
    8.8995    3.4731    1.9148 H   0  0  0  0  0  0  0  0  0  0  0  0
    4.7327   -1.3773    3.5112 C   0  0  0  0  0  0  0  0  0  0  0  0
    7.3429    4.1817    1.4666 H   0  0  0  0  0  0  0  0  0  0  0  0
    3.9788   -0.7925    4.5147 C   0  0  0  0  0  0  0  0  0  0  0  0
    8.7172    4.2722    0.3587 H   0  0  0  0  0  0  0  0  0  0  0  0
    4.2814    0.4858    4.9488 C   0  0  0  0  0  0  0  0  0  0  0  0
    6.7056    0.6921    0.8676 H   0  0  0  0  0  0  0  0  0  0  0  0
    5.3268    1.1855    4.3720 C   0  0  0  0  0  0  0  0  0  0  0  0
    8.1343    0.8040    2.7706 H   0  0  0  0  0  0  0  0  0  0  0  0
    7.3294    2.3351    3.1992 H   0  0  0  0  0  0  0  0  0  0  0  0
    6.3714   -1.1527    2.1632 H   0  0  0  0  0  0  0  0  0  0  0  0
    4.5008   -2.3747    3.1684 H   0  0  0  0  0  0  0  0  0  0  0  0
    3.1538   -1.3327    4.9548 H   0  0  0  0  0  0  0  0  0  0  0  0
    3.6929    0.9489    5.7262 H   0  0  0  0  0  0  0  0  0  0  0  0
    5.5504    2.1883    4.7056 H   0  0  0  0  0  0  0  0  0  0  0  0
  1  7  1  0  0  0  0
  1  6  1  0  0  0  0
  2  1  1  0  0  0  0
  3 18  1  0  0  0  0
  3  1  1  0  0  0  0
  4  5  1  0  0  0  0
  4 16  1  0  0  0  0
  7 32  1  0  0  0  0
  8  4  2  0  0  0  0
  9  8  1  0  0  0  0
 10  8  1  0  0  0  0
 10 12  2  0  0  0  0
 11 10  1  0  0  0  0
 12 14  1  0  0  0  0
 13 12  1  0  0  0  0
 14 16  2  0  0  0  0
 14 15  1  0  0  0  0
 16 18  1  0  0  0  0
 18 19  1  0  0  0  0
 18 17  1  0  0  0  0
 20 22  1  6  0  0  0
 20 24  1  0  0  0  0
 20  3  1  0  0  0  0
 22 21  1  0  0  0  0
 23 22  1  0  0  0  0
 24 26  1  0  0  0  0
 25 22  1  0  0  0  0
 26 28  1  0  0  0  0
 26  7  1  0  0  0  0
 27 24  1  0  0  0  0
 28 39  1  0  0  0  0
 28 37  1  0  0  0  0
 29 24  1  0  0  0  0
 30 26  1  0  0  0  0
 30 35  1  0  0  0  0
 31 30  1  0  0  0  0
 32 45  1  0  0  0  0
 32 46  1  0  0  0  0
 32 34  1  0  0  0  0
 33 30  1  0  0  0  0
 34 44  1  0  0  0  0
 36 34  2  0  0  0  0
 36 38  1  0  0  0  0
 38 40  2  0  0  0  0
 40 42  1  0  0  0  0
 40 49  1  0  0  0  0
 41 28  1  0  0  0  0
 42 50  1  0  0  0  0
 43  7  1  0  0  0  0
 44 51  1  0  0  0  0
 44 42  2  0  0  0  0
 47 36  1  0  0  0  0
 48 38  1  0  0  0  0
M  END
$$$$
