CSD_code = DEZZUD | q = 0 | S = 0 | Stoichiometry = C26H26Cl3P2V | MND = 5
 OpenBabel04212202023D

 58 61  0  0  0  0  0  0  0  0999 V2000
    9.6623    0.4333    2.6659 V   0  0  0  0  0  0  0  0  0  0  0  0
    9.2111   -0.7226    4.2788 Cl  0  0  0  0  0  0  0  0  0  0  0  0
   11.1693    1.3509    1.5397 Cl  0  0  0  0  0  0  0  0  0  0  0  0
    7.7568    0.9916    1.6099 Cl  0  0  0  0  0  0  0  0  0  0  0  0
    9.6409    2.4295    3.8698 P   0  0  0  0  0  4  0  0  0  0  0  0
    9.1295    3.9255    2.9531 C   0  0  0  0  0  0  0  0  0  0  0  0
    8.5289    2.5033    5.3064 C   0  0  0  0  0  0  0  0  0  0  0  0
    8.9251    2.9238    6.5697 C   0  0  0  0  0  0  0  0  0  0  0  0
    8.0091    2.9345    7.6078 C   0  0  0  0  0  0  0  0  0  0  0  0
    6.7044    2.5243    7.3910 C   0  0  0  0  0  0  0  0  0  0  0  0
    6.3101    2.0946    6.1329 C   0  0  0  0  0  0  0  0  0  0  0  0
    7.2194    2.0784    5.0923 C   0  0  0  0  0  0  0  0  0  0  0  0
   11.2766    2.8239    4.5543 C   0  0  0  0  0  0  0  0  0  0  0  0
   11.7467    4.1133    4.7782 C   0  0  0  0  0  0  0  0  0  0  0  0
   13.0132    4.3045    5.3028 C   0  0  0  0  0  0  0  0  0  0  0  0
   13.8150    3.2169    5.6073 C   0  0  0  0  0  0  0  0  0  0  0  0
   13.3524    1.9296    5.3844 C   0  0  0  0  0  0  0  0  0  0  0  0
   12.0894    1.7338    4.8576 C   0  0  0  0  0  0  0  0  0  0  0  0
    9.9349   -1.4499    1.2883 P   0  0  0  0  0  4  0  0  0  0  0  0
   11.3150   -2.5125    1.8554 C   0  0  0  0  0  0  0  0  0  0  0  0
   10.3157   -1.0781   -0.4438 C   0  0  0  0  0  0  0  0  0  0  0  0
    9.2588   -0.6323   -1.2357 C   0  0  0  0  0  0  0  0  0  0  0  0
    9.4831   -0.2644   -2.5480 C   0  0  0  0  0  0  0  0  0  0  0  0
   10.7629   -0.3301   -3.0772 C   0  0  0  0  0  0  0  0  0  0  0  0
   11.8180   -0.7556   -2.2880 C   0  0  0  0  0  0  0  0  0  0  0  0
   11.6004   -1.1248   -0.9718 C   0  0  0  0  0  0  0  0  0  0  0  0
    8.5945   -2.6672    1.0867 C   0  0  0  0  0  0  0  0  0  0  0  0
    8.7304   -3.7153    0.1798 C   0  0  0  0  0  0  0  0  0  0  0  0
    7.7164   -4.6430    0.0391 C   0  0  0  0  0  0  0  0  0  0  0  0
    6.5610   -4.5289    0.7973 C   0  0  0  0  0  0  0  0  0  0  0  0
    6.4173   -3.4810    1.6904 C   0  0  0  0  0  0  0  0  0  0  0  0
    7.4307   -2.5484    1.8358 C   0  0  0  0  0  0  0  0  0  0  0  0
    9.0239    4.7808    3.6218 H   0  0  0  0  0  0  0  0  0  0  0  0
    9.8691    4.1270    2.1765 H   0  0  0  0  0  0  0  0  0  0  0  0
    8.1691    3.7044    2.4830 H   0  0  0  0  0  0  0  0  0  0  0  0
    9.9463    3.2364    6.7414 H   0  0  0  0  0  0  0  0  0  0  0  0
    8.3168    3.2614    8.5907 H   0  0  0  0  0  0  0  0  0  0  0  0
    5.9950    2.5327    8.2055 H   0  0  0  0  0  0  0  0  0  0  0  0
    5.2942    1.7664    5.9677 H   0  0  0  0  0  0  0  0  0  0  0  0
    6.9301    1.7268    4.1072 H   0  0  0  0  0  0  0  0  0  0  0  0
   11.1294    4.9684    4.5436 H   0  0  0  0  0  0  0  0  0  0  0  0
   13.3772    5.3075    5.4736 H   0  0  0  0  0  0  0  0  0  0  0  0
   14.8033    3.3730    6.0142 H   0  0  0  0  0  0  0  0  0  0  0  0
   13.9802    1.0818    5.6177 H   0  0  0  0  0  0  0  0  0  0  0  0
   11.7197    0.7288    4.6653 H   0  0  0  0  0  0  0  0  0  0  0  0
   11.0271   -2.9264    2.8240 H   0  0  0  0  0  0  0  0  0  0  0  0
   11.5129   -3.3209    1.1508 H   0  0  0  0  0  0  0  0  0  0  0  0
   12.2039   -1.8925    1.9873 H   0  0  0  0  0  0  0  0  0  0  0  0
    8.2665   -0.5681   -0.8054 H   0  0  0  0  0  0  0  0  0  0  0  0
    8.6620    0.0806   -3.1593 H   0  0  0  0  0  0  0  0  0  0  0  0
   10.9394   -0.0407   -4.1029 H   0  0  0  0  0  0  0  0  0  0  0  0
   12.8174   -0.7947   -2.6973 H   0  0  0  0  0  0  0  0  0  0  0  0
   12.4332   -1.4376   -0.3580 H   0  0  0  0  0  0  0  0  0  0  0  0
    9.6264   -3.7926   -0.4223 H   0  0  0  0  0  0  0  0  0  0  0  0
    7.8232   -5.4558   -0.6648 H   0  0  0  0  0  0  0  0  0  0  0  0
    5.7700   -5.2559    0.6845 H   0  0  0  0  0  0  0  0  0  0  0  0
    5.5125   -3.3871    2.2728 H   0  0  0  0  0  0  0  0  0  0  0  0
    7.3182   -1.7177    2.5223 H   0  0  0  0  0  0  0  0  0  0  0  0
  1  5  1  0  0  0  0
  1  2  1  0  0  0  0
  3  1  1  0  0  0  0
  4  1  1  0  0  0  0
  5 13  1  0  0  0  0
  5  7  1  0  0  0  0
  6 33  1  0  0  0  0
  6  5  1  0  0  0  0
  7  8  1  0  0  0  0
  8 36  1  0  0  0  0
  8  9  2  0  0  0  0
  9 37  1  0  0  0  0
 10  9  1  0  0  0  0
 10 38  1  0  0  0  0
 11 10  2  0  0  0  0
 12  7  2  0  0  0  0
 12 11  1  0  0  0  0
 13 14  2  0  0  0  0
 13 18  1  0  0  0  0
 14 15  1  0  0  0  0
 15 42  1  0  0  0  0
 15 16  2  0  0  0  0
 16 43  1  0  0  0  0
 17 16  1  0  0  0  0
 17 44  1  0  0  0  0
 18 17  2  0  0  0  0
 19 20  1  0  0  0  0
 19  1  1  0  0  0  0
 20 48  1  0  0  0  0
 20 46  1  0  0  0  0
 21 19  1  0  0  0  0
 22 49  1  0  0  0  0
 22 21  2  0  0  0  0
 23 22  1  0  0  0  0
 24 23  2  0  0  0  0
 24 25  1  0  0  0  0
 25 26  2  0  0  0  0
 26 21  1  0  0  0  0
 26 53  1  0  0  0  0
 27 19  1  0  0  0  0
 27 32  1  0  0  0  0
 28 27  2  0  0  0  0
 29 28  1  0  0  0  0
 29 30  2  0  0  0  0
 30 31  1  0  0  0  0
 31 32  2  0  0  0  0
 31 57  1  0  0  0  0
 32 58  1  0  0  0  0
 34  6  1  0  0  0  0
 35  6  1  0  0  0  0
 39 11  1  0  0  0  0
 40 12  1  0  0  0  0
 41 14  1  0  0  0  0
 45 18  1  0  0  0  0
 47 20  1  0  0  0  0
 50 23  1  0  0  0  0
 51 24  1  0  0  0  0
 52 25  1  0  0  0  0
 54 28  1  0  0  0  0
 55 29  1  0  0  0  0
 56 30  1  0  0  0  0
M  END
$$$$
