CSD_code = DICJEH | q = 0 | S = 0 | Stoichiometry = C9H14AuBr2NO2S2 | MND = 4
 OpenBabel04212202023D

 31 32  0  0  1  0  0  0  0  0999 V2000
   -1.2167    7.3652    6.7970 Au  0  0  0  0  0  0  0  0  0  0  0  0
   -3.5740    6.9435    6.4424 Br  0  0  0  0  0  0  0  0  0  0  0  0
   -0.6742    5.0425    6.3849 Br  0  0  0  0  0  0  0  0  0  0  0  0
   -1.3776    9.7076    7.2659 S   0  0  0  0  0  0  0  0  0  0  0  0
    1.0073    8.1452    7.2216 S   0  0  0  0  0  0  0  0  0  0  0  0
    1.0169   10.7455    7.8195 N   0  0  2  0  0  0  0  0  0  0  0  0
    3.7701   14.8820    6.1958 O   0  0  0  0  0  0  0  0  0  0  0  0
    2.7907   13.6083    4.6257 O   0  0  0  0  0  0  0  0  0  0  0  0
    0.3179    9.6876    7.4754 C   0  0  0  0  0  3  0  0  0  0  0  0
    0.4315   12.0607    7.9655 C   0  0  0  0  0  0  0  0  0  0  0  0
    0.6921   12.4399    8.9589 H   0  0  0  0  0  0  0  0  0  0  0  0
   -0.6543   11.9831    7.8909 H   0  0  0  0  0  0  0  0  0  0  0  0
    0.9788   12.9930    6.8867 C   0  0  0  0  0  0  0  0  0  0  0  0
    0.6790   12.6342    5.9001 H   0  0  0  0  0  0  0  0  0  0  0  0
    0.5581   13.9887    7.0292 H   0  0  0  0  0  0  0  0  0  0  0  0
    2.5081   13.0443    6.9504 C   0  0  1  0  0  0  0  0  0  0  0  0
    2.8379   13.5187    7.8785 H   0  0  0  0  0  0  0  0  0  0  0  0
    3.0691   11.6219    6.8493 C   0  0  0  0  0  0  0  0  0  0  0  0
    4.1533   11.6308    6.9636 H   0  0  0  0  0  0  0  0  0  0  0  0
    2.8323   11.2182    5.8628 H   0  0  0  0  0  0  0  0  0  0  0  0
    2.4596   10.7320    7.9306 C   0  0  0  0  0  0  0  0  0  0  0  0
    2.8199    9.7067    7.8324 H   0  0  0  0  0  0  0  0  0  0  0  0
    2.7273   11.1083    8.9232 H   0  0  0  0  0  0  0  0  0  0  0  0
    3.0306   13.8625    5.7750 C   0  0  0  0  0  0  0  0  0  0  0  0
    4.3515   15.7305    5.1967 C   0  0  0  0  0  0  0  0  0  0  0  0
    3.6317   15.8571    4.3822 H   0  0  0  0  0  0  0  0  0  0  0  0
    4.5196   16.6838    5.7008 H   0  0  0  0  0  0  0  0  0  0  0  0
    5.6528   15.1484    4.6670 C   0  0  0  0  0  0  0  0  0  0  0  0
    6.3501   14.9768    5.4835 H   0  0  0  0  0  0  0  0  0  0  0  0
    6.0985   15.8422    3.9606 H   0  0  0  0  0  0  0  0  0  0  0  0
    5.4607   14.2063    4.1595 H   0  0  0  0  0  0  0  0  0  0  0  0
  1  5  1  0  0  0  0
  1  4  1  0  0  0  0
  2  1  1  0  0  0  0
  3  1  1  0  0  0  0
  4  9  1  0  0  0  0
  5  9  1  0  0  0  0
  6  9  1  6  0  0  0
  6 21  1  0  0  0  0
  6 10  1  0  0  0  0
  8 24  2  0  0  0  0
 10 11  1  0  0  0  0
 12 10  1  0  0  0  0
 13 16  1  0  0  0  0
 13 15  1  0  0  0  0
 13 10  1  0  0  0  0
 14 13  1  0  0  0  0
 16 17  1  1  0  0  0
 18 16  1  0  0  0  0
 18 19  1  0  0  0  0
 18 21  1  0  0  0  0
 20 18  1  0  0  0  0
 21 23  1  0  0  0  0
 22 21  1  0  0  0  0
 24  7  1  0  0  0  0
 24 16  1  0  0  0  0
 25 27  1  0  0  0  0
 25  7  1  0  0  0  0
 26 25  1  0  0  0  0
 28 25  1  0  0  0  0
 28 29  1  0  0  0  0
 30 28  1  0  0  0  0
 31 28  1  0  0  0  0
M  END
$$$$
