CSD_code = DIDMEK | q = -1 | S = 0 | Stoichiometry = C18H15Br3NiP(1-) | MND = 4
 OpenBabel04212202023D

 38 40  0  0  0  0  0  0  0  0999 V2000
    5.8069    4.6059    8.7516 Br  0  0  0  0  0  0  0  0  0  0  0  0
    4.1055    1.1356    7.2399 Br  0  0  0  0  0  0  0  0  0  0  0  0
    4.1479    4.5308    4.9898 Br  0  0  0  0  0  0  0  0  0  0  0  0
    4.5752    3.4608    7.0656 Ni  0  0  0  0  0  0  0  0  0  0  0  0
    2.7785    3.9906    7.9643 P   0  0  0  0  0  4  0  0  0  0  0  0
    2.2127    5.7084    7.6908 C   0  0  0  0  0  0  0  0  0  0  0  0
    3.1334    6.7213    7.4516 C   0  0  0  0  0  0  0  0  0  0  0  0
    4.1897    6.4951    7.4093 H   0  0  0  0  0  0  0  0  0  0  0  0
    2.7041    8.0213    7.2575 C   0  0  0  0  0  0  0  0  0  0  0  0
    3.4276    8.8006    7.0687 H   0  0  0  0  0  0  0  0  0  0  0  0
    1.3527    8.3190    7.2964 C   0  0  0  0  0  0  0  0  0  0  0  0
    1.0153    9.3338    7.1377 H   0  0  0  0  0  0  0  0  0  0  0  0
    0.4307    7.3127    7.5335 C   0  0  0  0  0  0  0  0  0  0  0  0
   -0.6263    7.5399    7.5615 H   0  0  0  0  0  0  0  0  0  0  0  0
    0.8552    6.0118    7.7309 C   0  0  0  0  0  0  0  0  0  0  0  0
    0.1323    5.2289    7.9155 H   0  0  0  0  0  0  0  0  0  0  0  0
    1.2964    3.0527    7.4427 C   0  0  0  0  0  0  0  0  0  0  0  0
    1.0350    2.9298    6.0815 C   0  0  0  0  0  0  0  0  0  0  0  0
    1.7106    3.3697    5.3613 H   0  0  0  0  0  0  0  0  0  0  0  0
   -0.0778    2.2371    5.6450 C   0  0  0  0  0  0  0  0  0  0  0  0
   -0.2675    2.1438    4.5856 H   0  0  0  0  0  0  0  0  0  0  0  0
   -0.9399    1.6583    6.5615 C   0  0  0  0  0  0  0  0  0  0  0  0
   -1.8076    1.1107    6.2209 H   0  0  0  0  0  0  0  0  0  0  0  0
   -0.6835    1.7766    7.9166 C   0  0  0  0  0  0  0  0  0  0  0  0
   -1.3508    1.3242    8.6373 H   0  0  0  0  0  0  0  0  0  0  0  0
    0.4288    2.4698    8.3596 C   0  0  0  0  0  0  0  0  0  0  0  0
    0.6209    2.5548    9.4199 H   0  0  0  0  0  0  0  0  0  0  0  0
    2.7301    3.8465    9.7848 C   0  0  0  0  0  0  0  0  0  0  0  0
    3.0349    2.6224   10.3755 C   0  0  0  0  0  0  0  0  0  0  0  0
    3.2759    1.7697    9.7559 H   0  0  0  0  0  0  0  0  0  0  0  0
    3.0430    2.4961   11.7514 C   0  0  0  0  0  0  0  0  0  0  0  0
    3.2860    1.5430   12.1987 H   0  0  0  0  0  0  0  0  0  0  0  0
    2.7531    3.5889   12.5519 C   0  0  0  0  0  0  0  0  0  0  0  0
    2.7668    3.4922   13.6286 H   0  0  0  0  0  0  0  0  0  0  0  0
    2.4593    4.8094   11.9690 C   0  0  0  0  0  0  0  0  0  0  0  0
    2.2430    5.6689   12.5883 H   0  0  0  0  0  0  0  0  0  0  0  0
    2.4501    4.9427   10.5922 C   0  0  0  0  0  0  0  0  0  0  0  0
    2.2356    5.9037   10.1469 H   0  0  0  0  0  0  0  0  0  0  0  0
  3  4  1  0  0  0  0
  4  2  1  0  0  0  0
  4  5  1  0  0  0  0
  4  1  1  0  0  0  0
  5 28  1  0  0  0  0
  6 15  1  0  0  0  0
  6  5  1  0  0  0  0
  7  6  2  0  0  0  0
  8  7  1  0  0  0  0
  9 11  2  0  0  0  0
  9  7  1  0  0  0  0
 10  9  1  0  0  0  0
 11 13  1  0  0  0  0
 12 11  1  0  0  0  0
 13 14  1  0  0  0  0
 13 15  2  0  0  0  0
 15 16  1  0  0  0  0
 17  5  1  0  0  0  0
 17 26  1  0  0  0  0
 18 17  2  0  0  0  0
 19 18  1  0  0  0  0
 20 18  1  0  0  0  0
 20 22  2  0  0  0  0
 21 20  1  0  0  0  0
 22 24  1  0  0  0  0
 23 22  1  0  0  0  0
 24 26  2  0  0  0  0
 24 25  1  0  0  0  0
 26 27  1  0  0  0  0
 28 29  2  0  0  0  0
 28 37  1  0  0  0  0
 29 31  1  0  0  0  0
 30 29  1  0  0  0  0
 31 32  1  0  0  0  0
 31 33  2  0  0  0  0
 33 34  1  0  0  0  0
 35 33  1  0  0  0  0
 35 36  1  0  0  0  0
 37 35  2  0  0  0  0
 38 37  1  0  0  0  0
M  END
$$$$
