CSD_code = DIDREN | q = 0 | S = 0 | Stoichiometry = C14H23Cl2NTi | MND = 8
 OpenBabel04212202023D

 41 41  0  0  1  0  0  0  0  0999 V2000
    1.2121    3.2591  -11.5833 Ti  0  0  0  0  0  0  0  0  0  0  0  0
    3.3923    3.0276  -12.3585 C   0  0  0  0  0  0  0  0  0  0  0  0
    2.5972    2.0417  -12.9883 C   0  0  0  0  0  0  0  0  0  0  0  0
    2.1261    1.1620  -11.9884 C   0  0  0  0  0  0  0  0  0  0  0  0
    2.6074    1.6121  -10.7440 C   0  0  0  0  0  0  0  0  0  0  0  0
    3.3869    2.7691  -10.9686 C   0  0  2  0  0  0  0  0  0  0  0  0
    0.5206    3.7448   -9.5713 Cl  0  0  0  0  0  0  0  0  0  0  0  0
   -0.6923    2.3827  -12.2447 Cl  0  0  0  0  0  0  0  0  0  0  0  0
    1.1813    4.8515  -12.3508 N   0  0  0  0  0  2  0  0  0  0  0  0
    0.7460    6.0235  -12.2715 C   0  0  1  0  0  3  0  0  0  0  0  0
   -0.5603    6.4136  -12.9641 C   0  0  0  0  0  0  0  0  0  0  0  0
   -0.6472    7.9008  -13.3082 C   0  0  0  0  0  0  0  0  0  0  0  0
   -1.6642    6.0370  -11.9608 C   0  0  0  0  0  0  0  0  0  0  0  0
   -0.7240    5.5798  -14.2397 C   0  0  0  0  0  0  0  0  0  0  0  0
    1.4728    7.0699  -11.4554 C   0  0  0  0  0  0  0  0  0  0  0  0
    2.6601    6.4810  -10.6971 C   0  0  0  0  0  0  0  0  0  0  0  0
    3.3750    7.5203   -9.8371 C   0  0  0  0  0  0  0  0  0  0  0  0
    4.5340    6.8953   -9.0706 C   0  0  0  0  0  0  0  0  0  0  0  0
    3.9935    3.7719  -12.8663 H   0  0  0  0  0  0  0  0  0  0  0  0
    2.4788    1.9090  -14.0579 H   0  0  0  0  0  0  0  0  0  0  0  0
    1.5684    0.2503  -12.1632 H   0  0  0  0  0  0  0  0  0  0  0  0
    2.4916    1.1035   -9.7942 H   0  0  0  0  0  0  0  0  0  0  0  0
    3.9766    3.2887  -10.2234 H   0  0  0  0  0  0  0  0  0  0  0  0
    0.1635    8.1923  -13.9722 H   0  0  0  0  0  0  0  0  0  0  0  0
   -0.6146    8.5236  -12.4186 H   0  0  0  0  0  0  0  0  0  0  0  0
   -1.5876    8.0961  -13.8189 H   0  0  0  0  0  0  0  0  0  0  0  0
   -1.5872    4.9788  -11.7000 H   0  0  0  0  0  0  0  0  0  0  0  0
   -2.6420    6.2204  -12.4005 H   0  0  0  0  0  0  0  0  0  0  0  0
   -1.5778    6.6244  -11.0486 H   0  0  0  0  0  0  0  0  0  0  0  0
   -0.6612    4.5159  -14.0047 H   0  0  0  0  0  0  0  0  0  0  0  0
   -1.6886    5.7824  -14.6983 H   0  0  0  0  0  0  0  0  0  0  0  0
    0.0607    5.8239  -14.9535 H   0  0  0  0  0  0  0  0  0  0  0  0
    0.7636    7.5094  -10.7500 H   0  0  0  0  0  0  0  0  0  0  0  0
    1.8115    7.8643  -12.1257 H   0  0  0  0  0  0  0  0  0  0  0  0
    3.3658    6.0564  -11.4182 H   0  0  0  0  0  0  0  0  0  0  0  0
    2.2982    5.6674  -10.0564 H   0  0  0  0  0  0  0  0  0  0  0  0
    3.7499    8.3280  -10.4707 H   0  0  0  0  0  0  0  0  0  0  0  0
    2.6664    7.9539   -9.1284 H   0  0  0  0  0  0  0  0  0  0  0  0
    5.0326    7.6382   -8.4528 H   0  0  0  0  0  0  0  0  0  0  0  0
    5.2646    6.4754   -9.7588 H   0  0  0  0  0  0  0  0  0  0  0  0
    4.1718    6.0983   -8.4249 H   0  0  0  0  0  0  0  0  0  0  0  0
  1  6  1  0  0  0  0
  1  7  1  0  0  0  0
  2  6  1  0  0  0  0
  3  2  2  0  0  0  0
  3  4  1  0  0  0  0
  4  5  2  0  0  0  0
  5 22  1  0  0  0  0
  6  5  1  0  0  0  0
  6 23  1  1  0  0  0
  8  1  1  0  0  0  0
  9  1  1  0  0  0  0
 10  9  1  1  0  0  0
 10 15  1  0  0  0  0
 11 10  1  0  0  0  0
 11 13  1  0  0  0  0
 12 11  1  0  0  0  0
 12 25  1  0  0  0  0
 13 27  1  0  0  0  0
 13 29  1  0  0  0  0
 14 30  1  0  0  0  0
 14 11  1  0  0  0  0
 15 33  1  0  0  0  0
 15 16  1  0  0  0  0
 16 36  1  0  0  0  0
 16 17  1  0  0  0  0
 17 38  1  0  0  0  0
 17 18  1  0  0  0  0
 18 39  1  0  0  0  0
 18 41  1  0  0  0  0
 19  2  1  0  0  0  0
 20  3  1  0  0  0  0
 21  4  1  0  0  0  0
 24 12  1  0  0  0  0
 26 12  1  0  0  0  0
 28 13  1  0  0  0  0
 31 14  1  0  0  0  0
 32 14  1  0  0  0  0
 34 15  1  0  0  0  0
 35 16  1  0  0  0  0
 37 17  1  0  0  0  0
 40 18  1  0  0  0  0
M  END
$$$$
