CSD_code = DIFNOX | q = 0 | S = 0 | Stoichiometry = C17H15ClCuN3O | MND = 4
 OpenBabel04212202023D

 38 42  0  0  1  0  0  0  0  0999 V2000
   -2.0167    8.2926   10.7015 Cu  0  0  1  0  0  0  0  0  0  0  0  0
   -2.9303   10.2292   10.9697 Cl  0  0  0  0  0  0  0  0  0  0  0  0
   -2.0746    6.4555   11.2339 N   0  0  1  0  0  0  0  0  0  0  0  0
   -3.8728    6.9585    7.4132 N   0  0  0  0  0  0  0  0  0  0  0  0
   -2.7962    7.9997    9.0757 N   0  0  0  0  0  0  0  0  0  0  0  0
   -0.7519    8.7632   11.8776 O   0  0  0  0  0  0  0  0  0  0  0  0
    0.0479    7.9788   12.5182 C   0  0  0  0  0  0  0  0  0  0  0  0
    1.1066    8.5670   13.2501 C   0  0  0  0  0  0  0  0  0  0  0  0
    1.1814    9.6427   13.2278 H   0  0  0  0  0  0  0  0  0  0  0  0
    2.0105    7.8002   13.9305 C   0  0  0  0  0  0  0  0  0  0  0  0
    2.8171    8.2813   14.4648 H   0  0  0  0  0  0  0  0  0  0  0  0
    1.9163    6.3969   13.9628 C   0  0  0  0  0  0  0  0  0  0  0  0
    0.8790    5.8065   13.2895 C   0  0  0  0  0  0  0  0  0  0  0  0
    0.7674    4.7313   13.3046 H   0  0  0  0  0  0  0  0  0  0  0  0
   -0.0644    6.5608   12.5594 C   0  0  0  0  0  0  0  0  0  0  0  0
   -1.1731    5.9066   11.9733 C   0  0  0  0  0  3  0  0  0  0  0  0
   -1.2909    4.8494   12.2186 H   0  0  0  0  0  0  0  0  0  0  0  0
   -3.2536    5.7156   10.8490 C   0  0  0  0  0  0  0  0  0  0  0  0
   -4.1262    6.2726   11.2072 H   0  0  0  0  0  0  0  0  0  0  0  0
   -3.2433    4.7278   11.3251 H   0  0  0  0  0  0  0  0  0  0  0  0
   -3.3432    5.5531    9.3367 C   0  0  0  0  0  0  0  0  0  0  0  0
   -2.4762    4.9867    8.9800 H   0  0  0  0  0  0  0  0  0  0  0  0
   -4.2393    4.9912    9.0725 H   0  0  0  0  0  0  0  0  0  0  0  0
   -3.3793    6.8561    8.6134 C   0  0  0  0  0  0  0  0  0  0  0  0
   -3.6219    8.2524    7.0182 C   0  0  0  0  0  0  0  0  0  0  0  0
   -3.9029    8.8848    5.8148 C   0  0  0  0  0  0  0  0  0  0  0  0
   -4.4169    8.3524    5.0302 H   0  0  0  0  0  0  0  0  0  0  0  0
   -3.4827   10.1890    5.6643 C   0  0  0  0  0  0  0  0  0  0  0  0
   -3.6878   10.7144    4.7432 H   0  0  0  0  0  0  0  0  0  0  0  0
   -2.7778   10.8415    6.6759 C   0  0  0  0  0  0  0  0  0  0  0  0
   -2.4454   11.8562    6.5144 H   0  0  0  0  0  0  0  0  0  0  0  0
   -2.4876   10.2259    7.8774 C   0  0  0  0  0  0  0  0  0  0  0  0
   -1.9409   10.7458    8.6473 H   0  0  0  0  0  0  0  0  0  0  0  0
   -2.9353    8.9254    8.0544 C   0  0  0  0  0  0  0  0  0  0  0  0
    2.9267    5.5996   14.7272 C   0  0  0  0  0  0  0  0  0  0  0  0
    2.9432    5.9101   15.7709 H   0  0  0  0  0  0  0  0  0  0  0  0
    3.9229    5.7605   14.3174 H   0  0  0  0  0  0  0  0  0  0  0  0
    2.7004    4.5377   14.6829 H   0  0  0  0  0  0  0  0  0  0  0  0
  1  2  1  1  0  0  0
  1  3  1  0  0  0  0
  1  6  1  0  0  0  0
  3 16  1  1  0  0  0
  4 24  2  0  0  0  0
  5  1  1  0  0  0  0
  6  7  1  0  0  0  0
  7 15  2  0  0  0  0
  7  8  1  0  0  0  0
  8 10  2  0  0  0  0
  9  8  1  0  0  0  0
 10 12  1  0  0  0  0
 10 11  1  0  0  0  0
 12 35  1  0  0  0  0
 13 14  1  0  0  0  0
 13 12  2  0  0  0  0
 15 13  1  0  0  0  0
 16 17  1  0  0  0  0
 16 15  1  0  0  0  0
 18 19  1  0  0  0  0
 18  3  1  0  0  0  0
 18 20  1  0  0  0  0
 21 18  1  0  0  0  0
 22 21  1  0  0  0  0
 23 21  1  0  0  0  0
 24  5  1  0  0  0  0
 24 21  1  0  0  0  0
 25  4  1  0  0  0  0
 25 34  1  0  0  0  0
 26 25  2  0  0  0  0
 27 26  1  0  0  0  0
 28 26  1  0  0  0  0
 28 30  2  0  0  0  0
 29 28  1  0  0  0  0
 30 32  1  0  0  0  0
 31 30  1  0  0  0  0
 32 34  2  0  0  0  0
 32 33  1  0  0  0  0
 34  5  1  0  0  0  0
 35 36  1  0  0  0  0
 37 35  1  0  0  0  0
 38 35  1  0  0  0  0
M  END
$$$$
