CSD_code = DIGLAJ | q = 0 | S = 0 | Stoichiometry = C13H16Cl2N4Pt | MND = 4
 OpenBabel04212202023D

 36 38  0  0  0  0  0  0  0  0999 V2000
    0.2063    2.8491    4.4125 Pt  0  0  0  0  0  0  0  0  0  0  0  0
   -1.9384    2.7536    3.7898 Cl  0  0  0  0  0  0  0  0  0  0  0  0
    0.0304    0.7844    5.2164 Cl  0  0  0  0  0  0  0  0  0  0  0  0
    2.2037    2.9678    4.7044 N   0  0  0  0  0  0  0  0  0  0  0  0
    3.9882    4.1654    4.1727 N   0  0  0  0  0  0  0  0  0  0  0  0
    1.7934    5.0121    3.6252 N   0  0  0  0  0  0  0  0  0  0  0  0
    0.5487    4.6518    3.7595 N   0  0  0  0  0  0  0  0  0  0  0  0
   -0.3876    5.5864    3.3368 C   0  0  0  0  0  0  0  0  0  0  0  0
   -1.5868    5.7322    4.0390 C   0  0  0  0  0  0  0  0  0  0  0  0
   -1.7464    5.1612    4.9413 H   0  0  0  0  0  0  0  0  0  0  0  0
   -2.5351    6.6310    3.5910 C   0  0  0  0  0  0  0  0  0  0  0  0
   -3.4622    6.7387    4.1322 H   0  0  0  0  0  0  0  0  0  0  0  0
   -2.3025    7.3884    2.4540 C   0  0  0  0  0  0  0  0  0  0  0  0
   -3.0536    8.0788    2.1011 H   0  0  0  0  0  0  0  0  0  0  0  0
   -1.1012    7.2641    1.7705 C   0  0  0  0  0  0  0  0  0  0  0  0
   -0.9175    7.8569    0.8870 H   0  0  0  0  0  0  0  0  0  0  0  0
   -0.1415    6.3771    2.2103 C   0  0  0  0  0  0  0  0  0  0  0  0
    0.7907    6.2522    1.6810 H   0  0  0  0  0  0  0  0  0  0  0  0
    2.6379    4.0952    4.1136 C   0  0  0  0  0  0  0  0  0  0  0  0
    3.2991    2.3037    5.1401 C   0  0  0  0  0  0  0  0  0  0  0  0
    3.2197    1.3644    5.6489 H   0  0  0  0  0  0  0  0  0  0  0  0
    4.4087    3.0345    4.8104 C   0  0  0  0  0  0  0  0  0  0  0  0
    5.4464    2.8381    4.9846 H   0  0  0  0  0  0  0  0  0  0  0  0
    4.7945    5.2109    3.5978 C   0  0  0  0  0  0  0  0  0  0  0  0
    5.8183    5.0812    3.9555 H   0  0  0  0  0  0  0  0  0  0  0  0
    4.4076    6.1721    3.9475 H   0  0  0  0  0  0  0  0  0  0  0  0
    4.7504    5.1695    2.0684 C   0  0  0  0  0  0  0  0  0  0  0  0
    3.7111    5.2664    1.7501 H   0  0  0  0  0  0  0  0  0  0  0  0
    5.3024    6.0299    1.6869 H   0  0  0  0  0  0  0  0  0  0  0  0
    5.3472    3.8845    1.4984 C   0  0  0  0  0  0  0  0  0  0  0  0
    4.7955    3.0224    1.8801 H   0  0  0  0  0  0  0  0  0  0  0  0
    6.3852    3.7892    1.8264 H   0  0  0  0  0  0  0  0  0  0  0  0
    5.2951    3.8772   -0.0242 C   0  0  0  0  0  0  0  0  0  0  0  0
    5.7225    2.9577   -0.4154 H   0  0  0  0  0  0  0  0  0  0  0  0
    5.8552    4.7166   -0.4300 H   0  0  0  0  0  0  0  0  0  0  0  0
    4.2669    3.9513   -0.3704 H   0  0  0  0  0  0  0  0  0  0  0  0
  1  4  1  0  0  0  0
  1  3  1  0  0  0  0
  2  1  1  0  0  0  0
  4 20  1  0  0  0  0
  5 22  1  0  0  0  0
  6  7  1  0  0  0  0
  6 19  2  0  0  0  0
  7  1  1  0  0  0  0
  8  7  1  0  0  0  0
  8  9  1  0  0  0  0
  9 10  1  0  0  0  0
 11  9  2  0  0  0  0
 11 12  1  0  0  0  0
 13 11  1  0  0  0  0
 14 13  1  0  0  0  0
 15 17  1  0  0  0  0
 15 13  2  0  0  0  0
 16 15  1  0  0  0  0
 17  8  2  0  0  0  0
 18 17  1  0  0  0  0
 19  5  1  0  0  0  0
 19  4  1  0  0  0  0
 20 21  1  0  0  0  0
 22 23  1  0  0  0  0
 22 20  2  0  0  0  0
 24 26  1  0  0  0  0
 24 25  1  0  0  0  0
 24  5  1  0  0  0  0
 27 24  1  0  0  0  0
 28 27  1  0  0  0  0
 29 27  1  0  0  0  0
 30 32  1  0  0  0  0
 30 31  1  0  0  0  0
 30 27  1  0  0  0  0
 33 30  1  0  0  0  0
 34 33  1  0  0  0  0
 35 33  1  0  0  0  0
 36 33  1  0  0  0  0
M  END
$$$$
