CSD_code = DIGRIX | q = 0 | S = 0 | Stoichiometry = C14H10I2N2Pt | MND = 4
 OpenBabel04212202023D

 29 30  0  0  0  0  0  0  0  0999 V2000
   -0.2566    2.0258    1.8157 Pt  0  0  0  0  0  0  0  0  0  0  0  0
    2.2343    2.0257    1.0129 I   0  0  0  0  0  0  0  0  0  0  0  0
   -0.2565    3.8810    1.8159 N   0  0  0  0  0  2  0  0  0  0  0  0
   -0.2562    0.1705    1.8156 N   0  0  0  0  0  2  0  0  0  0  0  0
   -0.2552    5.0366    1.8167 C   0  0  0  0  0  2  0  0  0  0  0  0
   -0.2549    6.4362    1.8174 C   0  0  0  0  0  0  0  0  0  0  0  0
    0.8865    7.1300    1.4011 C   0  0  0  0  0  0  0  0  0  0  0  0
    1.7600    6.5812    1.0827 H   0  0  0  0  0  0  0  0  0  0  0  0
    0.8760    8.5104    1.4044 C   0  0  0  0  0  0  0  0  0  0  0  0
    1.7529    9.0518    1.0838 H   0  0  0  0  0  0  0  0  0  0  0  0
   -0.2551    9.2000    1.8169 C   0  0  0  0  0  0  0  0  0  0  0  0
   -0.2553   10.2795    1.8161 H   0  0  0  0  0  0  0  0  0  0  0  0
   -0.2556   -0.9851    1.8160 C   0  0  0  0  0  2  0  0  0  0  0  0
   -0.2552   -2.3848    1.8168 C   0  0  0  0  0  0  0  0  0  0  0  0
    0.9329   -3.0786    1.5633 C   0  0  0  0  0  0  0  0  0  0  0  0
    1.8420   -2.5298    1.3687 H   0  0  0  0  0  0  0  0  0  0  0  0
    0.9224   -4.4590    1.5663 C   0  0  0  0  0  0  0  0  0  0  0  0
    1.8356   -5.0004    1.3720 H   0  0  0  0  0  0  0  0  0  0  0  0
   -0.2550   -5.1487    1.8172 C   0  0  0  0  0  0  0  0  0  0  0  0
   -0.2550   -6.2282    1.8171 H   0  0  0  0  0  0  0  0  0  0  0  0
   -1.3962    7.1300    2.2341 C   0  0  0  0  0  0  0  0  0  0  0  0
   -2.2696    6.5812    2.5531 H   0  0  0  0  0  0  0  0  0  0  0  0
   -1.3859    8.5104    2.2302 C   0  0  0  0  0  0  0  0  0  0  0  0
   -2.2630    9.0518    2.5505 H   0  0  0  0  0  0  0  0  0  0  0  0
   -1.4431   -3.0787    2.0710 C   0  0  0  0  0  0  0  0  0  0  0  0
   -2.3522   -2.5300    2.2657 H   0  0  0  0  0  0  0  0  0  0  0  0
   -1.4323   -4.4591    2.0683 C   0  0  0  0  0  0  0  0  0  0  0  0
   -2.3455   -5.0006    2.2631 H   0  0  0  0  0  0  0  0  0  0  0  0
   -2.7475    2.0255    2.6176 I   0  0  0  0  0  0  0  0  0  0  0  0
  1  3  1  0  0  0  0
  1 29  1  0  0  0  0
  2  1  1  0  0  0  0
  3  5  1  0  0  0  0
  4  1  1  0  0  0  0
  4 13  1  0  0  0  0
  5  6  1  0  0  0  0
  6 21  1  0  0  0  0
  7  9  1  0  0  0  0
  7  6  2  0  0  0  0
  8  7  1  0  0  0  0
  9 11  2  0  0  0  0
 10  9  1  0  0  0  0
 11 23  1  0  0  0  0
 12 11  1  0  0  0  0
 13 14  1  0  0  0  0
 14 25  1  0  0  0  0
 15 17  1  0  0  0  0
 15 14  2  0  0  0  0
 16 15  1  0  0  0  0
 17 19  2  0  0  0  0
 18 17  1  0  0  0  0
 19 27  1  0  0  0  0
 20 19  1  0  0  0  0
 21 22  1  0  0  0  0
 23 21  2  0  0  0  0
 23 24  1  0  0  0  0
 25 26  1  0  0  0  0
 27 25  2  0  0  0  0
 27 28  1  0  0  0  0
M  END
$$$$
