CSD_code = DIHBEC | q = 0 | S = 0 | Stoichiometry = C30H26ClN4O3ReS2 | MND = 6
 OpenBabel04212202023D

 67 72  0  0  1  0  0  0  0  0999 V2000
   -5.3240   -9.9989   12.7750 Re  0  0  0  0  0  0  0  0  0  0  0  0
   -5.1782  -10.4850   15.0432 Cl  0  0  0  0  0  0  0  0  0  0  0  0
   -5.9232   -8.4755   12.9252 O   0  0  0  0  0  1  0  0  0  0  0  0
   -5.3481   -9.8647   10.3021 S   0  0  0  0  0  0  0  0  0  0  0  0
   -7.0817   -9.8040   10.2225 C   0  0  2  0  0  3  0  0  0  0  0  0
   -7.8254  -10.8020   10.6372 N   0  0  0  0  0  0  0  0  0  0  0  0
   -7.7176  -11.5582   11.7001 C   0  0  0  0  0  0  0  0  0  0  0  0
   -7.1636  -11.2194   12.7832 O   0  0  0  0  0  0  0  0  0  0  0  0
   -8.3822  -12.8793   11.6412 C   0  0  0  0  0  0  0  0  0  0  0  0
   -9.0832  -13.2808   10.5072 C   0  0  0  0  0  0  0  0  0  0  0  0
   -9.1757  -12.5977    9.6770 H   0  0  0  0  0  0  0  0  0  0  0  0
   -9.6440  -14.5425   10.4567 C   0  0  0  0  0  0  0  0  0  0  0  0
  -10.1889  -14.8541    9.5776 H   0  0  0  0  0  0  0  0  0  0  0  0
   -9.5067  -15.4100   11.5300 C   0  0  0  0  0  0  0  0  0  0  0  0
   -9.9445  -16.3965   11.4845 H   0  0  0  0  0  0  0  0  0  0  0  0
   -8.8091  -15.0139   12.6599 C   0  0  0  0  0  0  0  0  0  0  0  0
   -8.7007  -15.6900   13.4950 H   0  0  0  0  0  0  0  0  0  0  0  0
   -8.2489  -13.7518   12.7189 C   0  0  0  0  0  0  0  0  0  0  0  0
   -7.7014  -13.4270   13.5913 H   0  0  0  0  0  0  0  0  0  0  0  0
   -7.6820   -8.7874    9.5979 N   0  0  0  0  0  0  0  0  0  0  0  0
   -6.9645   -7.7141    9.0187 C   0  0  0  0  0  0  0  0  0  0  0  0
   -7.2316   -6.4124    9.4252 C   0  0  0  0  0  0  0  0  0  0  0  0
   -7.9591   -6.2291   10.2008 H   0  0  0  0  0  0  0  0  0  0  0  0
   -6.5398   -5.3595    8.8552 C   0  0  0  0  0  0  0  0  0  0  0  0
   -6.7421   -4.3503    9.1812 H   0  0  0  0  0  0  0  0  0  0  0  0
   -5.5844   -5.5980    7.8816 C   0  0  0  0  0  0  0  0  0  0  0  0
   -5.0427   -4.7737    7.4430 H   0  0  0  0  0  0  0  0  0  0  0  0
   -5.3232   -6.8953    7.4748 C   0  0  0  0  0  0  0  0  0  0  0  0
   -4.5800   -7.0862    6.7157 H   0  0  0  0  0  0  0  0  0  0  0  0
   -6.0135   -7.9548    8.0352 C   0  0  0  0  0  0  0  0  0  0  0  0
   -5.8174   -8.9668    7.7183 H   0  0  0  0  0  0  0  0  0  0  0  0
   -9.1251   -8.6833    9.6794 C   0  0  0  0  0  0  0  0  0  0  0  0
   -9.4691   -7.9582    8.9453 H   0  0  0  0  0  0  0  0  0  0  0  0
   -9.4422   -8.3764   10.6788 H   0  0  0  0  0  0  0  0  0  0  0  0
   -9.5610   -9.6602    9.4689 H   0  0  0  0  0  0  0  0  0  0  0  0
   -2.9242   -9.3423   12.8525 S   0  0  0  0  0  0  0  0  0  0  0  0
   -2.4222  -10.6546   13.8970 C   0  0  1  0  0  3  0  0  0  0  0  0
   -3.5673  -12.4194   12.8587 C   0  0  0  0  0  0  0  0  0  0  0  0
   -2.5913  -11.9327   13.5901 N   0  0  0  0  0  0  0  0  0  0  0  0
   -4.5962  -11.7506   12.5293 O   0  0  0  0  0  0  0  0  0  0  0  0
   -3.4893  -13.8350   12.4691 C   0  0  0  0  0  0  0  0  0  0  0  0
   -4.6031  -14.4422   11.8910 C   0  0  0  0  0  0  0  0  0  0  0  0
   -5.5037  -13.8654   11.7358 H   0  0  0  0  0  0  0  0  0  0  0  0
   -4.5559  -15.7745   11.5300 C   0  0  0  0  0  0  0  0  0  0  0  0
   -5.4240  -16.2416   11.0887 H   0  0  0  0  0  0  0  0  0  0  0  0
   -3.3969  -16.5060   11.7350 C   0  0  0  0  0  0  0  0  0  0  0  0
   -3.3597  -17.5471   11.4502 H   0  0  0  0  0  0  0  0  0  0  0  0
   -2.2843  -15.9044   12.3051 C   0  0  0  0  0  0  0  0  0  0  0  0
   -1.3828  -16.4782   12.4611 H   0  0  0  0  0  0  0  0  0  0  0  0
   -2.3270  -14.5747   12.6755 C   0  0  0  0  0  0  0  0  0  0  0  0
   -1.4720  -14.0902   13.1198 H   0  0  0  0  0  0  0  0  0  0  0  0
   -1.6512  -10.3616   14.9317 N   0  0  0  0  0  0  0  0  0  0  0  0
   -1.1712  -11.4074   15.8069 C   0  0  0  0  0  0  0  0  0  0  0  0
   -0.2578  -11.0730   16.2946 H   0  0  0  0  0  0  0  0  0  0  0  0
   -0.9862  -12.3053   15.2204 H   0  0  0  0  0  0  0  0  0  0  0  0
   -1.9247  -11.6331   16.5649 H   0  0  0  0  0  0  0  0  0  0  0  0
   -1.4384   -9.0170   15.3508 C   0  0  0  0  0  0  0  0  0  0  0  0
   -2.5045   -8.2570   15.8132 C   0  0  0  0  0  0  0  0  0  0  0  0
   -3.4956   -8.6852   15.8267 H   0  0  0  0  0  0  0  0  0  0  0  0
   -2.2779   -6.9602   16.2366 C   0  0  0  0  0  0  0  0  0  0  0  0
   -3.1057   -6.3655   16.5907 H   0  0  0  0  0  0  0  0  0  0  0  0
   -0.9993   -6.4276   16.2073 C   0  0  0  0  0  0  0  0  0  0  0  0
   -0.8281   -5.4138   16.5369 H   0  0  0  0  0  0  0  0  0  0  0  0
    0.0606   -7.1936   15.7527 C   0  0  0  0  0  0  0  0  0  0  0  0
    1.0576   -6.7799   15.7261 H   0  0  0  0  0  0  0  0  0  0  0  0
   -0.1547   -8.4915   15.3236 C   0  0  0  0  0  0  0  0  0  0  0  0
    0.6648   -9.0903   14.9542 H   0  0  0  0  0  0  0  0  0  0  0  0
  1  8  1  0  0  0  0
  1 36  1  0  0  0  0
  1  3  1  0  0  0  0
  1  2  1  0  0  0  0
  4  1  1  0  0  0  0
  5 20  1  6  0  0  0
  5  4  1  0  0  0  0
  5  6  1  0  0  0  0
  6  7  2  0  0  0  0
  7  8  1  0  0  0  0
  9  7  1  0  0  0  0
  9 18  1  0  0  0  0
 10  9  2  0  0  0  0
 11 10  1  0  0  0  0
 12 10  1  0  0  0  0
 12 14  2  0  0  0  0
 13 12  1  0  0  0  0
 14 16  1  0  0  0  0
 15 14  1  0  0  0  0
 16 18  2  0  0  0  0
 16 17  1  0  0  0  0
 18 19  1  0  0  0  0
 20 32  1  0  0  0  0
 21 22  1  0  0  0  0
 21 20  1  0  0  0  0
 22 23  1  0  0  0  0
 24 25  1  0  0  0  0
 24 22  2  0  0  0  0
 26 24  1  0  0  0  0
 27 26  1  0  0  0  0
 28 26  2  0  0  0  0
 28 30  1  0  0  0  0
 29 28  1  0  0  0  0
 30 21  2  0  0  0  0
 31 30  1  0  0  0  0
 32 34  1  0  0  0  0
 33 32  1  0  0  0  0
 35 32  1  0  0  0  0
 36 37  1  0  0  0  0
 37 52  1  6  0  0  0
 38 39  2  0  0  0  0
 39 37  1  0  0  0  0
 40  1  1  0  0  0  0
 40 38  1  0  0  0  0
 41 50  1  0  0  0  0
 41 38  1  0  0  0  0
 42 41  2  0  0  0  0
 43 42  1  0  0  0  0
 44 46  2  0  0  0  0
 44 42  1  0  0  0  0
 45 44  1  0  0  0  0
 46 48  1  0  0  0  0
 47 46  1  0  0  0  0
 48 49  1  0  0  0  0
 48 50  2  0  0  0  0
 50 51  1  0  0  0  0
 52 57  1  0  0  0  0
 52 53  1  0  0  0  0
 53 54  1  0  0  0  0
 53 56  1  0  0  0  0
 55 53  1  0  0  0  0
 57 58  1  0  0  0  0
 58 59  1  0  0  0  0
 58 60  2  0  0  0  0
 60 61  1  0  0  0  0
 62 60  1  0  0  0  0
 62 63  1  0  0  0  0
 64 62  2  0  0  0  0
 65 64  1  0  0  0  0
 66 57  2  0  0  0  0
 66 64  1  0  0  0  0
 67 66  1  0  0  0  0
M  END
$$$$
