CSD_code = DIHJOV | q = 0 | S = 0 | Stoichiometry = C30H26Cl2N6Pd | MND = 4
 OpenBabel04212202023D

 65 70  0  0  0  0  0  0  0  0999 V2000
    7.4152    1.9066   13.6128 Pd  0  0  0  0  0  0  0  0  0  0  0  0
    6.8220    1.9728   15.8113 Cl  0  0  0  0  0  0  0  0  0  0  0  0
    8.5451   -0.0549   13.8679 Cl  0  0  0  0  0  0  0  0  0  0  0  0
    8.5624    2.4988    9.6545 N   0  0  0  0  0  0  0  0  0  0  0  0
    5.1587    5.2229   12.4998 N   0  0  0  0  0  0  0  0  0  0  0  0
    9.7245    2.4375   10.2599 N   0  0  0  0  0  2  0  0  0  0  0  0
    4.8812    3.3901   13.4654 N   0  0  0  0  0  0  0  0  0  0  0  0
    6.2203    3.4522   13.2889 C   0  0  0  0  0  0  0  0  0  0  0  0
    8.1364    2.0318   11.7725 C   0  0  0  0  0  0  0  0  0  0  0  0
    4.2381    4.4320   12.9979 N   0  0  0  0  0  2  0  0  0  0  0  0
    8.5087    2.7503    8.2714 C   0  0  0  0  0  0  0  0  0  0  0  0
    7.6596    5.1965   12.1496 C   0  0  0  0  0  0  0  0  0  0  0  0
    9.4573    2.1560   11.5119 N   0  0  0  0  0  0  0  0  0  0  0  0
   10.0465    5.3490   12.4291 C   0  0  0  0  0  0  0  0  0  0  0  0
   10.9312    5.1743   13.0227 H   0  0  0  0  0  0  0  0  0  0  0  0
    3.9114    1.5419   10.8186 C   0  0  0  0  0  0  0  0  0  0  0  0
    3.2689    0.8531   11.3460 H   0  0  0  0  0  0  0  0  0  0  0  0
    5.5575    3.3010    9.4425 C   0  0  0  0  0  0  0  0  0  0  0  0
    6.1955    3.9962    8.9158 H   0  0  0  0  0  0  0  0  0  0  0  0
    7.5458    2.2561   10.5264 C   0  0  0  0  0  0  0  0  0  0  0  0
    5.2833    1.4524   10.9654 C   0  0  0  0  0  0  0  0  0  0  0  0
    5.7297    0.6943   11.6059 H   0  0  0  0  0  0  0  0  0  0  0  0
    7.7744    5.8214   10.9087 C   0  0  0  0  0  0  0  0  0  0  0  0
    6.8928    5.9947   10.3082 H   0  0  0  0  0  0  0  0  0  0  0  0
    6.1197    2.3290   10.2688 C   0  0  0  0  0  0  0  0  0  0  0  0
    5.5456    7.5983   12.1891 C   0  0  0  0  0  0  0  0  0  0  0  0
    6.4233    7.5394   12.8140 H   0  0  0  0  0  0  0  0  0  0  0  0
    9.0168    6.2012   10.4365 C   0  0  0  0  0  0  0  0  0  0  0  0
    9.0959    6.6790    9.4707 H   0  0  0  0  0  0  0  0  0  0  0  0
    3.6345    6.5268   11.1713 C   0  0  0  0  0  0  0  0  0  0  0  0
    3.0559    5.6301   11.0145 H   0  0  0  0  0  0  0  0  0  0  0  0
    8.8101    4.9540   12.9053 C   0  0  0  0  0  0  0  0  0  0  0  0
    8.7125    4.4686   13.8744 H   0  0  0  0  0  0  0  0  0  0  0  0
    4.7868    6.4607   11.9440 C   0  0  0  0  0  0  0  0  0  0  0  0
    7.5936    2.3118    6.1064 C   0  0  0  0  0  0  0  0  0  0  0  0
    6.9089    1.7682    5.4739 H   0  0  0  0  0  0  0  0  0  0  0  0
    4.0164    8.8732   10.8461 C   0  0  0  0  0  0  0  0  0  0  0  0
    3.7183    9.8163   10.4143 H   0  0  0  0  0  0  0  0  0  0  0  0
    9.3337    3.9454    6.3698 C   0  0  0  0  0  0  0  0  0  0  0  0
   10.0012    4.6779    5.9426 H   0  0  0  0  0  0  0  0  0  0  0  0
    4.1843    3.3895    9.3121 C   0  0  0  0  0  0  0  0  0  0  0  0
    3.7580    4.1505    8.6745 H   0  0  0  0  0  0  0  0  0  0  0  0
    8.4416    3.2616    5.5597 C   0  0  0  0  0  0  0  0  0  0  0  0
    8.4120    3.4630    4.4999 H   0  0  0  0  0  0  0  0  0  0  0  0
    9.3730    3.6924    7.7287 C   0  0  0  0  0  0  0  0  0  0  0  0
   10.0611    4.2093    8.3789 H   0  0  0  0  0  0  0  0  0  0  0  0
    6.3985    4.6815   12.6494 C   0  0  0  0  0  0  0  0  0  0  0  0
    5.1558    8.8022   11.6314 C   0  0  0  0  0  0  0  0  0  0  0  0
    5.7414    9.6890   11.8184 H   0  0  0  0  0  0  0  0  0  0  0  0
   10.1535    5.9688   11.1939 C   0  0  0  0  0  0  0  0  0  0  0  0
   11.1214    6.2698   10.8218 H   0  0  0  0  0  0  0  0  0  0  0  0
   10.5259    1.9890   12.4535 C   0  0  0  0  0  0  0  0  0  0  0  0
   10.7710    0.9276   12.5391 H   0  0  0  0  0  0  0  0  0  0  0  0
   10.1844    2.3286   13.4403 H   0  0  0  0  0  0  0  0  0  0  0  0
   11.3921    2.5508   12.1096 H   0  0  0  0  0  0  0  0  0  0  0  0
    7.6247    2.0465    7.4632 C   0  0  0  0  0  0  0  0  0  0  0  0
    6.9776    1.2974    7.8928 H   0  0  0  0  0  0  0  0  0  0  0  0
    4.1605    2.3325   14.1122 C   0  0  0  0  0  0  0  0  0  0  0  0
    4.1832    2.4876   15.1937 H   0  0  0  0  0  0  0  0  0  0  0  0
    4.6672    1.3804   13.9060 H   0  0  0  0  0  0  0  0  0  0  0  0
    3.1342    2.3310   13.7508 H   0  0  0  0  0  0  0  0  0  0  0  0
    3.2545    7.7378   10.6225 C   0  0  0  0  0  0  0  0  0  0  0  0
    2.3615    7.7948   10.0192 H   0  0  0  0  0  0  0  0  0  0  0  0
    3.3591    2.5115    9.9962 C   0  0  0  0  0  0  0  0  0  0  0  0
    2.2871    2.5831    9.8892 H   0  0  0  0  0  0  0  0  0  0  0  0
  1  3  1  0  0  0  0
  1  2  1  0  0  0  0
  4  6  1  0  0  0  0
  4 20  1  0  0  0  0
  5 47  1  0  0  0  0
  5 10  1  0  0  0  0
  6 13  1  0  0  0  0
  7 58  1  0  0  0  0
  8  7  1  0  0  0  0
  8  1  1  0  0  0  0
  9  1  1  0  0  0  0
 10  7  1  0  0  0  0
 11  4  1  0  0  0  0
 12 47  1  0  0  0  0
 12 32  1  0  0  0  0
 13  9  1  0  0  0  0
 13 52  1  0  0  0  0
 14 32  2  0  0  0  0
 14 15  1  0  0  0  0
 16 21  1  0  0  0  0
 16 17  1  0  0  0  0
 18 25  1  0  0  0  0
 19 18  1  0  0  0  0
 20  9  2  0  0  0  0
 21 22  1  0  0  0  0
 23 12  2  0  0  0  0
 24 23  1  0  0  0  0
 25 20  1  0  0  0  0
 25 21  2  0  0  0  0
 26 27  1  0  0  0  0
 28 23  1  0  0  0  0
 28 50  2  0  0  0  0
 29 28  1  0  0  0  0
 30 34  2  0  0  0  0
 31 30  1  0  0  0  0
 32 33  1  0  0  0  0
 34 26  1  0  0  0  0
 34  5  1  0  0  0  0
 35 56  1  0  0  0  0
 36 35  1  0  0  0  0
 37 48  1  0  0  0  0
 38 37  1  0  0  0  0
 39 45  2  0  0  0  0
 40 39  1  0  0  0  0
 41 18  2  0  0  0  0
 41 64  1  0  0  0  0
 42 41  1  0  0  0  0
 43 35  2  0  0  0  0
 43 39  1  0  0  0  0
 44 43  1  0  0  0  0
 45 11  1  0  0  0  0
 45 46  1  0  0  0  0
 47  8  2  0  0  0  0
 48 49  1  0  0  0  0
 48 26  2  0  0  0  0
 50 14  1  0  0  0  0
 51 50  1  0  0  0  0
 52 53  1  0  0  0  0
 52 54  1  0  0  0  0
 55 52  1  0  0  0  0
 56 57  1  0  0  0  0
 56 11  2  0  0  0  0
 58 59  1  0  0  0  0
 60 58  1  0  0  0  0
 61 58  1  0  0  0  0
 62 37  2  0  0  0  0
 62 30  1  0  0  0  0
 63 62  1  0  0  0  0
 64 16  2  0  0  0  0
 65 64  1  0  0  0  0
M  END
$$$$
