CSD_code = DIHVEW | q = 0 | S = 0 | Stoichiometry = C20H31ClZr | MND = 12
 OpenBabel04212202023D

 53 54  0  0  1  0  0  0  0  0999 V2000
    3.9773    0.7997   11.9297 Zr  0  0  1  0  0  0  0  0  0  0  0  0
    5.2072    2.4997   10.8370 Cl  0  0  0  0  0  0  0  0  0  0  0  0
    4.6049   -0.3555    9.6937 C   0  0  0  0  0  0  0  0  0  0  0  0
    4.7004    0.1561    8.7454 H   0  0  0  0  0  0  0  0  0  0  0  0
    5.6590   -0.6274   10.5858 C   0  0  0  0  0  0  0  0  0  0  0  0
    6.6974   -0.3601   10.4321 H   0  0  0  0  0  0  0  0  0  0  0  0
    5.1564   -1.4343   11.6237 C   0  0  0  0  0  0  0  0  0  0  0  0
    5.7577   -1.9471   12.3599 H   0  0  0  0  0  0  0  0  0  0  0  0
    3.7773   -1.6371   11.3939 C   0  0  2  0  0  0  0  0  0  0  0  0
    3.1300   -2.3194   11.9332 H   0  0  0  0  0  0  0  0  0  0  0  0
    3.4428   -0.9777   10.1870 C   0  0  0  0  0  0  0  0  0  0  0  0
    2.5062   -1.0816    9.6554 H   0  0  0  0  0  0  0  0  0  0  0  0
    4.9829    2.0782   13.8620 C   0  0  0  0  0  0  0  0  0  0  0  0
    5.5253    0.7662   13.9188 C   0  0  0  0  0  0  0  0  0  0  0  0
    4.4714   -0.1297   14.2515 C   0  0  0  0  0  0  0  0  0  0  0  0
    3.2703    0.6233   14.3411 C   0  0  0  0  0  0  0  0  0  0  0  0
    3.5872    1.9967   14.1113 C   0  0  2  0  0  0  0  0  0  0  0  0
    5.7827    3.3477   13.7826 C   0  0  0  0  0  0  0  0  0  0  0  0
    5.2340    4.1330   13.2635 H   0  0  0  0  0  0  0  0  0  0  0  0
    6.7221    3.1887   13.2565 H   0  0  0  0  0  0  0  0  0  0  0  0
    6.0126    3.7049   14.7900 H   0  0  0  0  0  0  0  0  0  0  0  0
    6.9945    0.4617   13.7890 C   0  0  0  0  0  0  0  0  0  0  0  0
    7.5529    0.9444   14.5942 H   0  0  0  0  0  0  0  0  0  0  0  0
    7.3895    0.8370   12.8400 H   0  0  0  0  0  0  0  0  0  0  0  0
    7.1901   -0.6077   13.8452 H   0  0  0  0  0  0  0  0  0  0  0  0
    4.5880   -1.5436   14.7542 C   0  0  0  0  0  0  0  0  0  0  0  0
    5.6091   -1.9118   14.6862 H   0  0  0  0  0  0  0  0  0  0  0  0
    3.9308   -2.2333   14.2230 H   0  0  0  0  0  0  0  0  0  0  0  0
    4.3024   -1.5718   15.8088 H   0  0  0  0  0  0  0  0  0  0  0  0
    1.9615    0.0561   14.8208 C   0  0  0  0  0  0  0  0  0  0  0  0
    2.0819   -0.3689   15.8197 H   0  0  0  0  0  0  0  0  0  0  0  0
    1.6024   -0.7403   14.1634 H   0  0  0  0  0  0  0  0  0  0  0  0
    1.1959    0.8261   14.8803 H   0  0  0  0  0  0  0  0  0  0  0  0
    2.7120    3.1812   14.4168 C   0  0  0  0  0  0  0  0  0  0  0  0
    2.8319    3.4625   15.4663 H   0  0  0  0  0  0  0  0  0  0  0  0
    1.6578    2.9662   14.2520 H   0  0  0  0  0  0  0  0  0  0  0  0
    2.9915    4.0409   13.8103 H   0  0  0  0  0  0  0  0  0  0  0  0
    1.8102    1.2394   11.5857 C   0  0  0  0  0  0  0  0  0  0  0  0
    1.3037    0.3030   11.2799 H   0  0  0  0  0  0  0  0  0  0  0  0
    1.3091    1.5417   12.5198 H   0  0  0  0  0  0  0  0  0  0  0  0
    1.4390    2.3157   10.5483 C   0  0  0  0  0  0  0  0  0  0  0  0
    2.1005    2.0328    9.1931 C   0  0  0  0  0  0  0  0  0  0  0  0
    1.8049    1.0559    8.8124 H   0  0  0  0  0  0  0  0  0  0  0  0
    3.1873    2.0733    9.2852 H   0  0  0  0  0  0  0  0  0  0  0  0
    1.7929    2.7813    8.4638 H   0  0  0  0  0  0  0  0  0  0  0  0
   -0.0865    2.3522   10.3471 C   0  0  0  0  0  0  0  0  0  0  0  0
   -0.3666    3.1408    9.6513 H   0  0  0  0  0  0  0  0  0  0  0  0
   -0.5948    2.5367   11.2920 H   0  0  0  0  0  0  0  0  0  0  0  0
   -0.4431    1.4042    9.9479 H   0  0  0  0  0  0  0  0  0  0  0  0
    1.9010    3.6913   11.0471 C   0  0  0  0  0  0  0  0  0  0  0  0
    1.7431    4.4470   10.2794 H   0  0  0  0  0  0  0  0  0  0  0  0
    2.9652    3.6642   11.2942 H   0  0  0  0  0  0  0  0  0  0  0  0
    1.3361    3.9867   11.9294 H   0  0  0  0  0  0  0  0  0  0  0  0
  1  2  1  6  0  0  0
  1 17  1  0  0  0  0
  3 11  2  0  0  0  0
  3  5  1  0  0  0  0
  4  3  1  0  0  0  0
  5  7  2  0  0  0  0
  6  5  1  0  0  0  0
  7  8  1  0  0  0  0
  9  7  1  0  0  0  0
  9  1  1  0  0  0  0
  9 10  1  1  0  0  0
 11  9  1  0  0  0  0
 12 11  1  0  0  0  0
 13 14  2  0  0  0  0
 13 17  1  0  0  0  0
 14 15  1  0  0  0  0
 15 16  2  0  0  0  0
 15 26  1  0  0  0  0
 16 30  1  0  0  0  0
 17 16  1  0  0  0  0
 17 34  1  1  0  0  0
 18 13  1  0  0  0  0
 18 21  1  0  0  0  0
 19 18  1  0  0  0  0
 20 18  1  0  0  0  0
 22 25  1  0  0  0  0
 22 14  1  0  0  0  0
 22 23  1  0  0  0  0
 24 22  1  0  0  0  0
 26 29  1  0  0  0  0
 27 26  1  0  0  0  0
 28 26  1  0  0  0  0
 30 33  1  0  0  0  0
 30 31  1  0  0  0  0
 32 30  1  0  0  0  0
 34 35  1  0  0  0  0
 36 34  1  0  0  0  0
 37 34  1  0  0  0  0
 38  1  1  0  0  0  0
 38 40  1  0  0  0  0
 39 38  1  0  0  0  0
 41 50  1  0  0  0  0
 41 38  1  0  0  0  0
 42 44  1  0  0  0  0
 42 41  1  0  0  0  0
 43 42  1  0  0  0  0
 45 42  1  0  0  0  0
 46 41  1  0  0  0  0
 46 48  1  0  0  0  0
 47 46  1  0  0  0  0
 49 46  1  0  0  0  0
 50 52  1  0  0  0  0
 50 53  1  0  0  0  0
 51 50  1  0  0  0  0
M  END
$$$$
