CSD_code = DIJDEH | q = 0 | S = 0 | Stoichiometry = C21H23IN4Pt | MND = 6
 OpenBabel04212202023D

 50 53  0  0  0  0  0  0  0  0999 V2000
    3.7314    2.3712    3.7145 Pt  0  0  0  0  0  0  0  0  0  0  0  0
    1.5725    2.9735    2.1588 I   0  0  0  0  0  0  0  0  0  0  0  0
    4.6987    1.5930    1.8626 N   0  0  0  0  0  0  0  0  0  0  0  0
    3.0865    0.2526    3.6246 N   0  0  0  0  0  0  0  0  0  0  0  0
    0.1108   -2.3109    7.5188 N   0  0  0  0  0  0  0  0  0  0  0  0
   -1.1479   -2.2430    7.5854 N   0  0  0  0  0  0  0  0  0  0  0  0
    5.4168    2.2428    0.9612 C   0  0  0  0  0  3  0  0  0  0  0  0
    5.6042    3.2899    1.1579 H   0  0  0  0  0  0  0  0  0  0  0  0
    5.9134    1.6426   -0.1838 C   0  0  0  0  0  0  0  0  0  0  0  0
    6.4883    2.2193   -0.8901 H   0  0  0  0  0  0  0  0  0  0  0  0
    5.6522    0.2952   -0.3988 C   0  0  0  0  0  0  0  0  0  0  0  0
    6.0213   -0.2046   -1.2815 H   0  0  0  0  0  0  0  0  0  0  0  0
    4.9069   -0.3905    0.5380 C   0  0  0  0  0  0  0  0  0  0  0  0
    4.6742   -1.4366    0.4118 H   0  0  0  0  0  0  0  0  0  0  0  0
    4.4370    0.2895    1.6669 C   0  0  0  0  0  0  0  0  0  0  0  0
    3.6196   -0.3832    2.6445 C   0  0  0  0  0  3  0  0  0  0  0  0
    3.4187   -1.4433    2.4811 H   0  0  0  0  0  0  0  0  0  0  0  0
    2.3170   -0.4109    4.5610 C   0  0  0  0  0  0  0  0  0  0  0  0
    2.7491   -1.6212    5.1225 C   0  0  0  0  0  0  0  0  0  0  0  0
    3.7027   -2.0335    4.8218 H   0  0  0  0  0  0  0  0  0  0  0  0
    2.0019   -2.2447    6.0901 C   0  0  0  0  0  0  0  0  0  0  0  0
    2.3360   -3.1694    6.5347 H   0  0  0  0  0  0  0  0  0  0  0  0
    0.7684   -1.7075    6.4888 C   0  0  0  0  0  0  0  0  0  0  0  0
    0.3348   -0.4973    5.9185 C   0  0  0  0  0  0  0  0  0  0  0  0
   -0.6076   -0.0854    6.2463 H   0  0  0  0  0  0  0  0  0  0  0  0
    1.1042    0.1481    4.9846 C   0  0  0  0  0  0  0  0  0  0  0  0
    0.7602    1.0659    4.5328 H   0  0  0  0  0  0  0  0  0  0  0  0
   -1.7527   -2.6939    8.7389 C   0  0  0  0  0  0  0  0  0  0  0  0
   -1.0812   -2.8628    9.9572 C   0  0  0  0  0  0  0  0  0  0  0  0
   -0.0209   -2.6610    9.9965 H   0  0  0  0  0  0  0  0  0  0  0  0
   -1.7795   -3.2653   11.0752 C   0  0  0  0  0  0  0  0  0  0  0  0
   -1.2639   -3.3916   12.0160 H   0  0  0  0  0  0  0  0  0  0  0  0
   -3.1441   -3.5078   10.9968 C   0  0  0  0  0  0  0  0  0  0  0  0
   -3.6855   -3.8237   11.8762 H   0  0  0  0  0  0  0  0  0  0  0  0
   -3.8155   -3.3399    9.7944 C   0  0  0  0  0  0  0  0  0  0  0  0
   -4.8775   -3.5282    9.7397 H   0  0  0  0  0  0  0  0  0  0  0  0
   -3.1305   -2.9271    8.6703 C   0  0  0  0  0  0  0  0  0  0  0  0
   -3.6320   -2.7905    7.7247 H   0  0  0  0  0  0  0  0  0  0  0  0
    5.4041    1.8357    4.8098 C   0  0  0  0  0  0  0  0  0  0  0  0
    5.2381    0.8509    5.2522 H   0  0  0  0  0  0  0  0  0  0  0  0
    5.6594    2.5226    5.6133 H   0  0  0  0  0  0  0  0  0  0  0  0
    6.2622    1.7689    4.1369 H   0  0  0  0  0  0  0  0  0  0  0  0
    2.8552    2.8964    5.5070 C   0  0  0  0  0  0  0  0  0  0  0  0
    3.4660    3.5603    6.1196 H   0  0  0  0  0  0  0  0  0  0  0  0
    2.6743    1.9805    6.0775 H   0  0  0  0  0  0  0  0  0  0  0  0
    1.8993    3.3907    5.3229 H   0  0  0  0  0  0  0  0  0  0  0  0
    4.4261    4.3076    3.5936 C   0  0  0  0  0  0  0  0  0  0  0  0
    5.4418    4.4228    3.9744 H   0  0  0  0  0  0  0  0  0  0  0  0
    3.7763    5.0068    4.1225 H   0  0  0  0  0  0  0  0  0  0  0  0
    4.4114    4.5816    2.5348 H   0  0  0  0  0  0  0  0  0  0  0  0
  1 39  1  0  0  0  0
  1 43  1  0  0  0  0
  2  1  1  0  0  0  0
  3  1  1  0  0  0  0
  4  1  1  0  0  0  0
  4 18  1  0  0  0  0
  5  6  2  0  0  0  0
  6 28  1  0  0  0  0
  7  8  1  0  0  0  0
  7  3  1  0  0  0  0
  9  7  1  0  0  0  0
 10  9  1  0  0  0  0
 11  9  2  0  0  0  0
 11 13  1  0  0  0  0
 12 11  1  0  0  0  0
 13 15  2  0  0  0  0
 14 13  1  0  0  0  0
 15  3  1  0  0  0  0
 15 16  1  0  0  0  0
 16  4  1  0  0  0  0
 17 16  1  0  0  0  0
 18 26  2  0  0  0  0
 18 19  1  0  0  0  0
 19 21  2  0  0  0  0
 20 19  1  0  0  0  0
 21 23  1  0  0  0  0
 21 22  1  0  0  0  0
 23  5  1  0  0  0  0
 24 25  1  0  0  0  0
 24 23  2  0  0  0  0
 26 24  1  0  0  0  0
 27 26  1  0  0  0  0
 28 29  1  0  0  0  0
 29 30  1  0  0  0  0
 29 31  2  0  0  0  0
 31 32  1  0  0  0  0
 33 31  1  0  0  0  0
 33 34  1  0  0  0  0
 35 33  2  0  0  0  0
 36 35  1  0  0  0  0
 37 28  2  0  0  0  0
 37 35  1  0  0  0  0
 38 37  1  0  0  0  0
 39 40  1  0  0  0  0
 39 41  1  0  0  0  0
 42 39  1  0  0  0  0
 43 45  1  0  0  0  0
 43 44  1  0  0  0  0
 46 43  1  0  0  0  0
 47  1  1  0  0  0  0
 47 48  1  0  0  0  0
 47 49  1  0  0  0  0
 50 47  1  0  0  0  0
M  END
$$$$
