CSD_code = DIJGOU | q = 1 | S = 0 | Stoichiometry = C15H24Cl2N3Ru(1+) | MND = 9
 OpenBabel04212202023D

 45 45  0  0  1  0  0  0  0  0999 V2000
    2.1678    6.8396    3.1345 C   0  0  1  0  0  3  0  0  0  0  0  0
   -0.0089    6.8437    1.8607 C   0  0  0  0  0  0  0  0  0  0  0  0
   -0.9473    6.8006    2.4174 H   0  0  0  0  0  0  0  0  0  0  0  0
   -0.1155    6.3370    0.9021 H   0  0  0  0  0  0  0  0  0  0  0  0
    0.2617    7.8768    1.6478 H   0  0  0  0  0  0  0  0  0  0  0  0
   -0.0702    4.0663    2.6315 C   0  0  0  0  0  0  0  0  0  0  0  0
   -1.0647    4.4195    2.9085 H   0  0  0  0  0  0  0  0  0  0  0  0
    0.0999    3.0939    3.0879 H   0  0  0  0  0  0  0  0  0  0  0  0
   -0.0233    3.9612    1.5462 H   0  0  0  0  0  0  0  0  0  0  0  0
    1.9462    4.7689    3.9049 C   0  0  0  0  0  3  0  0  0  0  0  0
    2.1418    3.8439    4.4153 H   0  0  0  0  0  0  0  0  0  0  0  0
    3.8374    6.0331    4.8225 C   0  0  0  0  0  0  0  0  0  0  0  0
    4.7084    6.1874    4.1743 H   0  0  0  0  0  0  0  0  0  0  0  0
    3.9772    5.1459    5.4342 H   0  0  0  0  0  0  0  0  0  0  0  0
    3.7066    6.9071    5.4596 H   0  0  0  0  0  0  0  0  0  0  0  0
    6.1333    9.1391    4.3026 C   0  0  0  0  0  0  0  0  0  0  0  0
    5.9867    8.8583    5.3426 H   0  0  0  0  0  0  0  0  0  0  0  0
    6.8768    9.9345    4.2555 H   0  0  0  0  0  0  0  0  0  0  0  0
    6.5319    8.2836    3.7560 H   0  0  0  0  0  0  0  0  0  0  0  0
    4.8591    9.5990    3.6727 C   0  0  0  0  0  0  0  0  0  0  0  0
    4.8532   10.0049    2.3050 C   0  0  0  0  0  0  0  0  0  0  0  0
    5.7840    9.9766    1.7478 H   0  0  0  0  0  0  0  0  0  0  0  0
    3.7013   10.5036    1.7086 C   0  0  2  0  0  0  0  0  0  0  0  0
    3.7370   10.8604    0.6842 H   0  0  0  0  0  0  0  0  0  0  0  0
    2.4757   10.6105    2.4315 C   0  0  1  0  0  3  0  0  0  0  0  0
    2.4760   10.1875    3.7709 C   0  0  2  0  0  0  0  0  0  0  0  0
    1.5929   10.3265    4.3831 H   0  0  0  0  0  0  0  0  0  0  0  0
    3.6622    9.7000    4.3905 C   0  0  0  0  0  3  0  0  0  0  0  0
    3.6524    9.4921    5.4549 H   0  0  0  0  0  0  0  0  0  0  0  0
    1.2959   11.2768    1.7664 C   0  0  0  0  0  0  0  0  0  0  0  0
    1.2418   10.9030    0.7371 H   0  0  0  0  0  0  0  0  0  0  0  0
    1.5546   12.7888    1.7238 C   0  0  0  0  0  0  0  0  0  0  0  0
    1.6400   13.1873    2.7329 H   0  0  0  0  0  0  0  0  0  0  0  0
    0.7287   13.2879    1.2249 H   0  0  0  0  0  0  0  0  0  0  0  0
    2.4697   13.0186    1.1837 H   0  0  0  0  0  0  0  0  0  0  0  0
   -0.0381   10.9923    2.4530 C   0  0  0  0  0  0  0  0  0  0  0  0
   -0.1748    9.9244    2.6152 H   0  0  0  0  0  0  0  0  0  0  0  0
   -0.8496   11.3485    1.8247 H   0  0  0  0  0  0  0  0  0  0  0  0
   -0.1062   11.5088    3.4080 H   0  0  0  0  0  0  0  0  0  0  0  0
    2.3624    7.9484    0.3572 Cl  0  0  0  0  0 15  0  0  0  0  0  0
    4.8235    6.7843    1.9388 Cl  0  0  0  0  0 15  0  0  0  0  0  0
    1.0503    6.2627    2.6308 N   0  0  0  0  0  0  0  0  0  0  0  0
    0.9390    4.9779    3.0808 N   0  0  0  0  0  0  0  0  0  0  0  0
    2.6781    5.8709    3.9891 N   0  0  0  0  0  0  0  0  0  0  0  0
    3.1981    8.4002    2.4980 Ru  0  0  0  0  0  0  0  0  0  0  0  0
  1 45  1  6  0  0  0
  1 44  1  0  0  0  0
  2  3  1  0  0  0  0
  2 42  1  0  0  0  0
  4  2  1  0  0  0  0
  5  2  1  0  0  0  0
  6  7  1  0  0  0  0
  6 43  1  0  0  0  0
  6  8  1  0  0  0  0
  9  6  1  0  0  0  0
 10 44  1  0  0  0  0
 10 11  1  0  0  0  0
 12 14  1  0  0  0  0
 12 15  1  0  0  0  0
 13 12  1  0  0  0  0
 16 17  1  0  0  0  0
 18 16  1  0  0  0  0
 19 16  1  0  0  0  0
 20 16  1  0  0  0  0
 20 28  1  0  0  0  0
 21 20  2  0  0  0  0
 22 21  1  0  0  0  0
 23 24  1  6  0  0  0
 23 21  1  0  0  0  0
 23 25  1  0  0  0  0
 23 45  1  0  0  0  0
 25 30  1  1  0  0  0
 25 26  1  0  0  0  0
 26 27  1  1  0  0  0
 26 28  1  0  0  0  0
 28 29  1  0  0  0  0
 30 36  1  0  0  0  0
 31 30  1  0  0  0  0
 32 30  1  0  0  0  0
 32 33  1  0  0  0  0
 34 32  1  0  0  0  0
 35 32  1  0  0  0  0
 36 37  1  0  0  0  0
 36 39  1  0  0  0  0
 38 36  1  0  0  0  0
 42 43  1  0  0  0  0
 42  1  1  0  0  0  0
 43 10  1  0  0  0  0
 44 12  1  0  0  0  0
 45 26  1  0  0  0  0
M  END
$$$$
