CSD_code = DIJMIV | q = 0 | S = 0 | Stoichiometry = C16H34BrNNiP2 | MND = 4
 OpenBabel04212202023D

 55 56  0  0  0  0  0  0  0  0999 V2000
    1.4681   10.8407    6.8334 Ni  0  0  2  0  0  0  0  0  0  0  0  0
    2.1277    9.2074    5.4853 Br  0  0  0  0  0  0  0  0  0  0  0  0
    3.3681   11.8707    6.8824 P   0  0  0  0  0  4  0  0  0  0  0  0
   -0.5468   10.0781    6.9154 P   0  0  0  0  0  4  0  0  0  0  0  0
    0.8305   12.2893    7.9272 N   0  0  0  0  0  0  0  0  0  0  0  0
    2.9546   13.4628    7.7278 C   0  0  0  0  0  0  0  0  0  0  0  0
    3.7946   13.8636    8.2992 H   0  0  0  0  0  0  0  0  0  0  0  0
    2.6697   14.1852    6.9596 H   0  0  0  0  0  0  0  0  0  0  0  0
    1.7427   13.1725    8.6170 C   0  0  0  0  0  0  0  0  0  0  0  0
    2.0810   12.7175    9.5637 H   0  0  0  0  0  0  0  0  0  0  0  0
    1.2302   14.1115    8.8760 H   0  0  0  0  0  0  0  0  0  0  0  0
   -0.4485   12.2843    8.2971 C   0  0  0  0  0  0  0  0  0  0  0  0
   -0.7813   13.0827    8.9627 H   0  0  0  0  0  0  0  0  0  0  0  0
   -1.3350   11.3424    7.8643 C   0  0  0  0  0  0  0  0  0  0  0  0
   -2.3997   11.4034    8.0180 H   0  0  0  0  0  0  0  0  0  0  0  0
    3.8801   12.3645    5.1653 C   0  0  0  0  0  0  0  0  0  0  0  0
    4.2087   11.4329    4.6869 H   0  0  0  0  0  0  0  0  0  0  0  0
    5.0021   13.3936    5.1086 C   0  0  0  0  0  0  0  0  0  0  0  0
    5.1930   13.6671    4.0721 H   0  0  0  0  0  0  0  0  0  0  0  0
    5.9247   12.9982    5.5265 H   0  0  0  0  0  0  0  0  0  0  0  0
    4.7349   14.2985    5.6519 H   0  0  0  0  0  0  0  0  0  0  0  0
    2.6249   12.8462    4.4349 C   0  0  0  0  0  0  0  0  0  0  0  0
    2.7840   12.8547    3.3586 H   0  0  0  0  0  0  0  0  0  0  0  0
    2.3441   13.8510    4.7463 H   0  0  0  0  0  0  0  0  0  0  0  0
    1.7816   12.1754    4.6492 H   0  0  0  0  0  0  0  0  0  0  0  0
    4.9379   11.3214    7.7129 C   0  0  0  0  0  0  0  0  0  0  0  0
    5.6261   12.1764    7.7211 H   0  0  0  0  0  0  0  0  0  0  0  0
    5.5631   10.1510    6.9606 C   0  0  0  0  0  0  0  0  0  0  0  0
    6.4251    9.7735    7.5082 H   0  0  0  0  0  0  0  0  0  0  0  0
    5.8940   10.4468    5.9683 H   0  0  0  0  0  0  0  0  0  0  0  0
    4.8454    9.3400    6.8496 H   0  0  0  0  0  0  0  0  0  0  0  0
    4.6094   10.9217    9.1493 C   0  0  0  0  0  0  0  0  0  0  0  0
    5.5002   10.5545    9.6563 H   0  0  0  0  0  0  0  0  0  0  0  0
    3.8643   10.1254    9.1547 H   0  0  0  0  0  0  0  0  0  0  0  0
    4.2191   11.7650    9.7172 H   0  0  0  0  0  0  0  0  0  0  0  0
   -0.4725    8.5270    7.9521 C   0  0  0  0  0  0  0  0  0  0  0  0
   -0.1109    7.7205    7.3032 H   0  0  0  0  0  0  0  0  0  0  0  0
    0.5629    8.7838    9.0448 C   0  0  0  0  0  0  0  0  0  0  0  0
    0.7434    7.8887    9.6379 H   0  0  0  0  0  0  0  0  0  0  0  0
    0.2229    9.5803    9.7076 H   0  0  0  0  0  0  0  0  0  0  0  0
    1.5173    9.0917    8.5921 H   0  0  0  0  0  0  0  0  0  0  0  0
   -1.8297    8.1677    8.5407 C   0  0  0  0  0  0  0  0  0  0  0  0
   -1.7465    7.2695    9.1517 H   0  0  0  0  0  0  0  0  0  0  0  0
   -2.5642    7.9819    7.7600 H   0  0  0  0  0  0  0  0  0  0  0  0
   -2.1928    8.9781    9.1710 H   0  0  0  0  0  0  0  0  0  0  0  0
   -1.6921    9.6930    5.5056 C   0  0  0  0  0  0  0  0  0  0  0  0
   -2.7015    9.7281    5.9399 H   0  0  0  0  0  0  0  0  0  0  0  0
   -1.5395   10.8313    4.4988 C   0  0  0  0  0  0  0  0  0  0  0  0
   -2.2879   10.7590    3.7116 H   0  0  0  0  0  0  0  0  0  0  0  0
   -0.5524   10.7862    4.0383 H   0  0  0  0  0  0  0  0  0  0  0  0
   -1.6486   11.7968    4.9948 H   0  0  0  0  0  0  0  0  0  0  0  0
   -1.4548    8.3411    4.8448 C   0  0  0  0  0  0  0  0  0  0  0  0
   -2.1133    8.2372    3.9834 H   0  0  0  0  0  0  0  0  0  0  0  0
   -1.6614    7.5206    5.5278 H   0  0  0  0  0  0  0  0  0  0  0  0
   -0.4263    8.2561    4.5011 H   0  0  0  0  0  0  0  0  0  0  0  0
  1  2  1  6  0  0  0
  1  3  1  0  0  0  0
  1  4  1  0  0  0  0
  1  5  1  0  0  0  0
  3 26  1  0  0  0  0
  3  6  1  0  0  0  0
  4 14  1  0  0  0  0
  4 36  1  0  0  0  0
  5 12  1  0  0  0  0
  5  9  1  0  0  0  0
  6  7  1  0  0  0  0
  6  9  1  0  0  0  0
  8  6  1  0  0  0  0
  9 11  1  0  0  0  0
  9 10  1  0  0  0  0
 12 13  1  0  0  0  0
 14 15  1  0  0  0  0
 14 12  2  0  0  0  0
 16  3  1  0  0  0  0
 17 16  1  0  0  0  0
 18 16  1  0  0  0  0
 18 20  1  0  0  0  0
 18 21  1  0  0  0  0
 19 18  1  0  0  0  0
 22 25  1  0  0  0  0
 22 24  1  0  0  0  0
 22 16  1  0  0  0  0
 23 22  1  0  0  0  0
 26 27  1  0  0  0  0
 26 32  1  0  0  0  0
 28 29  1  0  0  0  0
 28 26  1  0  0  0  0
 30 28  1  0  0  0  0
 31 28  1  0  0  0  0
 32 34  1  0  0  0  0
 32 33  1  0  0  0  0
 32 35  1  0  0  0  0
 36 42  1  0  0  0  0
 36 38  1  0  0  0  0
 37 36  1  0  0  0  0
 38 39  1  0  0  0  0
 38 40  1  0  0  0  0
 41 38  1  0  0  0  0
 42 43  1  0  0  0  0
 42 45  1  0  0  0  0
 44 42  1  0  0  0  0
 46 47  1  0  0  0  0
 46  4  1  0  0  0  0
 48 51  1  0  0  0  0
 48 46  1  0  0  0  0
 49 48  1  0  0  0  0
 50 48  1  0  0  0  0
 52 46  1  0  0  0  0
 52 54  1  0  0  0  0
 53 52  1  0  0  0  0
 55 52  1  0  0  0  0
M  END
$$$$
