CSD_code = DIJQAR | q = 0 | S = 0 | Stoichiometry = C12H21IN2Ni | MND = 4
 OpenBabel04212202023D

 37 38  0  0  0  0  0  0  0  0999 V2000
    5.2554    9.6627    5.5267 Ni  0  0  0  0  0  0  0  0  0  0  0  0
    3.9867   10.5192    3.6557 I   0  0  0  0  0  0  0  0  0  0  0  0
    4.4910   10.9798    7.0364 N   0  0  0  0  0  4  0  0  0  0  0  0
    6.3588    8.7448    7.1732 N   0  0  0  0  0  4  0  0  0  0  0  0
    5.3042   10.7305    8.2310 C   0  0  0  0  0  0  0  0  0  0  0  0
    4.7716   11.0526    9.1411 H   0  0  0  0  0  0  0  0  0  0  0  0
    6.2183   11.3272    8.1604 H   0  0  0  0  0  0  0  0  0  0  0  0
    5.6726    9.2560    8.3664 C   0  0  0  0  0  0  0  0  0  0  0  0
    6.3026    9.1212    9.2617 H   0  0  0  0  0  0  0  0  0  0  0  0
    4.7627    8.6671    8.5131 H   0  0  0  0  0  0  0  0  0  0  0  0
    4.5058   12.4157    6.7490 C   0  0  0  0  0  0  0  0  0  0  0  0
    4.1434   12.9929    7.6105 H   0  0  0  0  0  0  0  0  0  0  0  0
    3.8691   12.6283    5.8919 H   0  0  0  0  0  0  0  0  0  0  0  0
    5.5187   12.7415    6.5084 H   0  0  0  0  0  0  0  0  0  0  0  0
    3.1024   10.5772    7.2797 C   0  0  0  0  0  0  0  0  0  0  0  0
    2.6897   11.0981    8.1555 H   0  0  0  0  0  0  0  0  0  0  0  0
    3.0326    9.5020    7.4501 H   0  0  0  0  0  0  0  0  0  0  0  0
    2.4931   10.8216    6.4102 H   0  0  0  0  0  0  0  0  0  0  0  0
    6.4169    7.2868    7.2681 C   0  0  0  0  0  0  0  0  0  0  0  0
    6.9224    6.9748    8.1926 H   0  0  0  0  0  0  0  0  0  0  0  0
    6.9603    6.8791    6.4173 H   0  0  0  0  0  0  0  0  0  0  0  0
    5.4104    6.8693    7.2623 H   0  0  0  0  0  0  0  0  0  0  0  0
    7.7301    9.2529    7.1230 C   0  0  0  0  0  0  0  0  0  0  0  0
    8.2728    9.0144    8.0491 H   0  0  0  0  0  0  0  0  0  0  0  0
    7.7412   10.3328    6.9816 H   0  0  0  0  0  0  0  0  0  0  0  0
    8.2553    8.7966    6.2846 H   0  0  0  0  0  0  0  0  0  0  0  0
    6.0155    8.4856    4.3372 C   0  0  0  0  0  0  0  0  0  0  0  0
    7.2545    8.8162    3.7989 C   0  0  0  0  0  0  0  0  0  0  0  0
    7.6452    9.8259    3.8806 H   0  0  0  0  0  0  0  0  0  0  0  0
    7.9893    7.8522    3.1257 C   0  0  0  0  0  0  0  0  0  0  0  0
    8.9553    8.1091    2.7146 H   0  0  0  0  0  0  0  0  0  0  0  0
    7.4801    6.5754    2.9629 C   0  0  0  0  0  0  0  0  0  0  0  0
    8.0516    5.8302    2.4293 H   0  0  0  0  0  0  0  0  0  0  0  0
    6.2254    6.2633    3.4571 C   0  0  0  0  0  0  0  0  0  0  0  0
    5.8117    5.2765    3.3054 H   0  0  0  0  0  0  0  0  0  0  0  0
    5.4821    7.2185    4.1334 C   0  0  0  0  0  0  0  0  0  0  0  0
    4.4863    6.9719    4.4841 H   0  0  0  0  0  0  0  0  0  0  0  0
  1  3  1  0  0  0  0
  1  4  1  0  0  0  0
  2  1  1  0  0  0  0
  3 15  1  0  0  0  0
  3  5  1  0  0  0  0
  4 19  1  0  0  0  0
  4  8  1  0  0  0  0
  5  8  1  0  0  0  0
  5  6  1  0  0  0  0
  7  5  1  0  0  0  0
  8 10  1  0  0  0  0
  8  9  1  0  0  0  0
 11  3  1  0  0  0  0
 11 12  1  0  0  0  0
 13 11  1  0  0  0  0
 14 11  1  0  0  0  0
 15 17  1  0  0  0  0
 15 16  1  0  0  0  0
 18 15  1  0  0  0  0
 19 20  1  0  0  0  0
 21 19  1  0  0  0  0
 22 19  1  0  0  0  0
 23  4  1  0  0  0  0
 23 24  1  0  0  0  0
 25 23  1  0  0  0  0
 26 23  1  0  0  0  0
 27  1  1  0  0  0  0
 28 29  1  0  0  0  0
 28 27  2  0  0  0  0
 30 28  1  0  0  0  0
 31 30  1  0  0  0  0
 32 30  2  0  0  0  0
 32 34  1  0  0  0  0
 33 32  1  0  0  0  0
 34 36  2  0  0  0  0
 35 34  1  0  0  0  0
 36 27  1  0  0  0  0
 36 37  1  0  0  0  0
M  END
$$$$
