CSD_code = DIJSOH | q = 0 | S = 0 | Stoichiometry = C13H7BrNO5Re | MND = 6
 OpenBabel04212202023D

 28 30  0  0  1  0  0  0  0  0999 V2000
    8.2326    2.4003    6.4054 Re  0  0  0  0  0  0  0  0  0  0  0  0
   10.7276    2.3652    6.9380 Br  0  0  0  0  0  0  0  0  0  0  0  0
    8.7417    0.3817    5.6234 O   0  0  0  0  0  0  0  0  0  0  0  0
    9.8567   -1.4334    6.2752 O   0  0  0  0  0  0  0  0  0  0  0  0
   10.0277   -1.5218    5.3235 H   0  0  0  0  0  0  0  0  0  0  0  0
    8.1482    1.0372    8.1639 N   0  0  0  0  0  0  0  0  0  0  0  0
    9.1780   -0.3222    6.5248 C   0  0  2  0  0  3  0  0  0  0  0  0
    8.8786   -0.0549    7.9413 C   0  0  0  0  0  0  0  0  0  0  0  0
    9.2925   -0.9395    8.9516 C   0  0  0  0  0  0  0  0  0  0  0  0
    8.9367   -0.6688   10.2418 C   0  0  0  0  0  0  0  0  0  0  0  0
    8.1218    0.4502   10.5133 C   0  0  0  0  0  0  0  0  0  0  0  0
    7.6888    0.7665   11.8153 C   0  0  0  0  0  0  0  0  0  0  0  0
    6.8829    1.8483   12.0394 C   0  0  0  0  0  0  0  0  0  0  0  0
    6.4667    2.6506   10.9658 C   0  0  0  0  0  0  0  0  0  0  0  0
    6.8761    2.3794    9.6897 C   0  0  0  0  0  0  0  0  0  0  0  0
    6.5454    2.9893    8.8606 H   0  0  0  0  0  0  0  0  0  0  0  0
    7.7276    1.2855    9.4266 C   0  0  2  0  0  3  0  0  0  0  0  0
    8.6025    3.2650    4.6935 C   0  0  0  0  0  2  0  0  0  0  0  0
    8.9092    3.6835    3.6783 O   0  0  0  0  0  1  0  0  0  0  0  0
    6.3383    2.2042    6.0349 C   0  0  0  0  0  2  0  0  0  0  0  0
    5.2221    2.0593    5.8268 O   0  0  0  0  0  1  0  0  0  0  0  0
    8.0333    4.1333    7.2642 C   0  0  0  0  0  2  0  0  0  0  0  0
    7.9968    5.1492    7.7964 O   0  0  0  0  0  1  0  0  0  0  0  0
    9.8963   -1.7896    8.6810 H   0  0  0  0  0  0  0  0  0  0  0  0
    9.2605   -1.3002   11.0553 H   0  0  0  0  0  0  0  0  0  0  0  0
    8.0055    0.1320   12.6297 H   0  0  0  0  0  0  0  0  0  0  0  0
    6.5573    2.0873   13.0401 H   0  0  0  0  0  0  0  0  0  0  0  0
    5.8160    3.4911   11.1517 H   0  0  0  0  0  0  0  0  0  0  0  0
  1  2  1  0  0  0  0
  1 22  1  0  0  0  0
  1  6  1  0  0  0  0
  3  1  1  0  0  0  0
  3  7  1  0  0  0  0
  5  4  1  0  0  0  0
  6 17  1  0  0  0  0
  7  4  1  6  0  0  0
  7  8  1  0  0  0  0
  8  6  1  0  0  0  0
  8  9  2  0  0  0  0
  9 10  1  0  0  0  0
 10 11  2  0  0  0  0
 10 25  1  0  0  0  0
 11 12  1  0  0  0  0
 12 13  2  0  0  0  0
 12 26  1  0  0  0  0
 13 27  1  0  0  0  0
 14 28  1  0  0  0  0
 14 13  1  0  0  0  0
 15 14  2  0  0  0  0
 16 15  1  0  0  0  0
 17 15  1  6  0  0  0
 17 11  1  0  0  0  0
 18  1  1  0  0  0  0
 19 18  1  0  0  0  0
 20  1  1  0  0  0  0
 21 20  1  0  0  0  0
 22 23  1  0  0  0  0
 24  9  1  0  0  0  0
M  END
$$$$
