CSD_code = DIJWAV | q = 0 | S = 0 | Stoichiometry = C15H22Cl2N2Zn | MND = 4
 OpenBabel04212202023D

 42 45  0  0  1  0  0  0  0  0999 V2000
    5.5048   -2.4114    5.8103 Zn  0  0  0  0  0  0  0  0  0  0  0  0
    5.6959   -0.2643    6.3037 Cl  0  0  0  0  0  0  0  0  0  0  0  0
    6.9311   -4.0965    5.5510 Cl  0  0  0  0  0  0  0  0  0  0  0  0
    4.5283   -2.3390    3.8582 N   0  0  1  0  0  4  0  0  0  0  0  0
    4.5781   -1.3721    3.5373 H   0  0  0  0  0  0  0  0  0  0  0  0
    4.8822   -3.1989    2.7274 C   0  0  0  0  0  0  0  0  0  0  0  0
    5.0777   -4.2068    3.0976 H   0  0  0  0  0  0  0  0  0  0  0  0
    5.7845   -2.8365    2.2369 H   0  0  0  0  0  0  0  0  0  0  0  0
    3.6461   -3.1716    1.8225 C   0  0  0  0  0  0  0  0  0  0  0  0
    3.5608   -4.0755    1.2243 H   0  0  0  0  0  0  0  0  0  0  0  0
    3.6981   -2.3193    1.1442 H   0  0  0  0  0  0  0  0  0  0  0  0
    2.4738   -3.0058    2.8026 C   0  0  0  0  0  0  0  0  0  0  0  0
    1.8995   -3.9270    2.8921 H   0  0  0  0  0  0  0  0  0  0  0  0
    1.7960   -2.2189    2.4739 H   0  0  0  0  0  0  0  0  0  0  0  0
    3.1194   -2.6425    4.1563 C   0  0  2  0  0  0  0  0  0  0  0  0
    2.4885   -1.4867    4.9447 C   0  0  0  0  0  0  0  0  0  0  0  0
    2.9933   -0.5443    4.7358 H   0  0  0  0  0  0  0  0  0  0  0  0
    1.4347   -1.3748    4.6910 H   0  0  0  0  0  0  0  0  0  0  0  0
    2.6577   -1.8839    6.4167 C   0  0  0  0  0  0  0  0  0  0  0  0
    3.1249   -1.0962    7.0053 H   0  0  0  0  0  0  0  0  0  0  0  0
    1.6847   -2.1306    6.8611 H   0  0  0  0  0  0  0  0  0  0  0  0
    3.5142   -3.0806    6.4002 N   0  0  1  0  0  4  0  0  0  0  0  0
    3.0902   -3.7753    5.1874 C   0  0  0  0  0  0  0  0  0  0  0  0
    2.0698   -4.1686    5.2917 H   0  0  0  0  0  0  0  0  0  0  0  0
    3.7754   -4.5819    4.9373 H   0  0  0  0  0  0  0  0  0  0  0  0
    3.3862   -3.8566    7.6465 C   0  0  1  0  0  0  0  0  0  0  0  0
    2.3116   -4.0067    7.8544 H   0  0  0  0  0  0  0  0  0  0  0  0
    4.0501   -5.2273    7.5328 C   0  0  0  0  0  0  0  0  0  0  0  0
    3.4395   -5.9064    6.9427 H   0  0  0  0  0  0  0  0  0  0  0  0
    4.1663   -5.6506    8.5275 H   0  0  0  0  0  0  0  0  0  0  0  0
    5.0305   -5.1546    7.0706 H   0  0  0  0  0  0  0  0  0  0  0  0
    3.9821   -3.0301    8.7645 C   0  0  0  0  0  0  0  0  0  0  0  0
    3.1562   -2.3390    9.6417 C   0  0  0  0  0  0  0  0  0  0  0  0
    2.0822   -2.4267    9.5484 H   0  0  0  0  0  0  0  0  0  0  0  0
    3.6918   -1.5377   10.6344 C   0  0  0  0  0  0  0  0  0  0  0  0
    3.0350   -1.0042   11.3056 H   0  0  0  0  0  0  0  0  0  0  0  0
    5.0645   -1.4153   10.7603 C   0  0  0  0  0  0  0  0  0  0  0  0
    5.4843   -0.7837   11.5288 H   0  0  0  0  0  0  0  0  0  0  0  0
    5.8962   -2.1095    9.8991 C   0  0  0  0  0  0  0  0  0  0  0  0
    6.9680   -2.0253    9.9959 H   0  0  0  0  0  0  0  0  0  0  0  0
    5.3606   -2.9148    8.9085 C   0  0  0  0  0  0  0  0  0  0  0  0
    6.0282   -3.4785    8.2718 H   0  0  0  0  0  0  0  0  0  0  0  0
  1  2  1  0  0  0  0
  1 22  1  0  0  0  0
  3  1  1  0  0  0  0
  4  5  1  6  0  0  0
  4 15  1  0  0  0  0
  4  1  1  0  0  0  0
  6  7  1  0  0  0  0
  6  4  1  0  0  0  0
  8  6  1  0  0  0  0
  9  6  1  0  0  0  0
  9 12  1  0  0  0  0
 10  9  1  0  0  0  0
 11  9  1  0  0  0  0
 12 13  1  0  0  0  0
 14 12  1  0  0  0  0
 15 12  1  6  0  0  0
 15 16  1  0  0  0  0
 15 23  1  0  0  0  0
 16 19  1  0  0  0  0
 17 16  1  0  0  0  0
 18 16  1  0  0  0  0
 19 21  1  0  0  0  0
 19 20  1  0  0  0  0
 22 19  1  0  0  0  0
 22 26  1  1  0  0  0
 23 24  1  0  0  0  0
 23 22  1  0  0  0  0
 25 23  1  0  0  0  0
 26 27  1  1  0  0  0
 26 32  1  0  0  0  0
 28 26  1  0  0  0  0
 28 30  1  0  0  0  0
 29 28  1  0  0  0  0
 31 28  1  0  0  0  0
 32 41  2  0  0  0  0
 32 33  1  0  0  0  0
 33 35  2  0  0  0  0
 34 33  1  0  0  0  0
 35 37  1  0  0  0  0
 35 36  1  0  0  0  0
 37 38  1  0  0  0  0
 39 40  1  0  0  0  0
 39 37  2  0  0  0  0
 41 39  1  0  0  0  0
 42 41  1  0  0  0  0
M  END
$$$$
