CSD_code = DIKQIY | q = 0 | S = 0 | Stoichiometry = C29H34Cl2N4Ru | MND = 6
 OpenBabel04212202023D

 70 74  0  0  1  0  0  0  0  0999 V2000
    2.6834    9.1662    2.4548 Ru  0  0  0  0  0  0  0  0  0  0  0  0
    2.6189    9.2513    4.8300 Cl  0  0  0  0  0  0  0  0  0  0  0  0
    2.6181    9.0401    0.0565 Cl  0  0  0  0  0  0  0  0  0  0  0  0
    2.1358    7.3971    2.2806 N   0  0  0  0  0  0  0  0  0  0  0  0
    4.4937    8.2589    2.4946 N   0  0  0  0  0  0  0  0  0  0  0  0
    0.6685    9.4377    2.4730 N   0  0  0  0  0  0  0  0  0  0  0  0
    3.3570   10.9760    2.5699 N   0  0  0  0  0  2  0  0  0  0  0  0
    0.8295    7.1424    2.0870 C   0  0  0  0  0  0  0  0  0  0  0  0
    0.4053    5.8502    1.7760 C   0  0  0  0  0  0  0  0  0  0  0  0
   -0.6402    5.6392    1.6222 H   0  0  0  0  0  0  0  0  0  0  0  0
    1.3573    4.8481    1.6523 C   0  0  0  0  0  0  0  0  0  0  0  0
    1.0494    3.8415    1.4144 H   0  0  0  0  0  0  0  0  0  0  0  0
    2.7045    5.1399    1.8058 C   0  0  0  0  0  0  0  0  0  0  0  0
    3.4527    4.3755    1.6750 H   0  0  0  0  0  0  0  0  0  0  0  0
    3.0769    6.4491    2.1160 C   0  0  0  0  0  0  0  0  0  0  0  0
    4.4159    6.9803    2.2794 C   0  0  1  0  0  3  0  0  0  0  0  0
    5.6040    6.0768    2.1539 C   0  0  0  0  0  0  0  0  0  0  0  0
    6.5261    6.6306    2.3130 H   0  0  0  0  0  0  0  0  0  0  0  0
    5.6216    5.6445    1.1533 H   0  0  0  0  0  0  0  0  0  0  0  0
    5.5438    5.2597    2.8715 H   0  0  0  0  0  0  0  0  0  0  0  0
    5.7029    8.8965    2.8355 C   0  0  0  0  0  0  0  0  0  0  0  0
    6.2370    8.7378    4.1256 C   0  0  0  0  0  0  0  0  0  0  0  0
    7.3413    9.4935    4.4849 C   0  0  0  0  0  0  0  0  0  0  0  0
    7.7414    9.3866    5.4832 H   0  0  0  0  0  0  0  0  0  0  0  0
    7.9467   10.3808    3.6061 C   0  0  0  0  0  0  0  0  0  0  0  0
    7.4397   10.4770    2.3206 C   0  0  0  0  0  0  0  0  0  0  0  0
    7.9170   11.1338    1.6062 H   0  0  0  0  0  0  0  0  0  0  0  0
    6.3334    9.7443    1.9153 C   0  0  0  0  0  0  0  0  0  0  0  0
    5.6395    7.7836    5.1127 C   0  0  0  0  0  0  0  0  0  0  0  0
    6.0687    7.9464    6.0979 H   0  0  0  0  0  0  0  0  0  0  0  0
    5.8315    6.7510    4.8234 H   0  0  0  0  0  0  0  0  0  0  0  0
    4.5622    7.9270    5.1776 H   0  0  0  0  0  0  0  0  0  0  0  0
    9.1320   11.1889    4.0422 C   0  0  0  0  0  0  0  0  0  0  0  0
    8.8966   11.7564    4.9419 H   0  0  0  0  0  0  0  0  0  0  0  0
    9.4418   11.8803    3.2622 H   0  0  0  0  0  0  0  0  0  0  0  0
    9.9707   10.5336    4.2752 H   0  0  0  0  0  0  0  0  0  0  0  0
    5.8567    9.8274    0.5013 C   0  0  0  0  0  0  0  0  0  0  0  0
    5.9637    8.8619    0.0067 H   0  0  0  0  0  0  0  0  0  0  0  0
    6.4264   10.5663   -0.0565 H   0  0  0  0  0  0  0  0  0  0  0  0
    4.7994   10.0892    0.4584 H   0  0  0  0  0  0  0  0  0  0  0  0
    0.0189    8.3353    2.2483 C   0  0  0  0  0  0  0  0  0  0  0  0
   -1.4706    8.2465    2.1256 C   0  0  0  0  0  0  0  0  0  0  0  0
   -1.8796    7.5861    2.8889 H   0  0  0  0  0  0  0  0  0  0  0  0
   -1.7247    7.8330    1.1499 H   0  0  0  0  0  0  0  0  0  0  0  0
   -1.9242    9.2298    2.2211 H   0  0  0  0  0  0  0  0  0  0  0  0
    0.0126   10.6164    2.8681 C   0  0  0  0  0  0  0  0  0  0  0  0
   -0.6187   10.6873    4.1197 C   0  0  0  0  0  0  0  0  0  0  0  0
   -1.1691   11.8973    4.5202 C   0  0  0  0  0  0  0  0  0  0  0  0
   -1.6421   11.9502    5.4907 H   0  0  0  0  0  0  0  0  0  0  0  0
   -1.1344   13.0249    3.7178 C   0  0  0  0  0  0  0  0  0  0  0  0
   -0.5336   12.9237    2.4703 C   0  0  0  0  0  0  0  0  0  0  0  0
   -0.5153   13.7867    1.8195 H   0  0  0  0  0  0  0  0  0  0  0  0
    0.0387   11.7428    2.0307 C   0  0  0  0  0  0  0  0  0  0  0  0
   -0.7224    9.5122    5.0453 C   0  0  0  0  0  0  0  0  0  0  0  0
   -0.6538    9.8501    6.0766 H   0  0  0  0  0  0  0  0  0  0  0  0
    0.0740    8.7929    4.8754 H   0  0  0  0  0  0  0  0  0  0  0  0
   -1.6834    9.0114    4.9184 H   0  0  0  0  0  0  0  0  0  0  0  0
   -1.7209   14.3245    4.1792 C   0  0  0  0  0  0  0  0  0  0  0  0
   -0.9296   14.9863    4.5327 H   0  0  0  0  0  0  0  0  0  0  0  0
   -2.4212   14.1672    4.9958 H   0  0  0  0  0  0  0  0  0  0  0  0
   -2.2363   14.8268    3.3630 H   0  0  0  0  0  0  0  0  0  0  0  0
    0.6347   11.6579    0.6627 C   0  0  0  0  0  0  0  0  0  0  0  0
    1.6949   11.4052    0.7205 H   0  0  0  0  0  0  0  0  0  0  0  0
    0.5277   12.6027    0.1359 H   0  0  0  0  0  0  0  0  0  0  0  0
    0.1540   10.8739    0.0785 H   0  0  0  0  0  0  0  0  0  0  0  0
    3.9569   11.9239    2.8304 C   0  0  0  0  0  2  0  0  0  0  0  0
    4.7102   13.1003    3.1459 C   0  0  0  0  0  0  0  0  0  0  0  0
    5.7398   12.8160    3.3674 H   0  0  0  0  0  0  0  0  0  0  0  0
    4.2737   13.5896    4.0165 H   0  0  0  0  0  0  0  0  0  0  0  0
    4.6959   13.7867    2.2994 H   0  0  0  0  0  0  0  0  0  0  0  0
  1  6  1  0  0  0  0
  1  5  1  0  0  0  0
  1  7  1  0  0  0  0
  1  2  1  0  0  0  0
  3  1  1  0  0  0  0
  4  1  1  0  0  0  0
  5 21  1  0  0  0  0
  6 46  1  0  0  0  0
  7 66  1  0  0  0  0
  8 41  2  0  0  0  0
  8  4  1  0  0  0  0
  9  8  1  0  0  0  0
 10  9  1  0  0  0  0
 11  9  2  0  0  0  0
 11 13  1  0  0  0  0
 12 11  1  0  0  0  0
 13 15  2  0  0  0  0
 14 13  1  0  0  0  0
 15 16  1  0  0  0  0
 15  4  1  0  0  0  0
 16 17  1  6  0  0  0
 16  5  1  0  0  0  0
 17 18  1  0  0  0  0
 17 20  1  0  0  0  0
 19 17  1  0  0  0  0
 21 22  1  0  0  0  0
 22 23  2  0  0  0  0
 22 29  1  0  0  0  0
 23 24  1  0  0  0  0
 25 33  1  0  0  0  0
 25 23  1  0  0  0  0
 26 25  2  0  0  0  0
 27 26  1  0  0  0  0
 28 26  1  0  0  0  0
 28 21  2  0  0  0  0
 29 32  1  0  0  0  0
 29 30  1  0  0  0  0
 31 29  1  0  0  0  0
 33 36  1  0  0  0  0
 33 34  1  0  0  0  0
 35 33  1  0  0  0  0
 37 28  1  0  0  0  0
 38 37  1  0  0  0  0
 39 37  1  0  0  0  0
 40 37  1  0  0  0  0
 41  6  1  0  0  0  0
 42 45  1  0  0  0  0
 42 41  1  0  0  0  0
 42 43  1  0  0  0  0
 44 42  1  0  0  0  0
 46 47  1  0  0  0  0
 47 48  2  0  0  0  0
 47 54  1  0  0  0  0
 48 49  1  0  0  0  0
 50 58  1  0  0  0  0
 50 48  1  0  0  0  0
 51 50  2  0  0  0  0
 52 51  1  0  0  0  0
 53 51  1  0  0  0  0
 53 46  2  0  0  0  0
 54 55  1  0  0  0  0
 56 54  1  0  0  0  0
 57 54  1  0  0  0  0
 58 59  1  0  0  0  0
 58 60  1  0  0  0  0
 61 58  1  0  0  0  0
 62 63  1  0  0  0  0
 62 53  1  0  0  0  0
 64 62  1  0  0  0  0
 65 62  1  0  0  0  0
 66 67  1  0  0  0  0
 67 68  1  0  0  0  0
 67 69  1  0  0  0  0
 70 67  1  0  0  0  0
M  END
$$$$
