CSD_code = DIMMET | q = 0 | S = 0 | Stoichiometry = C15H11ClF3N5Pt | MND = 4
 OpenBabel04212202023D

 36 40  0  0  0  0  0  0  0  0999 V2000
    3.3943    3.5270    7.8887 Pt  0  0  2  0  0  0  0  0  0  0  0  0
    2.8791    2.2469    6.1558 Cl  0  0  0  0  0  0  0  0  0  0  0  0
    1.6481    3.3800    8.8603 N   0  0  0  0  0  0  0  0  0  0  0  0
    3.8005    4.6293    9.4033 N   0  0  0  0  0  0  0  0  0  0  0  0
    5.2474    4.0107    7.3964 N   0  0  0  0  0  0  0  0  0  0  0  0
    6.1342    3.8036    6.4504 N   0  0  0  0  0  0  0  0  0  0  0  0
    7.0603    5.1431    7.9895 N   0  0  0  0  0  2  0  0  0  0  0  0
    0.5663    2.6950    8.4974 C   0  0  0  0  0  3  0  0  0  0  0  0
    0.6465    2.1587    7.5595 H   0  0  0  0  0  0  0  0  0  0  0  0
   -0.5848    2.6658    9.2592 C   0  0  0  0  0  0  0  0  0  0  0  0
   -1.4353    2.0959    8.9208 H   0  0  0  0  0  0  0  0  0  0  0  0
   -0.6399    3.3735   10.4596 C   0  0  0  0  0  0  0  0  0  0  0  0
    0.4931    4.0874   10.8312 C   0  0  0  0  0  0  0  0  0  0  0  0
    0.4967    4.6508   11.7509 H   0  0  0  0  0  0  0  0  0  0  0  0
    1.6248    4.0823   10.0259 C   0  0  0  0  0  0  0  0  0  0  0  0
    2.8611    4.8054   10.3407 C   0  0  0  0  0  0  0  0  0  0  0  0
    3.1413    5.6053   11.4442 C   0  0  0  0  0  0  0  0  0  0  0  0
    2.4001    5.7619   12.2112 H   0  0  0  0  0  0  0  0  0  0  0  0
    4.3938    6.2093   11.5563 C   0  0  0  0  0  0  0  0  0  0  0  0
    5.3452    5.9985   10.5571 C   0  0  0  0  0  0  0  0  0  0  0  0
    6.3238    6.4466   10.6076 H   0  0  0  0  0  0  0  0  0  0  0  0
    5.0168    5.1932    9.4775 C   0  0  0  0  0  0  0  0  0  0  0  0
    5.8161    4.8281    8.3329 C   0  0  0  0  0  0  0  0  0  0  0  0
    7.2087    4.4895    6.8279 C   0  0  0  0  0  0  0  0  0  0  0  0
    8.4702    4.5473    6.0427 C   0  0  0  0  0  0  0  0  0  0  0  0
   -1.8575    3.3454   11.3195 C   0  0  0  0  0  0  0  0  0  0  0  0
   -1.8958    4.2109   11.9751 H   0  0  0  0  0  0  0  0  0  0  0  0
   -1.8443    2.4493   11.9400 H   0  0  0  0  0  0  0  0  0  0  0  0
   -2.7580    3.3140   10.7116 H   0  0  0  0  0  0  0  0  0  0  0  0
    4.7267    7.0755   12.7261 C   0  0  0  0  0  0  0  0  0  0  0  0
    3.8959    7.1358   13.4236 H   0  0  0  0  0  0  0  0  0  0  0  0
    4.9755    8.0800   12.3876 H   0  0  0  0  0  0  0  0  0  0  0  0
    5.5972    6.6814   13.2477 H   0  0  0  0  0  0  0  0  0  0  0  0
    8.7266    5.7876    5.5854 F   0  0  0  0  0  0  0  0  0  0  0  0
    8.4576    3.7437    4.9767 F   0  0  0  0  0  0  0  0  0  0  0  0
    9.5412    4.1964    6.7767 F   0  0  0  0  0  0  0  0  0  0  0  0
  1  2  1  6  0  0  0
  1  3  1  0  0  0  0
  1  4  1  0  0  0  0
  3 15  1  0  0  0  0
  4 22  1  0  0  0  0
  4 16  1  0  0  0  0
  5  1  1  0  0  0  0
  5 23  1  0  0  0  0
  6 24  2  0  0  0  0
  6  5  1  0  0  0  0
  7 23  1  0  0  0  0
  8  3  1  0  0  0  0
  8 10  1  0  0  0  0
  9  8  1  0  0  0  0
 10 12  2  0  0  0  0
 11 10  1  0  0  0  0
 12 13  1  0  0  0  0
 12 26  1  0  0  0  0
 13 14  1  0  0  0  0
 15 16  1  0  0  0  0
 15 13  2  0  0  0  0
 16 17  2  0  0  0  0
 17 19  1  0  0  0  0
 17 18  1  0  0  0  0
 19 30  1  0  0  0  0
 20 21  1  0  0  0  0
 20 19  2  0  0  0  0
 22 20  1  0  0  0  0
 23 22  2  0  0  0  0
 24  7  1  0  0  0  0
 25 36  1  0  0  0  0
 25 24  1  0  0  0  0
 26 28  1  0  0  0  0
 26 27  1  0  0  0  0
 29 26  1  0  0  0  0
 30 33  1  0  0  0  0
 30 31  1  0  0  0  0
 32 30  1  0  0  0  0
 34 25  1  0  0  0  0
 35 25  1  0  0  0  0
M  END
$$$$
