CSD_code = DINHOZ | q = 0 | S = 0 | Stoichiometry = C21H25Cl2N3O3Pt | MND = 4
 OpenBabel04212202023D

 55 58  0  0  0  0  0  0  0  0999 V2000
    5.3246    1.2538    6.6126 Pt  0  0  0  0  0  0  0  0  0  0  0  0
    6.7232    2.1705    8.0920 Cl  0  0  0  0  0  0  0  0  0  0  0  0
    7.1063    0.2318    5.7047 Cl  0  0  0  0  0  0  0  0  0  0  0  0
    4.2906    0.9113    1.8423 O   0  0  0  0  0  0  0  0  0  0  0  0
    3.6051    3.3839   -0.6698 O   0  0  0  0  0  0  0  0  0  0  0  0
    3.7538    4.1520   -3.5728 O   0  0  0  0  0  0  0  0  0  0  0  0
    3.6893    2.0975    7.4362 N   0  0  0  0  0  0  0  0  0  0  0  0
    3.8993    0.5032    5.3511 N   0  0  0  0  0  0  0  0  0  0  0  0
    3.7885   -0.2861    4.2897 N   0  0  0  0  0  0  0  0  0  0  0  0
    3.6616    2.9079    8.4926 C   0  0  0  0  0  0  0  0  0  0  0  0
    4.6239    3.1551    8.9226 H   0  0  0  0  0  0  0  0  0  0  0  0
    2.4828    3.4054    9.0152 C   0  0  0  0  0  0  0  0  0  0  0  0
    2.5113    4.0582    9.8722 H   0  0  0  0  0  0  0  0  0  0  0  0
    1.2764    3.0519    8.4229 C   0  0  0  0  0  0  0  0  0  0  0  0
    0.3405    3.4242    8.8098 H   0  0  0  0  0  0  0  0  0  0  0  0
    1.2990    2.2115    7.3264 C   0  0  0  0  0  0  0  0  0  0  0  0
    0.3892    1.9087    6.8339 H   0  0  0  0  0  0  0  0  0  0  0  0
    2.5229    1.7467    6.8513 C   0  0  0  0  0  0  0  0  0  0  0  0
    2.6595    0.8753    5.7094 C   0  0  0  0  0  0  0  0  0  0  0  0
    1.7339    0.3070    4.8242 C   0  0  0  0  0  0  0  0  0  0  0  0
    0.6677    0.3966    4.8397 H   0  0  0  0  0  0  0  0  0  0  0  0
    2.4908   -0.4240    3.9267 C   0  0  0  0  0  0  0  0  0  0  0  0
    2.0370   -1.2233    2.7917 C   0  0  0  0  0  0  0  0  0  0  0  0
    1.2072   -0.6441    1.8368 C   0  0  0  0  0  0  0  0  0  0  0  0
    0.9297    0.3937    1.9386 H   0  0  0  0  0  0  0  0  0  0  0  0
    0.7636   -1.3867    0.7586 C   0  0  0  0  0  0  0  0  0  0  0  0
    0.1267   -0.9285    0.0167 H   0  0  0  0  0  0  0  0  0  0  0  0
    1.1343   -2.7149    0.6285 C   0  0  0  0  0  0  0  0  0  0  0  0
    0.7874   -3.2937   -0.2142 H   0  0  0  0  0  0  0  0  0  0  0  0
    1.9462   -3.3015    1.5848 C   0  0  0  0  0  0  0  0  0  0  0  0
    2.2278   -4.3399    1.4924 H   0  0  0  0  0  0  0  0  0  0  0  0
    2.3978   -2.5621    2.6627 C   0  0  0  0  0  0  0  0  0  0  0  0
    3.0113   -3.0302    3.4193 H   0  0  0  0  0  0  0  0  0  0  0  0
    4.9398   -0.6506    3.5087 C   0  0  0  0  0  0  0  0  0  0  0  0
    5.7582   -0.9257    4.1820 H   0  0  0  0  0  0  0  0  0  0  0  0
    4.6679   -1.4702    2.8455 H   0  0  0  0  0  0  0  0  0  0  0  0
    5.3737    0.5579    2.6775 C   0  0  0  0  0  0  0  0  0  0  0  0
    5.6380    1.3902    3.3485 H   0  0  0  0  0  0  0  0  0  0  0  0
    6.2602    0.2986    2.0845 H   0  0  0  0  0  0  0  0  0  0  0  0
    4.5515    2.0354    1.0372 C   0  0  0  0  0  0  0  0  0  0  0  0
    5.4153    1.8554    0.3827 H   0  0  0  0  0  0  0  0  0  0  0  0
    4.7702    2.9160    1.6578 H   0  0  0  0  0  0  0  0  0  0  0  0
    3.3204    2.3020    0.1784 C   0  0  0  0  0  0  0  0  0  0  0  0
    3.0811    1.3976   -0.4010 H   0  0  0  0  0  0  0  0  0  0  0  0
    2.4579    2.5291    0.8248 H   0  0  0  0  0  0  0  0  0  0  0  0
    2.5586    3.6873   -1.5614 C   0  0  0  0  0  0  0  0  0  0  0  0
    1.6790    4.0467   -1.0043 H   0  0  0  0  0  0  0  0  0  0  0  0
    2.2727    2.7961   -2.1373 H   0  0  0  0  0  0  0  0  0  0  0  0
    3.0409    4.7637   -2.5264 C   0  0  0  0  0  0  0  0  0  0  0  0
    2.1799    5.3206   -2.9299 H   0  0  0  0  0  0  0  0  0  0  0  0
    3.6870    5.4630   -1.9769 H   0  0  0  0  0  0  0  0  0  0  0  0
    4.3749    5.0760   -4.4275 C   0  0  0  0  0  0  0  0  0  0  0  0
    4.9009    4.4961   -5.1827 H   0  0  0  0  0  0  0  0  0  0  0  0
    5.0915    5.7032   -3.8832 H   0  0  0  0  0  0  0  0  0  0  0  0
    3.6371    5.7271   -4.9142 H   0  0  0  0  0  0  0  0  0  0  0  0
  1  7  1  0  0  0  0
  1  2  1  0  0  0  0
  3  1  1  0  0  0  0
  4 37  1  0  0  0  0
  5 43  1  0  0  0  0
  6 49  1  0  0  0  0
  7 10  1  0  0  0  0
  8 19  1  0  0  0  0
  8  1  1  0  0  0  0
  9  8  1  0  0  0  0
 10 11  1  0  0  0  0
 10 12  2  0  0  0  0
 12 13  1  0  0  0  0
 14 15  1  0  0  0  0
 14 12  1  0  0  0  0
 16 14  2  0  0  0  0
 17 16  1  0  0  0  0
 18 16  1  0  0  0  0
 18  7  1  0  0  0  0
 19 18  2  0  0  0  0
 20 21  1  0  0  0  0
 20 19  1  0  0  0  0
 22  9  1  0  0  0  0
 22 20  2  0  0  0  0
 23 22  1  0  0  0  0
 24 25  1  0  0  0  0
 24 23  2  0  0  0  0
 26 24  1  0  0  0  0
 27 26  1  0  0  0  0
 28 26  2  0  0  0  0
 28 30  1  0  0  0  0
 29 28  1  0  0  0  0
 30 32  2  0  0  0  0
 31 30  1  0  0  0  0
 32 23  1  0  0  0  0
 32 33  1  0  0  0  0
 34 35  1  0  0  0  0
 34  9  1  0  0  0  0
 36 34  1  0  0  0  0
 37 38  1  0  0  0  0
 37 34  1  0  0  0  0
 39 37  1  0  0  0  0
 40 42  1  0  0  0  0
 40  4  1  0  0  0  0
 41 40  1  0  0  0  0
 43 45  1  0  0  0  0
 43 40  1  0  0  0  0
 44 43  1  0  0  0  0
 46 47  1  0  0  0  0
 46  5  1  0  0  0  0
 48 46  1  0  0  0  0
 49 51  1  0  0  0  0
 49 46  1  0  0  0  0
 50 49  1  0  0  0  0
 52 54  1  0  0  0  0
 52  6  1  0  0  0  0
 53 52  1  0  0  0  0
 55 52  1  0  0  0  0
M  END
$$$$
