CSD_code = DIPDUE | q = 0 | S = 0 | Stoichiometry = C7H14AuCl2NS2 | MND = 4
 OpenBabel04212202023D

 27 27  0  0  0  0  0  0  0  0999 V2000
   -0.0820    2.1180   -1.3038 Au  0  0  0  0  0  0  0  0  0  0  0  0
   -0.1478    2.1188   -3.5750 Cl  0  0  0  0  0  0  0  0  0  0  0  0
   -2.3512    2.1183   -1.2216 Cl  0  0  0  0  0  0  0  0  0  0  0  0
    2.2650    2.1187   -1.0387 S   0  0  0  0  0  0  0  0  0  0  0  0
    0.3331    2.1184    1.0224 S   0  0  0  0  0  0  0  0  0  0  0  0
    2.9853    2.1184    1.5432 N   0  0  0  0  0  0  0  0  0  0  0  0
    2.0089    2.1184    0.6639 C   0  0  0  0  0  3  0  0  0  0  0  0
    4.3767    2.1184    1.0799 C   0  0  0  0  0  0  0  0  0  0  0  0
    4.3346    2.1184   -0.0132 H   0  0  0  0  0  0  0  0  0  0  0  0
    5.1001    0.8492    1.5212 C   0  0  0  0  0  0  0  0  0  0  0  0
    5.2396    0.8108    2.5984 H   0  0  0  0  0  0  0  0  0  0  0  0
    6.0791    0.8191    1.0516 H   0  0  0  0  0  0  0  0  0  0  0  0
    4.5437   -0.0298    1.2059 H   0  0  0  0  0  0  0  0  0  0  0  0
    2.7600    2.1184    2.9951 C   0  0  0  0  0  0  0  0  0  0  0  0
    3.7581    2.1185    3.4375 H   0  0  0  0  0  0  0  0  0  0  0  0
    2.0430    0.8526    3.4578 C   0  0  0  0  0  0  0  0  0  0  0  0
    1.0107    0.8391    3.1238 H   0  0  0  0  0  0  0  0  0  0  0  0
    2.0508    0.8182    4.5438 H   0  0  0  0  0  0  0  0  0  0  0  0
    2.5466   -0.0331    3.0792 H   0  0  0  0  0  0  0  0  0  0  0  0
    5.1001    3.3876    1.5212 C   0  0  0  0  0  0  0  0  0  0  0  0
    5.2396    3.4260    2.5984 H   0  0  0  0  0  0  0  0  0  0  0  0
    6.0791    3.4177    1.0516 H   0  0  0  0  0  0  0  0  0  0  0  0
    4.5438    4.2666    1.2059 H   0  0  0  0  0  0  0  0  0  0  0  0
    2.0430    3.3843    3.4577 C   0  0  0  0  0  0  0  0  0  0  0  0
    1.0107    3.3978    3.1236 H   0  0  0  0  0  0  0  0  0  0  0  0
    2.0507    3.4187    4.5437 H   0  0  0  0  0  0  0  0  0  0  0  0
    2.5465    4.2700    3.0790 H   0  0  0  0  0  0  0  0  0  0  0  0
  1  3  1  0  0  0  0
  1  4  1  0  0  0  0
  1  5  1  0  0  0  0
  2  1  1  0  0  0  0
  4  7  1  0  0  0  0
  6 14  1  0  0  0  0
  7  5  1  0  0  0  0
  7  6  1  0  0  0  0
  8 20  1  0  0  0  0
  8 10  1  0  0  0  0
  8  6  1  0  0  0  0
  9  8  1  0  0  0  0
 10 11  1  0  0  0  0
 12 10  1  0  0  0  0
 13 10  1  0  0  0  0
 14 15  1  0  0  0  0
 14 24  1  0  0  0  0
 14 16  1  0  0  0  0
 16 18  1  0  0  0  0
 17 16  1  0  0  0  0
 19 16  1  0  0  0  0
 20 21  1  0  0  0  0
 22 20  1  0  0  0  0
 23 20  1  0  0  0  0
 24 26  1  0  0  0  0
 25 24  1  0  0  0  0
 27 24  1  0  0  0  0
M  END
$$$$
