CSD_code = DIPLUJ | q = 0 | S = 0 | Stoichiometry = C12H30Cl3NO2Zr | MND = 6
 OpenBabel04212202023D

 49 46  0  0  0  0  0  0  0  0999 V2000
    9.0544    1.8749    4.1617 Zr  0  0  0  0  0  0  0  0  0  0  0  0
   10.4183    1.5903    2.2750 Cl  0  0  0  0  0  0  0  0  0  0  0  0
    7.9377    3.2962    3.3389 N   0  0  0  0  0  0  0  0  0  0  0  0
    7.5301    0.0704    3.7930 Cl  0  0  0  0  0  0  0  0  0  0  0  0
   10.4830    0.1797    4.9717 O   0  0  0  0  0  0  0  0  0  0  0  0
   10.4704    3.2480    5.5127 Cl  0  0  0  0  0  0  0  0  0  0  0  0
    7.9170    1.9252    6.0610 O   0  0  0  0  0  0  0  0  0  0  0  0
    8.3440    4.6877    3.4158 C   0  0  0  0  0  0  0  0  0  0  0  0
    8.5099    4.9485    4.4729 H   0  0  0  0  0  0  0  0  0  0  0  0
    7.5401    5.3371    3.0303 H   0  0  0  0  0  0  0  0  0  0  0  0
    9.6360    4.9667    2.6260 C   0  0  0  0  0  0  0  0  0  0  0  0
    9.8876    6.0241    2.6735 H   0  0  0  0  0  0  0  0  0  0  0  0
    9.5134    4.6795    1.5817 H   0  0  0  0  0  0  0  0  0  0  0  0
   10.4619    4.3882    3.0477 H   0  0  0  0  0  0  0  0  0  0  0  0
    7.2324    2.9640    2.1059 C   0  0  0  0  0  0  0  0  0  0  0  0
    7.6411    2.0344    1.6701 H   0  0  0  0  0  0  0  0  0  0  0  0
    7.3595    3.7630    1.3602 H   0  0  0  0  0  0  0  0  0  0  0  0
    5.7319    2.7621    2.3648 C   0  0  0  0  0  0  0  0  0  0  0  0
    5.2115    2.5681    1.4300 H   0  0  0  0  0  0  0  0  0  0  0  0
    5.3079    3.6543    2.8243 H   0  0  0  0  0  0  0  0  0  0  0  0
    5.5843    1.9129    3.0297 H   0  0  0  0  0  0  0  0  0  0  0  0
   11.8962    0.4560    5.0252 C   0  0  0  0  0  0  0  0  0  0  0  0
   12.0570    1.4116    4.5122 H   0  0  0  0  0  0  0  0  0  0  0  0
   12.4449   -0.3218    4.4853 H   0  0  0  0  0  0  0  0  0  0  0  0
   12.3732    0.5553    6.4701 C   0  0  0  0  0  0  0  0  0  0  0  0
   13.4470    0.7164    6.4890 H   0  0  0  0  0  0  0  0  0  0  0  0
   12.1476   -0.3571    7.0200 H   0  0  0  0  0  0  0  0  0  0  0  0
   11.8870    1.3989    6.9556 H   0  0  0  0  0  0  0  0  0  0  0  0
   10.2043   -1.2258    4.8790 C   0  0  0  0  0  0  0  0  0  0  0  0
    9.1636   -1.3501    5.1999 H   0  0  0  0  0  0  0  0  0  0  0  0
   10.8606   -1.7725    5.5692 H   0  0  0  0  0  0  0  0  0  0  0  0
   10.3569   -1.7487    3.4549 C   0  0  0  0  0  0  0  0  0  0  0  0
   10.0635   -2.7940    3.4172 H   0  0  0  0  0  0  0  0  0  0  0  0
   11.3818   -1.6586    3.1018 H   0  0  0  0  0  0  0  0  0  0  0  0
    9.7117   -1.1785    2.7863 H   0  0  0  0  0  0  0  0  0  0  0  0
    6.6279    2.5505    6.1355 C   0  0  0  0  0  0  0  0  0  0  0  0
    6.5589    3.1146    5.1944 H   0  0  0  0  0  0  0  0  0  0  0  0
    6.6031    3.2491    6.9810 H   0  0  0  0  0  0  0  0  0  0  0  0
    5.4842    1.5439    6.2214 C   0  0  0  0  0  0  0  0  0  0  0  0
    4.5448    2.0454    6.0079 H   0  0  0  0  0  0  0  0  0  0  0  0
    5.4111    1.0942    7.2090 H   0  0  0  0  0  0  0  0  0  0  0  0
    5.6409    0.7591    5.4829 H   0  0  0  0  0  0  0  0  0  0  0  0
    8.3498    1.2741    7.2609 C   0  0  0  0  0  0  0  0  0  0  0  0
    9.2354    0.6974    6.9667 H   0  0  0  0  0  0  0  0  0  0  0  0
    7.5740    0.5796    7.6071 H   0  0  0  0  0  0  0  0  0  0  0  0
    8.7378    2.2576    8.3611 C   0  0  0  0  0  0  0  0  0  0  0  0
    9.2330    1.7231    9.1669 H   0  0  0  0  0  0  0  0  0  0  0  0
    7.8691    2.7650    8.7729 H   0  0  0  0  0  0  0  0  0  0  0  0
    9.4249    2.9965    7.9524 H   0  0  0  0  0  0  0  0  0  0  0  0
  1  6  1  0  0  0  0
  2  1  1  0  0  0  0
  3  8  1  0  0  0  0
  3  1  1  0  0  0  0
  4  1  1  0  0  0  0
  5 22  1  0  0  0  0
  7 36  1  0  0  0  0
  7 43  1  0  0  0  0
  8  9  1  0  0  0  0
 10  8  1  0  0  0  0
 11 12  1  0  0  0  0
 11 14  1  0  0  0  0
 11  8  1  0  0  0  0
 13 11  1  0  0  0  0
 15 18  1  0  0  0  0
 15  3  1  0  0  0  0
 16 15  1  0  0  0  0
 17 15  1  0  0  0  0
 18 20  1  0  0  0  0
 18 21  1  0  0  0  0
 19 18  1  0  0  0  0
 22 25  1  0  0  0  0
 23 22  1  0  0  0  0
 24 22  1  0  0  0  0
 25 26  1  0  0  0  0
 25 28  1  0  0  0  0
 25 27  1  0  0  0  0
 29  5  1  0  0  0  0
 29 30  1  0  0  0  0
 29 31  1  0  0  0  0
 32 29  1  0  0  0  0
 33 32  1  0  0  0  0
 34 32  1  0  0  0  0
 35 32  1  0  0  0  0
 36 39  1  0  0  0  0
 36 38  1  0  0  0  0
 37 36  1  0  0  0  0
 39 41  1  0  0  0  0
 40 39  1  0  0  0  0
 42 39  1  0  0  0  0
 43 45  1  0  0  0  0
 43 46  1  0  0  0  0
 44 43  1  0  0  0  0
 46 48  1  0  0  0  0
 46 47  1  0  0  0  0
 49 46  1  0  0  0  0
M  END
$$$$
