CSD_code = DIPLIA | q = 0 | S = 0 | Stoichiometry = C10H15Br2CdN3 | MND = 5
 OpenBabel04212202023D

 31 33  0  0  1  0  0  0  0  0999 V2000
   -0.1656    2.5881    3.1940 Cd  0  0  0  0  0  0  0  0  0  0  0  0
   -0.4538    1.7780    0.8218 Br  0  0  0  0  0  0  0  0  0  0  0  0
   -1.7125    3.6800    4.8015 Br  0  0  0  0  0  0  0  0  0  0  0  0
    1.3828    4.3549    2.4508 N   0  0  0  0  0  0  0  0  0  0  0  0
    2.1583    1.9074    3.3445 N   0  0  2  0  0  0  0  0  0  0  0  0
    0.0114    0.2965    4.2396 N   0  0  0  0  0  4  0  0  0  0  0  0
    1.0080    5.5412    2.0064 C   0  0  0  0  0  3  0  0  0  0  0  0
    0.0798    5.9302    2.4108 H   0  0  0  0  0  0  0  0  0  0  0  0
    1.7445    6.2657    1.0768 C   0  0  0  0  0  0  0  0  0  0  0  0
    1.3966    7.2283    0.7381 H   0  0  0  0  0  0  0  0  0  0  0  0
    2.9221    5.7184    0.5939 C   0  0  0  0  0  0  0  0  0  0  0  0
    3.5169    6.2462   -0.1366 H   0  0  0  0  0  0  0  0  0  0  0  0
    3.3216    4.4768    1.0603 C   0  0  0  0  0  0  0  0  0  0  0  0
    4.2302    4.0152    0.7055 H   0  0  0  0  0  0  0  0  0  0  0  0
    2.5211    3.8201    1.9936 C   0  0  0  0  0  0  0  0  0  0  0  0
    2.8837    2.4971    2.4944 C   0  0  0  0  0  3  0  0  0  0  0  0
    3.7998    2.0514    2.0886 H   0  0  0  0  0  0  0  0  0  0  0  0
    2.4580    0.5934    3.8167 C   0  0  0  0  0  0  0  0  0  0  0  0
    2.7309    0.6813    4.8740 H   0  0  0  0  0  0  0  0  0  0  0  0
    3.3000    0.1359    3.2753 H   0  0  0  0  0  0  0  0  0  0  0  0
    1.2180   -0.3055    3.6747 C   0  0  0  0  0  0  0  0  0  0  0  0
    1.0405   -0.4672    2.6071 H   0  0  0  0  0  0  0  0  0  0  0  0
    1.4362   -1.2787    4.1446 H   0  0  0  0  0  0  0  0  0  0  0  0
   -1.1607   -0.4756    3.8286 C   0  0  0  0  0  0  0  0  0  0  0  0
   -1.1131   -1.5083    4.2013 H   0  0  0  0  0  0  0  0  0  0  0  0
   -1.2292   -0.5003    2.7403 H   0  0  0  0  0  0  0  0  0  0  0  0
   -2.0604   -0.0025    4.2252 H   0  0  0  0  0  0  0  0  0  0  0  0
    0.0657    0.3423    5.6983 C   0  0  0  0  0  0  0  0  0  0  0  0
   -0.8588    0.7775    6.0771 H   0  0  0  0  0  0  0  0  0  0  0  0
    0.8915    0.9707    6.0291 H   0  0  0  0  0  0  0  0  0  0  0  0
    0.1846   -0.6631    6.1274 H   0  0  0  0  0  0  0  0  0  0  0  0
  1  5  1  0  0  0  0
  1  6  1  0  0  0  0
  1  3  1  0  0  0  0
  2  1  1  0  0  0  0
  4  1  1  0  0  0  0
  5 16  1  6  0  0  0
  5 18  1  0  0  0  0
  6 28  1  0  0  0  0
  7  8  1  0  0  0  0
  7  4  1  0  0  0  0
  9  7  1  0  0  0  0
 10  9  1  0  0  0  0
 11 13  1  0  0  0  0
 11  9  2  0  0  0  0
 12 11  1  0  0  0  0
 13 15  2  0  0  0  0
 14 13  1  0  0  0  0
 15  4  1  0  0  0  0
 15 16  1  0  0  0  0
 17 16  1  0  0  0  0
 18 19  1  0  0  0  0
 20 18  1  0  0  0  0
 21 18  1  0  0  0  0
 21 23  1  0  0  0  0
 21  6  1  0  0  0  0
 22 21  1  0  0  0  0
 24 25  1  0  0  0  0
 24 27  1  0  0  0  0
 24  6  1  0  0  0  0
 26 24  1  0  0  0  0
 28 30  1  0  0  0  0
 28 29  1  0  0  0  0
 28 31  1  0  0  0  0
M  END
$$$$
