CSD_code = DIPMAT | q = 0 | S = 0 | Stoichiometry = C11H17Br2CdN3 | MND = 5
 OpenBabel04212202023D

 34 36  0  0  1  0  0  0  0  0999 V2000
   -0.4836    2.5498    2.6524 Cd  0  0  0  0  0  0  0  0  0  0  0  0
   -0.9853    1.1763    0.6109 Br  0  0  0  0  0  0  0  0  0  0  0  0
   -2.0894    4.0863    3.8089 Br  0  0  0  0  0  0  0  0  0  0  0  0
    1.0495    4.4023    2.0904 N   0  0  0  0  0  0  0  0  0  0  0  0
   -0.6105    0.7252    4.3721 N   0  0  0  0  0  4  0  0  0  0  0  0
    1.8389    1.8232    2.5704 N   0  0  2  0  0  0  0  0  0  0  0  0
    0.6931    5.6604    1.9064 C   0  0  0  0  0  3  0  0  0  0  0  0
   -0.3313    5.9093    2.1575 H   0  0  0  0  0  0  0  0  0  0  0  0
    1.5694    6.6266    1.4266 C   0  0  0  0  0  0  0  0  0  0  0  0
    1.2357    7.6427    1.2914 H   0  0  0  0  0  0  0  0  0  0  0  0
    2.8689    6.2515    1.1261 C   0  0  0  0  0  0  0  0  0  0  0  0
    3.5780    6.9717    0.7463 H   0  0  0  0  0  0  0  0  0  0  0  0
    3.2449    4.9324    1.3199 C   0  0  0  0  0  0  0  0  0  0  0  0
    4.2480    4.6014    1.0978 H   0  0  0  0  0  0  0  0  0  0  0  0
    2.3027    4.0302    1.8119 C   0  0  0  0  0  0  0  0  0  0  0  0
    2.6440    2.6261    2.0193 C   0  0  0  0  0  3  0  0  0  0  0  0
    3.6255    2.3067    1.6473 H   0  0  0  0  0  0  0  0  0  0  0  0
    2.1482    0.4307    2.6615 C   0  0  0  0  0  0  0  0  0  0  0  0
    3.2184    0.2497    2.4753 H   0  0  0  0  0  0  0  0  0  0  0  0
    1.5754   -0.0665    1.8683 H   0  0  0  0  0  0  0  0  0  0  0  0
    1.7396   -0.1680    4.0109 C   0  0  0  0  0  0  0  0  0  0  0  0
    2.0931    0.4799    4.8146 H   0  0  0  0  0  0  0  0  0  0  0  0
    2.2553   -1.1252    4.1093 H   0  0  0  0  0  0  0  0  0  0  0  0
    0.2413   -0.4487    4.1512 C   0  0  0  0  0  0  0  0  0  0  0  0
   -0.1010   -0.9374    3.2340 H   0  0  0  0  0  0  0  0  0  0  0  0
    0.1006   -1.1592    4.9846 H   0  0  0  0  0  0  0  0  0  0  0  0
   -2.0096    0.3015    4.2581 C   0  0  0  0  0  0  0  0  0  0  0  0
   -2.2050   -0.0739    3.2521 H   0  0  0  0  0  0  0  0  0  0  0  0
   -2.6685    1.1493    4.4508 H   0  0  0  0  0  0  0  0  0  0  0  0
   -2.2451   -0.4918    4.9812 H   0  0  0  0  0  0  0  0  0  0  0  0
   -0.4025    1.2719    5.7123 C   0  0  0  0  0  0  0  0  0  0  0  0
   -0.5819    0.5106    6.4851 H   0  0  0  0  0  0  0  0  0  0  0  0
   -1.0896    2.1014    5.8772 H   0  0  0  0  0  0  0  0  0  0  0  0
    0.6144    1.6479    5.8185 H   0  0  0  0  0  0  0  0  0  0  0  0
  1  3  1  0  0  0  0
  1  5  1  0  0  0  0
  2  1  1  0  0  0  0
  4  1  1  0  0  0  0
  5 31  1  0  0  0  0
  6 16  1  6  0  0  0
  6  1  1  0  0  0  0
  6 18  1  0  0  0  0
  7  4  1  0  0  0  0
  7  8  1  0  0  0  0
  9  7  1  0  0  0  0
 10  9  1  0  0  0  0
 11 13  1  0  0  0  0
 11  9  2  0  0  0  0
 12 11  1  0  0  0  0
 13 15  2  0  0  0  0
 14 13  1  0  0  0  0
 15 16  1  0  0  0  0
 15  4  1  0  0  0  0
 17 16  1  0  0  0  0
 18 21  1  0  0  0  0
 19 18  1  0  0  0  0
 20 18  1  0  0  0  0
 21 23  1  0  0  0  0
 21 24  1  0  0  0  0
 21 22  1  0  0  0  0
 24  5  1  0  0  0  0
 24 26  1  0  0  0  0
 25 24  1  0  0  0  0
 27  5  1  0  0  0  0
 27 29  1  0  0  0  0
 27 30  1  0  0  0  0
 28 27  1  0  0  0  0
 31 34  1  0  0  0  0
 31 33  1  0  0  0  0
 31 32  1  0  0  0  0
M  END
$$$$
