CSD_code = DIPVAB | q = 0 | S = 0 | Stoichiometry = C6H6AuClO2 | MND = 2
 OpenBabel04212202023D

 16 16  0  0  1  0  0  0  0  0999 V2000
    9.0917    3.2636    9.3958 Au  0  0  0  0  0  0  0  0  0  0  0  0
   10.0252    2.5984   11.3081 Cl  0  0  0  0  0  0  0  0  0  0  0  0
    6.9915    4.0485    7.4289 O   0  0  0  0  0  0  0  0  0  0  0  0
    9.0888    4.1323    6.5601 C   0  0  0  0  0  0  0  0  0  0  0  0
    8.2632    3.8590    7.6843 C   0  0  1  0  0  3  0  0  0  0  0  0
    6.0203    3.8275    8.4257 C   0  0  0  0  0  0  0  0  0  0  0  0
    6.4847    3.5000    9.3617 H   0  0  0  0  0  0  0  0  0  0  0  0
    5.3276    3.0661    8.0620 H   0  0  0  0  0  0  0  0  0  0  0  0
    5.4753    4.7606    8.5816 H   0  0  0  0  0  0  0  0  0  0  0  0
    8.5739    4.5434    5.3660 O   0  0  0  0  0  0  0  0  0  0  0  0
   10.4714    4.0480    6.4464 C   0  0  0  0  0  0  0  0  0  0  0  0
   11.1468    3.7514    7.2221 H   0  0  0  0  0  0  0  0  0  0  0  0
    9.5876    4.7122    4.5320 C   0  0  0  0  0  0  0  0  0  0  0  0
    9.3602    5.0381    3.5344 H   0  0  0  0  0  0  0  0  0  0  0  0
   10.7864    4.4234    5.1359 C   0  0  0  0  0  0  0  0  0  0  0  0
   11.7583    4.4765    4.6906 H   0  0  0  0  0  0  0  0  0  0  0  0
  1  2  1  0  0  0  0
  3  6  1  0  0  0  0
  4  5  1  0  0  0  0
  5  3  1  1  0  0  0
  5  1  1  0  0  0  0
  6  9  1  0  0  0  0
  6  7  1  0  0  0  0
  8  6  1  0  0  0  0
 10  4  1  0  0  0  0
 11  4  2  0  0  0  0
 11 12  1  0  0  0  0
 13 15  2  0  0  0  0
 13 10  1  0  0  0  0
 14 13  1  0  0  0  0
 15 11  1  0  0  0  0
 16 15  1  0  0  0  0
M  END
$$$$
