CSD_code = DIPVUV | q = 0 | S = 0 | Stoichiometry = C5H5AuClNO | MND = 2
 OpenBabel04212202023D

 14 14  0  0  1  0  0  0  0  0999 V2000
    6.0675    8.0533    3.4957 Au  0  0  0  0  0  0  0  0  0  0  0  0
    4.5739    8.1839    5.1449 Cl  0  0  0  0  0  0  0  0  0  0  0  0
    7.4012    7.9318    2.0267 C   0  0  1  0  0  3  0  0  0  0  0  0
    8.3981    8.7791    1.8591 N   0  0  0  0  0  0  0  0  0  0  0  0
    9.0612    8.6809    1.0973 H   0  0  0  0  0  0  0  0  0  0  0  0
    8.5253    9.5519    2.4913 H   0  0  0  0  0  0  0  0  0  0  0  0
    8.2471    6.7791    0.0521 O   0  0  0  0  0  0  0  0  0  0  0  0
    7.3314    6.8825    1.0654 C   0  0  0  0  0  0  0  0  0  0  0  0
    6.4223    5.8462    0.9523 C   0  0  0  0  0  0  0  0  0  0  0  0
    5.5922    5.6688    1.6043 H   0  0  0  0  0  0  0  0  0  0  0  0
    6.8064    5.0942   -0.1689 C   0  0  0  0  0  0  0  0  0  0  0  0
    6.3292    4.2178   -0.5557 H   0  0  0  0  0  0  0  0  0  0  0  0
    7.9196    5.7116   -0.6703 C   0  0  0  0  0  0  0  0  0  0  0  0
    8.5404    5.4794   -1.5147 H   0  0  0  0  0  0  0  0  0  0  0  0
  1  2  1  0  0  0  0
  3  1  1  1  0  0  0
  4  3  1  0  0  0  0
  4  6  1  0  0  0  0
  5  4  1  0  0  0  0
  7  8  1  0  0  0  0
  8  3  1  0  0  0  0
  9  8  2  0  0  0  0
  9 10  1  0  0  0  0
 11  9  1  0  0  0  0
 12 11  1  0  0  0  0
 13 11  2  0  0  0  0
 13  7  1  0  0  0  0
 14 13  1  0  0  0  0
M  END
$$$$
