CSD_code = DIPYUW | q = 0 | S = 0 | Stoichiometry = C26H22BrN3O3PRe | MND = 6
 OpenBabel04212202023D

 57 59  0  0  0  0  0  0  0  0999 V2000
    6.6661    0.7344    5.6276 Re  0  0  0  0  0  0  0  0  0  0  0  0
    5.4520    3.0997    5.2162 Br  0  0  0  0  0  0  0  0  0  0  0  0
    8.3053    2.6924    0.8310 P   0  0  0  0  0  4  0  0  0  0  0  0
    9.1120    2.7109    6.0990 N   0  0  0  0  0  2  0  0  0  0  0  0
    7.2456    1.1776    2.5062 N   0  0  0  0  0  2  0  0  0  0  0  0
    7.3546    1.4703    1.2501 N   0  0  0  0  0  2  0  0  0  0  0  0
    8.1024   -1.9663    6.1158 O   0  0  0  0  0  1  0  0  0  0  0  0
    3.8481   -0.4088    5.0079 O   0  0  0  0  0  1  0  0  0  0  0  0
    5.8440    1.1954    8.5815 O   0  0  0  0  0  1  0  0  0  0  0  0
    7.5734   -0.9651    5.9224 C   0  0  0  0  0  2  0  0  0  0  0  0
    4.9084   -0.0581    5.2398 C   0  0  0  0  0  2  0  0  0  0  0  0
    6.1711    0.9764    7.5086 C   0  0  0  0  0  2  0  0  0  0  0  0
    8.3016    1.8929    5.9307 C   0  0  0  0  0  2  0  0  0  0  0  0
   10.0402    3.7294    6.3226 C   0  0  0  0  0  0  0  0  0  0  0  0
    9.6046    5.0403    5.6595 C   0  0  0  0  0  0  0  0  0  0  0  0
    8.3413    5.6090    6.2905 C   0  0  0  0  0  0  0  0  0  0  0  0
    7.0754    0.8115    3.5950 C   0  0  0  0  0  2  0  0  0  0  0  0
    8.0878    2.8566   -0.9430 C   0  0  0  0  0  0  0  0  0  0  0  0
    8.6575    3.9430   -1.5981 C   0  0  0  0  0  0  0  0  0  0  0  0
    8.4978    4.0729   -2.9651 C   0  0  0  0  0  0  0  0  0  0  0  0
    7.7716    3.1249   -3.6701 C   0  0  0  0  0  0  0  0  0  0  0  0
    7.2007    2.0471   -3.0119 C   0  0  0  0  0  0  0  0  0  0  0  0
    7.3556    1.9084   -1.6442 C   0  0  0  0  0  0  0  0  0  0  0  0
   10.0577    2.3647    1.2027 C   0  0  0  0  0  0  0  0  0  0  0  0
   10.9816    2.0306    0.2216 C   0  0  0  0  0  0  0  0  0  0  0  0
   12.2674    1.6752    0.5896 C   0  0  0  0  0  0  0  0  0  0  0  0
   12.6225    1.6331    1.9282 C   0  0  0  0  0  0  0  0  0  0  0  0
   11.6931    1.9468    2.9082 C   0  0  0  0  0  0  0  0  0  0  0  0
   10.4105    2.3133    2.5489 C   0  0  0  0  0  0  0  0  0  0  0  0
    7.9293    4.2673    1.6529 C   0  0  0  0  0  0  0  0  0  0  0  0
    6.6369    4.4551    2.1285 C   0  0  0  0  0  0  0  0  0  0  0  0
    6.3070    5.6328    2.7743 C   0  0  0  0  0  0  0  0  0  0  0  0
    7.2616    6.6241    2.9259 C   0  0  0  0  0  0  0  0  0  0  0  0
    8.5502    6.4393    2.4458 C   0  0  0  0  0  0  0  0  0  0  0  0
    8.8930    5.2585    1.8144 C   0  0  0  0  0  0  0  0  0  0  0  0
   11.0064    3.4004    5.9231 H   0  0  0  0  0  0  0  0  0  0  0  0
   10.1340    3.8674    7.4053 H   0  0  0  0  0  0  0  0  0  0  0  0
   10.4281    5.7504    5.7610 H   0  0  0  0  0  0  0  0  0  0  0  0
    9.4352    4.8680    4.5943 H   0  0  0  0  0  0  0  0  0  0  0  0
    8.0908    6.5601    5.8296 H   0  0  0  0  0  0  0  0  0  0  0  0
    7.4986    4.9384    6.1447 H   0  0  0  0  0  0  0  0  0  0  0  0
    8.4815    5.7683    7.3575 H   0  0  0  0  0  0  0  0  0  0  0  0
    9.2166    4.6777   -1.0342 H   0  0  0  0  0  0  0  0  0  0  0  0
    8.9368    4.9132   -3.4821 H   0  0  0  0  0  0  0  0  0  0  0  0
    7.6485    3.2299   -4.7377 H   0  0  0  0  0  0  0  0  0  0  0  0
    6.6336    1.3144   -3.5660 H   0  0  0  0  0  0  0  0  0  0  0  0
    6.9176    1.0804   -1.1080 H   0  0  0  0  0  0  0  0  0  0  0  0
   10.6921    2.0543   -0.8200 H   0  0  0  0  0  0  0  0  0  0  0  0
   12.9924    1.4231   -0.1699 H   0  0  0  0  0  0  0  0  0  0  0  0
   13.6247    1.3474    2.2101 H   0  0  0  0  0  0  0  0  0  0  0  0
   11.9699    1.8947    3.9509 H   0  0  0  0  0  0  0  0  0  0  0  0
    9.6704    2.5559    3.3018 H   0  0  0  0  0  0  0  0  0  0  0  0
    5.8993    3.6741    2.0112 H   0  0  0  0  0  0  0  0  0  0  0  0
    5.3149    5.7586    3.1761 H   0  0  0  0  0  0  0  0  0  0  0  0
    7.0042    7.5448    3.4273 H   0  0  0  0  0  0  0  0  0  0  0  0
    9.2933    7.2133    2.5735 H   0  0  0  0  0  0  0  0  0  0  0  0
    9.9022    5.0968    1.4587 H   0  0  0  0  0  0  0  0  0  0  0  0
  1 10  1  0  0  0  0
  1 13  1  0  0  0  0
  1 12  1  0  0  0  0
  2  1  1  0  0  0  0
  3 24  1  0  0  0  0
  3  6  1  0  0  0  0
  3 30  1  0  0  0  0
  4 14  1  0  0  0  0
  5 17  1  0  0  0  0
  6  5  1  0  0  0  0
  8 11  1  0  0  0  0
 10  7  1  0  0  0  0
 11  1  1  0  0  0  0
 12  9  1  0  0  0  0
 13  4  1  0  0  0  0
 14 37  1  0  0  0  0
 15 38  1  0  0  0  0
 15 16  1  0  0  0  0
 15 14  1  0  0  0  0
 16 42  1  0  0  0  0
 17  1  1  0  0  0  0
 18  3  1  0  0  0  0
 19 43  1  0  0  0  0
 19 18  1  0  0  0  0
 20 19  2  0  0  0  0
 21 22  2  0  0  0  0
 21 20  1  0  0  0  0
 22 23  1  0  0  0  0
 23 47  1  0  0  0  0
 23 18  2  0  0  0  0
 24 29  1  0  0  0  0
 25 26  1  0  0  0  0
 25 24  2  0  0  0  0
 26 27  2  0  0  0  0
 27 50  1  0  0  0  0
 27 28  1  0  0  0  0
 28 51  1  0  0  0  0
 29 28  2  0  0  0  0
 29 52  1  0  0  0  0
 30 35  2  0  0  0  0
 30 31  1  0  0  0  0
 31 32  2  0  0  0  0
 32 33  1  0  0  0  0
 32 54  1  0  0  0  0
 33 55  1  0  0  0  0
 34 56  1  0  0  0  0
 34 33  2  0  0  0  0
 35 34  1  0  0  0  0
 36 14  1  0  0  0  0
 39 15  1  0  0  0  0
 40 16  1  0  0  0  0
 41 16  1  0  0  0  0
 44 20  1  0  0  0  0
 45 21  1  0  0  0  0
 46 22  1  0  0  0  0
 48 25  1  0  0  0  0
 49 26  1  0  0  0  0
 53 31  1  0  0  0  0
 57 35  1  0  0  0  0
M  END
$$$$
