CSD_code = DIPZAD | q = 0 | S = 0 | Stoichiometry = C14H11BrN3O3Re | MND = 6
 OpenBabel04212202023D

 33 33  0  0  0  0  0  0  0  0999 V2000
    1.8726    3.5161    3.0039 Re  0  0  0  0  0  0  0  0  0  0  0  0
    2.6541    1.9450    0.9608 Br  0  0  0  0  0  0  0  0  0  0  0  0
    0.9356    5.3182    5.3446 O   0  0  0  0  0  1  0  0  0  0  0  0
    3.8372    1.7308    4.6147 O   0  0  0  0  0  1  0  0  0  0  0  0
    4.2471    5.2818    2.0726 O   0  0  0  0  0  1  0  0  0  0  0  0
    0.2000    4.7875    0.6208 N   0  0  0  0  0  2  0  0  0  0  0  0
   -0.1573    1.0805    3.1066 N   0  0  0  0  0  2  0  0  0  0  0  0
   -0.9545    0.0702    3.1794 N   0  0  0  0  0  0  0  0  0  0  0  0
    1.2719    4.6465    4.4795 C   0  0  0  0  0  2  0  0  0  0  0  0
    3.0995    2.4239    4.0917 C   0  0  0  0  0  2  0  0  0  0  0  0
    3.3636    4.6805    2.4696 C   0  0  0  0  0  2  0  0  0  0  0  0
    0.7323    4.4051    1.5859 C   0  0  0  0  0  2  0  0  0  0  0  0
   -0.3784    5.2516   -0.5146 C   0  0  0  0  0  0  0  0  0  0  0  0
   -1.6179    4.7535   -0.9105 C   0  0  0  0  0  0  0  0  0  0  0  0
   -2.1935    5.2296   -2.0724 C   0  0  0  0  0  0  0  0  0  0  0  0
   -1.5448    6.1907   -2.8322 C   0  0  0  0  0  0  0  0  0  0  0  0
   -0.3112    6.6805   -2.4320 C   0  0  0  0  0  0  0  0  0  0  0  0
    0.2808    6.2169   -1.2734 C   0  0  0  0  0  0  0  0  0  0  0  0
    0.4356    2.0762    3.2471 C   0  0  0  0  0  2  0  0  0  0  0  0
   -0.8439   -0.9551    2.4245 C   0  0  0  0  0  0  0  0  0  0  0  0
    0.1745   -1.1357    1.3533 C   0  0  0  0  0  0  0  0  0  0  0  0
   -1.8295   -2.0479    2.6453 C   0  0  0  0  0  0  0  0  0  0  0  0
   -2.1090    4.0038   -0.3086 H   0  0  0  0  0  0  0  0  0  0  0  0
   -3.1530    4.8480   -2.3872 H   0  0  0  0  0  0  0  0  0  0  0  0
   -2.0006    6.5575   -3.7392 H   0  0  0  0  0  0  0  0  0  0  0  0
    0.1939    7.4268   -3.0261 H   0  0  0  0  0  0  0  0  0  0  0  0
    1.2425    6.5856   -0.9504 H   0  0  0  0  0  0  0  0  0  0  0  0
    0.9279   -0.3503    1.3589 H   0  0  0  0  0  0  0  0  0  0  0  0
   -0.3175   -1.1270    0.3804 H   0  0  0  0  0  0  0  0  0  0  0  0
    0.6637   -2.1021    1.4603 H   0  0  0  0  0  0  0  0  0  0  0  0
   -2.5535   -1.7637    3.4035 H   0  0  0  0  0  0  0  0  0  0  0  0
   -1.3100   -2.9499    2.9667 H   0  0  0  0  0  0  0  0  0  0  0  0
   -2.3449   -2.2800    1.7148 H   0  0  0  0  0  0  0  0  0  0  0  0
  1 19  1  0  0  0  0
  1 10  1  0  0  0  0
  1  9  1  0  0  0  0
  2  1  1  0  0  0  0
  5 11  1  0  0  0  0
  6 12  1  0  0  0  0
  7  8  1  0  0  0  0
  7 19  1  0  0  0  0
  9  3  1  0  0  0  0
 10  4  1  0  0  0  0
 11  1  1  0  0  0  0
 12  1  1  0  0  0  0
 13  6  1  0  0  0  0
 14 13  1  0  0  0  0
 14 23  1  0  0  0  0
 15 14  2  0  0  0  0
 16 17  2  0  0  0  0
 16 15  1  0  0  0  0
 17 18  1  0  0  0  0
 18 27  1  0  0  0  0
 18 13  2  0  0  0  0
 20 22  1  0  0  0  0
 20  8  2  0  0  0  0
 21 28  1  0  0  0  0
 21 30  1  0  0  0  0
 21 20  1  0  0  0  0
 22 32  1  0  0  0  0
 22 31  1  0  0  0  0
 24 15  1  0  0  0  0
 25 16  1  0  0  0  0
 26 17  1  0  0  0  0
 29 21  1  0  0  0  0
 33 22  1  0  0  0  0
M  END
$$$$
