CSD_code = DIQQID | q = 0 | S = 0 | Stoichiometry = C17H40Cl2N2O2Si2Zr | MND = 6
 OpenBabel04212202023D

 66 66  0  0  0  0  0  0  0  0999 V2000
   -0.6441    2.7626    2.8575 Zr  0  0  0  0  0  0  0  0  0  0  0  0
    0.2197    2.2118    0.6923 Cl  0  0  0  0  0  0  0  0  0  0  0  0
    2.2677    4.4511    2.6762 Si  0  0  0  0  0  0  0  0  0  0  0  0
    0.6734    0.9710    3.4084 O   0  0  0  0  0  0  0  0  0  0  0  0
    0.7866    4.0772    3.4564 N   0  0  0  0  0  0  0  0  0  0  0  0
    1.3330    0.9489    4.6929 C   0  0  0  0  0  0  0  0  0  0  0  0
    1.7462    1.9481    4.8784 H   0  0  0  0  0  0  0  0  0  0  0  0
    0.5777    0.7227    5.4579 H   0  0  0  0  0  0  0  0  0  0  0  0
    2.3846   -0.1553    4.6175 C   0  0  0  0  0  0  0  0  0  0  0  0
    2.5744   -0.6047    5.5891 H   0  0  0  0  0  0  0  0  0  0  0  0
    3.3211    0.2293    4.2140 H   0  0  0  0  0  0  0  0  0  0  0  0
    1.7473   -1.1221    3.6231 C   0  0  0  0  0  0  0  0  0  0  0  0
    0.9760   -1.7177    4.1143 H   0  0  0  0  0  0  0  0  0  0  0  0
    2.4657   -1.7894    3.1537 H   0  0  0  0  0  0  0  0  0  0  0  0
    1.1269   -0.1483    2.6280 C   0  0  0  0  0  0  0  0  0  0  0  0
    1.8744    0.1947    1.9011 H   0  0  0  0  0  0  0  0  0  0  0  0
    0.2762   -0.5583    2.0762 H   0  0  0  0  0  0  0  0  0  0  0  0
    0.0116    5.1990    3.9657 C   0  0  0  0  0  0  0  0  0  0  0  0
    0.6491    5.8644    4.5683 H   0  0  0  0  0  0  0  0  0  0  0  0
   -0.7744    4.8093    4.6340 H   0  0  0  0  0  0  0  0  0  0  0  0
   -0.6441    6.0518    2.8575 C   0  0  0  0  0  0  0  0  0  0  0  0
    0.1154    6.6913    2.4021 H   0  0  0  0  0  0  0  0  0  0  0  0
   -1.4035    6.6914    3.3128 H   0  0  0  0  0  0  0  0  0  0  0  0
    3.3302    2.8639    2.5424 C   0  0  0  0  0  0  0  0  0  0  0  0
    3.6211    2.4638    3.5077 H   0  0  0  0  0  0  0  0  0  0  0  0
    4.2413    3.0960    2.0022 H   0  0  0  0  0  0  0  0  0  0  0  0
    2.8079    2.0998    1.9781 H   0  0  0  0  0  0  0  0  0  0  0  0
    2.2554    5.1832    0.8908 C   0  0  0  0  0  0  0  0  0  0  0  0
    1.7500    6.1433    0.8268 H   0  0  0  0  0  0  0  0  0  0  0  0
    1.7696    4.5043    0.1950 H   0  0  0  0  0  0  0  0  0  0  0  0
    3.2717    5.3318    0.5370 H   0  0  0  0  0  0  0  0  0  0  0  0
    3.2684    5.7066    3.7322 C   0  0  0  0  0  0  0  0  0  0  0  0
    2.8749    6.7129    3.6342 H   0  0  0  0  0  0  0  0  0  0  0  0
    4.3057    5.7324    3.4182 H   0  0  0  0  0  0  0  0  0  0  0  0
    3.2503    5.4468    4.7859 H   0  0  0  0  0  0  0  0  0  0  0  0
   -1.5071    2.2105    5.0223 Cl  0  0  0  0  0  0  0  0  0  0  0  0
   -1.9619    0.9713    2.3066 O   0  0  0  0  0  0  0  0  0  0  0  0
   -2.6213    0.9489    1.0220 C   0  0  0  0  0  0  0  0  0  0  0  0
   -3.0345    1.9480    0.8362 H   0  0  0  0  0  0  0  0  0  0  0  0
   -1.8659    0.7226    0.2571 H   0  0  0  0  0  0  0  0  0  0  0  0
   -3.6728   -0.1554    1.0973 C   0  0  0  0  0  0  0  0  0  0  0  0
   -3.8624   -0.6049    0.1257 H   0  0  0  0  0  0  0  0  0  0  0  0
   -4.6094    0.2292    1.5006 H   0  0  0  0  0  0  0  0  0  0  0  0
   -3.0356   -1.1220    2.0919 C   0  0  0  0  0  0  0  0  0  0  0  0
   -2.2641   -1.7175    1.6008 H   0  0  0  0  0  0  0  0  0  0  0  0
   -3.7540   -1.7893    2.5611 H   0  0  0  0  0  0  0  0  0  0  0  0
   -2.4155   -0.1480    3.0870 C   0  0  0  0  0  0  0  0  0  0  0  0
   -3.1633    0.1950    3.8136 H   0  0  0  0  0  0  0  0  0  0  0  0
   -1.5649   -0.5579    3.6391 H   0  0  0  0  0  0  0  0  0  0  0  0
   -1.2998    5.1989    1.7492 C   0  0  0  0  0  0  0  0  0  0  0  0
   -2.0747    4.0771    2.2585 N   0  0  0  0  0  0  0  0  0  0  0  0
   -3.5558    4.4510    3.0387 Si  0  0  0  0  0  0  0  0  0  0  0  0
   -4.6184    2.8639    3.1727 C   0  0  0  0  0  0  0  0  0  0  0  0
   -4.9087    2.4633    2.2074 H   0  0  0  0  0  0  0  0  0  0  0  0
   -5.5298    3.0963    3.7123 H   0  0  0  0  0  0  0  0  0  0  0  0
   -4.0963    2.1002    3.7377 H   0  0  0  0  0  0  0  0  0  0  0  0
   -3.5436    5.1833    4.8241 C   0  0  0  0  0  0  0  0  0  0  0  0
   -3.0382    6.1433    4.8881 H   0  0  0  0  0  0  0  0  0  0  0  0
   -3.0578    4.5043    5.5198 H   0  0  0  0  0  0  0  0  0  0  0  0
   -4.5599    5.3319    5.1780 H   0  0  0  0  0  0  0  0  0  0  0  0
   -4.5566    5.7065    1.9827 C   0  0  0  0  0  0  0  0  0  0  0  0
   -4.1632    6.7128    2.0808 H   0  0  0  0  0  0  0  0  0  0  0  0
   -5.5940    5.7323    2.2966 H   0  0  0  0  0  0  0  0  0  0  0  0
   -4.5384    5.4467    0.9290 H   0  0  0  0  0  0  0  0  0  0  0  0
   -1.9372    5.8644    1.1466 H   0  0  0  0  0  0  0  0  0  0  0  0
   -0.5138    4.8092    1.0809 H   0  0  0  0  0  0  0  0  0  0  0  0
  1  5  1  0  0  0  0
  1 36  1  0  0  0  0
  2  1  1  0  0  0  0
  3  5  1  0  0  0  0
  3 32  1  0  0  0  0
  4  6  1  0  0  0  0
  5 18  1  0  0  0  0
  6  7  1  0  0  0  0
  6  8  1  0  0  0  0
  9  6  1  0  0  0  0
  9 10  1  0  0  0  0
 11  9  1  0  0  0  0
 12 13  1  0  0  0  0
 12  9  1  0  0  0  0
 14 12  1  0  0  0  0
 15  4  1  0  0  0  0
 15 12  1  0  0  0  0
 16 15  1  0  0  0  0
 17 15  1  0  0  0  0
 18 19  1  0  0  0  0
 18 20  1  0  0  0  0
 21 23  1  0  0  0  0
 21 18  1  0  0  0  0
 22 21  1  0  0  0  0
 24  3  1  0  0  0  0
 24 25  1  0  0  0  0
 26 24  1  0  0  0  0
 27 24  1  0  0  0  0
 28  3  1  0  0  0  0
 29 28  1  0  0  0  0
 30 28  1  0  0  0  0
 31 28  1  0  0  0  0
 32 35  1  0  0  0  0
 33 32  1  0  0  0  0
 34 32  1  0  0  0  0
 37 47  1  0  0  0  0
 38 41  1  0  0  0  0
 38 37  1  0  0  0  0
 39 38  1  0  0  0  0
 40 38  1  0  0  0  0
 41 43  1  0  0  0  0
 41 44  1  0  0  0  0
 42 41  1  0  0  0  0
 44 46  1  0  0  0  0
 44 47  1  0  0  0  0
 45 44  1  0  0  0  0
 47 49  1  0  0  0  0
 47 48  1  0  0  0  0
 50 51  1  0  0  0  0
 50 21  1  0  0  0  0
 51  1  1  0  0  0  0
 51 52  1  0  0  0  0
 52 53  1  0  0  0  0
 52 57  1  0  0  0  0
 53 55  1  0  0  0  0
 53 56  1  0  0  0  0
 54 53  1  0  0  0  0
 57 58  1  0  0  0  0
 57 60  1  0  0  0  0
 57 59  1  0  0  0  0
 61 62  1  0  0  0  0
 61 63  1  0  0  0  0
 61 52  1  0  0  0  0
 64 61  1  0  0  0  0
 65 50  1  0  0  0  0
 66 50  1  0  0  0  0
M  END
$$$$
