CSD_code = DIQVOO | q = 1 | S = 0 | Stoichiometry = C21H25ClN4Rh(1+) | MND = 6
 OpenBabel04212202023D

 52 57  0  0  1  0  0  0  0  0999 V2000
    2.8148    1.3738   11.5100 Rh  0  0  0  0  0  0  0  0  0  0  0  0
    4.0184    2.0344   13.3045 Cl  0  0  0  0  0  0  0  0  0  0  0  0
    3.6815    2.4207    9.9446 N   0  0  0  0  0  0  0  0  0  0  0  0
    1.6905    0.1653   12.6280 N   0  0  0  0  0  0  0  0  0  0  0  0
    1.7235    0.5536    9.9110 N   0  0  1  0  0  4  0  0  0  0  0  0
    3.9961   -0.5283   11.1493 N   0  0  0  0  0  0  0  0  0  0  0  0
    1.5344    2.9559   11.9905 C   0  0  0  0  0  0  0  0  0  0  0  0
    0.5488    2.7805   11.5404 H   0  0  0  0  0  0  0  0  0  0  0  0
    1.4098    2.9197   13.0769 H   0  0  0  0  0  0  0  0  0  0  0  0
    2.0207    4.3441   11.6166 C   0  0  0  0  0  0  0  0  0  0  0  0
    2.9948    4.5475   12.0552 H   0  0  0  0  0  0  0  0  0  0  0  0
    1.3224    5.0811   12.0174 H   0  0  0  0  0  0  0  0  0  0  0  0
    2.0759    4.4982   10.5393 H   0  0  0  0  0  0  0  0  0  0  0  0
    2.4983   -0.5253    9.2724 C   0  0  0  0  0  0  0  0  0  0  0  0
    1.8339   -1.2093    8.7293 H   0  0  0  0  0  0  0  0  0  0  0  0
    3.1820   -0.0727    8.5450 H   0  0  0  0  0  0  0  0  0  0  0  0
    3.3503   -1.2847   10.2584 C   0  0  1  0  0  3  0  0  0  0  0  0
    3.5029   -2.6616   10.2161 C   0  0  0  0  0  0  0  0  0  0  0  0
    2.9690   -3.2490    9.4856 H   0  0  0  0  0  0  0  0  0  0  0  0
    4.3603   -3.2651   11.1250 C   0  0  0  0  0  0  0  0  0  0  0  0
    4.4995   -4.3351   11.1131 H   0  0  0  0  0  0  0  0  0  0  0  0
    5.0304   -2.4722   12.0428 C   0  0  0  0  0  0  0  0  0  0  0  0
    5.7085   -2.9027   12.7611 H   0  0  0  0  0  0  0  0  0  0  0  0
    4.8116   -1.1039   12.0240 C   0  0  0  0  0  0  0  0  0  0  0  0
    5.2964   -0.4394   12.7274 H   0  0  0  0  0  0  0  0  0  0  0  0
    0.4885    0.0350   10.5085 C   0  0  0  0  0  0  0  0  0  0  0  0
    0.0462   -0.7621    9.8968 H   0  0  0  0  0  0  0  0  0  0  0  0
   -0.2461    0.8446   10.5731 H   0  0  0  0  0  0  0  0  0  0  0  0
    0.7388   -0.4624   11.9136 C   0  0  2  0  0  3  0  0  0  0  0  0
   -0.0169   -1.4892   12.4564 C   0  0  0  0  0  0  0  0  0  0  0  0
   -0.7729   -1.9725   11.8575 H   0  0  0  0  0  0  0  0  0  0  0  0
    0.1999   -1.8763   13.7700 C   0  0  0  0  0  0  0  0  0  0  0  0
   -0.3817   -2.6711   14.2092 H   0  0  0  0  0  0  0  0  0  0  0  0
    1.1734   -1.2146   14.4996 C   0  0  0  0  0  0  0  0  0  0  0  0
    1.3740   -1.4717   15.5265 H   0  0  0  0  0  0  0  0  0  0  0  0
    1.8967   -0.2044   13.8902 C   0  0  0  0  0  0  0  0  0  0  0  0
    2.6666    0.3391   14.4235 H   0  0  0  0  0  0  0  0  0  0  0  0
    1.5524    1.6707    8.9798 C   0  0  0  0  0  0  0  0  0  0  0  0
    0.7793    2.3446    9.3599 H   0  0  0  0  0  0  0  0  0  0  0  0
    1.2395    1.3268    7.9846 H   0  0  0  0  0  0  0  0  0  0  0  0
    2.8501    2.4436    8.8821 C   0  0  1  0  0  3  0  0  0  0  0  0
    3.1383    3.1487    7.7281 C   0  0  0  0  0  0  0  0  0  0  0  0
    2.4394    3.1451    6.9071 H   0  0  0  0  0  0  0  0  0  0  0  0
    4.3254    3.8630    7.6525 C   0  0  0  0  0  0  0  0  0  0  0  0
    4.5640    4.4433    6.7756 H   0  0  0  0  0  0  0  0  0  0  0  0
    5.1974    3.7876    8.7170 C   0  0  0  0  0  0  0  0  0  0  0  0
    6.1453    4.2998    8.6884 H   0  0  0  0  0  0  0  0  0  0  0  0
    4.8623    3.0460    9.8515 C   0  0  0  0  0  0  0  0  0  0  0  0
    5.8388    2.9355   10.9639 C   0  0  0  0  0  0  0  0  0  0  0  0
    5.5428    3.5817   11.7900 H   0  0  0  0  0  0  0  0  0  0  0  0
    6.8320    3.2269   10.6352 H   0  0  0  0  0  0  0  0  0  0  0  0
    5.8604    1.9184   11.3512 H   0  0  0  0  0  0  0  0  0  0  0  0
  1  7  1  0  0  0  0
  1  4  1  0  0  0  0
  1  2  1  0  0  0  0
  3  1  1  0  0  0  0
  4 36  1  0  0  0  0
  5 38  1  6  0  0  0
  5 26  1  0  0  0  0
  5  1  1  0  0  0  0
  6  1  1  0  0  0  0
  6 24  1  0  0  0  0
  7  9  1  0  0  0  0
  8  7  1  0  0  0  0
 10  7  1  0  0  0  0
 10 12  1  0  0  0  0
 10 11  1  0  0  0  0
 13 10  1  0  0  0  0
 14  5  1  0  0  0  0
 14 17  1  0  0  0  0
 15 14  1  0  0  0  0
 16 14  1  0  0  0  0
 17 18  1  6  0  0  0
 17  6  1  0  0  0  0
 18 20  2  0  0  0  0
 19 18  1  0  0  0  0
 20 22  1  0  0  0  0
 21 20  1  0  0  0  0
 22 23  1  0  0  0  0
 24 22  2  0  0  0  0
 24 25  1  0  0  0  0
 26 28  1  0  0  0  0
 26 29  1  0  0  0  0
 27 26  1  0  0  0  0
 29 30  1  1  0  0  0
 29  4  1  0  0  0  0
 30 32  2  0  0  0  0
 31 30  1  0  0  0  0
 32 33  1  0  0  0  0
 32 34  1  0  0  0  0
 34 35  1  0  0  0  0
 36 37  1  0  0  0  0
 36 34  2  0  0  0  0
 38 39  1  0  0  0  0
 40 38  1  0  0  0  0
 41 42  1  1  0  0  0
 41 38  1  0  0  0  0
 41  3  1  0  0  0  0
 43 42  1  0  0  0  0
 44 42  2  0  0  0  0
 44 46  1  0  0  0  0
 45 44  1  0  0  0  0
 46 48  2  0  0  0  0
 47 46  1  0  0  0  0
 48  3  1  0  0  0  0
 48 49  1  0  0  0  0
 49 52  1  0  0  0  0
 49 50  1  0  0  0  0
 51 49  1  0  0  0  0
M  END
$$$$
