CSD_code = DIRHUH | q = 0 | S = 0 | Stoichiometry = C22H24Cl2MoN2O4 | MND = 6
 OpenBabel04212202023D

 55 57  0  0  1  0  0  0  0  0999 V2000
    2.7402    1.9616    3.1151 Mo  0  0  0  0  0  0  0  0  0  0  0  0
    3.1516   -0.0916    2.0771 Cl  0  0  0  0  0  0  0  0  0  0  0  0
    3.5397    3.9963    4.0270 Cl  0  0  0  0  0  0  0  0  0  0  0  0
    1.6947    2.5654    2.0044 O   0  0  0  0  0  1  0  0  0  0  0  0
    1.9049    1.4729    4.4408 O   0  0  0  0  0  1  0  0  0  0  0  0
    4.3953    2.4595    1.7958 O   0  0  0  0  0  0  0  0  0  0  0  0
    4.5670    1.3708    4.1019 O   0  0  0  0  0  0  0  0  0  0  0  0
    6.8290    1.5458    1.5571 N   0  0  0  0  0  4  0  0  0  0  0  0
    6.8277    2.6258    4.5728 N   0  0  0  0  0  4  0  0  0  0  0  0
    4.7205    3.3856    1.0006 C   0  0  0  0  0  0  0  0  0  0  0  0
    6.0236    3.4630    0.4576 C   0  0  0  0  0  0  0  0  0  0  0  0
    7.0553    2.5856    0.7504 C   0  0  0  0  0  0  0  0  0  0  0  0
    8.3980    2.8022    0.1309 C   0  0  0  0  0  0  0  0  0  0  0  0
    3.7163    4.4330    0.6500 C   0  0  0  0  0  0  0  0  0  0  0  0
    7.6352    0.5510    2.1001 C   0  0  0  0  0  0  0  0  0  0  0  0
    6.9809   -0.6245    2.4814 C   0  0  0  0  0  0  0  0  0  0  0  0
    7.6846   -1.6506    3.0769 C   0  0  0  0  0  0  0  0  0  0  0  0
    9.0464   -1.5225    3.3070 C   0  0  0  0  0  0  0  0  0  0  0  0
    9.6930   -0.3540    2.9463 C   0  0  0  0  0  0  0  0  0  0  0  0
    8.9985    0.6856    2.3505 C   0  0  0  0  0  0  0  0  0  0  0  0
    4.9112    0.5316    4.9830 C   0  0  0  0  0  0  0  0  0  0  0  0
    6.1833    0.5950    5.5930 C   0  0  0  0  0  0  0  0  0  0  0  0
    7.1294    1.5724    5.3361 C   0  0  0  0  0  0  0  0  0  0  0  0
    8.5015    1.4744    5.9105 C   0  0  0  0  0  0  0  0  0  0  0  0
    3.9667   -0.5624    5.3506 C   0  0  0  0  0  0  0  0  0  0  0  0
    7.6428    3.6278    4.0766 C   0  0  2  0  0  3  0  0  0  0  0  0
    7.0692    4.7304    3.4161 C   0  0  0  0  0  0  0  0  0  0  0  0
    8.0476    5.5875    2.9263 C   0  0  0  0  0  0  0  0  0  0  0  0
    9.3239    5.1888    3.1966 C   0  0  1  0  0  3  0  0  0  0  0  0
   10.1462    4.2895    3.7653 C   0  0  0  0  0  3  0  0  0  0  0  0
    9.0166    3.6361    4.1142 C   0  0  1  0  0  3  0  0  0  0  0  0
    5.8356    1.4414    1.7993 H   0  0  0  0  0  0  0  0  0  0  0  0
    5.8439    2.7149    4.3025 H   0  0  0  0  0  0  0  0  0  0  0  0
    6.2294    4.2754   -0.2184 H   0  0  0  0  0  0  0  0  0  0  0  0
    8.8898    1.8534   -0.0698 H   0  0  0  0  0  0  0  0  0  0  0  0
    8.2896    3.3519   -0.8000 H   0  0  0  0  0  0  0  0  0  0  0  0
    9.0284    3.3951    0.7939 H   0  0  0  0  0  0  0  0  0  0  0  0
    3.9383    4.9194   -0.2946 H   0  0  0  0  0  0  0  0  0  0  0  0
    3.7046    5.1777    1.4495 H   0  0  0  0  0  0  0  0  0  0  0  0
    2.7238    3.9748    0.6326 H   0  0  0  0  0  0  0  0  0  0  0  0
    5.9181   -0.7190    2.2997 H   0  0  0  0  0  0  0  0  0  0  0  0
    7.1696   -2.5546    3.3625 H   0  0  0  0  0  0  0  0  0  0  0  0
    9.5978   -2.3254    3.7712 H   0  0  0  0  0  0  0  0  0  0  0  0
   10.7508   -0.2417    3.1347 H   0  0  0  0  0  0  0  0  0  0  0  0
    6.4446   -0.1932    6.2780 H   0  0  0  0  0  0  0  0  0  0  0  0
    9.2189    1.2860    5.1126 H   0  0  0  0  0  0  0  0  0  0  0  0
    8.5575    0.6660    6.6324 H   0  0  0  0  0  0  0  0  0  0  0  0
    8.7780    2.4120    6.3901 H   0  0  0  0  0  0  0  0  0  0  0  0
    3.8706   -1.2458    4.5040 H   0  0  0  0  0  0  0  0  0  0  0  0
    2.9784   -0.1159    5.5005 H   0  0  0  0  0  0  0  0  0  0  0  0
    4.2821   -1.1052    6.2355 H   0  0  0  0  0  0  0  0  0  0  0  0
    6.0007    4.8757    3.3360 H   0  0  0  0  0  0  0  0  0  0  0  0
    7.8342    6.4934    2.3872 H   0  0  0  0  0  0  0  0  0  0  0  0
   11.1957    4.1487    3.8928 H   0  0  0  0  0  0  0  0  0  0  0  0
    9.5162    1.6015    2.1209 H   0  0  0  0  0  0  0  0  0  0  0  0
  1  3  1  0  0  0  0
  1  7  1  0  0  0  0
  1  5  1  0  0  0  0
  2  1  1  0  0  0  0
  4  1  1  0  0  0  0
  6  1  1  0  0  0  0
  7 21  1  0  0  0  0
  8 32  1  0  0  0  0
  8 15  1  0  0  0  0
  9 23  2  0  0  0  0
 10  6  1  0  0  0  0
 11 12  1  0  0  0  0
 11 10  2  0  0  0  0
 12  8  2  0  0  0  0
 13 12  1  0  0  0  0
 13 37  1  0  0  0  0
 14 10  1  0  0  0  0
 14 39  1  0  0  0  0
 15 20  2  0  0  0  0
 15 16  1  0  0  0  0
 16 17  2  0  0  0  0
 17 18  1  0  0  0  0
 17 42  1  0  0  0  0
 18 43  1  0  0  0  0
 19 44  1  0  0  0  0
 19 18  2  0  0  0  0
 20 19  1  0  0  0  0
 21 25  1  0  0  0  0
 21 22  2  0  0  0  0
 22 45  1  0  0  0  0
 23 22  1  0  0  0  0
 23 24  1  0  0  0  0
 24 48  1  0  0  0  0
 24 47  1  0  0  0  0
 25 50  1  0  0  0  0
 25 51  1  0  0  0  0
 26 31  1  0  0  0  0
 26  9  1  6  0  0  0
 27 26  1  0  0  0  0
 28 27  2  0  0  0  0
 29 28  1  1  0  0  0
 29 30  1  0  0  0  0
 29 31  1  0  0  0  0
 30 54  1  0  0  0  0
 31 30  1  1  0  0  0
 33  9  1  0  0  0  0
 34 11  1  0  0  0  0
 35 13  1  0  0  0  0
 36 13  1  0  0  0  0
 38 14  1  0  0  0  0
 40 14  1  0  0  0  0
 41 16  1  0  0  0  0
 46 24  1  0  0  0  0
 49 25  1  0  0  0  0
 52 27  1  0  0  0  0
 53 28  1  0  0  0  0
 55 20  1  0  0  0  0
M  END
$$$$
