CSD_code = DITCEQ | q = 0 | S = 0 | Stoichiometry = C10H10I2NO4Rh | MND = 6
 OpenBabel04212202033D

 28 29  0  0  0  0  0  0  0  0999 V2000
    2.5087    3.9782    4.1251 I   0  0  0  0  0  0  0  0  0  0  0  0
    6.7725    1.6049    2.1119 I   0  0  0  0  0  0  0  0  0  0  0  0
    4.6542    2.8391    3.0911 Rh  0  0  0  0  0  0  0  0  0  0  0  0
    5.3650    1.9758    5.6124 O   0  0  0  0  0  0  0  0  0  0  0  0
    3.5256    2.6016    0.9733 O   0  0  0  0  0  0  0  0  0  0  0  0
    2.2258    1.1439   -0.1009 O   0  0  0  0  0  0  0  0  0  0  0  0
    3.6265    0.9227    3.1739 N   0  0  0  0  0  0  0  0  0  0  0  0
    5.3219    4.4704    2.5812 C   0  0  0  0  0  2  0  0  0  0  0  0
    2.9292    1.5430    0.9428 C   0  0  0  0  0  0  0  0  0  0  0  0
    2.9239    0.5783    2.0779 C   0  0  0  0  0  0  0  0  0  0  0  0
    2.2165   -0.6129    1.9844 C   0  0  0  0  0  0  0  0  0  0  0  0
    1.6740   -0.8302    1.0791 H   0  0  0  0  0  0  0  0  0  0  0  0
    2.2271   -1.4889    3.0568 C   0  0  0  0  0  0  0  0  0  0  0  0
    1.6860   -2.4211    3.0111 H   0  0  0  0  0  0  0  0  0  0  0  0
    2.9491   -1.1329    4.1820 C   0  0  0  0  0  0  0  0  0  0  0  0
    2.9938   -1.7743    5.0472 H   0  0  0  0  0  0  0  0  0  0  0  0
    3.6300    0.0755    4.1964 C   0  0  0  0  0  0  0  0  0  0  0  0
    4.1993    0.3675    5.0691 H   0  0  0  0  0  0  0  0  0  0  0  0
    2.1996    2.0367   -1.2116 C   0  0  0  0  0  0  0  0  0  0  0  0
    1.7662    2.9937   -0.9151 H   0  0  0  0  0  0  0  0  0  0  0  0
    1.5870    1.5557   -1.9688 H   0  0  0  0  0  0  0  0  0  0  0  0
    3.2119    2.2049   -1.5840 H   0  0  0  0  0  0  0  0  0  0  0  0
    5.5481    2.9111    4.8981 C   0  0  0  0  0  0  0  0  0  0  0  0
    6.3810    4.1073    5.2545 C   0  0  0  0  0  0  0  0  0  0  0  0
    6.7782    3.9688    6.2606 H   0  0  0  0  0  0  0  0  0  0  0  0
    5.7769    5.0143    5.2282 H   0  0  0  0  0  0  0  0  0  0  0  0
    7.2084    4.2183    4.5535 H   0  0  0  0  0  0  0  0  0  0  0  0
    5.6477    5.4538    2.1102 O   0  0  0  0  0  1  0  0  0  0  0  0
  2  3  1  0  0  0  0
  3  7  1  0  0  0  0
  3  1  1  0  0  0  0
  3 23  1  0  0  0  0
  5  3  1  0  0  0  0
  6  9  1  0  0  0  0
  7 17  1  0  0  0  0
  8  3  1  0  0  0  0
  9  5  1  0  0  0  0
  9 10  2  0  0  0  0
 10  7  1  0  0  0  0
 11 10  1  0  0  0  0
 11 13  2  0  0  0  0
 12 11  1  0  0  0  0
 13 15  1  0  0  0  0
 14 13  1  0  0  0  0
 15 17  2  0  0  0  0
 15 16  1  0  0  0  0
 17 18  1  0  0  0  0
 19 20  1  0  0  0  0
 19  6  1  0  0  0  0
 21 19  1  0  0  0  0
 22 19  1  0  0  0  0
 23 24  1  0  0  0  0
 23  4  2  0  0  0  0
 24 25  1  0  0  0  0
 26 24  1  0  0  0  0
 27 24  1  0  0  0  0
 28  8  1  0  0  0  0
M  END
$$$$
