CSD_code = DITCOY | q = 0 | S = 0 | Stoichiometry = C10H16Br2HgN2 | MND = 4
 OpenBabel04212202033D

 31 30  0  0  0  0  0  0  0  0999 V2000
    0.9969    1.6675   -0.2112 Hg  0  0  0  0  0  0  0  0  0  0  0  0
   -0.9876    3.1162   -0.2864 Br  0  0  0  0  0  0  0  0  0  0  0  0
    2.4471   -0.2002   -0.8754 Br  0  0  0  0  0  0  0  0  0  0  0  0
    5.3022    3.3932    3.2398 C   0  0  0  0  0  0  0  0  0  0  0  0
    4.6923    3.6551    2.0292 C   0  0  0  0  0  0  0  0  0  0  0  0
    3.4535    3.1100    1.7052 C   0  0  0  0  0  0  0  0  0  0  0  0
    2.8345    3.4068    0.4314 N   0  0  0  0  0  0  0  0  0  0  0  0
    3.7955    3.3206   -0.6762 C   0  0  0  0  0  0  0  0  0  0  0  0
    2.2575    4.7551    0.4718 C   0  0  0  0  0  0  0  0  0  0  0  0
    4.6696    2.5781    4.1598 C   0  0  0  0  0  0  0  0  0  0  0  0
    3.4366    2.0366    3.8554 C   0  0  0  0  0  0  0  0  0  0  0  0
    2.8136    2.2846    2.6360 C   0  0  0  0  0  0  0  0  0  0  0  0
    1.5187    1.7075    2.3459 N   0  0  0  0  0  0  0  0  0  0  0  0
    1.4524    0.2926    2.7349 C   0  0  0  0  0  0  0  0  0  0  0  0
    0.4789    2.4579    3.0587 C   0  0  0  0  0  0  0  0  0  0  0  0
    6.2646    3.8274    3.4625 H   0  0  0  0  0  0  0  0  0  0  0  0
    5.1939    4.2995    1.3245 H   0  0  0  0  0  0  0  0  0  0  0  0
    4.5135    4.1468   -0.6762 H   0  0  0  0  0  0  0  0  0  0  0  0
    4.3371    2.3778   -0.6168 H   0  0  0  0  0  0  0  0  0  0  0  0
    3.2519    3.3572   -1.6227 H   0  0  0  0  0  0  0  0  0  0  0  0
    1.5276    4.8234    1.2759 H   0  0  0  0  0  0  0  0  0  0  0  0
    3.0300    5.5159    0.6340 H   0  0  0  0  0  0  0  0  0  0  0  0
    1.7529    4.9639   -0.4712 H   0  0  0  0  0  0  0  0  0  0  0  0
    5.1302    2.3659    5.1124 H   0  0  0  0  0  0  0  0  0  0  0  0
    2.9514    1.4087    4.5861 H   0  0  0  0  0  0  0  0  0  0  0  0
    2.3140   -0.2374    2.3317 H   0  0  0  0  0  0  0  0  0  0  0  0
    1.4233    0.1552    3.8205 H   0  0  0  0  0  0  0  0  0  0  0  0
    0.5419   -0.1478    2.3229 H   0  0  0  0  0  0  0  0  0  0  0  0
    0.6185    2.4018    4.1446 H   0  0  0  0  0  0  0  0  0  0  0  0
    0.5027    3.5035    2.7583 H   0  0  0  0  0  0  0  0  0  0  0  0
   -0.5003    2.0496    2.8099 H   0  0  0  0  0  0  0  0  0  0  0  0
  2  1  1  0  0  0  0
  3  1  1  0  0  0  0
  4 16  1  0  0  0  0
  4 10  1  0  0  0  0
  5  4  2  0  0  0  0
  6  5  1  0  0  0  0
  6 12  2  0  0  0  0
  7  9  1  0  0  0  0
  7  6  1  0  0  0  0
  8 19  1  0  0  0  0
  8  7  1  0  0  0  0
  9 22  1  0  0  0  0
  9 21  1  0  0  0  0
 10 24  1  0  0  0  0
 11 10  2  0  0  0  0
 11 25  1  0  0  0  0
 12 11  1  0  0  0  0
 13 12  1  0  0  0  0
 13 14  1  0  0  0  0
 13 15  1  0  0  0  0
 14 27  1  0  0  0  0
 15 29  1  0  0  0  0
 17  5  1  0  0  0  0
 18  8  1  0  0  0  0
 20  8  1  0  0  0  0
 23  9  1  0  0  0  0
 26 14  1  0  0  0  0
 28 14  1  0  0  0  0
 30 15  1  0  0  0  0
 31 15  1  0  0  0  0
M  END
$$$$
