CSD_code = DIVMON | q = -1 | S = 0 | Stoichiometry = C8H14Cl2CoN4O4(1-) | MND = 6
 OpenBabel04212202033D

 33 34  0  0  0  0  0  0  0  0999 V2000
    4.7363    4.1440    3.4523 Co  0  0  0  0  0  0  0  0  0  0  0  0
    2.6453    4.1970    4.1678 Cl  0  0  0  0  0  0  0  0  0  0  0  0
    6.8262    4.0914    2.7371 Cl  0  0  0  0  0  0  0  0  0  0  0  0
    4.0835    1.9282    1.7159 O   0  0  0  0  0  0  0  0  0  0  0  0
    3.9274    2.8128    1.1836 H   0  0  0  0  0  0  0  0  0  0  0  0
    5.6492    4.0289    6.1224 O   0  0  0  0  0  1  0  0  0  0  0  0
    5.3843    6.3598    5.1901 O   0  0  0  0  0  0  0  0  0  0  0  0
    5.5476    5.4750    5.7197 H   0  0  0  0  0  0  0  0  0  0  0  0
    3.8249    4.2592    0.7815 O   0  0  0  0  0  1  0  0  0  0  0  0
    4.5090    2.3554    2.9303 N   0  0  0  0  0  0  0  0  0  0  0  0
    5.2741    3.3634    5.0870 N   0  0  0  0  0  0  0  0  0  0  0  0
    4.9579    5.9327    3.9761 N   0  0  0  0  0  0  0  0  0  0  0  0
    4.1946    4.9248    1.8187 N   0  0  0  0  0  0  0  0  0  0  0  0
    4.7902    1.4896    3.8450 C   0  0  0  0  0  0  0  0  0  0  0  0
    4.6716    0.0118    3.6493 C   0  0  0  0  0  0  0  0  0  0  0  0
    3.9380   -0.3975    4.3427 H   0  0  0  0  0  0  0  0  0  0  0  0
    5.6306   -0.4689    3.8361 H   0  0  0  0  0  0  0  0  0  0  0  0
    4.3559   -0.1912    2.6294 H   0  0  0  0  0  0  0  0  0  0  0  0
    5.2300    2.0626    5.0852 C   0  0  0  0  0  0  0  0  0  0  0  0
    5.6048    1.2345    6.2756 C   0  0  0  0  0  0  0  0  0  0  0  0
    5.8859    1.9086    7.0821 H   0  0  0  0  0  0  0  0  0  0  0  0
    6.4468    0.5829    6.0431 H   0  0  0  0  0  0  0  0  0  0  0  0
    4.7648    0.6194    6.5969 H   0  0  0  0  0  0  0  0  0  0  0  0
    4.6612    6.7990    3.0666 C   0  0  0  0  0  0  0  0  0  0  0  0
    4.7555    8.2773    3.2713 C   0  0  0  0  0  0  0  0  0  0  0  0
    3.7642    8.7247    3.2078 H   0  0  0  0  0  0  0  0  0  0  0  0
    5.3865    8.7230    2.5043 H   0  0  0  0  0  0  0  0  0  0  0  0
    5.1772    8.4777    4.2526 H   0  0  0  0  0  0  0  0  0  0  0  0
    4.2217    6.2261    1.8264 C   0  0  0  0  0  0  0  0  0  0  0  0
    3.8269    7.0543    0.6426 C   0  0  0  0  0  0  0  0  0  0  0  0
    3.4930    6.3818   -0.1448 H   0  0  0  0  0  0  0  0  0  0  0  0
    4.6735    7.6369    0.2796 H   0  0  0  0  0  0  0  0  0  0  0  0
    3.0180    7.7366    0.9019 H   0  0  0  0  0  0  0  0  0  0  0  0
  1 12  1  0  0  0  0
  1  2  1  0  0  0  0
  1 11  1  0  0  0  0
  3  1  1  0  0  0  0
  4 10  1  0  0  0  0
  5  4  1  0  0  0  0
  7  8  1  0  0  0  0
  9 13  1  0  0  0  0
 10  1  1  0  0  0  0
 10 14  1  0  0  0  0
 11  6  1  0  0  0  0
 12  7  1  0  0  0  0
 13 29  1  0  0  0  0
 13  1  1  0  0  0  0
 14 19  2  0  0  0  0
 15 17  1  0  0  0  0
 15 14  1  0  0  0  0
 15 16  1  0  0  0  0
 18 15  1  0  0  0  0
 19 11  1  0  0  0  0
 19 20  1  0  0  0  0
 20 23  1  0  0  0  0
 20 21  1  0  0  0  0
 22 20  1  0  0  0  0
 24 25  1  0  0  0  0
 24 12  1  0  0  0  0
 25 28  1  0  0  0  0
 26 25  1  0  0  0  0
 27 25  1  0  0  0  0
 29 24  2  0  0  0  0
 30 33  1  0  0  0  0
 30 29  1  0  0  0  0
 31 30  1  0  0  0  0
 32 30  1  0  0  0  0
M  END
$$$$
