CSD_code = DIVXAI | q = -1 | S = 0 | Stoichiometry = C8H12Cl2Rh(1-) | MND = 6
 OpenBabel04212202033D

 23 22  0  0  1  0  0  0  0  0999 V2000
   11.7824    4.7613    6.9247 Rh  0  0  0  0  0  0  0  0  0  0  0  0
   10.4138    6.5505    6.6471 Cl  0  0  0  0  0 15  0  0  0  0  0  0
   13.5260    6.1588    7.3217 Cl  0  0  0  0  0 15  0  0  0  0  0  0
   12.8136    3.1221    7.7571 C   0  0  0  0  0  3  0  0  0  0  0  0
   13.5527    3.4881    8.4690 H   0  0  0  0  0  0  0  0  0  0  0  0
   11.9097    2.0278    8.2913 C   0  0  0  0  0  0  0  0  0  0  0  0
   12.0087    1.1412    7.6595 H   0  0  0  0  0  0  0  0  0  0  0  0
   12.2407    1.7445    9.2947 H   0  0  0  0  0  0  0  0  0  0  0  0
   10.4385    2.4791    8.3545 C   0  0  0  0  0  0  0  0  0  0  0  0
    9.7687    1.6225    8.1977 H   0  0  0  0  0  0  0  0  0  0  0  0
   10.2305    2.8730    9.3532 H   0  0  0  0  0  0  0  0  0  0  0  0
   10.1172    3.5655    7.3491 C   0  0  2  0  0  0  0  0  0  0  0  0
    9.2708    4.1882    7.6397 H   0  0  0  0  0  0  0  0  0  0  0  0
   13.1267    3.2455    6.3979 C   0  0  1  0  0  0  0  0  0  0  0  0
   14.0977    3.6734    6.1475 H   0  0  0  0  0  0  0  0  0  0  0  0
   12.5693    2.3447    5.3153 C   0  0  0  0  0  0  0  0  0  0  0  0
   12.8669    2.7587    4.3480 H   0  0  0  0  0  0  0  0  0  0  0  0
   13.0232    1.3473    5.3944 H   0  0  0  0  0  0  0  0  0  0  0  0
   11.0338    2.2408    5.3620 C   0  0  0  0  0  0  0  0  0  0  0  0
   10.7298    1.3588    5.9313 H   0  0  0  0  0  0  0  0  0  0  0  0
   10.6523    2.1130    4.3449 H   0  0  0  0  0  0  0  0  0  0  0  0
   10.4047    3.4737    5.9818 C   0  0  0  0  0  3  0  0  0  0  0  0
    9.7780    4.0531    5.3048 H   0  0  0  0  0  0  0  0  0  0  0  0
  1 12  1  0  0  0  0
  4  6  1  0  0  0  0
  4  5  1  0  0  0  0
  6  9  1  0  0  0  0
  6  8  1  0  0  0  0
  7  6  1  0  0  0  0
  9 11  1  0  0  0  0
 10  9  1  0  0  0  0
 12 13  1  1  0  0  0
 12  9  1  0  0  0  0
 14 15  1  6  0  0  0
 14  1  1  0  0  0  0
 14  4  1  0  0  0  0
 16 19  1  0  0  0  0
 16 18  1  0  0  0  0
 16 14  1  0  0  0  0
 17 16  1  0  0  0  0
 19 20  1  0  0  0  0
 19 22  1  0  0  0  0
 21 19  1  0  0  0  0
 22 12  1  0  0  0  0
 23 22  1  0  0  0  0
M  END
$$$$
