CSD_code = DIVZIS | q = 0 | S = 0 | Stoichiometry = C18H28Cl2N2P2Pt | MND = 4
 OpenBabel04212202033D

 53 55  0  0  0  0  0  0  0  0999 V2000
    0.1156    3.9020    4.1211 Pt  0  0  0  0  0  0  0  0  0  0  0  0
    0.6061    4.1038    6.3386 P   0  0  1  0  0  4  0  0  0  0  0  0
    1.4562    2.0636    4.0198 P   0  0  1  0  0  4  0  0  0  0  0  0
   -0.9540    5.9307    4.1373 Cl  0  0  0  0  0  0  0  0  0  0  0  0
   -0.6402    3.4640    1.9998 Cl  0  0  0  0  0  0  0  0  0  0  0  0
    2.3453    2.7150    7.8930 N   0  0  0  0  0  0  0  0  0  0  0  0
    2.7481    0.7093    5.9874 N   0  0  0  0  0  0  0  0  0  0  0  0
    1.7929    2.7711    6.7089 C   0  0  0  0  0  0  0  0  0  0  0  0
    3.1222    1.6461    8.1754 C   0  0  0  0  0  0  0  0  0  0  0  0
    3.7472    1.5416    9.4322 C   0  0  0  0  0  0  0  0  0  0  0  0
    3.6206    2.3492   10.1361 H   0  0  0  0  0  0  0  0  0  0  0  0
    4.4826    0.4273    9.7314 C   0  0  0  0  0  0  0  0  0  0  0  0
    4.9613    0.3392   10.6951 H   0  0  0  0  0  0  0  0  0  0  0  0
    4.6236   -0.6154    8.7999 C   0  0  0  0  0  0  0  0  0  0  0  0
    5.2073   -1.4835    9.0672 H   0  0  0  0  0  0  0  0  0  0  0  0
    4.0364   -0.5393    7.5665 C   0  0  0  0  0  0  0  0  0  0  0  0
    4.1389   -1.3256    6.8350 H   0  0  0  0  0  0  0  0  0  0  0  0
    3.2815    0.5983    7.2242 C   0  0  0  0  0  0  0  0  0  0  0  0
    2.0481    1.7813    5.7199 C   0  0  0  0  0  0  0  0  0  0  0  0
    0.9657    0.4002    3.4696 C   0  0  0  0  0  0  0  0  0  0  0  0
    1.7572   -0.3131    3.6927 H   0  0  0  0  0  0  0  0  0  0  0  0
    0.7509    0.4375    2.4029 H   0  0  0  0  0  0  0  0  0  0  0  0
    0.0540    0.1214    3.9979 H   0  0  0  0  0  0  0  0  0  0  0  0
    3.0588    2.4675    3.1320 C   0  0  0  0  0  0  0  0  0  0  0  0
    3.5792    3.7498    3.7847 C   0  0  0  0  0  0  0  0  0  0  0  0
    4.4288    4.1421    3.2287 H   0  0  0  0  0  0  0  0  0  0  0  0
    3.8959    3.5700    4.8127 H   0  0  0  0  0  0  0  0  0  0  0  0
    2.7901    4.5113    3.7877 H   0  0  0  0  0  0  0  0  0  0  0  0
    4.0831    1.3418    3.2372 C   0  0  0  0  0  0  0  0  0  0  0  0
    5.0420    1.6904    2.8569 H   0  0  0  0  0  0  0  0  0  0  0  0
    3.7781    0.4834    2.6435 H   0  0  0  0  0  0  0  0  0  0  0  0
    4.2195    1.0198    4.2676 H   0  0  0  0  0  0  0  0  0  0  0  0
    2.7163    2.7406    1.6698 C   0  0  0  0  0  0  0  0  0  0  0  0
    3.6035    3.0774    1.1362 H   0  0  0  0  0  0  0  0  0  0  0  0
    1.9503    3.5112    1.5937 H   0  0  0  0  0  0  0  0  0  0  0  0
    2.3423    1.8443    1.1792 H   0  0  0  0  0  0  0  0  0  0  0  0
    1.3387    5.5487    7.1677 C   0  0  0  0  0  0  0  0  0  0  0  0
    1.5961    5.2966    8.1950 H   0  0  0  0  0  0  0  0  0  0  0  0
    0.6250    6.3697    7.1253 H   0  0  0  0  0  0  0  0  0  0  0  0
    2.2362    5.8383    6.6213 H   0  0  0  0  0  0  0  0  0  0  0  0
   -0.8749    3.5938    7.3728 C   0  0  0  0  0  0  0  0  0  0  0  0
   -1.3735    2.2877    6.7508 C   0  0  0  0  0  0  0  0  0  0  0  0
   -2.3132    1.9819    7.2071 H   0  0  0  0  0  0  0  0  0  0  0  0
   -0.6483    1.4843    6.8877 H   0  0  0  0  0  0  0  0  0  0  0  0
   -1.5439    2.4285    5.6764 H   0  0  0  0  0  0  0  0  0  0  0  0
   -0.5304    3.4020    8.8464 C   0  0  0  0  0  0  0  0  0  0  0  0
   -1.3907    2.9800    9.3637 H   0  0  0  0  0  0  0  0  0  0  0  0
   -0.2889    4.3522    9.3165 H   0  0  0  0  0  0  0  0  0  0  0  0
    0.3129    2.7276    8.9791 H   0  0  0  0  0  0  0  0  0  0  0  0
   -1.9380    4.6782    7.2154 C   0  0  0  0  0  0  0  0  0  0  0  0
   -2.8710    4.3532    7.6727 H   0  0  0  0  0  0  0  0  0  0  0  0
   -2.1210    4.8866    6.1620 H   0  0  0  0  0  0  0  0  0  0  0  0
   -1.6284    5.6042    7.6958 H   0  0  0  0  0  0  0  0  0  0  0  0
  1  4  1  0  0  0  0
  1  2  1  0  0  0  0
  2  8  1  0  0  0  0
  2 37  1  1  0  0  0
  2 41  1  0  0  0  0
  3 24  1  6  0  0  0
  3  1  1  0  0  0  0
  3 19  1  0  0  0  0
  5  1  1  0  0  0  0
  6  9  1  0  0  0  0
  7 18  1  0  0  0  0
  8  6  2  0  0  0  0
  9 10  1  0  0  0  0
 10 12  2  0  0  0  0
 10 11  1  0  0  0  0
 12 13  1  0  0  0  0
 14 15  1  0  0  0  0
 14 12  1  0  0  0  0
 16 14  2  0  0  0  0
 17 16  1  0  0  0  0
 18 16  1  0  0  0  0
 18  9  2  0  0  0  0
 19  7  2  0  0  0  0
 19  8  1  0  0  0  0
 20 21  1  0  0  0  0
 20 23  1  0  0  0  0
 20  3  1  0  0  0  0
 22 20  1  0  0  0  0
 24 29  1  0  0  0  0
 24 25  1  0  0  0  0
 25 28  1  0  0  0  0
 25 27  1  0  0  0  0
 26 25  1  0  0  0  0
 29 32  1  0  0  0  0
 30 29  1  0  0  0  0
 31 29  1  0  0  0  0
 33 24  1  0  0  0  0
 34 33  1  0  0  0  0
 35 33  1  0  0  0  0
 36 33  1  0  0  0  0
 37 38  1  0  0  0  0
 39 37  1  0  0  0  0
 40 37  1  0  0  0  0
 41 46  1  0  0  0  0
 42 44  1  0  0  0  0
 42 43  1  0  0  0  0
 42 41  1  0  0  0  0
 45 42  1  0  0  0  0
 46 49  1  0  0  0  0
 46 48  1  0  0  0  0
 46 47  1  0  0  0  0
 50 41  1  0  0  0  0
 50 51  1  0  0  0  0
 50 53  1  0  0  0  0
 52 50  1  0  0  0  0
M  END
$$$$
