CSD_code = DIWQAE | q = 0 | S = 0 | Stoichiometry = C13H15ClN2Pt | MND = 4
 OpenBabel04212202033D

 32 34  0  0  0  0  0  0  0  0999 V2000
    1.0486    6.9240    7.3543 Pt  0  0  1  0  0  0  0  0  0  0  0  0
    1.0892    6.5023    9.5244 Cl  0  0  0  0  0  0  0  0  0  0  0  0
    1.0111    9.0343    7.6167 N   0  0  0  0  0  0  0  0  0  0  0  0
    0.9720    9.7084    8.7560 C   0  0  0  0  0  0  0  0  0  0  0  0
    1.0681    9.1145    9.6560 H   0  0  0  0  0  0  0  0  0  0  0  0
    0.8160   11.0807    8.8046 C   0  0  0  0  0  0  0  0  0  0  0  0
    0.7906   11.5883    9.7559 H   0  0  0  0  0  0  0  0  0  0  0  0
    0.6859   11.7923    7.6143 C   0  0  0  0  0  0  0  0  0  0  0  0
    0.7297   11.0745    6.4267 C   0  0  0  0  0  0  0  0  0  0  0  0
    0.6225   11.6016    5.4921 H   0  0  0  0  0  0  0  0  0  0  0  0
    0.8985    9.6911    6.4496 C   0  0  0  0  0  0  0  0  0  0  0  0
    0.9666    8.8496    5.2540 C   0  0  0  0  0  0  0  0  0  0  0  0
    0.9794    9.3819    3.9681 C   0  0  0  0  0  0  0  0  0  0  0  0
    0.9338   10.4500    3.8282 H   0  0  0  0  0  0  0  0  0  0  0  0
    1.0585    8.5617    2.8529 C   0  0  0  0  0  0  0  0  0  0  0  0
    1.1290    7.1895    3.0893 C   0  0  0  0  0  0  0  0  0  0  0  0
    1.1955    6.4935    2.2679 H   0  0  0  0  0  0  0  0  0  0  0  0
    1.1148    6.7177    4.3830 C   0  0  0  0  0  0  0  0  0  0  0  0
    1.1699    5.6566    4.5712 H   0  0  0  0  0  0  0  0  0  0  0  0
    1.0341    7.5070    5.4597 N   0  0  0  0  0  0  0  0  0  0  0  0
    0.5166   13.2770    7.6012 C   0  0  0  0  0  0  0  0  0  0  0  0
    1.4329   13.7519    7.2500 H   0  0  0  0  0  0  0  0  0  0  0  0
    0.2955   13.6518    8.5968 H   0  0  0  0  0  0  0  0  0  0  0  0
   -0.2872   13.5657    6.9264 H   0  0  0  0  0  0  0  0  0  0  0  0
    1.0790    9.1335    1.4733 C   0  0  0  0  0  0  0  0  0  0  0  0
    0.2407    9.8131    1.3292 H   0  0  0  0  0  0  0  0  0  0  0  0
    1.0265    8.3462    0.7265 H   0  0  0  0  0  0  0  0  0  0  0  0
    1.9964    9.7003    1.3160 H   0  0  0  0  0  0  0  0  0  0  0  0
    1.0188    4.9132    6.9937 C   0  0  0  0  0  0  0  0  0  0  0  0
    0.1688    4.6441    6.3560 H   0  0  0  0  0  0  0  0  0  0  0  0
    0.9399    4.3170    7.9043 H   0  0  0  0  0  0  0  0  0  0  0  0
    1.9404    4.6040    6.4862 H   0  0  0  0  0  0  0  0  0  0  0  0
  1  3  1  0  0  0  0
  1  2  1  1  0  0  0
  3  4  1  0  0  0  0
  4  6  2  0  0  0  0
  4  5  1  0  0  0  0
  6  7  1  0  0  0  0
  8  6  1  0  0  0  0
  9 11  1  0  0  0  0
  9  8  2  0  0  0  0
 10  9  1  0  0  0  0
 11  3  1  0  0  0  0
 12 20  1  0  0  0  0
 12 11  2  0  0  0  0
 13 12  1  0  0  0  0
 14 13  1  0  0  0  0
 15 16  1  0  0  0  0
 15 13  2  0  0  0  0
 16 18  2  0  0  0  0
 17 16  1  0  0  0  0
 18 19  1  0  0  0  0
 18 20  1  0  0  0  0
 20  1  1  0  0  0  0
 21  8  1  0  0  0  0
 21 23  1  0  0  0  0
 22 21  1  0  0  0  0
 24 21  1  0  0  0  0
 25 15  1  0  0  0  0
 26 25  1  0  0  0  0
 27 25  1  0  0  0  0
 28 25  1  0  0  0  0
 29  1  1  0  0  0  0
 29 31  1  0  0  0  0
 30 29  1  0  0  0  0
 32 29  1  0  0  0  0
M  END
$$$$
