CSD_code = DIWWUE | q = 0 | S = 0 | Stoichiometry = C12H23AuCl3N | MND = 4
 OpenBabel04212202033D

 40 41  0  0  0  0  0  0  0  0999 V2000
    4.0610    4.3746    6.0190 Au  0  0  0  0  0  0  0  0  0  0  0  0
    6.0843    4.4976    6.9783 Cl  0  0  0  0  0  0  0  0  0  0  0  0
    4.9569    3.7057    4.0209 Cl  0  0  0  0  0  0  0  0  0  0  0  0
    3.1293    5.2068    7.9240 Cl  0  0  0  0  0  0  0  0  0  0  0  0
    2.1723    4.1946    5.0109 N   0  0  0  0  0  4  0  0  0  0  0  0
    2.5147    4.0546    4.0549 H   0  0  0  0  0  0  0  0  0  0  0  0
    1.4283    2.9611    5.3628 C   0  0  0  0  0  0  0  0  0  0  0  0
    0.6233    2.8362    4.6261 H   0  0  0  0  0  0  0  0  0  0  0  0
    0.8133    3.0093    6.7577 C   0  0  0  0  0  0  0  0  0  0  0  0
    0.1395    3.8609    6.8526 H   0  0  0  0  0  0  0  0  0  0  0  0
    1.6021    3.1262    7.5003 H   0  0  0  0  0  0  0  0  0  0  0  0
    0.0388    1.7202    7.0279 C   0  0  0  0  0  0  0  0  0  0  0  0
   -0.3870    1.7615    8.0309 H   0  0  0  0  0  0  0  0  0  0  0  0
   -0.7874    1.6345    6.3173 H   0  0  0  0  0  0  0  0  0  0  0  0
    0.9481    0.5038    6.8971 C   0  0  0  0  0  0  0  0  0  0  0  0
    0.3765   -0.4087    7.0733 H   0  0  0  0  0  0  0  0  0  0  0  0
    1.7357    0.5583    7.6509 H   0  0  0  0  0  0  0  0  0  0  0  0
    1.5778    0.4627    5.5091 C   0  0  0  0  0  0  0  0  0  0  0  0
    0.7966    0.3444    4.7545 H   0  0  0  0  0  0  0  0  0  0  0  0
    2.2529   -0.3897    5.4275 H   0  0  0  0  0  0  0  0  0  0  0  0
    2.3529    1.7507    5.2422 C   0  0  0  0  0  0  0  0  0  0  0  0
    3.1617    1.8392    5.9741 H   0  0  0  0  0  0  0  0  0  0  0  0
    2.8065    1.7211    4.2496 H   0  0  0  0  0  0  0  0  0  0  0  0
    1.4162    5.4660    5.0269 C   0  0  0  0  0  0  0  0  0  0  0  0
    1.1698    5.6851    6.0698 H   0  0  0  0  0  0  0  0  0  0  0  0
    0.1346    5.3972    4.1903 C   0  0  0  0  0  0  0  0  0  0  0  0
   -0.5405    4.6364    4.5835 H   0  0  0  0  0  0  0  0  0  0  0  0
    0.3898    5.1354    3.1601 H   0  0  0  0  0  0  0  0  0  0  0  0
   -0.5864    6.7438    4.2119 C   0  0  0  0  0  0  0  0  0  0  0  0
   -0.8831    6.9750    5.2369 H   0  0  0  0  0  0  0  0  0  0  0  0
   -1.4926    6.6749    3.6078 H   0  0  0  0  0  0  0  0  0  0  0  0
    0.3124    7.8546    3.6836 C   0  0  0  0  0  0  0  0  0  0  0  0
    0.5631    7.6584    2.6389 H   0  0  0  0  0  0  0  0  0  0  0  0
   -0.2124    8.8096    3.7287 H   0  0  0  0  0  0  0  0  0  0  0  0
    1.5901    7.9232    4.5111 C   0  0  0  0  0  0  0  0  0  0  0  0
    1.3460    8.1782    5.5440 H   0  0  0  0  0  0  0  0  0  0  0  0
    2.2514    8.6976    4.1209 H   0  0  0  0  0  0  0  0  0  0  0  0
    2.3119    6.5792    4.4836 C   0  0  0  0  0  0  0  0  0  0  0  0
    2.6080    6.3403    3.4587 H   0  0  0  0  0  0  0  0  0  0  0  0
    3.2224    6.6467    5.0867 H   0  0  0  0  0  0  0  0  0  0  0  0
  1  2  1  0  0  0  0
  1  4  1  0  0  0  0
  3  1  1  0  0  0  0
  5 24  1  0  0  0  0
  5  7  1  0  0  0  0
  5  1  1  0  0  0  0
  6  5  1  0  0  0  0
  7  9  1  0  0  0  0
  8  7  1  0  0  0  0
  9 10  1  0  0  0  0
  9 12  1  0  0  0  0
  9 11  1  0  0  0  0
 12 13  1  0  0  0  0
 14 12  1  0  0  0  0
 15 12  1  0  0  0  0
 15 16  1  0  0  0  0
 15 17  1  0  0  0  0
 18 15  1  0  0  0  0
 19 18  1  0  0  0  0
 20 18  1  0  0  0  0
 21  7  1  0  0  0  0
 21 18  1  0  0  0  0
 21 22  1  0  0  0  0
 23 21  1  0  0  0  0
 24 25  1  0  0  0  0
 26 29  1  0  0  0  0
 26 27  1  0  0  0  0
 26 24  1  0  0  0  0
 28 26  1  0  0  0  0
 29 30  1  0  0  0  0
 31 29  1  0  0  0  0
 32 34  1  0  0  0  0
 32 29  1  0  0  0  0
 32 35  1  0  0  0  0
 33 32  1  0  0  0  0
 35 36  1  0  0  0  0
 37 35  1  0  0  0  0
 38 35  1  0  0  0  0
 38 24  1  0  0  0  0
 38 40  1  0  0  0  0
 39 38  1  0  0  0  0
M  END
$$$$
