CSD_code = DIWYAM | q = 0 | S = 0 | Stoichiometry = C6H15AuClN | MND = 2
 OpenBabel04212202033D

 24 23  0  0  0  0  0  0  0  0999 V2000
    2.9200    0.9456    4.6274 Au  0  0  0  0  0  0  0  0  0  0  0  0
    3.2716    0.6574    6.8281 Cl  0  0  0  0  0  0  0  0  0  0  0  0
    2.5672    1.2506    2.4777 N   0  0  0  0  0  4  0  0  0  0  0  0
    2.8210    0.3497    2.0734 H   0  0  0  0  0  0  0  0  0  0  0  0
    3.5056    2.2458    1.9183 C   0  0  0  0  0  0  0  0  0  0  0  0
    3.3361    2.3441    0.8379 H   0  0  0  0  0  0  0  0  0  0  0  0
    3.3102    3.6047    2.5770 C   0  0  0  0  0  0  0  0  0  0  0  0
    2.3386    4.0286    2.3378 H   0  0  0  0  0  0  0  0  0  0  0  0
    4.0749    4.2947    2.2308 H   0  0  0  0  0  0  0  0  0  0  0  0
    3.3925    3.5067    3.6581 H   0  0  0  0  0  0  0  0  0  0  0  0
    4.9308    1.7469    2.1259 C   0  0  0  0  0  0  0  0  0  0  0  0
    5.1443    1.6482    3.1889 H   0  0  0  0  0  0  0  0  0  0  0  0
    5.6385    2.4485    1.6931 H   0  0  0  0  0  0  0  0  0  0  0  0
    5.0783    0.7781    1.6520 H   0  0  0  0  0  0  0  0  0  0  0  0
    1.1372    1.4616    2.1716 C   0  0  0  0  0  0  0  0  0  0  0  0
    0.8289    2.3814    2.6766 H   0  0  0  0  0  0  0  0  0  0  0  0
    0.8610    1.5866    0.6722 C   0  0  0  0  0  0  0  0  0  0  0  0
    1.2583    2.5106    0.2608 H   0  0  0  0  0  0  0  0  0  0  0  0
   -0.2120    1.5848    0.5019 H   0  0  0  0  0  0  0  0  0  0  0  0
    1.2919    0.7451    0.1318 H   0  0  0  0  0  0  0  0  0  0  0  0
    0.3355    0.2964    2.7411 C   0  0  0  0  0  0  0  0  0  0  0  0
    0.5992   -0.6323    2.2382 H   0  0  0  0  0  0  0  0  0  0  0  0
   -0.7280    0.4716    2.6052 H   0  0  0  0  0  0  0  0  0  0  0  0
    0.5317    0.1818    3.8058 H   0  0  0  0  0  0  0  0  0  0  0  0
  1  2  1  0  0  0  0
  3  1  1  0  0  0  0
  4  3  1  0  0  0  0
  5 11  1  0  0  0  0
  5  3  1  0  0  0  0
  5  7  1  0  0  0  0
  6  5  1  0  0  0  0
  7 10  1  0  0  0  0
  8  7  1  0  0  0  0
  9  7  1  0  0  0  0
 11 12  1  0  0  0  0
 13 11  1  0  0  0  0
 14 11  1  0  0  0  0
 15  3  1  0  0  0  0
 15 16  1  0  0  0  0
 15 21  1  0  0  0  0
 17 15  1  0  0  0  0
 18 17  1  0  0  0  0
 19 17  1  0  0  0  0
 20 17  1  0  0  0  0
 21 24  1  0  0  0  0
 22 21  1  0  0  0  0
 23 21  1  0  0  0  0
M  END
$$$$
