CSD_code = DIWYEQ | q = 0 | S = 0 | Stoichiometry = C6H15AuBrN | MND = 2
 OpenBabel04212202033D

 24 23  0  0  0  0  0  0  0  0999 V2000
    2.6326    1.1133    4.7367 Au  0  0  0  0  0  0  0  0  0  0  0  0
    2.9549    0.8360    7.0573 Br  0  0  0  0  0  0  0  0  0  0  0  0
    2.3396    1.4003    2.5411 N   0  0  0  0  0  4  0  0  0  0  0  0
    2.6244    0.5021    2.1513 H   0  0  0  0  0  0  0  0  0  0  0  0
    3.2801    2.4115    2.0181 C   0  0  0  0  0  0  0  0  0  0  0  0
    3.1527    2.5098    0.9316 H   0  0  0  0  0  0  0  0  0  0  0  0
    3.0359    3.7666    2.6696 C   0  0  0  0  0  0  0  0  0  0  0  0
    2.0678    4.1752    2.3924 H   0  0  0  0  0  0  0  0  0  0  0  0
    3.8021    4.4695    2.3546 H   0  0  0  0  0  0  0  0  0  0  0  0
    3.0773    3.6719    3.7535 H   0  0  0  0  0  0  0  0  0  0  0  0
    4.7049    1.9372    2.2825 C   0  0  0  0  0  0  0  0  0  0  0  0
    4.8812    1.8459    3.3531 H   0  0  0  0  0  0  0  0  0  0  0  0
    5.4173    2.6493    1.8754 H   0  0  0  0  0  0  0  0  0  0  0  0
    4.8872    0.9694    1.8186 H   0  0  0  0  0  0  0  0  0  0  0  0
    0.9185    1.5842    2.1873 C   0  0  0  0  0  0  0  0  0  0  0  0
    0.5811    2.5090    2.6647 H   0  0  0  0  0  0  0  0  0  0  0  0
    0.6865    1.6774    0.6782 C   0  0  0  0  0  0  0  0  0  0  0  0
    1.0914    2.5958    0.2615 H   0  0  0  0  0  0  0  0  0  0  0  0
   -0.3805    1.6647    0.4744 H   0  0  0  0  0  0  0  0  0  0  0  0
    1.1402    0.8286    0.1685 H   0  0  0  0  0  0  0  0  0  0  0  0
    0.1164    0.4183    2.7559 C   0  0  0  0  0  0  0  0  0  0  0  0
    0.4145   -0.5176    2.2864 H   0  0  0  0  0  0  0  0  0  0  0  0
   -0.9443    0.5704    2.5771 H   0  0  0  0  0  0  0  0  0  0  0  0
    0.2729    0.3317    3.8300 H   0  0  0  0  0  0  0  0  0  0  0  0
  1  2  1  0  0  0  0
  3  1  1  0  0  0  0
  4  3  1  0  0  0  0
  5 11  1  0  0  0  0
  5  3  1  0  0  0  0
  5  7  1  0  0  0  0
  6  5  1  0  0  0  0
  7 10  1  0  0  0  0
  8  7  1  0  0  0  0
  9  7  1  0  0  0  0
 11 12  1  0  0  0  0
 13 11  1  0  0  0  0
 14 11  1  0  0  0  0
 15  3  1  0  0  0  0
 15 16  1  0  0  0  0
 15 21  1  0  0  0  0
 17 15  1  0  0  0  0
 18 17  1  0  0  0  0
 19 17  1  0  0  0  0
 20 17  1  0  0  0  0
 21 24  1  0  0  0  0
 22 21  1  0  0  0  0
 23 21  1  0  0  0  0
M  END
$$$$
