CSD_code = DIWZAN | q = 0 | S = 0 | Stoichiometry = C6H15AuBr3N | MND = 4
 OpenBabel04212202033D

 26 25  0  0  0  0  0  0  0  0999 V2000
    2.4237    4.2607    6.8942 Au  0  0  0  0  0  0  0  0  0  0  0  0
    0.4368    4.9296    8.0947 Br  0  0  0  0  0  0  0  0  0  0  0  0
    1.0566    3.2742    5.0974 Br  0  0  0  0  0  0  0  0  0  0  0  0
    3.7842    5.4775    8.5304 Br  0  0  0  0  0  0  0  0  0  0  0  0
    4.1747    3.5283    5.7577 N   0  0  0  0  0  4  0  0  0  0  0  0
    3.7072    3.2333    4.8954 H   0  0  0  0  0  0  0  0  0  0  0  0
    5.0957    4.6229    5.3794 C   0  0  0  0  0  0  0  0  0  0  0  0
    5.5358    5.0215    6.2980 H   0  0  0  0  0  0  0  0  0  0  0  0
    6.2027    4.1408    4.4432 C   0  0  0  0  0  0  0  0  0  0  0  0
    5.7794    3.6342    3.5775 H   0  0  0  0  0  0  0  0  0  0  0  0
    6.8956    3.4717    4.9455 H   0  0  0  0  0  0  0  0  0  0  0  0
    6.7680    4.9988    4.0912 H   0  0  0  0  0  0  0  0  0  0  0  0
    4.2901    5.7213    4.6941 C   0  0  0  0  0  0  0  0  0  0  0  0
    3.7980    5.3410    3.8002 H   0  0  0  0  0  0  0  0  0  0  0  0
    4.9464    6.5378    4.4074 H   0  0  0  0  0  0  0  0  0  0  0  0
    3.5304    6.1318    5.3588 H   0  0  0  0  0  0  0  0  0  0  0  0
    4.7905    2.2984    6.3156 C   0  0  0  0  0  0  0  0  0  0  0  0
    5.4786    1.9030    5.5573 H   0  0  0  0  0  0  0  0  0  0  0  0
    3.7041    1.2537    6.5455 C   0  0  0  0  0  0  0  0  0  0  0  0
    3.0198    1.5717    7.3324 H   0  0  0  0  0  0  0  0  0  0  0  0
    4.1570    0.3168    6.8575 H   0  0  0  0  0  0  0  0  0  0  0  0
    3.1291    1.0708    5.6401 H   0  0  0  0  0  0  0  0  0  0  0  0
    5.5690    2.5527    7.5979 C   0  0  0  0  0  0  0  0  0  0  0  0
    6.3538    3.2904    7.4592 H   0  0  0  0  0  0  0  0  0  0  0  0
    6.0319    1.6235    7.9192 H   0  0  0  0  0  0  0  0  0  0  0  0
    4.9151    2.8943    8.3946 H   0  0  0  0  0  0  0  0  0  0  0  0
  1  2  1  0  0  0  0
  1  4  1  0  0  0  0
  3  1  1  0  0  0  0
  5 17  1  0  0  0  0
  5  1  1  0  0  0  0
  6  5  1  0  0  0  0
  7  5  1  0  0  0  0
  7  8  1  0  0  0  0
  9 11  1  0  0  0  0
  9  7  1  0  0  0  0
 10  9  1  0  0  0  0
 12  9  1  0  0  0  0
 13 16  1  0  0  0  0
 13  7  1  0  0  0  0
 14 13  1  0  0  0  0
 15 13  1  0  0  0  0
 17 19  1  0  0  0  0
 17 23  1  0  0  0  0
 18 17  1  0  0  0  0
 19 21  1  0  0  0  0
 19 20  1  0  0  0  0
 22 19  1  0  0  0  0
 23 25  1  0  0  0  0
 23 26  1  0  0  0  0
 24 23  1  0  0  0  0
M  END
$$$$
