CSD_code = DIXBUH | q = 0 | S = 0 | Stoichiometry = C18H28BBrIMoN7O2 | MND = 6
 OpenBabel04212202033D

 59 63  0  0  1  0  0  0  0  0999 V2000
    4.8850    3.1239    5.5376 I   0  0  0  0  0  0  0  0  0  0  0  0
    3.6167    1.9667    3.3849 Mo  0  0  0  0  0  0  0  0  0  0  0  0
    0.9800   -0.7646    8.3088 Br  0  0  0  0  0  0  0  0  0  0  0  0
    5.2070   -0.4973    3.4188 O   0  0  0  0  0  1  0  0  0  0  0  0
    2.2157    1.3349    4.4232 O   0  0  0  0  0  0  0  0  0  0  0  0
    4.5630    0.5151    3.4392 N   0  0  0  0  0  2  0  0  0  0  0  0
    2.3853    3.7766    3.1977 N   0  0  2  0  0  0  0  0  0  0  0  0
    2.3445    4.4232    2.0119 N   0  0  0  0  0  0  0  0  0  0  0  0
    5.0144    2.9312    2.0559 N   0  0  1  0  0  0  0  0  0  0  0  0
    4.5566    3.7521    1.0804 N   0  0  0  0  0  0  0  0  0  0  0  0
    2.7272    1.4896    1.5185 N   0  0  2  0  0  0  0  0  0  0  0  0
    2.5413    2.4239    0.5682 N   0  0  0  0  0  0  0  0  0  0  0  0
    1.4008    4.1118    5.4776 C   0  0  0  0  0  0  0  0  0  0  0  0
    1.6326    4.4690    4.0537 C   0  0  1  0  0  3  0  0  0  0  0  0
    1.1039    5.5879    3.4025 C   0  0  0  0  0  0  0  0  0  0  0  0
    1.5777    5.5277    2.1083 C   0  0  0  0  0  0  0  0  0  0  0  0
    1.3306    6.4729    0.9890 C   0  0  0  0  0  0  0  0  0  0  0  0
    7.2580    2.2171    2.9177 C   0  0  0  0  0  0  0  0  0  0  0  0
    6.3542    2.9727    2.0149 C   0  0  2  0  0  3  0  0  0  0  0  0
    6.7527    3.8429    0.9995 C   0  0  0  0  0  0  0  0  0  0  0  0
    5.5870    4.3154    0.4256 C   0  0  0  0  0  0  0  0  0  0  0  0
    5.4379    5.2691   -0.7031 C   0  0  0  0  0  0  0  0  0  0  0  0
    2.2207   -0.9148    1.8615 C   0  0  0  0  0  0  0  0  0  0  0  0
    2.2085    0.3427    1.0730 C   0  0  1  0  0  3  0  0  0  0  0  0
    1.6756    0.5516   -0.1976 C   0  0  0  0  0  0  0  0  0  0  0  0
    1.9113    1.8860   -0.4884 C   0  0  0  0  0  0  0  0  0  0  0  0
    1.5585    2.6380   -1.7193 C   0  0  0  0  0  0  0  0  0  0  0  0
    2.1213    0.3049    5.3273 C   0  0  0  0  0  0  0  0  0  0  0  0
    0.6712   -0.1700    5.5090 C   0  0  0  0  0  0  0  0  0  0  0  0
    0.5585   -1.3237    6.4845 C   0  0  0  0  0  0  0  0  0  0  0  0
    3.0560    3.8597    0.7840 B   0  0  1  0  0  0  0  0  0  0  0  0
    2.8577    4.5219   -0.1688 H   0  0  0  0  0  0  0  0  0  0  0  0
    2.1067    4.6400    6.1196 H   0  0  0  0  0  0  0  0  0  0  0  0
    0.3940    4.4080    5.7664 H   0  0  0  0  0  0  0  0  0  0  0  0
    1.5212    3.0432    5.6373 H   0  0  0  0  0  0  0  0  0  0  0  0
    0.4656    6.3352    3.8273 H   0  0  0  0  0  0  0  0  0  0  0  0
    0.7037    7.2880    1.3399 H   0  0  0  0  0  0  0  0  0  0  0  0
    2.2674    6.8848    0.6181 H   0  0  0  0  0  0  0  0  0  0  0  0
    0.8283    5.9742    0.1616 H   0  0  0  0  0  0  0  0  0  0  0  0
    7.4345    2.7791    3.8360 H   0  0  0  0  0  0  0  0  0  0  0  0
    6.8405    1.2508    3.1876 H   0  0  0  0  0  0  0  0  0  0  0  0
    8.2153    2.0653    2.4244 H   0  0  0  0  0  0  0  0  0  0  0  0
    7.7569    4.0908    0.7237 H   0  0  0  0  0  0  0  0  0  0  0  0
    4.9404    4.7954   -1.5477 H   0  0  0  0  0  0  0  0  0  0  0  0
    4.8468    6.1318   -0.4020 H   0  0  0  0  0  0  0  0  0  0  0  0
    6.4202    5.6083   -1.0196 H   0  0  0  0  0  0  0  0  0  0  0  0
    3.2394   -1.1898    2.1318 H   0  0  0  0  0  0  0  0  0  0  0  0
    1.6454   -0.7868    2.7784 H   0  0  0  0  0  0  0  0  0  0  0  0
    1.7821   -1.7211    1.2789 H   0  0  0  0  0  0  0  0  0  0  0  0
    1.1900   -0.1703   -0.8217 H   0  0  0  0  0  0  0  0  0  0  0  0
    0.9131    3.4819   -1.4830 H   0  0  0  0  0  0  0  0  0  0  0  0
    2.4535    3.0226   -2.2047 H   0  0  0  0  0  0  0  0  0  0  0  0
    1.0394    1.9792   -2.4098 H   0  0  0  0  0  0  0  0  0  0  0  0
    2.7617   -0.5433    5.0135 H   0  0  0  0  0  0  0  0  0  0  0  0
    2.5024    0.6688    6.3013 H   0  0  0  0  0  0  0  0  0  0  0  0
    0.0618    0.6734    5.8461 H   0  0  0  0  0  0  0  0  0  0  0  0
    0.2775   -0.4970    4.5404 H   0  0  0  0  0  0  0  0  0  0  0  0
    1.2576   -2.1234    6.2415 H   0  0  0  0  0  0  0  0  0  0  0  0
   -0.4565   -1.7172    6.5214 H   0  0  0  0  0  0  0  0  0  0  0  0
  2  6  1  0  0  0  0
  2  5  1  0  0  0  0
  2  1  1  0  0  0  0
  4  6  1  0  0  0  0
  5 28  1  0  0  0  0
  7  8  1  1  0  0  0
  7  2  1  0  0  0  0
  7 14  1  0  0  0  0
  8 16  1  0  0  0  0
  9 10  1  1  0  0  0
  9  2  1  0  0  0  0
 11 12  1  1  0  0  0
 11  2  1  0  0  0  0
 12 31  1  0  0  0  0
 13 35  1  0  0  0  0
 13 34  1  0  0  0  0
 13 33  1  0  0  0  0
 14 13  1  1  0  0  0
 15 36  1  0  0  0  0
 15 14  1  0  0  0  0
 16 15  2  0  0  0  0
 17 37  1  0  0  0  0
 17 16  1  0  0  0  0
 18 41  1  0  0  0  0
 18 40  1  0  0  0  0
 19  9  1  0  0  0  0
 19 18  1  1  0  0  0
 20 19  1  0  0  0  0
 21 20  2  0  0  0  0
 21 10  1  0  0  0  0
 22 45  1  0  0  0  0
 22 21  1  0  0  0  0
 23 47  1  0  0  0  0
 23 48  1  0  0  0  0
 24 11  1  0  0  0  0
 24 23  1  1  0  0  0
 25 24  1  0  0  0  0
 26 25  2  0  0  0  0
 26 12  1  0  0  0  0
 27 51  1  0  0  0  0
 27 26  1  0  0  0  0
 28 29  1  0  0  0  0
 28 55  1  0  0  0  0
 29 56  1  0  0  0  0
 29 30  1  0  0  0  0
 30 59  1  0  0  0  0
 30  3  1  0  0  0  0
 31 32  1  6  0  0  0
 31 10  1  0  0  0  0
 31  8  1  0  0  0  0
 38 17  1  0  0  0  0
 39 17  1  0  0  0  0
 42 18  1  0  0  0  0
 43 20  1  0  0  0  0
 44 22  1  0  0  0  0
 46 22  1  0  0  0  0
 49 23  1  0  0  0  0
 50 25  1  0  0  0  0
 52 27  1  0  0  0  0
 53 27  1  0  0  0  0
 54 28  1  0  0  0  0
 57 29  1  0  0  0  0
 58 30  1  0  0  0  0
M  END
$$$$
