CSD_code = DIXDEU | q = 0 | S = 0 | Stoichiometry = C22H35Br5Ti | MND = 8
 OpenBabel04212202033D

 63 61  0  0  1  0  0  0  0  0999 V2000
   -1.4588    4.8137    6.1522 C   0  0  2  0  0  0  0  0  0  0  0  0
   -2.2125    4.0611    5.8932 H   0  0  0  0  0  0  0  0  0  0  0  0
   -0.9059    4.3870    7.5227 C   0  0  1  0  0  0  0  0  0  0  0  0
   -1.5023    4.8451    8.3110 H   0  0  0  0  0  0  0  0  0  0  0  0
   -0.8599    2.8865    7.8004 C   0  0  2  0  0  0  0  0  0  0  0  0
   -0.3571    2.7456    8.7573 H   0  0  0  0  0  0  0  0  0  0  0  0
   -0.1638    2.0436    6.7237 C   0  0  1  0  0  0  0  0  0  0  0  0
    0.6232    2.6914    6.3188 H   0  0  0  0  0  0  0  0  0  0  0  0
    0.6022    0.8223    7.3137 C   0  0  0  0  0  0  0  0  0  0  0  0
    1.2837    0.0549    6.1707 C   0  0  0  0  0  0  0  0  0  0  0  0
    1.7590    0.7408    5.4722 H   0  0  0  0  0  0  0  0  0  0  0  0
    0.5809   -0.5696    5.6274 H   0  0  0  0  0  0  0  0  0  0  0  0
    2.0503   -0.6011    6.5754 H   0  0  0  0  0  0  0  0  0  0  0  0
   -0.3914    4.8344    5.0367 C   0  0  0  0  0  0  0  0  0  0  0  0
   -0.4969    5.7580    4.4657 H   0  0  0  0  0  0  0  0  0  0  0  0
    0.6113    4.8851    5.4757 H   0  0  0  0  0  0  0  0  0  0  0  0
   -0.3851    3.6938    4.0552 C   0  0  0  0  0  0  0  0  0  0  0  0
   -0.6902    2.3141    4.2615 C   0  0  0  0  0  0  0  0  0  0  0  0
   -0.3569    1.6078    3.0667 C   0  0  0  0  0  0  0  0  0  0  0  0
    0.2012    2.5365    2.1418 C   0  0  2  0  0  0  0  0  0  0  0  0
    0.8063    2.2255    0.8058 C   0  0  0  0  0  0  0  0  0  0  0  0
    0.5146    1.2357    0.4595 H   0  0  0  0  0  0  0  0  0  0  0  0
    1.8957    2.2549    0.8768 H   0  0  0  0  0  0  0  0  0  0  0  0
    0.4974    2.9541    0.0526 H   0  0  0  0  0  0  0  0  0  0  0  0
   -2.2663    6.1487    6.2412 C   0  0  0  0  0  0  0  0  0  0  0  0
   -3.4661    5.9672    7.1828 C   0  0  0  0  0  0  0  0  0  0  0  0
   -4.0712    5.1178    6.8732 H   0  0  0  0  0  0  0  0  0  0  0  0
   -4.0902    6.8563    7.1494 H   0  0  0  0  0  0  0  0  0  0  0  0
   -3.1789    5.8231    8.2213 H   0  0  0  0  0  0  0  0  0  0  0  0
    0.1897    3.8214    2.7519 C   0  0  0  0  0  0  0  0  0  0  0  0
    0.8615    5.0428    2.2008 C   0  0  0  0  0  0  0  0  0  0  0  0
    0.3182    5.9552    2.4455 H   0  0  0  0  0  0  0  0  0  0  0  0
    0.9498    4.9848    1.1169 H   0  0  0  0  0  0  0  0  0  0  0  0
    1.8668    5.1266    2.6209 H   0  0  0  0  0  0  0  0  0  0  0  0
   -1.1057    1.6695    5.5538 C   0  0  0  0  0  0  0  0  0  0  0  0
   -2.1343    1.9399    5.8036 H   0  0  0  0  0  0  0  0  0  0  0  0
   -1.1135    0.5890    5.4198 H   0  0  0  0  0  0  0  0  0  0  0  0
   -0.4766    0.1269    2.8580 C   0  0  0  0  0  0  0  0  0  0  0  0
   -0.5791   -0.1126    1.7999 H   0  0  0  0  0  0  0  0  0  0  0  0
   -1.3477   -0.2772    3.3766 H   0  0  0  0  0  0  0  0  0  0  0  0
    0.4163   -0.3801    3.2297 H   0  0  0  0  0  0  0  0  0  0  0  0
    1.7196    1.3116    8.2463 C   0  0  0  0  0  0  0  0  0  0  0  0
    2.3828    2.0009    7.7280 H   0  0  0  0  0  0  0  0  0  0  0  0
    2.3089    0.4634    8.5858 H   0  0  0  0  0  0  0  0  0  0  0  0
    1.3400    1.8100    9.1343 H   0  0  0  0  0  0  0  0  0  0  0  0
   -0.3192   -0.1276    8.0803 C   0  0  0  0  0  0  0  0  0  0  0  0
   -0.6769    0.3218    9.0029 H   0  0  0  0  0  0  0  0  0  0  0  0
    0.2244   -1.0323    8.3428 H   0  0  0  0  0  0  0  0  0  0  0  0
   -1.1831   -0.4125    7.4847 H   0  0  0  0  0  0  0  0  0  0  0  0
   -2.8559    6.4914    4.8661 C   0  0  0  0  0  0  0  0  0  0  0  0
   -3.3716    5.6308    4.4427 H   0  0  0  0  0  0  0  0  0  0  0  0
   -2.1103    6.8423    4.1573 H   0  0  0  0  0  0  0  0  0  0  0  0
   -3.5849    7.2900    4.9742 H   0  0  0  0  0  0  0  0  0  0  0  0
   -1.4031    7.3153    6.7257 C   0  0  0  0  0  0  0  0  0  0  0  0
   -1.1180    7.1991    7.7683 H   0  0  0  0  0  0  0  0  0  0  0  0
   -1.9633    8.2433    6.6407 H   0  0  0  0  0  0  0  0  0  0  0  0
   -0.4966    7.4142    6.1330 H   0  0  0  0  0  0  0  0  0  0  0  0
   -1.9708    3.1193    2.4921 Ti  0  0  0  0  0  0  0  0  0  0  0  0
   -3.9421    2.8131    3.8057 Br  0  0  0  0  0 15  0  0  0  0  0  0
   -2.4792    5.2167    1.4681 Br  0  0  0  0  0 15  0  0  0  0  0  0
   -2.6937    1.7566    0.6561 Br  0  0  0  0  0 15  0  0  0  0  0  0
    0.9151    5.0814    7.9258 Br  0  0  0  0  0  0  0  0  0  0  0  0
   -2.7209    2.3152    8.2150 Br  0  0  0  0  0  0  0  0  0  0  0  0
  1  2  1  6  0  0  0
  1 25  1  0  0  0  0
  1  3  1  0  0  0  0
  3  5  1  0  0  0  0
  3 62  1  0  0  0  0
  3  4  1  1  0  0  0
  5 63  1  0  0  0  0
  5  6  1  1  0  0  0
  7  8  1  6  0  0  0
  7  9  1  0  0  0  0
  7  5  1  0  0  0  0
  9 46  1  0  0  0  0
  9 42  1  0  0  0  0
 10 13  1  0  0  0  0
 10  9  1  0  0  0  0
 11 10  1  0  0  0  0
 12 10  1  0  0  0  0
 14 16  1  0  0  0  0
 14  1  1  0  0  0  0
 15 14  1  0  0  0  0
 17 18  1  0  0  0  0
 17 14  1  0  0  0  0
 18 35  1  0  0  0  0
 19 18  2  0  0  0  0
 20 58  1  6  0  0  0
 20 30  1  0  0  0  0
 20 19  1  0  0  0  0
 21 23  1  0  0  0  0
 21 20  1  0  0  0  0
 22 21  1  0  0  0  0
 24 21  1  0  0  0  0
 25 54  1  0  0  0  0
 25 26  1  0  0  0  0
 26 29  1  0  0  0  0
 27 26  1  0  0  0  0
 28 26  1  0  0  0  0
 30 17  2  0  0  0  0
 31 32  1  0  0  0  0
 31 34  1  0  0  0  0
 31 30  1  0  0  0  0
 33 31  1  0  0  0  0
 35 36  1  0  0  0  0
 35  7  1  0  0  0  0
 37 35  1  0  0  0  0
 38 19  1  0  0  0  0
 38 41  1  0  0  0  0
 38 40  1  0  0  0  0
 39 38  1  0  0  0  0
 42 44  1  0  0  0  0
 42 45  1  0  0  0  0
 43 42  1  0  0  0  0
 46 48  1  0  0  0  0
 46 47  1  0  0  0  0
 49 46  1  0  0  0  0
 50 53  1  0  0  0  0
 50 25  1  0  0  0  0
 51 50  1  0  0  0  0
 52 50  1  0  0  0  0
 54 55  1  0  0  0  0
 56 54  1  0  0  0  0
 57 54  1  0  0  0  0
M  END
$$$$
