CSD_code = DIXDAQ | q = 0 | S = 0 | Stoichiometry = C22H35Br3Ti | MND = 8
 OpenBabel04212202033D

 61 59  0  0  1  0  0  0  0  0999 V2000
    1.0553   -0.6939    8.2173 C   0  0  2  0  0  0  0  0  0  0  0  0
    0.1206   -0.2360    9.1910 C   0  0  1  0  0  3  0  0  0  0  0  0
   -0.6425    1.0526    9.1381 C   0  0  0  0  0  0  0  0  0  0  0  0
   -0.0378    1.8381    8.6888 H   0  0  0  0  0  0  0  0  0  0  0  0
   -0.8995    1.3750   10.1502 H   0  0  0  0  0  0  0  0  0  0  0  0
   -1.9478    0.8145    8.3473 C   0  0  2  0  0  0  0  0  0  0  0  0
   -2.5617    0.1580    8.9782 H   0  0  0  0  0  0  0  0  0  0  0  0
   -1.7310    0.0427    7.0674 C   0  0  0  0  0  0  0  0  0  0  0  0
   -2.5475   -0.6366    6.8510 H   0  0  0  0  0  0  0  0  0  0  0  0
   -0.7184    0.0329    6.2096 C   0  0  0  0  0  0  0  0  0  0  0  0
   -0.7850   -0.6688    5.3892 H   0  0  0  0  0  0  0  0  0  0  0  0
    0.5463    0.8442    6.2429 C   0  0  1  0  0  0  0  0  0  0  0  0
    0.3323    1.7970    6.7289 H   0  0  0  0  0  0  0  0  0  0  0  0
    1.6242    0.1121    7.0822 C   0  0  0  0  0  0  0  0  0  0  0  0
    2.1891   -0.5618    6.4369 H   0  0  0  0  0  0  0  0  0  0  0  0
    2.3254    0.8610    7.4764 H   0  0  0  0  0  0  0  0  0  0  0  0
   -0.1379   -1.3093   10.0937 C   0  0  0  0  0  0  0  0  0  0  0  0
    0.6255   -2.4331    9.6687 C   0  0  0  0  0  0  0  0  0  0  0  0
    1.3571   -2.0565    8.5059 C   0  0  1  0  0  3  0  0  0  0  0  0
    2.1642   -3.0005    7.6663 C   0  0  0  0  0  0  0  0  0  0  0  0
    2.6320   -3.7696    8.2814 H   0  0  0  0  0  0  0  0  0  0  0  0
    2.9516   -2.4848    7.1183 H   0  0  0  0  0  0  0  0  0  0  0  0
    1.5102   -3.4958    6.9445 H   0  0  0  0  0  0  0  0  0  0  0  0
    1.0599    1.2100    4.8234 C   0  0  0  0  0  0  0  0  0  0  0  0
    1.3546   -0.0051    3.9387 C   0  0  0  0  0  0  0  0  0  0  0  0
    2.0647   -0.6854    4.4017 H   0  0  0  0  0  0  0  0  0  0  0  0
    1.7875    0.3325    2.9997 H   0  0  0  0  0  0  0  0  0  0  0  0
    0.4495   -0.5587    3.7035 H   0  0  0  0  0  0  0  0  0  0  0  0
   -2.7982    2.1002    8.1406 C   0  0  0  0  0  0  0  0  0  0  0  0
   -3.1112    2.7427    9.4957 C   0  0  0  0  0  0  0  0  0  0  0  0
   -2.2191    3.1636    9.9516 H   0  0  0  0  0  0  0  0  0  0  0  0
   -3.5459    2.0164   10.1797 H   0  0  0  0  0  0  0  0  0  0  0  0
   -3.8272    3.5506    9.3629 H   0  0  0  0  0  0  0  0  0  0  0  0
   -1.1152   -1.2871   11.2305 C   0  0  0  0  0  0  0  0  0  0  0  0
   -1.2671   -0.2709   11.5961 H   0  0  0  0  0  0  0  0  0  0  0  0
   -0.7684   -1.9000   12.0636 H   0  0  0  0  0  0  0  0  0  0  0  0
   -2.0804   -1.6804   10.9038 H   0  0  0  0  0  0  0  0  0  0  0  0
   -2.0963    3.1241    7.2503 C   0  0  0  0  0  0  0  0  0  0  0  0
   -1.1843    3.4941    7.7121 H   0  0  0  0  0  0  0  0  0  0  0  0
   -2.7521    3.9765    7.0860 H   0  0  0  0  0  0  0  0  0  0  0  0
   -1.8592    2.6865    6.2851 H   0  0  0  0  0  0  0  0  0  0  0  0
   -4.1218    1.7042    7.4747 C   0  0  0  0  0  0  0  0  0  0  0  0
   -4.6387    0.9454    8.0585 H   0  0  0  0  0  0  0  0  0  0  0  0
   -3.9504    1.3159    6.4740 H   0  0  0  0  0  0  0  0  0  0  0  0
   -4.7732    2.5715    7.3939 H   0  0  0  0  0  0  0  0  0  0  0  0
    0.5865   -3.8134   10.2513 C   0  0  0  0  0  0  0  0  0  0  0  0
    0.1431   -3.8091   11.2454 H   0  0  0  0  0  0  0  0  0  0  0  0
    1.5887   -4.2408   10.3266 H   0  0  0  0  0  0  0  0  0  0  0  0
   -0.0107   -4.4676    9.6123 H   0  0  0  0  0  0  0  0  0  0  0  0
    2.3377    2.0482    4.9479 C   0  0  0  0  0  0  0  0  0  0  0  0
    3.1748    1.4493    5.2964 H   0  0  0  0  0  0  0  0  0  0  0  0
    2.1927    2.8762    5.6387 H   0  0  0  0  0  0  0  0  0  0  0  0
    2.6049    2.4622    3.9783 H   0  0  0  0  0  0  0  0  0  0  0  0
   -0.0113    2.0626    4.1330 C   0  0  0  0  0  0  0  0  0  0  0  0
   -0.1540    3.0024    4.6618 H   0  0  0  0  0  0  0  0  0  0  0  0
   -0.9628    1.5361    4.0979 H   0  0  0  0  0  0  0  0  0  0  0  0
    0.2893    2.2919    3.1132 H   0  0  0  0  0  0  0  0  0  0  0  0
    2.0658   -0.7392   10.2389 Ti  0  0  0  0  0  0  0  0  0  0  0  0
    2.2390    1.5721   10.8318 Br  0  0  0  0  0 15  0  0  0  0  0  0
    4.3126   -1.0330    9.4753 Br  0  0  0  0  0 15  0  0  0  0  0  0
    2.3183   -1.6575   12.4309 Br  0  0  0  0  0 15  0  0  0  0  0  0
  1 19  1  0  0  0  0
  1  2  1  0  0  0  0
  1 58  1  1  0  0  0
  2 17  1  6  0  0  0
  3  2  1  0  0  0  0
  3  5  1  0  0  0  0
  4  3  1  0  0  0  0
  6  7  1  1  0  0  0
  6  3  1  0  0  0  0
  8  6  1  0  0  0  0
  9  8  1  0  0  0  0
 10 12  1  0  0  0  0
 10  8  2  0  0  0  0
 11 10  1  0  0  0  0
 12 13  1  1  0  0  0
 12 14  1  0  0  0  0
 14 16  1  0  0  0  0
 14  1  1  0  0  0  0
 15 14  1  0  0  0  0
 17 34  1  0  0  0  0
 18 17  2  0  0  0  0
 18 46  1  0  0  0  0
 19 20  1  6  0  0  0
 19 18  1  0  0  0  0
 20 21  1  0  0  0  0
 22 20  1  0  0  0  0
 23 20  1  0  0  0  0
 24 50  1  0  0  0  0
 24 12  1  0  0  0  0
 25 26  1  0  0  0  0
 25 24  1  0  0  0  0
 27 25  1  0  0  0  0
 28 25  1  0  0  0  0
 29  6  1  0  0  0  0
 29 30  1  0  0  0  0
 30 31  1  0  0  0  0
 30 32  1  0  0  0  0
 33 30  1  0  0  0  0
 34 35  1  0  0  0  0
 34 36  1  0  0  0  0
 37 34  1  0  0  0  0
 38 39  1  0  0  0  0
 38 29  1  0  0  0  0
 40 38  1  0  0  0  0
 41 38  1  0  0  0  0
 42 43  1  0  0  0  0
 42 29  1  0  0  0  0
 44 42  1  0  0  0  0
 45 42  1  0  0  0  0
 46 48  1  0  0  0  0
 46 47  1  0  0  0  0
 49 46  1  0  0  0  0
 50 51  1  0  0  0  0
 50 52  1  0  0  0  0
 53 50  1  0  0  0  0
 54 55  1  0  0  0  0
 54 24  1  0  0  0  0
 56 54  1  0  0  0  0
 57 54  1  0  0  0  0
M  END
$$$$
