CSD_code = DIXJEC | q = 0 | S = 0 | Stoichiometry = C17H13BrMnN3O3 | MND = 6
 OpenBabel04212202033D

 38 41  0  0  1  0  0  0  0  0999 V2000
    2.3375    1.1907    9.7627 Br  0  0  0  0  0  0  0  0  0  0  0  0
    3.0149   -0.2506    7.9392 Mn  0  0  0  0  0  0  0  0  0  0  0  0
    0.7885   -2.1036    8.3690 O   0  0  0  0  0  1  0  0  0  0  0  0
    3.9253   -2.0426    5.8204 O   0  0  0  0  0  1  0  0  0  0  0  0
    1.3477    1.1839    6.0015 O   0  0  0  0  0  1  0  0  0  0  0  0
    4.3408   -1.2745    9.5433 N   0  0  0  0  0  4  0  0  0  0  0  0
    3.9982   -0.7054   10.3283 H   0  0  0  0  0  0  0  0  0  0  0  0
    6.8394    1.2622    8.6539 N   0  0  0  0  0  0  0  0  0  0  0  0
    7.7023    1.1349    9.1563 H   0  0  0  0  0  0  0  0  0  0  0  0
    4.7989    0.8576    7.8930 N   0  0  0  0  0  0  0  0  0  0  0  0
    5.1906    2.0901    7.4211 C   0  0  0  0  0  0  0  0  0  0  0  0
    6.4805    4.4397    6.7944 C   0  0  0  0  0  0  0  0  0  0  0  0
    6.9588    5.3711    6.5336 H   0  0  0  0  0  0  0  0  0  0  0  0
    4.5269    3.0131    6.6208 C   0  0  0  0  0  0  0  0  0  0  0  0
    3.5300    2.8157    6.2600 H   0  0  0  0  0  0  0  0  0  0  0  0
    3.4862   -5.2849   10.4832 C   0  0  0  0  0  0  0  0  0  0  0  0
    3.2511   -6.3107   10.7210 H   0  0  0  0  0  0  0  0  0  0  0  0
    4.2003   -4.9844    9.3355 C   0  0  0  0  0  0  0  0  0  0  0  0
    4.5198   -5.7748    8.6733 H   0  0  0  0  0  0  0  0  0  0  0  0
    3.3687   -2.9488   11.0133 C   0  0  0  0  0  0  0  0  0  0  0  0
    3.0266   -2.1521   11.6601 H   0  0  0  0  0  0  0  0  0  0  0  0
    1.6516   -1.3616    8.2150 C   0  0  0  0  0  2  0  0  0  0  0  0
    7.1540    3.5357    7.5906 C   0  0  0  0  0  0  0  0  0  0  0  0
    8.1475    3.7350    7.9609 H   0  0  0  0  0  0  0  0  0  0  0  0
    4.0873   -2.6453    9.8624 C   0  0  0  0  0  0  0  0  0  0  0  0
    3.6020   -1.3309    6.6671 C   0  0  0  0  0  2  0  0  0  0  0  0
    3.0652   -4.2635   11.3168 C   0  0  0  0  0  0  0  0  0  0  0  0
    2.4993   -4.4870   12.2083 H   0  0  0  0  0  0  0  0  0  0  0  0
    5.1917    4.1826    6.3204 C   0  0  0  0  0  0  0  0  0  0  0  0
    4.7054    4.9234    5.7049 H   0  0  0  0  0  0  0  0  0  0  0  0
    4.4997   -3.6718    9.0205 C   0  0  0  0  0  0  0  0  0  0  0  0
    5.0279   -3.4509    8.1041 H   0  0  0  0  0  0  0  0  0  0  0  0
    6.4901    2.3593    7.8978 C   0  0  0  0  0  0  0  0  0  0  0  0
    5.7443   -0.9215    9.3078 C   0  0  0  0  0  0  0  0  0  0  0  0
    6.2048   -1.6801    8.6626 H   0  0  0  0  0  0  0  0  0  0  0  0
    6.3174   -0.8845   10.2475 H   0  0  0  0  0  0  0  0  0  0  0  0
    5.7916    0.4027    8.6190 C   0  0  1  0  0  3  0  0  0  0  0  0
    2.0336    0.6507    6.7555 C   0  0  0  0  0  2  0  0  0  0  0  0
  2 22  1  0  0  0  0
  2  6  1  0  0  0  0
  2  1  1  0  0  0  0
  4 26  1  0  0  0  0
  5 38  1  0  0  0  0
  6 25  1  0  0  0  0
  6  7  1  0  0  0  0
  8  9  1  0  0  0  0
 10  2  1  0  0  0  0
 11 10  1  0  0  0  0
 11 33  1  0  0  0  0
 12 23  1  0  0  0  0
 13 12  1  0  0  0  0
 14 11  2  0  0  0  0
 15 14  1  0  0  0  0
 16 17  1  0  0  0  0
 16 27  1  0  0  0  0
 18 16  2  0  0  0  0
 19 18  1  0  0  0  0
 20 27  2  0  0  0  0
 20 21  1  0  0  0  0
 22  3  1  0  0  0  0
 23 33  2  0  0  0  0
 23 24  1  0  0  0  0
 25 20  1  0  0  0  0
 26  2  1  0  0  0  0
 27 28  1  0  0  0  0
 29 14  1  0  0  0  0
 29 12  2  0  0  0  0
 30 29  1  0  0  0  0
 31 18  1  0  0  0  0
 31 25  2  0  0  0  0
 32 31  1  0  0  0  0
 33  8  1  0  0  0  0
 34  6  1  0  0  0  0
 34 36  1  0  0  0  0
 35 34  1  0  0  0  0
 37 10  1  6  0  0  0
 37  8  1  0  0  0  0
 37 34  1  0  0  0  0
 38  2  1  0  0  0  0
M  END
$$$$
