CSD_code = DIXLEE | q = 0 | S = 0 | Stoichiometry = C19H19BrMnNO3S2 | MND = 6
 OpenBabel04212202033D

 46 48  0  0  0  0  0  0  0  0999 V2000
    3.1818   13.9100    7.4997 Mn  0  0  0  0  0  0  0  0  0  0  0  0
    3.5384   12.5322    8.5732 C   0  0  0  0  0  2  0  0  0  0  0  0
    4.8950   14.3969    7.5199 C   0  0  0  0  0  2  0  0  0  0  0  0
    3.4472   12.9132    6.0649 C   0  0  0  0  0  2  0  0  0  0  0  0
    3.7741   11.6361    9.2498 O   0  0  0  0  0  1  0  0  0  0  0  0
    6.0117   14.6780    7.5391 O   0  0  0  0  0  1  0  0  0  0  0  0
    3.6517   12.2695    5.1320 O   0  0  0  0  0  1  0  0  0  0  0  0
    2.5392   15.3297    9.2523 Br  0  0  0  0  0  0  0  0  0  0  0  0
    2.4845   15.5805    6.0457 N   0  0  0  0  0  4  0  0  0  0  0  0
    2.4404   16.3861    6.6901 H   0  0  0  0  0  0  0  0  0  0  0  0
    0.6007   13.3589    7.3598 S   0  0  1  0  0  3  0  0  0  0  0  0
    3.0942   18.5856    5.8779 S   0  0  0  0  0  0  0  0  0  0  0  0
    3.4328   15.9732    4.9955 C   0  0  0  0  0  0  0  0  0  0  0  0
    3.3584   15.2690    4.1610 H   0  0  0  0  0  0  0  0  0  0  0  0
    4.4446   15.9051    5.4079 H   0  0  0  0  0  0  0  0  0  0  0  0
    3.2210   17.3992    4.4859 C   0  0  0  0  0  0  0  0  0  0  0  0
    2.2864   17.5146    3.9385 H   0  0  0  0  0  0  0  0  0  0  0  0
    4.0404   17.6904    3.8308 H   0  0  0  0  0  0  0  0  0  0  0  0
    1.1298   15.3874    5.5156 C   0  0  0  0  0  0  0  0  0  0  0  0
    1.1718   14.6195    4.7330 H   0  0  0  0  0  0  0  0  0  0  0  0
    0.7449   16.3154    5.0693 H   0  0  0  0  0  0  0  0  0  0  0  0
    0.1610   14.9659    6.6089 C   0  0  0  0  0  0  0  0  0  0  0  0
   -0.8612   14.9024    6.2388 H   0  0  0  0  0  0  0  0  0  0  0  0
    0.1867   15.6665    7.4474 H   0  0  0  0  0  0  0  0  0  0  0  0
    4.6091   18.2464    6.7619 C   0  0  0  0  0  0  0  0  0  0  0  0
    5.8240   18.1555    6.1006 C   0  0  0  0  0  0  0  0  0  0  0  0
    5.8825   18.3066    5.0324 H   0  0  0  0  0  0  0  0  0  0  0  0
    6.9683   17.8675    6.8222 C   0  0  0  0  0  0  0  0  0  0  0  0
    7.9133   17.7834    6.3064 H   0  0  0  0  0  0  0  0  0  0  0  0
    6.9035   17.6892    8.1942 C   0  0  0  0  0  0  0  0  0  0  0  0
    7.7992   17.4554    8.7490 H   0  0  0  0  0  0  0  0  0  0  0  0
    5.6906   17.8102    8.8507 C   0  0  0  0  0  0  0  0  0  0  0  0
    5.6288   17.6711    9.9187 H   0  0  0  0  0  0  0  0  0  0  0  0
    4.5384   18.0887    8.1379 C   0  0  0  0  0  0  0  0  0  0  0  0
    3.5898   18.1723    8.6453 H   0  0  0  0  0  0  0  0  0  0  0  0
    0.3521   12.1581    6.0648 C   0  0  0  0  0  0  0  0  0  0  0  0
   -0.4661   12.3683    4.9669 C   0  0  0  0  0  0  0  0  0  0  0  0
   -0.9914   13.3005    4.8260 H   0  0  0  0  0  0  0  0  0  0  0  0
   -0.6175   11.3594    4.0296 C   0  0  0  0  0  0  0  0  0  0  0  0
   -1.2483   11.5298    3.1699 H   0  0  0  0  0  0  0  0  0  0  0  0
    0.0263   10.1457    4.1912 C   0  0  0  0  0  0  0  0  0  0  0  0
   -0.0953    9.3670    3.4543 H   0  0  0  0  0  0  0  0  0  0  0  0
    0.8255    9.9329    5.3036 C   0  0  0  0  0  0  0  0  0  0  0  0
    1.3277    8.9878    5.4411 H   0  0  0  0  0  0  0  0  0  0  0  0
    0.9895   10.9348    6.2394 C   0  0  0  0  0  0  0  0  0  0  0  0
    1.6173   10.7818    7.1068 H   0  0  0  0  0  0  0  0  0  0  0  0
  1  3  1  0  0  0  0
  1  2  1  0  0  0  0
  1  8  1  0  0  0  0
  2  5  1  0  0  0  0
  3  6  1  0  0  0  0
  4  1  1  0  0  0  0
  7  4  1  0  0  0  0
  9 10  1  0  0  0  0
  9  1  1  0  0  0  0
 11 36  1  6  0  0  0
 11  1  1  0  0  0  0
 12 25  1  0  0  0  0
 13 15  1  0  0  0  0
 13  9  1  0  0  0  0
 14 13  1  0  0  0  0
 16 13  1  0  0  0  0
 16 12  1  0  0  0  0
 17 16  1  0  0  0  0
 18 16  1  0  0  0  0
 19  9  1  0  0  0  0
 19 22  1  0  0  0  0
 20 19  1  0  0  0  0
 21 19  1  0  0  0  0
 22 11  1  0  0  0  0
 22 24  1  0  0  0  0
 23 22  1  0  0  0  0
 25 34  1  0  0  0  0
 26 25  2  0  0  0  0
 26 28  1  0  0  0  0
 27 26  1  0  0  0  0
 28 30  2  0  0  0  0
 29 28  1  0  0  0  0
 30 31  1  0  0  0  0
 30 32  1  0  0  0  0
 32 33  1  0  0  0  0
 34 35  1  0  0  0  0
 34 32  2  0  0  0  0
 36 45  1  0  0  0  0
 37 36  2  0  0  0  0
 38 37  1  0  0  0  0
 39 41  2  0  0  0  0
 39 37  1  0  0  0  0
 40 39  1  0  0  0  0
 41 43  1  0  0  0  0
 42 41  1  0  0  0  0
 43 44  1  0  0  0  0
 43 45  2  0  0  0  0
 45 46  1  0  0  0  0
M  END
$$$$
