CSD_code = DIXXEN | q = 0 | S = 0 | Stoichiometry = C16H22Cl2N2O6Pd | MND = 4
 OpenBabel04212202033D

 49 50  0  0  1  0  0  0  0  0999 V2000
    0.0001    0.0000    0.0001 Pd  0  0  0  0  0  0  0  0  0  0  0  0
    1.4755   -1.4984   -0.9192 Cl  0  0  0  0  0  0  0  0  0  0  0  0
   -0.9321    1.5636   -4.8422 O   0  0  0  0  0  0  0  0  0  0  0  0
    0.9904    2.7704   -6.2219 O   0  0  0  0  0  0  0  0  0  0  0  0
    2.4081    5.0520   -2.8832 O   0  0  0  0  0  0  0  0  0  0  0  0
    0.3210    1.1693   -1.5154 N   0  0  0  0  0  0  0  0  0  0  0  0
   -0.4171    1.0160   -2.6097 C   0  0  1  0  0  3  0  0  0  0  0  0
   -0.1408    1.7556   -3.7692 C   0  0  0  0  0  0  0  0  0  0  0  0
    0.9376    2.6511   -3.7706 C   0  0  0  0  0  0  0  0  0  0  0  0
    1.6766    2.7992   -2.5938 C   0  0  0  0  0  0  0  0  0  0  0  0
    1.3247    2.0389   -1.4910 C   0  0  0  0  0  0  0  0  0  0  0  0
   -1.5366    0.0232   -2.5447 C   0  0  0  0  0  0  0  0  0  0  0  0
    1.2536    3.4583   -5.0083 C   0  0  0  0  0  0  0  0  0  0  0  0
    2.8304    3.7623   -2.4899 C   0  0  0  0  0  0  0  0  0  0  0  0
    1.8715    2.1189   -0.5536 H   0  0  0  0  0  0  0  0  0  0  0  0
   -2.0985    0.0260   -3.4743 H   0  0  0  0  0  0  0  0  0  0  0  0
   -2.2024    0.2827   -1.7090 H   0  0  0  0  0  0  0  0  0  0  0  0
   -1.1185   -0.9799   -2.3716 H   0  0  0  0  0  0  0  0  0  0  0  0
   -0.5636    2.0618   -5.5987 H   0  0  0  0  0  0  0  0  0  0  0  0
    2.2913    3.7984   -4.9846 H   0  0  0  0  0  0  0  0  0  0  0  0
    0.6165    4.3485   -5.0280 H   0  0  0  0  0  0  0  0  0  0  0  0
    1.6241    2.0504   -6.3190 H   0  0  0  0  0  0  0  0  0  0  0  0
    3.1902    3.7692   -1.4541 H   0  0  0  0  0  0  0  0  0  0  0  0
    3.6575    3.4178   -3.1339 H   0  0  0  0  0  0  0  0  0  0  0  0
    3.0864    5.6921   -2.6451 H   0  0  0  0  0  0  0  0  0  0  0  0
   -1.4755    1.4988    0.9191 Cl  0  0  0  0  0  0  0  0  0  0  0  0
   -0.3211   -1.1691    1.5156 N   0  0  0  0  0  0  0  0  0  0  0  0
    0.4170   -1.0159    2.6098 C   0  0  2  0  0  3  0  0  0  0  0  0
   -1.3248   -2.0387    1.4910 C   0  0  0  0  0  0  0  0  0  0  0  0
    0.1407   -1.7555    3.7693 C   0  0  0  0  0  0  0  0  0  0  0  0
    1.5366   -0.0232    2.5449 C   0  0  0  0  0  0  0  0  0  0  0  0
   -1.6767   -2.7991    2.5938 C   0  0  0  0  0  0  0  0  0  0  0  0
   -1.8715   -2.1187    0.5537 H   0  0  0  0  0  0  0  0  0  0  0  0
    0.9320   -1.5637    4.8423 O   0  0  0  0  0  0  0  0  0  0  0  0
   -0.9376   -2.6511    3.7706 C   0  0  0  0  0  0  0  0  0  0  0  0
    2.0981   -0.0255    3.4747 H   0  0  0  0  0  0  0  0  0  0  0  0
    2.2029   -0.2833    1.7096 H   0  0  0  0  0  0  0  0  0  0  0  0
    1.1187    0.9799    2.3709 H   0  0  0  0  0  0  0  0  0  0  0  0
   -2.8303   -3.7624    2.4897 C   0  0  0  0  0  0  0  0  0  0  0  0
    0.5634   -2.0619    5.5988 H   0  0  0  0  0  0  0  0  0  0  0  0
   -1.2537   -3.4583    5.0083 C   0  0  0  0  0  0  0  0  0  0  0  0
   -2.4079   -5.0520    2.8831 O   0  0  0  0  0  0  0  0  0  0  0  0
   -3.1898   -3.7694    1.4538 H   0  0  0  0  0  0  0  0  0  0  0  0
   -3.6576   -3.4180    3.1335 H   0  0  0  0  0  0  0  0  0  0  0  0
   -0.9906   -2.7704    6.2219 O   0  0  0  0  0  0  0  0  0  0  0  0
   -2.2914   -3.7985    4.9845 H   0  0  0  0  0  0  0  0  0  0  0  0
   -0.6166   -4.3485    5.0281 H   0  0  0  0  0  0  0  0  0  0  0  0
   -3.0860   -5.6923    2.6449 H   0  0  0  0  0  0  0  0  0  0  0  0
   -1.6244   -2.0505    6.3191 H   0  0  0  0  0  0  0  0  0  0  0  0
  1 26  1  0  0  0  0
  1 27  1  0  0  0  0
  2  1  1  0  0  0  0
  3  8  1  0  0  0  0
  4 13  1  0  0  0  0
  5 25  1  0  0  0  0
  5 14  1  0  0  0  0
  6 11  1  0  0  0  0
  6  1  1  0  0  0  0
  7 12  1  6  0  0  0
  7  6  1  0  0  0  0
  8  7  1  0  0  0  0
  9  8  2  0  0  0  0
  9 10  1  0  0  0  0
 10 14  1  0  0  0  0
 10 11  2  0  0  0  0
 11 15  1  0  0  0  0
 12 18  1  0  0  0  0
 12 17  1  0  0  0  0
 13 20  1  0  0  0  0
 13  9  1  0  0  0  0
 14 23  1  0  0  0  0
 16 12  1  0  0  0  0
 19  3  1  0  0  0  0
 21 13  1  0  0  0  0
 22  4  1  0  0  0  0
 24 14  1  0  0  0  0
 27 28  1  0  0  0  0
 28 31  1  1  0  0  0
 28 30  1  0  0  0  0
 29 27  1  0  0  0  0
 29 32  2  0  0  0  0
 30 35  2  0  0  0  0
 30 34  1  0  0  0  0
 31 36  1  0  0  0  0
 32 35  1  0  0  0  0
 33 29  1  0  0  0  0
 34 40  1  0  0  0  0
 35 41  1  0  0  0  0
 37 31  1  0  0  0  0
 38 31  1  0  0  0  0
 39 32  1  0  0  0  0
 39 42  1  0  0  0  0
 39 44  1  0  0  0  0
 41 47  1  0  0  0  0
 41 45  1  0  0  0  0
 43 39  1  0  0  0  0
 45 49  1  0  0  0  0
 46 41  1  0  0  0  0
 48 42  1  0  0  0  0
M  END
$$$$
