CSD_code = DIYJAY | q = 0 | S = 0 | Stoichiometry = C15H9ClN3O3Re | MND = 6
 OpenBabel04212202033D

 32 35  0  0  1  0  0  0  0  0999 V2000
    7.2140    4.3832    3.2098 Re  0  0  0  0  0  0  0  0  0  0  0  0
    6.4295    3.1716    5.1024 Cl  0  0  0  0  0  0  0  0  0  0  0  0
    8.9710    1.9409    2.5107 O   0  0  0  0  0  1  0  0  0  0  0  0
    9.4107    5.5667    5.0290 O   0  0  0  0  0  1  0  0  0  0  0  0
    7.8971    6.0745    0.7145 O   0  0  0  0  0  1  0  0  0  0  0  0
    5.6589    5.7350    3.9448 N   0  0  0  0  0  0  0  0  0  0  0  0
    3.1960    3.4170    2.5755 N   0  0  0  0  0  0  0  0  0  0  0  0
    2.2604    3.5739    2.9095 H   0  0  0  0  0  0  0  0  0  0  0  0
    5.3977    3.6126    2.3655 N   0  0  0  0  0  0  0  0  0  0  0  0
    8.3572    2.8834    2.7216 C   0  0  0  0  0  2  0  0  0  0  0  0
    8.6368    5.1366    4.3036 C   0  0  0  0  0  2  0  0  0  0  0  0
    5.8413    6.7959    4.7204 C   0  0  0  0  0  3  0  0  0  0  0  0
    6.8555    7.1659    4.7959 H   0  0  0  0  0  0  0  0  0  0  0  0
    4.8122    7.4127    5.4116 C   0  0  0  0  0  0  0  0  0  0  0  0
    5.0199    8.2645    6.0385 H   0  0  0  0  0  0  0  0  0  0  0  0
    3.5249    6.9088    5.2903 C   0  0  0  0  0  0  0  0  0  0  0  0
    2.7014    7.3583    5.8235 H   0  0  0  0  0  0  0  0  0  0  0  0
    3.3179    5.8144    4.4729 C   0  0  0  0  0  0  0  0  0  0  0  0
    2.3316    5.3930    4.3546 H   0  0  0  0  0  0  0  0  0  0  0  0
    4.4085    5.2471    3.8165 C   0  0  0  0  0  0  0  0  0  0  0  0
    4.3149    4.0995    2.9442 C   0  0  1  0  0  3  0  0  0  0  0  0
    3.5938    2.4194    1.7207 C   0  0  0  0  0  0  0  0  0  0  0  0
    2.8971    1.4249    1.0516 C   0  0  0  0  0  0  0  0  0  0  0  0
    1.8282    1.3187    1.1549 H   0  0  0  0  0  0  0  0  0  0  0  0
    3.6362    0.5778    0.2518 C   0  0  0  0  0  0  0  0  0  0  0  0
    3.1333   -0.2128   -0.2839 H   0  0  0  0  0  0  0  0  0  0  0  0
    5.0219    0.7140    0.1160 C   0  0  0  0  0  0  0  0  0  0  0  0
    5.5515    0.0241   -0.5227 H   0  0  0  0  0  0  0  0  0  0  0  0
    5.7224    1.6996    0.7751 C   0  0  0  0  0  0  0  0  0  0  0  0
    6.7902    1.8139    0.6764 H   0  0  0  0  0  0  0  0  0  0  0  0
    4.9947    2.5609    1.5925 C   0  0  0  0  0  0  0  0  0  0  0  0
    7.6634    5.4381    1.6431 C   0  0  0  0  0  2  0  0  0  0  0  0
  1  6  1  0  0  0  0
  1 11  1  0  0  0  0
  1  2  1  0  0  0  0
  3 10  1  0  0  0  0
  5 32  1  0  0  0  0
  6 12  1  0  0  0  0
  7  8  1  0  0  0  0
  7 21  1  0  0  0  0
  9 21  1  0  0  0  0
  9  1  1  0  0  0  0
 10  1  1  0  0  0  0
 11  4  1  0  0  0  0
 12 13  1  0  0  0  0
 12 14  1  0  0  0  0
 14 15  1  0  0  0  0
 16 14  2  0  0  0  0
 16 17  1  0  0  0  0
 18 16  1  0  0  0  0
 19 18  1  0  0  0  0
 20  6  1  0  0  0  0
 20 18  2  0  0  0  0
 21 20  1  6  0  0  0
 22  7  1  0  0  0  0
 23 24  1  0  0  0  0
 23 22  2  0  0  0  0
 25 23  1  0  0  0  0
 26 25  1  0  0  0  0
 27 25  2  0  0  0  0
 27 29  1  0  0  0  0
 28 27  1  0  0  0  0
 29 31  2  0  0  0  0
 30 29  1  0  0  0  0
 31 22  1  0  0  0  0
 31  9  1  0  0  0  0
 32  1  1  0  0  0  0
M  END
$$$$
