CSD_code = DIYJEC | q = 0 | S = 0 | Stoichiometry = C21H14BrN4O3Re | MND = 6
 OpenBabel04212202033D

 44 48  0  0  1  0  0  0  0  0999 V2000
   18.5703    3.4828    2.7346 Br  0  0  0  0  0  0  0  0  0  0  0  0
   21.5225    3.6999    3.9143 C   0  0  0  0  0  2  0  0  0  0  0  0
   20.7422    5.7881    2.3196 C   0  0  0  0  0  2  0  0  0  0  0  0
   22.8360    4.1219    1.4280 C   0  0  0  0  0  2  0  0  0  0  0  0
   19.8043    4.8776   -0.6551 C   0  0  0  0  0  3  0  0  0  0  0  0
   20.0306    5.8366   -0.2066 H   0  0  0  0  0  0  0  0  0  0  0  0
   19.1462    4.8142   -1.8678 C   0  0  0  0  0  0  0  0  0  0  0  0
   18.8479    5.7202   -2.3692 H   0  0  0  0  0  0  0  0  0  0  0  0
   18.8866    3.5654   -2.4127 C   0  0  0  0  0  0  0  0  0  0  0  0
   18.3792    3.4684   -3.3602 H   0  0  0  0  0  0  0  0  0  0  0  0
   19.2866    2.4403   -1.7198 C   0  0  0  0  0  0  0  0  0  0  0  0
   19.0862    1.4691   -2.1331 H   0  0  0  0  0  0  0  0  0  0  0  0
   19.9285    2.5778   -0.4888 C   0  0  0  0  0  0  0  0  0  0  0  0
   20.3890    1.4929    0.3585 C   0  0  2  0  0  3  0  0  0  0  0  0
   20.9655   -0.4288    1.2599 C   0  0  0  0  0  0  0  0  0  0  0  0
   21.4077    0.6388    2.0689 C   0  0  0  0  0  0  0  0  0  0  0  0
   22.1131    0.4040    3.2462 C   0  0  0  0  0  0  0  0  0  0  0  0
   22.4567    1.2272    3.8524 H   0  0  0  0  0  0  0  0  0  0  0  0
   22.3491   -0.9075    3.5905 C   0  0  0  0  0  0  0  0  0  0  0  0
   22.8893   -1.1305    4.4975 H   0  0  0  0  0  0  0  0  0  0  0  0
   21.9040   -1.9641    2.7905 C   0  0  0  0  0  0  0  0  0  0  0  0
   22.1096   -2.9776    3.0999 H   0  0  0  0  0  0  0  0  0  0  0  0
   21.2121   -1.7474    1.6173 C   0  0  0  0  0  0  0  0  0  0  0  0
   20.8819   -2.5781    1.0118 H   0  0  0  0  0  0  0  0  0  0  0  0
   19.5068   -0.5998   -0.7355 C   0  0  0  0  0  0  0  0  0  0  0  0
   19.8150   -0.4325   -1.7749 H   0  0  0  0  0  0  0  0  0  0  0  0
   19.6441   -1.6638   -0.5252 H   0  0  0  0  0  0  0  0  0  0  0  0
   18.0458   -0.2370   -0.5339 C   0  0  0  0  0  0  0  0  0  0  0  0
   17.0347   -0.8771   -1.2385 C   0  0  0  0  0  0  0  0  0  0  0  0
   17.2651   -1.6516   -1.9549 H   0  0  0  0  0  0  0  0  0  0  0  0
   15.7266   -0.4916   -0.9900 C   0  0  0  0  0  0  0  0  0  0  0  0
   14.9122   -0.9661   -1.5180 H   0  0  0  0  0  0  0  0  0  0  0  0
   15.4804    0.5042   -0.0573 C   0  0  0  0  0  0  0  0  0  0  0  0
   14.4751    0.8251    0.1627 H   0  0  0  0  0  0  0  0  0  0  0  0
   16.5621    1.0809    0.5921 C   0  0  0  0  0  0  0  0  0  0  0  0
   16.4502    1.8610    1.3324 H   0  0  0  0  0  0  0  0  0  0  0  0
   20.1906    3.8022    0.0242 N   0  0  0  0  0  0  0  0  0  0  0  0
   21.0276    1.8077    1.4781 N   0  0  0  0  0  0  0  0  0  0  0  0
   20.3439    0.1373    0.1704 N   0  0  0  0  0  0  0  0  0  0  0  0
   17.8067    0.7155    0.3507 N   0  0  0  0  0  0  0  0  0  0  0  0
   21.7319    3.5774    5.0347 O   0  0  0  0  0  1  0  0  0  0  0  0
   20.5155    6.9042    2.4531 O   0  0  0  0  0  1  0  0  0  0  0  0
   23.9137    4.2664    1.0587 O   0  0  0  0  0  1  0  0  0  0  0  0
   21.0125    3.8787    2.0392 Re  0  0  0  0  0  0  0  0  0  0  0  0
  2 41  1  0  0  0  0
  3 42  1  0  0  0  0
  4 44  1  0  0  0  0
  5  6  1  0  0  0  0
  5 37  1  0  0  0  0
  7  5  1  0  0  0  0
  8  7  1  0  0  0  0
  9  7  2  0  0  0  0
  9 11  1  0  0  0  0
 10  9  1  0  0  0  0
 11 13  2  0  0  0  0
 12 11  1  0  0  0  0
 13 37  1  0  0  0  0
 14 13  1  6  0  0  0
 14 38  1  0  0  0  0
 15 23  2  0  0  0  0
 15 16  1  0  0  0  0
 16 17  2  0  0  0  0
 17 19  1  0  0  0  0
 17 18  1  0  0  0  0
 19 20  1  0  0  0  0
 21 22  1  0  0  0  0
 21 19  2  0  0  0  0
 23 21  1  0  0  0  0
 24 23  1  0  0  0  0
 25 28  1  0  0  0  0
 25 27  1  0  0  0  0
 25 39  1  0  0  0  0
 26 25  1  0  0  0  0
 28 40  1  0  0  0  0
 29 31  1  0  0  0  0
 29 28  2  0  0  0  0
 30 29  1  0  0  0  0
 31 33  2  0  0  0  0
 32 31  1  0  0  0  0
 33 34  1  0  0  0  0
 33 35  1  0  0  0  0
 35 36  1  0  0  0  0
 37 44  1  0  0  0  0
 38 44  1  0  0  0  0
 38 16  1  0  0  0  0
 39 14  1  0  0  0  0
 39 15  1  0  0  0  0
 40 35  2  0  0  0  0
 43  4  1  0  0  0  0
 44  3  1  0  0  0  0
 44  1  1  0  0  0  0
 44  2  1  0  0  0  0
M  END
$$$$
