CSD_code = DIYPEJ | q = 0 | S = 0 | Stoichiometry = C11H18Cl2Ti | MND = 8
 OpenBabel04212202033D

 32 33  0  0  1  0  0  0  0  0999 V2000
    1.8702    4.9014   10.7730 C   0  0  0  0  0  0  0  0  0  0  0  0
    1.4238    3.9127   10.6087 H   0  0  0  0  0  0  0  0  0  0  0  0
    1.4082    5.3546   11.6590 H   0  0  0  0  0  0  0  0  0  0  0  0
    2.9370    4.7515   10.9952 H   0  0  0  0  0  0  0  0  0  0  0  0
   -0.1891    7.2998    9.3787 C   0  0  2  0  0  0  0  0  0  0  0  0
    0.3632    7.6472    8.1168 C   0  0  0  0  0  0  0  0  0  0  0  0
    0.3789    6.4784    7.3054 C   0  0  0  0  0  0  0  0  0  0  0  0
   -0.1630    5.4073    8.0649 C   0  0  1  0  0  0  0  0  0  0  0  0
   -0.5203    5.9108    9.3525 C   0  0  2  0  0  3  0  0  0  0  0  0
   -0.4551    8.2663   10.4959 C   0  0  0  0  0  0  0  0  0  0  0  0
    0.4396    8.8506   10.7197 H   0  0  0  0  0  0  0  0  0  0  0  0
   -0.7588    7.7438   11.4006 H   0  0  0  0  0  0  0  0  0  0  0  0
   -1.2524    8.9576   10.2156 H   0  0  0  0  0  0  0  0  0  0  0  0
    0.7572    9.0291    7.6868 C   0  0  0  0  0  0  0  0  0  0  0  0
   -0.0930    9.5343    7.2217 H   0  0  0  0  0  0  0  0  0  0  0  0
    1.5711    8.9984    6.9619 H   0  0  0  0  0  0  0  0  0  0  0  0
    1.0805    9.6217    8.5419 H   0  0  0  0  0  0  0  0  0  0  0  0
    0.7830    6.4027    5.8630 C   0  0  0  0  0  0  0  0  0  0  0  0
   -0.0822    6.5880    5.2215 H   0  0  0  0  0  0  0  0  0  0  0  0
    1.1794    5.4162    5.6245 H   0  0  0  0  0  0  0  0  0  0  0  0
    1.5445    7.1462    5.6281 H   0  0  0  0  0  0  0  0  0  0  0  0
   -0.3878    4.0177    7.5433 C   0  0  0  0  0  0  0  0  0  0  0  0
   -0.7409    3.3559    8.3311 H   0  0  0  0  0  0  0  0  0  0  0  0
    0.5383    3.6066    7.1358 H   0  0  0  0  0  0  0  0  0  0  0  0
   -1.1337    4.0301    6.7465 H   0  0  0  0  0  0  0  0  0  0  0  0
   -1.3544    5.1925   10.3750 C   0  0  0  0  0  0  0  0  0  0  0  0
   -1.1575    5.5615   11.3798 H   0  0  0  0  0  0  0  0  0  0  0  0
   -1.1646    4.1210   10.3620 H   0  0  0  0  0  0  0  0  0  0  0  0
   -2.4135    5.3516   10.1579 H   0  0  0  0  0  0  0  0  0  0  0  0
    3.1158    4.9960    7.8672 Cl  0  0  0  0  0  0  0  0  0  0  0  0
    3.0427    7.6844    9.8244 Cl  0  0  0  0  0  0  0  0  0  0  0  0
    1.7462    6.1112    9.1110 Ti  0  0  0  0  0  0  0  0  0  0  0  0
  1  4  1  0  0  0  0
  1  3  1  0  0  0  0
  2  1  1  0  0  0  0
  5 10  1  1  0  0  0
  6  5  1  0  0  0  0
  7  8  1  0  0  0  0
  7  6  2  0  0  0  0
  8 22  1  6  0  0  0
  8 32  1  0  0  0  0
  8  9  1  0  0  0  0
  9  5  1  0  0  0  0
  9 26  1  6  0  0  0
 10 11  1  0  0  0  0
 10 12  1  0  0  0  0
 13 10  1  0  0  0  0
 14  6  1  0  0  0  0
 14 17  1  0  0  0  0
 15 14  1  0  0  0  0
 16 14  1  0  0  0  0
 18  7  1  0  0  0  0
 19 18  1  0  0  0  0
 20 18  1  0  0  0  0
 21 18  1  0  0  0  0
 22 23  1  0  0  0  0
 24 22  1  0  0  0  0
 25 22  1  0  0  0  0
 26 27  1  0  0  0  0
 28 26  1  0  0  0  0
 29 26  1  0  0  0  0
 30 32  1  0  0  0  0
 32  5  1  0  0  0  0
 32 31  1  0  0  0  0
 32  1  1  0  0  0  0
M  END
$$$$
