CSD_code = DIYQUX | q = 0 | S = 0 | Stoichiometry = C10H14CdI2N4S | MND = 5
 OpenBabel04212202033D

 32 33  0  0  1  0  0  0  0  0999 V2000
   -2.1430   14.1186    4.1188 I   0  0  0  0  0  0  0  0  0  0  0  0
   -1.5820    9.7118    1.9836 I   0  0  0  0  0  0  0  0  0  0  0  0
   -2.5291   11.4790    3.8418 Cd  0  0  0  0  0  0  0  0  0  0  0  0
   -5.3633   10.9681    3.5457 S   0  0  0  0  0  0  0  0  0  0  0  0
   -1.4431   10.7402    6.0116 N   0  0  0  0  0  0  0  0  0  0  0  0
   -3.4131    9.2656    4.9488 N   0  0  0  0  0  0  0  0  0  0  0  0
   -4.2355    8.6326    4.1073 N   0  0  0  0  0  0  0  0  0  0  0  0
   -5.7618    8.6446    2.3875 N   0  0  0  0  0  0  0  0  0  0  0  0
   -0.6735   11.5516    6.7193 C   0  0  0  0  0  3  0  0  0  0  0  0
   -0.0738   11.1768    7.9127 C   0  0  0  0  0  0  0  0  0  0  0  0
   -0.3015    9.8962    8.3891 C   0  0  0  0  0  0  0  0  0  0  0  0
   -1.1040    9.0418    7.6534 C   0  0  0  0  0  0  0  0  0  0  0  0
   -1.6608    9.4970    6.4586 C   0  0  0  0  0  0  0  0  0  0  0  0
   -2.5211    8.6454    5.6261 C   0  0  0  0  0  0  0  0  0  0  0  0
   -5.0980    9.3453    3.3153 C   0  0  1  0  0  3  0  0  0  0  0  0
   -6.6300    9.2837    1.4181 C   0  0  0  0  0  0  0  0  0  0  0  0
   -7.3227    8.2356    0.5673 C   0  0  0  0  0  0  0  0  0  0  0  0
   -2.2885    7.1635    5.5598 C   0  0  0  0  0  0  0  0  0  0  0  0
   -0.5264   12.5459    6.3149 H   0  0  0  0  0  0  0  0  0  0  0  0
    0.5494   11.8729    8.4500 H   0  0  0  0  0  0  0  0  0  0  0  0
    0.1356    9.5665    9.3197 H   0  0  0  0  0  0  0  0  0  0  0  0
   -1.3180    8.0484    8.0147 H   0  0  0  0  0  0  0  0  0  0  0  0
   -6.0397    9.9626    0.7902 H   0  0  0  0  0  0  0  0  0  0  0  0
   -7.3590    9.8879    1.9652 H   0  0  0  0  0  0  0  0  0  0  0  0
   -7.9861    8.7216   -0.1416 H   0  0  0  0  0  0  0  0  0  0  0  0
   -6.5948    7.6517    0.0079 H   0  0  0  0  0  0  0  0  0  0  0  0
   -7.9133    7.5659    1.1883 H   0  0  0  0  0  0  0  0  0  0  0  0
   -4.0714    7.6508    3.8813 H   0  0  0  0  0  0  0  0  0  0  0  0
   -5.4616    7.7058    2.1633 H   0  0  0  0  0  0  0  0  0  0  0  0
   -2.0991    6.8730    4.5241 H   0  0  0  0  0  0  0  0  0  0  0  0
   -1.4211    6.8764    6.1435 H   0  0  0  0  0  0  0  0  0  0  0  0
   -3.1586    6.6143    5.9225 H   0  0  0  0  0  0  0  0  0  0  0  0
  2  3  1  0  0  0  0
  3  1  1  0  0  0  0
  3  5  1  0  0  0  0
  4  3  1  0  0  0  0
  5 13  1  0  0  0  0
  5  9  1  0  0  0  0
  6 14  2  0  0  0  0
  7  6  1  0  0  0  0
  9 10  1  0  0  0  0
 10 11  2  0  0  0  0
 10 20  1  0  0  0  0
 11 21  1  0  0  0  0
 12 22  1  0  0  0  0
 12 11  1  0  0  0  0
 13 12  2  0  0  0  0
 14 13  1  0  0  0  0
 15  8  1  1  0  0  0
 15  4  1  0  0  0  0
 15  7  1  0  0  0  0
 16 24  1  0  0  0  0
 16  8  1  0  0  0  0
 17 27  1  0  0  0  0
 17 16  1  0  0  0  0
 18 14  1  0  0  0  0
 18 32  1  0  0  0  0
 18 31  1  0  0  0  0
 19  9  1  0  0  0  0
 23 16  1  0  0  0  0
 25 17  1  0  0  0  0
 26 17  1  0  0  0  0
 28  7  1  0  0  0  0
 29  8  1  0  0  0  0
 30 18  1  0  0  0  0
M  END
$$$$
