CSD_code = DIYXEO | q = 0 | S = 0 | Stoichiometry = C10H14Br2N4OSZn | MND = 5
 OpenBabel04212202033D

 33 34  0  0  1  0  0  0  0  0999 V2000
    1.0121    2.2512    2.0681 Zn  0  0  0  0  0  0  0  0  0  0  0  0
   -0.4404    4.0702    1.7104 Br  0  0  0  0  0  0  0  0  0  0  0  0
    3.3914    2.3595    1.5348 Br  0  0  0  0  0  0  0  0  0  0  0  0
    0.3744    1.1745    4.3994 S   0  0  0  0  0  0  0  0  0  0  0  0
    0.2671    1.1622    0.3788 O   0  0  0  0  0  0  0  0  0  0  0  0
    1.1775    0.9034   -0.4773 N   0  0  0  0  0  0  0  0  0  0  0  0
    1.5838   -0.2811    2.0431 N   0  0  0  0  0  0  0  0  0  0  0  0
    1.5777   -0.9071    3.2211 N   0  0  0  0  0  0  0  0  0  0  0  0
    2.0138   -1.8253    3.3117 H   0  0  0  0  0  0  0  0  0  0  0  0
    1.1229   -1.0861    5.4575 N   0  0  0  0  0  0  0  0  0  0  0  0
    1.5777   -1.9876    5.4392 H   0  0  0  0  0  0  0  0  0  0  0  0
    1.1957    1.6104   -1.6222 C   0  0  0  0  0  3  0  0  0  0  0  0
    0.4108    2.3483   -1.7043 H   0  0  0  0  0  0  0  0  0  0  0  0
    2.1696    1.4334   -2.5720 C   0  0  0  0  0  0  0  0  0  0  0  0
    2.1578    2.0405   -3.4622 H   0  0  0  0  0  0  0  0  0  0  0  0
    3.1664    0.4923   -2.3503 C   0  0  0  0  0  0  0  0  0  0  0  0
    3.9635    0.3508   -3.0609 H   0  0  0  0  0  0  0  0  0  0  0  0
    3.1245   -0.2482   -1.1871 C   0  0  0  0  0  0  0  0  0  0  0  0
    3.9079   -0.9561   -0.9743 H   0  0  0  0  0  0  0  0  0  0  0  0
    2.1195   -0.0502   -0.2443 C   0  0  0  0  0  0  0  0  0  0  0  0
    2.0840   -0.8227    0.9960 C   0  0  0  0  0  0  0  0  0  0  0  0
    1.0646   -0.3351    4.3489 C   0  0  2  0  0  3  0  0  0  0  0  0
    0.6448   -0.6212    6.7445 C   0  0  0  0  0  0  0  0  0  0  0  0
    1.2077    0.2734    7.0333 H   0  0  0  0  0  0  0  0  0  0  0  0
   -0.4044   -0.3274    6.6394 H   0  0  0  0  0  0  0  0  0  0  0  0
    0.7979   -1.7144    7.7857 C   0  0  0  0  0  0  0  0  0  0  0  0
    0.2267   -2.5966    7.5047 H   0  0  0  0  0  0  0  0  0  0  0  0
    0.4286   -1.3595    8.7429 H   0  0  0  0  0  0  0  0  0  0  0  0
    1.8434   -1.9912    7.9049 H   0  0  0  0  0  0  0  0  0  0  0  0
    2.6696   -2.2113    0.9742 C   0  0  0  0  0  0  0  0  0  0  0  0
    3.6655   -2.2112    1.4193 H   0  0  0  0  0  0  0  0  0  0  0  0
    2.7418   -2.5805   -0.0432 H   0  0  0  0  0  0  0  0  0  0  0  0
    2.0350   -2.9020    1.5311 H   0  0  0  0  0  0  0  0  0  0  0  0
  1  4  1  0  0  0  0
  2  1  1  0  0  0  0
  3  1  1  0  0  0  0
  5  1  1  0  0  0  0
  6 20  1  0  0  0  0
  6  5  1  0  0  0  0
  7  8  1  0  0  0  0
  8  9  1  0  0  0  0
  8 22  1  0  0  0  0
 10 23  1  0  0  0  0
 11 10  1  0  0  0  0
 12  6  1  0  0  0  0
 13 12  1  0  0  0  0
 14 16  2  0  0  0  0
 14 12  1  0  0  0  0
 15 14  1  0  0  0  0
 16 18  1  0  0  0  0
 17 16  1  0  0  0  0
 18 19  1  0  0  0  0
 18 20  2  0  0  0  0
 20 21  1  0  0  0  0
 21  7  2  0  0  0  0
 22  4  1  0  0  0  0
 22 10  1  6  0  0  0
 23 24  1  0  0  0  0
 23 26  1  0  0  0  0
 25 23  1  0  0  0  0
 26 29  1  0  0  0  0
 26 28  1  0  0  0  0
 27 26  1  0  0  0  0
 30 21  1  0  0  0  0
 30 31  1  0  0  0  0
 30 33  1  0  0  0  0
 32 30  1  0  0  0  0
M  END
$$$$
