CSD_code = DIYYOZ | q = 0 | S = 0 | Stoichiometry = C29H23Cl4N3OPRe | MND = 6
 OpenBabel04212202033D

 62 67  0  0  0  0  0  0  0  0999 V2000
    9.7773   11.1607    9.5548 Re  0  0  0  0  0  0  0  0  0  0  0  0
    7.7883   11.5151    8.5017 Cl  0  0  0  0  0  0  0  0  0  0  0  0
    8.9985   12.2167   11.4468 Cl  0  0  0  0  0  0  0  0  0  0  0  0
   10.5070    9.6540    8.0447 Cl  0  0  0  0  0  0  0  0  0  0  0  0
    8.6986    9.3149   10.4837 O   0  0  0  0  0  0  0  0  0  0  0  0
   10.7584   12.7665    8.8701 N   0  0  0  0  0  0  0  0  0  0  0  0
   12.3909   12.0551   10.3397 N   0  0  0  0  0  0  0  0  0  0  0  0
   11.5664   11.0556   10.4863 N   0  0  0  0  0  0  0  0  0  0  0  0
    7.8451    8.9831   11.6616 P   0  0  0  0  0  4  0  0  0  0  0  0
   11.9804   12.9718    9.4686 C   0  0  0  0  0  0  0  0  0  0  0  0
   12.7728   14.0937    9.1533 C   0  0  0  0  0  0  0  0  0  0  0  0
   13.7163   14.1994    9.6617 H   0  0  0  0  0  0  0  0  0  0  0  0
   12.3234   14.9889    8.2247 C   0  0  0  0  0  0  0  0  0  0  0  0
   12.9079   15.8559    7.9603 H   0  0  0  0  0  0  0  0  0  0  0  0
   11.0784   14.7641    7.6126 C   0  0  0  0  0  0  0  0  0  0  0  0
   10.6968   15.4519    6.8761 H   0  0  0  0  0  0  0  0  0  0  0  0
   10.3429   13.6619    7.9581 C   0  0  0  0  0  0  0  0  0  0  0  0
    9.3773   13.4634    7.5119 H   0  0  0  0  0  0  0  0  0  0  0  0
   11.9963   10.0923   11.3895 C   0  0  0  0  0  0  0  0  0  0  0  0
   12.8324   10.4403   12.4561 C   0  0  0  0  0  0  0  0  0  0  0  0
   13.1372   11.4697   12.5567 H   0  0  0  0  0  0  0  0  0  0  0  0
   13.2378    9.4875   13.3652 C   0  0  0  0  0  0  0  0  0  0  0  0
   13.8733    9.7558   14.1946 H   0  0  0  0  0  0  0  0  0  0  0  0
   12.8225    8.1724   13.2075 C   0  0  0  0  0  0  0  0  0  0  0  0
   12.0126    7.8047   12.1435 C   0  0  0  0  0  0  0  0  0  0  0  0
   11.7120    6.7757   12.0242 H   0  0  0  0  0  0  0  0  0  0  0  0
   11.5999    8.7608   11.2392 C   0  0  0  0  0  0  0  0  0  0  0  0
   10.9919    8.4760   10.3948 H   0  0  0  0  0  0  0  0  0  0  0  0
    8.8277    8.6441   13.1577 C   0  0  0  0  0  0  0  0  0  0  0  0
    9.5406    9.6867   13.7384 C   0  0  0  0  0  0  0  0  0  0  0  0
    9.4916   10.6738   13.3002 H   0  0  0  0  0  0  0  0  0  0  0  0
   10.3024    9.4556   14.8690 C   0  0  0  0  0  0  0  0  0  0  0  0
   10.8471   10.2696   15.3234 H   0  0  0  0  0  0  0  0  0  0  0  0
   10.3620    8.1849   15.4185 C   0  0  0  0  0  0  0  0  0  0  0  0
   10.9532    8.0058   16.3040 H   0  0  0  0  0  0  0  0  0  0  0  0
    9.6700    7.1412   14.8273 C   0  0  0  0  0  0  0  0  0  0  0  0
    9.7273    6.1479   15.2473 H   0  0  0  0  0  0  0  0  0  0  0  0
    8.9023    7.3680   13.6982 C   0  0  0  0  0  0  0  0  0  0  0  0
    8.3579    6.5556   13.2377 H   0  0  0  0  0  0  0  0  0  0  0  0
    6.8884    7.4940   11.2760 C   0  0  0  0  0  0  0  0  0  0  0  0
    7.1501    6.8082   10.0995 C   0  0  0  0  0  0  0  0  0  0  0  0
    7.9266    7.1721    9.4422 H   0  0  0  0  0  0  0  0  0  0  0  0
    6.4113    5.6813    9.7827 C   0  0  0  0  0  0  0  0  0  0  0  0
    6.6099    5.1453    8.8666 H   0  0  0  0  0  0  0  0  0  0  0  0
    5.4159    5.2447   10.6413 C   0  0  0  0  0  0  0  0  0  0  0  0
    4.8385    4.3661   10.3941 H   0  0  0  0  0  0  0  0  0  0  0  0
    5.1524    5.9336   11.8162 C   0  0  0  0  0  0  0  0  0  0  0  0
    4.3721    5.5917   12.4800 H   0  0  0  0  0  0  0  0  0  0  0  0
    5.8857    7.0609   12.1352 C   0  0  0  0  0  0  0  0  0  0  0  0
    5.6884    7.6124   13.0446 H   0  0  0  0  0  0  0  0  0  0  0  0
    6.5888   10.2323   12.0636 C   0  0  0  0  0  0  0  0  0  0  0  0
    5.7742   10.6294   11.0096 C   0  0  0  0  0  0  0  0  0  0  0  0
    5.9315   10.2030   10.0283 H   0  0  0  0  0  0  0  0  0  0  0  0
    4.7928   11.5797   11.2175 C   0  0  0  0  0  0  0  0  0  0  0  0
    4.1732   11.9027   10.3944 H   0  0  0  0  0  0  0  0  0  0  0  0
    4.6130   12.1186   12.4817 C   0  0  0  0  0  0  0  0  0  0  0  0
    3.8514   12.8669   12.6449 H   0  0  0  0  0  0  0  0  0  0  0  0
    5.4068   11.7008   13.5372 C   0  0  0  0  0  0  0  0  0  0  0  0
    5.2605   12.1186   14.5225 H   0  0  0  0  0  0  0  0  0  0  0  0
    6.3955   10.7541   13.3339 C   0  0  0  0  0  0  0  0  0  0  0  0
    7.0208   10.4314   14.1539 H   0  0  0  0  0  0  0  0  0  0  0  0
   13.3222    6.9799   14.3457 Cl  0  0  0  0  0  0  0  0  0  0  0  0
  1  5  1  0  0  0  0
  1  8  1  0  0  0  0
  1  3  1  0  0  0  0
  2  1  1  0  0  0  0
  4  1  1  0  0  0  0
  5  9  1  0  0  0  0
  6 10  1  0  0  0  0
  6  1  1  0  0  0  0
  7  8  1  0  0  0  0
  8 19  1  0  0  0  0
  9 51  1  0  0  0  0
  9 29  1  0  0  0  0
 10  7  2  0  0  0  0
 11 10  1  0  0  0  0
 11 12  1  0  0  0  0
 13 11  2  0  0  0  0
 14 13  1  0  0  0  0
 15 17  2  0  0  0  0
 15 13  1  0  0  0  0
 16 15  1  0  0  0  0
 17  6  1  0  0  0  0
 18 17  1  0  0  0  0
 19 20  1  0  0  0  0
 20 21  1  0  0  0  0
 20 22  2  0  0  0  0
 22 23  1  0  0  0  0
 24 22  1  0  0  0  0
 24 62  1  0  0  0  0
 25 24  2  0  0  0  0
 26 25  1  0  0  0  0
 27 19  2  0  0  0  0
 27 25  1  0  0  0  0
 28 27  1  0  0  0  0
 29 38  2  0  0  0  0
 29 30  1  0  0  0  0
 30 32  2  0  0  0  0
 31 30  1  0  0  0  0
 32 33  1  0  0  0  0
 32 34  1  0  0  0  0
 34 35  1  0  0  0  0
 36 37  1  0  0  0  0
 36 34  2  0  0  0  0
 38 36  1  0  0  0  0
 39 38  1  0  0  0  0
 40  9  1  0  0  0  0
 40 49  1  0  0  0  0
 41 40  2  0  0  0  0
 42 41  1  0  0  0  0
 43 41  1  0  0  0  0
 43 45  2  0  0  0  0
 44 43  1  0  0  0  0
 45 47  1  0  0  0  0
 46 45  1  0  0  0  0
 47 49  2  0  0  0  0
 47 48  1  0  0  0  0
 49 50  1  0  0  0  0
 51 60  1  0  0  0  0
 52 54  1  0  0  0  0
 52 51  2  0  0  0  0
 53 52  1  0  0  0  0
 54 56  2  0  0  0  0
 55 54  1  0  0  0  0
 56 57  1  0  0  0  0
 56 58  1  0  0  0  0
 58 59  1  0  0  0  0
 60 58  2  0  0  0  0
 60 61  1  0  0  0  0
M  END
$$$$
