CSD_code = DIZJOL | q = 0 | S = 0 | Stoichiometry = C32H34ClPSiZr | MND = 12
 OpenBabel04212202033D

 70 74  0  0  1  0  0  0  0  0999 V2000
    3.3395    3.6582    7.3320 Zr  0  0  2  0  0  0  0  0  0  0  0  0
    2.3079    1.4901    7.5690 Cl  0  0  0  0  0  0  0  0  0  0  0  0
    5.0391    3.7479    5.5465 C   0  0  1  0  0  0  0  0  0  0  0  0
    4.5351    2.4263    5.4799 C   0  0  0  0  0  0  0  0  0  0  0  0
    3.2270    2.4907    4.9630 C   0  0  0  0  0  0  0  0  0  0  0  0
    2.9097    3.8365    4.7271 C   0  0  0  0  0  0  0  0  0  0  0  0
    5.1569    4.1245    8.5986 C   0  0  2  0  0  0  0  0  0  0  0  0
    6.3138    5.6194    8.5216 Si  0  0  0  0  0  0  0  0  0  0  0  0
    5.7990    6.7081   10.0145 C   0  0  0  0  0  0  0  0  0  0  0  0
    8.1866    5.2742    8.7490 C   0  0  0  0  0  0  0  0  0  0  0  0
    6.1296    6.7047    6.9486 C   0  0  0  0  0  0  0  0  0  0  0  0
    3.4566    2.2704   10.0946 P   0  0  0  0  0  0  0  0  0  0  0  0
    4.9583    1.7190    9.1812 C   0  0  0  0  0  0  0  0  0  0  0  0
    5.6723    2.7508    8.5123 C   0  0  0  0  0  0  0  0  0  0  0  0
    6.8205    2.3730    7.8023 C   0  0  0  0  0  0  0  0  0  0  0  0
    7.2075    1.0486    7.7081 C   0  0  0  0  0  0  0  0  0  0  0  0
    6.4662    0.0522    8.3217 C   0  0  0  0  0  0  0  0  0  0  0  0
    5.3436    0.3941    9.0610 C   0  0  0  0  0  0  0  0  0  0  0  0
    4.0262    4.6205    5.0839 C   0  0  0  0  0  0  0  0  0  0  0  0
    1.8096    5.6385    6.8615 C   0  0  0  0  0  0  0  0  0  0  0  0
    0.9890    4.5346    7.1788 C   0  0  2  0  0  0  0  0  0  0  0  0
    1.1831    4.2322    8.5436 C   0  0  0  0  0  0  0  0  0  0  0  0
    2.1443    5.1212    9.0585 C   0  0  0  0  0  0  0  0  0  0  0  0
    2.5468    5.9835    8.0118 C   0  0  0  0  0  0  0  0  0  0  0  0
    4.2479    2.9584   11.6202 C   0  0  0  0  0  0  0  0  0  0  0  0
    3.3673    3.4201   12.5943 C   0  0  0  0  0  0  0  0  0  0  0  0
    3.8402    3.9924   13.7595 C   0  0  0  0  0  0  0  0  0  0  0  0
    5.2054    4.1221   13.9589 C   0  0  0  0  0  0  0  0  0  0  0  0
    6.0886    3.6726   12.9918 C   0  0  0  0  0  0  0  0  0  0  0  0
    5.6155    3.0948   11.8267 C   0  0  0  0  0  0  0  0  0  0  0  0
    2.8884    0.7070   10.8747 C   0  0  0  0  0  0  0  0  0  0  0  0
    1.6210    0.2248   10.5720 C   0  0  0  0  0  0  0  0  0  0  0  0
    1.1464   -0.9243   11.1803 C   0  0  0  0  0  0  0  0  0  0  0  0
    1.9312   -1.5961   12.1016 C   0  0  0  0  0  0  0  0  0  0  0  0
    3.1922   -1.1143   12.4165 C   0  0  0  0  0  0  0  0  0  0  0  0
    3.6687    0.0334   11.8119 C   0  0  0  0  0  0  0  0  0  0  0  0
    6.0703    4.0199    5.7171 H   0  0  0  0  0  0  0  0  0  0  0  0
    5.0934    1.5173    5.6724 H   0  0  0  0  0  0  0  0  0  0  0  0
    2.6046    1.6418    4.7138 H   0  0  0  0  0  0  0  0  0  0  0  0
    2.0122    4.1918    4.2376 H   0  0  0  0  0  0  0  0  0  0  0  0
    4.1510    5.6740    4.8725 H   0  0  0  0  0  0  0  0  0  0  0  0
    1.7753    6.2101    5.9432 H   0  0  0  0  0  0  0  0  0  0  0  0
    0.2395    4.0862    6.5358 H   0  0  0  0  0  0  0  0  0  0  0  0
    0.6210    3.5040    9.1142 H   0  0  0  0  0  0  0  0  0  0  0  0
    2.4232    5.2192   10.1008 H   0  0  0  0  0  0  0  0  0  0  0  0
    3.1645    6.8638    8.1256 H   0  0  0  0  0  0  0  0  0  0  0  0
    4.7347    6.9224   10.0142 H   0  0  0  0  0  0  0  0  0  0  0  0
    6.0267    6.2129   10.9540 H   0  0  0  0  0  0  0  0  0  0  0  0
    6.3226    7.6583   10.0115 H   0  0  0  0  0  0  0  0  0  0  0  0
    8.3584    4.4315    9.4111 H   0  0  0  0  0  0  0  0  0  0  0  0
    8.6875    5.0628    7.8095 H   0  0  0  0  0  0  0  0  0  0  0  0
    8.6780    6.1380    9.1863 H   0  0  0  0  0  0  0  0  0  0  0  0
    6.6223    6.2788    6.0806 H   0  0  0  0  0  0  0  0  0  0  0  0
    5.0874    6.8735    6.6912 H   0  0  0  0  0  0  0  0  0  0  0  0
    6.5821    7.6761    7.1234 H   0  0  0  0  0  0  0  0  0  0  0  0
    7.4221    3.1309    7.3237 H   0  0  0  0  0  0  0  0  0  0  0  0
    8.0962    0.7923    7.1494 H   0  0  0  0  0  0  0  0  0  0  0  0
    6.7606   -0.9824    8.2335 H   0  0  0  0  0  0  0  0  0  0  0  0
    4.7650   -0.3815    9.5414 H   0  0  0  0  0  0  0  0  0  0  0  0
    2.3019    3.3168   12.4280 H   0  0  0  0  0  0  0  0  0  0  0  0
    3.1473    4.3425   14.5108 H   0  0  0  0  0  0  0  0  0  0  0  0
    5.5793    4.5740   14.8658 H   0  0  0  0  0  0  0  0  0  0  0  0
    7.1537    3.7730   13.1449 H   0  0  0  0  0  0  0  0  0  0  0  0
    6.3133    2.7464   11.0779 H   0  0  0  0  0  0  0  0  0  0  0  0
    1.0150    0.7450    9.8447 H   0  0  0  0  0  0  0  0  0  0  0  0
    0.1617   -1.2955   10.9358 H   0  0  0  0  0  0  0  0  0  0  0  0
    1.5623   -2.4935   12.5767 H   0  0  0  0  0  0  0  0  0  0  0  0
    3.8057   -1.6354   13.1376 H   0  0  0  0  0  0  0  0  0  0  0  0
    4.6503    0.4102   12.0651 H   0  0  0  0  0  0  0  0  0  0  0  0
    4.6524    4.2407    9.5697 H   0  0  0  0  0  0  0  0  0  0  0  0
  1  2  1  1  0  0  0
  1  7  1  0  0  0  0
  3 37  1  1  0  0  0
  3  1  1  0  0  0  0
  4  3  1  0  0  0  0
  4 38  1  0  0  0  0
  5  4  2  0  0  0  0
  6  5  1  0  0  0  0
  6 19  2  0  0  0  0
  7 70  1  1  0  0  0
  8  7  1  0  0  0  0
  8 10  1  0  0  0  0
  8  9  1  0  0  0  0
  9 48  1  0  0  0  0
 10 52  1  0  0  0  0
 10 50  1  0  0  0  0
 11 55  1  0  0  0  0
 11  8  1  0  0  0  0
 12 31  1  0  0  0  0
 12 25  1  0  0  0  0
 13 12  1  0  0  0  0
 14  7  1  0  0  0  0
 14 13  2  0  0  0  0
 15 14  1  0  0  0  0
 16 15  2  0  0  0  0
 16 17  1  0  0  0  0
 17 18  2  0  0  0  0
 18 13  1  0  0  0  0
 18 59  1  0  0  0  0
 19  3  1  0  0  0  0
 20 21  1  0  0  0  0
 20 24  2  0  0  0  0
 21 43  1  6  0  0  0
 21  1  1  0  0  0  0
 21 22  1  0  0  0  0
 22 23  2  0  0  0  0
 22 44  1  0  0  0  0
 23 45  1  0  0  0  0
 24 46  1  0  0  0  0
 24 23  1  0  0  0  0
 25 30  2  0  0  0  0
 25 26  1  0  0  0  0
 26 27  2  0  0  0  0
 27 28  1  0  0  0  0
 27 61  1  0  0  0  0
 28 62  1  0  0  0  0
 29 63  1  0  0  0  0
 29 28  2  0  0  0  0
 30 29  1  0  0  0  0
 31 36  1  0  0  0  0
 32 31  2  0  0  0  0
 32 33  1  0  0  0  0
 33 34  2  0  0  0  0
 34 35  1  0  0  0  0
 34 67  1  0  0  0  0
 35 68  1  0  0  0  0
 36 69  1  0  0  0  0
 36 35  2  0  0  0  0
 39  5  1  0  0  0  0
 40  6  1  0  0  0  0
 41 19  1  0  0  0  0
 42 20  1  0  0  0  0
 47  9  1  0  0  0  0
 49  9  1  0  0  0  0
 51 10  1  0  0  0  0
 53 11  1  0  0  0  0
 54 11  1  0  0  0  0
 56 15  1  0  0  0  0
 57 16  1  0  0  0  0
 58 17  1  0  0  0  0
 60 26  1  0  0  0  0
 64 30  1  0  0  0  0
 65 32  1  0  0  0  0
 66 33  1  0  0  0  0
M  END
$$$$
