CSD_code = DIZJUR | q = 0 | S = 0 | Stoichiometry = C28H29ClSiZr | MND = 12
 OpenBabel04212202033D

 60 64  0  0  1  0  0  0  0  0999 V2000
   12.7390    4.8875    5.7271 Zr  0  0  2  0  0  0  0  0  0  0  0  0
   12.9861    3.8644    7.8657 Cl  0  0  0  0  0  0  0  0  0  0  0  0
   14.4967    3.9382    3.9964 C   0  0  0  0  0  0  0  0  0  0  0  0
   14.4703    5.3413    3.9073 C   0  0  0  0  0  0  0  0  0  0  0  0
   14.9285    5.8657    5.1457 C   0  0  2  0  0  0  0  0  0  0  0  0
   15.2322    4.7689    5.9864 C   0  0  0  0  0  0  0  0  0  0  0  0
   11.9986    6.7008    6.8061 C   0  0  1  0  0  0  0  0  0  0  0  0
   13.1734    8.0533    7.4598 Si  0  0  0  0  0  0  0  0  0  0  0  0
   13.8015    9.3485    6.1907 C   0  0  0  0  0  0  0  0  0  0  0  0
   12.2224    9.0897    8.7654 C   0  0  0  0  0  0  0  0  0  0  0  0
   14.6284    7.1789    8.3477 C   0  0  0  0  0  0  0  0  0  0  0  0
   10.7805    7.3127    6.2455 C   0  0  0  0  0  0  0  0  0  0  0  0
   10.8375    7.9508    4.9781 C   0  0  0  0  0  0  0  0  0  0  0  0
   11.9612    7.8010    4.1282 C   0  0  0  0  0  0  0  0  0  0  0  0
   12.0305    8.4167    2.9124 C   0  0  0  0  0  0  0  0  0  0  0  0
   10.9712    9.2313    2.4665 C   0  0  0  0  0  0  0  0  0  0  0  0
   14.9397    3.5846    5.2836 C   0  0  0  0  0  0  0  0  0  0  0  0
   10.6091    4.8144    4.4165 C   0  0  2  0  0  0  0  0  0  0  0  0
   10.2989    4.2262    5.6682 C   0  0  0  0  0  3  0  0  0  0  0  0
   10.9951    3.0052    5.7565 C   0  0  0  0  0  0  0  0  0  0  0  0
   11.7502    2.8408    4.5802 C   0  0  0  0  0  0  0  0  0  0  0  0
   11.5040    3.9550    3.7442 C   0  0  0  0  0  3  0  0  0  0  0  0
    9.8549    9.3678    3.2322 C   0  0  0  0  0  0  0  0  0  0  0  0
    9.7384    8.7204    4.4894 C   0  0  0  0  0  0  0  0  0  0  0  0
    8.5768    8.8081    5.2471 C   0  0  0  0  0  0  0  0  0  0  0  0
    8.4527    8.1158    6.4483 C   0  0  0  0  0  0  0  0  0  0  0  0
    7.2392    8.1712    7.1807 C   0  0  0  0  0  0  0  0  0  0  0  0
    7.0919    7.5081    8.3588 C   0  0  0  0  0  0  0  0  0  0  0  0
    8.1616    6.7471    8.8645 C   0  0  0  0  0  0  0  0  0  0  0  0
    9.3452    6.6773    8.1905 C   0  0  0  0  0  0  0  0  0  0  0  0
    9.5521    7.3549    6.9610 C   0  0  0  0  0  0  0  0  0  0  0  0
   14.3221    3.2528    3.1780 H   0  0  0  0  0  0  0  0  0  0  0  0
   14.2991    5.9095    3.0007 H   0  0  0  0  0  0  0  0  0  0  0  0
   15.2157    6.8926    5.3281 H   0  0  0  0  0  0  0  0  0  0  0  0
   15.7113    4.8189    6.9545 H   0  0  0  0  0  0  0  0  0  0  0  0
   15.1309    2.5794    5.6386 H   0  0  0  0  0  0  0  0  0  0  0  0
   10.1027    5.6621    3.9742 H   0  0  0  0  0  0  0  0  0  0  0  0
    9.5483    4.5781    6.3649 H   0  0  0  0  0  0  0  0  0  0  0  0
   10.8993    2.2793    6.5537 H   0  0  0  0  0  0  0  0  0  0  0  0
   12.3032    1.9482    4.3118 H   0  0  0  0  0  0  0  0  0  0  0  0
   11.8170    4.0632    2.7127 H   0  0  0  0  0  0  0  0  0  0  0  0
   11.7279    6.1606    7.7256 H   0  0  0  0  0  0  0  0  0  0  0  0
   14.3866    8.9375    5.3752 H   0  0  0  0  0  0  0  0  0  0  0  0
   12.9689    9.8886    5.7519 H   0  0  0  0  0  0  0  0  0  0  0  0
   14.4257   10.0750    6.7017 H   0  0  0  0  0  0  0  0  0  0  0  0
   11.3317    9.5355    8.3320 H   0  0  0  0  0  0  0  0  0  0  0  0
   11.9025    8.4762    9.6022 H   0  0  0  0  0  0  0  0  0  0  0  0
   12.8320    9.8947    9.1636 H   0  0  0  0  0  0  0  0  0  0  0  0
   14.3894    6.1383    8.5573 H   0  0  0  0  0  0  0  0  0  0  0  0
   15.5494    7.2102    7.7755 H   0  0  0  0  0  0  0  0  0  0  0  0
   14.8301    7.6624    9.2976 H   0  0  0  0  0  0  0  0  0  0  0  0
   12.7728    7.1574    4.4673 H   0  0  0  0  0  0  0  0  0  0  0  0
   12.8957    8.2830    2.2788 H   0  0  0  0  0  0  0  0  0  0  0  0
   11.0470    9.7244    1.5088 H   0  0  0  0  0  0  0  0  0  0  0  0
    9.0213    9.9643    2.8899 H   0  0  0  0  0  0  0  0  0  0  0  0
    7.7522    9.4095    4.8927 H   0  0  0  0  0  0  0  0  0  0  0  0
    6.4265    8.7529    6.7692 H   0  0  0  0  0  0  0  0  0  0  0  0
    6.1629    7.5540    8.9077 H   0  0  0  0  0  0  0  0  0  0  0  0
    8.0379    6.2132    9.7952 H   0  0  0  0  0  0  0  0  0  0  0  0
   10.1329    6.0692    8.6125 H   0  0  0  0  0  0  0  0  0  0  0  0
  1  7  1  0  0  0  0
  1  2  1  1  0  0  0
  3 17  1  0  0  0  0
  4  3  2  0  0  0  0
  4  5  1  0  0  0  0
  5 34  1  1  0  0  0
  5  1  1  0  0  0  0
  5  6  1  0  0  0  0
  6 35  1  0  0  0  0
  7  8  1  0  0  0  0
  7 42  1  1  0  0  0
  8 11  1  0  0  0  0
  8 10  1  0  0  0  0
  9 45  1  0  0  0  0
  9  8  1  0  0  0  0
 10 48  1  0  0  0  0
 10 47  1  0  0  0  0
 11 49  1  0  0  0  0
 11 51  1  0  0  0  0
 12  7  1  0  0  0  0
 12 31  1  0  0  0  0
 13 12  2  0  0  0  0
 14 52  1  0  0  0  0
 14 13  1  0  0  0  0
 15 14  2  0  0  0  0
 16 15  1  0  0  0  0
 16 23  2  0  0  0  0
 17 36  1  0  0  0  0
 17  6  2  0  0  0  0
 18 37  1  6  0  0  0
 18 19  1  0  0  0  0
 18  1  1  0  0  0  0
 19 20  1  0  0  0  0
 19 38  1  0  0  0  0
 20 39  1  0  0  0  0
 21 20  2  0  0  0  0
 22 18  1  0  0  0  0
 22 21  1  0  0  0  0
 23 24  1  0  0  0  0
 24 13  1  0  0  0  0
 24 25  2  0  0  0  0
 25 26  1  0  0  0  0
 26 31  2  0  0  0  0
 26 27  1  0  0  0  0
 27 28  2  0  0  0  0
 28 29  1  0  0  0  0
 28 58  1  0  0  0  0
 29 59  1  0  0  0  0
 30 60  1  0  0  0  0
 30 29  2  0  0  0  0
 31 30  1  0  0  0  0
 32  3  1  0  0  0  0
 33  4  1  0  0  0  0
 40 21  1  0  0  0  0
 41 22  1  0  0  0  0
 43  9  1  0  0  0  0
 44  9  1  0  0  0  0
 46 10  1  0  0  0  0
 50 11  1  0  0  0  0
 53 15  1  0  0  0  0
 54 16  1  0  0  0  0
 55 23  1  0  0  0  0
 56 25  1  0  0  0  0
 57 27  1  0  0  0  0
M  END
$$$$
