CSD_code = DOCNOY | q = 0 | S = 0 | Stoichiometry = C8H12Cl2PdS6 | MND = 4
 OpenBabel04212202033D

 29 33  0  0  1  0  0  0  0  0999 V2000
    2.1060   -1.7290    1.1814 Pd  0  0  0  0  0  0  0  0  0  0  0  0
    1.0860   -1.0689    3.0418 Cl  0  0  0  0  0  0  0  0  0  0  0  0
    2.9604    0.3003    0.8845 Cl  0  0  0  0  0  0  0  0  0  0  0  0
    0.0249   -1.9884   -0.7933 S   0  0  1  0  0  3  0  0  0  0  0  0
    1.2082   -3.6215   -3.0561 S   0  0  0  0  0  0  0  0  0  0  0  0
   -0.6087   -4.9474   -0.9671 S   0  0  0  0  0  0  0  0  0  0  0  0
    2.3495   -5.6446   -1.0920 S   0  0  0  0  0  0  0  0  0  0  0  0
    1.2433   -3.9560    1.2112 S   0  0  1  0  0  3  0  0  0  0  0  0
    3.0103   -2.6663   -0.8207 S   0  0  2  0  0  3  0  0  0  0  0  0
    1.5055   -2.3185   -1.8197 C   0  0  2  0  0  0  0  0  0  0  0  0
    0.8695   -5.1072   -2.0380 C   0  0  2  0  0  0  0  0  0  0  0  0
   -0.1899   -3.5560    0.1297 C   0  0  1  0  0  0  0  0  0  0  0  0
    2.6208   -4.2472    0.0308 C   0  0  2  0  0  0  0  0  0  0  0  0
    1.8068   -1.0148   -2.5389 C   0  0  0  0  0  0  0  0  0  0  0  0
    0.5624   -6.2284   -3.0168 C   0  0  0  0  0  0  0  0  0  0  0  0
   -1.3460   -3.3156    1.0853 C   0  0  0  0  0  0  0  0  0  0  0  0
    3.8368   -4.5485    0.8966 C   0  0  0  0  0  0  0  0  0  0  0  0
    2.6617   -1.1377   -3.2013 H   0  0  0  0  0  0  0  0  0  0  0  0
    2.0355   -0.2446   -1.7957 H   0  0  0  0  0  0  0  0  0  0  0  0
    0.9435   -0.7032   -3.1239 H   0  0  0  0  0  0  0  0  0  0  0  0
   -0.3084   -5.9662   -3.6139 H   0  0  0  0  0  0  0  0  0  0  0  0
    0.3578   -7.1480   -2.4722 H   0  0  0  0  0  0  0  0  0  0  0  0
    1.4133   -6.3857   -3.6766 H   0  0  0  0  0  0  0  0  0  0  0  0
   -1.5616   -4.2193    1.6523 H   0  0  0  0  0  0  0  0  0  0  0  0
   -2.2345   -3.0223    0.5292 H   0  0  0  0  0  0  0  0  0  0  0  0
   -1.0730   -2.5132    1.7778 H   0  0  0  0  0  0  0  0  0  0  0  0
    4.0133   -3.7075    1.5874 H   0  0  0  0  0  0  0  0  0  0  0  0
    4.7178   -4.6855    0.2714 H   0  0  0  0  0  0  0  0  0  0  0  0
    3.6697   -5.4553    1.4759 H   0  0  0  0  0  0  0  0  0  0  0  0
  1  2  1  0  0  0  0
  3  1  1  0  0  0  0
  4 12  1  0  0  0  0
  4  1  1  1  0  0  0
  5 11  1  0  0  0  0
  5 10  1  0  0  0  0
  6 12  1  0  0  0  0
  7 13  1  0  0  0  0
  8  1  1  1  0  0  0
  9 13  1  0  0  0  0
  9  1  1  1  0  0  0
 10 14  1  6  0  0  0
 10  9  1  0  0  0  0
 10  4  1  0  0  0  0
 11 15  1  6  0  0  0
 11  7  1  0  0  0  0
 11  6  1  0  0  0  0
 12 16  1  1  0  0  0
 12  8  1  0  0  0  0
 13 17  1  1  0  0  0
 13  8  1  0  0  0  0
 14 19  1  0  0  0  0
 15 22  1  0  0  0  0
 16 24  1  0  0  0  0
 16 26  1  0  0  0  0
 17 29  1  0  0  0  0
 17 27  1  0  0  0  0
 18 14  1  0  0  0  0
 20 14  1  0  0  0  0
 21 15  1  0  0  0  0
 23 15  1  0  0  0  0
 25 16  1  0  0  0  0
 28 17  1  0  0  0  0
M  END
$$$$
