CSD_code = DOCPIW | q = 0 | S = 0 | Stoichiometry = C19H23AuClN3 | MND = 2
 OpenBabel04212202033D

 47 51  0  0  1  0  0  0  0  0999 V2000
   10.0252    2.4902    7.7871 Au  0  0  0  0  0  0  0  0  0  0  0  0
   11.1533    0.5567    7.5451 Cl  0  0  0  0  0  0  0  0  0  0  0  0
    8.9943    4.1895    8.0096 C   0  0  0  0  0  0  0  0  0  0  0  0
    9.5017    5.4890    8.0225 C   0  0  0  0  0  0  0  0  0  0  0  0
   10.8756    5.9338    7.8347 C   0  0  0  0  0  0  0  0  0  0  0  0
   11.4571    6.8669    8.6907 C   0  0  0  0  0  0  0  0  0  0  0  0
   10.8950    7.2636    9.5237 H   0  0  0  0  0  0  0  0  0  0  0  0
   12.7713    7.2555    8.5065 C   0  0  0  0  0  0  0  0  0  0  0  0
   13.2156    7.9730    9.1804 H   0  0  0  0  0  0  0  0  0  0  0  0
   13.5170    6.7211    7.4694 C   0  0  0  0  0  0  0  0  0  0  0  0
   14.5435    7.0250    7.3301 H   0  0  0  0  0  0  0  0  0  0  0  0
   12.9463    5.7891    6.6179 C   0  0  0  0  0  0  0  0  0  0  0  0
   13.5259    5.3637    5.8131 H   0  0  0  0  0  0  0  0  0  0  0  0
   11.6344    5.3944    6.7974 C   0  0  0  0  0  0  0  0  0  0  0  0
   11.1867    4.6686    6.1365 H   0  0  0  0  0  0  0  0  0  0  0  0
    7.6726    4.3789    8.2363 N   0  0  0  0  0  0  0  0  0  0  0  0
    6.6398    3.3548    8.3331 C   0  0  1  0  0  0  0  0  0  0  0  0
    6.9547    2.4265    9.5100 C   0  0  0  0  0  0  0  0  0  0  0  0
    6.9932    3.0088   10.4344 H   0  0  0  0  0  0  0  0  0  0  0  0
    7.9317    1.9618    9.3587 H   0  0  0  0  0  0  0  0  0  0  0  0
    5.8726    1.3527    9.6044 C   0  0  1  0  0  0  0  0  0  0  0  0
    6.1068    0.6874   10.4413 H   0  0  0  0  0  0  0  0  0  0  0  0
    4.5151    2.0139    9.8376 C   0  0  0  0  0  0  0  0  0  0  0  0
    4.5298    2.5784   10.7727 H   0  0  0  0  0  0  0  0  0  0  0  0
    3.7394    1.2504    9.9201 H   0  0  0  0  0  0  0  0  0  0  0  0
    4.2021    2.9464    8.6688 C   0  0  1  0  0  0  0  0  0  0  0  0
    3.2344    3.4317    8.8354 H   0  0  0  0  0  0  0  0  0  0  0  0
    5.2837    4.0228    8.5658 C   0  0  0  0  0  0  0  0  0  0  0  0
    5.0607    4.7020    7.7410 H   0  0  0  0  0  0  0  0  0  0  0  0
    5.3155    4.6126    9.4836 H   0  0  0  0  0  0  0  0  0  0  0  0
    4.1541    2.1402    7.3722 C   0  0  0  0  0  0  0  0  0  0  0  0
    3.3764    1.3773    7.4391 H   0  0  0  0  0  0  0  0  0  0  0  0
    3.9087    2.7954    6.5333 H   0  0  0  0  0  0  0  0  0  0  0  0
    5.5119    1.4793    7.1402 C   0  0  2  0  0  0  0  0  0  0  0  0
    5.4874    0.9048    6.2089 H   0  0  0  0  0  0  0  0  0  0  0  0
    5.8419    0.5488    8.3058 C   0  0  0  0  0  0  0  0  0  0  0  0
    5.0901   -0.2396    8.3753 H   0  0  0  0  0  0  0  0  0  0  0  0
    6.8117    0.0765    8.1397 H   0  0  0  0  0  0  0  0  0  0  0  0
    6.5915    2.5541    7.0286 C   0  0  0  0  0  0  0  0  0  0  0  0
    7.5635    2.0899    6.8471 H   0  0  0  0  0  0  0  0  0  0  0  0
    6.3730    3.2265    6.1949 H   0  0  0  0  0  0  0  0  0  0  0  0
    7.3405    5.6397    8.3758 N   0  0  0  0  0  2  0  0  0  0  0  0
    8.4512    6.3166    8.2513 N   0  0  0  0  0  0  0  0  0  0  0  0
    8.4187    7.7490    8.3176 C   0  0  0  0  0  0  0  0  0  0  0  0
    7.4550    8.0885    7.9408 H   0  0  0  0  0  0  0  0  0  0  0  0
    9.2267    8.1598    7.7144 H   0  0  0  0  0  0  0  0  0  0  0  0
    8.5283    8.0883    9.3492 H   0  0  0  0  0  0  0  0  0  0  0  0
  1  3  1  0  0  0  0
  2  1  1  0  0  0  0
  3  4  2  0  0  0  0
  3 16  1  0  0  0  0
  4 43  1  0  0  0  0
  5  4  1  0  0  0  0
  5  6  1  0  0  0  0
  6  7  1  0  0  0  0
  8  6  2  0  0  0  0
  8  9  1  0  0  0  0
 10  8  1  0  0  0  0
 11 10  1  0  0  0  0
 12 14  1  0  0  0  0
 12 10  2  0  0  0  0
 13 12  1  0  0  0  0
 14  5  2  0  0  0  0
 15 14  1  0  0  0  0
 16 42  1  0  0  0  0
 17 16  1  6  0  0  0
 17 28  1  0  0  0  0
 17 18  1  0  0  0  0
 18 21  1  0  0  0  0
 18 19  1  0  0  0  0
 20 18  1  0  0  0  0
 21 23  1  0  0  0  0
 21 22  1  1  0  0  0
 23 25  1  0  0  0  0
 23 24  1  0  0  0  0
 26 27  1  1  0  0  0
 26 23  1  0  0  0  0
 28 26  1  0  0  0  0
 28 30  1  0  0  0  0
 29 28  1  0  0  0  0
 31 32  1  0  0  0  0
 31 26  1  0  0  0  0
 33 31  1  0  0  0  0
 34 35  1  6  0  0  0
 34 31  1  0  0  0  0
 34 36  1  0  0  0  0
 36 37  1  0  0  0  0
 36 21  1  0  0  0  0
 38 36  1  0  0  0  0
 39 34  1  0  0  0  0
 39 17  1  0  0  0  0
 40 39  1  0  0  0  0
 41 39  1  0  0  0  0
 43 44  1  0  0  0  0
 43 42  1  0  0  0  0
 44 47  1  0  0  0  0
 45 44  1  0  0  0  0
 46 44  1  0  0  0  0
M  END
$$$$
