CSD_code = DODVOI | q = 0 | S = 0 | Stoichiometry = C33H23AuClP | MND = 2
 OpenBabel04212202033D

 59 64  0  0  0  0  0  0  0  0999 V2000
    7.8793    5.7508    2.8904 C   0  0  0  0  0  0  0  0  0  0  0  0
    7.0264    6.3966    3.0414 H   0  0  0  0  0  0  0  0  0  0  0  0
    9.0959    6.0239    3.4986 C   0  0  0  0  0  0  0  0  0  0  0  0
    9.1930    6.8943    4.1308 H   0  0  0  0  0  0  0  0  0  0  0  0
   10.1901    5.1930    3.3061 C   0  0  0  0  0  0  0  0  0  0  0  0
   11.1258    5.4269    3.7926 H   0  0  0  0  0  0  0  0  0  0  0  0
   10.1011    4.0687    2.4986 C   0  0  0  0  0  0  0  0  0  0  0  0
   10.9574    3.4268    2.3550 H   0  0  0  0  0  0  0  0  0  0  0  0
    8.8945    3.7878    1.8838 C   0  0  0  0  0  0  0  0  0  0  0  0
    8.4875    2.7010    1.0071 C   0  0  0  0  0  0  0  0  0  0  0  0
    9.1787    1.6086    0.5153 C   0  0  0  0  0  0  0  0  0  0  0  0
   10.2181    1.4539    0.7640 H   0  0  0  0  0  0  0  0  0  0  0  0
    8.5078    0.7118   -0.3034 C   0  0  0  0  0  0  0  0  0  0  0  0
    9.0333   -0.1464   -0.6959 H   0  0  0  0  0  0  0  0  0  0  0  0
    7.1710    0.8976   -0.6253 C   0  0  0  0  0  0  0  0  0  0  0  0
    6.6718    0.1833   -1.2629 H   0  0  0  0  0  0  0  0  0  0  0  0
    6.4656    1.9879   -0.1363 C   0  0  0  0  0  0  0  0  0  0  0  0
    5.4235    2.1320   -0.3827 H   0  0  0  0  0  0  0  0  0  0  0  0
    7.1312    2.8841    0.6760 C   0  0  0  0  0  0  0  0  0  0  0  0
    6.6356    4.0794    1.3668 C   0  0  0  0  0  0  0  0  0  0  0  0
    7.7858    4.6329    2.0856 C   0  0  0  0  0  0  0  0  0  0  0  0
    5.3961    4.4966    1.4040 C   0  0  0  0  0  0  0  0  0  0  0  0
    4.1269    4.7372    1.6130 C   0  0  0  0  0  0  0  0  0  0  0  0
    3.2673    5.6275    0.8334 C   0  0  0  0  0  0  0  0  0  0  0  0
    1.8977    5.6792    1.0701 C   0  0  0  0  0  0  0  0  0  0  0  0
    1.4598    5.0440    1.8326 H   0  0  0  0  0  0  0  0  0  0  0  0
    1.0912    6.5235    0.3310 C   0  0  0  0  0  0  0  0  0  0  0  0
    0.0287    6.5503    0.5201 H   0  0  0  0  0  0  0  0  0  0  0  0
    1.6456    7.3298   -0.6491 C   0  0  0  0  0  0  0  0  0  0  0  0
    1.0158    7.9902   -1.2259 H   0  0  0  0  0  0  0  0  0  0  0  0
    3.0103    7.2862   -0.8896 C   0  0  0  0  0  0  0  0  0  0  0  0
    3.4447    7.9132   -1.6542 H   0  0  0  0  0  0  0  0  0  0  0  0
    3.8195    6.4419   -0.1554 C   0  0  0  0  0  0  0  0  0  0  0  0
    4.8841    6.4025   -0.3383 H   0  0  0  0  0  0  0  0  0  0  0  0
    3.3775    3.7392    2.9534 P   0  0  0  0  0  4  0  0  0  0  0  0
    4.8728    3.0243    3.6910 C   0  0  0  0  0  0  0  0  0  0  0  0
    5.2847    1.7838    3.2139 C   0  0  0  0  0  0  0  0  0  0  0  0
    4.6579    1.2521    2.5085 H   0  0  0  0  0  0  0  0  0  0  0  0
    6.4878    1.2477    3.6322 C   0  0  0  0  0  0  0  0  0  0  0  0
    6.8143    0.2936    3.2467 H   0  0  0  0  0  0  0  0  0  0  0  0
    7.2750    1.9417    4.5368 C   0  0  0  0  0  0  0  0  0  0  0  0
    8.2195    1.5285    4.8571 H   0  0  0  0  0  0  0  0  0  0  0  0
    6.8526    3.1635    5.0350 C   0  0  0  0  0  0  0  0  0  0  0  0
    7.4650    3.6983    5.7456 H   0  0  0  0  0  0  0  0  0  0  0  0
    5.6544    3.7104    4.6140 C   0  0  0  0  0  0  0  0  0  0  0  0
    5.3274    4.6674    4.9963 H   0  0  0  0  0  0  0  0  0  0  0  0
    2.8197    4.9560    4.1745 C   0  0  0  0  0  0  0  0  0  0  0  0
    3.2701    6.2723    4.1907 C   0  0  0  0  0  0  0  0  0  0  0  0
    3.9793    6.6104    3.4473 H   0  0  0  0  0  0  0  0  0  0  0  0
    2.7986    7.1429    5.1561 C   0  0  0  0  0  0  0  0  0  0  0  0
    3.1439    8.1662    5.1696 H   0  0  0  0  0  0  0  0  0  0  0  0
    1.8837    6.7070    6.1015 C   0  0  0  0  0  0  0  0  0  0  0  0
    1.5173    7.3926    6.8508 H   0  0  0  0  0  0  0  0  0  0  0  0
    1.4329    5.3964    6.0848 C   0  0  0  0  0  0  0  0  0  0  0  0
    0.7163    5.0598    6.8188 H   0  0  0  0  0  0  0  0  0  0  0  0
    1.8960    4.5212    5.1202 C   0  0  0  0  0  0  0  0  0  0  0  0
    1.5441    3.4975    5.0834 H   0  0  0  0  0  0  0  0  0  0  0  0
    1.9070    2.1860    2.2834 Au  0  0  0  0  0  0  0  0  0  0  0  0
    0.4462    0.5828    1.6396 Cl  0  0  0  0  0  0  0  0  0  0  0  0
  1  2  1  0  0  0  0
  1  3  1  0  0  0  0
  3  4  1  0  0  0  0
  5  3  2  0  0  0  0
  5  6  1  0  0  0  0
  7  5  1  0  0  0  0
  8  7  1  0  0  0  0
  9 21  1  0  0  0  0
  9  7  2  0  0  0  0
 10  9  1  0  0  0  0
 11 12  1  0  0  0  0
 11 10  2  0  0  0  0
 13 11  1  0  0  0  0
 14 13  1  0  0  0  0
 15 13  2  0  0  0  0
 15 17  1  0  0  0  0
 16 15  1  0  0  0  0
 17 19  2  0  0  0  0
 18 17  1  0  0  0  0
 19 10  1  0  0  0  0
 19 20  1  0  0  0  0
 20 22  2  0  0  0  0
 20 21  1  0  0  0  0
 21  1  2  0  0  0  0
 22 23  2  0  0  0  0
 23 35  1  0  0  0  0
 24 25  1  0  0  0  0
 24 23  1  0  0  0  0
 25 26  1  0  0  0  0
 27 28  1  0  0  0  0
 27 25  2  0  0  0  0
 29 27  1  0  0  0  0
 30 29  1  0  0  0  0
 31 29  2  0  0  0  0
 31 33  1  0  0  0  0
 32 31  1  0  0  0  0
 33 24  2  0  0  0  0
 34 33  1  0  0  0  0
 35 36  1  0  0  0  0
 35 47  1  0  0  0  0
 36 45  1  0  0  0  0
 37 39  1  0  0  0  0
 37 36  2  0  0  0  0
 38 37  1  0  0  0  0
 39 41  2  0  0  0  0
 40 39  1  0  0  0  0
 41 42  1  0  0  0  0
 41 43  1  0  0  0  0
 43 44  1  0  0  0  0
 45 46  1  0  0  0  0
 45 43  2  0  0  0  0
 47 48  2  0  0  0  0
 47 56  1  0  0  0  0
 48 50  1  0  0  0  0
 49 48  1  0  0  0  0
 50 51  1  0  0  0  0
 50 52  2  0  0  0  0
 52 53  1  0  0  0  0
 54 52  1  0  0  0  0
 54 55  1  0  0  0  0
 56 54  2  0  0  0  0
 57 56  1  0  0  0  0
 58 35  1  0  0  0  0
 59 58  1  0  0  0  0
M  END
$$$$
