CSD_code = DODWUQ | q = 0 | S = 0 | Stoichiometry = C19H17ClFeN4O2 | MND = 6
 OpenBabel04212202033D

 44 50  0  0  1  0  0  0  0  0999 V2000
    2.2538    4.2128   13.2479 C   0  0  1  0  0  0  0  0  0  0  0  0
    2.0093    5.2451   13.5279 H   0  0  0  0  0  0  0  0  0  0  0  0
    3.4227    3.6419   14.0137 C   0  0  2  0  0  3  0  0  0  0  0  0
    4.3219    4.3542   14.7807 C   0  0  0  0  0  0  0  0  0  0  0  0
    4.2191    5.4232   14.8902 H   0  0  0  0  0  0  0  0  0  0  0  0
    5.3415    3.6590   15.4190 C   0  0  0  0  0  0  0  0  0  0  0  0
    6.0541    4.1839   16.0357 H   0  0  0  0  0  0  0  0  0  0  0  0
    5.4144    2.2820   15.2579 C   0  0  0  0  0  0  0  0  0  0  0  0
    6.1869    1.7092   15.7442 H   0  0  0  0  0  0  0  0  0  0  0  0
    4.4812    1.6440   14.4618 C   0  0  0  0  0  0  0  0  0  0  0  0
    4.4911    0.5799   14.2841 H   0  0  0  0  0  0  0  0  0  0  0  0
    2.6734    4.0565   11.8094 C   0  0  1  0  0  3  0  0  0  0  0  0
    3.0638    5.0737   10.9639 C   0  0  0  0  0  0  0  0  0  0  0  0
    3.0608    6.0969   11.3080 H   0  0  0  0  0  0  0  0  0  0  0  0
    3.4523    4.7500    9.6698 C   0  0  0  0  0  0  0  0  0  0  0  0
    3.7604    5.5218    8.9826 H   0  0  0  0  0  0  0  0  0  0  0  0
    3.4349    3.4136    9.2872 C   0  0  0  0  0  0  0  0  0  0  0  0
    3.7385    3.1212    8.2952 H   0  0  0  0  0  0  0  0  0  0  0  0
    3.0315    2.4526   10.1920 C   0  0  0  0  0  0  0  0  0  0  0  0
    3.0291    1.3977    9.9666 H   0  0  0  0  0  0  0  0  0  0  0  0
   -0.0101    3.4499   12.5873 C   0  0  0  0  0  0  0  0  0  0  0  0
   -0.7924    4.0415   13.0779 H   0  0  0  0  0  0  0  0  0  0  0  0
    0.3036    3.9802   11.6823 H   0  0  0  0  0  0  0  0  0  0  0  0
   -0.5316    2.0958   12.1837 C   0  0  2  0  0  3  0  0  0  0  0  0
   -1.8743    1.8100   12.0217 C   0  0  0  0  0  0  0  0  0  0  0  0
   -2.6155    2.5756   12.1927 H   0  0  0  0  0  0  0  0  0  0  0  0
   -2.2473    0.5236   11.6569 C   0  0  0  0  0  0  0  0  0  0  0  0
   -3.2899    0.2710   11.5403 H   0  0  0  0  0  0  0  0  0  0  0  0
   -1.2562   -0.4246   11.4647 C   0  0  0  0  0  0  0  0  0  0  0  0
   -1.5001   -1.4379   11.1908 H   0  0  0  0  0  0  0  0  0  0  0  0
    0.0655   -0.0581   11.6504 C   0  0  0  0  0  0  0  0  0  0  0  0
    0.8852   -0.7523   11.5347 H   0  0  0  0  0  0  0  0  0  0  0  0
    0.7571    3.0601   14.8453 C   0  0  0  0  0  0  0  0  0  0  0  0
   -0.1678    3.5860   15.0985 H   0  0  0  0  0  0  0  0  0  0  0  0
    1.5455    3.4090   15.5154 H   0  0  0  0  0  0  0  0  0  0  0  0
    0.5927    1.5144   15.1465 C   0  0  0  0  0  0  0  0  0  0  0  0
    1.1511    3.2530   13.4540 N   0  0  2  0  0  4  0  0  0  0  0  0
    3.5109    2.3103   13.8446 N   0  0  0  0  0  0  0  0  0  0  0  0
    2.6569    2.7593   11.4357 N   0  0  0  0  0  0  0  0  0  0  0  0
    0.4212    1.1723   11.9989 N   0  0  0  0  0  0  0  0  0  0  0  0
    1.3010    0.7732   14.4118 O   0  0  0  0  0  0  0  0  0  0  0  0
   -0.1562    1.1883   16.0434 O   0  0  0  0  0  0  0  0  0  0  0  0
    3.1813   -0.0285   12.1009 Cl  0  0  0  0  0  0  0  0  0  0  0  0
    2.0962    1.6622   12.8163 Fe  0  0  0  0  0  0  0  0  0  0  0  0
  1 37  1  0  0  0  0
  1  2  1  1  0  0  0
  1  3  1  0  0  0  0
  3  4  1  6  0  0  0
  4  5  1  0  0  0  0
  4  6  2  0  0  0  0
  6  7  1  0  0  0  0
  8  6  1  0  0  0  0
  8  9  1  0  0  0  0
 10  8  2  0  0  0  0
 11 10  1  0  0  0  0
 12 13  1  1  0  0  0
 12  1  1  0  0  0  0
 13 14  1  0  0  0  0
 15 13  2  0  0  0  0
 16 15  1  0  0  0  0
 17 15  1  0  0  0  0
 17 19  2  0  0  0  0
 18 17  1  0  0  0  0
 19 39  1  0  0  0  0
 20 19  1  0  0  0  0
 21 22  1  0  0  0  0
 23 21  1  0  0  0  0
 24 25  1  1  0  0  0
 24 21  1  0  0  0  0
 25 26  1  0  0  0  0
 27 25  2  0  0  0  0
 28 27  1  0  0  0  0
 29 31  2  0  0  0  0
 29 27  1  0  0  0  0
 30 29  1  0  0  0  0
 31 40  1  0  0  0  0
 32 31  1  0  0  0  0
 33 34  1  0  0  0  0
 33 36  1  0  0  0  0
 33 35  1  0  0  0  0
 36 42  2  0  0  0  0
 37 21  1  6  0  0  0
 37 33  1  0  0  0  0
 38  3  1  0  0  0  0
 38 10  1  0  0  0  0
 39 12  1  0  0  0  0
 39 44  1  0  0  0  0
 40 24  1  0  0  0  0
 40 44  1  0  0  0  0
 41 36  1  0  0  0  0
 43 44  1  0  0  0  0
 44 37  1  0  0  0  0
 44 38  1  0  0  0  0
 44 41  1  0  0  0  0
M  END
$$$$
