CSD_code = DOFDEJ | q = 0 | S = 0 | Stoichiometry = C19H34BClN6PRh | MND = 6
 OpenBabel04212202033D

 63 67  0  0  1  0  0  0  0  0999 V2000
   -0.0659    2.5994    4.5032 Rh  0  0  0  0  0  0  0  0  0  0  0  0
    1.7126    3.1820    5.8213 P   0  0  0  0  0  4  0  0  0  0  0  0
    1.3308    3.1728    2.7870 Cl  0  0  0  0  0  0  0  0  0  0  0  0
   -0.9912    4.7300    4.4693 N   0  0  1  0  0  0  0  0  0  0  0  0
   -2.2346    4.7381    4.9909 N   0  0  0  0  0  0  0  0  0  0  0  0
   -1.6870    2.2349    3.3076 N   0  0  1  0  0  0  0  0  0  0  0  0
   -2.8744    2.6780    3.7695 N   0  0  0  0  0  0  0  0  0  0  0  0
   -1.2526    1.9857    6.0969 N   0  0  2  0  0  0  0  0  0  0  0  0
   -2.4605    2.5560    6.2114 N   0  0  0  0  0  0  0  0  0  0  0  0
   -3.0352    3.4375    5.1013 B   0  0  1  0  0  0  0  0  0  0  0  0
   -4.1714    3.6654    5.3103 H   0  0  0  0  0  0  0  0  0  0  0  0
   -0.6859    5.9814    4.1382 C   0  0  2  0  0  3  0  0  0  0  0  0
   -1.7439    6.8239    4.5036 C   0  0  0  0  0  0  0  0  0  0  0  0
   -1.7908    7.8870    4.3775 H   0  0  0  0  0  0  0  0  0  0  0  0
   -2.7116    5.9987    5.0339 C   0  0  0  0  0  0  0  0  0  0  0  0
   -1.8840    1.7025    2.1026 C   0  0  1  0  0  3  0  0  0  0  0  0
   -3.2414    1.8029    1.7860 C   0  0  0  0  0  0  0  0  0  0  0  0
   -3.7162    1.4672    0.8864 H   0  0  0  0  0  0  0  0  0  0  0  0
   -3.8362    2.4282    2.8618 C   0  0  0  0  0  0  0  0  0  0  0  0
   -1.0920    1.1640    7.1357 C   0  0  1  0  0  3  0  0  0  0  0  0
   -2.2275    1.2322    7.9457 C   0  0  0  0  0  0  0  0  0  0  0  0
   -2.3995    0.6957    8.8568 H   0  0  0  0  0  0  0  0  0  0  0  0
   -3.0773    2.1256    7.3252 C   0  0  0  0  0  0  0  0  0  0  0  0
    0.5243    6.4148    3.3899 C   0  0  0  0  0  0  0  0  0  0  0  0
    1.1063    5.5565    3.0727 H   0  0  0  0  0  0  0  0  0  0  0  0
    1.1410    7.0869    3.9864 H   0  0  0  0  0  0  0  0  0  0  0  0
    0.2049    6.9630    2.5038 H   0  0  0  0  0  0  0  0  0  0  0  0
   -4.0461    6.3675    5.5757 C   0  0  0  0  0  0  0  0  0  0  0  0
   -4.1322    7.4503    5.6160 H   0  0  0  0  0  0  0  0  0  0  0  0
   -4.1816    5.9638    6.5774 H   0  0  0  0  0  0  0  0  0  0  0  0
   -4.8432    5.9778    4.9441 H   0  0  0  0  0  0  0  0  0  0  0  0
   -0.8442    1.0996    1.2277 C   0  0  0  0  0  0  0  0  0  0  0  0
    0.0862    1.6564    1.2971 H   0  0  0  0  0  0  0  0  0  0  0  0
   -1.1927    1.1141    0.1976 H   0  0  0  0  0  0  0  0  0  0  0  0
   -0.6572    0.0646    1.5119 H   0  0  0  0  0  0  0  0  0  0  0  0
   -5.2695    2.7854    3.0317 C   0  0  0  0  0  0  0  0  0  0  0  0
   -5.6840    2.3174    3.9228 H   0  0  0  0  0  0  0  0  0  0  0  0
   -5.8280    2.4453    2.1636 H   0  0  0  0  0  0  0  0  0  0  0  0
   -5.3903    3.8633    3.1260 H   0  0  0  0  0  0  0  0  0  0  0  0
    0.0695    0.2699    7.3886 C   0  0  0  0  0  0  0  0  0  0  0  0
    0.9886    0.7052    7.0126 H   0  0  0  0  0  0  0  0  0  0  0  0
   -0.0836   -0.6881    6.8924 H   0  0  0  0  0  0  0  0  0  0  0  0
    0.1617    0.0864    8.4578 H   0  0  0  0  0  0  0  0  0  0  0  0
   -4.4256    2.5698    7.7641 C   0  0  0  0  0  0  0  0  0  0  0  0
   -4.4664    3.6538    7.8490 H   0  0  0  0  0  0  0  0  0  0  0  0
   -4.6526    2.1302    8.7319 H   0  0  0  0  0  0  0  0  0  0  0  0
   -5.1865    2.2586    7.0505 H   0  0  0  0  0  0  0  0  0  0  0  0
    0.5468    0.6300    4.2292 C   0  0  0  0  0  0  0  0  0  0  0  0
   -0.3155   -0.0341    4.3252 H   0  0  0  0  0  0  0  0  0  0  0  0
    1.3171    0.2963    4.9193 H   0  0  0  0  0  0  0  0  0  0  0  0
    0.9548    0.5225    3.2258 H   0  0  0  0  0  0  0  0  0  0  0  0
    3.2056    2.1104    5.8685 C   0  0  0  0  0  0  0  0  0  0  0  0
    3.9994    2.6105    6.4211 H   0  0  0  0  0  0  0  0  0  0  0  0
    3.5219    1.9513    4.8388 H   0  0  0  0  0  0  0  0  0  0  0  0
    3.0064    1.1455    6.3269 H   0  0  0  0  0  0  0  0  0  0  0  0
    2.5514    4.7600    5.4222 C   0  0  0  0  0  0  0  0  0  0  0  0
    3.3898    4.9100    6.1024 H   0  0  0  0  0  0  0  0  0  0  0  0
    1.8447    5.5772    5.5342 H   0  0  0  0  0  0  0  0  0  0  0  0
    2.9094    4.7297    4.3964 H   0  0  0  0  0  0  0  0  0  0  0  0
    1.3978    3.5277    7.6050 C   0  0  0  0  0  0  0  0  0  0  0  0
    2.3238    3.8220    8.0966 H   0  0  0  0  0  0  0  0  0  0  0  0
    0.9735    2.6720    8.1192 H   0  0  0  0  0  0  0  0  0  0  0  0
    0.6849    4.3493    7.6633 H   0  0  0  0  0  0  0  0  0  0  0  0
  1  2  1  0  0  0  0
  1  8  1  0  0  0  0
  2 52  1  0  0  0  0
  2 60  1  0  0  0  0
  3  1  1  0  0  0  0
  4  1  1  0  0  0  0
  4  5  1  1  0  0  0
  5 15  1  0  0  0  0
  5 10  1  0  0  0  0
  6  7  1  6  0  0  0
  6  1  1  0  0  0  0
  7 10  1  0  0  0  0
  8  9  1  1  0  0  0
  8 20  1  0  0  0  0
  9 23  1  0  0  0  0
 10 11  1  1  0  0  0
 10  9  1  0  0  0  0
 12 24  1  6  0  0  0
 12  4  1  0  0  0  0
 12 13  1  0  0  0  0
 13 15  2  0  0  0  0
 14 13  1  0  0  0  0
 15 28  1  0  0  0  0
 16 32  1  6  0  0  0
 16  6  1  0  0  0  0
 17 16  1  0  0  0  0
 17 19  2  0  0  0  0
 18 17  1  0  0  0  0
 19 36  1  0  0  0  0
 19  7  1  0  0  0  0
 20 40  1  6  0  0  0
 20 21  1  0  0  0  0
 21 22  1  0  0  0  0
 23 44  1  0  0  0  0
 23 21  2  0  0  0  0
 24 26  1  0  0  0  0
 25 24  1  0  0  0  0
 27 24  1  0  0  0  0
 28 29  1  0  0  0  0
 28 30  1  0  0  0  0
 31 28  1  0  0  0  0
 32 33  1  0  0  0  0
 32 35  1  0  0  0  0
 34 32  1  0  0  0  0
 36 39  1  0  0  0  0
 36 37  1  0  0  0  0
 38 36  1  0  0  0  0
 40 43  1  0  0  0  0
 41 40  1  0  0  0  0
 42 40  1  0  0  0  0
 44 45  1  0  0  0  0
 44 46  1  0  0  0  0
 47 44  1  0  0  0  0
 48 49  1  0  0  0  0
 48  1  1  0  0  0  0
 48 50  1  0  0  0  0
 51 48  1  0  0  0  0
 52 55  1  0  0  0  0
 52 53  1  0  0  0  0
 54 52  1  0  0  0  0
 56 58  1  0  0  0  0
 56  2  1  0  0  0  0
 56 57  1  0  0  0  0
 59 56  1  0  0  0  0
 60 63  1  0  0  0  0
 60 61  1  0  0  0  0
 60 62  1  0  0  0  0
M  END
$$$$
