CSD_code = DOFDUX | q = 0 | S = 0 | Stoichiometry = C15H20Cl2Zr | MND = 12
 OpenBabel04212202033D

 38 38  0  0  1  0  0  0  0  0999 V2000
    3.8776    3.3078    5.5011 Zr  0  0  0  0  0  0  0  0  0  0  0  0
    3.3915    4.9846    3.9395 Cl  0  0  0  0  0  0  0  0  0  0  0  0
    5.9144    3.3076    6.8895 C   0  0  0  0  0  0  0  0  0  0  0  0
    5.9973    4.4527    6.0611 C   0  0  0  0  0  3  0  0  0  0  0  0
    6.1827    4.0103    4.7298 C   0  0  0  0  0  0  0  0  0  0  0  0
    1.5537    3.3077    6.0938 C   0  0  1  0  0  0  0  0  0  0  0  0
    2.1106    4.4592    6.7268 C   0  0  2  0  0  3  0  0  0  0  0  0
    3.0085    4.0197    7.7401 C   0  0  0  0  0  0  0  0  0  0  0  0
    0.5370    3.3077    4.9859 C   0  0  0  0  0  0  0  0  0  0  0  0
    1.7242    5.8944    6.5042 C   0  0  0  0  0  0  0  0  0  0  0  0
    3.6482    4.9461    8.7380 C   0  0  0  0  0  0  0  0  0  0  0  0
    5.9540    3.3076    7.9699 H   0  0  0  0  0  0  0  0  0  0  0  0
    6.0725    5.4816    6.3958 H   0  0  0  0  0  0  0  0  0  0  0  0
    6.3690    4.6452    3.8722 H   0  0  0  0  0  0  0  0  0  0  0  0
   -0.4778    3.3088    5.3895 H   0  0  0  0  0  0  0  0  0  0  0  0
    0.6571    4.1904    4.3557 H   0  0  0  0  0  0  0  0  0  0  0  0
    1.0652    6.2336    7.3077 H   0  0  0  0  0  0  0  0  0  0  0  0
    1.1993    6.0165    5.5590 H   0  0  0  0  0  0  0  0  0  0  0  0
    2.6053    6.5398    6.4907 H   0  0  0  0  0  0  0  0  0  0  0  0
    4.2448    5.7170    8.2454 H   0  0  0  0  0  0  0  0  0  0  0  0
    2.8744    5.4521    9.3186 H   0  0  0  0  0  0  0  0  0  0  0  0
    4.2852    4.4072    9.4358 H   0  0  0  0  0  0  0  0  0  0  0  0
    3.3885    1.6328    3.9394 Cl  0  0  0  0  0  0  0  0  0  0  0  0
    5.9971    2.1624    6.0611 C   0  0  0  0  0  0  0  0  0  0  0  0
    6.1825    2.6047    4.7298 C   0  0  0  0  0  0  0  0  0  0  0  0
    2.1109    2.1562    6.7266 C   0  0  1  0  0  3  0  0  0  0  0  0
    3.0086    2.5959    7.7402 C   0  0  0  0  0  0  0  0  0  0  0  0
    0.6557    2.4240    4.3569 H   0  0  0  0  0  0  0  0  0  0  0  0
    6.0719    1.1335    6.3958 H   0  0  0  0  0  0  0  0  0  0  0  0
    6.3686    1.9697    3.8722 H   0  0  0  0  0  0  0  0  0  0  0  0
    1.7251    0.7209    6.5039 C   0  0  0  0  0  0  0  0  0  0  0  0
    3.6483    1.6698    8.7382 C   0  0  0  0  0  0  0  0  0  0  0  0
    1.0662    0.3814    7.3073 H   0  0  0  0  0  0  0  0  0  0  0  0
    1.2004    0.5987    5.5587 H   0  0  0  0  0  0  0  0  0  0  0  0
    2.6064    0.0759    6.4906 H   0  0  0  0  0  0  0  0  0  0  0  0
    4.2453    0.8990    8.2458 H   0  0  0  0  0  0  0  0  0  0  0  0
    2.8744    1.1635    9.3185 H   0  0  0  0  0  0  0  0  0  0  0  0
    4.2849    2.2088    9.4363 H   0  0  0  0  0  0  0  0  0  0  0  0
  1  6  1  0  0  0  0
  2  1  1  0  0  0  0
  3 12  1  0  0  0  0
  4 13  1  0  0  0  0
  4  3  1  0  0  0  0
  5 25  2  0  0  0  0
  5  4  1  0  0  0  0
  6  9  1  6  0  0  0
  6 26  1  0  0  0  0
  6  7  1  0  0  0  0
  7 10  1  1  0  0  0
  7  8  1  0  0  0  0
  8 27  2  0  0  0  0
  8 11  1  0  0  0  0
  9 15  1  0  0  0  0
 10 17  1  0  0  0  0
 11 21  1  0  0  0  0
 11 22  1  0  0  0  0
 14  5  1  0  0  0  0
 16  9  1  0  0  0  0
 18 10  1  0  0  0  0
 19 10  1  0  0  0  0
 20 11  1  0  0  0  0
 23  1  1  0  0  0  0
 24 29  1  0  0  0  0
 24  3  2  0  0  0  0
 25 24  1  0  0  0  0
 26 31  1  1  0  0  0
 26 27  1  0  0  0  0
 27 32  1  0  0  0  0
 28  9  1  0  0  0  0
 30 25  1  0  0  0  0
 31 33  1  0  0  0  0
 32 37  1  0  0  0  0
 32 38  1  0  0  0  0
 34 31  1  0  0  0  0
 35 31  1  0  0  0  0
 36 32  1  0  0  0  0
M  END
$$$$
