CSD_code = DOFGAH | q = 0 | S = 0 | Stoichiometry = C14H20Cl2FeN2 | MND = 4
 OpenBabel04212202033D

 39 40  0  0  0  0  0  0  0  0999 V2000
    8.3703    8.6403    7.7182 Fe  0  0  0  0  0  0  0  0  0  0  0  0
    9.0355    7.3369    8.8185 N   0  0  0  0  0  0  0  0  0  0  0  0
   10.2217    6.8321    8.4787 C   0  0  0  0  0  0  0  0  0  0  0  0
   10.7693    7.5118    7.3830 C   0  0  0  0  0  0  0  0  0  0  0  0
   11.7490    7.3000    6.9743 H   0  0  0  0  0  0  0  0  0  0  0  0
   10.0083    8.4843    6.9171 N   0  0  0  0  0  0  0  0  0  0  0  0
   10.5410    9.3683    5.8977 C   0  0  0  0  0  0  0  0  0  0  0  0
   11.1787    8.7830    5.2192 H   0  0  0  0  0  0  0  0  0  0  0  0
    9.3984    9.9934    5.0990 C   0  0  0  0  0  0  0  0  0  0  0  0
    8.8082    9.2213    4.6115 H   0  0  0  0  0  0  0  0  0  0  0  0
    9.7967   10.6628    4.3414 H   0  0  0  0  0  0  0  0  0  0  0  0
    8.7495   10.5691    5.7617 H   0  0  0  0  0  0  0  0  0  0  0  0
   11.3861   10.4541    6.5725 C   0  0  0  0  0  0  0  0  0  0  0  0
   10.7704   11.0085    7.2764 H   0  0  0  0  0  0  0  0  0  0  0  0
   11.7818   11.1392    5.8276 H   0  0  0  0  0  0  0  0  0  0  0  0
   12.2141   10.0064    7.1172 H   0  0  0  0  0  0  0  0  0  0  0  0
    8.2905    6.8323    9.9551 C   0  0  0  0  0  0  0  0  0  0  0  0
    8.6790    5.8416   10.2280 H   0  0  0  0  0  0  0  0  0  0  0  0
    6.8114    6.7010    9.5826 C   0  0  0  0  0  0  0  0  0  0  0  0
    6.3982    7.6807    9.3300 H   0  0  0  0  0  0  0  0  0  0  0  0
    6.2522    6.2987   10.4230 H   0  0  0  0  0  0  0  0  0  0  0  0
    6.6907    6.0402    8.7280 H   0  0  0  0  0  0  0  0  0  0  0  0
    8.4408    7.7882   11.1440 C   0  0  0  0  0  0  0  0  0  0  0  0
    9.4879    7.9457   11.3879 H   0  0  0  0  0  0  0  0  0  0  0  0
    7.9315    7.3825   12.0141 H   0  0  0  0  0  0  0  0  0  0  0  0
    8.0096    8.7549   10.8969 H   0  0  0  0  0  0  0  0  0  0  0  0
   10.9135    5.6782    9.0789 C   0  0  0  0  0  0  0  0  0  0  0  0
   11.3283    4.6508    8.2305 C   0  0  0  0  0  0  0  0  0  0  0  0
   11.1033    4.7168    7.1764 H   0  0  0  0  0  0  0  0  0  0  0  0
   11.9986    3.5508    8.7308 C   0  0  0  0  0  0  0  0  0  0  0  0
   12.3066    2.7606    8.0621 H   0  0  0  0  0  0  0  0  0  0  0  0
   12.2731    3.4592   10.0856 C   0  0  0  0  0  0  0  0  0  0  0  0
   12.7961    2.5995   10.4769 H   0  0  0  0  0  0  0  0  0  0  0  0
   11.8787    4.4793   10.9339 C   0  0  0  0  0  0  0  0  0  0  0  0
   12.0996    4.4206   11.9895 H   0  0  0  0  0  0  0  0  0  0  0  0
   11.2062    5.5818   10.4371 C   0  0  0  0  0  0  0  0  0  0  0  0
   10.9310    6.3817   11.1061 H   0  0  0  0  0  0  0  0  0  0  0  0
    8.4307   10.3995    8.7760 Cl  0  0  0  0  0  0  0  0  0  0  0  0
    7.1014    7.7622    6.3847 Cl  0  0  0  0  0  0  0  0  0  0  0  0
  1 38  1  0  0  0  0
  1  2  1  0  0  0  0
  2 17  1  0  0  0  0
  3  2  1  0  0  0  0
  3 27  1  0  0  0  0
  4  3  2  0  0  0  0
  5  4  1  0  0  0  0
  6  4  1  0  0  0  0
  6  1  1  0  0  0  0
  7 13  1  0  0  0  0
  7  6  1  0  0  0  0
  8  7  1  0  0  0  0
  9 12  1  0  0  0  0
  9  7  1  0  0  0  0
 10  9  1  0  0  0  0
 11  9  1  0  0  0  0
 13 16  1  0  0  0  0
 13 14  1  0  0  0  0
 15 13  1  0  0  0  0
 17 18  1  0  0  0  0
 17 23  1  0  0  0  0
 19 17  1  0  0  0  0
 19 21  1  0  0  0  0
 20 19  1  0  0  0  0
 22 19  1  0  0  0  0
 23 24  1  0  0  0  0
 23 25  1  0  0  0  0
 26 23  1  0  0  0  0
 27 36  1  0  0  0  0
 28 30  1  0  0  0  0
 28 27  2  0  0  0  0
 29 28  1  0  0  0  0
 30 32  2  0  0  0  0
 31 30  1  0  0  0  0
 32 33  1  0  0  0  0
 32 34  1  0  0  0  0
 34 35  1  0  0  0  0
 36 34  2  0  0  0  0
 36 37  1  0  0  0  0
 39  1  1  0  0  0  0
M  END
$$$$
