CSD_code = DOFGUC | q = 0 | S = 0 | Stoichiometry = C20H33BBrF3N6PRh | MND = 6
 OpenBabel04212202033D

 66 70  0  0  1  0  0  0  0  0999 V2000
    1.3034   16.8008    7.7044 Rh  0  0  0  0  0  0  0  0  0  0  0  0
    0.0133   15.9265    9.5604 Br  0  0  0  0  0  0  0  0  0  0  0  0
   -0.3203   16.0856    6.2037 P   0  0  0  0  0  4  0  0  0  0  0  0
    2.3285   14.7838    7.5383 N   0  0  1  0  0  0  0  0  0  0  0  0
    3.6475   14.8812    7.2819 N   0  0  0  0  0  0  0  0  0  0  0  0
    2.9165   17.2730    8.9522 N   0  0  1  0  0  0  0  0  0  0  0  0
    4.1296   17.0291    8.4115 N   0  0  0  0  0  0  0  0  0  0  0  0
    2.4737   17.6079    6.1279 N   0  0  1  0  0  0  0  0  0  0  0  0
    3.6654   17.0063    5.9694 N   0  0  0  0  0  0  0  0  0  0  0  0
    4.3312   16.2329    7.1124 B   0  0  2  0  0  0  0  0  0  0  0  0
    5.4783   16.0957    6.8897 H   0  0  0  0  0  0  0  0  0  0  0  0
    2.0575   13.4911    7.7413 C   0  0  2  0  0  3  0  0  0  0  0  0
    3.2348   12.7517    7.5980 C   0  0  0  0  0  0  0  0  0  0  0  0
    3.3393   11.6908    7.7008 H   0  0  0  0  0  0  0  0  0  0  0  0
    4.2250   13.6669    7.3123 C   0  0  0  0  0  0  0  0  0  0  0  0
    3.1079   17.8378   10.1481 C   0  0  2  0  0  3  0  0  0  0  0  0
    4.4824   17.9674   10.3645 C   0  0  0  0  0  0  0  0  0  0  0  0
    4.9537   18.3846   11.2309 H   0  0  0  0  0  0  0  0  0  0  0  0
    5.0977   17.4451    9.2478 C   0  0  0  0  0  0  0  0  0  0  0  0
    2.2925   18.4276    5.0896 C   0  0  2  0  0  3  0  0  0  0  0  0
    3.3870   18.3137    4.2289 C   0  0  0  0  0  0  0  0  0  0  0  0
    3.5299   18.8367    3.3054 H   0  0  0  0  0  0  0  0  0  0  0  0
    4.2390   17.4039    4.8208 C   0  0  0  0  0  0  0  0  0  0  0  0
    0.7415   12.8775    8.0608 C   0  0  0  0  0  0  0  0  0  0  0  0
    0.2689   13.3808    8.8995 H   0  0  0  0  0  0  0  0  0  0  0  0
    0.9016   11.8347    8.3253 H   0  0  0  0  0  0  0  0  0  0  0  0
    0.0687   12.9108    7.2053 H   0  0  0  0  0  0  0  0  0  0  0  0
    5.6704   13.4155    7.0763 C   0  0  0  0  0  0  0  0  0  0  0  0
    5.9845   13.8113    6.1123 H   0  0  0  0  0  0  0  0  0  0  0  0
    5.8547   12.3445    7.0948 H   0  0  0  0  0  0  0  0  0  0  0  0
    6.2749   13.8868    7.8494 H   0  0  0  0  0  0  0  0  0  0  0  0
    2.0911   18.2705   11.1466 C   0  0  0  0  0  0  0  0  0  0  0  0
    1.1729   17.6973   11.0799 H   0  0  0  0  0  0  0  0  0  0  0  0
    1.8650   19.3315   11.0315 H   0  0  0  0  0  0  0  0  0  0  0  0
    2.5082   18.1321   12.1423 H   0  0  0  0  0  0  0  0  0  0  0  0
    6.5549   17.3439    8.9744 C   0  0  0  0  0  0  0  0  0  0  0  0
    6.8096   17.8357    8.0375 H   0  0  0  0  0  0  0  0  0  0  0  0
    6.8674   16.3032    8.9086 H   0  0  0  0  0  0  0  0  0  0  0  0
    7.1023   17.8212    9.7831 H   0  0  0  0  0  0  0  0  0  0  0  0
    1.1859   19.4002    4.8961 C   0  0  0  0  0  0  0  0  0  0  0  0
    0.3052   19.1340    5.4608 H   0  0  0  0  0  0  0  0  0  0  0  0
    0.9334   19.4676    3.8394 H   0  0  0  0  0  0  0  0  0  0  0  0
    1.5153   20.3897    5.2167 H   0  0  0  0  0  0  0  0  0  0  0  0
    5.5468   16.9068    4.3224 C   0  0  0  0  0  0  0  0  0  0  0  0
    5.5588   15.8189    4.2941 H   0  0  0  0  0  0  0  0  0  0  0  0
    6.3593   17.2373    4.9674 H   0  0  0  0  0  0  0  0  0  0  0  0
    5.7192   17.2899    3.3200 H   0  0  0  0  0  0  0  0  0  0  0  0
    0.5363   18.7107    8.1446 C   0  0  0  0  0  0  0  0  0  0  0  0
    0.7602   18.8696    9.2012 H   0  0  0  0  0  0  0  0  0  0  0  0
    1.0689   19.4873    7.5879 H   0  0  0  0  0  0  0  0  0  0  0  0
   -0.9320   19.0141    8.0228 C   0  0  0  0  0  0  0  0  0  0  0  0
   -1.2270   19.8232    6.9713 F   0  0  0  0  0  0  0  0  0  0  0  0
   -1.4150   19.6684    9.0984 F   0  0  0  0  0  0  0  0  0  0  0  0
   -1.7469   17.9518    7.8563 F   0  0  0  0  0  0  0  0  0  0  0  0
   -1.2215   17.1059    4.9619 C   0  0  0  0  0  0  0  0  0  0  0  0
   -1.9643   16.4635    4.4899 H   0  0  0  0  0  0  0  0  0  0  0  0
   -0.5333   17.4628    4.2011 H   0  0  0  0  0  0  0  0  0  0  0  0
   -1.7359   17.9486    5.4111 H   0  0  0  0  0  0  0  0  0  0  0  0
   -1.7432   15.0953    6.7982 C   0  0  0  0  0  0  0  0  0  0  0  0
   -2.1418   14.5089    5.9707 H   0  0  0  0  0  0  0  0  0  0  0  0
   -2.5054   15.7770    7.1675 H   0  0  0  0  0  0  0  0  0  0  0  0
   -1.4598   14.4432    7.6166 H   0  0  0  0  0  0  0  0  0  0  0  0
    0.4672   14.9524    4.9804 C   0  0  0  0  0  0  0  0  0  0  0  0
   -0.2804   14.5941    4.2738 H   0  0  0  0  0  0  0  0  0  0  0  0
    0.9378   14.1054    5.4687 H   0  0  0  0  0  0  0  0  0  0  0  0
    1.2341   15.5038    4.4372 H   0  0  0  0  0  0  0  0  0  0  0  0
  1 48  1  0  0  0  0
  1  6  1  0  0  0  0
  1  2  1  0  0  0  0
  3 59  1  0  0  0  0
  3  1  1  0  0  0  0
  4  5  1  1  0  0  0
  4  1  1  0  0  0  0
  4 12  1  0  0  0  0
  5 15  1  0  0  0  0
  6  7  1  6  0  0  0
  6 16  1  0  0  0  0
  7 19  1  0  0  0  0
  8  9  1  6  0  0  0
  8  1  1  0  0  0  0
  9 10  1  0  0  0  0
 10 11  1  6  0  0  0
 10  5  1  0  0  0  0
 10  7  1  0  0  0  0
 12 24  1  6  0  0  0
 13 14  1  0  0  0  0
 13 12  1  0  0  0  0
 15 13  2  0  0  0  0
 16 17  1  0  0  0  0
 16 32  1  1  0  0  0
 17 18  1  0  0  0  0
 19 17  2  0  0  0  0
 20 40  1  1  0  0  0
 20  8  1  0  0  0  0
 21 23  2  0  0  0  0
 21 20  1  0  0  0  0
 22 21  1  0  0  0  0
 23  9  1  0  0  0  0
 24 26  1  0  0  0  0
 24 25  1  0  0  0  0
 27 24  1  0  0  0  0
 28 30  1  0  0  0  0
 28 15  1  0  0  0  0
 28 31  1  0  0  0  0
 29 28  1  0  0  0  0
 32 35  1  0  0  0  0
 33 32  1  0  0  0  0
 34 32  1  0  0  0  0
 36 19  1  0  0  0  0
 36 39  1  0  0  0  0
 37 36  1  0  0  0  0
 38 36  1  0  0  0  0
 40 43  1  0  0  0  0
 40 41  1  0  0  0  0
 42 40  1  0  0  0  0
 44 23  1  0  0  0  0
 44 46  1  0  0  0  0
 45 44  1  0  0  0  0
 47 44  1  0  0  0  0
 48 49  1  0  0  0  0
 50 48  1  0  0  0  0
 51 48  1  0  0  0  0
 51 53  1  0  0  0  0
 52 51  1  0  0  0  0
 54 51  1  0  0  0  0
 55 58  1  0  0  0  0
 55  3  1  0  0  0  0
 56 55  1  0  0  0  0
 57 55  1  0  0  0  0
 59 61  1  0  0  0  0
 59 62  1  0  0  0  0
 60 59  1  0  0  0  0
 63 65  1  0  0  0  0
 63  3  1  0  0  0  0
 64 63  1  0  0  0  0
 66 63  1  0  0  0  0
M  END
$$$$
