CSD_code = DOFLOB | q = 0 | S = 0 | Stoichiometry = C11H21AuClN3 | MND = 2
 OpenBabel04212202033D

 37 37  0  0  0  0  0  0  0  0999 V2000
    0.4123    1.7545   17.1044 Au  0  0  0  0  0  0  0  0  0  0  0  0
    1.3467    3.1508   18.6139 Cl  0  0  0  0  0  0  0  0  0  0  0  0
   -0.3973    0.5067   15.7449 C   0  0  0  0  0  0  0  0  0  0  0  0
   -1.6613    0.5311   15.1445 C   0  0  0  0  0  0  0  0  0  0  0  0
    0.2108   -0.5489   15.1572 N   0  0  0  0  0  0  0  0  0  0  0  0
    1.5575   -1.0679   15.3971 C   0  0  0  0  0  0  0  0  0  0  0  0
    1.6790   -1.4664   16.8681 C   0  0  0  0  0  0  0  0  0  0  0  0
    2.6609   -1.8931   17.0495 H   0  0  0  0  0  0  0  0  0  0  0  0
    0.9240   -2.2062   17.1262 H   0  0  0  0  0  0  0  0  0  0  0  0
    1.5532   -0.5987   17.5123 H   0  0  0  0  0  0  0  0  0  0  0  0
    1.7650   -2.2954   14.5099 C   0  0  0  0  0  0  0  0  0  0  0  0
    1.6669   -2.0340   13.4600 H   0  0  0  0  0  0  0  0  0  0  0  0
    1.0357   -3.0668   14.7417 H   0  0  0  0  0  0  0  0  0  0  0  0
    2.7609   -2.6941   14.6792 H   0  0  0  0  0  0  0  0  0  0  0  0
    2.5771    0.0117   15.0329 C   0  0  0  0  0  0  0  0  0  0  0  0
    3.5820   -0.3740   15.1763 H   0  0  0  0  0  0  0  0  0  0  0  0
    2.4488    0.8888   15.6639 H   0  0  0  0  0  0  0  0  0  0  0  0
    2.4627    0.3089   13.9925 H   0  0  0  0  0  0  0  0  0  0  0  0
   -0.5434   -1.1495   14.2751 N   0  0  0  0  0  2  0  0  0  0  0  0
   -1.6784   -0.4995   14.2603 N   0  0  0  0  0  0  0  0  0  0  0  0
   -2.6545   -0.9965   13.3275 C   0  0  0  0  0  0  0  0  0  0  0  0
   -2.2004   -1.8564   12.8367 H   0  0  0  0  0  0  0  0  0  0  0  0
   -2.8968   -0.2450   12.5782 H   0  0  0  0  0  0  0  0  0  0  0  0
   -3.5626   -1.3122   13.8365 H   0  0  0  0  0  0  0  0  0  0  0  0
   -2.7558    1.5246   15.4429 C   0  0  0  0  0  0  0  0  0  0  0  0
   -3.0561    1.4726   16.9483 C   0  0  0  0  0  0  0  0  0  0  0  0
   -3.3916    0.4786   17.2380 H   0  0  0  0  0  0  0  0  0  0  0  0
   -3.8377    2.1870   17.1927 H   0  0  0  0  0  0  0  0  0  0  0  0
   -2.1696    1.7199   17.5266 H   0  0  0  0  0  0  0  0  0  0  0  0
   -4.0729    1.2804   14.6994 C   0  0  0  0  0  0  0  0  0  0  0  0
   -4.5045    0.3154   14.9514 H   0  0  0  0  0  0  0  0  0  0  0  0
   -3.9564    1.3635   13.6228 H   0  0  0  0  0  0  0  0  0  0  0  0
   -4.7840    2.0436   15.0078 H   0  0  0  0  0  0  0  0  0  0  0  0
   -2.2440    2.9216   15.0613 C   0  0  0  0  0  0  0  0  0  0  0  0
   -3.0026    3.6668   15.2854 H   0  0  0  0  0  0  0  0  0  0  0  0
   -2.0140    2.9696   13.9984 H   0  0  0  0  0  0  0  0  0  0  0  0
   -1.3445    3.1646   15.6216 H   0  0  0  0  0  0  0  0  0  0  0  0
  1  2  1  0  0  0  0
  3  1  1  0  0  0  0
  4 25  1  0  0  0  0
  4  3  2  0  0  0  0
  5  6  1  0  0  0  0
  5  3  1  0  0  0  0
  6  7  1  0  0  0  0
  7  8  1  0  0  0  0
  7  9  1  0  0  0  0
  7 10  1  0  0  0  0
 11 14  1  0  0  0  0
 11 13  1  0  0  0  0
 11  6  1  0  0  0  0
 12 11  1  0  0  0  0
 15 16  1  0  0  0  0
 15  6  1  0  0  0  0
 15 17  1  0  0  0  0
 18 15  1  0  0  0  0
 19  5  1  0  0  0  0
 20 19  1  0  0  0  0
 20  4  1  0  0  0  0
 21 24  1  0  0  0  0
 21 20  1  0  0  0  0
 22 21  1  0  0  0  0
 23 21  1  0  0  0  0
 25 26  1  0  0  0  0
 26 28  1  0  0  0  0
 26 27  1  0  0  0  0
 26 29  1  0  0  0  0
 30 31  1  0  0  0  0
 30 33  1  0  0  0  0
 30 25  1  0  0  0  0
 32 30  1  0  0  0  0
 34 35  1  0  0  0  0
 34 25  1  0  0  0  0
 34 37  1  0  0  0  0
 36 34  1  0  0  0  0
M  END
$$$$
