CSD_code = DOFLIV | q = 0 | S = 0 | Stoichiometry = C19H21AuClN3O4 | MND = 2
 OpenBabel04212202033D

 49 51  0  0  0  0  0  0  0  0999 V2000
    0.8869    4.4644    4.0318 Au  0  0  0  0  0  0  0  0  0  0  0  0
   -0.6714    5.8251    3.1265 Cl  0  0  0  0  0  0  0  0  0  0  0  0
    2.1384    3.1263    4.8338 C   0  0  0  0  0  0  0  0  0  0  0  0
    3.5257    3.1778    4.9616 C   0  0  0  0  0  0  0  0  0  0  0  0
    4.4472    4.1910    4.4724 C   0  0  0  0  0  0  0  0  0  0  0  0
    4.2936    4.6948    3.1782 C   0  0  0  0  0  0  0  0  0  0  0  0
    3.4999    4.3157    2.5541 H   0  0  0  0  0  0  0  0  0  0  0  0
    5.1465    5.6595    2.6984 C   0  0  0  0  0  0  0  0  0  0  0  0
    5.0363    6.0518    1.7005 H   0  0  0  0  0  0  0  0  0  0  0  0
    6.1764    6.1639    3.4991 C   0  0  0  0  0  0  0  0  0  0  0  0
    6.9613    7.1091    2.9285 O   0  0  0  0  0  0  0  0  0  0  0  0
    7.9945    7.6869    3.6903 C   0  0  0  0  0  0  0  0  0  0  0  0
    7.6034    8.1949    4.5773 H   0  0  0  0  0  0  0  0  0  0  0  0
    8.4675    8.4180    3.0370 H   0  0  0  0  0  0  0  0  0  0  0  0
    8.7362    6.9407    3.9937 H   0  0  0  0  0  0  0  0  0  0  0  0
    6.3245    5.6763    4.7941 C   0  0  0  0  0  0  0  0  0  0  0  0
    7.0963    6.0534    5.4463 H   0  0  0  0  0  0  0  0  0  0  0  0
    5.4678    4.6995    5.2687 C   0  0  0  0  0  0  0  0  0  0  0  0
    5.5816    4.3615    6.2882 H   0  0  0  0  0  0  0  0  0  0  0  0
    1.8176    1.9672    5.4689 N   0  0  0  0  0  0  0  0  0  0  0  0
    0.5380    1.4271    5.6804 C   0  0  0  0  0  0  0  0  0  0  0  0
   -0.4863    1.6558    4.7789 C   0  0  0  0  0  0  0  0  0  0  0  0
   -0.2847    2.2164    3.8836 H   0  0  0  0  0  0  0  0  0  0  0  0
   -1.7679    1.1718    5.0193 C   0  0  0  0  0  0  0  0  0  0  0  0
   -2.8014    1.4084    4.1660 O   0  0  0  0  0  0  0  0  0  0  0  0
   -2.6195    2.3345    3.1118 C   0  0  0  0  0  0  0  0  0  0  0  0
   -2.2579    3.3020    3.4693 H   0  0  0  0  0  0  0  0  0  0  0  0
   -3.6065    2.4605    2.6702 H   0  0  0  0  0  0  0  0  0  0  0  0
   -1.9348    1.9465    2.3521 H   0  0  0  0  0  0  0  0  0  0  0  0
   -2.0087    0.4004    6.1698 C   0  0  0  0  0  0  0  0  0  0  0  0
   -3.1798   -0.1648    6.5525 O   0  0  0  0  0  0  0  0  0  0  0  0
   -4.4046    0.2178    5.9644 C   0  0  0  0  0  0  0  0  0  0  0  0
   -4.5566    1.2977    6.0165 H   0  0  0  0  0  0  0  0  0  0  0  0
   -5.1680   -0.2861    6.5569 H   0  0  0  0  0  0  0  0  0  0  0  0
   -4.4744   -0.1065    4.9247 H   0  0  0  0  0  0  0  0  0  0  0  0
   -0.9354    0.1301    7.0496 C   0  0  0  0  0  0  0  0  0  0  0  0
   -1.2615   -0.6388    8.1206 O   0  0  0  0  0  0  0  0  0  0  0  0
   -0.2547   -0.9511    9.0513 C   0  0  0  0  0  0  0  0  0  0  0  0
    0.5658   -1.5076    8.5865 H   0  0  0  0  0  0  0  0  0  0  0  0
   -0.7353   -1.5773    9.8010 H   0  0  0  0  0  0  0  0  0  0  0  0
    0.1427   -0.0518    9.5334 H   0  0  0  0  0  0  0  0  0  0  0  0
    0.3255    0.6482    6.8126 C   0  0  0  0  0  0  0  0  0  0  0  0
    1.1462    0.4760    7.4872 H   0  0  0  0  0  0  0  0  0  0  0  0
    2.8624    1.3332    5.9603 N   0  0  0  0  0  2  0  0  0  0  0  0
    3.8992    2.0700    5.6524 N   0  0  0  0  0  0  0  0  0  0  0  0
    5.2128    1.6236    6.0127 C   0  0  0  0  0  0  0  0  0  0  0  0
    5.4801    1.9763    7.0107 H   0  0  0  0  0  0  0  0  0  0  0  0
    5.9348    2.0010    5.2902 H   0  0  0  0  0  0  0  0  0  0  0  0
    5.2151    0.5346    6.0165 H   0  0  0  0  0  0  0  0  0  0  0  0
  1  3  1  0  0  0  0
  2  1  1  0  0  0  0
  3  4  2  0  0  0  0
  3 20  1  0  0  0  0
  4 45  1  0  0  0  0
  5  4  1  0  0  0  0
  5 18  1  0  0  0  0
  6  5  2  0  0  0  0
  7  6  1  0  0  0  0
  8  6  1  0  0  0  0
  8 10  2  0  0  0  0
  9  8  1  0  0  0  0
 10 16  1  0  0  0  0
 11 10  1  0  0  0  0
 11 12  1  0  0  0  0
 12 15  1  0  0  0  0
 12 13  1  0  0  0  0
 14 12  1  0  0  0  0
 16 18  2  0  0  0  0
 16 17  1  0  0  0  0
 18 19  1  0  0  0  0
 20 21  1  0  0  0  0
 20 44  1  0  0  0  0
 21 42  1  0  0  0  0
 22 24  1  0  0  0  0
 22 21  2  0  0  0  0
 23 22  1  0  0  0  0
 24 30  2  0  0  0  0
 25 24  1  0  0  0  0
 26 27  1  0  0  0  0
 26 25  1  0  0  0  0
 28 26  1  0  0  0  0
 29 26  1  0  0  0  0
 30 31  1  0  0  0  0
 30 36  1  0  0  0  0
 32 33  1  0  0  0  0
 32 31  1  0  0  0  0
 32 34  1  0  0  0  0
 35 32  1  0  0  0  0
 36 37  1  0  0  0  0
 37 38  1  0  0  0  0
 38 41  1  0  0  0  0
 38 40  1  0  0  0  0
 39 38  1  0  0  0  0
 42 36  2  0  0  0  0
 42 43  1  0  0  0  0
 45 44  1  0  0  0  0
 45 46  1  0  0  0  0
 46 49  1  0  0  0  0
 46 47  1  0  0  0  0
 48 46  1  0  0  0  0
M  END
$$$$
