CSD_code = DOFYIG | q = 0 | S = 0 | Stoichiometry = C24H27Cl2NNiP2 | MND = 5
 OpenBabel04212202033D

 57 61  0  0  0  0  0  0  0  0999 V2000
    1.8667    2.8461    2.9506 Ni  0  0  0  0  0  0  0  0  0  0  0  0
    2.6021    3.0612    1.0045 P   0  0  1  0  0  4  0  0  0  0  0  0
   -0.0782    3.3699    2.3821 P   0  0  2  0  0  4  0  0  0  0  0  0
    1.3249    0.5554    2.4384 N   0  0  0  0  0  0  0  0  0  0  0  0
    3.4423    1.6347    0.1904 C   0  0  0  0  0  0  0  0  0  0  0  0
    3.2475    0.2994    0.9081 C   0  0  0  0  0  0  0  0  0  0  0  0
    1.7872   -0.0509    1.1923 C   0  0  0  0  0  0  0  0  0  0  0  0
   -0.0002    0.0874    2.8423 C   0  0  0  0  0  0  0  0  0  0  0  0
   -1.1413    0.7929    2.1050 C   0  0  0  0  0  0  0  0  0  0  0  0
   -1.4462    2.1804    2.6662 C   0  0  0  0  0  0  0  0  0  0  0  0
   -0.0830    3.5562    0.5493 C   0  0  0  0  0  0  0  0  0  0  0  0
    1.1487    3.3947   -0.0889 C   0  0  0  0  0  0  0  0  0  0  0  0
    1.2343    3.5345   -1.4678 C   0  0  0  0  0  0  0  0  0  0  0  0
    0.1019    3.8190   -2.2091 C   0  0  0  0  0  0  0  0  0  0  0  0
   -1.1220    3.9721   -1.5767 C   0  0  0  0  0  0  0  0  0  0  0  0
   -1.2145    3.8444   -0.2025 C   0  0  0  0  0  0  0  0  0  0  0  0
    3.9788    2.6146    3.2564 Cl  0  0  0  0  0  0  0  0  0  0  0  0
    0.9900    2.7776    4.8967 Cl  0  0  0  0  0  0  0  0  0  0  0  0
    3.6451    4.4894    0.5945 C   0  0  0  0  0  0  0  0  0  0  0  0
    4.4260    4.5708   -0.5526 C   0  0  0  0  0  0  0  0  0  0  0  0
    5.1638    5.7143   -0.8018 C   0  0  0  0  0  0  0  0  0  0  0  0
    5.1270    6.7790    0.0835 C   0  0  0  0  0  0  0  0  0  0  0  0
    4.3528    6.7007    1.2294 C   0  0  0  0  0  0  0  0  0  0  0  0
    3.6155    5.5598    1.4809 C   0  0  0  0  0  0  0  0  0  0  0  0
   -0.7201    4.9613    2.9817 C   0  0  0  0  0  0  0  0  0  0  0  0
    0.2018    5.7978    3.6030 C   0  0  0  0  0  0  0  0  0  0  0  0
   -0.1774    7.0403    4.0728 C   0  0  0  0  0  0  0  0  0  0  0  0
   -1.4895    7.4583    3.9247 C   0  0  0  0  0  0  0  0  0  0  0  0
   -2.4156    6.6277    3.3154 C   0  0  0  0  0  0  0  0  0  0  0  0
   -2.0376    5.3832    2.8440 C   0  0  0  0  0  0  0  0  0  0  0  0
    1.9795    0.2725    3.1744 H   0  0  0  0  0  0  0  0  0  0  0  0
    4.5104    1.8690    0.1795 H   0  0  0  0  0  0  0  0  0  0  0  0
    3.0721    1.5663   -0.8370 H   0  0  0  0  0  0  0  0  0  0  0  0
    3.7926    0.3293    1.8538 H   0  0  0  0  0  0  0  0  0  0  0  0
    3.6905   -0.4856    0.2901 H   0  0  0  0  0  0  0  0  0  0  0  0
    1.6832   -1.1486    1.2455 H   0  0  0  0  0  0  0  0  0  0  0  0
    1.1561    0.3043    0.3703 H   0  0  0  0  0  0  0  0  0  0  0  0
   -0.1087    0.2804    3.9120 H   0  0  0  0  0  0  0  0  0  0  0  0
   -0.0857   -0.9991    2.6728 H   0  0  0  0  0  0  0  0  0  0  0  0
   -2.0393    0.1770    2.1981 H   0  0  0  0  0  0  0  0  0  0  0  0
   -0.9024    0.8742    1.0415 H   0  0  0  0  0  0  0  0  0  0  0  0
   -1.5984    2.1348    3.7481 H   0  0  0  0  0  0  0  0  0  0  0  0
   -2.3508    2.5756    2.1956 H   0  0  0  0  0  0  0  0  0  0  0  0
    2.1881    3.4311   -1.9657 H   0  0  0  0  0  0  0  0  0  0  0  0
    0.1726    3.9261   -3.2817 H   0  0  0  0  0  0  0  0  0  0  0  0
   -2.0048    4.1962   -2.1573 H   0  0  0  0  0  0  0  0  0  0  0  0
   -2.1711    3.9759    0.2810 H   0  0  0  0  0  0  0  0  0  0  0  0
    4.4741    3.7445   -1.2472 H   0  0  0  0  0  0  0  0  0  0  0  0
    5.7752    5.7730   -1.6909 H   0  0  0  0  0  0  0  0  0  0  0  0
    5.7092    7.6663   -0.1169 H   0  0  0  0  0  0  0  0  0  0  0  0
    4.3306    7.5247    1.9271 H   0  0  0  0  0  0  0  0  0  0  0  0
    3.0259    5.4728    2.3870 H   0  0  0  0  0  0  0  0  0  0  0  0
    1.2180    5.4417    3.7472 H   0  0  0  0  0  0  0  0  0  0  0  0
    0.5442    7.6782    4.5610 H   0  0  0  0  0  0  0  0  0  0  0  0
   -1.7946    8.4266    4.2930 H   0  0  0  0  0  0  0  0  0  0  0  0
   -3.4419    6.9492    3.2114 H   0  0  0  0  0  0  0  0  0  0  0  0
   -2.7790    4.7459    2.3853 H   0  0  0  0  0  0  0  0  0  0  0  0
  1 17  1  0  0  0  0
  1 18  1  0  0  0  0
  2 19  1  6  0  0  0
  2  1  1  0  0  0  0
  3 10  1  0  0  0  0
  3  1  1  0  0  0  0
  3 25  1  1  0  0  0
  4  8  1  0  0  0  0
  4 31  1  0  0  0  0
  5  6  1  0  0  0  0
  5  2  1  0  0  0  0
  6  7  1  0  0  0  0
  6 34  1  0  0  0  0
  7 36  1  0  0  0  0
  7  4  1  0  0  0  0
  8 38  1  0  0  0  0
  9 40  1  0  0  0  0
  9 10  1  0  0  0  0
  9  8  1  0  0  0  0
 10 42  1  0  0  0  0
 11  3  1  0  0  0  0
 12 11  1  0  0  0  0
 12  2  1  0  0  0  0
 13 12  2  0  0  0  0
 14 15  2  0  0  0  0
 14 13  1  0  0  0  0
 15 16  1  0  0  0  0
 16 47  1  0  0  0  0
 16 11  2  0  0  0  0
 19 24  1  0  0  0  0
 20 19  2  0  0  0  0
 21 20  1  0  0  0  0
 21 22  2  0  0  0  0
 22 23  1  0  0  0  0
 23 24  2  0  0  0  0
 23 51  1  0  0  0  0
 24 52  1  0  0  0  0
 25 26  1  0  0  0  0
 26 53  1  0  0  0  0
 26 27  2  0  0  0  0
 27 54  1  0  0  0  0
 28 27  1  0  0  0  0
 28 55  1  0  0  0  0
 29 28  2  0  0  0  0
 30 25  2  0  0  0  0
 30 29  1  0  0  0  0
 32  5  1  0  0  0  0
 33  5  1  0  0  0  0
 35  6  1  0  0  0  0
 37  7  1  0  0  0  0
 39  8  1  0  0  0  0
 41  9  1  0  0  0  0
 43 10  1  0  0  0  0
 44 13  1  0  0  0  0
 45 14  1  0  0  0  0
 46 15  1  0  0  0  0
 48 20  1  0  0  0  0
 49 21  1  0  0  0  0
 50 22  1  0  0  0  0
 56 29  1  0  0  0  0
 57 30  1  0  0  0  0
M  END
$$$$
