CSD_code = DOFZAA | q = 0 | S = 0 | Stoichiometry = C11H33CoIP3 | MND = 6
 OpenBabel04212202033D

 49 48  0  0  0  0  0  0  0  0999 V2000
    2.3685    0.7710    9.6756 Co  0  0  0  0  0  0  0  0  0  0  0  0
    3.4203    2.5086   11.3690 I   0  0  0  0  0  0  0  0  0  0  0  0
    2.6399    2.4095    8.1763 P   0  0  0  0  0  4  0  0  0  0  0  0
    0.1873    1.3603   10.2589 P   0  0  0  0  0  4  0  0  0  0  0  0
    2.6517   -0.6850   11.3493 P   0  0  0  0  0  4  0  0  0  0  0  0
    1.4808   -0.5127    8.4312 C   0  0  0  0  0  0  0  0  0  0  0  0
    0.8530    0.0264    7.7204 H   0  0  0  0  0  0  0  0  0  0  0  0
    0.8364   -1.1929    8.9900 H   0  0  0  0  0  0  0  0  0  0  0  0
    2.1625   -1.1297    7.8478 H   0  0  0  0  0  0  0  0  0  0  0  0
    4.0823    0.0314    8.9470 C   0  0  0  0  0  0  0  0  0  0  0  0
    4.1764   -1.0439    9.1157 H   0  0  0  0  0  0  0  0  0  0  0  0
    4.9366    0.5212    9.4172 H   0  0  0  0  0  0  0  0  0  0  0  0
    4.1678    0.1694    7.8665 H   0  0  0  0  0  0  0  0  0  0  0  0
    2.0172    2.1548    6.4637 C   0  0  0  0  0  0  0  0  0  0  0  0
    2.3496    2.9716    5.8231 H   0  0  0  0  0  0  0  0  0  0  0  0
    0.9299    2.1086    6.4556 H   0  0  0  0  0  0  0  0  0  0  0  0
    2.4092    1.2137    6.0820 H   0  0  0  0  0  0  0  0  0  0  0  0
    1.9752    4.0929    8.5238 C   0  0  0  0  0  0  0  0  0  0  0  0
    2.6699    4.6046    9.1880 H   0  0  0  0  0  0  0  0  0  0  0  0
    1.0054    4.0535    9.0134 H   0  0  0  0  0  0  0  0  0  0  0  0
    1.8867    4.6475    7.5893 H   0  0  0  0  0  0  0  0  0  0  0  0
    4.3506    2.9282    7.7666 C   0  0  0  0  0  0  0  0  0  0  0  0
    4.8612    2.1569    7.1951 H   0  0  0  0  0  0  0  0  0  0  0  0
    4.9050    3.1215    8.6828 H   0  0  0  0  0  0  0  0  0  0  0  0
    4.3016    3.8439    7.1763 H   0  0  0  0  0  0  0  0  0  0  0  0
   -0.1546    2.6565   11.5163 C   0  0  0  0  0  0  0  0  0  0  0  0
    0.2995    3.5966   11.2071 H   0  0  0  0  0  0  0  0  0  0  0  0
    0.2975    2.3757   12.4662 H   0  0  0  0  0  0  0  0  0  0  0  0
   -1.2288    2.7907   11.6446 H   0  0  0  0  0  0  0  0  0  0  0  0
   -0.9489    1.9318    8.9233 C   0  0  0  0  0  0  0  0  0  0  0  0
   -1.9120    2.2022    9.3571 H   0  0  0  0  0  0  0  0  0  0  0  0
   -1.0955    1.1187    8.2143 H   0  0  0  0  0  0  0  0  0  0  0  0
   -0.5440    2.7882    8.3903 H   0  0  0  0  0  0  0  0  0  0  0  0
   -0.9382    0.0362   10.8772 C   0  0  0  0  0  0  0  0  0  0  0  0
   -0.5120   -0.4902   11.7274 H   0  0  0  0  0  0  0  0  0  0  0  0
   -1.1103   -0.6806   10.0760 H   0  0  0  0  0  0  0  0  0  0  0  0
   -1.8916    0.4767   11.1698 H   0  0  0  0  0  0  0  0  0  0  0  0
    4.3650   -1.0767   11.8732 C   0  0  0  0  0  0  0  0  0  0  0  0
    4.3197   -1.6443   12.8034 H   0  0  0  0  0  0  0  0  0  0  0  0
    4.9174   -0.1545   12.0424 H   0  0  0  0  0  0  0  0  0  0  0  0
    4.8754   -1.6659   11.1151 H   0  0  0  0  0  0  0  0  0  0  0  0
    2.0353   -2.4058   11.1377 C   0  0  0  0  0  0  0  0  0  0  0  0
    2.4255   -2.8072   10.2041 H   0  0  0  0  0  0  0  0  0  0  0  0
    0.9480   -2.4205   11.0957 H   0  0  0  0  0  0  0  0  0  0  0  0
    2.3742   -3.0258   11.9678 H   0  0  0  0  0  0  0  0  0  0  0  0
    1.9910   -0.2964   13.0254 C   0  0  0  0  0  0  0  0  0  0  0  0
    1.0274    0.2045   12.9760 H   0  0  0  0  0  0  0  0  0  0  0  0
    2.6936    0.3700   13.5234 H   0  0  0  0  0  0  0  0  0  0  0  0
    1.8913   -1.2181   13.5992 H   0  0  0  0  0  0  0  0  0  0  0  0
  1  4  1  0  0  0  0
  1  5  1  0  0  0  0
  1  2  1  0  0  0  0
  3 18  1  0  0  0  0
  3  1  1  0  0  0  0
  4 34  1  0  0  0  0
  4 26  1  0  0  0  0
  5 38  1  0  0  0  0
  5 46  1  0  0  0  0
  6  8  1  0  0  0  0
  6  1  1  0  0  0  0
  7  6  1  0  0  0  0
  9  6  1  0  0  0  0
 10 11  1  0  0  0  0
 10 12  1  0  0  0  0
 10  1  1  0  0  0  0
 13 10  1  0  0  0  0
 14  3  1  0  0  0  0
 15 14  1  0  0  0  0
 16 14  1  0  0  0  0
 17 14  1  0  0  0  0
 18 20  1  0  0  0  0
 18 19  1  0  0  0  0
 21 18  1  0  0  0  0
 22  3  1  0  0  0  0
 22 24  1  0  0  0  0
 23 22  1  0  0  0  0
 25 22  1  0  0  0  0
 26 29  1  0  0  0  0
 26 28  1  0  0  0  0
 27 26  1  0  0  0  0
 30 31  1  0  0  0  0
 30  4  1  0  0  0  0
 32 30  1  0  0  0  0
 33 30  1  0  0  0  0
 34 37  1  0  0  0  0
 34 35  1  0  0  0  0
 36 34  1  0  0  0  0
 38 40  1  0  0  0  0
 38 39  1  0  0  0  0
 41 38  1  0  0  0  0
 42  5  1  0  0  0  0
 42 45  1  0  0  0  0
 43 42  1  0  0  0  0
 44 42  1  0  0  0  0
 46 48  1  0  0  0  0
 46 49  1  0  0  0  0
 47 46  1  0  0  0  0
M  END
$$$$
