CSD_code = DOFZEE | q = 0 | S = 0 | Stoichiometry = C7H21ClNiP2 | MND = 4
 OpenBabel04212202033D

 32 31  0  0  0  0  0  0  0  0999 V2000
    3.0949    2.4463    6.2780 Ni  0  0  0  0  0  0  0  0  0  0  0  0
    3.6701    4.1297    5.0390 P   0  0  0  0  0  4  0  0  0  0  0  0
    2.9477    0.6821    7.5314 P   0  0  0  0  0  4  0  0  0  0  0  0
    4.9811    2.7411    7.2328 Cl  0  0  0  0  0  0  0  0  0  0  0  0
    1.3565    2.1914    5.4415 C   0  0  0  0  0  0  0  0  0  0  0  0
    0.9439    3.1079    5.0124 H   0  0  0  0  0  0  0  0  0  0  0  0
    0.6186    1.7938    6.1443 H   0  0  0  0  0  0  0  0  0  0  0  0
    1.4870    1.4619    4.6309 H   0  0  0  0  0  0  0  0  0  0  0  0
    2.6339    4.8131    3.6791 C   0  0  0  0  0  0  0  0  0  0  0  0
    1.7163    5.2323    4.0858 H   0  0  0  0  0  0  0  0  0  0  0  0
    2.3765    4.0210    2.9794 H   0  0  0  0  0  0  0  0  0  0  0  0
    3.1795    5.5947    3.1529 H   0  0  0  0  0  0  0  0  0  0  0  0
    4.0523    5.6712    5.9513 C   0  0  0  0  0  0  0  0  0  0  0  0
    4.4181    6.4296    5.2601 H   0  0  0  0  0  0  0  0  0  0  0  0
    4.8063    5.4613    6.7067 H   0  0  0  0  0  0  0  0  0  0  0  0
    3.1507    6.0312    6.4441 H   0  0  0  0  0  0  0  0  0  0  0  0
    5.2345    3.8510    4.1252 C   0  0  0  0  0  0  0  0  0  0  0  0
    5.5141    4.7546    3.5851 H   0  0  0  0  0  0  0  0  0  0  0  0
    5.0986    3.0325    3.4202 H   0  0  0  0  0  0  0  0  0  0  0  0
    6.0179    3.5821    4.8301 H   0  0  0  0  0  0  0  0  0  0  0  0
    3.1133    0.9734    9.3320 C   0  0  0  0  0  0  0  0  0  0  0  0
    3.1200    0.0213    9.8614 H   0  0  0  0  0  0  0  0  0  0  0  0
    2.2763    1.5773    9.6784 H   0  0  0  0  0  0  0  0  0  0  0  0
    4.0387    1.5122    9.5232 H   0  0  0  0  0  0  0  0  0  0  0  0
    1.5082   -0.4658    7.5264 C   0  0  0  0  0  0  0  0  0  0  0  0
    1.7112   -1.3202    8.1699 H   0  0  0  0  0  0  0  0  0  0  0  0
    1.3190   -0.8148    6.5138 H   0  0  0  0  0  0  0  0  0  0  0  0
    0.6216    0.0498    7.8890 H   0  0  0  0  0  0  0  0  0  0  0  0
    4.3026   -0.5154    7.2317 C   0  0  0  0  0  0  0  0  0  0  0  0
    5.2587   -0.0117    7.3549 H   0  0  0  0  0  0  0  0  0  0  0  0
    4.2314   -0.8919    6.2126 H   0  0  0  0  0  0  0  0  0  0  0  0
    4.2265   -1.3453    7.9330 H   0  0  0  0  0  0  0  0  0  0  0  0
  1  4  1  0  0  0  0
  1  3  1  0  0  0  0
  2 13  1  0  0  0  0
  2  1  1  0  0  0  0
  3 21  1  0  0  0  0
  5  7  1  0  0  0  0
  5  1  1  0  0  0  0
  6  5  1  0  0  0  0
  8  5  1  0  0  0  0
  9 10  1  0  0  0  0
  9  2  1  0  0  0  0
 11  9  1  0  0  0  0
 12  9  1  0  0  0  0
 13 16  1  0  0  0  0
 13 15  1  0  0  0  0
 14 13  1  0  0  0  0
 17 20  1  0  0  0  0
 17  2  1  0  0  0  0
 18 17  1  0  0  0  0
 19 17  1  0  0  0  0
 21 24  1  0  0  0  0
 21 23  1  0  0  0  0
 21 22  1  0  0  0  0
 25  3  1  0  0  0  0
 25 28  1  0  0  0  0
 25 26  1  0  0  0  0
 27 25  1  0  0  0  0
 29 30  1  0  0  0  0
 29  3  1  0  0  0  0
 29 32  1  0  0  0  0
 31 29  1  0  0  0  0
M  END
$$$$
