CSD_code = DOGZII | q = 0 | S = 0 | Stoichiometry = C5H14Cl4N2Pt | MND = 6
 OpenBabel04212202033D

 26 26  0  0  0  0  0  0  0  0999 V2000
    0.1779    2.2921    3.5221 Pt  0  0  0  0  0  0  0  0  0  0  0  0
   -2.1093    2.2923    4.1676 Cl  0  0  0  0  0  0  0  0  0  0  0  0
   -0.1537    0.6080    1.9929 Cl  0  0  0  0  0  0  0  0  0  0  0  0
    2.4879    2.2923    3.0645 Cl  0  0  0  0  0  0  0  0  0  0  0  0
    0.4558    0.7489    4.9689 N   0  0  0  0  0  4  0  0  0  0  0  0
    1.4277    1.0178    6.0273 C   0  0  0  0  0  0  0  0  0  0  0  0
    1.1362    2.2922    6.8455 C   0  0  0  0  0  0  0  0  0  0  0  0
   -0.3002    2.2922    7.3751 C   0  0  0  0  0  0  0  0  0  0  0  0
    2.1108    2.2922    8.0306 C   0  0  0  0  0  0  0  0  0  0  0  0
    0.7405   -0.0650    4.4196 H   0  0  0  0  0  0  0  0  0  0  0  0
   -0.4739    0.5640    5.3518 H   0  0  0  0  0  0  0  0  0  0  0  0
    1.4582    0.1674    6.7194 H   0  0  0  0  0  0  0  0  0  0  0  0
    2.4089    1.1160    5.5554 H   0  0  0  0  0  0  0  0  0  0  0  0
   -1.0383    2.2922    6.5757 H   0  0  0  0  0  0  0  0  0  0  0  0
   -0.4673    1.4142    7.9947 H   0  0  0  0  0  0  0  0  0  0  0  0
    1.9584    3.1709    8.6512 H   0  0  0  0  0  0  0  0  0  0  0  0
    3.1401    2.2922    7.6821 H   0  0  0  0  0  0  0  0  0  0  0  0
   -0.1536    3.9763    1.9930 Cl  0  0  0  0  0  0  0  0  0  0  0  0
    0.4558    3.8354    4.9689 N   0  0  0  0  0  4  0  0  0  0  0  0
    1.4277    3.5665    6.0272 C   0  0  0  0  0  0  0  0  0  0  0  0
   -0.4673    3.1701    7.9947 H   0  0  0  0  0  0  0  0  0  0  0  0
    1.9584    1.4134    8.6512 H   0  0  0  0  0  0  0  0  0  0  0  0
    0.7405    4.6493    4.4196 H   0  0  0  0  0  0  0  0  0  0  0  0
   -0.4739    4.0203    5.3518 H   0  0  0  0  0  0  0  0  0  0  0  0
    1.4582    4.4169    6.7194 H   0  0  0  0  0  0  0  0  0  0  0  0
    2.4089    3.4683    5.5554 H   0  0  0  0  0  0  0  0  0  0  0  0
  1  2  1  0  0  0  0
  1 19  1  0  0  0  0
  1  5  1  0  0  0  0
  3  1  1  0  0  0  0
  4  1  1  0  0  0  0
  5 11  1  0  0  0  0
  5  6  1  0  0  0  0
  6 12  1  0  0  0  0
  6  7  1  0  0  0  0
  7  8  1  0  0  0  0
  7  9  1  0  0  0  0
  8 21  1  0  0  0  0
  8 15  1  0  0  0  0
  9 16  1  0  0  0  0
  9 22  1  0  0  0  0
 10  5  1  0  0  0  0
 13  6  1  0  0  0  0
 14  8  1  0  0  0  0
 17  9  1  0  0  0  0
 18  1  1  0  0  0  0
 19 24  1  0  0  0  0
 19 20  1  0  0  0  0
 20 25  1  0  0  0  0
 20  7  1  0  0  0  0
 23 19  1  0  0  0  0
 26 20  1  0  0  0  0
M  END
$$$$
