CSD_code = DOHFEN | q = 0 | S = 0 | Stoichiometry = C18H24I2N2Ni | MND = 4
 OpenBabel04212202033D

 47 49  0  0  0  0  0  0  0  0999 V2000
    0.2009    3.1332    0.8682 Ni  0  0  0  0  0  0  0  0  0  0  0  0
   -1.1096    2.8661   -1.1597 I   0  0  0  0  0  0  0  0  0  0  0  0
   -0.0564    2.9074    3.2737 I   0  0  0  0  0  0  0  0  0  0  0  0
    1.6274    2.1528    0.5374 N   0  0  0  0  0  0  0  0  0  0  0  0
    1.5324    0.8243    0.5749 C   0  0  0  0  0  3  0  0  0  0  0  0
    0.5577    0.4089    0.8147 H   0  0  0  0  0  0  0  0  0  0  0  0
    2.6047   -0.0006    0.3266 C   0  0  0  0  0  0  0  0  0  0  0  0
    2.4565   -1.0662    0.3780 H   0  0  0  0  0  0  0  0  0  0  0  0
    3.8517    0.5483    0.0158 C   0  0  0  0  0  0  0  0  0  0  0  0
    3.9251    1.9327   -0.0183 C   0  0  0  0  0  0  0  0  0  0  0  0
    4.8544    2.4210   -0.2513 H   0  0  0  0  0  0  0  0  0  0  0  0
    2.8101    2.7243    0.2464 C   0  0  0  0  0  0  0  0  0  0  0  0
    5.0366   -0.3566   -0.2534 C   0  0  0  0  0  0  0  0  0  0  0  0
    4.6924   -1.2883   -1.4241 C   0  0  0  0  0  0  0  0  0  0  0  0
    4.4524   -0.7086   -2.3130 H   0  0  0  0  0  0  0  0  0  0  0  0
    3.8443   -1.9258   -1.1924 H   0  0  0  0  0  0  0  0  0  0  0  0
    5.5436   -1.9261   -1.6488 H   0  0  0  0  0  0  0  0  0  0  0  0
    5.3122   -1.1831    1.0112 C   0  0  0  0  0  0  0  0  0  0  0  0
    5.5309   -0.5287    1.8524 H   0  0  0  0  0  0  0  0  0  0  0  0
    6.1692   -1.8317    0.8477 H   0  0  0  0  0  0  0  0  0  0  0  0
    4.4609   -1.8043    1.2743 H   0  0  0  0  0  0  0  0  0  0  0  0
    6.3029    0.4253   -0.6112 C   0  0  0  0  0  0  0  0  0  0  0  0
    6.6088    1.0757    0.2054 H   0  0  0  0  0  0  0  0  0  0  0  0
    6.1574    1.0179   -1.5117 H   0  0  0  0  0  0  0  0  0  0  0  0
    7.1143   -0.2734   -0.8000 H   0  0  0  0  0  0  0  0  0  0  0  0
    1.6546    4.7697    0.5163 N   0  0  0  0  0  0  0  0  0  0  0  0
    1.5839    6.0907    0.5427 C   0  0  0  0  0  3  0  0  0  0  0  0
    0.6140    6.5136    0.7723 H   0  0  0  0  0  0  0  0  0  0  0  0
    2.6711    6.9071    0.2969 C   0  0  0  0  0  0  0  0  0  0  0  0
    2.5403    7.9757    0.3408 H   0  0  0  0  0  0  0  0  0  0  0  0
    3.9104    6.3407   -0.0006 C   0  0  0  0  0  0  0  0  0  0  0  0
    3.9723    4.9527   -0.0266 C   0  0  0  0  0  0  0  0  0  0  0  0
    4.8999    4.4560   -0.2485 H   0  0  0  0  0  0  0  0  0  0  0  0
    2.8354    4.1942    0.2371 C   0  0  0  0  0  0  0  0  0  0  0  0
    5.1099    7.2293   -0.2653 C   0  0  0  0  0  0  0  0  0  0  0  0
    4.7855    8.1667   -1.4371 C   0  0  0  0  0  0  0  0  0  0  0  0
    4.5448    7.5910   -2.3285 H   0  0  0  0  0  0  0  0  0  0  0  0
    3.9434    8.8144   -1.2105 H   0  0  0  0  0  0  0  0  0  0  0  0
    5.6455    8.7951   -1.6554 H   0  0  0  0  0  0  0  0  0  0  0  0
    5.3923    8.0514    1.0006 C   0  0  0  0  0  0  0  0  0  0  0  0
    5.6011    7.3935    1.8418 H   0  0  0  0  0  0  0  0  0  0  0  0
    6.2570    8.6908    0.8407 H   0  0  0  0  0  0  0  0  0  0  0  0
    4.5470    8.6819    1.2621 H   0  0  0  0  0  0  0  0  0  0  0  0
    6.3677    6.4316   -0.6185 C   0  0  0  0  0  0  0  0  0  0  0  0
    6.6649    5.7797    0.2002 H   0  0  0  0  0  0  0  0  0  0  0  0
    6.2168    5.8377   -1.5176 H   0  0  0  0  0  0  0  0  0  0  0  0
    7.1878    7.1201   -0.8081 H   0  0  0  0  0  0  0  0  0  0  0  0
  1  3  1  0  0  0  0
  2  1  1  0  0  0  0
  4  5  1  0  0  0  0
  4  1  1  0  0  0  0
  5  6  1  0  0  0  0
  7  8  1  0  0  0  0
  7  5  1  0  0  0  0
  9  7  2  0  0  0  0
 10  9  1  0  0  0  0
 10 12  2  0  0  0  0
 11 10  1  0  0  0  0
 12  4  1  0  0  0  0
 13  9  1  0  0  0  0
 13 18  1  0  0  0  0
 14 16  1  0  0  0  0
 14 13  1  0  0  0  0
 15 14  1  0  0  0  0
 17 14  1  0  0  0  0
 18 21  1  0  0  0  0
 18 19  1  0  0  0  0
 20 18  1  0  0  0  0
 22 13  1  0  0  0  0
 22 23  1  0  0  0  0
 24 22  1  0  0  0  0
 25 22  1  0  0  0  0
 26 27  1  0  0  0  0
 26  1  1  0  0  0  0
 27 28  1  0  0  0  0
 29 30  1  0  0  0  0
 29 27  1  0  0  0  0
 31 29  2  0  0  0  0
 32 31  1  0  0  0  0
 32 34  2  0  0  0  0
 33 32  1  0  0  0  0
 34 12  1  0  0  0  0
 34 26  1  0  0  0  0
 35 31  1  0  0  0  0
 35 40  1  0  0  0  0
 36 38  1  0  0  0  0
 36 35  1  0  0  0  0
 37 36  1  0  0  0  0
 39 36  1  0  0  0  0
 40 43  1  0  0  0  0
 40 41  1  0  0  0  0
 42 40  1  0  0  0  0
 44 35  1  0  0  0  0
 44 45  1  0  0  0  0
 46 44  1  0  0  0  0
 47 44  1  0  0  0  0
M  END
$$$$
