CSD_code = DOHQOI | q = 0 | S = 0 | Stoichiometry = C18H23Br2CdN3 | MND = 5
 OpenBabel04212202033D

 47 50  0  0  0  0  0  0  0  0999 V2000
    4.7270    7.0348   13.8991 Cd  0  0  0  0  0  0  0  0  0  0  0  0
    5.9627    6.7973   16.1036 Br  0  0  0  0  0  0  0  0  0  0  0  0
    5.3149    6.7717   11.4890 Br  0  0  0  0  0  0  0  0  0  0  0  0
    2.7571    8.1720   14.7442 N   0  0  0  0  0  0  0  0  0  0  0  0
    3.1552    9.0783   15.5470 C   0  0  0  0  0  0  0  0  0  0  0  0
    2.5346    9.3733   16.8605 C   0  0  0  0  0  0  0  0  0  0  0  0
    3.0316    4.7402   15.6973 C   0  0  0  0  0  0  0  0  0  0  0  0
    3.0314    5.5659   16.4128 H   0  0  0  0  0  0  0  0  0  0  0  0
    4.0160    4.2729   15.7642 H   0  0  0  0  0  0  0  0  0  0  0  0
    1.6218    7.3430   15.0406 C   0  0  0  0  0  0  0  0  0  0  0  0
    0.7085    7.8920   14.7809 H   0  0  0  0  0  0  0  0  0  0  0  0
    1.5635    7.0991   16.1100 H   0  0  0  0  0  0  0  0  0  0  0  0
    1.6699    6.0817   14.1728 C   0  0  0  0  0  0  0  0  0  0  0  0
    0.7758    5.4743   14.3777 H   0  0  0  0  0  0  0  0  0  0  0  0
    1.6287    6.3998   13.1254 H   0  0  0  0  0  0  0  0  0  0  0  0
    2.9031    5.3106   14.3473 N   0  0  0  0  0  4  0  0  0  0  0  0
    1.2982   10.0042   16.9454 C   0  0  0  0  0  0  0  0  0  0  0  0
    0.7897   10.3108   16.0422 H   0  0  0  0  0  0  0  0  0  0  0  0
    1.3964    9.8702   19.3388 C   0  0  0  0  0  0  0  0  0  0  0  0
    0.9530   10.0657   20.3035 H   0  0  0  0  0  0  0  0  0  0  0  0
    0.7368   10.2582   18.1842 C   0  0  0  0  0  0  0  0  0  0  0  0
   -0.2183   10.7581   18.2466 H   0  0  0  0  0  0  0  0  0  0  0  0
    4.3349    9.8748   15.1585 C   0  0  0  0  0  0  0  0  0  0  0  0
    2.9935    4.2918   13.2896 C   0  0  0  0  0  0  0  0  0  0  0  0
    2.9472    4.8184   12.3305 H   0  0  0  0  0  0  0  0  0  0  0  0
    2.1335    3.6061   13.3334 H   0  0  0  0  0  0  0  0  0  0  0  0
    6.0973   10.1116   13.7117 C   0  0  0  0  0  0  0  0  0  0  0  0
    6.6239    9.7086   12.8534 H   0  0  0  0  0  0  0  0  0  0  0  0
    5.0333    9.4371   14.1071 N   0  0  0  0  0  0  0  0  0  0  0  0
    6.5324   11.2687   14.3453 C   0  0  0  0  0  0  0  0  0  0  0  0
    7.4118   11.7843   13.9943 H   0  0  0  0  0  0  0  0  0  0  0  0
    4.2895    3.4905   13.3303 C   0  0  0  0  0  0  0  0  0  0  0  0
    5.1509    4.1555   13.4334 H   0  0  0  0  0  0  0  0  0  0  0  0
    4.3977    2.9459   12.3955 H   0  0  0  0  0  0  0  0  0  0  0  0
    4.3008    2.7717   14.1461 H   0  0  0  0  0  0  0  0  0  0  0  0
    5.8160   11.7305   15.4370 C   0  0  0  0  0  0  0  0  0  0  0  0
    6.1238   12.6226   15.9617 H   0  0  0  0  0  0  0  0  0  0  0  0
    3.2001    8.9889   18.0217 C   0  0  0  0  0  0  0  0  0  0  0  0
    4.1558    8.4903   17.9497 H   0  0  0  0  0  0  0  0  0  0  0  0
    1.9710    3.7208   16.1164 C   0  0  0  0  0  0  0  0  0  0  0  0
    0.9746    4.1565   16.1360 H   0  0  0  0  0  0  0  0  0  0  0  0
    2.2040    3.3736   17.1196 H   0  0  0  0  0  0  0  0  0  0  0  0
    1.9626    2.8580   15.4554 H   0  0  0  0  0  0  0  0  0  0  0  0
    2.6239    9.2332   19.2555 C   0  0  0  0  0  0  0  0  0  0  0  0
    3.1393    8.9279   20.1532 H   0  0  0  0  0  0  0  0  0  0  0  0
    4.6960   11.0282   15.8514 C   0  0  0  0  0  0  0  0  0  0  0  0
    4.1123   11.3608   16.6957 H   0  0  0  0  0  0  0  0  0  0  0  0
  1 29  1  0  0  0  0
  1 16  1  0  0  0  0
  1  4  1  0  0  0  0
  1  2  1  0  0  0  0
  3  1  1  0  0  0  0
  4 10  1  0  0  0  0
  4  5  1  0  0  0  0
  5  6  1  0  0  0  0
  6 17  2  0  0  0  0
  6 38  1  0  0  0  0
  7  9  1  0  0  0  0
  7 40  1  0  0  0  0
  7  8  1  0  0  0  0
 10 12  1  0  0  0  0
 11 10  1  0  0  0  0
 13 16  1  0  0  0  0
 13 14  1  0  0  0  0
 13 10  1  0  0  0  0
 15 13  1  0  0  0  0
 16  7  1  0  0  0  0
 17 21  1  0  0  0  0
 18 17  1  0  0  0  0
 19 20  1  0  0  0  0
 21 22  1  0  0  0  0
 21 19  2  0  0  0  0
 23  5  2  0  0  0  0
 23 46  1  0  0  0  0
 24 32  1  0  0  0  0
 24 26  1  0  0  0  0
 24 16  1  0  0  0  0
 25 24  1  0  0  0  0
 27 29  1  0  0  0  0
 27 30  2  0  0  0  0
 28 27  1  0  0  0  0
 29 23  1  0  0  0  0
 30 36  1  0  0  0  0
 31 30  1  0  0  0  0
 32 33  1  0  0  0  0
 32 35  1  0  0  0  0
 34 32  1  0  0  0  0
 36 46  2  0  0  0  0
 36 37  1  0  0  0  0
 38 44  2  0  0  0  0
 39 38  1  0  0  0  0
 40 41  1  0  0  0  0
 40 42  1  0  0  0  0
 43 40  1  0  0  0  0
 44 19  1  0  0  0  0
 44 45  1  0  0  0  0
 46 47  1  0  0  0  0
M  END
$$$$
