CSD_code = DOJROK | q = 1 | S = 0 | Stoichiometry = C18H34ClN6OPtS(1+) | MND = 4
 OpenBabel04212202033D

 62 63  0  0  0  0  0  0  0  0999 V2000
    9.3877   11.2562    9.1386 Pt  0  0  0  0  0  0  0  0  0  0  0  0
    7.4721   12.3825    8.6148 Cl  0  0  0  0  0  0  0  0  0  0  0  0
    8.9631   10.1849    7.1929 S   0  0  0  0  0  0  0  0  0  0  0  0
    9.9478   12.4410   10.6875 N   0  0  0  0  0  0  0  0  0  0  0  0
    8.0292   13.3565   11.5711 N   0  0  0  0  0  0  0  0  0  0  0  0
    9.6919   14.7784   10.7517 N   0  0  0  0  0  0  0  0  0  0  0  0
   11.1629   10.3644    9.6091 N   0  0  0  0  0  0  0  0  0  0  0  0
   10.8857    8.1122    9.2914 N   0  0  0  0  0  0  0  0  0  0  0  0
   12.7051    9.2035    8.2863 N   0  0  0  0  0  0  0  0  0  0  0  0
   11.3282   12.3415   10.9167 C   0  0  0  0  0  0  0  0  0  0  0  0
   11.9785   11.2266   10.3436 C   0  0  0  0  0  0  0  0  0  0  0  0
   13.3022   10.9660   10.6857 C   0  0  0  0  0  0  0  0  0  0  0  0
   13.7880   10.0710   10.3315 H   0  0  0  0  0  0  0  0  0  0  0  0
   13.9909   11.8201   11.5301 C   0  0  0  0  0  0  0  0  0  0  0  0
   15.0195   11.6087   11.7757 H   0  0  0  0  0  0  0  0  0  0  0  0
   13.3552   12.9152   12.0847 C   0  0  0  0  0  0  0  0  0  0  0  0
   13.8838   13.5643   12.7643 H   0  0  0  0  0  0  0  0  0  0  0  0
   12.0222   13.1602   11.8010 C   0  0  0  0  0  0  0  0  0  0  0  0
   11.5106   13.9655   12.3049 H   0  0  0  0  0  0  0  0  0  0  0  0
    9.2299   13.5328   10.9943 C   0  0  0  0  0  3  0  0  0  0  0  0
    7.6757   12.0433   12.0665 C   0  0  0  0  0  0  0  0  0  0  0  0
    7.2914   11.4067   11.2610 H   0  0  0  0  0  0  0  0  0  0  0  0
    6.9057   12.1582   12.8272 H   0  0  0  0  0  0  0  0  0  0  0  0
    8.5520   11.5681   12.5045 H   0  0  0  0  0  0  0  0  0  0  0  0
    6.9026   14.2387   11.3489 C   0  0  0  0  0  0  0  0  0  0  0  0
    6.5602   14.6793   12.2869 H   0  0  0  0  0  0  0  0  0  0  0  0
    6.0861   13.6605   10.9137 H   0  0  0  0  0  0  0  0  0  0  0  0
    7.1634   15.0224   10.6456 H   0  0  0  0  0  0  0  0  0  0  0  0
    9.3955   15.9296   11.5750 C   0  0  0  0  0  0  0  0  0  0  0  0
    8.8523   15.6278   12.4655 H   0  0  0  0  0  0  0  0  0  0  0  0
    8.8145   16.6756   11.0285 H   0  0  0  0  0  0  0  0  0  0  0  0
   10.3365   16.3932   11.8821 H   0  0  0  0  0  0  0  0  0  0  0  0
   10.6589   15.0036    9.7031 C   0  0  0  0  0  0  0  0  0  0  0  0
   11.6814   15.0585   10.0879 H   0  0  0  0  0  0  0  0  0  0  0  0
   10.4162   15.9428    9.2052 H   0  0  0  0  0  0  0  0  0  0  0  0
   10.6002   14.1929    8.9746 H   0  0  0  0  0  0  0  0  0  0  0  0
   11.5925    9.2310    9.0429 C   0  0  0  0  0  3  0  0  0  0  0  0
   13.1455   10.3979    7.6041 C   0  0  0  0  0  0  0  0  0  0  0  0
   12.3235   11.1101    7.5455 H   0  0  0  0  0  0  0  0  0  0  0  0
   13.4491   10.1278    6.5923 H   0  0  0  0  0  0  0  0  0  0  0  0
   13.9872   10.8739    8.1148 H   0  0  0  0  0  0  0  0  0  0  0  0
   13.5685    8.0565    8.1218 C   0  0  0  0  0  0  0  0  0  0  0  0
   13.3390    7.2985    8.8643 H   0  0  0  0  0  0  0  0  0  0  0  0
   14.6023    8.3792    8.2673 H   0  0  0  0  0  0  0  0  0  0  0  0
   13.4864    7.6278    7.1208 H   0  0  0  0  0  0  0  0  0  0  0  0
   10.7879    6.9863    8.3868 C   0  0  0  0  0  0  0  0  0  0  0  0
   11.1890    7.2517    7.4147 H   0  0  0  0  0  0  0  0  0  0  0  0
    9.7360    6.7349    8.2490 H   0  0  0  0  0  0  0  0  0  0  0  0
   11.3021    6.1098    8.7866 H   0  0  0  0  0  0  0  0  0  0  0  0
    9.8944    8.1417   10.3471 C   0  0  0  0  0  0  0  0  0  0  0  0
   10.2737    8.7140   11.1927 H   0  0  0  0  0  0  0  0  0  0  0  0
    9.6976    7.1203   10.6676 H   0  0  0  0  0  0  0  0  0  0  0  0
    8.9539    8.6004   10.0126 H   0  0  0  0  0  0  0  0  0  0  0  0
   10.0013    9.2514    6.7738 O   0  0  0  0  0  1  0  0  0  0  0  0
    8.7521   11.3479    5.8162 C   0  0  0  0  0  0  0  0  0  0  0  0
    9.6419   11.9673    5.7547 H   0  0  0  0  0  0  0  0  0  0  0  0
    7.8781   11.9615    5.9982 H   0  0  0  0  0  0  0  0  0  0  0  0
    8.6479   10.7635    4.9092 H   0  0  0  0  0  0  0  0  0  0  0  0
    7.3675    9.3235    7.0723 C   0  0  0  0  0  0  0  0  0  0  0  0
    7.2600    8.9391    6.0649 H   0  0  0  0  0  0  0  0  0  0  0  0
    6.5861   10.0365    7.3089 H   0  0  0  0  0  0  0  0  0  0  0  0
    7.3590    8.5052    7.7846 H   0  0  0  0  0  0  0  0  0  0  0  0
  1  7  1  0  0  0  0
  1  4  1  0  0  0  0
  2  1  1  0  0  0  0
  3  1  1  0  0  0  0
  4 10  1  0  0  0  0
  4 20  1  0  0  0  0
  5 21  1  0  0  0  0
  6 20  1  0  0  0  0
  6 29  1  0  0  0  0
  7 11  1  0  0  0  0
  8 50  1  0  0  0  0
  9 37  1  0  0  0  0
 10 18  1  0  0  0  0
 11 12  1  0  0  0  0
 11 10  2  0  0  0  0
 12 14  2  0  0  0  0
 13 12  1  0  0  0  0
 14 15  1  0  0  0  0
 14 16  1  0  0  0  0
 16 17  1  0  0  0  0
 18 16  2  0  0  0  0
 18 19  1  0  0  0  0
 20  5  1  0  0  0  0
 21 24  1  0  0  0  0
 21 23  1  0  0  0  0
 22 21  1  0  0  0  0
 25  5  1  0  0  0  0
 25 26  1  0  0  0  0
 27 25  1  0  0  0  0
 28 25  1  0  0  0  0
 29 32  1  0  0  0  0
 29 30  1  0  0  0  0
 31 29  1  0  0  0  0
 33 34  1  0  0  0  0
 33  6  1  0  0  0  0
 35 33  1  0  0  0  0
 36 33  1  0  0  0  0
 37  8  1  0  0  0  0
 37  7  1  0  0  0  0
 38 41  1  0  0  0  0
 38  9  1  0  0  0  0
 39 38  1  0  0  0  0
 40 38  1  0  0  0  0
 42 44  1  0  0  0  0
 42  9  1  0  0  0  0
 42 43  1  0  0  0  0
 45 42  1  0  0  0  0
 46 49  1  0  0  0  0
 46  8  1  0  0  0  0
 47 46  1  0  0  0  0
 48 46  1  0  0  0  0
 50 52  1  0  0  0  0
 50 51  1  0  0  0  0
 53 50  1  0  0  0  0
 54  3  1  0  0  0  0
 55 57  1  0  0  0  0
 55  3  1  0  0  0  0
 56 55  1  0  0  0  0
 58 55  1  0  0  0  0
 59  3  1  0  0  0  0
 59 61  1  0  0  0  0
 59 62  1  0  0  0  0
 60 59  1  0  0  0  0
M  END
$$$$
