CSD_code = DOMHOC | q = 0 | S = 0 | Stoichiometry = C11H31ClIrO2P3 | MND = 6
 OpenBabel04212202033D

 49 48  0  0  0  0  0  0  0  0999 V2000
   10.3134    4.6549    4.3874 Ir  0  0  0  0  0  0  0  0  0  0  0  0
   11.9372    3.5647    2.8516 Cl  0  0  0  0  0  0  0  0  0  0  0  0
   10.7989    6.5578    3.1613 P   0  0  0  0  0  4  0  0  0  0  0  0
   12.0294    5.0458    6.0210 P   0  0  0  0  0  4  0  0  0  0  0  0
    9.8993    2.4856    5.0820 P   0  0  0  0  0  4  0  0  0  0  0  0
    9.4530    5.9559    6.7189 O   0  0  0  0  0  0  0  0  0  0  0  0
    6.9117    6.3948    6.4200 O   0  0  0  0  0  0  0  0  0  0  0  0
    9.0415    5.5370    5.6464 C   0  0  0  0  0  0  0  0  0  0  0  0
    7.5521    5.7343    5.3616 C   0  0  0  0  0  0  0  0  0  0  0  0
   10.2544    8.2111    3.7480 C   0  0  0  0  0  0  0  0  0  0  0  0
   12.5467    6.8689    2.7114 C   0  0  0  0  0  0  0  0  0  0  0  0
   10.0600    6.5237    1.4897 C   0  0  0  0  0  0  0  0  0  0  0  0
   13.7052    4.4553    5.5713 C   0  0  0  0  0  0  0  0  0  0  0  0
   11.8729    4.3140    7.6995 C   0  0  0  0  0  0  0  0  0  0  0  0
   12.4263    6.7646    6.5366 C   0  0  0  0  0  0  0  0  0  0  0  0
    8.9052    2.1631    6.5928 C   0  0  0  0  0  0  0  0  0  0  0  0
   11.3298    1.3673    5.3216 C   0  0  0  0  0  0  0  0  0  0  0  0
    8.9675    1.5186    3.8419 C   0  0  0  0  0  0  0  0  0  0  0  0
    9.1740    4.4336    3.3870 H   0  0  0  0  0  0  0  0  0  0  0  0
    7.6077    6.5494    7.0837 H   0  0  0  0  0  0  0  0  0  0  0  0
    7.0905    4.7523    5.1968 H   0  0  0  0  0  0  0  0  0  0  0  0
    7.4394    6.3121    4.4358 H   0  0  0  0  0  0  0  0  0  0  0  0
   10.5649    8.9838    3.0458 H   0  0  0  0  0  0  0  0  0  0  0  0
   10.6746    8.4181    4.7291 H   0  0  0  0  0  0  0  0  0  0  0  0
    9.1698    8.2121    3.8333 H   0  0  0  0  0  0  0  0  0  0  0  0
   12.6022    7.6908    1.9976 H   0  0  0  0  0  0  0  0  0  0  0  0
   12.9334    5.9571    2.2582 H   0  0  0  0  0  0  0  0  0  0  0  0
   13.1432    7.1082    3.5886 H   0  0  0  0  0  0  0  0  0  0  0  0
   10.3609    7.4004    0.9163 H   0  0  0  0  0  0  0  0  0  0  0  0
    8.9759    6.4852    1.5737 H   0  0  0  0  0  0  0  0  0  0  0  0
   10.4046    5.6183    0.9933 H   0  0  0  0  0  0  0  0  0  0  0  0
   14.4240    4.6698    6.3625 H   0  0  0  0  0  0  0  0  0  0  0  0
   14.0175    4.9350    4.6464 H   0  0  0  0  0  0  0  0  0  0  0  0
   13.6695    3.3848    5.3827 H   0  0  0  0  0  0  0  0  0  0  0  0
   12.7459    4.5762    8.2975 H   0  0  0  0  0  0  0  0  0  0  0  0
   11.7920    3.2307    7.6433 H   0  0  0  0  0  0  0  0  0  0  0  0
   10.9780    4.7152    8.1684 H   0  0  0  0  0  0  0  0  0  0  0  0
   13.2330    6.7509    7.2696 H   0  0  0  0  0  0  0  0  0  0  0  0
   11.5382    7.2049    6.9827 H   0  0  0  0  0  0  0  0  0  0  0  0
   12.7322    7.3637    5.6818 H   0  0  0  0  0  0  0  0  0  0  0  0
    8.8151    1.0914    6.7661 H   0  0  0  0  0  0  0  0  0  0  0  0
    7.9153    2.5938    6.4584 H   0  0  0  0  0  0  0  0  0  0  0  0
    9.3692    2.6353    7.4552 H   0  0  0  0  0  0  0  0  0  0  0  0
   10.9771    0.3474    5.4749 H   0  0  0  0  0  0  0  0  0  0  0  0
   11.9336    1.6747    6.1722 H   0  0  0  0  0  0  0  0  0  0  0  0
   11.9371    1.4178    4.4188 H   0  0  0  0  0  0  0  0  0  0  0  0
    8.8451    0.4863    4.1695 H   0  0  0  0  0  0  0  0  0  0  0  0
    9.5276    1.5491    2.9091 H   0  0  0  0  0  0  0  0  0  0  0  0
    7.9946    1.9783    3.6806 H   0  0  0  0  0  0  0  0  0  0  0  0
  1  5  1  0  0  0  0
  1  8  1  0  0  0  0
  1  4  1  0  0  0  0
  2  1  1  0  0  0  0
  3 10  1  0  0  0  0
  3  1  1  0  0  0  0
  4 15  1  0  0  0  0
  4 14  1  0  0  0  0
  5 17  1  0  0  0  0
  5 16  1  0  0  0  0
  7 20  1  0  0  0  0
  8  6  2  0  0  0  0
  9  8  1  0  0  0  0
  9  7  1  0  0  0  0
 10 25  1  0  0  0  0
 10 24  1  0  0  0  0
 11  3  1  0  0  0  0
 11 28  1  0  0  0  0
 12 30  1  0  0  0  0
 12  3  1  0  0  0  0
 13  4  1  0  0  0  0
 13 32  1  0  0  0  0
 14 37  1  0  0  0  0
 14 35  1  0  0  0  0
 15 39  1  0  0  0  0
 15 38  1  0  0  0  0
 16 41  1  0  0  0  0
 16 43  1  0  0  0  0
 17 44  1  0  0  0  0
 17 45  1  0  0  0  0
 18 47  1  0  0  0  0
 18  5  1  0  0  0  0
 19  1  1  0  0  0  0
 21  9  1  0  0  0  0
 22  9  1  0  0  0  0
 23 10  1  0  0  0  0
 26 11  1  0  0  0  0
 27 11  1  0  0  0  0
 29 12  1  0  0  0  0
 31 12  1  0  0  0  0
 33 13  1  0  0  0  0
 34 13  1  0  0  0  0
 36 14  1  0  0  0  0
 40 15  1  0  0  0  0
 42 16  1  0  0  0  0
 46 17  1  0  0  0  0
 48 18  1  0  0  0  0
 49 18  1  0  0  0  0
M  END
$$$$
