CSD_code = DOMJUL | q = 0 | S = 0 | Stoichiometry = C20H32Br2N4O4Ru | MND = 6
 OpenBabel04212202033D

 63 68  0  0  0  0  0  0  0  0999 V2000
    2.6674    8.7651    2.4655 Ru  0  0  0  0  0  0  0  0  0  0  0  0
    0.4406    8.6077    3.5383 Br  0  0  0  0  0  0  0  0  0  0  0  0
    3.5539    6.5943    3.2654 Br  0  0  0  0  0  0  0  0  0  0  0  0
    0.9957    6.8647    0.2993 C   0  0  0  0  0  0  0  0  0  0  0  0
    1.5389    6.3628   -1.0693 C   0  0  0  0  0  0  0  0  0  0  0  0
    1.6658    5.2775   -1.0905 H   0  0  0  0  0  0  0  0  0  0  0  0
    0.9066    6.6686   -1.9079 H   0  0  0  0  0  0  0  0  0  0  0  0
    3.0214    7.6986   -0.1269 C   0  0  0  0  0  0  0  0  0  0  0  0
    4.2352    8.3952    0.1412 C   0  0  0  0  0  0  0  0  0  0  0  0
    6.1980    9.3674   -0.1197 C   0  0  0  0  0  0  0  0  0  0  0  0
    6.1972   10.3392   -0.6281 H   0  0  0  0  0  0  0  0  0  0  0  0
    7.1814    8.9076   -0.2263 H   0  0  0  0  0  0  0  0  0  0  0  0
    5.7444    9.4760    1.3607 C   0  0  0  0  0  0  0  0  0  0  0  0
    1.5570   11.4610    0.8280 C   0  0  0  0  0  0  0  0  0  0  0  0
    1.8970   12.9265    1.2094 C   0  0  0  0  0  0  0  0  0  0  0  0
    2.7061   13.3398    0.5948 H   0  0  0  0  0  0  0  0  0  0  0  0
    1.0313   13.5878    1.1550 H   0  0  0  0  0  0  0  0  0  0  0  0
    2.5061   11.5637    2.8332 C   0  0  0  0  0  0  0  0  0  0  0  0
    3.0300   11.0680    4.0622 C   0  0  0  0  0  0  0  0  0  0  0  0
    3.6693   10.9566    6.1715 C   0  0  0  0  0  0  0  0  0  0  0  0
    2.9573   11.0373    6.9967 H   0  0  0  0  0  0  0  0  0  0  0  0
    4.6583   11.2718    6.5161 H   0  0  0  0  0  0  0  0  0  0  0  0
    3.6835    9.5328    5.5446 C   0  0  0  0  0  0  0  0  0  0  0  0
    0.8248    5.7066    1.2840 C   0  0  0  0  0  0  0  0  0  0  0  0
    1.7582    5.1615    1.4084 H   0  0  0  0  0  0  0  0  0  0  0  0
    0.0624    5.0279    0.9101 H   0  0  0  0  0  0  0  0  0  0  0  0
    0.5106    6.0800    2.2556 H   0  0  0  0  0  0  0  0  0  0  0  0
   -0.3311    7.6004    0.1233 C   0  0  0  0  0  0  0  0  0  0  0  0
   -0.2290    8.4253   -0.5806 H   0  0  0  0  0  0  0  0  0  0  0  0
   -0.6820    7.9715    1.0826 H   0  0  0  0  0  0  0  0  0  0  0  0
   -1.0710    6.9045   -0.2643 H   0  0  0  0  0  0  0  0  0  0  0  0
    6.5872    8.5538    2.2450 C   0  0  0  0  0  0  0  0  0  0  0  0
    6.1400    8.4703    3.2294 H   0  0  0  0  0  0  0  0  0  0  0  0
    7.5969    8.9461    2.3393 H   0  0  0  0  0  0  0  0  0  0  0  0
    6.6275    7.5550    1.8147 H   0  0  0  0  0  0  0  0  0  0  0  0
    5.7773   10.9131    1.8707 C   0  0  0  0  0  0  0  0  0  0  0  0
    5.1199   11.5508    1.2808 H   0  0  0  0  0  0  0  0  0  0  0  0
    6.7912   11.3013    1.8050 H   0  0  0  0  0  0  0  0  0  0  0  0
    5.4558   10.9502    2.9085 H   0  0  0  0  0  0  0  0  0  0  0  0
    0.0445   11.2329    0.8874 C   0  0  0  0  0  0  0  0  0  0  0  0
   -0.3540   11.6034    1.8301 H   0  0  0  0  0  0  0  0  0  0  0  0
   -0.1754   10.1723    0.8313 H   0  0  0  0  0  0  0  0  0  0  0  0
   -0.4441   11.7469    0.0633 H   0  0  0  0  0  0  0  0  0  0  0  0
    2.1219   11.0722   -0.5342 C   0  0  0  0  0  0  0  0  0  0  0  0
    3.2070   11.1656   -0.5472 H   0  0  0  0  0  0  0  0  0  0  0  0
    1.7066   11.7219   -1.3012 H   0  0  0  0  0  0  0  0  0  0  0  0
    1.8602   10.0436   -0.7689 H   0  0  0  0  0  0  0  0  0  0  0  0
    5.0764    8.9124    5.6319 C   0  0  0  0  0  0  0  0  0  0  0  0
    5.8193    9.5549    5.1612 H   0  0  0  0  0  0  0  0  0  0  0  0
    5.0787    7.9332    5.1603 H   0  0  0  0  0  0  0  0  0  0  0  0
    5.3410    8.7867    6.6789 H   0  0  0  0  0  0  0  0  0  0  0  0
    2.6614    8.6197    6.2236 C   0  0  0  0  0  0  0  0  0  0  0  0
    2.6343    7.6507    5.7309 H   0  0  0  0  0  0  0  0  0  0  0  0
    1.6650    9.0551    6.1850 H   0  0  0  0  0  0  0  0  0  0  0  0
    2.9464    8.4728    7.2623 H   0  0  0  0  0  0  0  0  0  0  0  0
    2.8198    6.9679   -1.2306 O   0  0  0  0  0  0  0  0  0  0  0  0
    5.2323    8.5295   -0.7469 O   0  0  0  0  0  0  0  0  0  0  0  0
    2.3422   12.8676    2.5609 O   0  0  0  0  0  0  0  0  0  0  0  0
    3.2544   11.8405    5.1325 O   0  0  0  0  0  0  0  0  0  0  0  0
    2.0717    7.7572    0.7516 N   0  0  0  0  0  0  0  0  0  0  0  0
    4.3855    8.9455    1.3029 N   0  0  0  0  0  0  0  0  0  0  0  0
    2.1792   10.7116    1.9156 N   0  0  0  0  0  0  0  0  0  0  0  0
    3.2797    9.8008    4.1574 N   0  0  0  0  0  0  0  0  0  0  0  0
  1  3  1  0  0  0  0
  1  2  1  0  0  0  0
  1 63  1  0  0  0  0
  4 60  1  0  0  0  0
  4 24  1  0  0  0  0
  5  4  1  0  0  0  0
  6  5  1  0  0  0  0
  7  5  1  0  0  0  0
  8  9  2  0  0  0  0
  8 60  1  0  0  0  0
  9 61  1  0  0  0  0
 10 13  1  0  0  0  0
 11 10  1  0  0  0  0
 12 10  1  0  0  0  0
 13 36  1  0  0  0  0
 13 32  1  0  0  0  0
 14 40  1  0  0  0  0
 14 15  1  0  0  0  0
 14 62  1  0  0  0  0
 15 58  1  0  0  0  0
 16 15  1  0  0  0  0
 17 15  1  0  0  0  0
 18 19  2  0  0  0  0
 19 63  1  0  0  0  0
 19 59  1  0  0  0  0
 20 22  1  0  0  0  0
 20 21  1  0  0  0  0
 23 48  1  0  0  0  0
 23 20  1  0  0  0  0
 23 52  1  0  0  0  0
 24 25  1  0  0  0  0
 24 27  1  0  0  0  0
 26 24  1  0  0  0  0
 28  4  1  0  0  0  0
 28 30  1  0  0  0  0
 29 28  1  0  0  0  0
 31 28  1  0  0  0  0
 32 34  1  0  0  0  0
 32 33  1  0  0  0  0
 35 32  1  0  0  0  0
 36 39  1  0  0  0  0
 37 36  1  0  0  0  0
 38 36  1  0  0  0  0
 40 41  1  0  0  0  0
 42 40  1  0  0  0  0
 43 40  1  0  0  0  0
 44 14  1  0  0  0  0
 45 44  1  0  0  0  0
 46 44  1  0  0  0  0
 47 44  1  0  0  0  0
 48 51  1  0  0  0  0
 49 48  1  0  0  0  0
 50 48  1  0  0  0  0
 52 55  1  0  0  0  0
 53 52  1  0  0  0  0
 54 52  1  0  0  0  0
 56  5  1  0  0  0  0
 56  8  1  0  0  0  0
 57 10  1  0  0  0  0
 57  9  1  0  0  0  0
 58 18  1  0  0  0  0
 59 20  1  0  0  0  0
 60  1  1  0  0  0  0
 61 13  1  0  0  0  0
 61  1  1  0  0  0  0
 62  1  1  0  0  0  0
 62 18  1  0  0  0  0
 63 23  1  0  0  0  0
M  END
$$$$
