CSD_code = DOMKAS | q = 0 | S = 0 | Stoichiometry = C20H32I2N4O4Ru | MND = 6
 OpenBabel04212202033D

 63 68  0  0  0  0  0  0  0  0999 V2000
    8.5367   11.1731    2.4205 Ru  0  0  0  0  0  0  0  0  0  0  0  0
    9.0367   13.7323    3.0711 I   0  0  0  0  0  0  0  0  0  0  0  0
    9.6399   11.2066   -0.0295 I   0  0  0  0  0  0  0  0  0  0  0  0
    7.2539    8.1545    1.7076 C   0  0  0  0  0  0  0  0  0  0  0  0
    7.8512    6.8073    2.1955 C   0  0  0  0  0  0  0  0  0  0  0  0
    7.3174    6.4041    3.0647 H   0  0  0  0  0  0  0  0  0  0  0  0
    7.8789    6.0506    1.4102 H   0  0  0  0  0  0  0  0  0  0  0  0
    8.3703   11.7528    6.3272 C   0  0  0  0  0  0  0  0  0  0  0  0
    7.8102   12.6841    6.2660 H   0  0  0  0  0  0  0  0  0  0  0  0
    9.3380   11.9155    5.8662 H   0  0  0  0  0  0  0  0  0  0  0  0
    8.5120   11.4887    7.3726 H   0  0  0  0  0  0  0  0  0  0  0  0
    9.2738    8.4472    2.5798 C   0  0  0  0  0  0  0  0  0  0  0  0
   10.4399    9.1498    3.0075 C   0  0  0  0  0  0  0  0  0  0  0  0
   12.5287    9.5501    3.5890 C   0  0  0  0  0  0  0  0  0  0  0  0
   13.3447    9.4880    2.8643 H   0  0  0  0  0  0  0  0  0  0  0  0
   12.9251    9.3741    4.5929 H   0  0  0  0  0  0  0  0  0  0  0  0
   11.7476   10.8914    3.4819 C   0  0  0  0  0  0  0  0  0  0  0  0
    7.6182   10.6336    5.6033 C   0  0  0  0  0  0  0  0  0  0  0  0
    6.1476   10.5717    6.0967 C   0  0  0  0  0  0  0  0  0  0  0  0
    5.7933    9.5418    6.2257 H   0  0  0  0  0  0  0  0  0  0  0  0
    5.9923   11.1223    7.0256 H   0  0  0  0  0  0  0  0  0  0  0  0
    6.2199   11.3461    4.0337 C   0  0  0  0  0  0  0  0  0  0  0  0
    5.8017   11.8516    2.7665 C   0  0  0  0  0  0  0  0  0  0  0  0
    4.5678   12.8318    1.2243 C   0  0  0  0  0  0  0  0  0  0  0  0
    4.3782   13.9082    1.2438 H   0  0  0  0  0  0  0  0  0  0  0  0
    3.7556   12.3332    0.6880 H   0  0  0  0  0  0  0  0  0  0  0  0
    5.9682   12.4916    0.6379 C   0  0  0  0  0  0  0  0  0  0  0  0
    5.8679    8.4083    2.2926 C   0  0  0  0  0  0  0  0  0  0  0  0
    5.9031    8.4444    3.3810 H   0  0  0  0  0  0  0  0  0  0  0  0
    5.1946    7.6081    1.9935 H   0  0  0  0  0  0  0  0  0  0  0  0
    5.4694    9.3515    1.9273 H   0  0  0  0  0  0  0  0  0  0  0  0
    7.2222    8.1936    0.1780 C   0  0  0  0  0  0  0  0  0  0  0  0
    8.1988    7.9330   -0.2259 H   0  0  0  0  0  0  0  0  0  0  0  0
    6.9743    9.1907   -0.1682 H   0  0  0  0  0  0  0  0  0  0  0  0
    6.4813    7.4908   -0.1959 H   0  0  0  0  0  0  0  0  0  0  0  0
    6.7106   13.7639    0.2302 C   0  0  0  0  0  0  0  0  0  0  0  0
    6.7630   14.4662    1.0588 H   0  0  0  0  0  0  0  0  0  0  0  0
    6.1854   14.2329   -0.5982 H   0  0  0  0  0  0  0  0  0  0  0  0
    7.7222   13.5313   -0.0900 H   0  0  0  0  0  0  0  0  0  0  0  0
    5.8316   11.5597   -0.5653 C   0  0  0  0  0  0  0  0  0  0  0  0
    5.2944   10.6511   -0.2962 H   0  0  0  0  0  0  0  0  0  0  0  0
    6.8104   11.3071   -0.9622 H   0  0  0  0  0  0  0  0  0  0  0  0
    5.2729   12.0718   -1.3450 H   0  0  0  0  0  0  0  0  0  0  0  0
    9.1861    7.1087    2.5858 O   0  0  0  0  0  0  0  0  0  0  0  0
   11.5863    8.5234    3.2932 O   0  0  0  0  0  0  0  0  0  0  0  0
    5.3808   11.1873    5.0680 O   0  0  0  0  0  0  0  0  0  0  0  0
    4.5785   12.3534    2.5662 O   0  0  0  0  0  0  0  0  0  0  0  0
    8.2424    9.1204    2.1854 N   0  0  0  0  0  0  0  0  0  0  0  0
   10.3961   10.4384    3.1146 N   0  0  0  0  0  0  0  0  0  0  0  0
    7.4561   11.0039    4.1981 N   0  0  0  0  0  0  0  0  0  0  0  0
    6.6335   11.8361    1.7756 N   0  0  0  0  0  0  0  0  0  0  0  0
   11.7647   11.6282    4.8204 C   0  0  0  0  0  0  0  0  0  0  0  0
   11.3557   11.0047    5.6144 H   0  0  0  0  0  0  0  0  0  0  0  0
   11.2024   12.5547    4.7506 H   0  0  0  0  0  0  0  0  0  0  0  0
   12.7932   11.8756    5.0723 H   0  0  0  0  0  0  0  0  0  0  0  0
    8.3317    9.2952    5.7695 C   0  0  0  0  0  0  0  0  0  0  0  0
    7.8312    8.5119    5.2013 H   0  0  0  0  0  0  0  0  0  0  0  0
    8.3361    9.0132    6.8200 H   0  0  0  0  0  0  0  0  0  0  0  0
    9.3605    9.3692    5.4259 H   0  0  0  0  0  0  0  0  0  0  0  0
   12.3411   11.7809    2.3898 C   0  0  0  0  0  0  0  0  0  0  0  0
   12.3952   11.2500    1.4423 H   0  0  0  0  0  0  0  0  0  0  0  0
   13.3432   12.0841    2.6829 H   0  0  0  0  0  0  0  0  0  0  0  0
   11.7372   12.6732    2.2518 H   0  0  0  0  0  0  0  0  0  0  0  0
  1  2  1  0  0  0  0
  1 49  1  0  0  0  0
  1 50  1  0  0  0  0
  3  1  1  0  0  0  0
  4 48  1  0  0  0  0
  4  5  1  0  0  0  0
  4 28  1  0  0  0  0
  5 44  1  0  0  0  0
  5  6  1  0  0  0  0
  7  5  1  0  0  0  0
  8 11  1  0  0  0  0
  9  8  1  0  0  0  0
 10  8  1  0  0  0  0
 12 44  1  0  0  0  0
 12 13  2  0  0  0  0
 13 49  1  0  0  0  0
 13 45  1  0  0  0  0
 14 16  1  0  0  0  0
 15 14  1  0  0  0  0
 17 14  1  0  0  0  0
 17 52  1  0  0  0  0
 18 56  1  0  0  0  0
 18 19  1  0  0  0  0
 18  8  1  0  0  0  0
 19 20  1  0  0  0  0
 19 21  1  0  0  0  0
 22 50  1  0  0  0  0
 22 46  1  0  0  0  0
 23 22  2  0  0  0  0
 24 25  1  0  0  0  0
 24 47  1  0  0  0  0
 26 24  1  0  0  0  0
 27 24  1  0  0  0  0
 27 51  1  0  0  0  0
 28 29  1  0  0  0  0
 30 28  1  0  0  0  0
 31 28  1  0  0  0  0
 32  4  1  0  0  0  0
 33 32  1  0  0  0  0
 34 32  1  0  0  0  0
 35 32  1  0  0  0  0
 36 27  1  0  0  0  0
 36 37  1  0  0  0  0
 38 36  1  0  0  0  0
 39 36  1  0  0  0  0
 40 41  1  0  0  0  0
 40 27  1  0  0  0  0
 42 40  1  0  0  0  0
 43 40  1  0  0  0  0
 45 14  1  0  0  0  0
 46 19  1  0  0  0  0
 47 23  1  0  0  0  0
 48  1  1  0  0  0  0
 48 12  1  0  0  0  0
 49 17  1  0  0  0  0
 50 18  1  0  0  0  0
 51  1  1  0  0  0  0
 51 23  1  0  0  0  0
 52 55  1  0  0  0  0
 52 53  1  0  0  0  0
 54 52  1  0  0  0  0
 56 58  1  0  0  0  0
 57 56  1  0  0  0  0
 59 56  1  0  0  0  0
 60 62  1  0  0  0  0
 60 17  1  0  0  0  0
 61 60  1  0  0  0  0
 63 60  1  0  0  0  0
M  END
$$$$
