CSD_code = DOMLEX | q = 0 | S = 0 | Stoichiometry = C23H27ClN2O6Zn | MND = 5
 OpenBabel04212202033D

 60 65  0  0  1  0  0  0  0  0999 V2000
    0.7323   19.1009    4.3135 Zn  0  0  1  0  0  0  0  0  0  0  0  0
    2.5691   19.7772    3.4005 Cl  0  0  0  0  0  0  0  0  0  0  0  0
    1.9851   16.8101    6.4209 C   0  0  1  0  0  0  0  0  0  0  0  0
    1.7678   15.7575    6.6703 H   0  0  0  0  0  0  0  0  0  0  0  0
    1.2351   17.6979    7.4355 C   0  0  2  0  0  0  0  0  0  0  0  0
    0.1902   17.7481    7.0893 H   0  0  0  0  0  0  0  0  0  0  0  0
    1.7970   19.1327    7.5010 C   0  0  1  0  0  0  0  0  0  0  0  0
    1.4694   19.5860    8.4526 H   0  0  0  0  0  0  0  0  0  0  0  0
    3.3259   19.0723    7.5226 C   0  0  1  0  0  0  0  0  0  0  0  0
    3.6472   18.5994    8.4684 H   0  0  0  0  0  0  0  0  0  0  0  0
    3.8531   18.2240    6.3629 C   0  0  1  0  0  0  0  0  0  0  0  0
    3.5402   18.6679    5.4080 H   0  0  0  0  0  0  0  0  0  0  0  0
    5.3788   18.2657    6.4385 C   0  0  0  0  0  0  0  0  0  0  0  0
    5.7156   17.7780    7.3662 H   0  0  0  0  0  0  0  0  0  0  0  0
    5.8363   17.7749    5.5800 H   0  0  0  0  0  0  0  0  0  0  0  0
    5.2545   20.4002    7.4145 C   0  0  2  0  0  0  0  0  0  0  0  0
    5.6123   20.0251    8.3992 H   0  0  0  0  0  0  0  0  0  0  0  0
    5.6771   21.8272    7.1772 C   0  0  0  0  0  0  0  0  0  0  0  0
    6.3330   22.5585    8.1550 C   0  0  0  0  0  0  0  0  0  0  0  0
    6.5608   22.1026    9.1077 H   0  0  0  0  0  0  0  0  0  0  0  0
    6.6983   23.8709    7.9073 C   0  0  0  0  0  0  0  0  0  0  0  0
    7.2117   24.4383    8.6697 H   0  0  0  0  0  0  0  0  0  0  0  0
    6.4082   24.4531    6.6854 C   0  0  0  0  0  0  0  0  0  0  0  0
    6.6961   25.4766    6.4941 H   0  0  0  0  0  0  0  0  0  0  0  0
    5.7519   23.7219    5.7088 C   0  0  0  0  0  0  0  0  0  0  0  0
    5.5274   24.1735    4.7541 H   0  0  0  0  0  0  0  0  0  0  0  0
    5.3844   22.4107    5.9514 C   0  0  0  0  0  0  0  0  0  0  0  0
    4.8806   21.8273    5.1965 H   0  0  0  0  0  0  0  0  0  0  0  0
    1.9447   16.2109    4.1385 C   0  0  0  0  0  0  0  0  0  0  0  0
    3.0309   16.2580    4.0376 H   0  0  0  0  0  0  0  0  0  0  0  0
    1.4651   16.5277    3.2168 H   0  0  0  0  0  0  0  0  0  0  0  0
    1.6415   15.1916    4.3957 H   0  0  0  0  0  0  0  0  0  0  0  0
    0.2292   20.8410    6.7642 C   0  0  0  0  0  0  0  0  0  0  0  0
    0.5609   21.6040    7.4815 H   0  0  0  0  0  0  0  0  0  0  0  0
   -0.5620   20.2411    7.2253 H   0  0  0  0  0  0  0  0  0  0  0  0
   -0.3364   21.5132    5.5122 C   0  0  0  0  0  0  0  0  0  0  0  0
   -1.1918   22.1493    5.7767 H   0  0  0  0  0  0  0  0  0  0  0  0
    0.4439   22.1321    5.0564 H   0  0  0  0  0  0  0  0  0  0  0  0
   -1.8784   20.4384    4.0694 C   0  0  0  0  0  3  0  0  0  0  0  0
   -2.5840   21.2422    4.3168 H   0  0  0  0  0  0  0  0  0  0  0  0
   -2.3652   19.4327    3.1975 C   0  0  0  0  0  0  0  0  0  0  0  0
   -3.6846   19.5670    2.7154 C   0  0  0  0  0  0  0  0  0  0  0  0
   -4.2526   20.4352    3.0224 H   0  0  0  0  0  0  0  0  0  0  0  0
   -4.2481   18.6415    1.8820 C   0  0  0  0  0  0  0  0  0  0  0  0
   -5.2583   18.7652    1.5234 H   0  0  0  0  0  0  0  0  0  0  0  0
   -3.4965   17.5252    1.4947 C   0  0  0  0  0  0  0  0  0  0  0  0
   -3.9369   16.7909    0.8353 H   0  0  0  0  0  0  0  0  0  0  0  0
   -2.2156   17.3581    1.9414 C   0  0  0  0  0  0  0  0  0  0  0  0
   -1.6295   16.5016    1.6435 H   0  0  0  0  0  0  0  0  0  0  0  0
   -1.5885   18.2972    2.8035 C   0  0  0  0  0  0  0  0  0  0  0  0
    1.3203   19.9467    6.3851 N   0  0  2  0  0  4  0  0  0  0  0  0
    2.1066   20.5271    6.0847 H   0  0  0  0  0  0  0  0  0  0  0  0
   -0.7014   20.4798    4.5849 N   0  0  2  0  0  0  0  0  0  0  0  0
    1.4905   17.1141    5.1427 O   0  0  0  0  0  0  0  0  0  0  0  0
    1.3228   17.0468    8.6762 O   0  0  0  0  0  0  0  0  0  0  0  0
    0.8261   17.5433    9.3378 H   0  0  0  0  0  0  0  0  0  0  0  0
    3.3741   16.8961    6.4938 O   0  0  0  0  0  0  0  0  0  0  0  0
    5.7955   19.6116    6.3945 O   0  0  0  0  0  0  0  0  0  0  0  0
    3.8390   20.3837    7.4319 O   0  0  0  0  0  0  0  0  0  0  0  0
   -0.3773   18.0735    3.1720 O   0  0  0  0  0  0  0  0  0  0  0  0
  1  2  1  6  0  0  0
  1 53  1  0  0  0  0
  1 51  1  0  0  0  0
  3 57  1  0  0  0  0
  3  4  1  1  0  0  0
  3  5  1  0  0  0  0
  5  6  1  6  0  0  0
  5  7  1  0  0  0  0
  5 55  1  0  0  0  0
  7  9  1  0  0  0  0
  7  8  1  1  0  0  0
  9 10  1  1  0  0  0
 11 12  1  6  0  0  0
 11 13  1  0  0  0  0
 11 57  1  0  0  0  0
 11  9  1  0  0  0  0
 13 14  1  0  0  0  0
 15 13  1  0  0  0  0
 16 59  1  0  0  0  0
 16 17  1  1  0  0  0
 18 16  1  0  0  0  0
 18 19  1  0  0  0  0
 19 20  1  0  0  0  0
 21 19  2  0  0  0  0
 21 22  1  0  0  0  0
 23 21  1  0  0  0  0
 24 23  1  0  0  0  0
 25 27  1  0  0  0  0
 25 23  2  0  0  0  0
 26 25  1  0  0  0  0
 27 18  2  0  0  0  0
 28 27  1  0  0  0  0
 29 32  1  0  0  0  0
 29 54  1  0  0  0  0
 30 29  1  0  0  0  0
 31 29  1  0  0  0  0
 33 35  1  0  0  0  0
 33 34  1  0  0  0  0
 36 37  1  0  0  0  0
 36 33  1  0  0  0  0
 38 36  1  0  0  0  0
 39 40  1  0  0  0  0
 41 39  1  0  0  0  0
 42 43  1  0  0  0  0
 42 41  2  0  0  0  0
 44 42  1  0  0  0  0
 45 44  1  0  0  0  0
 46 44  2  0  0  0  0
 46 48  1  0  0  0  0
 47 46  1  0  0  0  0
 48 50  2  0  0  0  0
 49 48  1  0  0  0  0
 50 60  1  0  0  0  0
 50 41  1  0  0  0  0
 51 52  1  6  0  0  0
 51 33  1  0  0  0  0
 51  7  1  0  0  0  0
 53 39  1  1  0  0  0
 53 36  1  0  0  0  0
 54  3  1  0  0  0  0
 55 56  1  0  0  0  0
 58 13  1  0  0  0  0
 58 16  1  0  0  0  0
 59  9  1  0  0  0  0
 60  1  1  0  0  0  0
M  END
$$$$
