CSD_code = DOMNID | q = 0 | S = 0 | Stoichiometry = C21H24Cl2FeN4 | MND = 5
 OpenBabel04212202033D

 52 56  0  0  1  0  0  0  0  0999 V2000
    4.7968   -0.0753    9.4240 Fe  0  0  0  0  0  0  0  0  0  0  0  0
    5.7237   -0.1675    7.4529 Cl  0  0  0  0  0  0  0  0  0  0  0  0
    3.8855   -0.4550   11.3825 Cl  0  0  0  0  0  0  0  0  0  0  0  0
    6.5074    0.0695   10.2334 N   0  0  0  0  0  0  0  0  0  0  0  0
    4.7879    1.9701    9.5576 N   0  0  2  0  0  4  0  0  0  0  0  0
    3.0880    0.1571    8.6417 N   0  0  0  0  0  0  0  0  0  0  0  0
    4.1923    2.5159   10.7913 C   0  0  0  0  0  0  0  0  0  0  0  0
    4.8275    2.2083   11.6247 H   0  0  0  0  0  0  0  0  0  0  0  0
    3.2127    2.0548   10.9266 H   0  0  0  0  0  0  0  0  0  0  0  0
    0.5722    0.8296    7.7130 C   0  0  0  0  0  0  0  0  0  0  0  0
   -0.4135    1.0924    7.3618 H   0  0  0  0  0  0  0  0  0  0  0  0
    5.1599    4.7342   10.8908 N   0  0  0  0  0  0  0  0  0  0  0  0
    4.0466    4.0162   10.7903 C   0  0  0  0  0  0  0  0  0  0  0  0
    3.9870    2.3569    8.3878 C   0  0  0  0  0  0  0  0  0  0  0  0
    4.5942    2.1860    7.4933 H   0  0  0  0  0  0  0  0  0  0  0  0
    3.6773    3.4077    8.4188 H   0  0  0  0  0  0  0  0  0  0  0  0
    8.1838    1.6140   10.9197 C   0  0  0  0  0  0  0  0  0  0  0  0
    8.5503    2.6281   10.9330 H   0  0  0  0  0  0  0  0  0  0  0  0
    6.2128    2.3269    9.4767 C   0  0  0  0  0  0  0  0  0  0  0  0
    6.3893    3.3469    9.8344 H   0  0  0  0  0  0  0  0  0  0  0  0
    6.5302    2.2360    8.4336 H   0  0  0  0  0  0  0  0  0  0  0  0
    7.0050    1.3155   10.2631 C   0  0  1  0  0  3  0  0  0  0  0  0
    2.1545   -0.7882    8.4984 C   0  0  2  0  0  3  0  0  0  0  0  0
    2.8084    1.4238    8.2915 C   0  0  0  0  0  0  0  0  0  0  0  0
    7.1823   -0.9280   10.8100 C   0  0  0  0  0  0  0  0  0  0  0  0
    2.7943    4.6129   10.6878 C   0  0  0  0  0  0  0  0  0  0  0  0
    1.9057    4.0052   10.6120 H   0  0  0  0  0  0  0  0  0  0  0  0
    5.0954    6.0575   10.8933 C   0  0  0  0  0  0  0  0  0  0  0  0
    1.5609    1.7984    7.8331 C   0  0  0  0  0  0  0  0  0  0  0  0
    1.3692    2.8264    7.5673 H   0  0  0  0  0  0  0  0  0  0  0  0
    8.3748   -0.6978   11.4808 C   0  0  0  0  0  0  0  0  0  0  0  0
    8.8969   -1.5218   11.9410 H   0  0  0  0  0  0  0  0  0  0  0  0
    8.8790    0.5902   11.5494 C   0  0  0  0  0  0  0  0  0  0  0  0
    9.7999    0.7938   12.0737 H   0  0  0  0  0  0  0  0  0  0  0  0
    0.8821   -0.4804    8.0389 C   0  0  0  0  0  0  0  0  0  0  0  0
    0.1468   -1.2630    7.9383 H   0  0  0  0  0  0  0  0  0  0  0  0
    2.5787   -2.1715    8.8642 C   0  0  0  0  0  0  0  0  0  0  0  0
    3.5938   -2.3454    8.4930 H   0  0  0  0  0  0  0  0  0  0  0  0
    1.9043   -2.9176    8.4548 H   0  0  0  0  0  0  0  0  0  0  0  0
    2.6010   -2.2600    9.9511 H   0  0  0  0  0  0  0  0  0  0  0  0
    6.5666   -2.2817   10.6789 C   0  0  0  0  0  0  0  0  0  0  0  0
    5.7305   -2.3609   11.3749 H   0  0  0  0  0  0  0  0  0  0  0  0
    7.2850   -3.0689   10.8873 H   0  0  0  0  0  0  0  0  0  0  0  0
    6.1715   -2.4001    9.6646 H   0  0  0  0  0  0  0  0  0  0  0  0
    6.3947    6.7927   10.9923 C   0  0  0  0  0  0  0  0  0  0  0  0
    7.1851    6.1064   11.2804 H   0  0  0  0  0  0  0  0  0  0  0  0
    6.3256    7.5955   11.7221 H   0  0  0  0  0  0  0  0  0  0  0  0
    6.6474    7.2331   10.0285 H   0  0  0  0  0  0  0  0  0  0  0  0
    2.7161    5.9969   10.6951 C   0  0  0  0  0  0  0  0  0  0  0  0
    1.7584    6.4916   10.6218 H   0  0  0  0  0  0  0  0  0  0  0  0
    3.8818    6.7344   10.7978 C   0  0  0  0  0  0  0  0  0  0  0  0
    3.8595    7.8133   10.8072 H   0  0  0  0  0  0  0  0  0  0  0  0
  1  5  1  0  0  0  0
  1  4  1  0  0  0  0
  1  3  1  0  0  0  0
  2  1  1  0  0  0  0
  4 22  1  0  0  0  0
  4 25  1  0  0  0  0
  5  7  1  1  0  0  0
  6  1  1  0  0  0  0
  7  9  1  0  0  0  0
  7  8  1  0  0  0  0
 10 29  1  0  0  0  0
 10 35  2  0  0  0  0
 11 10  1  0  0  0  0
 12 28  1  0  0  0  0
 13  7  1  0  0  0  0
 13 12  2  0  0  0  0
 14 16  1  0  0  0  0
 14  5  1  0  0  0  0
 15 14  1  0  0  0  0
 17 18  1  0  0  0  0
 17 33  2  0  0  0  0
 19  5  1  0  0  0  0
 19 20  1  0  0  0  0
 19 22  1  0  0  0  0
 21 19  1  0  0  0  0
 22 17  1  6  0  0  0
 23  6  1  0  0  0  0
 23 37  1  1  0  0  0
 24 14  1  0  0  0  0
 24  6  1  0  0  0  0
 25 31  2  0  0  0  0
 26 49  2  0  0  0  0
 26 13  1  0  0  0  0
 27 26  1  0  0  0  0
 28 45  1  0  0  0  0
 29 24  2  0  0  0  0
 30 29  1  0  0  0  0
 31 33  1  0  0  0  0
 31 32  1  0  0  0  0
 33 34  1  0  0  0  0
 35 23  1  0  0  0  0
 36 35  1  0  0  0  0
 37 40  1  0  0  0  0
 38 37  1  0  0  0  0
 39 37  1  0  0  0  0
 41 25  1  0  0  0  0
 41 43  1  0  0  0  0
 41 42  1  0  0  0  0
 44 41  1  0  0  0  0
 45 46  1  0  0  0  0
 45 47  1  0  0  0  0
 48 45  1  0  0  0  0
 49 51  1  0  0  0  0
 50 49  1  0  0  0  0
 51 52  1  0  0  0  0
 51 28  2  0  0  0  0
M  END
$$$$
