CSD_code = DOMROM | q = 0 | S = 0 | Stoichiometry = C24H35ClN4OPt | MND = 4
 OpenBabel04212202033D

 66 68  0  0  1  0  0  0  0  0999 V2000
    9.8850    4.9913    4.8514 Pt  0  0  1  0  0  0  0  0  0  0  0  0
   10.6495    5.6239    2.7971 Cl  0  0  0  0  0  0  0  0  0  0  0  0
    7.3402    3.0576    5.5147 O   0  0  0  0  0  0  0  0  0  0  0  0
    9.1992    4.4997    6.8101 N   0  0  0  0  0  4  0  0  0  0  0  0
   10.7575    6.6087    5.6219 N   0  0  0  0  0  0  0  0  0  0  0  0
    8.9336    7.8823    6.3263 N   0  0  0  0  0  0  0  0  0  0  0  0
    8.9700    3.4287    3.9906 N   0  0  0  0  0  0  0  0  0  0  0  0
    8.6595    5.6823    7.4838 C   0  0  0  0  0  0  0  0  0  0  0  0
    8.0983    6.6926    6.4694 C   0  0  0  0  0  0  0  0  0  0  0  0
   10.2622    7.7145    6.0776 C   0  0  1  0  0  3  0  0  0  0  0  0
    7.8749    2.8259    4.4074 C   0  0  0  0  0  0  0  0  0  0  0  0
    7.2541    1.8008    3.5096 C   0  0  0  0  0  0  0  0  0  0  0  0
    8.0213    0.9656    2.7047 C   0  0  0  0  0  0  0  0  0  0  0  0
    7.4083    0.0188    1.9039 C   0  0  0  0  0  0  0  0  0  0  0  0
    6.0283   -0.0977    1.8936 C   0  0  0  0  0  0  0  0  0  0  0  0
    5.2599    0.7259    2.6999 C   0  0  0  0  0  0  0  0  0  0  0  0
    5.8705    1.6642    3.5104 C   0  0  0  0  0  0  0  0  0  0  0  0
   11.2240    8.7474    6.5294 C   0  0  0  0  0  0  0  0  0  0  0  0
   11.1258    9.2545    7.8228 C   0  0  0  0  0  0  0  0  0  0  0  0
   12.0841   10.1289    8.3008 C   0  0  0  0  0  0  0  0  0  0  0  0
   13.1458   10.5058    7.4946 C   0  0  0  0  0  0  0  0  0  0  0  0
   13.2547    9.9957    6.2109 C   0  0  0  0  0  0  0  0  0  0  0  0
   12.3064    9.1112    5.7322 C   0  0  0  0  0  0  0  0  0  0  0  0
   10.0462    3.6162    7.6323 C   0  0  0  0  0  0  0  0  0  0  0  0
   10.3356    2.3681    6.7967 C   0  0  0  0  0  0  0  0  0  0  0  0
    9.3158    3.2020    8.9154 C   0  0  0  0  0  0  0  0  0  0  0  0
   11.3760    4.2988    7.9641 C   0  0  0  0  0  0  0  0  0  0  0  0
    8.2006    9.1066    5.9266 C   0  0  0  0  0  0  0  0  0  0  0  0
    7.4584    9.6744    7.1416 C   0  0  0  0  0  0  0  0  0  0  0  0
    9.1188   10.1933    5.3620 C   0  0  0  0  0  0  0  0  0  0  0  0
    7.2116    8.7523    4.8014 C   0  0  0  0  0  0  0  0  0  0  0  0
    8.3860    3.9254    6.4664 H   0  0  0  0  0  0  0  0  0  0  0  0
   11.7726    6.6281    5.5399 H   0  0  0  0  0  0  0  0  0  0  0  0
    9.2600    3.1829    3.0485 H   0  0  0  0  0  0  0  0  0  0  0  0
    7.8527    5.3896    8.1661 H   0  0  0  0  0  0  0  0  0  0  0  0
    9.4408    6.1680    8.0753 H   0  0  0  0  0  0  0  0  0  0  0  0
    7.1261    7.0301    6.8218 H   0  0  0  0  0  0  0  0  0  0  0  0
    7.9499    6.1745    5.5037 H   0  0  0  0  0  0  0  0  0  0  0  0
    9.1000    1.0380    2.7180 H   0  0  0  0  0  0  0  0  0  0  0  0
    8.0101   -0.6317    1.2853 H   0  0  0  0  0  0  0  0  0  0  0  0
    5.5530   -0.8345    1.2623 H   0  0  0  0  0  0  0  0  0  0  0  0
    4.1834    0.6324    2.6986 H   0  0  0  0  0  0  0  0  0  0  0  0
    5.2880    2.3056    4.1553 H   0  0  0  0  0  0  0  0  0  0  0  0
   10.3011    8.9503    8.4508 H   0  0  0  0  0  0  0  0  0  0  0  0
   12.0039   10.5158    9.3059 H   0  0  0  0  0  0  0  0  0  0  0  0
   13.8898   11.1931    7.8678 H   0  0  0  0  0  0  0  0  0  0  0  0
   14.0830   10.2856    5.5823 H   0  0  0  0  0  0  0  0  0  0  0  0
   12.3861    8.7179    4.7287 H   0  0  0  0  0  0  0  0  0  0  0  0
   11.0084    1.6996    7.3272 H   0  0  0  0  0  0  0  0  0  0  0  0
   10.8010    2.6560    5.8512 H   0  0  0  0  0  0  0  0  0  0  0  0
    9.4132    1.8354    6.5806 H   0  0  0  0  0  0  0  0  0  0  0  0
    9.8761    2.4209    9.4223 H   0  0  0  0  0  0  0  0  0  0  0  0
    8.3301    2.8120    8.6716 H   0  0  0  0  0  0  0  0  0  0  0  0
    9.2068    4.0377    9.6025 H   0  0  0  0  0  0  0  0  0  0  0  0
   11.2414    5.1850    8.5799 H   0  0  0  0  0  0  0  0  0  0  0  0
   11.8794    4.5819    7.0408 H   0  0  0  0  0  0  0  0  0  0  0  0
   12.0167    3.6095    8.5074 H   0  0  0  0  0  0  0  0  0  0  0  0
    8.1665    9.9826    7.9067 H   0  0  0  0  0  0  0  0  0  0  0  0
    6.7767    8.9481    7.5759 H   0  0  0  0  0  0  0  0  0  0  0  0
    6.8785   10.5431    6.8422 H   0  0  0  0  0  0  0  0  0  0  0  0
    8.5007   10.9979    4.9710 H   0  0  0  0  0  0  0  0  0  0  0  0
    9.7207    9.8051    4.5444 H   0  0  0  0  0  0  0  0  0  0  0  0
    9.7710   10.6190    6.1172 H   0  0  0  0  0  0  0  0  0  0  0  0
    6.3847    8.1396    5.1463 H   0  0  0  0  0  0  0  0  0  0  0  0
    7.7304    8.2244    4.0043 H   0  0  0  0  0  0  0  0  0  0  0  0
    6.7926    9.6651    4.3867 H   0  0  0  0  0  0  0  0  0  0  0  0
  1  2  1  1  0  0  0
  1  5  1  0  0  0  0
  1  4  1  0  0  0  0
  4  8  1  0  0  0  0
  4 24  1  0  0  0  0
  5 10  1  0  0  0  0
  6  9  1  0  0  0  0
  7 11  1  0  0  0  0
  7  1  1  0  0  0  0
  8 36  1  0  0  0  0
  8 35  1  0  0  0  0
  9 37  1  0  0  0  0
  9  8  1  0  0  0  0
 10  6  1  0  0  0  0
 10 18  1  1  0  0  0
 11  3  2  0  0  0  0
 12 17  1  0  0  0  0
 12 11  1  0  0  0  0
 13 39  1  0  0  0  0
 13 12  2  0  0  0  0
 14 13  1  0  0  0  0
 15 14  2  0  0  0  0
 15 16  1  0  0  0  0
 16 17  2  0  0  0  0
 17 43  1  0  0  0  0
 18 19  1  0  0  0  0
 19 20  2  0  0  0  0
 19 44  1  0  0  0  0
 20 45  1  0  0  0  0
 21 46  1  0  0  0  0
 21 20  1  0  0  0  0
 22 21  2  0  0  0  0
 23 22  1  0  0  0  0
 23 18  2  0  0  0  0
 24 27  1  0  0  0  0
 24 26  1  0  0  0  0
 25 49  1  0  0  0  0
 25 24  1  0  0  0  0
 26 52  1  0  0  0  0
 26 54  1  0  0  0  0
 27 57  1  0  0  0  0
 27 55  1  0  0  0  0
 28  6  1  0  0  0  0
 28 29  1  0  0  0  0
 29 59  1  0  0  0  0
 29 58  1  0  0  0  0
 30 28  1  0  0  0  0
 30 63  1  0  0  0  0
 31 64  1  0  0  0  0
 31 28  1  0  0  0  0
 32  4  1  0  0  0  0
 33  5  1  0  0  0  0
 34  7  1  0  0  0  0
 38  9  1  0  0  0  0
 40 14  1  0  0  0  0
 41 15  1  0  0  0  0
 42 16  1  0  0  0  0
 47 22  1  0  0  0  0
 48 23  1  0  0  0  0
 50 25  1  0  0  0  0
 51 25  1  0  0  0  0
 53 26  1  0  0  0  0
 56 27  1  0  0  0  0
 60 29  1  0  0  0  0
 61 30  1  0  0  0  0
 62 30  1  0  0  0  0
 65 31  1  0  0  0  0
 66 31  1  0  0  0  0
M  END
$$$$
