CSD_code = DOMSOP | q = 0 | S = 0 | Stoichiometry = C30H25ClN3PPdS | MND = 4
 OpenBabel04212202033D

 62 67  0  0  0  0  0  0  0  0999 V2000
   21.3754   -1.5033    9.3957 Pd  0  0  2  0  0  0  0  0  0  0  0  0
   23.4429   -1.0885   10.3158 Cl  0  0  0  0  0  0  0  0  0  0  0  0
   19.3782   -2.0161    8.3558 S   0  0  0  0  0  0  0  0  0  0  0  0
   21.9213    0.2718    8.1537 P   0  0  0  0  0  4  0  0  0  0  0  0
   19.8530   -3.8439   10.2873 N   0  0  0  0  0  0  0  0  0  0  0  0
   18.0146   -4.1765    8.9839 N   0  0  0  0  0  0  0  0  0  0  0  0
   17.9177   -5.0927    9.3867 H   0  0  0  0  0  0  0  0  0  0  0  0
   17.5433   -3.9746    8.1198 H   0  0  0  0  0  0  0  0  0  0  0  0
   20.9247   -3.0844   10.6024 N   0  0  0  0  0  0  0  0  0  0  0  0
   20.9022    0.8296    6.7499 C   0  0  0  0  0  0  0  0  0  0  0  0
   23.5366   -0.0621    7.3998 C   0  0  0  0  0  0  0  0  0  0  0  0
   22.4207   -4.9006   13.4409 C   0  0  0  0  0  0  0  0  0  0  0  0
   21.3363   -4.3773   12.6659 C   0  0  0  0  0  0  0  0  0  0  0  0
   21.9452    1.7762    9.1664 C   0  0  0  0  0  0  0  0  0  0  0  0
   23.6898   -1.3889    6.9944 C   0  0  0  0  0  0  0  0  0  0  0  0
   22.8694   -2.0964    7.1726 H   0  0  0  0  0  0  0  0  0  0  0  0
   22.1320   -5.8323   14.4746 C   0  0  0  0  0  0  0  0  0  0  0  0
   21.6034   -3.3581   11.6695 C   0  0  0  0  0  3  0  0  0  0  0  0
   22.4796   -2.7362   11.8203 H   0  0  0  0  0  0  0  0  0  0  0  0
   23.7710   -4.5652   13.2092 C   0  0  0  0  0  0  0  0  0  0  0  0
   24.0307   -3.8878   12.4112 H   0  0  0  0  0  0  0  0  0  0  0  0
   21.5204    1.6543   10.4869 C   0  0  0  0  0  0  0  0  0  0  0  0
   21.2341    0.6670   10.8694 H   0  0  0  0  0  0  0  0  0  0  0  0
   19.5874    1.1831    7.0424 C   0  0  0  0  0  0  0  0  0  0  0  0
   19.2381    1.1052    8.0658 H   0  0  0  0  0  0  0  0  0  0  0  0
   21.3625    0.8961    5.4415 C   0  0  0  0  0  0  0  0  0  0  0  0
   22.3802    0.6130    5.2103 H   0  0  0  0  0  0  0  0  0  0  0  0
   19.1183   -3.4573    9.2917 C   0  0  0  0  0  0  0  0  0  0  0  0
   20.0487   -4.8075   12.9278 C   0  0  0  0  0  0  0  0  0  0  0  0
   19.2317   -4.4078   12.3490 H   0  0  0  0  0  0  0  0  0  0  0  0
   24.7727   -5.0971   13.9755 C   0  0  0  0  0  0  0  0  0  0  0  0
   25.7997   -4.8241   13.7821 H   0  0  0  0  0  0  0  0  0  0  0  0
   20.7980   -6.2257   14.7098 C   0  0  0  0  0  0  0  0  0  0  0  0
   20.5981   -6.9328   15.5024 H   0  0  0  0  0  0  0  0  0  0  0  0
   22.2708    3.0273    8.6523 C   0  0  0  0  0  0  0  0  0  0  0  0
   22.5421    3.1284    7.6103 H   0  0  0  0  0  0  0  0  0  0  0  0
   24.5774    0.8398    7.2386 C   0  0  0  0  0  0  0  0  0  0  0  0
   24.4762    1.8567    7.5875 H   0  0  0  0  0  0  0  0  0  0  0  0
   18.7433    1.6085    6.0364 C   0  0  0  0  0  0  0  0  0  0  0  0
   17.7230    1.8793    6.2645 H   0  0  0  0  0  0  0  0  0  0  0  0
   24.8691   -1.8018    6.4074 C   0  0  0  0  0  0  0  0  0  0  0  0
   24.9917   -2.8288    6.0964 H   0  0  0  0  0  0  0  0  0  0  0  0
   19.7804   -5.7248   13.9465 C   0  0  0  0  0  0  0  0  0  0  0  0
   18.7594   -6.0276   14.1283 H   0  0  0  0  0  0  0  0  0  0  0  0
   22.2241    4.1382    9.4746 C   0  0  0  0  0  0  0  0  0  0  0  0
   22.4871    5.1095    9.0816 H   0  0  0  0  0  0  0  0  0  0  0  0
   23.1872   -6.3602   15.2480 C   0  0  0  0  0  0  0  0  0  0  0  0
   22.9476   -7.0637   16.0330 H   0  0  0  0  0  0  0  0  0  0  0  0
   19.2066    1.6800    4.7310 C   0  0  0  0  0  0  0  0  0  0  0  0
   18.5464    2.0089    3.9421 H   0  0  0  0  0  0  0  0  0  0  0  0
   20.5115    1.3237    4.4363 C   0  0  0  0  0  0  0  0  0  0  0  0
   20.8694    1.3758    3.4182 H   0  0  0  0  0  0  0  0  0  0  0  0
   21.4691    2.7706   11.3016 C   0  0  0  0  0  0  0  0  0  0  0  0
   21.1466    2.6771   12.3279 H   0  0  0  0  0  0  0  0  0  0  0  0
   25.9043   -0.8943    6.2340 C   0  0  0  0  0  0  0  0  0  0  0  0
   26.8314   -1.2164    5.7835 H   0  0  0  0  0  0  0  0  0  0  0  0
   21.8326    4.0093   10.7980 C   0  0  0  0  0  0  0  0  0  0  0  0
   21.8004    4.8804   11.4356 H   0  0  0  0  0  0  0  0  0  0  0  0
   24.4823   -5.9985   15.0082 C   0  0  0  0  0  0  0  0  0  0  0  0
   25.2858   -6.4067   15.6038 H   0  0  0  0  0  0  0  0  0  0  0  0
   25.7605    0.4167    6.6549 C   0  0  0  0  0  0  0  0  0  0  0  0
   26.5768    1.1141    6.5358 H   0  0  0  0  0  0  0  0  0  0  0  0
  1  2  1  6  0  0  0
  1  9  1  0  0  0  0
  3 28  1  0  0  0  0
  3  1  1  0  0  0  0
  4 14  1  0  0  0  0
  4  1  1  0  0  0  0
  5  9  1  0  0  0  0
  6 28  1  0  0  0  0
  6  7  1  0  0  0  0
  8  6  1  0  0  0  0
  9 18  1  0  0  0  0
 10 24  1  0  0  0  0
 10  4  1  0  0  0  0
 11  4  1  0  0  0  0
 12 17  1  0  0  0  0
 13 29  2  0  0  0  0
 13 12  1  0  0  0  0
 14 22  1  0  0  0  0
 15 16  1  0  0  0  0
 15 11  2  0  0  0  0
 17 33  1  0  0  0  0
 17 47  2  0  0  0  0
 18 19  1  0  0  0  0
 18 13  1  0  0  0  0
 20 12  2  0  0  0  0
 20 31  1  0  0  0  0
 21 20  1  0  0  0  0
 22 23  1  0  0  0  0
 22 53  2  0  0  0  0
 24 25  1  0  0  0  0
 26 10  2  0  0  0  0
 27 26  1  0  0  0  0
 28  5  2  0  0  0  0
 29 43  1  0  0  0  0
 30 29  1  0  0  0  0
 31 59  2  0  0  0  0
 32 31  1  0  0  0  0
 33 34  1  0  0  0  0
 35 14  2  0  0  0  0
 35 45  1  0  0  0  0
 36 35  1  0  0  0  0
 37 11  1  0  0  0  0
 37 38  1  0  0  0  0
 39 40  1  0  0  0  0
 39 24  2  0  0  0  0
 41 15  1  0  0  0  0
 42 41  1  0  0  0  0
 43 44  1  0  0  0  0
 43 33  2  0  0  0  0
 45 57  2  0  0  0  0
 46 45  1  0  0  0  0
 47 48  1  0  0  0  0
 49 39  1  0  0  0  0
 50 49  1  0  0  0  0
 51 49  2  0  0  0  0
 51 26  1  0  0  0  0
 52 51  1  0  0  0  0
 53 54  1  0  0  0  0
 55 41  2  0  0  0  0
 55 61  1  0  0  0  0
 56 55  1  0  0  0  0
 57 53  1  0  0  0  0
 57 58  1  0  0  0  0
 59 47  1  0  0  0  0
 59 60  1  0  0  0  0
 61 37  2  0  0  0  0
 62 61  1  0  0  0  0
M  END
$$$$
