CSD_code = DONFOC | q = 0 | S = 0 | Stoichiometry = C21H17Cl2FeN3O2 | MND = 6
 OpenBabel04212202033D

 46 51  0  0  1  0  0  0  0  0999 V2000
   -2.5362    6.8270    3.0866 Fe  0  0  0  0  0  0  0  0  0  0  0  0
   -2.3270    4.6976    2.9083 Cl  0  0  0  0  0  0  0  0  0  0  0  0
   -0.5167    7.2571    2.5142 Cl  0  0  0  0  0  0  0  0  0  0  0  0
   -1.8559    8.5214    6.6925 O   0  0  0  0  0  0  0  0  0  0  0  0
   -4.6429    6.1972    3.5821 O   0  0  0  0  0  0  0  0  0  0  0  0
   -2.9313    8.5474    3.3046 N   0  0  0  0  0  0  0  0  0  0  0  0
   -3.1214    7.1398    1.2261 N   0  0  0  0  0  0  0  0  0  0  0  0
   -2.0490    7.0475    5.0104 N   0  0  0  0  0  0  0  0  0  0  0  0
   -2.7594    9.2123    4.4722 C   0  0  0  0  0  0  0  0  0  0  0  0
   -3.1012   10.5690    4.5901 C   0  0  0  0  0  0  0  0  0  0  0  0
   -2.9487   11.0623    5.5373 H   0  0  0  0  0  0  0  0  0  0  0  0
   -3.6071   11.2474    3.5059 C   0  0  0  0  0  0  0  0  0  0  0  0
   -3.8626   12.2927    3.5826 H   0  0  0  0  0  0  0  0  0  0  0  0
   -3.7781   10.5714    2.2733 C   0  0  0  0  0  0  0  0  0  0  0  0
   -4.2602   11.1233    1.0565 C   0  0  0  0  0  0  0  0  0  0  0  0
   -4.5506   12.1638    1.0447 H   0  0  0  0  0  0  0  0  0  0  0  0
   -4.3528   10.3746   -0.0808 C   0  0  0  0  0  0  0  0  0  0  0  0
   -4.7155   10.8223   -0.9946 H   0  0  0  0  0  0  0  0  0  0  0  0
   -3.9775    9.0018   -0.1150 C   0  0  0  0  0  0  0  0  0  0  0  0
   -4.0166    8.1560   -1.2359 C   0  0  0  0  0  0  0  0  0  0  0  0
   -4.3564    8.5319   -2.1895 H   0  0  0  0  0  0  0  0  0  0  0  0
   -3.6030    6.8494   -1.0902 C   0  0  0  0  0  0  0  0  0  0  0  0
   -3.6097    6.1740   -1.9312 H   0  0  0  0  0  0  0  0  0  0  0  0
   -3.1615    6.3776    0.1496 C   0  0  0  0  0  0  0  0  0  0  0  0
   -2.8309    5.3565    0.2745 H   0  0  0  0  0  0  0  0  0  0  0  0
   -3.5125    8.4296    1.0842 C   0  0  0  0  0  0  0  0  0  0  0  0
   -3.4170    9.2169    2.2482 C   0  0  0  0  0  0  0  0  0  0  0  0
   -2.2166    8.3015    5.4165 C   0  0  1  0  0  3  0  0  0  0  0  0
   -1.5149    6.3826    6.0833 C   0  0  0  0  0  0  0  0  0  0  0  0
   -1.1291    5.0597    6.2469 C   0  0  0  0  0  0  0  0  0  0  0  0
   -1.2218    4.3680    5.4251 H   0  0  0  0  0  0  0  0  0  0  0  0
   -0.6227    4.6870    7.4799 C   0  0  0  0  0  0  0  0  0  0  0  0
   -0.5156    5.6267    8.5148 C   0  0  0  0  0  0  0  0  0  0  0  0
   -0.1148    5.3028    9.4639 H   0  0  0  0  0  0  0  0  0  0  0  0
   -0.8971    6.9479    8.3691 C   0  0  0  0  0  0  0  0  0  0  0  0
   -0.8061    7.6609    9.1721 H   0  0  0  0  0  0  0  0  0  0  0  0
   -1.3987    7.3117    7.1347 C   0  0  0  0  0  0  0  0  0  0  0  0
   -0.1779    3.2771    7.7232 C   0  0  0  0  0  0  0  0  0  0  0  0
   -0.3744    2.6570    6.8537 H   0  0  0  0  0  0  0  0  0  0  0  0
   -0.6971    2.8555    8.5826 H   0  0  0  0  0  0  0  0  0  0  0  0
    0.8902    3.2512    7.9342 H   0  0  0  0  0  0  0  0  0  0  0  0
   -5.1584    6.2223    4.9003 C   0  0  0  0  0  0  0  0  0  0  0  0
   -6.1290    5.7195    4.9317 H   0  0  0  0  0  0  0  0  0  0  0  0
   -5.2876    7.2667    5.1807 H   0  0  0  0  0  0  0  0  0  0  0  0
   -4.4768    5.7405    5.6056 H   0  0  0  0  0  0  0  0  0  0  0  0
   -4.4416    5.2680    3.3513 H   0  0  0  0  0  0  0  0  0  0  0  0
  1  6  1  0  0  0  0
  1  8  1  0  0  0  0
  2  1  1  0  0  0  0
  3  1  1  0  0  0  0
  4 37  1  0  0  0  0
  5 42  1  0  0  0  0
  6  9  1  0  0  0  0
  7  1  1  0  0  0  0
  8 28  1  0  0  0  0
  8 29  1  0  0  0  0
  9 10  2  0  0  0  0
 10 11  1  0  0  0  0
 12 13  1  0  0  0  0
 12 10  1  0  0  0  0
 14 12  2  0  0  0  0
 15 14  1  0  0  0  0
 16 15  1  0  0  0  0
 17 15  2  0  0  0  0
 18 17  1  0  0  0  0
 19 17  1  0  0  0  0
 19 26  1  0  0  0  0
 20 22  1  0  0  0  0
 20 19  2  0  0  0  0
 21 20  1  0  0  0  0
 22 24  2  0  0  0  0
 23 22  1  0  0  0  0
 24 25  1  0  0  0  0
 24  7  1  0  0  0  0
 26  7  1  0  0  0  0
 26 27  2  0  0  0  0
 27 14  1  0  0  0  0
 27  6  1  0  0  0  0
 28  9  1  1  0  0  0
 28  4  1  0  0  0  0
 29 30  2  0  0  0  0
 29 37  1  0  0  0  0
 30 32  1  0  0  0  0
 31 30  1  0  0  0  0
 32 38  1  0  0  0  0
 32 33  2  0  0  0  0
 33 34  1  0  0  0  0
 35 33  1  0  0  0  0
 35 36  1  0  0  0  0
 37 35  2  0  0  0  0
 38 41  1  0  0  0  0
 38 40  1  0  0  0  0
 39 38  1  0  0  0  0
 42 43  1  0  0  0  0
 42 44  1  0  0  0  0
 42 45  1  0  0  0  0
 46  5  1  0  0  0  0
M  END
$$$$
