CSD_code = DOPPOQ | q = 0 | S = 0 | Stoichiometry = C28H22Br2HgN6O2 | MND = 4
 OpenBabel04212202033D

 61 66  0  0  0  0  0  0  0  0999 V2000
    7.2669    8.4479    6.8388 Hg  0  0  0  0  0  0  0  0  0  0  0  0
    8.6373    6.1201    4.8835 C   0  0  0  0  0  3  0  0  0  0  0  0
    8.0967    6.5259    4.0534 H   0  0  0  0  0  0  0  0  0  0  0  0
    8.6322    6.6195    6.0913 N   0  0  0  0  0  0  0  0  0  0  0  0
    9.3893    5.8353    6.8750 N   0  0  0  0  0  0  0  0  0  0  0  0
    9.8442    4.8739    6.1344 C   0  0  0  0  0  0  0  0  0  0  0  0
   10.4994    4.1019    6.4785 H   0  0  0  0  0  0  0  0  0  0  0  0
    9.3979    5.0016    4.8508 N   0  0  0  0  0  0  0  0  0  0  0  0
    9.6686    4.1742    3.7465 C   0  0  0  0  0  0  0  0  0  0  0  0
    9.9833    2.8326    3.9412 C   0  0  0  0  0  0  0  0  0  0  0  0
    9.9977    2.4150    4.9358 H   0  0  0  0  0  0  0  0  0  0  0  0
   10.2665    2.0273    2.8597 C   0  0  0  0  0  0  0  0  0  0  0  0
   10.5104    0.9859    2.9953 H   0  0  0  0  0  0  0  0  0  0  0  0
   10.2339    2.5452    1.5639 C   0  0  0  0  0  0  0  0  0  0  0  0
    9.8929    3.8832    1.3726 C   0  0  0  0  0  0  0  0  0  0  0  0
    9.8329    4.2889    0.3744 H   0  0  0  0  0  0  0  0  0  0  0  0
    9.6192    4.6919    2.4570 C   0  0  0  0  0  0  0  0  0  0  0  0
    9.3722    5.7293    2.2951 H   0  0  0  0  0  0  0  0  0  0  0  0
   10.4751    1.6707    0.5575 O   0  0  0  0  0  0  0  0  0  0  0  0
   10.8817    2.1104   -0.6851 C   0  0  0  0  0  0  0  0  0  0  0  0
   11.8398    3.1037   -0.8491 C   0  0  0  0  0  0  0  0  0  0  0  0
   12.2633    3.5933    0.0160 H   0  0  0  0  0  0  0  0  0  0  0  0
   12.2538    3.4475   -2.1234 C   0  0  0  0  0  0  0  0  0  0  0  0
   12.9964    4.2210   -2.2487 H   0  0  0  0  0  0  0  0  0  0  0  0
   11.7275    2.8030   -3.2300 C   0  0  0  0  0  0  0  0  0  0  0  0
   12.0544    3.0772   -4.2212 H   0  0  0  0  0  0  0  0  0  0  0  0
   10.7870    1.8007   -3.0605 C   0  0  0  0  0  0  0  0  0  0  0  0
   10.3793    1.2890   -3.9191 H   0  0  0  0  0  0  0  0  0  0  0  0
   10.3608    1.4521   -1.7924 C   0  0  0  0  0  0  0  0  0  0  0  0
    9.6302    0.6729   -1.6410 H   0  0  0  0  0  0  0  0  0  0  0  0
    6.5855    9.0044    4.5714 Br  0  0  0  0  0  0  0  0  0  0  0  0
    5.8975    6.1226    8.7976 C   0  0  0  0  0  3  0  0  0  0  0  0
    6.4397    6.5274    9.6271 H   0  0  0  0  0  0  0  0  0  0  0  0
    5.9028    6.6218    7.5898 N   0  0  0  0  0  0  0  0  0  0  0  0
    5.1427    5.8396    6.8069 N   0  0  0  0  0  0  0  0  0  0  0  0
    4.6861    4.8794    7.5481 C   0  0  0  0  0  0  0  0  0  0  0  0
    4.0283    4.1092    7.2049 H   0  0  0  0  0  0  0  0  0  0  0  0
    5.1340    5.0060    8.8312 N   0  0  0  0  0  0  0  0  0  0  0  0
    4.8637    4.1781    9.9350 C   0  0  0  0  0  0  0  0  0  0  0  0
    4.5468    2.8371    9.7395 C   0  0  0  0  0  0  0  0  0  0  0  0
    4.5296    2.4208    8.7444 H   0  0  0  0  0  0  0  0  0  0  0  0
    4.2648    2.0310   10.8206 C   0  0  0  0  0  0  0  0  0  0  0  0
    4.0191    0.9901   10.6844 H   0  0  0  0  0  0  0  0  0  0  0  0
    4.3011    2.5473   12.1170 C   0  0  0  0  0  0  0  0  0  0  0  0
    4.6441    3.8846   12.3091 C   0  0  0  0  0  0  0  0  0  0  0  0
    4.7071    4.2890   13.3076 H   0  0  0  0  0  0  0  0  0  0  0  0
    4.9163    4.6943   11.2250 C   0  0  0  0  0  0  0  0  0  0  0  0
    5.1650    5.7312   11.3875 H   0  0  0  0  0  0  0  0  0  0  0  0
    4.0615    1.6715   13.1228 O   0  0  0  0  0  0  0  0  0  0  0  0
    3.6586    2.1099   14.3670 C   0  0  0  0  0  0  0  0  0  0  0  0
    2.7037    3.1057   14.5349 C   0  0  0  0  0  0  0  0  0  0  0  0
    2.2792    3.5975   13.6717 H   0  0  0  0  0  0  0  0  0  0  0  0
    2.2942    3.4490   15.8107 C   0  0  0  0  0  0  0  0  0  0  0  0
    1.5541    4.2245   15.9390 H   0  0  0  0  0  0  0  0  0  0  0  0
    2.8214    2.8014   16.9151 C   0  0  0  0  0  0  0  0  0  0  0  0
    2.4981    3.0754   17.9075 H   0  0  0  0  0  0  0  0  0  0  0  0
    3.7580    1.7961   16.7417 C   0  0  0  0  0  0  0  0  0  0  0  0
    4.1663    1.2820   17.5985 H   0  0  0  0  0  0  0  0  0  0  0  0
    4.1800    1.4482   15.4720 C   0  0  0  0  0  0  0  0  0  0  0  0
    4.9078    0.6670   15.3176 H   0  0  0  0  0  0  0  0  0  0  0  0
    7.9466    9.0122    9.1047 Br  0  0  0  0  0  0  0  0  0  0  0  0
  1 34  1  0  0  0  0
  1 61  1  0  0  0  0
  2  4  1  0  0  0  0
  3  2  1  0  0  0  0
  4  1  1  0  0  0  0
  4  5  1  0  0  0  0
  6  7  1  0  0  0  0
  6  5  2  0  0  0  0
  8  2  1  0  0  0  0
  8  6  1  0  0  0  0
  9 10  1  0  0  0  0
  9  8  1  0  0  0  0
 10 11  1  0  0  0  0
 12 13  1  0  0  0  0
 12 10  2  0  0  0  0
 14 12  1  0  0  0  0
 15 14  2  0  0  0  0
 15 17  1  0  0  0  0
 16 15  1  0  0  0  0
 17  9  2  0  0  0  0
 18 17  1  0  0  0  0
 19 14  1  0  0  0  0
 20 19  1  0  0  0  0
 21 20  1  0  0  0  0
 21 22  1  0  0  0  0
 23 21  2  0  0  0  0
 24 23  1  0  0  0  0
 25 27  2  0  0  0  0
 25 23  1  0  0  0  0
 26 25  1  0  0  0  0
 27 29  1  0  0  0  0
 28 27  1  0  0  0  0
 29 30  1  0  0  0  0
 29 20  2  0  0  0  0
 31  1  1  0  0  0  0
 32 38  1  0  0  0  0
 32 33  1  0  0  0  0
 34 32  1  0  0  0  0
 35 36  2  0  0  0  0
 35 34  1  0  0  0  0
 36 38  1  0  0  0  0
 37 36  1  0  0  0  0
 38 39  1  0  0  0  0
 39 47  1  0  0  0  0
 40 39  2  0  0  0  0
 40 42  1  0  0  0  0
 41 40  1  0  0  0  0
 42 44  2  0  0  0  0
 43 42  1  0  0  0  0
 44 45  1  0  0  0  0
 44 49  1  0  0  0  0
 45 46  1  0  0  0  0
 47 48  1  0  0  0  0
 47 45  2  0  0  0  0
 49 50  1  0  0  0  0
 50 51  2  0  0  0  0
 50 59  1  0  0  0  0
 51 53  1  0  0  0  0
 52 51  1  0  0  0  0
 53 54  1  0  0  0  0
 53 55  2  0  0  0  0
 55 56  1  0  0  0  0
 57 55  1  0  0  0  0
 57 58  1  0  0  0  0
 59 57  2  0  0  0  0
 60 59  1  0  0  0  0
M  END
$$$$
