CSD_code = DOPROS | q = 0 | S = 0 | Stoichiometry = C31H25ClNiP2S | MND = 4
 OpenBabel04212202033D

 61 68  0  0  1  0  0  0  0  0999 V2000
    6.1002    5.0410    5.8479 Ni  0  0  0  0  0  0  0  0  0  0  0  0
    6.7279    5.6162    7.7627 Cl  0  0  0  0  0  0  0  0  0  0  0  0
    7.5157    3.2189    5.2474 S   0  0  0  0  0  0  0  0  0  0  0  0
    4.9343    6.7635    5.8790 P   0  0  0  0  0  4  0  0  0  0  0  0
    6.8792    4.2396    3.6796 P   0  0  0  0  0  0  0  0  0  0  0  0
    5.2012    4.6687    4.1306 C   0  0  2  0  0  0  0  0  0  0  0  0
    4.5908    3.7529    4.1569 H   0  0  0  0  0  0  0  0  0  0  0  0
    4.5484    5.8070    3.4224 C   0  0  0  0  0  0  0  0  0  0  0  0
    4.1304    5.7640    2.1000 C   0  0  0  0  0  0  0  0  0  0  0  0
    4.2770    4.8658    1.5148 H   0  0  0  0  0  0  0  0  0  0  0  0
    3.5423    6.8796    1.5277 C   0  0  0  0  0  0  0  0  0  0  0  0
    3.2332    6.8480    0.4930 H   0  0  0  0  0  0  0  0  0  0  0  0
    3.3499    8.0357    2.2680 C   0  0  0  0  0  0  0  0  0  0  0  0
    2.8850    8.8964    1.8105 H   0  0  0  0  0  0  0  0  0  0  0  0
    3.7505    8.0906    3.5922 C   0  0  0  0  0  0  0  0  0  0  0  0
    3.5988    8.9871    4.1762 H   0  0  0  0  0  0  0  0  0  0  0  0
    4.3563    6.9804    4.1589 C   0  0  0  0  0  0  0  0  0  0  0  0
    3.4115    6.3340    6.7632 C   0  0  0  0  0  0  0  0  0  0  0  0
    3.2875    5.0161    7.1931 C   0  0  0  0  0  0  0  0  0  0  0  0
    4.1291    4.3278    7.0406 H   0  0  0  0  0  0  0  0  0  0  0  0
    2.1304    4.6006    7.8244 C   0  0  0  0  0  0  0  0  0  0  0  0
    2.0338    3.5807    8.1652 H   0  0  0  0  0  0  0  0  0  0  0  0
    1.0963    5.5020    8.0230 C   0  0  0  0  0  0  0  0  0  0  0  0
    0.1915    5.1817    8.5181 H   0  0  0  0  0  0  0  0  0  0  0  0
    1.2177    6.8148    7.5933 C   0  0  0  0  0  0  0  0  0  0  0  0
    0.4076    7.5114    7.7531 H   0  0  0  0  0  0  0  0  0  0  0  0
    5.2694    8.6925    7.8313 C   0  0  0  0  0  0  0  0  0  0  0  0
    4.8539    7.9480    8.4947 H   0  0  0  0  0  0  0  0  0  0  0  0
    5.6771    9.9230    8.3100 C   0  0  0  0  0  0  0  0  0  0  0  0
    5.5633   10.1559    9.3581 H   0  0  0  0  0  0  0  0  0  0  0  0
    6.2401   10.8528    7.4495 C   0  0  0  0  0  0  0  0  0  0  0  0
    6.5595   11.8130    7.8270 H   0  0  0  0  0  0  0  0  0  0  0  0
    6.4054   10.5487    6.1079 C   0  0  0  0  0  0  0  0  0  0  0  0
    6.8572   11.2688    5.4411 H   0  0  0  0  0  0  0  0  0  0  0  0
    5.9991    9.3200    5.6197 C   0  0  0  0  0  0  0  0  0  0  0  0
    6.1384    9.0713    4.5765 H   0  0  0  0  0  0  0  0  0  0  0  0
    2.3725    7.2363    6.9598 C   0  0  0  0  0  0  0  0  0  0  0  0
    2.4765    8.2587    6.6243 H   0  0  0  0  0  0  0  0  0  0  0  0
    5.4134    8.3955    6.4788 C   0  0  0  0  0  0  0  0  0  0  0  0
    7.1547    3.3267    2.1287 C   0  0  0  0  0  0  0  0  0  0  0  0
    8.4072    3.3714    1.5279 C   0  0  0  0  0  0  0  0  0  0  0  0
    9.1742    4.0099    1.9471 H   0  0  0  0  0  0  0  0  0  0  0  0
    8.6563    2.6017    0.4074 C   0  0  0  0  0  0  0  0  0  0  0  0
    9.6278    2.6342   -0.0633 H   0  0  0  0  0  0  0  0  0  0  0  0
    7.6613    1.7843   -0.1068 C   0  0  0  0  0  0  0  0  0  0  0  0
    7.8588    1.1829   -0.9819 H   0  0  0  0  0  0  0  0  0  0  0  0
    6.4180    1.7273    0.5026 C   0  0  0  0  0  0  0  0  0  0  0  0
    5.6485    1.0817    0.1048 H   0  0  0  0  0  0  0  0  0  0  0  0
    6.1644    2.4940    1.6256 C   0  0  0  0  0  0  0  0  0  0  0  0
    5.2006    2.4492    2.1167 H   0  0  0  0  0  0  0  0  0  0  0  0
    7.6597    5.8739    3.4293 C   0  0  0  0  0  0  0  0  0  0  0  0
    8.2161    6.5124    4.5337 C   0  0  0  0  0  0  0  0  0  0  0  0
    8.3039    5.9833    5.4868 H   0  0  0  0  0  0  0  0  0  0  0  0
    8.6978    7.8041    4.4101 C   0  0  0  0  0  0  0  0  0  0  0  0
    9.1304    8.2992    5.2666 H   0  0  0  0  0  0  0  0  0  0  0  0
    8.6147    8.4570    3.1904 C   0  0  0  0  0  0  0  0  0  0  0  0
    8.9882    9.4660    3.0933 H   0  0  0  0  0  0  0  0  0  0  0  0
    8.0535    7.8220    2.0932 C   0  0  0  0  0  0  0  0  0  0  0  0
    7.9867    8.3359    1.1452 H   0  0  0  0  0  0  0  0  0  0  0  0
    7.5728    6.5301    2.2081 C   0  0  0  0  0  0  0  0  0  0  0  0
    7.1290    6.0303    1.3575 H   0  0  0  0  0  0  0  0  0  0  0  0
  1  4  1  0  0  0  0
  1  2  1  0  0  0  0
  3  1  1  0  0  0  0
  4 39  1  0  0  0  0
  4 18  1  0  0  0  0
  5  6  1  0  0  0  0
  5  3  1  0  0  0  0
  5  1  1  0  0  0  0
  6  7  1  1  0  0  0
  6  1  1  0  0  0  0
  8  6  1  0  0  0  0
  8 17  1  0  0  0  0
  9  8  2  0  0  0  0
 10  9  1  0  0  0  0
 11  9  1  0  0  0  0
 11 13  2  0  0  0  0
 12 11  1  0  0  0  0
 13 15  1  0  0  0  0
 14 13  1  0  0  0  0
 15 17  2  0  0  0  0
 15 16  1  0  0  0  0
 17  4  1  0  0  0  0
 18 37  2  0  0  0  0
 18 19  1  0  0  0  0
 19 21  2  0  0  0  0
 20 19  1  0  0  0  0
 21 23  1  0  0  0  0
 21 22  1  0  0  0  0
 23 24  1  0  0  0  0
 25 26  1  0  0  0  0
 25 23  2  0  0  0  0
 27 29  1  0  0  0  0
 27 28  1  0  0  0  0
 29 30  1  0  0  0  0
 31 32  1  0  0  0  0
 31 29  2  0  0  0  0
 33 31  1  0  0  0  0
 34 33  1  0  0  0  0
 35 33  2  0  0  0  0
 35 39  1  0  0  0  0
 36 35  1  0  0  0  0
 37 25  1  0  0  0  0
 38 37  1  0  0  0  0
 39 27  2  0  0  0  0
 40  5  1  0  0  0  0
 41 42  1  0  0  0  0
 41 40  2  0  0  0  0
 43 41  1  0  0  0  0
 44 43  1  0  0  0  0
 45 43  2  0  0  0  0
 45 47  1  0  0  0  0
 46 45  1  0  0  0  0
 47 49  2  0  0  0  0
 48 47  1  0  0  0  0
 49 50  1  0  0  0  0
 49 40  1  0  0  0  0
 51  5  1  0  0  0  0
 51 52  1  0  0  0  0
 52 53  1  0  0  0  0
 54 52  2  0  0  0  0
 54 55  1  0  0  0  0
 56 54  1  0  0  0  0
 57 56  1  0  0  0  0
 58 60  1  0  0  0  0
 58 56  2  0  0  0  0
 59 58  1  0  0  0  0
 60 51  2  0  0  0  0
 61 60  1  0  0  0  0
M  END
$$$$
