CSD_code = DOPZEO | q = 0 | S = 0 | Stoichiometry = C12H16I2N4Zn | MND = 4
 OpenBabel04212202033D

 35 36  0  0  1  0  0  0  0  0999 V2000
    1.4828    4.8954    8.9839 Zn  0  0  0  0  0  0  0  0  0  0  0  0
    3.6023    6.1906    8.4865 I   0  0  0  0  0  0  0  0  0  0  0  0
   -0.7123    5.4832   10.0865 I   0  0  0  0  0  0  0  0  0  0  0  0
    2.1675    3.0605   10.0650 N   0  0  0  0  0  0  0  0  0  0  0  0
    3.0443    1.1103   11.8186 N   0  0  0  0  0  0  0  0  0  0  0  0
    1.4055    1.9927   10.3273 C   0  0  1  0  0  3  0  0  0  0  0  0
    1.8766    1.0243   11.2170 C   0  0  0  0  0  0  0  0  0  0  0  0
    1.2834    0.1493   11.4445 H   0  0  0  0  0  0  0  0  0  0  0  0
    3.8004    2.1718   11.5584 C   0  0  0  0  0  0  0  0  0  0  0  0
    3.3483    3.1455   10.6714 C   0  0  0  0  0  0  0  0  0  0  0  0
    3.9604    4.0071   10.4449 H   0  0  0  0  0  0  0  0  0  0  0  0
    0.0715    1.8519    9.6835 C   0  0  0  0  0  0  0  0  0  0  0  0
    0.0233    2.3923    8.7414 H   0  0  0  0  0  0  0  0  0  0  0  0
   -0.6963    2.2581   10.3437 H   0  0  0  0  0  0  0  0  0  0  0  0
   -0.1563    0.8026    9.5095 H   0  0  0  0  0  0  0  0  0  0  0  0
    5.1196    2.2815   12.2406 C   0  0  0  0  0  0  0  0  0  0  0  0
    5.3293    1.3595   12.7744 H   0  0  0  0  0  0  0  0  0  0  0  0
    5.1024    3.1069   12.9511 H   0  0  0  0  0  0  0  0  0  0  0  0
    5.9092    2.4795   11.5187 H   0  0  0  0  0  0  0  0  0  0  0  0
    1.1414    4.0650    6.9534 N   0  0  0  0  0  0  0  0  0  0  0  0
    1.1970    3.0932    4.3692 N   0  0  0  0  0  0  0  0  0  0  0  0
    0.5229    4.7273    5.9691 C   0  0  1  0  0  3  0  0  0  0  0  0
    0.5629    4.2061    4.6738 C   0  0  0  0  0  0  0  0  0  0  0  0
    0.0643    4.7100    3.8575 H   0  0  0  0  0  0  0  0  0  0  0  0
    1.8299    2.4494    5.3440 C   0  0  0  0  0  0  0  0  0  0  0  0
    1.7899    2.9475    6.6428 C   0  0  0  0  0  0  0  0  0  0  0  0
    2.2987    2.4364    7.4488 H   0  0  0  0  0  0  0  0  0  0  0  0
   -0.1879    5.9943    6.2827 C   0  0  0  0  0  0  0  0  0  0  0  0
    0.4545    6.6642    6.8556 H   0  0  0  0  0  0  0  0  0  0  0  0
   -1.0776    5.7935    6.8808 H   0  0  0  0  0  0  0  0  0  0  0  0
   -0.4912    6.4980    5.3692 H   0  0  0  0  0  0  0  0  0  0  0  0
    2.5726    1.2047    4.9963 C   0  0  0  0  0  0  0  0  0  0  0  0
    2.3851    0.9527    3.9569 H   0  0  0  0  0  0  0  0  0  0  0  0
    2.2615    0.3799    5.6349 H   0  0  0  0  0  0  0  0  0  0  0  0
    3.6418    1.3569    5.1375 H   0  0  0  0  0  0  0  0  0  0  0  0
  1  4  1  0  0  0  0
  1  3  1  0  0  0  0
  2  1  1  0  0  0  0
  4  6  1  0  0  0  0
  4 10  1  0  0  0  0
  6 12  1  1  0  0  0
  6  7  1  0  0  0  0
  7  8  1  0  0  0  0
  7  5  2  0  0  0  0
  9  5  1  0  0  0  0
  9 16  1  0  0  0  0
 10  9  2  0  0  0  0
 11 10  1  0  0  0  0
 12 14  1  0  0  0  0
 13 12  1  0  0  0  0
 15 12  1  0  0  0  0
 16 17  1  0  0  0  0
 16 18  1  0  0  0  0
 19 16  1  0  0  0  0
 20  1  1  0  0  0  0
 21 23  2  0  0  0  0
 21 25  1  0  0  0  0
 22 28  1  1  0  0  0
 22 20  1  0  0  0  0
 23 22  1  0  0  0  0
 24 23  1  0  0  0  0
 25 26  2  0  0  0  0
 26 20  1  0  0  0  0
 26 27  1  0  0  0  0
 28 29  1  0  0  0  0
 28 30  1  0  0  0  0
 31 28  1  0  0  0  0
 32 35  1  0  0  0  0
 32 25  1  0  0  0  0
 32 34  1  0  0  0  0
 33 32  1  0  0  0  0
M  END
$$$$
