CSD_code = DOTMAC | q = 0 | S = 0 | Stoichiometry = C15H23IN2Pt | MND = 6
 OpenBabel04212202033D

 42 43  0  0  0  0  0  0  0  0999 V2000
    6.4018    4.3514    4.2698 Pt  0  0  0  0  0  0  0  0  0  0  0  0
    8.8197    3.1593    4.7417 I   0  0  0  0  0  0  0  0  0  0  0  0
    7.0036    4.4735    2.0641 N   0  0  0  0  0  0  0  0  0  0  0  0
    5.7710    1.2824    4.6432 C   0  0  0  0  0  3  0  0  0  0  0  0
    6.3400    1.4965    5.5374 H   0  0  0  0  0  0  0  0  0  0  0  0
    4.8296    2.0637    2.7226 C   0  0  0  0  0  0  0  0  0  0  0  0
    4.6276    2.9103    2.0792 H   0  0  0  0  0  0  0  0  0  0  0  0
    7.5410    3.4298    1.4409 C   0  0  0  0  0  3  0  0  0  0  0  0
    7.5805    2.4965    1.9860 H   0  0  0  0  0  0  0  0  0  0  0  0
    6.9622    5.6303    1.4101 C   0  0  0  0  0  0  0  0  0  0  0  0
    6.5193    6.4671    1.9332 H   0  0  0  0  0  0  0  0  0  0  0  0
    4.6437   -0.2754    3.2111 C   0  0  0  0  0  0  0  0  0  0  0  0
    7.4578    5.7904    0.1297 C   0  0  0  0  0  0  0  0  0  0  0  0
    7.4068    6.7573   -0.3472 H   0  0  0  0  0  0  0  0  0  0  0  0
    4.1670   -1.6521    2.8865 C   0  0  0  0  0  0  0  0  0  0  0  0
    4.8629   -2.3997    3.2597 H   0  0  0  0  0  0  0  0  0  0  0  0
    4.0427   -1.7795    1.8138 H   0  0  0  0  0  0  0  0  0  0  0  0
    3.2012   -1.8256    3.3623 H   0  0  0  0  0  0  0  0  0  0  0  0
    5.3547   -0.0083    4.3761 C   0  0  0  0  0  0  0  0  0  0  0  0
    5.5929   -0.8004    5.0688 H   0  0  0  0  0  0  0  0  0  0  0  0
    4.3799    0.8043    2.3739 C   0  0  0  0  0  0  0  0  0  0  0  0
    3.8310    0.6662    1.4546 H   0  0  0  0  0  0  0  0  0  0  0  0
    8.0548    3.4975    0.1600 C   0  0  0  0  0  0  0  0  0  0  0  0
    8.4854    2.6163   -0.2899 H   0  0  0  0  0  0  0  0  0  0  0  0
    5.7873    4.2766    6.2342 C   0  0  0  0  0  0  0  0  0  0  0  0
    5.0119    3.5114    6.3333 H   0  0  0  0  0  0  0  0  0  0  0  0
    5.3779    5.2231    6.5880 H   0  0  0  0  0  0  0  0  0  0  0  0
    6.6301    4.0081    6.8737 H   0  0  0  0  0  0  0  0  0  0  0  0
    7.2372    6.1932    4.6474 C   0  0  0  0  0  0  0  0  0  0  0  0
    7.6348    6.2287    5.6636 H   0  0  0  0  0  0  0  0  0  0  0  0
    6.5470    7.0288    4.5204 H   0  0  0  0  0  0  0  0  0  0  0  0
    8.0747    6.3182    3.9542 H   0  0  0  0  0  0  0  0  0  0  0  0
    5.5203    2.3055    3.8316 N   0  0  0  0  0  0  0  0  0  0  0  0
    4.5601    5.1980    3.8618 C   0  0  0  0  0  0  0  0  0  0  0  0
    3.7663    4.5064    4.1509 H   0  0  0  0  0  0  0  0  0  0  0  0
    4.4780    5.3757    2.7865 H   0  0  0  0  0  0  0  0  0  0  0  0
    4.3721    6.1422    4.3705 H   0  0  0  0  0  0  0  0  0  0  0  0
    8.0286    4.7058   -0.5280 C   0  0  0  0  0  0  0  0  0  0  0  0
    8.5693    4.8270   -1.9140 C   0  0  0  0  0  0  0  0  0  0  0  0
    7.7896    4.5786   -2.6351 H   0  0  0  0  0  0  0  0  0  0  0  0
    9.3989    4.1408   -2.0663 H   0  0  0  0  0  0  0  0  0  0  0  0
    8.9019    5.8427   -2.1135 H   0  0  0  0  0  0  0  0  0  0  0  0
  1 29  1  0  0  0  0
  1  2  1  0  0  0  0
  1 25  1  0  0  0  0
  3  1  1  0  0  0  0
  4  5  1  0  0  0  0
  6 33  1  0  0  0  0
  7  6  1  0  0  0  0
  8  9  1  0  0  0  0
  8  3  1  0  0  0  0
 10 11  1  0  0  0  0
 10  3  1  0  0  0  0
 12 19  2  0  0  0  0
 13 10  2  0  0  0  0
 14 13  1  0  0  0  0
 15 12  1  0  0  0  0
 15 16  1  0  0  0  0
 15 18  1  0  0  0  0
 17 15  1  0  0  0  0
 19  4  1  0  0  0  0
 19 20  1  0  0  0  0
 21  6  2  0  0  0  0
 21 12  1  0  0  0  0
 22 21  1  0  0  0  0
 23  8  1  0  0  0  0
 24 23  1  0  0  0  0
 25 26  1  0  0  0  0
 25 27  1  0  0  0  0
 25 28  1  0  0  0  0
 29 30  1  0  0  0  0
 31 29  1  0  0  0  0
 32 29  1  0  0  0  0
 33  1  1  0  0  0  0
 33  4  1  0  0  0  0
 34 35  1  0  0  0  0
 34  1  1  0  0  0  0
 34 37  1  0  0  0  0
 36 34  1  0  0  0  0
 38 13  1  0  0  0  0
 38 23  2  0  0  0  0
 39 38  1  0  0  0  0
 40 39  1  0  0  0  0
 41 39  1  0  0  0  0
 42 39  1  0  0  0  0
M  END
$$$$
