CSD_code = DOTTEN | q = 0 | S = 0 | Stoichiometry = C23H26ClIrN4 | MND = 6
 OpenBabel04212202033D

 55 57  0  0  1  0  0  0  0  0999 V2000
    1.3870    4.2920    7.5349 Ir  0  0  0  0  0  0  0  0  0  0  0  0
   -0.9335    4.2931    7.9527 Cl  0  0  0  0  0 15  0  0  0  0  0  0
    0.4082    5.3643    4.8938 N   0  0  0  0  0  0  0  0  0  0  0  0
    1.8398    7.1417    5.2783 N   0  0  0  0  0  0  0  0  0  0  0  0
    0.8065    4.2921    5.6156 C   0  0  2  0  0  3  0  0  0  0  0  0
   -0.2194    4.9673    3.7395 C   0  0  0  0  0  0  0  0  0  0  0  0
    0.5955    6.7009    5.3226 C   0  0  0  0  0  0  0  0  0  0  0  0
   -0.4938    7.4579    5.7690 C   0  0  0  0  0  0  0  0  0  0  0  0
   -0.2029    8.7474    6.1988 C   0  0  0  0  0  0  0  0  0  0  0  0
    1.1005    9.2160    6.1648 C   0  0  0  0  0  0  0  0  0  0  0  0
    2.0906    8.3699    5.6939 C   0  0  0  0  0  0  0  0  0  0  0  0
   -1.8697    6.8887    5.8359 C   0  0  0  0  0  0  0  0  0  0  0  0
    1.8152    4.9847    9.5179 C   0  0  0  0  0  3  0  0  0  0  0  0
    3.0850    5.7984    9.6227 C   0  0  0  0  0  0  0  0  0  0  0  0
    3.9302    5.8189    8.3271 C   0  0  0  0  0  0  0  0  0  0  0  0
    3.3542    4.9957    7.1953 C   0  0  1  0  0  0  0  0  0  0  0  0
   -0.5859    5.6673    3.0170 H   0  0  0  0  0  0  0  0  0  0  0  0
   -0.9997    9.3764    6.5696 H   0  0  0  0  0  0  0  0  0  0  0  0
    1.3402   10.2129    6.5003 H   0  0  0  0  0  0  0  0  0  0  0  0
    3.1259    8.6779    5.6412 H   0  0  0  0  0  0  0  0  0  0  0  0
   -2.1977    6.5235    4.8643 H   0  0  0  0  0  0  0  0  0  0  0  0
   -2.5768    7.6339    6.1903 H   0  0  0  0  0  0  0  0  0  0  0  0
   -1.8724    6.0421    6.5271 H   0  0  0  0  0  0  0  0  0  0  0  0
    0.9234    5.4969    9.8752 H   0  0  0  0  0  0  0  0  0  0  0  0
    2.8186    6.8222    9.8886 H   0  0  0  0  0  0  0  0  0  0  0  0
    3.6848    5.3966   10.4457 H   0  0  0  0  0  0  0  0  0  0  0  0
    4.9395    5.4539    8.5430 H   0  0  0  0  0  0  0  0  0  0  0  0
    4.0259    6.8497    7.9844 H   0  0  0  0  0  0  0  0  0  0  0  0
    3.4194    5.4878    6.2282 H   0  0  0  0  0  0  0  0  0  0  0  0
    0.4078    3.2198    4.8942 N   0  0  0  0  0  0  0  0  0  0  0  0
    1.8393    1.4426    5.2805 N   0  0  0  0  0  0  0  0  0  0  0  0
   -0.2196    3.6165    3.7397 C   0  0  0  0  0  0  0  0  0  0  0  0
    0.5948    1.8833    5.3236 C   0  0  0  0  0  0  0  0  0  0  0  0
   -0.4947    1.1265    5.7694 C   0  0  0  0  0  0  0  0  0  0  0  0
   -0.2042   -0.1630    6.1997 C   0  0  0  0  0  0  0  0  0  0  0  0
    1.0993   -0.6317    6.1666 C   0  0  0  0  0  0  0  0  0  0  0  0
    2.0897    0.2145    5.6965 C   0  0  0  0  0  0  0  0  0  0  0  0
   -1.8706    1.6958    5.8356 C   0  0  0  0  0  0  0  0  0  0  0  0
   -0.5862    2.9165    3.0174 H   0  0  0  0  0  0  0  0  0  0  0  0
   -1.0013   -0.7920    6.5699 H   0  0  0  0  0  0  0  0  0  0  0  0
    1.3387   -1.6285    6.5024 H   0  0  0  0  0  0  0  0  0  0  0  0
    3.1251   -0.0935    5.6449 H   0  0  0  0  0  0  0  0  0  0  0  0
   -2.1982    2.0608    4.8638 H   0  0  0  0  0  0  0  0  0  0  0  0
   -2.5779    0.9507    6.1898 H   0  0  0  0  0  0  0  0  0  0  0  0
   -1.8736    2.5425    6.5267 H   0  0  0  0  0  0  0  0  0  0  0  0
    1.8090    3.5984    9.5181 C   0  0  0  0  0  3  0  0  0  0  0  0
    3.0706    2.7721    9.6216 C   0  0  0  0  0  0  0  0  0  0  0  0
    3.9372    2.7796    8.3400 C   0  0  0  0  0  0  0  0  0  0  0  0
    3.3564    3.5901    7.2011 C   0  0  0  0  0  3  0  0  0  0  0  0
    0.9134    3.0939    9.8766 H   0  0  0  0  0  0  0  0  0  0  0  0
    2.7918    1.7439    9.8561 H   0  0  0  0  0  0  0  0  0  0  0  0
    3.6600    3.1471   10.4648 H   0  0  0  0  0  0  0  0  0  0  0  0
    4.9321    3.1723    8.5730 H   0  0  0  0  0  0  0  0  0  0  0  0
    4.0671    1.7527    7.9969 H   0  0  0  0  0  0  0  0  0  0  0  0
    3.4220    3.0908    6.2378 H   0  0  0  0  0  0  0  0  0  0  0  0
  3  7  1  0  0  0  0
  3  5  1  0  0  0  0
  4  7  2  0  0  0  0
  4 11  1  0  0  0  0
  5  1  1  1  0  0  0
  6 32  2  0  0  0  0
  6  3  1  0  0  0  0
  7  8  1  0  0  0  0
  8 12  1  0  0  0  0
  8  9  2  0  0  0  0
  9 18  1  0  0  0  0
 10  9  1  0  0  0  0
 10 19  1  0  0  0  0
 11 10  2  0  0  0  0
 12 22  1  0  0  0  0
 12 23  1  0  0  0  0
 13 46  1  0  0  0  0
 13 14  1  0  0  0  0
 13 24  1  0  0  0  0
 14 25  1  0  0  0  0
 14 26  1  0  0  0  0
 15 27  1  0  0  0  0
 15 14  1  0  0  0  0
 16 29  1  6  0  0  0
 16 49  1  0  0  0  0
 16  1  1  0  0  0  0
 16 15  1  0  0  0  0
 17  6  1  0  0  0  0
 20 11  1  0  0  0  0
 21 12  1  0  0  0  0
 28 15  1  0  0  0  0
 30 33  1  0  0  0  0
 30  5  1  0  0  0  0
 31 33  2  0  0  0  0
 31 37  1  0  0  0  0
 32 30  1  0  0  0  0
 33 34  1  0  0  0  0
 34 38  1  0  0  0  0
 34 35  2  0  0  0  0
 35 40  1  0  0  0  0
 36 35  1  0  0  0  0
 36 41  1  0  0  0  0
 37 36  2  0  0  0  0
 38 44  1  0  0  0  0
 38 45  1  0  0  0  0
 39 32  1  0  0  0  0
 42 37  1  0  0  0  0
 43 38  1  0  0  0  0
 46 47  1  0  0  0  0
 46 50  1  0  0  0  0
 47 51  1  0  0  0  0
 47 52  1  0  0  0  0
 48 53  1  0  0  0  0
 48 47  1  0  0  0  0
 49 48  1  0  0  0  0
 54 48  1  0  0  0  0
 55 49  1  0  0  0  0
M  END
$$$$
