CSD_code = DOTXIV | q = 0 | S = 0 | Stoichiometry = C29H26Cl2N2O3PRe | MND = 6
 OpenBabel04212202033D

 64 69  0  0  1  0  0  0  0  0999 V2000
    7.3246    9.8650    8.4521 Re  0  0  0  0  0  0  0  0  0  0  0  0
    6.9764    9.9772    6.8306 O   0  0  0  0  0  1  0  0  0  0  0  0
    6.3577    7.7600    8.7782 Cl  0  0  0  0  0  0  0  0  0  0  0  0
    9.3819    8.8807    8.1745 Cl  0  0  0  0  0  0  0  0  0  0  0  0
    4.1602   10.5186    8.4000 N   0  0  0  0  0  0  0  0  0  0  0  0
    5.2895   10.6521    9.0861 N   0  0  1  0  0  0  0  0  0  0  0  0
    4.9856   11.1744   10.2800 C   0  0  1  0  0  3  0  0  0  0  0  0
    3.5978   11.3956   10.3305 C   0  0  0  0  0  0  0  0  0  0  0  0
    3.0319   11.7905   11.1471 H   0  0  0  0  0  0  0  0  0  0  0  0
    3.1182   10.9598    9.1187 C   0  0  0  0  0  0  0  0  0  0  0  0
    2.1170   10.9344    8.7380 H   0  0  0  0  0  0  0  0  0  0  0  0
    4.1229    9.9155    7.1005 C   0  0  0  0  0  0  0  0  0  0  0  0
    3.0909    9.8598    6.7626 H   0  0  0  0  0  0  0  0  0  0  0  0
    4.5562    8.9122    7.1545 H   0  0  0  0  0  0  0  0  0  0  0  0
    4.7212   10.4959    6.3959 H   0  0  0  0  0  0  0  0  0  0  0  0
    7.5755   10.0572   10.2562 O   0  0  0  0  0  0  0  0  0  0  0  0
    7.2322   10.7862   11.2872 C   0  0  0  0  0  0  0  0  0  0  0  0
    5.9569   11.4061   11.3353 C   0  0  0  0  0  0  0  0  0  0  0  0
    5.6377   12.2034   12.4245 C   0  0  0  0  0  0  0  0  0  0  0  0
    4.6804   12.6954   12.4771 H   0  0  0  0  0  0  0  0  0  0  0  0
    6.5382   12.4145   13.4635 C   0  0  0  0  0  0  0  0  0  0  0  0
    7.7828   11.7913   13.4224 C   0  0  0  0  0  0  0  0  0  0  0  0
    8.5026   11.9267   14.2137 H   0  0  0  0  0  0  0  0  0  0  0  0
    8.1148   10.9846   12.3535 C   0  0  0  0  0  0  0  0  0  0  0  0
    9.0782   10.4992   12.3164 H   0  0  0  0  0  0  0  0  0  0  0  0
    6.1087   13.2439   14.4580 O   0  0  0  0  0  0  0  0  0  0  0  0
    6.9478   13.4483   15.5688 C   0  0  0  0  0  0  0  0  0  0  0  0
    7.1722   12.5079   16.0819 H   0  0  0  0  0  0  0  0  0  0  0  0
    6.3920   14.1003   16.2408 H   0  0  0  0  0  0  0  0  0  0  0  0
    7.8839   13.9390   15.2820 H   0  0  0  0  0  0  0  0  0  0  0  0
    8.3158   12.1905    8.3371 P   0  0  0  0  0  4  0  0  0  0  0  0
    6.9948   13.3598    8.7536 C   0  0  0  0  0  0  0  0  0  0  0  0
    6.9037   14.0162    9.9750 C   0  0  0  0  0  0  0  0  0  0  0  0
    7.7008   13.9273   10.6997 H   0  0  0  0  0  0  0  0  0  0  0  0
    5.7822   14.7730   10.2688 C   0  0  0  0  0  0  0  0  0  0  0  0
    5.7166   15.2817   11.2189 H   0  0  0  0  0  0  0  0  0  0  0  0
    4.7428   14.8638    9.3591 C   0  0  0  0  0  0  0  0  0  0  0  0
    3.8669   15.4486    9.5969 H   0  0  0  0  0  0  0  0  0  0  0  0
    4.8211   14.1959    8.1456 C   0  0  0  0  0  0  0  0  0  0  0  0
    4.0056   14.2588    7.4400 H   0  0  0  0  0  0  0  0  0  0  0  0
    5.9391   13.4440    7.8452 C   0  0  0  0  0  0  0  0  0  0  0  0
    6.0139   12.9009    6.9114 H   0  0  0  0  0  0  0  0  0  0  0  0
    8.8807   12.7044    6.6887 C   0  0  0  0  0  0  0  0  0  0  0  0
    8.7785   14.0196    6.2468 C   0  0  0  0  0  0  0  0  0  0  0  0
    8.3073   14.7683    6.8686 H   0  0  0  0  0  0  0  0  0  0  0  0
    9.2676   14.3626    4.9995 C   0  0  0  0  0  0  0  0  0  0  0  0
    9.1866   15.3830    4.6541 H   0  0  0  0  0  0  0  0  0  0  0  0
    9.8574   13.4016    4.1939 C   0  0  0  0  0  0  0  0  0  0  0  0
   10.2352   13.6761    3.2200 H   0  0  0  0  0  0  0  0  0  0  0  0
    9.9570   12.0913    4.6333 C   0  0  0  0  0  0  0  0  0  0  0  0
   10.4102   11.3416    4.0028 H   0  0  0  0  0  0  0  0  0  0  0  0
    9.4717   11.7385    5.8797 C   0  0  0  0  0  0  0  0  0  0  0  0
    9.5313   10.7170    6.2306 H   0  0  0  0  0  0  0  0  0  0  0  0
    9.7308   12.6257    9.3917 C   0  0  0  0  0  0  0  0  0  0  0  0
   10.4935   11.6168    9.9683 C   0  0  0  0  0  0  0  0  0  0  0  0
   10.2459   10.5817    9.7749 H   0  0  0  0  0  0  0  0  0  0  0  0
   11.5794   11.9439   10.7626 C   0  0  0  0  0  0  0  0  0  0  0  0
   12.1716   11.1592   11.2092 H   0  0  0  0  0  0  0  0  0  0  0  0
   11.9085   13.2711   10.9794 C   0  0  0  0  0  0  0  0  0  0  0  0
   12.7530   13.5251   11.6031 H   0  0  0  0  0  0  0  0  0  0  0  0
   11.1621   14.2774   10.3853 C   0  0  0  0  0  0  0  0  0  0  0  0
   11.4283   15.3126   10.5421 H   0  0  0  0  0  0  0  0  0  0  0  0
   10.0788   13.9602    9.5881 C   0  0  0  0  0  0  0  0  0  0  0  0
    9.5046   14.7451    9.1163 H   0  0  0  0  0  0  0  0  0  0  0  0
  1  3  1  0  0  0  0
  1  6  1  0  0  0  0
  1 16  1  0  0  0  0
  2  1  1  0  0  0  0
  4  1  1  0  0  0  0
  5 10  1  0  0  0  0
  6  5  1  1  0  0  0
  6  7  1  0  0  0  0
  7  8  1  1  0  0  0
  7 18  1  0  0  0  0
  8  9  1  0  0  0  0
 10  8  2  0  0  0  0
 11 10  1  0  0  0  0
 12 14  1  0  0  0  0
 12  5  1  0  0  0  0
 13 12  1  0  0  0  0
 15 12  1  0  0  0  0
 16 17  1  0  0  0  0
 17 18  2  0  0  0  0
 17 24  1  0  0  0  0
 18 19  1  0  0  0  0
 19 20  1  0  0  0  0
 19 21  2  0  0  0  0
 21 26  1  0  0  0  0
 22 21  1  0  0  0  0
 22 23  1  0  0  0  0
 24 22  2  0  0  0  0
 25 24  1  0  0  0  0
 26 27  1  0  0  0  0
 27 28  1  0  0  0  0
 27 29  1  0  0  0  0
 30 27  1  0  0  0  0
 31  1  1  0  0  0  0
 31 32  1  0  0  0  0
 31 54  1  0  0  0  0
 32 33  1  0  0  0  0
 33 35  2  0  0  0  0
 33 34  1  0  0  0  0
 35 36  1  0  0  0  0
 37 38  1  0  0  0  0
 37 35  1  0  0  0  0
 39 37  2  0  0  0  0
 40 39  1  0  0  0  0
 41 39  1  0  0  0  0
 41 32  2  0  0  0  0
 42 41  1  0  0  0  0
 43 31  1  0  0  0  0
 44 43  1  0  0  0  0
 44 45  1  0  0  0  0
 46 44  2  0  0  0  0
 47 46  1  0  0  0  0
 48 50  2  0  0  0  0
 48 46  1  0  0  0  0
 49 48  1  0  0  0  0
 50 52  1  0  0  0  0
 51 50  1  0  0  0  0
 52 53  1  0  0  0  0
 52 43  2  0  0  0  0
 54 63  2  0  0  0  0
 54 55  1  0  0  0  0
 55 57  2  0  0  0  0
 56 55  1  0  0  0  0
 57 59  1  0  0  0  0
 57 58  1  0  0  0  0
 59 60  1  0  0  0  0
 61 62  1  0  0  0  0
 61 59  2  0  0  0  0
 63 61  1  0  0  0  0
 64 63  1  0  0  0  0
M  END
$$$$
