CSD_code = DOVDEZ | q = 0 | S = 0 | Stoichiometry = C18H14CdCl2N4 | MND = 5
 OpenBabel04212202033D

 39 44  0  0  1  0  0  0  0  0999 V2000
    5.5372   -0.9730    3.6651 Cd  0  0  0  0  0  0  0  0  0  0  0  0
    7.7872   -0.2840    3.9493 Cl  0  0  0  0  0  0  0  0  0  0  0  0
    4.8899   -3.1177    2.9675 Cl  0  0  0  0  0  0  0  0  0  0  0  0
    4.2515    0.3526    2.0485 N   0  0  0  0  0  0  0  0  0  0  0  0
    4.9779    1.0052    4.7538 N   0  0  0  0  0  0  0  0  0  0  0  0
    6.1842    2.0269    6.2922 N   0  0  0  0  0  0  0  0  0  0  0  0
    5.0451   -1.3682    6.0540 N   0  0  0  0  0  0  0  0  0  0  0  0
    3.2974   -0.3511    1.4508 C   0  0  0  0  0  3  0  0  0  0  0  0
    3.4367   -1.4258    1.4463 H   0  0  0  0  0  0  0  0  0  0  0  0
    2.1870    0.2338    0.8629 C   0  0  0  0  0  0  0  0  0  0  0  0
    1.4424   -0.3766    0.3775 H   0  0  0  0  0  0  0  0  0  0  0  0
    2.0614    1.6121    0.9192 C   0  0  0  0  0  0  0  0  0  0  0  0
    1.2101    2.1097    0.4778 H   0  0  0  0  0  0  0  0  0  0  0  0
    3.0538    2.3442    1.5485 C   0  0  0  0  0  0  0  0  0  0  0  0
    2.9880    3.4202    1.6076 H   0  0  0  0  0  0  0  0  0  0  0  0
    4.1446    1.6805    2.1009 C   0  0  0  0  0  0  0  0  0  0  0  0
    5.2651    2.4475    2.7474 C   0  0  0  0  0  0  0  0  0  0  0  0
    6.2018    2.1626    2.2512 H   0  0  0  0  0  0  0  0  0  0  0  0
    5.1156    3.5208    2.6145 H   0  0  0  0  0  0  0  0  0  0  0  0
    5.4406    2.1282    4.1992 C   0  0  0  0  0  0  0  0  0  0  0  0
    6.2071    2.8153    5.1420 C   0  0  0  0  0  0  0  0  0  0  0  0
    6.9396    4.0138    5.1361 C   0  0  0  0  0  0  0  0  0  0  0  0
    6.9407    4.6150    4.2414 H   0  0  0  0  0  0  0  0  0  0  0  0
    7.6426    4.3719    6.2473 C   0  0  0  0  0  0  0  0  0  0  0  0
    8.2178    5.2831    6.2706 H   0  0  0  0  0  0  0  0  0  0  0  0
    7.6450    3.5197    7.3778 C   0  0  0  0  0  0  0  0  0  0  0  0
    8.2336    3.7806    8.2421 H   0  0  0  0  0  0  0  0  0  0  0  0
    6.9291    2.3676    7.3809 C   0  0  0  0  0  0  0  0  0  0  0  0
    6.9431    1.6750    8.2056 H   0  0  0  0  0  0  0  0  0  0  0  0
    5.4261    0.9350    6.0071 C   0  0  2  0  0  3  0  0  0  0  0  0
    5.2040   -0.2615    6.7956 C   0  0  1  0  0  3  0  0  0  0  0  0
    5.1348   -0.3051    8.1898 C   0  0  0  0  0  0  0  0  0  0  0  0
    5.1883    0.5988    8.7764 H   0  0  0  0  0  0  0  0  0  0  0  0
    4.9487   -1.5284    8.8096 C   0  0  0  0  0  0  0  0  0  0  0  0
    4.8981   -1.5878    9.8871 H   0  0  0  0  0  0  0  0  0  0  0  0
    4.8187   -2.6687    8.0323 C   0  0  0  0  0  0  0  0  0  0  0  0
    4.6809   -3.6383    8.4827 H   0  0  0  0  0  0  0  0  0  0  0  0
    4.8570   -2.5307    6.6514 C   0  0  0  0  0  0  0  0  0  0  0  0
    4.7358   -3.3809    5.9911 H   0  0  0  0  0  0  0  0  0  0  0  0
  1  2  1  0  0  0  0
  1  5  1  0  0  0  0
  1  7  1  0  0  0  0
  3  1  1  0  0  0  0
  4 16  1  0  0  0  0
  4  1  1  0  0  0  0
  6 28  1  0  0  0  0
  7 38  1  0  0  0  0
  7 31  1  0  0  0  0
  8  4  1  0  0  0  0
  9  8  1  0  0  0  0
 10 12  2  0  0  0  0
 10  8  1  0  0  0  0
 11 10  1  0  0  0  0
 12 14  1  0  0  0  0
 13 12  1  0  0  0  0
 14 15  1  0  0  0  0
 14 16  2  0  0  0  0
 16 17  1  0  0  0  0
 17 20  1  0  0  0  0
 18 17  1  0  0  0  0
 19 17  1  0  0  0  0
 20  5  1  0  0  0  0
 20 21  2  0  0  0  0
 21  6  1  0  0  0  0
 22 21  1  0  0  0  0
 22 24  2  0  0  0  0
 23 22  1  0  0  0  0
 24 25  1  0  0  0  0
 24 26  1  0  0  0  0
 26 28  2  0  0  0  0
 26 27  1  0  0  0  0
 28 29  1  0  0  0  0
 30  5  1  6  0  0  0
 30  6  1  0  0  0  0
 30 31  1  0  0  0  0
 31 32  1  6  0  0  0
 32 33  1  0  0  0  0
 32 34  2  0  0  0  0
 34 35  1  0  0  0  0
 36 37  1  0  0  0  0
 36 34  1  0  0  0  0
 38 36  2  0  0  0  0
 39 38  1  0  0  0  0
M  END
$$$$
