CSD_code = DOVGAZ | q = -1 | S = 0 | Stoichiometry = C6H6ClMoO9(1-) | MND = 6
 OpenBabel04212202033D

 23 23  0  0  0  0  0  0  0  0999 V2000
    5.0811    1.6572   12.0052 Mo  0  0  0  0  0  0  0  0  0  0  0  0
    4.2831   -0.3691   12.5442 Cl  0  0  0  0  0  0  0  0  0  0  0  0
    6.6277    1.5284   12.5754 O   0  0  0  0  0  1  0  0  0  0  0  0
    4.1392    2.4694   13.0817 O   0  0  0  0  0  1  0  0  0  0  0  0
    5.1021    3.0344   10.7399 O   0  0  0  0  0  0  0  0  0  0  0  0
    2.7799    1.7029   10.2272 O   0  0  0  0  0  0  0  0  0  0  0  0
    1.4897    2.8340    8.8428 O   0  0  0  0  0  0  0  0  0  0  0  0
    1.5575    3.4956    8.1412 H   0  0  0  0  0  0  0  0  0  0  0  0
    5.3838    0.6804   10.1711 O   0  0  0  0  0  0  0  0  0  0  0  0
    5.5636    0.9596    7.9568 O   0  0  0  0  0  0  0  0  0  0  0  0
    7.3660    5.6183    9.8057 O   0  0  0  0  0  0  0  0  0  0  0  0
    5.3185    5.8002    8.9714 O   0  0  0  0  0  0  0  0  0  0  0  0
    2.7028    2.5156    9.3522 C   0  0  0  0  0  0  0  0  0  0  0  0
    3.8506    3.2578    8.7028 C   0  0  0  0  0  0  0  0  0  0  0  0
    3.6728    4.3336    8.7896 H   0  0  0  0  0  0  0  0  0  0  0  0
    3.9026    2.9757    7.6458 H   0  0  0  0  0  0  0  0  0  0  0  0
    5.1895    2.8828    9.3808 C   0  0  0  0  0  0  0  0  0  0  0  0
    5.4151    1.3513    9.1016 C   0  0  0  0  0  0  0  0  0  0  0  0
    6.3869    3.6696    8.7861 C   0  0  0  0  0  0  0  0  0  0  0  0
    7.3096    3.1877    9.1181 H   0  0  0  0  0  0  0  0  0  0  0  0
    6.3251    3.6280    7.6974 H   0  0  0  0  0  0  0  0  0  0  0  0
    6.4345    5.0964    9.2569 C   0  0  0  0  0  0  0  0  0  0  0  0
    5.3925    6.6798    9.3744 H   0  0  0  0  0  0  0  0  0  0  0  0
  1  2  1  0  0  0  0
  1  3  1  0  0  0  0
  1  4  1  0  0  0  0
  5  1  1  0  0  0  0
  7 13  1  0  0  0  0
  8  7  1  0  0  0  0
  9  1  1  0  0  0  0
 10 18  2  0  0  0  0
 12 22  1  0  0  0  0
 12 23  1  0  0  0  0
 13  6  2  0  0  0  0
 14 15  1  0  0  0  0
 14 13  1  0  0  0  0
 14 17  1  0  0  0  0
 16 14  1  0  0  0  0
 17  5  1  0  0  0  0
 18 17  1  0  0  0  0
 18  9  1  0  0  0  0
 19 20  1  0  0  0  0
 19 22  1  0  0  0  0
 19 17  1  0  0  0  0
 21 19  1  0  0  0  0
 22 11  2  0  0  0  0
M  END
$$$$
