CSD_code = DOVKUV | q = 0 | S = 0 | Stoichiometry = C18H14BrMnN4O2 | MND = 5
 OpenBabel04212202033D

 40 45  0  0  1  0  0  0  0  0999 V2000
   -1.9298   -2.0132    0.2416 Mn  0  0  0  0  0  0  0  0  0  0  0  0
   -0.2541   -3.1612   -0.8205 Br  0  0  0  0  0  0  0  0  0  0  0  0
    0.2671   -0.6385    1.4920 N   0  0  0  0  0  0  0  0  0  0  0  0
    0.5224   -0.3654    0.5534 H   0  0  0  0  0  0  0  0  0  0  0  0
   -0.7714   -1.4529    1.6903 N   0  0  1  0  0  0  0  0  0  0  0  0
   -0.8672   -1.6487    3.0091 C   0  0  2  0  0  3  0  0  0  0  0  0
    0.1560   -0.9165    3.6550 C   0  0  0  0  0  0  0  0  0  0  0  0
    0.3495   -0.8608    4.7051 H   0  0  0  0  0  0  0  0  0  0  0  0
    0.8517   -0.2926    2.6540 C   0  0  0  0  0  0  0  0  0  0  0  0
    1.7035    0.3556    2.6917 H   0  0  0  0  0  0  0  0  0  0  0  0
   -2.8950   -2.9616    1.4416 O   0  0  0  0  0  0  0  0  0  0  0  0
   -2.8491   -3.1192    2.7469 C   0  0  0  0  0  0  0  0  0  0  0  0
   -1.8789   -2.5081    3.5836 C   0  0  0  0  0  0  0  0  0  0  0  0
   -1.9195   -2.7524    4.9571 C   0  0  0  0  0  0  0  0  0  0  0  0
   -1.1782   -2.2941    5.5932 H   0  0  0  0  0  0  0  0  0  0  0  0
   -2.8804   -3.5697    5.5126 C   0  0  0  0  0  0  0  0  0  0  0  0
   -2.8896   -3.7466    6.5774 H   0  0  0  0  0  0  0  0  0  0  0  0
   -3.8347   -4.1667    4.6981 C   0  0  0  0  0  0  0  0  0  0  0  0
   -4.5904   -4.8067    5.1289 H   0  0  0  0  0  0  0  0  0  0  0  0
   -3.8201   -3.9445    3.3404 C   0  0  0  0  0  0  0  0  0  0  0  0
   -4.5542   -4.4025    2.6929 H   0  0  0  0  0  0  0  0  0  0  0  0
   -3.6491   -3.7237   -1.3095 N   0  0  0  0  0  0  0  0  0  0  0  0
   -3.2128   -4.4809   -0.8026 H   0  0  0  0  0  0  0  0  0  0  0  0
   -3.2440   -2.4680   -1.1109 N   0  0  1  0  0  0  0  0  0  0  0  0
   -3.9828   -1.6892   -1.9074 C   0  0  2  0  0  3  0  0  0  0  0  0
   -4.8910   -2.5012   -2.6255 C   0  0  0  0  0  0  0  0  0  0  0  0
   -5.6199   -2.1830   -3.3402 H   0  0  0  0  0  0  0  0  0  0  0  0
   -4.6427   -3.7841   -2.2156 C   0  0  0  0  0  0  0  0  0  0  0  0
   -5.0945   -4.7114   -2.5039 H   0  0  0  0  0  0  0  0  0  0  0  0
   -2.1118   -0.2791   -0.2344 O   0  0  0  0  0  0  0  0  0  0  0  0
   -2.8586    0.3708   -1.1008 C   0  0  0  0  0  0  0  0  0  0  0  0
   -3.7946   -0.2561   -1.9645 C   0  0  0  0  0  0  0  0  0  0  0  0
   -4.5210    0.5299   -2.8600 C   0  0  0  0  0  0  0  0  0  0  0  0
   -5.2264    0.0533   -3.5235 H   0  0  0  0  0  0  0  0  0  0  0  0
   -4.3516    1.8969   -2.9154 C   0  0  0  0  0  0  0  0  0  0  0  0
   -4.9220    2.4838   -3.6192 H   0  0  0  0  0  0  0  0  0  0  0  0
   -3.4447    2.5164   -2.0640 C   0  0  0  0  0  0  0  0  0  0  0  0
   -3.3097    3.5873   -2.1025 H   0  0  0  0  0  0  0  0  0  0  0  0
   -2.7122    1.7671   -1.1725 C   0  0  0  0  0  0  0  0  0  0  0  0
   -1.9991    2.2326   -0.5068 H   0  0  0  0  0  0  0  0  0  0  0  0
  1 11  1  0  0  0  0
  1  5  1  0  0  0  0
  2  1  1  0  0  0  0
  3  9  1  0  0  0  0
  4  3  1  0  0  0  0
  5  3  1  1  0  0  0
  5  6  1  0  0  0  0
  6 13  1  6  0  0  0
  6  7  1  0  0  0  0
  7  8  1  0  0  0  0
  9 10  1  0  0  0  0
  9  7  2  0  0  0  0
 11 12  1  0  0  0  0
 12 20  2  0  0  0  0
 12 13  1  0  0  0  0
 13 14  2  0  0  0  0
 14 16  1  0  0  0  0
 14 15  1  0  0  0  0
 16 17  1  0  0  0  0
 18 19  1  0  0  0  0
 18 16  2  0  0  0  0
 20 18  1  0  0  0  0
 21 20  1  0  0  0  0
 22 23  1  0  0  0  0
 24 22  1  1  0  0  0
 24  1  1  0  0  0  0
 25 26  1  6  0  0  0
 25 24  1  0  0  0  0
 26 28  2  0  0  0  0
 27 26  1  0  0  0  0
 28 22  1  0  0  0  0
 29 28  1  0  0  0  0
 30  1  1  0  0  0  0
 31 30  1  0  0  0  0
 32 25  1  0  0  0  0
 32 31  2  0  0  0  0
 33 32  1  0  0  0  0
 34 33  1  0  0  0  0
 35 33  2  0  0  0  0
 35 37  1  0  0  0  0
 36 35  1  0  0  0  0
 37 39  2  0  0  0  0
 38 37  1  0  0  0  0
 39 31  1  0  0  0  0
 39 40  1  0  0  0  0
M  END
$$$$
