CSD_code = DOWXIW | q = 0 | S = 0 | Stoichiometry = C12H28Cl2O2RuS4 | MND = 6
 OpenBabel04212202033D

 49 50  0  0  0  0  0  0  0  0999 V2000
    0.3970   -0.0036    2.2959 Ru  0  0  0  0  0  0  0  0  0  0  0  0
    1.0496    2.2635    2.3331 Cl  0  0  0  0  0  0  0  0  0  0  0  0
   -0.9011    0.2071    4.2704 Cl  0  0  0  0  0  0  0  0  0  0  0  0
    1.6054   -0.2361    0.3979 S   0  0  0  0  0  0  0  0  0  0  0  0
    2.4503   -0.3092    3.4637 S   0  0  1  0  0  3  0  0  0  0  0  0
   -0.0673   -2.1741    2.4635 S   0  0  1  0  0  0  0  0  0  0  0  0
   -1.5755    0.4886    0.9925 S   0  0  1  0  0  3  0  0  0  0  0  0
    2.8780   -0.8976    0.6353 O   0  0  0  0  0  1  0  0  0  0  0  0
    0.4329   -3.0660    1.4271 O   0  0  0  0  0  1  0  0  0  0  0  0
    0.7996   -1.1516   -0.9560 C   0  0  0  0  0  0  0  0  0  0  0  0
    1.9688    1.2743   -0.5451 C   0  0  0  0  0  0  0  0  0  0  0  0
    3.5516    0.0167    5.9773 C   0  0  0  0  0  0  0  0  0  0  0  0
    2.2323    0.0870    5.2345 C   0  0  0  0  0  0  0  0  0  0  0  0
    2.8224   -2.0886    3.4468 C   0  0  0  0  0  0  0  0  0  0  0  0
    1.9420   -3.0224    4.2685 C   0  0  0  0  0  0  0  0  0  0  0  0
    0.4378   -2.8284    4.1048 C   0  0  0  0  0  0  0  0  0  0  0  0
   -1.8438   -2.6008    2.6606 C   0  0  0  0  0  0  0  0  0  0  0  0
   -2.6631   -2.0423    1.5078 C   0  0  0  0  0  0  0  0  0  0  0  0
   -2.9401   -0.5502    1.6453 C   0  0  0  0  0  0  0  0  0  0  0  0
   -3.2981    2.6746    0.9213 C   0  0  0  0  0  0  0  0  0  0  0  0
   -2.1026    2.1089    1.6592 C   0  0  0  0  0  0  0  0  0  0  0  0
    1.4974   -1.2164   -1.7821 H   0  0  0  0  0  0  0  0  0  0  0  0
    0.5772   -2.1433   -0.5754 H   0  0  0  0  0  0  0  0  0  0  0  0
   -0.1062   -0.6264   -1.2366 H   0  0  0  0  0  0  0  0  0  0  0  0
    1.0245    1.7165   -0.8426 H   0  0  0  0  0  0  0  0  0  0  0  0
    2.4995    1.9500    0.1180 H   0  0  0  0  0  0  0  0  0  0  0  0
    2.5832    1.0073   -1.3969 H   0  0  0  0  0  0  0  0  0  0  0  0
    3.4162    0.3662    6.9984 H   0  0  0  0  0  0  0  0  0  0  0  0
    4.2906    0.6476    5.4901 H   0  0  0  0  0  0  0  0  0  0  0  0
    3.9315   -1.0021    6.0104 H   0  0  0  0  0  0  0  0  0  0  0  0
    1.8424    1.1059    5.2175 H   0  0  0  0  0  0  0  0  0  0  0  0
    1.4795   -0.5686    5.6661 H   0  0  0  0  0  0  0  0  0  0  0  0
    2.7678   -2.3327    2.3842 H   0  0  0  0  0  0  0  0  0  0  0  0
    3.8609   -2.1823    3.7657 H   0  0  0  0  0  0  0  0  0  0  0  0
    2.1902   -2.9303    5.3298 H   0  0  0  0  0  0  0  0  0  0  0  0
    2.2059   -4.0365    3.9570 H   0  0  0  0  0  0  0  0  0  0  0  0
    0.0422   -2.0765    4.7886 H   0  0  0  0  0  0  0  0  0  0  0  0
   -0.0853   -3.7695    4.2569 H   0  0  0  0  0  0  0  0  0  0  0  0
   -2.1639   -2.1864    3.6139 H   0  0  0  0  0  0  0  0  0  0  0  0
   -1.8800   -3.6880    2.6706 H   0  0  0  0  0  0  0  0  0  0  0  0
   -2.1426   -2.2450    0.5665 H   0  0  0  0  0  0  0  0  0  0  0  0
   -3.6229   -2.5652    1.4742 H   0  0  0  0  0  0  0  0  0  0  0  0
   -3.0789   -0.2730    2.6912 H   0  0  0  0  0  0  0  0  0  0  0  0
   -3.8186   -0.2745    1.0621 H   0  0  0  0  0  0  0  0  0  0  0  0
   -3.0990    2.7252   -0.1467 H   0  0  0  0  0  0  0  0  0  0  0  0
   -3.4943    3.6808    1.2835 H   0  0  0  0  0  0  0  0  0  0  0  0
   -4.1904    2.0742    1.0839 H   0  0  0  0  0  0  0  0  0  0  0  0
   -2.2924    1.9683    2.7239 H   0  0  0  0  0  0  0  0  0  0  0  0
   -1.2220    2.7444    1.5446 H   0  0  0  0  0  0  0  0  0  0  0  0
  1  2  1  0  0  0  0
  1  6  1  0  0  0  0
  1  5  1  0  0  0  0
  1  3  1  0  0  0  0
  4  8  1  0  0  0  0
  4  1  1  0  0  0  0
  5 13  1  1  0  0  0
  6  9  1  6  0  0  0
  6 17  1  0  0  0  0
  6 16  1  0  0  0  0
  7 19  1  0  0  0  0
  7 21  1  1  0  0  0
  7  1  1  0  0  0  0
 10 23  1  0  0  0  0
 10  4  1  0  0  0  0
 11 26  1  0  0  0  0
 11  4  1  0  0  0  0
 12 30  1  0  0  0  0
 12 28  1  0  0  0  0
 13 32  1  0  0  0  0
 13 12  1  0  0  0  0
 14  5  1  0  0  0  0
 14 34  1  0  0  0  0
 14 15  1  0  0  0  0
 15 35  1  0  0  0  0
 16 38  1  0  0  0  0
 16 15  1  0  0  0  0
 16 37  1  0  0  0  0
 17 40  1  0  0  0  0
 17 39  1  0  0  0  0
 18 19  1  0  0  0  0
 18 17  1  0  0  0  0
 19 43  1  0  0  0  0
 20 47  1  0  0  0  0
 20 46  1  0  0  0  0
 20 21  1  0  0  0  0
 21 48  1  0  0  0  0
 22 10  1  0  0  0  0
 24 10  1  0  0  0  0
 25 11  1  0  0  0  0
 27 11  1  0  0  0  0
 29 12  1  0  0  0  0
 31 13  1  0  0  0  0
 33 14  1  0  0  0  0
 36 15  1  0  0  0  0
 41 18  1  0  0  0  0
 42 18  1  0  0  0  0
 44 19  1  0  0  0  0
 45 20  1  0  0  0  0
 49 21  1  0  0  0  0
M  END
$$$$
