CSD_code = DOWYIX | q = 0 | S = 0 | Stoichiometry = C16H24CdCl2N6 | MND = 6
 OpenBabel04212202033D

 49 51  0  0  1  0  0  0  0  0999 V2000
   -0.0001   -0.0726    3.8635 Cd  0  0  0  0  0  0  0  0  0  0  0  0
   -0.2558    1.0745    1.7834 Cl  0  0  0  0  0  0  0  0  0  0  0  0
    0.2664   -2.2632    5.2841 N   0  0  0  0  0  0  0  0  0  0  0  0
    0.4604   -3.4610    4.4773 C   0  0  0  0  0  0  0  0  0  0  0  0
   -0.8737   -2.3728    6.1809 C   0  0  0  0  0  0  0  0  0  0  0  0
    1.4445   -1.8934    6.0409 C   0  0  0  0  0  0  0  0  0  0  0  0
    2.4961   -1.4248    5.1721 N   0  0  0  0  0  0  0  0  0  0  0  0
    2.2280   -0.8012    4.0510 N   0  0  2  0  0  0  0  0  0  0  0  0
    3.3965   -0.2744    3.5895 C   0  0  2  0  0  3  0  0  0  0  0  0
    4.4355   -0.6677    4.4846 C   0  0  0  0  0  0  0  0  0  0  0  0
    3.8307   -1.3986    5.4699 C   0  0  0  0  0  0  0  0  0  0  0  0
    3.4584    0.6754    2.5732 C   0  0  0  0  0  2  0  0  0  0  0  0
    4.3972   -2.0303    6.6878 C   0  0  0  0  0  0  0  0  0  0  0  0
    1.8401   -2.7271    6.6468 H   0  0  0  0  0  0  0  0  0  0  0  0
    1.1546   -1.0527    6.6902 H   0  0  0  0  0  0  0  0  0  0  0  0
    5.4747   -0.4340    4.3816 H   0  0  0  0  0  0  0  0  0  0  0  0
    5.4739   -1.8873    6.6991 H   0  0  0  0  0  0  0  0  0  0  0  0
    4.1888   -3.1003    6.7130 H   0  0  0  0  0  0  0  0  0  0  0  0
    3.9765   -1.5759    7.5843 H   0  0  0  0  0  0  0  0  0  0  0  0
    0.2704   -4.3747    5.0642 H   0  0  0  0  0  0  0  0  0  0  0  0
    1.4974   -3.4881    4.1361 H   0  0  0  0  0  0  0  0  0  0  0  0
   -1.7680   -2.6175    5.6141 H   0  0  0  0  0  0  0  0  0  0  0  0
   -0.7166   -3.1468    6.9463 H   0  0  0  0  0  0  0  0  0  0  0  0
   -1.0287   -1.4113    6.6667 H   0  0  0  0  0  0  0  0  0  0  0  0
    2.5920    0.6430    1.9015 H   0  0  0  0  0  0  0  0  0  0  0  0
    0.2556    1.0745    5.9436 Cl  0  0  0  0  0  0  0  0  0  0  0  0
   -0.2664   -2.2631    2.4432 N   0  0  0  0  0  0  0  0  0  0  0  0
   -2.2282   -0.8013    3.6761 N   0  0  2  0  0  0  0  0  0  0  0  0
   -0.4603   -3.4610    3.2499 C   0  0  0  0  0  0  0  0  0  0  0  0
    0.8738   -2.3727    1.5464 C   0  0  0  0  0  0  0  0  0  0  0  0
   -1.4444   -1.8935    1.6863 C   0  0  0  0  0  0  0  0  0  0  0  0
   -2.4961   -1.4249    2.5550 N   0  0  0  0  0  0  0  0  0  0  0  0
   -3.3967   -0.2743    4.1374 C   0  0  2  0  0  3  0  0  0  0  0  0
   -0.2703   -4.3747    2.6630 H   0  0  0  0  0  0  0  0  0  0  0  0
   -1.4973   -3.4882    3.5911 H   0  0  0  0  0  0  0  0  0  0  0  0
    1.7680   -2.6173    2.1131 H   0  0  0  0  0  0  0  0  0  0  0  0
    0.7168   -3.1466    0.7809 H   0  0  0  0  0  0  0  0  0  0  0  0
    1.0287   -1.4112    1.0606 H   0  0  0  0  0  0  0  0  0  0  0  0
   -1.8400   -2.7273    1.0803 H   0  0  0  0  0  0  0  0  0  0  0  0
   -1.1546   -1.0528    1.0369 H   0  0  0  0  0  0  0  0  0  0  0  0
   -3.8307   -1.3986    2.2569 C   0  0  0  0  0  0  0  0  0  0  0  0
   -4.4356   -0.6675    3.2420 C   0  0  0  0  0  0  0  0  0  0  0  0
   -3.4585    0.6756    5.1535 C   0  0  0  0  0  2  0  0  0  0  0  0
   -4.3970   -2.0301    1.0389 C   0  0  0  0  0  0  0  0  0  0  0  0
   -5.4748   -0.4337    3.3449 H   0  0  0  0  0  0  0  0  0  0  0  0
   -2.5925    0.6431    5.8255 H   0  0  0  0  0  0  0  0  0  0  0  0
   -5.4737   -1.8871    1.0274 H   0  0  0  0  0  0  0  0  0  0  0  0
   -4.1888   -3.1002    1.0137 H   0  0  0  0  0  0  0  0  0  0  0  0
   -3.9761   -1.5758    0.1425 H   0  0  0  0  0  0  0  0  0  0  0  0
  1  8  1  0  0  0  0
  1 26  1  0  0  0  0
  2  1  1  0  0  0  0
  3  6  1  0  0  0  0
  3  5  1  0  0  0  0
  4 20  1  0  0  0  0
  4  3  1  0  0  0  0
  5 24  1  0  0  0  0
  5 23  1  0  0  0  0
  6 14  1  0  0  0  0
  6 15  1  0  0  0  0
  7 11  1  0  0  0  0
  7  6  1  0  0  0  0
  8  7  1  1  0  0  0
  9 12  1  1  0  0  0
  9  8  1  0  0  0  0
  9 10  1  0  0  0  0
 10 11  2  0  0  0  0
 11 13  1  0  0  0  0
 13 17  1  0  0  0  0
 13 18  1  0  0  0  0
 13 19  1  0  0  0  0
 16 10  1  0  0  0  0
 21  4  1  0  0  0  0
 22  5  1  0  0  0  0
 25 12  1  0  0  0  0
 27 29  1  0  0  0  0
 28 32  1  6  0  0  0
 28  1  1  0  0  0  0
 28 33  1  0  0  0  0
 29 35  1  0  0  0  0
 29  4  1  0  0  0  0
 30 36  1  0  0  0  0
 30 27  1  0  0  0  0
 31 27  1  0  0  0  0
 31 32  1  0  0  0  0
 33 43  1  6  0  0  0
 34 29  1  0  0  0  0
 37 30  1  0  0  0  0
 38 30  1  0  0  0  0
 39 31  1  0  0  0  0
 40 31  1  0  0  0  0
 41 32  1  0  0  0  0
 41 42  2  0  0  0  0
 42 45  1  0  0  0  0
 42 33  1  0  0  0  0
 43 46  1  0  0  0  0
 44 41  1  0  0  0  0
 47 44  1  0  0  0  0
 48 44  1  0  0  0  0
 49 44  1  0  0  0  0
M  END
$$$$
