CSD_code = DOXCUO | q = 0 | S = 0 | Stoichiometry = C24H22ClN2O3V | MND = 6
 OpenBabel04212202033D

 53 58  0  0  0  0  0  0  0  0999 V2000
    2.2841    1.2633    2.4256 V   0  0  0  0  0  0  0  0  0  0  0  0
    1.0346    2.8654    1.5226 Cl  0  0  0  0  0  0  0  0  0  0  0  0
    3.3673    2.2528    3.2317 O   0  0  0  0  0  0  0  0  0  0  0  0
    3.0642    0.7881    1.0185 O   0  0  0  0  0  0  0  0  0  0  0  0
    1.2636    1.2770    4.0527 N   0  0  0  0  0  0  0  0  0  0  0  0
    0.9884   -0.0958    2.0074 N   0  0  0  0  0  0  0  0  0  0  0  0
    3.7281    2.6486    4.3919 C   0  0  0  0  0  0  0  0  0  0  0  0
    4.9317    3.3436    4.6333 C   0  0  0  0  0  0  0  0  0  0  0  0
    5.2800    3.7098    5.9090 C   0  0  0  0  0  0  0  0  0  0  0  0
    4.4466    3.4034    6.9930 C   0  0  0  0  0  0  0  0  0  0  0  0
    3.2661    2.7380    6.7907 C   0  0  0  0  0  0  0  0  0  0  0  0
    2.8691    2.3443    5.4978 C   0  0  0  0  0  0  0  0  0  0  0  0
    1.6585    1.6686    5.2446 C   0  0  0  0  0  3  0  0  0  0  0  0
   -0.0185    0.7437    3.9312 C   0  0  0  0  0  0  0  0  0  0  0  0
   -1.1050    0.9705    4.7638 C   0  0  0  0  0  0  0  0  0  0  0  0
   -2.3369    0.4088    4.4501 C   0  0  0  0  0  0  0  0  0  0  0  0
   -2.4890   -0.3566    3.3110 C   0  0  0  0  0  0  0  0  0  0  0  0
   -1.4120   -0.5767    2.4605 C   0  0  0  0  0  0  0  0  0  0  0  0
   -0.1738   -0.0350    2.7727 C   0  0  0  0  0  0  0  0  0  0  0  0
    1.1283   -1.0958    1.1697 C   0  0  0  0  0  3  0  0  0  0  0  0
    2.1854   -1.2164    0.2451 C   0  0  0  0  0  0  0  0  0  0  0  0
    2.3003   -2.3061   -0.6383 C   0  0  0  0  0  0  0  0  0  0  0  0
    3.3325   -2.3788   -1.5365 C   0  0  0  0  0  0  0  0  0  0  0  0
    4.2945   -1.3615   -1.5892 C   0  0  0  0  0  0  0  0  0  0  0  0
    4.2202   -0.2828   -0.7454 C   0  0  0  0  0  0  0  0  0  0  0  0
    3.1730   -0.1801    0.1945 C   0  0  0  0  0  0  0  0  0  0  0  0
    3.6288   -0.6570    3.3137 O   0  0  0  0  0  0  0  0  0  0  0  0
    5.0343   -0.4901    3.2856 C   0  0  0  0  0  0  0  0  0  0  0  0
    5.4888   -0.3908    4.7536 C   0  0  0  0  0  0  0  0  0  0  0  0
    4.2978   -0.9632    5.5421 C   0  0  0  0  0  0  0  0  0  0  0  0
    3.3601   -1.4686    4.4379 C   0  0  0  0  0  0  0  0  0  0  0  0
    5.5640    3.5761    3.7875 H   0  0  0  0  0  0  0  0  0  0  0  0
    6.2047    4.2397    6.0828 H   0  0  0  0  0  0  0  0  0  0  0  0
    4.7389    3.7006    7.9887 H   0  0  0  0  0  0  0  0  0  0  0  0
    2.6177    2.5068    7.6244 H   0  0  0  0  0  0  0  0  0  0  0  0
    1.0308    1.4491    6.1099 H   0  0  0  0  0  0  0  0  0  0  0  0
   -1.0203    1.6127    5.6275 H   0  0  0  0  0  0  0  0  0  0  0  0
   -3.1826    0.5932    5.0950 H   0  0  0  0  0  0  0  0  0  0  0  0
   -3.4538   -0.7725    3.0632 H   0  0  0  0  0  0  0  0  0  0  0  0
   -1.5615   -1.1291    1.5451 H   0  0  0  0  0  0  0  0  0  0  0  0
    0.3963   -1.9054    1.1849 H   0  0  0  0  0  0  0  0  0  0  0  0
    1.5535   -3.0867   -0.5975 H   0  0  0  0  0  0  0  0  0  0  0  0
    3.4084   -3.2180   -2.2112 H   0  0  0  0  0  0  0  0  0  0  0  0
    5.1015   -1.4300   -2.3036 H   0  0  0  0  0  0  0  0  0  0  0  0
    4.9546    0.5099   -0.7782 H   0  0  0  0  0  0  0  0  0  0  0  0
    5.2525    0.4037    2.6988 H   0  0  0  0  0  0  0  0  0  0  0  0
    5.4905   -1.3653    2.7973 H   0  0  0  0  0  0  0  0  0  0  0  0
    6.4004   -0.9626    4.9170 H   0  0  0  0  0  0  0  0  0  0  0  0
    5.6753    0.6450    5.0344 H   0  0  0  0  0  0  0  0  0  0  0  0
    4.5897   -1.7639    6.2178 H   0  0  0  0  0  0  0  0  0  0  0  0
    3.8108   -0.1776    6.1192 H   0  0  0  0  0  0  0  0  0  0  0  0
    2.3006   -1.3765    4.6823 H   0  0  0  0  0  0  0  0  0  0  0  0
    3.5868   -2.5178    4.1902 H   0  0  0  0  0  0  0  0  0  0  0  0
  1  3  1  0  0  0  0
  1  5  1  0  0  0  0
  2  1  1  0  0  0  0
  3  7  1  0  0  0  0
  4  1  1  0  0  0  0
  5 13  1  0  0  0  0
  6  1  1  0  0  0  0
  6 19  1  0  0  0  0
  7  8  2  0  0  0  0
  7 12  1  0  0  0  0
  8  9  1  0  0  0  0
  9 33  1  0  0  0  0
  9 10  2  0  0  0  0
 10 34  1  0  0  0  0
 11 10  1  0  0  0  0
 11 35  1  0  0  0  0
 12 11  2  0  0  0  0
 13 12  1  0  0  0  0
 13 36  1  0  0  0  0
 14  5  1  0  0  0  0
 14 15  1  0  0  0  0
 15 37  1  0  0  0  0
 16 15  2  0  0  0  0
 16 38  1  0  0  0  0
 17 16  1  0  0  0  0
 18 19  1  0  0  0  0
 18 17  2  0  0  0  0
 19 14  2  0  0  0  0
 20 41  1  0  0  0  0
 20  6  1  0  0  0  0
 21 20  1  0  0  0  0
 22 42  1  0  0  0  0
 22 21  2  0  0  0  0
 23 22  1  0  0  0  0
 24 23  2  0  0  0  0
 24 25  1  0  0  0  0
 25 26  2  0  0  0  0
 26 21  1  0  0  0  0
 26  4  1  0  0  0  0
 27 31  1  0  0  0  0
 28 27  1  0  0  0  0
 28 29  1  0  0  0  0
 29 48  1  0  0  0  0
 29 49  1  0  0  0  0
 29 30  1  0  0  0  0
 30 51  1  0  0  0  0
 30 50  1  0  0  0  0
 31 52  1  0  0  0  0
 31 30  1  0  0  0  0
 32  8  1  0  0  0  0
 39 17  1  0  0  0  0
 40 18  1  0  0  0  0
 43 23  1  0  0  0  0
 44 24  1  0  0  0  0
 45 25  1  0  0  0  0
 46 28  1  0  0  0  0
 47 28  1  0  0  0  0
 53 31  1  0  0  0  0
M  END
$$$$
