CSD_code = DOXCIC | q = 0 | S = 0 | Stoichiometry = C20H20Cl2P2Pt | MND = 4
 OpenBabel04212202033D

 45 46  0  0  0  0  0  0  0  0999 V2000
    2.5144    2.7087    4.5026 Pt  0  0  0  0  0  0  0  0  0  0  0  0
    3.6563    3.8948    6.0964 Cl  0  0  0  0  0  0  0  0  0  0  0  0
    4.3315    1.3603    4.0653 Cl  0  0  0  0  0  0  0  0  0  0  0  0
    1.6122    1.4625    2.8169 P   0  0  0  0  0  4  0  0  0  0  0  0
    0.7159    3.9776    5.0733 P   0  0  0  0  0  4  0  0  0  0  0  0
    2.2010    1.0841    0.1189 C   0  0  0  0  0  3  0  0  0  0  0  0
    2.8013    1.2905   -1.0867 C   0  0  0  0  0  0  0  0  0  0  0  0
    3.7496    2.3121   -1.1574 C   0  0  0  0  0  0  0  0  0  0  0  0
    4.0422    3.0683   -0.0341 C   0  0  0  0  0  0  0  0  0  0  0  0
    3.4085    2.8243    1.1687 C   0  0  0  0  0  0  0  0  0  0  0  0
    2.4618    1.7995    1.2497 C   0  0  0  0  0  0  0  0  0  0  0  0
    1.7621   -0.3293    2.9741 C   0  0  0  0  0  0  0  0  0  0  0  0
    0.7606   -1.1853    2.8406 C   0  0  0  0  0  0  0  0  0  0  0  0
   -0.1441    1.6928    2.4340 C   0  0  0  0  0  0  0  0  0  0  0  0
   -0.6414    2.1149    1.2832 C   0  0  0  0  0  0  0  0  0  0  0  0
   -1.5032    4.9066    3.6293 C   0  0  0  0  0  3  0  0  0  0  0  0
   -2.1737    5.4306    2.5604 C   0  0  0  0  0  0  0  0  0  0  0  0
   -1.4272    5.7782    1.4355 C   0  0  0  0  0  0  0  0  0  0  0  0
   -0.0533    5.5959    1.4263 C   0  0  0  0  0  0  0  0  0  0  0  0
    0.5920    5.0634    2.5247 C   0  0  0  0  0  0  0  0  0  0  0  0
   -0.1541    4.7077    3.6507 C   0  0  0  0  0  0  0  0  0  0  0  0
    0.9322    5.4225    6.1310 C   0  0  0  0  0  0  0  0  0  0  0  0
    0.5507    5.4757    7.3980 C   0  0  0  0  0  0  0  0  0  0  0  0
   -0.5795    3.0220    5.8882 C   0  0  0  0  0  0  0  0  0  0  0  0
   -0.3706    1.7571    6.2172 C   0  0  0  0  0  0  0  0  0  0  0  0
    2.5692    0.6959   -1.9574 H   0  0  0  0  0  0  0  0  0  0  0  0
    4.2542    2.5024   -2.0938 H   0  0  0  0  0  0  0  0  0  0  0  0
    4.7811    3.8540   -0.0974 H   0  0  0  0  0  0  0  0  0  0  0  0
    3.6452    3.3873    2.0686 H   0  0  0  0  0  0  0  0  0  0  0  0
    2.7695   -0.6530    3.2069 H   0  0  0  0  0  0  0  0  0  0  0  0
   -0.2436   -0.8666    2.6120 H   0  0  0  0  0  0  0  0  0  0  0  0
    0.9134   -2.2471    2.9513 H   0  0  0  0  0  0  0  0  0  0  0  0
   -0.7930    1.5093    3.2847 H   0  0  0  0  0  0  0  0  0  0  0  0
   -0.0111    2.3177    0.4327 H   0  0  0  0  0  0  0  0  0  0  0  0
   -1.6994    2.2695    1.1442 H   0  0  0  0  0  0  0  0  0  0  0  0
   -3.2440    5.5746    2.5705 H   0  0  0  0  0  0  0  0  0  0  0  0
   -1.9290    6.1896    0.5714 H   0  0  0  0  0  0  0  0  0  0  0  0
    0.5174    5.8686    0.5502 H   0  0  0  0  0  0  0  0  0  0  0  0
    1.6653    4.9032    2.5392 H   0  0  0  0  0  0  0  0  0  0  0  0
    1.4531    6.2463    5.6569 H   0  0  0  0  0  0  0  0  0  0  0  0
    0.0661    4.6426    7.8815 H   0  0  0  0  0  0  0  0  0  0  0  0
    0.7277    6.3482    8.0055 H   0  0  0  0  0  0  0  0  0  0  0  0
   -1.5165    3.5350    6.0739 H   0  0  0  0  0  0  0  0  0  0  0  0
    0.5865    1.2889    6.0094 H   0  0  0  0  0  0  0  0  0  0  0  0
   -1.1142    1.1465    6.7049 H   0  0  0  0  0  0  0  0  0  0  0  0
  1  5  1  0  0  0  0
  1  2  1  0  0  0  0
  3  1  1  0  0  0  0
  4 12  1  0  0  0  0
  4  1  1  0  0  0  0
  5 24  1  0  0  0  0
  5 22  1  0  0  0  0
  6 11  1  0  0  0  0
  7  6  2  0  0  0  0
  8  7  1  0  0  0  0
  8  9  2  0  0  0  0
  9 10  1  0  0  0  0
 10 11  2  0  0  0  0
 10 29  1  0  0  0  0
 11  4  1  0  0  0  0
 12 30  1  0  0  0  0
 13 32  1  0  0  0  0
 13 12  2  0  0  0  0
 14  4  1  0  0  0  0
 14 33  1  0  0  0  0
 15 14  2  0  0  0  0
 16 21  1  0  0  0  0
 17 36  1  0  0  0  0
 17 16  2  0  0  0  0
 18 17  1  0  0  0  0
 19 18  2  0  0  0  0
 19 20  1  0  0  0  0
 20 39  1  0  0  0  0
 20 21  2  0  0  0  0
 21  5  1  0  0  0  0
 22 23  2  0  0  0  0
 23 41  1  0  0  0  0
 23 42  1  0  0  0  0
 24 43  1  0  0  0  0
 24 25  2  0  0  0  0
 25 45  1  0  0  0  0
 26  7  1  0  0  0  0
 27  8  1  0  0  0  0
 28  9  1  0  0  0  0
 31 13  1  0  0  0  0
 34 15  1  0  0  0  0
 35 15  1  0  0  0  0
 37 18  1  0  0  0  0
 38 19  1  0  0  0  0
 40 22  1  0  0  0  0
 44 25  1  0  0  0  0
M  END
$$$$
