CSD_code = DOXCEY | q = 0 | S = 0 | Stoichiometry = C24H26Cl2P2Pt | MND = 4
 OpenBabel04212202033D

 55 58  0  0  0  0  0  0  0  0999 V2000
    2.2894    1.1128    2.1970 Pt  0  0  0  0  0  0  0  0  0  0  0  0
    3.4679    1.2530    0.2428 Cl  0  0  0  0  0  0  0  0  0  0  0  0
    1.3170    3.1875    1.9831 Cl  0  0  0  0  0  0  0  0  0  0  0  0
    0.9159    1.2626    4.0125 P   0  0  1  0  0  4  0  0  0  0  0  0
    3.2575   -0.8929    2.6162 P   0  0  2  0  0  4  0  0  0  0  0  0
   -0.8116    1.2338    3.4670 C   0  0  0  0  0  0  0  0  0  0  0  0
   -1.0825    0.7317    2.1998 C   0  0  0  0  0  0  0  0  0  0  0  0
   -2.3883    0.6712    1.7498 C   0  0  0  0  0  0  0  0  0  0  0  0
   -3.4198    1.1111    2.5641 C   0  0  0  0  0  0  0  0  0  0  0  0
   -3.1481    1.6079    3.8293 C   0  0  0  0  0  0  0  0  0  0  0  0
   -1.8445    1.6676    4.2879 C   0  0  0  0  0  0  0  0  0  0  0  0
    0.9784    0.0404    5.3345 C   0  0  0  0  0  0  0  0  0  0  0  0
    1.2988    0.6222    6.5058 C   0  0  0  0  0  0  0  0  0  0  0  0
    1.3997    2.0802    6.4238 C   0  0  0  0  0  0  0  0  0  0  0  0
    1.1623    2.5788    5.1930 C   0  0  0  0  0  0  0  0  0  0  0  0
    1.5308   -0.1001    7.7890 C   0  0  0  0  0  0  0  0  0  0  0  0
    1.7308    2.9009    7.6233 C   0  0  0  0  0  0  0  0  0  0  0  0
    3.9872   -0.8374    4.2814 C   0  0  0  0  0  0  0  0  0  0  0  0
    4.2269   -1.9829    5.0290 C   0  0  0  0  0  0  0  0  0  0  0  0
    4.7715   -1.8711    6.2957 C   0  0  0  0  0  0  0  0  0  0  0  0
    5.0843   -0.6239    6.8127 C   0  0  0  0  0  0  0  0  0  0  0  0
    4.8549    0.5188    6.0629 C   0  0  0  0  0  0  0  0  0  0  0  0
    4.3045    0.4132    4.7993 C   0  0  0  0  0  0  0  0  0  0  0  0
    4.5091   -1.6172    1.5604 C   0  0  0  0  0  0  0  0  0  0  0  0
    4.0928   -2.8046    1.0798 C   0  0  0  0  0  0  0  0  0  0  0  0
    2.7939   -3.2348    1.6078 C   0  0  0  0  0  0  0  0  0  0  0  0
    2.2555   -2.3732    2.4946 C   0  0  0  0  0  0  0  0  0  0  0  0
    4.8477   -3.6416    0.1056 C   0  0  0  0  0  0  0  0  0  0  0  0
    2.1715   -4.5179    1.1757 C   0  0  0  0  0  0  0  0  0  0  0  0
   -0.2559    0.4110    1.5675 H   0  0  0  0  0  0  0  0  0  0  0  0
   -2.6023    0.2895    0.7625 H   0  0  0  0  0  0  0  0  0  0  0  0
   -4.4393    1.0722    2.2097 H   0  0  0  0  0  0  0  0  0  0  0  0
   -3.9556    1.9535    4.4582 H   0  0  0  0  0  0  0  0  0  0  0  0
   -1.6193    2.0557    5.2714 H   0  0  0  0  0  0  0  0  0  0  0  0
    0.8668   -1.0208    5.1867 H   0  0  0  0  0  0  0  0  0  0  0  0
    1.1997    3.6173    4.9116 H   0  0  0  0  0  0  0  0  0  0  0  0
    0.8360    0.2450    8.5539 H   0  0  0  0  0  0  0  0  0  0  0  0
    2.5431    0.0847    8.1462 H   0  0  0  0  0  0  0  0  0  0  0  0
    1.4015   -1.1705    7.6530 H   0  0  0  0  0  0  0  0  0  0  0  0
    1.7811    3.9549    7.3639 H   0  0  0  0  0  0  0  0  0  0  0  0
    2.6903    2.5936    8.0376 H   0  0  0  0  0  0  0  0  0  0  0  0
    0.9766    2.7658    8.3982 H   0  0  0  0  0  0  0  0  0  0  0  0
    3.9818   -2.9516    4.6172 H   0  0  0  0  0  0  0  0  0  0  0  0
    4.9537   -2.7592    6.8831 H   0  0  0  0  0  0  0  0  0  0  0  0
    5.5103   -0.5444    7.8025 H   0  0  0  0  0  0  0  0  0  0  0  0
    5.1031    1.4907    6.4632 H   0  0  0  0  0  0  0  0  0  0  0  0
    4.1131    1.2997    4.1983 H   0  0  0  0  0  0  0  0  0  0  0  0
    5.4164   -1.1086    1.2840 H   0  0  0  0  0  0  0  0  0  0  0  0
    1.2970   -2.4922    2.9727 H   0  0  0  0  0  0  0  0  0  0  0  0
    5.0494   -4.6284    0.5214 H   0  0  0  0  0  0  0  0  0  0  0  0
    5.7905   -3.1678   -0.1528 H   0  0  0  0  0  0  0  0  0  0  0  0
    4.2642   -3.7745   -0.8046 H   0  0  0  0  0  0  0  0  0  0  0  0
    1.9983   -4.5053    0.1004 H   0  0  0  0  0  0  0  0  0  0  0  0
    1.2218   -4.6749    1.6806 H   0  0  0  0  0  0  0  0  0  0  0  0
    2.8313   -5.3565    1.3957 H   0  0  0  0  0  0  0  0  0  0  0  0
  2  1  1  0  0  0  0
  3  1  1  0  0  0  0
  4  1  1  6  0  0  0
  4 15  1  0  0  0  0
  4 12  1  0  0  0  0
  5  1  1  6  0  0  0
  5 18  1  0  0  0  0
  6  4  1  0  0  0  0
  6 11  1  0  0  0  0
  7  6  2  0  0  0  0
  8  7  1  0  0  0  0
  8  9  2  0  0  0  0
  9 10  1  0  0  0  0
 10 11  2  0  0  0  0
 10 33  1  0  0  0  0
 11 34  1  0  0  0  0
 12 13  2  0  0  0  0
 13 16  1  0  0  0  0
 14 13  1  0  0  0  0
 14 17  1  0  0  0  0
 15 14  2  0  0  0  0
 16 38  1  0  0  0  0
 16 37  1  0  0  0  0
 17 41  1  0  0  0  0
 17 42  1  0  0  0  0
 18 23  2  0  0  0  0
 18 19  1  0  0  0  0
 19 20  2  0  0  0  0
 20 21  1  0  0  0  0
 20 44  1  0  0  0  0
 21 45  1  0  0  0  0
 22 46  1  0  0  0  0
 22 21  2  0  0  0  0
 23 22  1  0  0  0  0
 24  5  1  0  0  0  0
 25 24  2  0  0  0  0
 25 26  1  0  0  0  0
 26 27  2  0  0  0  0
 27  5  1  0  0  0  0
 27 49  1  0  0  0  0
 28 50  1  0  0  0  0
 28 25  1  0  0  0  0
 29 55  1  0  0  0  0
 29 26  1  0  0  0  0
 29 54  1  0  0  0  0
 30  7  1  0  0  0  0
 31  8  1  0  0  0  0
 32  9  1  0  0  0  0
 35 12  1  0  0  0  0
 36 15  1  0  0  0  0
 39 16  1  0  0  0  0
 40 17  1  0  0  0  0
 43 19  1  0  0  0  0
 47 23  1  0  0  0  0
 48 24  1  0  0  0  0
 51 28  1  0  0  0  0
 52 28  1  0  0  0  0
 53 29  1  0  0  0  0
M  END
$$$$
