CSD_code = DOYFAY | q = 0 | S = 0 | Stoichiometry = C26H20Cl2N2O2Ti | MND = 6
 OpenBabel04212202033D

 53 58  0  0  0  0  0  0  0  0999 V2000
    9.8775    3.2925    3.6457 Ti  0  0  0  0  0  0  0  0  0  0  0  0
   11.2876    4.1901    2.1857 Cl  0  0  0  0  0  0  0  0  0  0  0  0
   10.7668    1.7850    3.8183 O   0  0  0  0  0  0  0  0  0  0  0  0
   10.9218    0.7302    4.5499 C   0  0  0  0  0  0  0  0  0  0  0  0
   11.9221   -0.2171    4.2519 C   0  0  0  0  0  0  0  0  0  0  0  0
   12.5301   -0.0427    3.3763 H   0  0  0  0  0  0  0  0  0  0  0  0
   12.1125   -1.3166    5.0518 C   0  0  0  0  0  0  0  0  0  0  0  0
   12.8871   -2.0283    4.8073 H   0  0  0  0  0  0  0  0  0  0  0  0
   11.3176   -1.5261    6.1805 C   0  0  0  0  0  0  0  0  0  0  0  0
   11.4814   -2.3931    6.8012 H   0  0  0  0  0  0  0  0  0  0  0  0
   10.3239   -0.6303    6.4878 C   0  0  0  0  0  0  0  0  0  0  0  0
    9.6950   -0.7899    7.3525 H   0  0  0  0  0  0  0  0  0  0  0  0
   10.0996    0.5049    5.6930 C   0  0  0  0  0  0  0  0  0  0  0  0
    9.0456    1.4108    6.0189 C   0  0  0  0  0  3  0  0  0  0  0  0
    8.4468    1.1557    6.9034 H   0  0  0  0  0  0  0  0  0  0  0  0
    8.7392    2.4569    5.3357 N   0  0  0  0  0  0  0  0  0  0  0  0
    7.6944    3.2823    5.7755 C   0  0  0  0  0  0  0  0  0  0  0  0
    7.7157    3.8394    7.0531 C   0  0  0  0  0  0  0  0  0  0  0  0
    8.5314    3.6036    7.7242 H   0  0  0  0  0  0  0  0  0  0  0  0
    6.7237    4.7226    7.4408 C   0  0  0  0  0  0  0  0  0  0  0  0
    6.7575    5.1653    8.4250 H   0  0  0  0  0  0  0  0  0  0  0  0
    5.6954    5.0381    6.5706 C   0  0  0  0  0  0  0  0  0  0  0  0
    4.9248    5.7298    6.8742 H   0  0  0  0  0  0  0  0  0  0  0  0
    5.6583    4.4646    5.3082 C   0  0  0  0  0  0  0  0  0  0  0  0
    4.8506    4.7024    4.6327 H   0  0  0  0  0  0  0  0  0  0  0  0
    6.6505    3.5928    4.9022 C   0  0  0  0  0  0  0  0  0  0  0  0
    6.6392    3.1452    3.9160 H   0  0  0  0  0  0  0  0  0  0  0  0
    8.4674    2.3949    2.1857 Cl  0  0  0  0  0  0  0  0  0  0  0  0
    8.9882    4.8000    3.8183 O   0  0  0  0  0  0  0  0  0  0  0  0
    8.8332    5.8548    4.5499 C   0  0  0  0  0  0  0  0  0  0  0  0
    7.8329    6.8021    4.2519 C   0  0  0  0  0  0  0  0  0  0  0  0
    7.2249    6.6277    3.3763 H   0  0  0  0  0  0  0  0  0  0  0  0
    7.6425    7.9016    5.0518 C   0  0  0  0  0  0  0  0  0  0  0  0
    6.8679    8.6133    4.8073 H   0  0  0  0  0  0  0  0  0  0  0  0
    8.4374    8.1111    6.1805 C   0  0  0  0  0  0  0  0  0  0  0  0
    8.2736    8.9781    6.8012 H   0  0  0  0  0  0  0  0  0  0  0  0
    9.4311    7.2153    6.4878 C   0  0  0  0  0  0  0  0  0  0  0  0
   10.0600    7.3749    7.3525 H   0  0  0  0  0  0  0  0  0  0  0  0
    9.6554    6.0801    5.6930 C   0  0  0  0  0  0  0  0  0  0  0  0
   10.7094    5.1742    6.0189 C   0  0  0  0  0  3  0  0  0  0  0  0
   11.3082    5.4293    6.9034 H   0  0  0  0  0  0  0  0  0  0  0  0
   11.0158    4.1281    5.3357 N   0  0  0  0  0  0  0  0  0  0  0  0
   12.0606    3.3027    5.7755 C   0  0  0  0  0  0  0  0  0  0  0  0
   12.0393    2.7456    7.0531 C   0  0  0  0  0  0  0  0  0  0  0  0
   11.2236    2.9814    7.7242 H   0  0  0  0  0  0  0  0  0  0  0  0
   13.0313    1.8624    7.4408 C   0  0  0  0  0  0  0  0  0  0  0  0
   12.9975    1.4197    8.4250 H   0  0  0  0  0  0  0  0  0  0  0  0
   14.0596    1.5469    6.5706 C   0  0  0  0  0  0  0  0  0  0  0  0
   14.8302    0.8552    6.8742 H   0  0  0  0  0  0  0  0  0  0  0  0
   14.0967    2.1204    5.3082 C   0  0  0  0  0  0  0  0  0  0  0  0
   14.9044    1.8827    4.6327 H   0  0  0  0  0  0  0  0  0  0  0  0
   13.1045    2.9922    4.9022 C   0  0  0  0  0  0  0  0  0  0  0  0
   13.1158    3.4399    3.9160 H   0  0  0  0  0  0  0  0  0  0  0  0
  1  3  1  0  0  0  0
  1 29  1  0  0  0  0
  1 16  1  0  0  0  0
  1 42  1  0  0  0  0
  2  1  1  0  0  0  0
  3  4  1  0  0  0  0
  4 13  1  0  0  0  0
  5  4  2  0  0  0  0
  5  7  1  0  0  0  0
  6  5  1  0  0  0  0
  7  9  2  0  0  0  0
  8  7  1  0  0  0  0
  9 11  1  0  0  0  0
  9 10  1  0  0  0  0
 11 12  1  0  0  0  0
 13 14  1  0  0  0  0
 13 11  2  0  0  0  0
 14 15  1  0  0  0  0
 16 17  1  0  0  0  0
 16 14  1  0  0  0  0
 17 18  1  0  0  0  0
 18 20  2  0  0  0  0
 18 19  1  0  0  0  0
 20 21  1  0  0  0  0
 22 23  1  0  0  0  0
 22 20  1  0  0  0  0
 24 22  2  0  0  0  0
 25 24  1  0  0  0  0
 26 24  1  0  0  0  0
 26 17  2  0  0  0  0
 27 26  1  0  0  0  0
 28  1  1  0  0  0  0
 29 30  1  0  0  0  0
 30 39  1  0  0  0  0
 31 30  2  0  0  0  0
 31 33  1  0  0  0  0
 32 31  1  0  0  0  0
 33 35  2  0  0  0  0
 34 33  1  0  0  0  0
 35 37  1  0  0  0  0
 35 36  1  0  0  0  0
 37 38  1  0  0  0  0
 39 40  1  0  0  0  0
 39 37  2  0  0  0  0
 40 41  1  0  0  0  0
 42 43  1  0  0  0  0
 42 40  1  0  0  0  0
 43 44  1  0  0  0  0
 44 46  2  0  0  0  0
 44 45  1  0  0  0  0
 46 47  1  0  0  0  0
 48 49  1  0  0  0  0
 48 46  1  0  0  0  0
 50 48  2  0  0  0  0
 51 50  1  0  0  0  0
 52 50  1  0  0  0  0
 52 43  2  0  0  0  0
 53 52  1  0  0  0  0
M  END
$$$$
