CSD_code = DOYPOY | q = 0 | S = 0 | Stoichiometry = C9H7AuCl3N | MND = 4
 OpenBabel04212202033D

 21 22  0  0  0  0  0  0  0  0999 V2000
    2.0127    4.7030    4.3355 Au  0  0  0  0  0  0  0  0  0  0  0  0
    2.4551    6.0458    1.7752 C   0  0  0  0  0  0  0  0  0  0  0  0
    2.6998    6.8348    2.4705 H   0  0  0  0  0  0  0  0  0  0  0  0
    2.5461    6.2623    0.3983 C   0  0  0  0  0  0  0  0  0  0  0  0
    2.8634    7.2265    0.0364 H   0  0  0  0  0  0  0  0  0  0  0  0
    2.2301    5.2382   -0.4560 C   0  0  0  0  0  0  0  0  0  0  0  0
    2.2906    5.3653   -1.5268 H   0  0  0  0  0  0  0  0  0  0  0  0
    1.8197    3.9990    0.0692 C   0  0  0  0  0  0  0  0  0  0  0  0
    1.4775    2.9002   -0.7470 C   0  0  0  0  0  3  0  0  0  0  0  0
    1.5347    3.0182   -1.8186 H   0  0  0  0  0  0  0  0  0  0  0  0
    1.0834    1.7167   -0.1894 C   0  0  0  0  0  0  0  0  0  0  0  0
    0.8227    0.8783   -0.8167 H   0  0  0  0  0  0  0  0  0  0  0  0
    1.0139    1.5810    1.2066 C   0  0  0  0  0  0  0  0  0  0  0  0
    0.6998    0.6414    1.6337 H   0  0  0  0  0  0  0  0  0  0  0  0
    1.3395    2.6259    2.0278 C   0  0  0  0  0  0  0  0  0  0  0  0
    1.2857    2.5225    3.1020 H   0  0  0  0  0  0  0  0  0  0  0  0
    1.7499    3.8564    1.4849 C   0  0  0  0  0  0  0  0  0  0  0  0
    4.1896    4.0047    4.2455 Cl  0  0  0  0  0  0  0  0  0  0  0  0
    1.9539    4.5074    6.5461 Cl  0  0  0  0  0  0  0  0  0  0  0  0
   -0.1624    5.4070    4.2562 Cl  0  0  0  0  0  0  0  0  0  0  0  0
    2.0765    4.8975    2.2887 N   0  0  0  0  0  0  0  0  0  0  0  0
  1 19  1  0  0  0  0
  2 21  1  0  0  0  0
  2  3  1  0  0  0  0
  4  2  2  0  0  0  0
  5  4  1  0  0  0  0
  6  8  2  0  0  0  0
  6  4  1  0  0  0  0
  7  6  1  0  0  0  0
  8 17  1  0  0  0  0
  9 11  1  0  0  0  0
  9  8  1  0  0  0  0
 10  9  1  0  0  0  0
 11 13  2  0  0  0  0
 12 11  1  0  0  0  0
 13 14  1  0  0  0  0
 13 15  1  0  0  0  0
 15 16  1  0  0  0  0
 17 15  2  0  0  0  0
 17 21  1  0  0  0  0
 18  1  1  0  0  0  0
 20  1  1  0  0  0  0
 21  1  1  0  0  0  0
M  END
$$$$
