CSD_code = DOYQIS | q = 0 | S = 0 | Stoichiometry = C24H36Cl2OZr | MND = 8
 OpenBabel04212202033D

 64 65  0  0  1  0  0  0  0  0999 V2000
    4.8601   11.0063    4.5404 Zr  0  0  0  0  0  0  0  0  0  0  0  0
    4.9279   12.0658    2.4551 Cl  0  0  0  0  0  0  0  0  0  0  0  0
    4.4323   13.0703    5.5490 Cl  0  0  0  0  0  0  0  0  0  0  0  0
    3.1955   10.2371    4.4232 O   0  0  0  0  0  0  0  0  0  0  0  0
    6.3693    9.0452    4.8341 C   0  0  0  0  0  0  0  0  0  0  0  0
    6.2743    9.6636    6.1136 C   0  0  0  0  0  0  0  0  0  0  0  0
    6.8082   10.9794    6.0119 C   0  0  0  0  0  0  0  0  0  0  0  0
    7.2329   11.1746    4.6697 C   0  0  1  0  0  0  0  0  0  0  0  0
    6.9737    9.9771    3.9390 C   0  0  0  0  0  0  0  0  0  0  0  0
    6.0717    7.5865    4.6069 C   0  0  0  0  0  0  0  0  0  0  0  0
    5.9703    8.9207    7.3857 C   0  0  0  0  0  0  0  0  0  0  0  0
    7.0109   11.9342    7.1562 C   0  0  0  0  0  0  0  0  0  0  0  0
    7.8520   12.4336    4.1217 C   0  0  0  0  0  0  0  0  0  0  0  0
    7.3934    9.7323    2.5129 C   0  0  0  0  0  0  0  0  0  0  0  0
    2.3080    9.2551    4.6028 C   0  0  0  0  0  0  0  0  0  0  0  0
    2.0442    8.3508    3.5482 C   0  0  0  0  0  0  0  0  0  0  0  0
    1.2452    7.2512    3.8229 C   0  0  0  0  0  0  0  0  0  0  0  0
    0.6764    7.0729    5.0704 C   0  0  0  0  0  0  0  0  0  0  0  0
    0.8180    8.0448    6.0430 C   0  0  0  0  0  0  0  0  0  0  0  0
    1.6092    9.1634    5.8284 C   0  0  0  0  0  0  0  0  0  0  0  0
    2.5407    8.6633    2.1381 C   0  0  0  0  0  0  0  0  0  0  0  0
    2.0240   10.0574    1.7439 C   0  0  0  0  0  0  0  0  0  0  0  0
    2.0164    7.6631    1.1009 C   0  0  0  0  0  0  0  0  0  0  0  0
    4.0747    8.6450    2.0663 C   0  0  0  0  0  0  0  0  0  0  0  0
    1.6619   10.3259    6.8181 C   0  0  0  0  0  0  0  0  0  0  0  0
    1.2400   11.6119    6.0863 C   0  0  0  0  0  0  0  0  0  0  0  0
    3.0752   10.4936    7.3975 C   0  0  0  0  0  0  0  0  0  0  0  0
    0.7024   10.1309    7.9985 C   0  0  0  0  0  0  0  0  0  0  0  0
    6.6341    6.9804    5.3202 H   0  0  0  0  0  0  0  0  0  0  0  0
    5.0097    7.3635    4.7468 H   0  0  0  0  0  0  0  0  0  0  0  0
    6.3639    7.2747    3.6069 H   0  0  0  0  0  0  0  0  0  0  0  0
    6.8354    8.3152    7.6709 H   0  0  0  0  0  0  0  0  0  0  0  0
    5.1230    8.2448    7.2618 H   0  0  0  0  0  0  0  0  0  0  0  0
    5.7655    9.6070    8.2051 H   0  0  0  0  0  0  0  0  0  0  0  0
    7.8916   11.6484    7.7370 H   0  0  0  0  0  0  0  0  0  0  0  0
    6.1487   11.9395    7.8255 H   0  0  0  0  0  0  0  0  0  0  0  0
    7.1596   12.9486    6.7904 H   0  0  0  0  0  0  0  0  0  0  0  0
    8.8573   12.5795    4.5240 H   0  0  0  0  0  0  0  0  0  0  0  0
    7.2497   13.3083    4.3878 H   0  0  0  0  0  0  0  0  0  0  0  0
    7.9196   12.3856    3.0355 H   0  0  0  0  0  0  0  0  0  0  0  0
    8.4700    9.8815    2.4119 H   0  0  0  0  0  0  0  0  0  0  0  0
    6.8902   10.4179    1.8262 H   0  0  0  0  0  0  0  0  0  0  0  0
    7.1668    8.7124    2.2083 H   0  0  0  0  0  0  0  0  0  0  0  0
    1.0473    6.5180    3.0593 H   0  0  0  0  0  0  0  0  0  0  0  0
    0.0761    6.1975    5.2679 H   0  0  0  0  0  0  0  0  0  0  0  0
    0.2924    7.9199    6.9749 H   0  0  0  0  0  0  0  0  0  0  0  0
    2.3208   10.2890    0.7232 H   0  0  0  0  0  0  0  0  0  0  0  0
    2.4298   10.8321    2.3969 H   0  0  0  0  0  0  0  0  0  0  0  0
    0.9375   10.0851    1.8051 H   0  0  0  0  0  0  0  0  0  0  0  0
    2.3693    7.9555    0.1143 H   0  0  0  0  0  0  0  0  0  0  0  0
    0.9296    7.6542    1.0802 H   0  0  0  0  0  0  0  0  0  0  0  0
    2.3778    6.6568    1.3004 H   0  0  0  0  0  0  0  0  0  0  0  0
    4.3951    8.9696    1.0770 H   0  0  0  0  0  0  0  0  0  0  0  0
    4.4387    7.6329    2.2353 H   0  0  0  0  0  0  0  0  0  0  0  0
    4.5114    9.3268    2.8108 H   0  0  0  0  0  0  0  0  0  0  0  0
    1.9298   11.8607    5.2763 H   0  0  0  0  0  0  0  0  0  0  0  0
    1.2240   12.4478    6.7830 H   0  0  0  0  0  0  0  0  0  0  0  0
    0.2428   11.4906    5.6664 H   0  0  0  0  0  0  0  0  0  0  0  0
    3.8286   10.5657    6.5951 H   0  0  0  0  0  0  0  0  0  0  0  0
    3.3076    9.6456    8.0398 H   0  0  0  0  0  0  0  0  0  0  0  0
    3.1208   11.4064    7.9919 H   0  0  0  0  0  0  0  0  0  0  0  0
    0.7517   11.0040    8.6456 H   0  0  0  0  0  0  0  0  0  0  0  0
    0.9726    9.2600    8.5915 H   0  0  0  0  0  0  0  0  0  0  0  0
   -0.3233   10.0237    7.6554 H   0  0  0  0  0  0  0  0  0  0  0  0
  1  8  1  0  0  0  0
  1  3  1  0  0  0  0
  2  1  1  0  0  0  0
  4  1  1  0  0  0  0
  4 15  1  0  0  0  0
  5  6  1  0  0  0  0
  6 11  1  0  0  0  0
  7  6  2  0  0  0  0
  7 12  1  0  0  0  0
  8 13  1  6  0  0  0
  8  7  1  0  0  0  0
  9  8  1  0  0  0  0
  9  5  2  0  0  0  0
 10 30  1  0  0  0  0
 10  5  1  0  0  0  0
 10 29  1  0  0  0  0
 11 32  1  0  0  0  0
 11 34  1  0  0  0  0
 12 35  1  0  0  0  0
 12 36  1  0  0  0  0
 13 39  1  0  0  0  0
 13 38  1  0  0  0  0
 14  9  1  0  0  0  0
 15 20  1  0  0  0  0
 16 17  1  0  0  0  0
 16 15  2  0  0  0  0
 17 18  2  0  0  0  0
 18 45  1  0  0  0  0
 18 19  1  0  0  0  0
 19 46  1  0  0  0  0
 20 19  2  0  0  0  0
 20 25  1  0  0  0  0
 21 16  1  0  0  0  0
 22 49  1  0  0  0  0
 22 21  1  0  0  0  0
 22 48  1  0  0  0  0
 23 52  1  0  0  0  0
 23 21  1  0  0  0  0
 24 21  1  0  0  0  0
 24 54  1  0  0  0  0
 24 55  1  0  0  0  0
 25 27  1  0  0  0  0
 25 28  1  0  0  0  0
 26 57  1  0  0  0  0
 26 25  1  0  0  0  0
 27 61  1  0  0  0  0
 27 60  1  0  0  0  0
 28 63  1  0  0  0  0
 28 62  1  0  0  0  0
 31 10  1  0  0  0  0
 33 11  1  0  0  0  0
 37 12  1  0  0  0  0
 40 13  1  0  0  0  0
 41 14  1  0  0  0  0
 42 14  1  0  0  0  0
 43 14  1  0  0  0  0
 44 17  1  0  0  0  0
 47 22  1  0  0  0  0
 50 23  1  0  0  0  0
 51 23  1  0  0  0  0
 53 24  1  0  0  0  0
 56 26  1  0  0  0  0
 58 26  1  0  0  0  0
 59 27  1  0  0  0  0
 64 28  1  0  0  0  0
M  END
$$$$
