CSD_code = DOYQOY | q = 0 | S = 0 | Stoichiometry = C28H28Cl2HfO | MND = 8
 OpenBabel04212202033D

 60 63  0  0  1  0  0  0  0  0999 V2000
    1.5787    2.9288   13.1738 Hf  0  0  0  0  0  0  0  0  0  0  0  0
    3.6316    2.8423   14.1760 Cl  0  0  0  0  0  0  0  0  0  0  0  0
    2.4005    2.0020   11.2530 Cl  0  0  0  0  0  0  0  0  0  0  0  0
    0.7927    1.5304   14.0707 O   0  0  0  0  0  0  0  0  0  0  0  0
   -0.2605    4.4303   13.3730 C   0  0  1  0  0  3  0  0  0  0  0  0
    0.1923    4.4614   12.0153 C   0  0  1  0  0  0  0  0  0  0  0  0
    1.5101    5.0111   12.0000 C   0  0  2  0  0  3  0  0  0  0  0  0
    1.8780    5.3162   13.3365 C   0  0  0  0  0  0  0  0  0  0  0  0
    0.7976    4.9431   14.1890 C   0  0  0  0  0  0  0  0  0  0  0  0
   -1.6750    4.2112   13.8328 C   0  0  0  0  0  0  0  0  0  0  0  0
   -0.5967    4.1362   10.7781 C   0  0  0  0  0  0  0  0  0  0  0  0
    2.2923    5.3452   10.7613 C   0  0  0  0  0  0  0  0  0  0  0  0
    3.1101    6.0510   13.7802 C   0  0  0  0  0  0  0  0  0  0  0  0
    0.7421    5.2286   15.6623 C   0  0  0  0  0  0  0  0  0  0  0  0
   -0.3704    1.2955   14.6804 C   0  0  0  0  0  0  0  0  0  0  0  0
   -0.4676    1.4237   16.0822 C   0  0  0  0  0  0  0  0  0  0  0  0
   -1.6731    1.1236   16.7076 C   0  0  0  0  0  0  0  0  0  0  0  0
   -2.7714    0.7094   15.9773 C   0  0  0  0  0  0  0  0  0  0  0  0
   -2.6879    0.6205   14.6008 C   0  0  0  0  0  0  0  0  0  0  0  0
   -1.5050    0.9186   13.9306 C   0  0  0  0  0  0  0  0  0  0  0  0
    0.6861    1.8894   16.8709 C   0  0  0  0  0  0  0  0  0  0  0  0
    1.9837    1.4611   16.5934 C   0  0  0  0  0  0  0  0  0  0  0  0
    3.0503    1.9178   17.3487 C   0  0  0  0  0  0  0  0  0  0  0  0
    2.8421    2.8079   18.3879 C   0  0  0  0  0  0  0  0  0  0  0  0
    1.5556    3.2299   18.6814 C   0  0  0  0  0  0  0  0  0  0  0  0
    0.4880    2.7744   17.9318 C   0  0  0  0  0  0  0  0  0  0  0  0
   -1.4493    0.8665   12.4595 C   0  0  0  0  0  0  0  0  0  0  0  0
   -0.3214    0.4019   11.7804 C   0  0  0  0  0  0  0  0  0  0  0  0
   -0.3089    0.3425   10.3956 C   0  0  0  0  0  0  0  0  0  0  0  0
   -1.4123    0.7488    9.6659 C   0  0  0  0  0  0  0  0  0  0  0  0
   -2.5404    1.2050   10.3284 C   0  0  0  0  0  0  0  0  0  0  0  0
   -2.5582    1.2653   11.7086 C   0  0  0  0  0  0  0  0  0  0  0  0
   -2.2225    3.5770   13.1404 H   0  0  0  0  0  0  0  0  0  0  0  0
   -1.7140    3.7496   14.8185 H   0  0  0  0  0  0  0  0  0  0  0  0
   -2.1933    5.1715   13.8916 H   0  0  0  0  0  0  0  0  0  0  0  0
   -1.5845    3.7581   11.0276 H   0  0  0  0  0  0  0  0  0  0  0  0
   -0.7189    5.0315   10.1662 H   0  0  0  0  0  0  0  0  0  0  0  0
   -0.0857    3.3834   10.1737 H   0  0  0  0  0  0  0  0  0  0  0  0
    3.3620    5.3545   10.9650 H   0  0  0  0  0  0  0  0  0  0  0  0
    2.1008    4.6192    9.9727 H   0  0  0  0  0  0  0  0  0  0  0  0
    2.0100    6.3335   10.3913 H   0  0  0  0  0  0  0  0  0  0  0  0
    2.9180    7.1262   13.7987 H   0  0  0  0  0  0  0  0  0  0  0  0
    3.4092    5.7415   14.7800 H   0  0  0  0  0  0  0  0  0  0  0  0
    3.9433    5.8678   13.1046 H   0  0  0  0  0  0  0  0  0  0  0  0
   -0.1455    4.7908   16.1121 H   0  0  0  0  0  0  0  0  0  0  0  0
    1.6202    4.8288   16.1729 H   0  0  0  0  0  0  0  0  0  0  0  0
    0.7147    6.3061   15.8363 H   0  0  0  0  0  0  0  0  0  0  0  0
   -1.7359    1.1897   17.7835 H   0  0  0  0  0  0  0  0  0  0  0  0
   -3.6916    0.4558   16.4810 H   0  0  0  0  0  0  0  0  0  0  0  0
   -3.5438    0.2875   14.0333 H   0  0  0  0  0  0  0  0  0  0  0  0
    2.1584    0.7349   15.8118 H   0  0  0  0  0  0  0  0  0  0  0  0
    4.0482    1.5781   17.1181 H   0  0  0  0  0  0  0  0  0  0  0  0
    3.6768    3.1664   18.9718 H   0  0  0  0  0  0  0  0  0  0  0  0
    1.3834    3.9186   19.4961 H   0  0  0  0  0  0  0  0  0  0  0  0
   -0.5106    3.1196   18.1602 H   0  0  0  0  0  0  0  0  0  0  0  0
    0.5231    0.0103   12.3337 H   0  0  0  0  0  0  0  0  0  0  0  0
    0.5695   -0.0277    9.8899 H   0  0  0  0  0  0  0  0  0  0  0  0
   -1.3992    0.7012    8.5875 H   0  0  0  0  0  0  0  0  0  0  0  0
   -3.4100    1.5156    9.7672 H   0  0  0  0  0  0  0  0  0  0  0  0
   -3.4426    1.6290   12.2132 H   0  0  0  0  0  0  0  0  0  0  0  0
  1  4  1  0  0  0  0
  1  2  1  0  0  0  0
  3  1  1  0  0  0  0
  4 15  1  0  0  0  0
  5 10  1  6  0  0  0
  5  9  1  0  0  0  0
  6 11  1  6  0  0  0
  6  1  1  0  0  0  0
  6  5  1  0  0  0  0
  7 12  1  6  0  0  0
  7  6  1  0  0  0  0
  7  8  1  0  0  0  0
  8 13  1  0  0  0  0
  8  9  2  0  0  0  0
  9 14  1  0  0  0  0
 10 35  1  0  0  0  0
 10 34  1  0  0  0  0
 11 36  1  0  0  0  0
 12 39  1  0  0  0  0
 13 42  1  0  0  0  0
 13 43  1  0  0  0  0
 14 47  1  0  0  0  0
 14 45  1  0  0  0  0
 14 46  1  0  0  0  0
 15 16  1  0  0  0  0
 16 17  2  0  0  0  0
 16 21  1  0  0  0  0
 17 48  1  0  0  0  0
 18 49  1  0  0  0  0
 18 17  1  0  0  0  0
 19 18  2  0  0  0  0
 20 19  1  0  0  0  0
 20 15  2  0  0  0  0
 21 26  1  0  0  0  0
 22 21  2  0  0  0  0
 22 23  1  0  0  0  0
 23 24  2  0  0  0  0
 24 25  1  0  0  0  0
 24 53  1  0  0  0  0
 25 54  1  0  0  0  0
 26 55  1  0  0  0  0
 26 25  2  0  0  0  0
 27 20  1  0  0  0  0
 28 56  1  0  0  0  0
 28 27  1  0  0  0  0
 29 28  2  0  0  0  0
 30 31  2  0  0  0  0
 30 29  1  0  0  0  0
 31 32  1  0  0  0  0
 32 60  1  0  0  0  0
 32 27  2  0  0  0  0
 33 10  1  0  0  0  0
 37 11  1  0  0  0  0
 38 11  1  0  0  0  0
 40 12  1  0  0  0  0
 41 12  1  0  0  0  0
 44 13  1  0  0  0  0
 50 19  1  0  0  0  0
 51 22  1  0  0  0  0
 52 23  1  0  0  0  0
 57 29  1  0  0  0  0
 58 30  1  0  0  0  0
 59 31  1  0  0  0  0
M  END
$$$$
