CSD_code = DOZVEV | q = 0 | S = 0 | Stoichiometry = C13H11AuClN3 | MND = 2
 OpenBabel04212202033D

 29 31  0  0  1  0  0  0  0  0999 V2000
    3.3259    0.3977    5.9040 Au  0  0  0  0  0  0  0  0  0  0  0  0
    2.6791    1.3739    3.9906 Cl  0  0  0  0  0  0  0  0  0  0  0  0
    3.8942   -0.4783    7.6215 C   0  0  2  0  0  3  0  0  0  0  0  0
    4.4000   -1.7165    7.7304 N   0  0  0  0  0  0  0  0  0  0  0  0
    3.7571   -0.0338    8.8939 N   0  0  0  0  0  0  0  0  0  0  0  0
    4.5736   -2.0551    9.0481 C   0  0  0  0  0  0  0  0  0  0  0  0
    4.9710   -3.0032    9.3457 H   0  0  0  0  0  0  0  0  0  0  0  0
    4.1601   -1.0007    9.7834 C   0  0  0  0  0  0  0  0  0  0  0  0
    4.1126   -0.8379   10.8389 H   0  0  0  0  0  0  0  0  0  0  0  0
    4.7143   -2.5919    6.6373 C   0  0  0  0  0  0  0  0  0  0  0  0
    4.0968   -3.4906    6.6833 H   0  0  0  0  0  0  0  0  0  0  0  0
    5.7652   -2.8823    6.6771 H   0  0  0  0  0  0  0  0  0  0  0  0
    4.5174   -2.0706    5.7014 H   0  0  0  0  0  0  0  0  0  0  0  0
    3.2306    1.1992    9.3221 C   0  0  0  0  0  0  0  0  0  0  0  0
    3.3731    2.3687    8.5484 C   0  0  0  0  0  0  0  0  0  0  0  0
    3.9048    2.3411    7.6119 H   0  0  0  0  0  0  0  0  0  0  0  0
    2.8219    3.5243    9.0286 C   0  0  0  0  0  0  0  0  0  0  0  0
    2.9023    4.4450    8.4694 H   0  0  0  0  0  0  0  0  0  0  0  0
    2.1523    3.5214   10.2702 C   0  0  0  0  0  0  0  0  0  0  0  0
    1.5534    4.6647   10.8336 C   0  0  0  0  0  0  0  0  0  0  0  0
    1.5906    5.5949   10.2852 H   0  0  0  0  0  0  0  0  0  0  0  0
    0.9369    4.5905   12.0521 C   0  0  0  0  0  0  0  0  0  0  0  0
    0.4765    5.4675   12.4821 H   0  0  0  0  0  0  0  0  0  0  0  0
    0.8943    3.3769   12.7578 C   0  0  0  0  0  0  0  0  0  0  0  0
    0.4024    3.3439   13.7187 H   0  0  0  0  0  0  0  0  0  0  0  0
    1.4652    2.2476   12.2403 C   0  0  0  0  0  0  0  0  0  0  0  0
    1.4384    1.3059   12.7655 H   0  0  0  0  0  0  0  0  0  0  0  0
    2.1035    2.2925   10.9843 C   0  0  0  0  0  0  0  0  0  0  0  0
    2.6458    1.1637   10.4902 N   0  0  0  0  0  0  0  0  0  0  0  0
  2  1  1  0  0  0  0
  3  1  1  1  0  0  0
  3  4  1  0  0  0  0
  3  5  1  0  0  0  0
  4  6  1  0  0  0  0
  5 14  1  0  0  0  0
  5  8  1  0  0  0  0
  6  7  1  0  0  0  0
  6  8  2  0  0  0  0
  8  9  1  0  0  0  0
 10 12  1  0  0  0  0
 10 11  1  0  0  0  0
 10  4  1  0  0  0  0
 13 10  1  0  0  0  0
 14 29  1  0  0  0  0
 15 17  1  0  0  0  0
 15 14  2  0  0  0  0
 16 15  1  0  0  0  0
 17 19  2  0  0  0  0
 18 17  1  0  0  0  0
 19 20  1  0  0  0  0
 19 28  1  0  0  0  0
 20 22  2  0  0  0  0
 21 20  1  0  0  0  0
 22 23  1  0  0  0  0
 22 24  1  0  0  0  0
 24 25  1  0  0  0  0
 26 24  2  0  0  0  0
 26 27  1  0  0  0  0
 28 26  1  0  0  0  0
 29 28  2  0  0  0  0
M  END
$$$$
