CSD_code = DOZXUN | q = 1 | S = 0 | Stoichiometry = C6H8AuCl2N2(1+) | MND = 4
 OpenBabel04212202033D

 19 20  0  0  1  0  0  0  0  0999 V2000
    0.5671    1.1146    4.5303 Au  0  0  0  0  0  0  0  0  0  0  0  0
   -0.1105    0.4761    6.3979 N   0  0  0  0  0  0  0  0  0  0  0  0
   -0.4090    1.4679    7.2484 C   0  0  1  0  0  3  0  0  0  0  0  0
   -0.9202    1.1885    8.5069 C   0  0  0  0  0  0  0  0  0  0  0  0
   -1.1573    1.9960    9.1814 H   0  0  0  0  0  0  0  0  0  0  0  0
   -1.1160   -0.1327    8.8830 C   0  0  0  0  0  0  0  0  0  0  0  0
   -1.5122   -0.3671    9.8590 H   0  0  0  0  0  0  0  0  0  0  0  0
   -0.7951   -1.1426    7.9870 C   0  0  0  0  0  0  0  0  0  0  0  0
   -0.9270   -2.1820    8.2396 H   0  0  0  0  0  0  0  0  0  0  0  0
   -0.2952   -0.7941    6.7457 C   0  0  0  0  0  0  0  0  0  0  0  0
   -0.0222   -1.5331    6.0058 H   0  0  0  0  0  0  0  0  0  0  0  0
   -0.1078    2.8704    6.7963 C   0  0  0  0  0  0  0  0  0  0  0  0
   -0.7909    3.5801    7.2732 H   0  0  0  0  0  0  0  0  0  0  0  0
    0.9094    3.1139    7.1239 H   0  0  0  0  0  0  0  0  0  0  0  0
   -0.1592    2.9757    5.3272 N   0  0  0  0  0  4  0  0  0  0  0  0
    0.3746    3.7789    4.9954 H   0  0  0  0  0  0  0  0  0  0  0  0
   -1.1187    3.1141    5.0095 H   0  0  0  0  0  0  0  0  0  0  0  0
    1.2640   -0.8818    3.8203 Cl  0  0  0  0  0  0  0  0  0  0  0  0
    1.2581    1.9853    2.5888 Cl  0  0  0  0  0  0  0  0  0  0  0  0
  1 15  1  0  0  0  0
  1  2  1  0  0  0  0
  2 10  1  0  0  0  0
  2  3  1  0  0  0  0
  3  4  1  1  0  0  0
  4  6  2  0  0  0  0
  4  5  1  0  0  0  0
  6  7  1  0  0  0  0
  8  9  1  0  0  0  0
  8  6  1  0  0  0  0
 10  8  2  0  0  0  0
 11 10  1  0  0  0  0
 12 14  1  0  0  0  0
 12  3  1  0  0  0  0
 12 13  1  0  0  0  0
 15 12  1  0  0  0  0
 16 15  1  0  0  0  0
 17 15  1  0  0  0  0
 18  1  1  0  0  0  0
 19  1  1  0  0  0  0
M  END
$$$$
