CSD_code = DPPPDC | q = 0 | S = 0 | Stoichiometry = C27H26Cl2P2Pd | MND = 4
 OpenBabel04212202033D

 58 62  0  0  0  0  0  0  0  0999 V2000
   -2.7328    2.4808    3.7570 Pd  0  0  0  0  0  0  0  0  0  0  0  0
   -3.7608    4.4417    3.2307 Cl  0  0  0  0  0  0  0  0  0  0  0  0
   -0.8662    3.4070    4.6897 Cl  0  0  0  0  0  0  0  0  0  0  0  0
   -1.5649    0.6456    4.1984 P   0  0  0  0  0  4  0  0  0  0  0  0
   -4.6504    1.5031    3.1796 P   0  0  0  0  0  4  0  0  0  0  0  0
   -2.4287   -0.9534    3.8192 C   0  0  0  0  0  0  0  0  0  0  0  0
   -3.1866   -0.8306    2.4933 C   0  0  0  0  0  0  0  0  0  0  0  0
   -4.6079   -0.2897    2.6622 C   0  0  0  0  0  0  0  0  0  0  0  0
   -0.1990    0.5747    3.0081 C   0  0  0  0  0  0  0  0  0  0  0  0
    0.8044   -0.3873    3.0714 C   0  0  0  0  0  0  0  0  0  0  0  0
    1.7920   -0.4151    2.1035 C   0  0  0  0  0  0  0  0  0  0  0  0
    1.7754    0.5030    1.0653 C   0  0  0  0  0  0  0  0  0  0  0  0
    0.7690    1.4526    0.9894 C   0  0  0  0  0  0  0  0  0  0  0  0
   -0.2182    1.4905    1.9576 C   0  0  0  0  0  0  0  0  0  0  0  0
   -0.9025    0.3919    5.8612 C   0  0  0  0  0  0  0  0  0  0  0  0
    0.4312    0.6239    6.1766 C   0  0  0  0  0  0  0  0  0  0  0  0
    0.8545    0.5136    7.4890 C   0  0  0  0  0  0  0  0  0  0  0  0
   -0.0467    0.1894    8.4897 C   0  0  0  0  0  0  0  0  0  0  0  0
   -1.3830   -0.0123    8.1824 C   0  0  0  0  0  0  0  0  0  0  0  0
   -1.8127    0.0956    6.8736 C   0  0  0  0  0  0  0  0  0  0  0  0
   -5.7762    2.2542    1.9777 C   0  0  0  0  0  0  0  0  0  0  0  0
   -5.4406    2.1533    0.6301 C   0  0  0  0  0  0  0  0  0  0  0  0
   -6.2187    2.7773   -0.3256 C   0  0  0  0  0  0  0  0  0  0  0  0
   -7.3281    3.5134    0.0598 C   0  0  0  0  0  0  0  0  0  0  0  0
   -7.6480    3.6367    1.4017 C   0  0  0  0  0  0  0  0  0  0  0  0
   -6.8714    3.0172    2.3639 C   0  0  0  0  0  0  0  0  0  0  0  0
   -5.5843    1.4446    4.7409 C   0  0  0  0  0  0  0  0  0  0  0  0
   -5.0277    2.0452    5.8690 C   0  0  0  0  0  0  0  0  0  0  0  0
   -5.6946    1.9916    7.0812 C   0  0  0  0  0  0  0  0  0  0  0  0
   -6.9167    1.3454    7.1719 C   0  0  0  0  0  0  0  0  0  0  0  0
   -7.4793    0.7568    6.0493 C   0  0  0  0  0  0  0  0  0  0  0  0
   -6.8172    0.8029    4.8365 C   0  0  0  0  0  0  0  0  0  0  0  0
   -1.6732   -1.7422    3.7581 H   0  0  0  0  0  0  0  0  0  0  0  0
   -3.1164   -1.2042    4.6304 H   0  0  0  0  0  0  0  0  0  0  0  0
   -2.6266   -0.1683    1.8187 H   0  0  0  0  0  0  0  0  0  0  0  0
   -3.2443   -1.8130    2.0162 H   0  0  0  0  0  0  0  0  0  0  0  0
   -5.1420   -0.3743    1.7117 H   0  0  0  0  0  0  0  0  0  0  0  0
   -5.1432   -0.8837    3.4075 H   0  0  0  0  0  0  0  0  0  0  0  0
    0.8137   -1.1044    3.8816 H   0  0  0  0  0  0  0  0  0  0  0  0
    2.5782   -1.1539    2.1583 H   0  0  0  0  0  0  0  0  0  0  0  0
    2.5510    0.4785    0.3143 H   0  0  0  0  0  0  0  0  0  0  0  0
    0.7581    2.1662    0.1792 H   0  0  0  0  0  0  0  0  0  0  0  0
   -1.0085    2.2548    1.9151 H   0  0  0  0  0  0  0  0  0  0  0  0
    1.1241    0.9138    5.4005 H   0  0  0  0  0  0  0  0  0  0  0  0
    1.8904    0.6953    7.7341 H   0  0  0  0  0  0  0  0  0  0  0  0
    0.2883    0.1122    9.5135 H   0  0  0  0  0  0  0  0  0  0  0  0
   -2.0912   -0.2412    8.9654 H   0  0  0  0  0  0  0  0  0  0  0  0
   -2.8623   -0.0279    6.6321 H   0  0  0  0  0  0  0  0  0  0  0  0
   -4.5550    1.5995    0.3403 H   0  0  0  0  0  0  0  0  0  0  0  0
   -5.9547    2.7015   -1.3703 H   0  0  0  0  0  0  0  0  0  0  0  0
   -7.9342    4.0052   -0.6866 H   0  0  0  0  0  0  0  0  0  0  0  0
   -8.4999    4.2288    1.7021 H   0  0  0  0  0  0  0  0  0  0  0  0
   -7.1034    3.1362    3.4124 H   0  0  0  0  0  0  0  0  0  0  0  0
   -4.0672    2.5775    5.7930 H   0  0  0  0  0  0  0  0  0  0  0  0
   -5.2613    2.4570    7.9539 H   0  0  0  0  0  0  0  0  0  0  0  0
   -7.4366    1.3048    8.1175 H   0  0  0  0  0  0  0  0  0  0  0  0
   -8.4377    0.2634    6.1212 H   0  0  0  0  0  0  0  0  0  0  0  0
   -7.2569    0.3528    3.9561 H   0  0  0  0  0  0  0  0  0  0  0  0
  1  4  1  0  0  0  0
  1  3  1  0  0  0  0
  2  1  1  0  0  0  0
  4 15  1  0  0  0  0
  5  1  1  0  0  0  0
  5 27  1  0  0  0  0
  6  4  1  0  0  0  0
  6 34  1  0  0  0  0
  7  8  1  0  0  0  0
  7  6  1  0  0  0  0
  8  5  1  0  0  0  0
  8 38  1  0  0  0  0
  9 10  1  0  0  0  0
  9  4  1  0  0  0  0
 10 39  1  0  0  0  0
 11 40  1  0  0  0  0
 11 10  2  0  0  0  0
 12 11  1  0  0  0  0
 13 12  2  0  0  0  0
 13 14  1  0  0  0  0
 14  9  2  0  0  0  0
 15 16  2  0  0  0  0
 15 20  1  0  0  0  0
 16 17  1  0  0  0  0
 17 45  1  0  0  0  0
 17 18  2  0  0  0  0
 18 46  1  0  0  0  0
 19 18  1  0  0  0  0
 19 47  1  0  0  0  0
 20 19  2  0  0  0  0
 21 26  1  0  0  0  0
 21  5  1  0  0  0  0
 22 21  2  0  0  0  0
 23 24  2  0  0  0  0
 23 22  1  0  0  0  0
 24 25  1  0  0  0  0
 25 52  1  0  0  0  0
 25 26  2  0  0  0  0
 26 53  1  0  0  0  0
 27 32  2  0  0  0  0
 27 28  1  0  0  0  0
 28 29  2  0  0  0  0
 29 30  1  0  0  0  0
 29 55  1  0  0  0  0
 30 56  1  0  0  0  0
 31 57  1  0  0  0  0
 31 30  2  0  0  0  0
 32 31  1  0  0  0  0
 33  6  1  0  0  0  0
 35  7  1  0  0  0  0
 36  7  1  0  0  0  0
 37  8  1  0  0  0  0
 41 12  1  0  0  0  0
 42 13  1  0  0  0  0
 43 14  1  0  0  0  0
 44 16  1  0  0  0  0
 48 20  1  0  0  0  0
 49 22  1  0  0  0  0
 50 23  1  0  0  0  0
 51 24  1  0  0  0  0
 54 28  1  0  0  0  0
 58 32  1  0  0  0  0
M  END
$$$$
