CSD_code = DUBJEP | q = 0 | S = 0 | Stoichiometry = C26H23Cl3N4P2W | MND = 6
 OpenBabel04212202033D

 59 63  0  0  0  0  0  0  0  0999 V2000
    1.7506    1.9447    2.0930 W   0  0  0  0  0  0  0  0  0  0  0  0
    3.2398    1.6387    3.8613 Cl  0  0  0  0  0  0  0  0  0  0  0  0
    3.5059    3.1578    1.1202 Cl  0  0  0  0  0  0  0  0  0  0  0  0
    0.9161    1.8457   -0.1666 Cl  0  0  0  0  0  0  0  0  0  0  0  0
    0.7821    3.3956    2.6805 N   0  0  0  0  0  2  0  0  0  0  0  0
   -0.0745    3.4377    4.0404 P   0  0  0  0  0  4  0  0  0  0  0  0
    0.6065    0.5951    2.6375 N   0  0  0  0  0  2  0  0  0  0  0  0
   -0.2717    0.6279    3.9726 P   0  0  0  0  0  4  0  0  0  0  0  0
   -0.8960    2.0792    4.3836 N   0  0  0  0  0  2  0  0  0  0  0  0
    1.1043    3.8780    5.3589 C   0  0  0  0  0  0  0  0  0  0  0  0
    0.7206    3.7405    6.6854 C   0  0  0  0  0  0  0  0  0  0  0  0
    1.6194    4.0343    7.6939 C   0  0  0  0  0  0  0  0  0  0  0  0
    2.8960    4.4701    7.3752 C   0  0  0  0  0  0  0  0  0  0  0  0
    3.2728    4.6264    6.0510 C   0  0  0  0  0  0  0  0  0  0  0  0
    2.3769    4.3327    5.0384 C   0  0  0  0  0  0  0  0  0  0  0  0
   -1.3123    4.7556    4.0129 C   0  0  0  0  0  0  0  0  0  0  0  0
   -0.8800    6.0749    4.0167 C   0  0  0  0  0  0  0  0  0  0  0  0
   -1.8052    7.1002    3.9486 C   0  0  0  0  0  0  0  0  0  0  0  0
   -3.1581    6.8058    3.8760 C   0  0  0  0  0  0  0  0  0  0  0  0
   -3.5871    5.4883    3.8684 C   0  0  0  0  0  0  0  0  0  0  0  0
   -2.6641    4.4594    3.9345 C   0  0  0  0  0  0  0  0  0  0  0  0
   -1.7068   -0.4718    3.8808 C   0  0  0  0  0  0  0  0  0  0  0  0
   -2.8683   -0.1940    4.5857 C   0  0  0  0  0  0  0  0  0  0  0  0
   -3.9426   -1.0616    4.5040 C   0  0  0  0  0  0  0  0  0  0  0  0
   -3.8542   -2.2037    3.7239 C   0  0  0  0  0  0  0  0  0  0  0  0
   -2.6928   -2.4803    3.0199 C   0  0  0  0  0  0  0  0  0  0  0  0
   -1.6169   -1.6149    3.0997 C   0  0  0  0  0  0  0  0  0  0  0  0
    0.7658   -0.0321    5.3192 C   0  0  0  0  0  0  0  0  0  0  0  0
    1.8364   -0.8621    5.0145 C   0  0  0  0  0  0  0  0  0  0  0  0
    2.6332   -1.3527    6.0324 C   0  0  0  0  0  0  0  0  0  0  0  0
    2.3570   -1.0194    7.3490 C   0  0  0  0  0  0  0  0  0  0  0  0
    1.2794   -0.2033    7.6526 C   0  0  0  0  0  0  0  0  0  0  0  0
    0.4796    0.2890    6.6376 C   0  0  0  0  0  0  0  0  0  0  0  0
    3.0803    0.2014    1.1712 N   0  0  0  0  0  2  0  0  0  0  0  0
    3.3628   -0.0404    0.0827 C   0  0  0  0  0  2  0  0  0  0  0  0
    3.6820   -0.2980   -1.2752 C   0  0  0  0  0  0  0  0  0  0  0  0
   -0.2831    3.4057    6.9062 H   0  0  0  0  0  0  0  0  0  0  0  0
    1.3280    3.9238    8.7282 H   0  0  0  0  0  0  0  0  0  0  0  0
    3.6001    4.6925    8.1635 H   0  0  0  0  0  0  0  0  0  0  0  0
    4.2664    4.9711    5.8069 H   0  0  0  0  0  0  0  0  0  0  0  0
    2.6531    4.4517    3.9938 H   0  0  0  0  0  0  0  0  0  0  0  0
    0.1804    6.2826    4.0721 H   0  0  0  0  0  0  0  0  0  0  0  0
   -1.4751    8.1287    3.9507 H   0  0  0  0  0  0  0  0  0  0  0  0
   -3.8800    7.6077    3.8224 H   0  0  0  0  0  0  0  0  0  0  0  0
   -4.6423    5.2647    3.8075 H   0  0  0  0  0  0  0  0  0  0  0  0
   -2.9692    3.4236    3.9263 H   0  0  0  0  0  0  0  0  0  0  0  0
   -2.9173    0.7059    5.1797 H   0  0  0  0  0  0  0  0  0  0  0  0
   -4.8520   -0.8492    5.0474 H   0  0  0  0  0  0  0  0  0  0  0  0
   -4.6951   -2.8790    3.6610 H   0  0  0  0  0  0  0  0  0  0  0  0
   -2.6304   -3.3690    2.4087 H   0  0  0  0  0  0  0  0  0  0  0  0
   -0.7029   -1.7987    2.5517 H   0  0  0  0  0  0  0  0  0  0  0  0
    2.0377   -1.0986    3.9761 H   0  0  0  0  0  0  0  0  0  0  0  0
    3.4744   -1.9891    5.8012 H   0  0  0  0  0  0  0  0  0  0  0  0
    2.9852   -1.3977    8.1423 H   0  0  0  0  0  0  0  0  0  0  0  0
    1.0654    0.0501    8.6808 H   0  0  0  0  0  0  0  0  0  0  0  0
   -0.3667    0.9252    6.8504 H   0  0  0  0  0  0  0  0  0  0  0  0
    3.6625   -1.3681   -1.4772 H   0  0  0  0  0  0  0  0  0  0  0  0
    4.6675    0.1078   -1.5032 H   0  0  0  0  0  0  0  0  0  0  0  0
    2.9285    0.2094   -1.8830 H   0  0  0  0  0  0  0  0  0  0  0  0
  1  7  1  0  0  0  0
  1  5  1  0  0  0  0
  1  2  1  0  0  0  0
  3  1  1  0  0  0  0
  4  1  1  0  0  0  0
  5  6  1  0  0  0  0
  6  9  1  0  0  0  0
  6 10  1  0  0  0  0
  7  8  1  0  0  0  0
  8  9  1  0  0  0  0
  8 28  1  0  0  0  0
 10 11  1  0  0  0  0
 11 37  1  0  0  0  0
 11 12  2  0  0  0  0
 12 38  1  0  0  0  0
 13 12  1  0  0  0  0
 13 39  1  0  0  0  0
 14 13  2  0  0  0  0
 15 10  2  0  0  0  0
 15 14  1  0  0  0  0
 16 17  1  0  0  0  0
 16  6  1  0  0  0  0
 17 42  1  0  0  0  0
 18 43  1  0  0  0  0
 18 17  2  0  0  0  0
 19 18  1  0  0  0  0
 20 19  2  0  0  0  0
 20 21  1  0  0  0  0
 21 16  2  0  0  0  0
 22  8  1  0  0  0  0
 22 23  1  0  0  0  0
 23 47  1  0  0  0  0
 24 23  2  0  0  0  0
 24 48  1  0  0  0  0
 25 24  1  0  0  0  0
 26 27  1  0  0  0  0
 26 25  2  0  0  0  0
 27 22  2  0  0  0  0
 28 33  1  0  0  0  0
 29 28  2  0  0  0  0
 29 30  1  0  0  0  0
 30 31  2  0  0  0  0
 31 32  1  0  0  0  0
 31 54  1  0  0  0  0
 32 55  1  0  0  0  0
 33 56  1  0  0  0  0
 33 32  2  0  0  0  0
 34  1  1  0  0  0  0
 35 34  1  0  0  0  0
 36 35  1  0  0  0  0
 40 14  1  0  0  0  0
 41 15  1  0  0  0  0
 44 19  1  0  0  0  0
 45 20  1  0  0  0  0
 46 21  1  0  0  0  0
 49 25  1  0  0  0  0
 50 26  1  0  0  0  0
 51 27  1  0  0  0  0
 52 29  1  0  0  0  0
 53 30  1  0  0  0  0
 57 36  1  0  0  0  0
 58 36  1  0  0  0  0
 59 36  1  0  0  0  0
M  END
$$$$
