CSD_code = DUBLAP | q = 0 | S = 0 | Stoichiometry = C19H19ClN2Pd | MND = 4
 OpenBabel04212202033D

 42 45  0  0  1  0  0  0  0  0999 V2000
    2.8928    7.5087    2.1029 Pd  0  0  1  0  0  0  0  0  0  0  0  0
    0.8262    6.6555    1.3822 Cl  0  0  0  0  0  0  0  0  0  0  0  0
    3.9121    5.8190    1.8950 N   0  0  0  0  0  0  0  0  0  0  0  0
    3.3852    4.6773    1.4670 C   0  0  0  0  0  0  0  0  0  0  0  0
    2.3290    4.6968    1.2188 H   0  0  0  0  0  0  0  0  0  0  0  0
    4.1267    3.5153    1.3382 C   0  0  0  0  0  0  0  0  0  0  0  0
    3.6564    2.6113    0.9866 H   0  0  0  0  0  0  0  0  0  0  0  0
    5.4729    3.5464    1.6698 C   0  0  0  0  0  0  0  0  0  0  0  0
    6.0835    2.6599    1.5826 H   0  0  0  0  0  0  0  0  0  0  0  0
    6.0220    4.7335    2.1147 C   0  0  0  0  0  0  0  0  0  0  0  0
    7.0660    4.7831    2.3787 H   0  0  0  0  0  0  0  0  0  0  0  0
    5.2222    5.8714    2.2228 C   0  0  0  0  0  0  0  0  0  0  0  0
    5.6772    7.1810    2.6778 C   0  0  0  0  0  0  0  0  0  0  0  0
    6.9877    7.4627    3.0631 C   0  0  0  0  0  0  0  0  0  0  0  0
    7.7466    6.6940    3.0392 H   0  0  0  0  0  0  0  0  0  0  0  0
    7.3253    8.7345    3.4805 C   0  0  0  0  0  0  0  0  0  0  0  0
    8.3401    8.9541    3.7793 H   0  0  0  0  0  0  0  0  0  0  0  0
    6.3594    9.7281    3.5156 C   0  0  0  0  0  0  0  0  0  0  0  0
    6.6251   10.7240    3.8426 H   0  0  0  0  0  0  0  0  0  0  0  0
    5.0555    9.4513    3.1332 C   0  0  0  0  0  0  0  0  0  0  0  0
    4.3231   10.2516    3.1715 H   0  0  0  0  0  0  0  0  0  0  0  0
    4.6802    8.1800    2.7065 C   0  0  0  0  0  0  0  0  0  0  0  0
    1.9348    9.2152    2.3326 N   0  0  0  0  0  0  0  0  0  0  0  0
    1.7963   10.0326    1.2863 C   0  0  2  0  0  3  0  0  0  0  0  0
    0.9907   11.1564    1.3649 C   0  0  0  0  0  0  0  0  0  0  0  0
    0.8882   11.8056    0.5089 H   0  0  0  0  0  0  0  0  0  0  0  0
    0.3040   11.4379    2.5423 C   0  0  0  0  0  0  0  0  0  0  0  0
    0.4584   10.5566    3.6057 C   0  0  0  0  0  0  0  0  0  0  0  0
   -0.0659   10.7251    4.5337 H   0  0  0  0  0  0  0  0  0  0  0  0
    1.2784    9.4466    3.4703 C   0  0  0  0  0  0  0  0  0  0  0  0
    2.5387    9.6414    0.0463 C   0  0  0  0  0  0  0  0  0  0  0  0
    2.3852   10.3606   -0.7539 H   0  0  0  0  0  0  0  0  0  0  0  0
    2.1792    8.6547   -0.2829 H   0  0  0  0  0  0  0  0  0  0  0  0
    3.6120    9.5600    0.2663 H   0  0  0  0  0  0  0  0  0  0  0  0
   -0.5615   12.6513    2.6505 C   0  0  0  0  0  0  0  0  0  0  0  0
    0.0595   13.5446    2.7175 H   0  0  0  0  0  0  0  0  0  0  0  0
   -1.1924   12.6033    3.5339 H   0  0  0  0  0  0  0  0  0  0  0  0
   -1.1912   12.7499    1.7688 H   0  0  0  0  0  0  0  0  0  0  0  0
    1.4682    8.4326    4.5552 C   0  0  0  0  0  0  0  0  0  0  0  0
    0.9204    8.7029    5.4543 H   0  0  0  0  0  0  0  0  0  0  0  0
    2.5371    8.3364    4.7908 H   0  0  0  0  0  0  0  0  0  0  0  0
    1.1067    7.4583    4.1933 H   0  0  0  0  0  0  0  0  0  0  0  0
  1  2  1  6  0  0  0
  1 23  1  0  0  0  0
  1 22  2  0  0  0  0
  3  1  1  0  0  0  0
  3 12  1  0  0  0  0
  4  3  1  0  0  0  0
  5  4  1  0  0  0  0
  6  4  2  0  0  0  0
  6  8  1  0  0  0  0
  7  6  1  0  0  0  0
  8 10  2  0  0  0  0
  9  8  1  0  0  0  0
 10 12  1  0  0  0  0
 10 11  1  0  0  0  0
 12 13  2  0  0  0  0
 13 22  1  0  0  0  0
 13 14  1  0  0  0  0
 14 16  2  0  0  0  0
 15 14  1  0  0  0  0
 16 18  1  0  0  0  0
 16 17  1  0  0  0  0
 18 19  1  0  0  0  0
 20 21  1  0  0  0  0
 20 18  2  0  0  0  0
 22 20  1  0  0  0  0
 23 30  1  0  0  0  0
 24 31  1  6  0  0  0
 24 25  1  0  0  0  0
 24 23  1  0  0  0  0
 25 27  2  0  0  0  0
 26 25  1  0  0  0  0
 27 35  1  0  0  0  0
 27 28  1  0  0  0  0
 28 29  1  0  0  0  0
 30 28  2  0  0  0  0
 30 39  1  0  0  0  0
 31 34  1  0  0  0  0
 32 31  1  0  0  0  0
 33 31  1  0  0  0  0
 35 36  1  0  0  0  0
 35 37  1  0  0  0  0
 38 35  1  0  0  0  0
 39 41  1  0  0  0  0
 39 40  1  0  0  0  0
 42 39  1  0  0  0  0
M  END
$$$$
