CSD_code = DUBNUK | q = 1 | S = 0 | Stoichiometry = C2H8AuCl2N2(1+) | MND = 4
 OpenBabel04212202033D

 15 15  0  0  0  0  0  0  0  0999 V2000
    3.6001    0.7058    7.3583 Au  0  0  0  0  0  0  0  0  0  0  0  0
    1.9919    0.6975    8.9160 Cl  0  0  0  0  0  0  0  0  0  0  0  0
    2.2458   -0.5026    6.0485 Cl  0  0  0  0  0  0  0  0  0  0  0  0
    5.2350    0.7779    5.9410 N   0  0  0  0  0  4  0  0  0  0  0  0
    5.7054   -0.1274    5.9354 H   0  0  0  0  0  0  0  0  0  0  0  0
    4.9176    0.9419    4.9861 H   0  0  0  0  0  0  0  0  0  0  0  0
    4.9979    1.8778    8.5239 N   0  0  0  0  0  4  0  0  0  0  0  0
    4.6969    2.8526    8.5157 H   0  0  0  0  0  0  0  0  0  0  0  0
    5.0243    1.5940    9.5028 H   0  0  0  0  0  0  0  0  0  0  0  0
    6.1611    1.8382    6.3833 C   0  0  0  0  0  0  0  0  0  0  0  0
    5.7262    2.8044    6.1187 H   0  0  0  0  0  0  0  0  0  0  0  0
    7.1331    1.7491    5.8906 H   0  0  0  0  0  0  0  0  0  0  0  0
    6.3257    1.7418    7.8948 C   0  0  0  0  0  0  0  0  0  0  0  0
    6.7317    0.7637    8.1613 H   0  0  0  0  0  0  0  0  0  0  0  0
    7.0157    2.5119    8.2502 H   0  0  0  0  0  0  0  0  0  0  0  0
  1  7  1  0  0  0  0
  1  2  1  0  0  0  0
  3  1  1  0  0  0  0
  4 10  1  0  0  0  0
  4  1  1  0  0  0  0
  5  4  1  0  0  0  0
  6  4  1  0  0  0  0
  7  9  1  0  0  0  0
  8  7  1  0  0  0  0
 10 13  1  0  0  0  0
 11 10  1  0  0  0  0
 12 10  1  0  0  0  0
 13 14  1  0  0  0  0
 13 15  1  0  0  0  0
 13  7  1  0  0  0  0
M  END
$$$$
