CSD_code = DUBZEH | q = 1 | S = 0 | Stoichiometry = C6H13ClN7Pt(1+) | MND = 4
 OpenBabel04212202033D

 28 29  0  0  1  0  0  0  0  0999 V2000
    3.9495    3.0166    5.0805 Pt  0  0  0  0  0  0  0  0  0  0  0  0
    5.5482    4.6076    4.9875 Cl  0  0  0  0  0  0  0  0  0  0  0  0
    3.0744    3.9650    3.4669 N   0  0  0  0  0  4  0  0  0  0  0  0
    2.8419    3.3830    2.6603 H   0  0  0  0  0  0  0  0  0  0  0  0
    3.7805    4.6560    3.1846 H   0  0  0  0  0  0  0  0  0  0  0  0
    2.2371    4.4797    3.7497 H   0  0  0  0  0  0  0  0  0  0  0  0
    4.9464    2.2669    6.7293 N   0  0  0  0  0  4  0  0  0  0  0  0
    4.4600    2.5039    7.5974 H   0  0  0  0  0  0  0  0  0  0  0  0
    5.8384    2.7758    6.7271 H   0  0  0  0  0  0  0  0  0  0  0  0
    5.1392    1.2638    6.7263 H   0  0  0  0  0  0  0  0  0  0  0  0
    4.0612   -1.5605    3.6114 N   0  0  0  0  0  0  0  0  0  0  0  0
    2.9773   -2.2899    3.8214 C   0  0  0  0  0  0  0  0  0  0  0  0
    3.0306   -3.3195    3.4998 H   0  0  0  0  0  0  0  0  0  0  0  0
    1.8410   -1.9064    4.3724 N   0  0  0  0  0  2  0  0  0  0  0  0
    1.8482   -0.6325    4.7456 C   0  0  0  0  0  0  0  0  0  0  0  0
    2.9305    0.2484    4.5884 C   0  0  0  0  0  0  0  0  0  0  0  0
    4.0892   -0.2809    3.9732 C   0  0  1  0  0  3  0  0  0  0  0  0
    5.2150    0.4255    3.7769 N   0  0  0  0  0  0  0  0  0  0  0  0
    5.9552   -0.0220    3.2618 H   0  0  0  0  0  0  0  0  0  0  0  0
    5.2142    1.4379    3.8799 H   0  0  0  0  0  0  0  0  0  0  0  0
    2.5687    1.4732    5.0989 N   0  0  0  0  0  0  0  0  0  0  0  0
    1.3340    1.3317    5.5369 C   0  0  0  0  0  3  0  0  0  0  0  0
    0.7622    2.1135    6.0004 H   0  0  0  0  0  0  0  0  0  0  0  0
    0.8541    0.0871    5.3489 N   0  0  0  0  0  0  0  0  0  0  0  0
   -0.4447   -0.4237    5.6968 C   0  0  0  0  0  0  0  0  0  0  0  0
   -0.4580   -1.4833    5.4474 H   0  0  0  0  0  0  0  0  0  0  0  0
   -1.2229    0.0909    5.1320 H   0  0  0  0  0  0  0  0  0  0  0  0
   -0.6332   -0.2957    6.7627 H   0  0  0  0  0  0  0  0  0  0  0  0
  1 21  1  0  0  0  0
  1  7  1  0  0  0  0
  2  1  1  0  0  0  0
  3  6  1  0  0  0  0
  3  1  1  0  0  0  0
  4  3  1  0  0  0  0
  5  3  1  0  0  0  0
  7  8  1  0  0  0  0
  9  7  1  0  0  0  0
 10  7  1  0  0  0  0
 11 12  2  0  0  0  0
 11 17  1  0  0  0  0
 12 14  1  0  0  0  0
 13 12  1  0  0  0  0
 14 15  1  0  0  0  0
 15 24  1  0  0  0  0
 16 15  2  0  0  0  0
 16 21  1  0  0  0  0
 17 18  1  1  0  0  0
 17 16  1  0  0  0  0
 18 20  1  0  0  0  0
 19 18  1  0  0  0  0
 21 22  1  0  0  0  0
 22 23  1  0  0  0  0
 24 22  1  0  0  0  0
 24 25  1  0  0  0  0
 25 28  1  0  0  0  0
 26 25  1  0  0  0  0
 27 25  1  0  0  0  0
M  END
$$$$
