CSD_code = DUCRID | q = 0 | S = 0 | Stoichiometry = C22H31ClN2O2Zn | MND = 4
 OpenBabel04212202033D

 59 65  0  0  1  0  0  0  0  0999 V2000
    2.7973    9.7476    0.5483 Zn  0  0  0  0  0  0  0  0  0  0  0  0
    4.9036   10.3016    0.7437 Cl  0  0  0  0  0  0  0  0  0  0  0  0
    2.1841   10.1677   -1.3963 O   0  0  0  0  0  0  0  0  0  0  0  0
    2.4227    8.1241   -0.6920 O   0  0  0  0  0  0  0  0  0  0  0  0
    1.2003   10.8796    1.4706 N   0  0  2  0  0  4  0  0  0  0  0  0
    0.8796   12.0240    0.6055 C   0  0  0  0  0  0  0  0  0  0  0  0
   -0.0003   12.5504    1.0095 H   0  0  0  0  0  0  0  0  0  0  0  0
    0.6343   11.6434   -0.3864 H   0  0  0  0  0  0  0  0  0  0  0  0
    2.0522   12.9875    0.5019 C   0  0  0  0  0  0  0  0  0  0  0  0
    1.7754   13.8137   -0.1544 H   0  0  0  0  0  0  0  0  0  0  0  0
    2.8999   12.4675    0.0527 H   0  0  0  0  0  0  0  0  0  0  0  0
    2.4386   13.5001    1.8827 C   0  0  0  0  0  0  0  0  0  0  0  0
    3.3298   14.1239    1.8175 H   0  0  0  0  0  0  0  0  0  0  0  0
    1.6278   14.1091    2.2938 H   0  0  0  0  0  0  0  0  0  0  0  0
    2.7048   12.3055    2.7908 C   0  0  0  0  0  0  0  0  0  0  0  0
    3.5708   11.7640    2.4117 H   0  0  0  0  0  0  0  0  0  0  0  0
    2.9239   12.6399    3.8067 H   0  0  0  0  0  0  0  0  0  0  0  0
    1.4852   11.3870    2.8209 C   0  0  2  0  0  0  0  0  0  0  0  0
    0.6169   11.9922    3.1453 H   0  0  0  0  0  0  0  0  0  0  0  0
    1.6249   10.2500    3.8416 C   0  0  1  0  0  0  0  0  0  0  0  0
    1.8311   10.7153    4.8122 H   0  0  0  0  0  0  0  0  0  0  0  0
    0.3014    9.4959    3.8941 C   0  0  0  0  0  0  0  0  0  0  0  0
    0.3060    8.7494    4.6876 H   0  0  0  0  0  0  0  0  0  0  0  0
   -0.5244   10.1822    4.0956 H   0  0  0  0  0  0  0  0  0  0  0  0
    0.1286    8.8529    2.5222 C   0  0  1  0  0  0  0  0  0  0  0  0
   -0.8222    8.3095    2.4787 H   0  0  0  0  0  0  0  0  0  0  0  0
    0.0464    9.9707    1.4792 C   0  0  0  0  0  0  0  0  0  0  0  0
   -0.0450    9.5390    0.4794 H   0  0  0  0  0  0  0  0  0  0  0  0
   -0.8690   10.5502    1.6831 H   0  0  0  0  0  0  0  0  0  0  0  0
    1.2491    7.8367    2.2575 C   0  0  2  0  0  0  0  0  0  0  0  0
    1.1546    7.4762    1.2266 H   0  0  0  0  0  0  0  0  0  0  0  0
    1.1121    6.6142    3.1792 C   0  0  0  0  0  0  0  0  0  0  0  0
    1.1644    6.9067    4.2285 H   0  0  0  0  0  0  0  0  0  0  0  0
    0.1335    6.1606    3.0095 H   0  0  0  0  0  0  0  0  0  0  0  0
    2.2186    5.6044    2.8992 C   0  0  0  0  0  0  0  0  0  0  0  0
    2.1236    4.7459    3.5674 H   0  0  0  0  0  0  0  0  0  0  0  0
    2.1363    5.2454    1.8712 H   0  0  0  0  0  0  0  0  0  0  0  0
    3.5640    6.2931    3.0883 C   0  0  0  0  0  0  0  0  0  0  0  0
    4.3807    5.6137    2.8416 H   0  0  0  0  0  0  0  0  0  0  0  0
    3.6878    6.5908    4.1314 H   0  0  0  0  0  0  0  0  0  0  0  0
    3.6424    7.4997    2.1572 C   0  0  0  0  0  0  0  0  0  0  0  0
    4.5938    8.0195    2.2794 H   0  0  0  0  0  0  0  0  0  0  0  0
    3.5832    7.1401    1.1280 H   0  0  0  0  0  0  0  0  0  0  0  0
    2.5648    8.4869    2.3359 N   0  0  1  0  0  4  0  0  0  0  0  0
    2.7530    9.2524    3.5701 C   0  0  0  0  0  0  0  0  0  0  0  0
    3.7053    9.7791    3.4828 H   0  0  0  0  0  0  0  0  0  0  0  0
    2.8168    8.5855    4.4398 H   0  0  0  0  0  0  0  0  0  0  0  0
    1.9399    8.4311   -2.9965 C   0  0  0  0  0  0  0  0  0  0  0  0
    1.9673    7.0643   -3.2521 C   0  0  0  0  0  0  0  0  0  0  0  0
    2.1837    6.3871   -2.4398 H   0  0  0  0  0  0  0  0  0  0  0  0
    1.7248    6.5977   -4.5303 C   0  0  0  0  0  0  0  0  0  0  0  0
    1.7476    5.5365   -4.7313 H   0  0  0  0  0  0  0  0  0  0  0  0
    1.4545    7.4913   -5.5547 C   0  0  0  0  0  0  0  0  0  0  0  0
    1.2659    7.1244   -6.5534 H   0  0  0  0  0  0  0  0  0  0  0  0
    1.4285    8.8540   -5.3026 C   0  0  0  0  0  0  0  0  0  0  0  0
    1.2212    9.5473   -6.1046 H   0  0  0  0  0  0  0  0  0  0  0  0
    1.6713    9.3264   -4.0265 C   0  0  0  0  0  0  0  0  0  0  0  0
    1.6628   10.3832   -3.8072 H   0  0  0  0  0  0  0  0  0  0  0  0
    2.2030    8.9365   -1.6242 C   0  0  1  0  0  3  0  0  0  0  0  0
  1  2  1  0  0  0  0
  1  5  1  0  0  0  0
  1 44  1  0  0  0  0
  3  1  1  0  0  0  0
  4  1  1  0  0  0  0
  5  6  1  6  0  0  0
  5 27  1  0  0  0  0
  5 18  1  0  0  0  0
  6  7  1  0  0  0  0
  8  6  1  0  0  0  0
  9  6  1  0  0  0  0
  9 12  1  0  0  0  0
 10  9  1  0  0  0  0
 11  9  1  0  0  0  0
 12 14  1  0  0  0  0
 12 15  1  0  0  0  0
 13 12  1  0  0  0  0
 15 18  1  0  0  0  0
 15 17  1  0  0  0  0
 16 15  1  0  0  0  0
 18 19  1  1  0  0  0
 18 20  1  0  0  0  0
 20 22  1  0  0  0  0
 20 21  1  1  0  0  0
 22 24  1  0  0  0  0
 22 23  1  0  0  0  0
 25 26  1  6  0  0  0
 25 22  1  0  0  0  0
 27 29  1  0  0  0  0
 27 25  1  0  0  0  0
 28 27  1  0  0  0  0
 30 31  1  6  0  0  0
 30 44  1  0  0  0  0
 30 25  1  0  0  0  0
 30 32  1  0  0  0  0
 32 33  1  0  0  0  0
 34 32  1  0  0  0  0
 35 38  1  0  0  0  0
 35 32  1  0  0  0  0
 35 36  1  0  0  0  0
 37 35  1  0  0  0  0
 38 40  1  0  0  0  0
 39 38  1  0  0  0  0
 41 42  1  0  0  0  0
 41 38  1  0  0  0  0
 43 41  1  0  0  0  0
 44 41  1  6  0  0  0
 44 45  1  0  0  0  0
 45 20  1  0  0  0  0
 45 47  1  0  0  0  0
 46 45  1  0  0  0  0
 49 48  1  0  0  0  0
 49 50  1  0  0  0  0
 51 49  2  0  0  0  0
 52 51  1  0  0  0  0
 53 55  2  0  0  0  0
 53 51  1  0  0  0  0
 54 53  1  0  0  0  0
 55 57  1  0  0  0  0
 56 55  1  0  0  0  0
 57 58  1  0  0  0  0
 57 48  2  0  0  0  0
 59 48  1  1  0  0  0
 59  3  1  0  0  0  0
 59  4  1  0  0  0  0
M  END
$$$$
