CSD_code = DUGBUE | q = 1 | S = 0 | Stoichiometry = C17H32AuClN2P(1+) | MND = 2
 OpenBabel04212202033D

 54 56  0  0  0  0  0  0  0  0999 V2000
    6.5114    6.0259    2.7004 Au  0  0  0  0  0  0  0  0  0  0  0  0
    4.4734    5.9997    1.7472 Cl  0  0  0  0  0  0  0  0  0  0  0  0
    8.5897    6.1077    3.6041 P   0  0  0  0  0  4  0  0  0  0  0  0
    7.8440    6.7026    6.2507 N   0  0  0  0  0  0  0  0  0  0  0  0
   10.0125    6.5667    6.0409 N   0  0  0  0  0  0  0  0  0  0  0  0
    8.8444    6.4605    5.4226 C   0  0  0  0  0  3  0  0  0  0  0  0
    8.3241    7.0103    7.5947 C   0  0  0  0  0  0  0  0  0  0  0  0
    7.9105    6.2924    8.3080 H   0  0  0  0  0  0  0  0  0  0  0  0
    7.9907    8.0100    7.8857 H   0  0  0  0  0  0  0  0  0  0  0  0
    9.8426    6.9052    7.4505 C   0  0  0  0  0  0  0  0  0  0  0  0
   10.3597    7.8430    7.6707 H   0  0  0  0  0  0  0  0  0  0  0  0
   10.2772    6.1201    8.0758 H   0  0  0  0  0  0  0  0  0  0  0  0
    6.4253    6.7222    6.0406 C   0  0  0  0  0  0  0  0  0  0  0  0
    6.0342    7.7204    6.2476 H   0  0  0  0  0  0  0  0  0  0  0  0
    5.9452    6.0172    6.7220 H   0  0  0  0  0  0  0  0  0  0  0  0
    6.1716    6.4520    5.0138 H   0  0  0  0  0  0  0  0  0  0  0  0
   11.3485    6.3360    5.5727 C   0  0  0  0  0  0  0  0  0  0  0  0
   11.7975    5.5081    6.1277 H   0  0  0  0  0  0  0  0  0  0  0  0
   11.9554    7.2278    5.7447 H   0  0  0  0  0  0  0  0  0  0  0  0
   11.3568    6.0955    4.5156 H   0  0  0  0  0  0  0  0  0  0  0  0
    9.5004    7.5640    2.9086 C   0  0  0  0  0  0  0  0  0  0  0  0
   10.5159    7.6433    3.3112 H   0  0  0  0  0  0  0  0  0  0  0  0
    8.6930    8.8081    3.2971 C   0  0  0  0  0  0  0  0  0  0  0  0
    7.6585    8.6811    2.9610 H   0  0  0  0  0  0  0  0  0  0  0  0
    8.6820    8.9290    4.3859 H   0  0  0  0  0  0  0  0  0  0  0  0
    9.2789   10.0566    2.6427 C   0  0  0  0  0  0  0  0  0  0  0  0
    8.6769   10.9233    2.9169 H   0  0  0  0  0  0  0  0  0  0  0  0
   10.2943   10.2228    3.0107 H   0  0  0  0  0  0  0  0  0  0  0  0
    9.3049    9.8943    1.1270 C   0  0  0  0  0  0  0  0  0  0  0  0
    9.7277   10.7869    0.6667 H   0  0  0  0  0  0  0  0  0  0  0  0
    8.2859    9.7754    0.7549 H   0  0  0  0  0  0  0  0  0  0  0  0
   10.1345    8.6740    0.7447 C   0  0  0  0  0  0  0  0  0  0  0  0
   11.1674    8.8173    1.0711 H   0  0  0  0  0  0  0  0  0  0  0  0
   10.1411    8.5502   -0.3382 H   0  0  0  0  0  0  0  0  0  0  0  0
    9.5675    7.4099    1.3887 C   0  0  0  0  0  0  0  0  0  0  0  0
    8.5595    7.2251    1.0013 H   0  0  0  0  0  0  0  0  0  0  0  0
   10.1986    6.5574    1.1249 H   0  0  0  0  0  0  0  0  0  0  0  0
    9.5247    4.5254    3.3395 C   0  0  0  0  0  0  0  0  0  0  0  0
   10.6031    4.7007    3.2480 H   0  0  0  0  0  0  0  0  0  0  0  0
    9.0213    3.9127    2.0271 C   0  0  0  0  0  0  0  0  0  0  0  0
    7.9383    3.7661    2.0892 H   0  0  0  0  0  0  0  0  0  0  0  0
    9.2162    4.5820    1.1870 H   0  0  0  0  0  0  0  0  0  0  0  0
    9.6946    2.5643    1.7816 C   0  0  0  0  0  0  0  0  0  0  0  0
    9.3228    2.1445    0.8472 H   0  0  0  0  0  0  0  0  0  0  0  0
   10.7733    2.7037    1.6796 H   0  0  0  0  0  0  0  0  0  0  0  0
    9.4050    1.6103    2.9349 C   0  0  0  0  0  0  0  0  0  0  0  0
    8.3317    1.4201    2.9890 H   0  0  0  0  0  0  0  0  0  0  0  0
    9.9049    0.6574    2.7630 H   0  0  0  0  0  0  0  0  0  0  0  0
    9.8845    2.2129    4.2509 C   0  0  0  0  0  0  0  0  0  0  0  0
   10.9694    2.3391    4.2196 H   0  0  0  0  0  0  0  0  0  0  0  0
    9.6500    1.5409    5.0772 H   0  0  0  0  0  0  0  0  0  0  0  0
    9.2257    3.5688    4.4988 C   0  0  0  0  0  0  0  0  0  0  0  0
    9.5855    3.9768    5.4477 H   0  0  0  0  0  0  0  0  0  0  0  0
    8.1414    3.4384    4.5763 H   0  0  0  0  0  0  0  0  0  0  0  0
  1  3  1  0  0  0  0
  2  1  1  0  0  0  0
  3  6  1  0  0  0  0
  4  7  1  0  0  0  0
  5 10  1  0  0  0  0
  6  5  1  0  0  0  0
  6  4  1  0  0  0  0
  7  9  1  0  0  0  0
  7  8  1  0  0  0  0
 10  7  1  0  0  0  0
 10 11  1  0  0  0  0
 10 12  1  0  0  0  0
 13 14  1  0  0  0  0
 13  4  1  0  0  0  0
 13 15  1  0  0  0  0
 16 13  1  0  0  0  0
 17 19  1  0  0  0  0
 17  5  1  0  0  0  0
 17 18  1  0  0  0  0
 20 17  1  0  0  0  0
 21 23  1  0  0  0  0
 21 22  1  0  0  0  0
 21  3  1  0  0  0  0
 23 25  1  0  0  0  0
 24 23  1  0  0  0  0
 26 27  1  0  0  0  0
 26 28  1  0  0  0  0
 26 23  1  0  0  0  0
 29 26  1  0  0  0  0
 30 29  1  0  0  0  0
 31 29  1  0  0  0  0
 32 33  1  0  0  0  0
 32 29  1  0  0  0  0
 32 35  1  0  0  0  0
 34 32  1  0  0  0  0
 35 21  1  0  0  0  0
 36 35  1  0  0  0  0
 37 35  1  0  0  0  0
 38  3  1  0  0  0  0
 38 52  1  0  0  0  0
 39 38  1  0  0  0  0
 40 41  1  0  0  0  0
 40 38  1  0  0  0  0
 42 40  1  0  0  0  0
 43 40  1  0  0  0  0
 43 46  1  0  0  0  0
 44 43  1  0  0  0  0
 45 43  1  0  0  0  0
 46 47  1  0  0  0  0
 46 49  1  0  0  0  0
 48 46  1  0  0  0  0
 49 52  1  0  0  0  0
 49 51  1  0  0  0  0
 50 49  1  0  0  0  0
 52 54  1  0  0  0  0
 52 53  1  0  0  0  0
M  END
$$$$
