CSD_code = DUGBIS | q = 0 | S = 0 | Stoichiometry = C17H20Cl3N2PPt | MND = 4
 OpenBabel04212202033D

 44 46  0  0  0  0  0  0  0  0999 V2000
    2.3485    6.2460    9.1857 Pt  0  0  0  0  0  0  0  0  0  0  0  0
    3.0819    8.0565    8.0267 Cl  0  0  0  0  0  0  0  0  0  0  0  0
    3.8547    6.6681   10.8167 Cl  0  0  0  0  0  0  0  0  0  0  0  0
    1.5095    4.2842   10.3020 Cl  0  0  0  0  0  0  0  0  0  0  0  0
    0.7189    5.6092    7.7409 P   0  0  0  0  0  4  0  0  0  0  0  0
    1.7392    3.1045    7.4575 N   0  0  0  0  0  0  0  0  0  0  0  0
   -0.3010    2.9249    8.2513 N   0  0  0  0  0  0  0  0  0  0  0  0
    0.6899    3.7688    7.9325 C   0  0  0  0  0  3  0  0  0  0  0  0
    1.6014    1.6743    7.6704 C   0  0  0  0  0  0  0  0  0  0  0  0
    2.4132    1.3036    8.3008 H   0  0  0  0  0  0  0  0  0  0  0  0
    1.6307    1.1520    6.7085 H   0  0  0  0  0  0  0  0  0  0  0  0
    0.2372    1.5704    8.3584 C   0  0  0  0  0  0  0  0  0  0  0  0
   -0.4377    0.8653    7.8686 H   0  0  0  0  0  0  0  0  0  0  0  0
    0.3375    1.3016    9.4145 H   0  0  0  0  0  0  0  0  0  0  0  0
    2.9851    3.6829    7.0370 C   0  0  0  0  0  0  0  0  0  0  0  0
    3.7368    2.8994    6.9774 H   0  0  0  0  0  0  0  0  0  0  0  0
    3.3227    4.4415    7.7661 H   0  0  0  0  0  0  0  0  0  0  0  0
    2.8874    4.1626    6.0603 H   0  0  0  0  0  0  0  0  0  0  0  0
   -1.4282    3.2557    9.0852 C   0  0  0  0  0  0  0  0  0  0  0  0
   -2.0370    4.0238    8.6145 H   0  0  0  0  0  0  0  0  0  0  0  0
   -1.0823    3.6141   10.0590 H   0  0  0  0  0  0  0  0  0  0  0  0
   -2.0299    2.3594    9.2189 H   0  0  0  0  0  0  0  0  0  0  0  0
    0.6531    5.7042    5.9206 C   0  0  0  0  0  0  0  0  0  0  0  0
    0.0501    4.7316    5.1265 C   0  0  0  0  0  0  0  0  0  0  0  0
   -0.3858    3.8506    5.5795 H   0  0  0  0  0  0  0  0  0  0  0  0
    0.0105    4.8967    3.7538 C   0  0  0  0  0  0  0  0  0  0  0  0
   -0.4573    4.1437    3.1360 H   0  0  0  0  0  0  0  0  0  0  0  0
    0.5662    6.0253    3.1710 C   0  0  0  0  0  0  0  0  0  0  0  0
    0.5304    6.1473    2.0987 H   0  0  0  0  0  0  0  0  0  0  0  0
    1.1698    6.9907    3.9604 C   0  0  0  0  0  0  0  0  0  0  0  0
    1.6083    7.8659    3.5059 H   0  0  0  0  0  0  0  0  0  0  0  0
    1.2169    6.8331    5.3346 C   0  0  0  0  0  0  0  0  0  0  0  0
    1.7055    7.5633    5.9671 H   0  0  0  0  0  0  0  0  0  0  0  0
   -0.9194    6.2293    8.2232 C   0  0  0  0  0  0  0  0  0  0  0  0
   -1.0007    6.8471    9.4688 C   0  0  0  0  0  0  0  0  0  0  0  0
   -0.1137    6.8950   10.0946 H   0  0  0  0  0  0  0  0  0  0  0  0
   -2.1932    7.4042    9.8924 C   0  0  0  0  0  0  0  0  0  0  0  0
   -2.2525    7.8803   10.8591 H   0  0  0  0  0  0  0  0  0  0  0  0
   -3.3051    7.3633    9.0667 C   0  0  0  0  0  0  0  0  0  0  0  0
   -4.2356    7.8040    9.3914 H   0  0  0  0  0  0  0  0  0  0  0  0
   -3.2214    6.7738    7.8144 C   0  0  0  0  0  0  0  0  0  0  0  0
   -4.0847    6.7597    7.1654 H   0  0  0  0  0  0  0  0  0  0  0  0
   -2.0329    6.2109    7.3858 C   0  0  0  0  0  0  0  0  0  0  0  0
   -1.9680    5.7647    6.4036 H   0  0  0  0  0  0  0  0  0  0  0  0
  1  4  1  0  0  0  0
  1  3  1  0  0  0  0
  2  1  1  0  0  0  0
  5  8  1  0  0  0  0
  5 34  1  0  0  0  0
  5  1  1  0  0  0  0
  6  9  1  0  0  0  0
  6  8  1  0  0  0  0
  7 12  1  0  0  0  0
  7 19  1  0  0  0  0
  8  7  1  0  0  0  0
  9 10  1  0  0  0  0
  9 12  1  0  0  0  0
 11  9  1  0  0  0  0
 12 14  1  0  0  0  0
 13 12  1  0  0  0  0
 15  6  1  0  0  0  0
 15 17  1  0  0  0  0
 16 15  1  0  0  0  0
 18 15  1  0  0  0  0
 19 22  1  0  0  0  0
 19 21  1  0  0  0  0
 20 19  1  0  0  0  0
 23  5  1  0  0  0  0
 24 25  1  0  0  0  0
 24 23  2  0  0  0  0
 26 24  1  0  0  0  0
 27 26  1  0  0  0  0
 28 26  2  0  0  0  0
 28 30  1  0  0  0  0
 29 28  1  0  0  0  0
 30 32  2  0  0  0  0
 31 30  1  0  0  0  0
 32 23  1  0  0  0  0
 32 33  1  0  0  0  0
 34 35  1  0  0  0  0
 35 37  2  0  0  0  0
 35 36  1  0  0  0  0
 37 38  1  0  0  0  0
 39 40  1  0  0  0  0
 39 37  1  0  0  0  0
 41 39  2  0  0  0  0
 42 41  1  0  0  0  0
 43 41  1  0  0  0  0
 43 34  2  0  0  0  0
 44 43  1  0  0  0  0
M  END
$$$$
