CSD_code = DUGRUU | q = 0 | S = 0 | Stoichiometry = C16H21Br3N2Pt | MND = 6
 OpenBabel04212202033D

 43 45  0  0  1  0  0  0  0  0999 V2000
    6.8946   -1.2551    0.1756 Pt  0  0  0  0  0  0  0  0  0  0  0  0
    4.4148   -1.2736    0.8075 Br  0  0  0  0  0  0  0  0  0  0  0  0
    6.5464   -2.5648   -2.0458 Br  0  0  0  0  0  0  0  0  0  0  0  0
    9.4339   -1.1507   -0.1075 Br  0  0  0  0  0  0  0  0  0  0  0  0
    7.0533   -3.0223    1.2209 N   0  0  0  0  0  4  0  0  0  0  0  0
    6.0985   -3.3390    1.4335 H   0  0  0  0  0  0  0  0  0  0  0  0
    7.4853   -3.7347    0.6220 H   0  0  0  0  0  0  0  0  0  0  0  0
    6.8501    0.5089   -0.9492 N   0  0  0  0  0  4  0  0  0  0  0  0
    7.6462    1.0783   -0.6379 H   0  0  0  0  0  0  0  0  0  0  0  0
    7.0862    0.1637   -1.8907 H   0  0  0  0  0  0  0  0  0  0  0  0
    7.8059   -2.8538    2.4853 C   0  0  1  0  0  0  0  0  0  0  0  0
    8.8748   -2.9581    2.2514 H   0  0  0  0  0  0  0  0  0  0  0  0
    7.5798   -1.4374    2.9805 C   0  0  0  0  0  0  0  0  0  0  0  0
    7.2009   -0.4706    2.0558 C   0  0  0  0  0  0  0  0  0  0  0  0
    7.0305    0.8439    2.4294 C   0  0  0  0  0  0  0  0  0  0  0  0
    6.7311    1.5986    1.7157 H   0  0  0  0  0  0  0  0  0  0  0  0
    7.2458    1.2122    3.7503 C   0  0  0  0  0  0  0  0  0  0  0  0
    7.1145    2.2427    4.0435 H   0  0  0  0  0  0  0  0  0  0  0  0
    7.6257    0.2621    4.6791 C   0  0  0  0  0  0  0  0  0  0  0  0
    7.7934    0.5474    5.7064 H   0  0  0  0  0  0  0  0  0  0  0  0
    7.7959   -1.0572    4.2981 C   0  0  0  0  0  0  0  0  0  0  0  0
    8.1025   -1.7897    5.0282 H   0  0  0  0  0  0  0  0  0  0  0  0
    7.3930   -3.9357    3.4788 C   0  0  0  0  0  0  0  0  0  0  0  0
    6.3673   -3.7778    3.8068 H   0  0  0  0  0  0  0  0  0  0  0  0
    8.0406   -3.9240    4.3496 H   0  0  0  0  0  0  0  0  0  0  0  0
    7.4719   -4.9191    3.0186 H   0  0  0  0  0  0  0  0  0  0  0  0
    5.6485    1.3712   -1.0615 C   0  0  1  0  0  0  0  0  0  0  0  0
    5.1069    1.3308   -0.1090 H   0  0  0  0  0  0  0  0  0  0  0  0
    6.0506    2.8046   -1.3252 C   0  0  0  0  0  0  0  0  0  0  0  0
    5.4897    3.8318   -0.5781 C   0  0  0  0  0  0  0  0  0  0  0  0
    4.7703    3.5980    0.1935 H   0  0  0  0  0  0  0  0  0  0  0  0
    5.8413    5.1481   -0.8190 C   0  0  0  0  0  0  0  0  0  0  0  0
    5.3975    5.9378   -0.2319 H   0  0  0  0  0  0  0  0  0  0  0  0
    6.7631    5.4505   -1.8065 C   0  0  0  0  0  0  0  0  0  0  0  0
    7.0410    6.4767   -1.9926 H   0  0  0  0  0  0  0  0  0  0  0  0
    7.3268    4.4321   -2.5559 C   0  0  0  0  0  0  0  0  0  0  0  0
    8.0439    4.6614   -3.3295 H   0  0  0  0  0  0  0  0  0  0  0  0
    6.9723    3.1162   -2.3184 C   0  0  0  0  0  0  0  0  0  0  0  0
    7.4159    2.3354   -2.9198 H   0  0  0  0  0  0  0  0  0  0  0  0
    4.7419    0.8425   -2.1695 C   0  0  0  0  0  0  0  0  0  0  0  0
    5.2319    0.9217   -3.1379 H   0  0  0  0  0  0  0  0  0  0  0  0
    3.8209    1.4172   -2.2001 H   0  0  0  0  0  0  0  0  0  0  0  0
    4.4871   -0.1992   -1.9891 H   0  0  0  0  0  0  0  0  0  0  0  0
  1  2  1  0  0  0  0
  1  5  1  0  0  0  0
  1 14  1  0  0  0  0
  3  1  1  0  0  0  0
  4  1  1  0  0  0  0
  5  6  1  0  0  0  0
  5 11  1  0  0  0  0
  7  5  1  0  0  0  0
  8  9  1  0  0  0  0
  8  1  1  0  0  0  0
 10  8  1  0  0  0  0
 11 12  1  6  0  0  0
 11 13  1  0  0  0  0
 11 23  1  0  0  0  0
 13 21  1  0  0  0  0
 14 15  1  0  0  0  0
 14 13  2  0  0  0  0
 15 17  2  0  0  0  0
 16 15  1  0  0  0  0
 17 18  1  0  0  0  0
 17 19  1  0  0  0  0
 19 20  1  0  0  0  0
 21 19  2  0  0  0  0
 21 22  1  0  0  0  0
 23 24  1  0  0  0  0
 23 25  1  0  0  0  0
 26 23  1  0  0  0  0
 27  8  1  0  0  0  0
 27 28  1  1  0  0  0
 29 27  1  0  0  0  0
 29 30  1  0  0  0  0
 30 31  1  0  0  0  0
 32 30  2  0  0  0  0
 32 33  1  0  0  0  0
 34 32  1  0  0  0  0
 35 34  1  0  0  0  0
 36 38  1  0  0  0  0
 36 34  2  0  0  0  0
 37 36  1  0  0  0  0
 38 29  2  0  0  0  0
 39 38  1  0  0  0  0
 40 43  1  0  0  0  0
 40 27  1  0  0  0  0
 41 40  1  0  0  0  0
 42 40  1  0  0  0  0
M  END
$$$$
