CSD_code = DUGRAA | q = 0 | S = 0 | Stoichiometry = C26H24FI3NPPt | MND = 6
 OpenBabel04212202033D

 57 61  0  0  1  0  0  0  0  0999 V2000
    7.4977    7.7052    2.4434 Pt  0  0  0  0  0  0  0  0  0  0  0  0
    8.1524   10.2782    1.6566 I   0  0  0  0  0  0  0  0  0  0  0  0
    9.7403    6.5708    1.5640 I   0  0  0  0  0  0  0  0  0  0  0  0
    6.1730    7.1280    0.1378 I   0  0  0  0  0  0  0  0  0  0  0  0
    8.6764    7.9679    4.4951 P   0  0  0  0  0  4  0  0  0  0  0  0
    6.7256    2.4169    3.3933 F   0  0  0  0  0  0  0  0  0  0  0  0
    5.6387    8.5754    3.1470 N   0  0  0  0  0  4  0  0  0  0  0  0
    5.7458    9.5077    3.5569 H   0  0  0  0  0  0  0  0  0  0  0  0
    5.1153    8.6951    2.2698 H   0  0  0  0  0  0  0  0  0  0  0  0
    5.3681    6.2606    3.8483 C   0  0  0  0  0  0  0  0  0  0  0  0
    6.5626    6.0125    3.1678 C   0  0  0  0  0  0  0  0  0  0  0  0
    7.0048    4.7149    2.9964 C   0  0  0  0  0  0  0  0  0  0  0  0
    7.9031    4.4698    2.4512 H   0  0  0  0  0  0  0  0  0  0  0  0
    6.2720    3.6744    3.5406 C   0  0  0  0  0  0  0  0  0  0  0  0
    5.1052    3.8934    4.2459 C   0  0  0  0  0  0  0  0  0  0  0  0
    4.5585    3.0630    4.6622 H   0  0  0  0  0  0  0  0  0  0  0  0
    4.6611    5.1936    4.3901 C   0  0  0  0  0  0  0  0  0  0  0  0
    3.7516    5.3818    4.9395 H   0  0  0  0  0  0  0  0  0  0  0  0
    4.8774    7.6828    4.0390 C   0  0  2  0  0  0  0  0  0  0  0  0
    5.0845    7.9843    5.0776 H   0  0  0  0  0  0  0  0  0  0  0  0
    3.3825    7.8428    3.7577 C   0  0  0  0  0  0  0  0  0  0  0  0
    3.1428    7.4533    2.7697 H   0  0  0  0  0  0  0  0  0  0  0  0
    3.1038    8.8945    3.8033 H   0  0  0  0  0  0  0  0  0  0  0  0
    2.7875    7.3082    4.4913 H   0  0  0  0  0  0  0  0  0  0  0  0
   10.2144    8.9320    4.6593 C   0  0  0  0  0  0  0  0  0  0  0  0
   11.0135    9.3589    3.6087 C   0  0  0  0  0  0  0  0  0  0  0  0
   10.7547    9.1475    2.5847 H   0  0  0  0  0  0  0  0  0  0  0  0
   12.1707   10.0739    3.8686 C   0  0  0  0  0  0  0  0  0  0  0  0
   12.7799   10.4070    3.0429 H   0  0  0  0  0  0  0  0  0  0  0  0
   12.5394   10.3590    5.1705 C   0  0  0  0  0  0  0  0  0  0  0  0
   13.4400   10.9200    5.3689 H   0  0  0  0  0  0  0  0  0  0  0  0
   11.7513    9.9200    6.2238 C   0  0  0  0  0  0  0  0  0  0  0  0
   12.0373   10.1320    7.2434 H   0  0  0  0  0  0  0  0  0  0  0  0
   10.5941    9.2108    5.9742 C   0  0  0  0  0  0  0  0  0  0  0  0
    9.9837    8.8671    6.7990 H   0  0  0  0  0  0  0  0  0  0  0  0
    9.1377    6.3623    5.2041 C   0  0  0  0  0  0  0  0  0  0  0  0
   10.4683    5.9535    5.1388 C   0  0  0  0  0  0  0  0  0  0  0  0
   11.2169    6.6121    4.7214 H   0  0  0  0  0  0  0  0  0  0  0  0
   10.8315    4.6989    5.5912 C   0  0  0  0  0  0  0  0  0  0  0  0
   11.8634    4.3891    5.5282 H   0  0  0  0  0  0  0  0  0  0  0  0
    9.8761    3.8404    6.1096 C   0  0  0  0  0  0  0  0  0  0  0  0
   10.1602    2.8586    6.4560 H   0  0  0  0  0  0  0  0  0  0  0  0
    8.5510    4.2381    6.1693 C   0  0  0  0  0  0  0  0  0  0  0  0
    7.7991    3.5691    6.5608 H   0  0  0  0  0  0  0  0  0  0  0  0
    8.1773    5.4873    5.7095 C   0  0  0  0  0  0  0  0  0  0  0  0
    7.1345    5.7702    5.7351 H   0  0  0  0  0  0  0  0  0  0  0  0
    7.6401    8.8258    5.7312 C   0  0  0  0  0  0  0  0  0  0  0  0
    7.2486    8.2783    6.9489 C   0  0  0  0  0  0  0  0  0  0  0  0
    7.5748    7.2902    7.2365 H   0  0  0  0  0  0  0  0  0  0  0  0
    6.4575    9.0133    7.8154 C   0  0  0  0  0  0  0  0  0  0  0  0
    6.1599    8.5790    8.7583 H   0  0  0  0  0  0  0  0  0  0  0  0
    6.0559   10.2969    7.4847 C   0  0  0  0  0  0  0  0  0  0  0  0
    5.4337   10.8607    8.1629 H   0  0  0  0  0  0  0  0  0  0  0  0
    6.4755   10.8629    6.2915 C   0  0  0  0  0  0  0  0  0  0  0  0
    6.1940   11.8741    6.0385 H   0  0  0  0  0  0  0  0  0  0  0  0
    7.2666   10.1349    5.4225 C   0  0  0  0  0  0  0  0  0  0  0  0
    7.6234   10.5957    4.5104 H   0  0  0  0  0  0  0  0  0  0  0  0
  1  7  1  0  0  0  0
  1 11  1  0  0  0  0
  1  5  1  0  0  0  0
  2  1  1  0  0  0  0
  3  1  1  0  0  0  0
  4  1  1  0  0  0  0
  5 25  1  0  0  0  0
  5 36  1  0  0  0  0
  5 47  1  0  0  0  0
  6 14  1  0  0  0  0
  7  8  1  0  0  0  0
  7 19  1  0  0  0  0
  9  7  1  0  0  0  0
 10 19  1  0  0  0  0
 10 17  1  0  0  0  0
 11 10  2  0  0  0  0
 12 11  1  0  0  0  0
 12 14  2  0  0  0  0
 13 12  1  0  0  0  0
 14 15  1  0  0  0  0
 15 17  2  0  0  0  0
 15 16  1  0  0  0  0
 17 18  1  0  0  0  0
 19 20  1  1  0  0  0
 21 23  1  0  0  0  0
 21 19  1  0  0  0  0
 21 24  1  0  0  0  0
 22 21  1  0  0  0  0
 25 34  1  0  0  0  0
 26 28  1  0  0  0  0
 26 25  2  0  0  0  0
 27 26  1  0  0  0  0
 28 30  2  0  0  0  0
 29 28  1  0  0  0  0
 30 31  1  0  0  0  0
 30 32  1  0  0  0  0
 32 33  1  0  0  0  0
 34 32  2  0  0  0  0
 34 35  1  0  0  0  0
 36 45  1  0  0  0  0
 37 36  2  0  0  0  0
 37 39  1  0  0  0  0
 38 37  1  0  0  0  0
 39 41  2  0  0  0  0
 40 39  1  0  0  0  0
 41 43  1  0  0  0  0
 41 42  1  0  0  0  0
 43 44  1  0  0  0  0
 45 46  1  0  0  0  0
 45 43  2  0  0  0  0
 47 48  1  0  0  0  0
 48 49  1  0  0  0  0
 48 50  2  0  0  0  0
 50 51  1  0  0  0  0
 52 50  1  0  0  0  0
 52 53  1  0  0  0  0
 54 52  2  0  0  0  0
 55 54  1  0  0  0  0
 56 47  2  0  0  0  0
 56 54  1  0  0  0  0
 57 56  1  0  0  0  0
M  END
$$$$
