CSD_code = DUGSEF | q = 0 | S = 0 | Stoichiometry = C26H19AuClPS | MND = 2
 OpenBabel04212202033D

 49 53  0  0  0  0  0  0  0  0999 V2000
    9.2823   15.2000   14.1080 Au  0  0  0  0  0  0  0  0  0  0  0  0
    7.0450   14.9460   14.3341 Cl  0  0  0  0  0  0  0  0  0  0  0  0
   10.7526   14.2200   11.9603 P   0  0  0  0  0  4  0  0  0  0  0  0
   11.5283   15.2190   13.5052 S   0  0  0  0  0  0  0  0  0  0  0  0
   12.1274   13.6091   10.9325 C   0  0  0  0  0  0  0  0  0  0  0  0
    9.8448   12.7360   12.4903 C   0  0  0  0  0  0  0  0  0  0  0  0
    9.6912   15.1177   10.7877 C   0  0  0  0  0  0  0  0  0  0  0  0
   13.4175   11.7535   10.0495 C   0  0  0  0  0  0  0  0  0  0  0  0
   12.7803   15.9220   10.3784 C   0  0  0  0  0  0  0  0  0  0  0  0
   11.9584   16.2791   10.9834 H   0  0  0  0  0  0  0  0  0  0  0  0
   12.9967   14.5416   10.2758 C   0  0  0  0  0  0  0  0  0  0  0  0
   14.3068   12.6386    9.3961 C   0  0  0  0  0  0  0  0  0  0  0  0
    9.4027   14.4839    9.5827 C   0  0  0  0  0  0  0  0  0  0  0  0
    9.8110   13.5007    9.3846 H   0  0  0  0  0  0  0  0  0  0  0  0
    8.5569   12.4506   12.0556 C   0  0  0  0  0  0  0  0  0  0  0  0
    8.0672   13.0904   11.3361 H   0  0  0  0  0  0  0  0  0  0  0  0
   14.0800   14.0601    9.5006 C   0  0  0  0  0  0  0  0  0  0  0  0
   14.8950   15.0048    8.8564 C   0  0  0  0  0  0  0  0  0  0  0  0
   15.7258   14.6744    8.2539 H   0  0  0  0  0  0  0  0  0  0  0  0
   10.4616   11.9326   13.4479 C   0  0  0  0  0  0  0  0  0  0  0  0
   11.4557   12.1882   13.7951 H   0  0  0  0  0  0  0  0  0  0  0  0
   15.3733   12.0781    8.6753 C   0  0  0  0  0  0  0  0  0  0  0  0
   16.0785   12.7167    8.1682 H   0  0  0  0  0  0  0  0  0  0  0  0
   12.3315   12.2704   10.8048 C   0  0  0  0  0  0  0  0  0  0  0  0
   11.6685   11.5596   11.2793 H   0  0  0  0  0  0  0  0  0  0  0  0
   14.6611   16.3529    8.9702 C   0  0  0  0  0  0  0  0  0  0  0  0
   15.3052   17.0560    8.4634 H   0  0  0  0  0  0  0  0  0  0  0  0
   13.6126   10.3650    9.9585 C   0  0  0  0  0  0  0  0  0  0  0  0
   12.9191    9.7101   10.4665 H   0  0  0  0  0  0  0  0  0  0  0  0
   13.5962   16.8193    9.7394 C   0  0  0  0  0  0  0  0  0  0  0  0
   13.4165   17.8796    9.8310 H   0  0  0  0  0  0  0  0  0  0  0  0
   15.5486   10.7177    8.6022 C   0  0  0  0  0  0  0  0  0  0  0  0
   16.3794   10.3134    8.0431 H   0  0  0  0  0  0  0  0  0  0  0  0
    8.5940   15.1150    8.6567 C   0  0  0  0  0  0  0  0  0  0  0  0
    8.3594   14.6225    7.7248 H   0  0  0  0  0  0  0  0  0  0  0  0
    8.3911   17.0136   10.1176 C   0  0  0  0  0  0  0  0  0  0  0  0
    7.9992   17.9976   10.3243 H   0  0  0  0  0  0  0  0  0  0  0  0
   14.6638    9.8508    9.2453 C   0  0  0  0  0  0  0  0  0  0  0  0
   14.8123    8.7834    9.1805 H   0  0  0  0  0  0  0  0  0  0  0  0
    8.5078   10.5490   13.5220 C   0  0  0  0  0  0  0  0  0  0  0  0
    7.9795    9.7015   13.9317 H   0  0  0  0  0  0  0  0  0  0  0  0
    9.1984   16.3879   11.0503 C   0  0  0  0  0  0  0  0  0  0  0  0
    9.4446   16.8819   11.9823 H   0  0  0  0  0  0  0  0  0  0  0  0
    7.8937   11.3542   12.5774 C   0  0  0  0  0  0  0  0  0  0  0  0
    6.8868   11.1399   12.2539 H   0  0  0  0  0  0  0  0  0  0  0  0
    9.7929   10.8367   13.9567 C   0  0  0  0  0  0  0  0  0  0  0  0
   10.2681   10.2150   14.7008 H   0  0  0  0  0  0  0  0  0  0  0  0
    8.0845   16.3759    8.9267 C   0  0  0  0  0  0  0  0  0  0  0  0
    7.4488   16.8640    8.2035 H   0  0  0  0  0  0  0  0  0  0  0  0
  1  2  1  0  0  0  0
  3  6  1  0  0  0  0
  3  4  1  0  0  0  0
  4  1  1  0  0  0  0
  5  3  1  0  0  0  0
  6 20  1  0  0  0  0
  7 42  1  0  0  0  0
  7  3  1  0  0  0  0
  8 24  2  0  0  0  0
  9 10  1  0  0  0  0
 11  9  1  0  0  0  0
 11  5  2  0  0  0  0
 12 17  2  0  0  0  0
 12  8  1  0  0  0  0
 13  7  2  0  0  0  0
 14 13  1  0  0  0  0
 15  6  2  0  0  0  0
 15 44  1  0  0  0  0
 16 15  1  0  0  0  0
 17 11  1  0  0  0  0
 18 26  2  0  0  0  0
 18 17  1  0  0  0  0
 19 18  1  0  0  0  0
 20 21  1  0  0  0  0
 20 46  2  0  0  0  0
 22 12  1  0  0  0  0
 23 22  1  0  0  0  0
 24  5  1  0  0  0  0
 24 25  1  0  0  0  0
 26 30  1  0  0  0  0
 27 26  1  0  0  0  0
 28  8  1  0  0  0  0
 28 29  1  0  0  0  0
 30 31  1  0  0  0  0
 30  9  2  0  0  0  0
 32 22  2  0  0  0  0
 32 38  1  0  0  0  0
 33 32  1  0  0  0  0
 34 48  2  0  0  0  0
 34 13  1  0  0  0  0
 35 34  1  0  0  0  0
 36 37  1  0  0  0  0
 36 42  2  0  0  0  0
 38 28  2  0  0  0  0
 39 38  1  0  0  0  0
 40 41  1  0  0  0  0
 40 46  1  0  0  0  0
 42 43  1  0  0  0  0
 44 40  2  0  0  0  0
 45 44  1  0  0  0  0
 46 47  1  0  0  0  0
 48 36  1  0  0  0  0
 49 48  1  0  0  0  0
M  END
$$$$
