CSD_code = DUHCOZ | q = 0 | S = 0 | Stoichiometry = C8H9CdCl2N3S2 | MND = 5
 OpenBabel04212202033D

 25 27  0  0  1  0  0  0  0  0999 V2000
   -0.3361    5.8052    1.4864 Cd  0  0  0  0  0  0  0  0  0  0  0  0
    2.0231    5.7590    1.3161 Cl  0  0  0  0  0  0  0  0  0  0  0  0
   -1.1981    6.7388    3.4440 Cl  0  0  0  0  0  0  0  0  0  0  0  0
   -0.6979    6.7882   -1.2396 S   0  0  0  0  0  0  0  0  0  0  0  0
    1.3857    6.1650   -3.2905 S   0  0  0  0  0  0  0  0  0  0  0  0
   -0.8064    3.4803    2.1348 N   0  0  0  0  0  0  0  0  0  0  0  0
    0.1061    4.0594   -0.3247 N   0  0  1  0  0  0  0  0  0  0  0  0
    0.6734    4.5173   -1.4284 N   0  0  0  0  0  0  0  0  0  0  0  0
    1.4532    4.0055   -1.8530 H   0  0  0  0  0  0  0  0  0  0  0  0
   -1.2920    3.1877    3.3286 C   0  0  0  0  0  3  0  0  0  0  0  0
   -1.8233    3.9887    3.8288 H   0  0  0  0  0  0  0  0  0  0  0  0
   -1.1285    1.9418    3.9226 C   0  0  0  0  0  0  0  0  0  0  0  0
   -1.5400    1.7472    4.8999 H   0  0  0  0  0  0  0  0  0  0  0  0
   -0.4182    0.9682    3.2375 C   0  0  0  0  0  0  0  0  0  0  0  0
   -0.2635   -0.0092    3.6697 H   0  0  0  0  0  0  0  0  0  0  0  0
    0.0976    1.2717    1.9896 C   0  0  0  0  0  0  0  0  0  0  0  0
    0.6606    0.5421    1.4279 H   0  0  0  0  0  0  0  0  0  0  0  0
   -0.1198    2.5462    1.4618 C   0  0  0  0  0  0  0  0  0  0  0  0
    0.4354    2.9352    0.1799 C   0  0  0  0  0  3  0  0  0  0  0  0
    1.1725    2.2764   -0.2855 H   0  0  0  0  0  0  0  0  0  0  0  0
    0.4236    5.7698   -1.8890 C   0  0  2  0  0  3  0  0  0  0  0  0
    0.8963    7.8792   -3.5752 C   0  0  0  0  0  0  0  0  0  0  0  0
   -0.1654    7.9144   -3.7997 H   0  0  0  0  0  0  0  0  0  0  0  0
    1.4833    8.2338   -4.4163 H   0  0  0  0  0  0  0  0  0  0  0  0
    1.1143    8.4561   -2.6811 H   0  0  0  0  0  0  0  0  0  0  0  0
  1  6  1  0  0  0  0
  1  3  1  0  0  0  0
  2  1  1  0  0  0  0
  4  1  1  0  0  0  0
  6 10  1  0  0  0  0
  7 19  1  1  0  0  0
  7  1  1  0  0  0  0
  8  7  1  0  0  0  0
  9  8  1  0  0  0  0
 10 11  1  0  0  0  0
 10 12  1  0  0  0  0
 12 13  1  0  0  0  0
 14 15  1  0  0  0  0
 14 12  2  0  0  0  0
 16 14  1  0  0  0  0
 17 16  1  0  0  0  0
 18 16  2  0  0  0  0
 18  6  1  0  0  0  0
 19 18  1  0  0  0  0
 20 19  1  0  0  0  0
 21  5  1  6  0  0  0
 21  8  1  0  0  0  0
 21  4  1  0  0  0  0
 22  5  1  0  0  0  0
 22 25  1  0  0  0  0
 23 22  1  0  0  0  0
 24 22  1  0  0  0  0
M  END
$$$$
