CSD_code = DUHJIZ | q = 0 | S = 0 | Stoichiometry = C16H16Cl2N4NiO3S | MND = 6
 OpenBabel04212202033D

 43 47  0  0  0  0  0  0  0  0999 V2000
   11.8792    8.0121   10.5921 Ni  0  0  0  0  0  0  0  0  0  0  0  0
   12.4794    9.4720    9.2000 Cl  0  0  0  0  0  0  0  0  0  0  0  0
   11.9884    9.3169   12.2299 Cl  0  0  0  0  0  0  0  0  0  0  0  0
   12.1322    7.1875    7.7286 S   0  0  0  0  0  3  0  0  0  0  0  0
   11.6186    6.7396    9.0593 O   0  0  0  0  0  0  0  0  0  0  0  0
   10.7125    7.9949    6.8985 C   0  0  0  0  0  0  0  0  0  0  0  0
   10.7040    9.0374    7.1960 H   0  0  0  0  0  0  0  0  0  0  0  0
    9.8006    7.5028    7.2196 H   0  0  0  0  0  0  0  0  0  0  0  0
   10.8431    7.9184    5.8256 H   0  0  0  0  0  0  0  0  0  0  0  0
   11.9686    5.6062    6.7843 C   0  0  0  0  0  0  0  0  0  0  0  0
   12.6640    4.8972    7.2200 H   0  0  0  0  0  0  0  0  0  0  0  0
   12.2293    5.7874    5.7483 H   0  0  0  0  0  0  0  0  0  0  0  0
   10.9579    5.2259    6.8702 H   0  0  0  0  0  0  0  0  0  0  0  0
   15.2979    7.7691   10.4795 O   0  0  0  0  0  0  0  0  0  0  0  0
    8.1687   11.0991    8.0480 O   0  0  0  0  0  0  0  0  0  0  0  0
    7.3363   11.4355    7.6856 H   0  0  0  0  0  0  0  0  0  0  0  0
   11.7238    6.5268   11.8694 N   0  0  0  0  0  0  0  0  0  0  0  0
    9.5289    7.8124   10.9473 N   0  0  0  0  0  0  0  0  0  0  0  0
   14.0985    7.2790   10.9058 N   0  0  0  0  0  0  0  0  0  0  0  0
    7.8003   10.1050    8.9328 N   0  0  0  0  0  0  0  0  0  0  0  0
   12.8215    5.9083   12.2968 C   0  0  0  0  0  0  0  0  0  0  0  0
   12.7534    4.8403   13.2109 C   0  0  0  0  0  0  0  0  0  0  0  0
   13.6666    4.3639   13.5328 H   0  0  0  0  0  0  0  0  0  0  0  0
   11.5349    4.4295   13.6828 C   0  0  0  0  0  0  0  0  0  0  0  0
   11.4560    3.6197   14.3935 H   0  0  0  0  0  0  0  0  0  0  0  0
   10.3694    5.0804   13.2402 C   0  0  0  0  0  0  0  0  0  0  0  0
   10.5244    6.1344   12.3103 C   0  0  0  0  0  0  0  0  0  0  0  0
    9.0688    4.7279   13.6934 C   0  0  0  0  0  0  0  0  0  0  0  0
    8.9802    3.9188   14.4037 H   0  0  0  0  0  0  0  0  0  0  0  0
   14.1038    6.3893   11.8165 C   0  0  0  0  0  3  0  0  0  0  0  0
   15.0187    5.9967   12.2557 H   0  0  0  0  0  0  0  0  0  0  0  0
    8.4787    8.4797   10.5046 C   0  0  0  0  0  0  0  0  0  0  0  0
    7.1656    8.1740   10.9217 C   0  0  0  0  0  0  0  0  0  0  0  0
    6.3494    8.7512   10.5190 H   0  0  0  0  0  0  0  0  0  0  0  0
    6.9707    7.1635   11.8238 C   0  0  0  0  0  0  0  0  0  0  0  0
    5.9794    6.9041   12.1681 H   0  0  0  0  0  0  0  0  0  0  0  0
    8.0811    6.4518   12.3163 C   0  0  0  0  0  0  0  0  0  0  0  0
    9.3559    6.8267   11.8338 C   0  0  0  0  0  0  0  0  0  0  0  0
    7.9692    5.3892   13.2533 C   0  0  0  0  0  0  0  0  0  0  0  0
    6.9839    5.1192   13.6049 H   0  0  0  0  0  0  0  0  0  0  0  0
    8.7533    9.5512    9.5642 C   0  0  0  0  0  0  0  0  0  0  0  0
    9.8000    9.8304    9.4409 H   0  0  0  0  0  0  0  0  0  0  0  0
   15.0601    8.5002    9.8791 H   0  0  0  0  0  0  0  0  0  0  0  0
  1 19  1  0  0  0  0
  1 18  1  0  0  0  0
  1 17  1  0  0  0  0
  1  3  1  0  0  0  0
  2  1  1  0  0  0  0
  4  5  1  0  0  0  0
  5  1  1  0  0  0  0
  6  7  1  0  0  0  0
  6  8  1  0  0  0  0
  6  4  1  0  0  0  0
  9  6  1  0  0  0  0
 10 13  1  0  0  0  0
 10 11  1  0  0  0  0
 10  4  1  0  0  0  0
 12 10  1  0  0  0  0
 14 19  1  0  0  0  0
 15 20  1  0  0  0  0
 16 15  1  0  0  0  0
 17 21  1  0  0  0  0
 17 27  1  0  0  0  0
 18 38  1  0  0  0  0
 19 30  1  0  0  0  0
 20 41  2  0  0  0  0
 21 22  2  0  0  0  0
 22 23  1  0  0  0  0
 22 24  1  0  0  0  0
 24 25  1  0  0  0  0
 26 24  2  0  0  0  0
 26 28  1  0  0  0  0
 27 26  1  0  0  0  0
 28 29  1  0  0  0  0
 30 31  1  0  0  0  0
 30 21  1  0  0  0  0
 32 33  2  0  0  0  0
 32 18  1  0  0  0  0
 33 35  1  0  0  0  0
 34 33  1  0  0  0  0
 35 36  1  0  0  0  0
 35 37  2  0  0  0  0
 37 39  1  0  0  0  0
 38 27  2  0  0  0  0
 38 37  1  0  0  0  0
 39 40  1  0  0  0  0
 39 28  2  0  0  0  0
 41 32  1  0  0  0  0
 42 41  1  0  0  0  0
 43 14  1  0  0  0  0
M  END
$$$$
