CSD_code = DUHJUN | q = 0 | S = 0 | Stoichiometry = C19H17Cl2PPdS | MND = 4
 OpenBabel04212202033D

 41 44  0  0  0  0  0  0  0  0999 V2000
    7.6602   13.1963    0.6112 Pd  0  0  0  0  0  0  0  0  0  0  0  0
    9.0967   13.2885    2.3300 Cl  0  0  0  0  0  0  0  0  0  0  0  0
    9.2777   12.6689   -0.8785 Cl  0  0  0  0  0  0  0  0  0  0  0  0
    6.0556   12.9522   -1.0759 S   0  0  2  0  0  3  0  0  0  0  0  0
    6.0287   13.8828    1.9676 P   0  0  0  0  0  4  0  0  0  0  0  0
    4.4403   13.5114    1.1394 C   0  0  0  0  0  0  0  0  0  0  0  0
    4.4893   13.1108   -0.1956 C   0  0  0  0  0  0  0  0  0  0  0  0
    3.3246   12.8402   -0.8960 C   0  0  0  0  0  0  0  0  0  0  0  0
    3.3828   12.5481   -1.9336 H   0  0  0  0  0  0  0  0  0  0  0  0
    2.0996   12.9470   -0.2606 C   0  0  0  0  0  0  0  0  0  0  0  0
    1.1927   12.7292   -0.8034 H   0  0  0  0  0  0  0  0  0  0  0  0
    2.0401   13.3362    1.0687 C   0  0  0  0  0  0  0  0  0  0  0  0
    1.0845   13.4208    1.5637 H   0  0  0  0  0  0  0  0  0  0  0  0
    3.2013   13.6197    1.7641 C   0  0  0  0  0  0  0  0  0  0  0  0
    3.1543   13.9157    2.8019 H   0  0  0  0  0  0  0  0  0  0  0  0
    6.0694   15.7035    1.9053 C   0  0  0  0  0  0  0  0  0  0  0  0
    5.1336   16.4934    2.5666 C   0  0  0  0  0  0  0  0  0  0  0  0
    4.3618   16.0295    3.1645 H   0  0  0  0  0  0  0  0  0  0  0  0
    5.2041   17.8704    2.4666 C   0  0  0  0  0  0  0  0  0  0  0  0
    4.4798   18.4842    2.9816 H   0  0  0  0  0  0  0  0  0  0  0  0
    6.2034   18.4634    1.7104 C   0  0  0  0  0  0  0  0  0  0  0  0
    6.2554   19.5394    1.6383 H   0  0  0  0  0  0  0  0  0  0  0  0
    7.1382   17.6803    1.0524 C   0  0  0  0  0  0  0  0  0  0  0  0
    7.9196   18.1447    0.4702 H   0  0  0  0  0  0  0  0  0  0  0  0
    7.0735   16.3010    1.1450 C   0  0  0  0  0  0  0  0  0  0  0  0
    7.8244   15.6756    0.6377 H   0  0  0  0  0  0  0  0  0  0  0  0
    5.7738   13.4805    3.7102 C   0  0  0  0  0  0  0  0  0  0  0  0
    6.4099   14.2457    4.6839 C   0  0  0  0  0  0  0  0  0  0  0  0
    6.9867   15.1110    4.3890 H   0  0  0  0  0  0  0  0  0  0  0  0
    6.3112   13.8837    6.0144 C   0  0  0  0  0  0  0  0  0  0  0  0
    6.8029   14.4777    6.7701 H   0  0  0  0  0  0  0  0  0  0  0  0
    5.5930   12.7555    6.3775 C   0  0  0  0  0  0  0  0  0  0  0  0
    5.5191   12.4743    7.4173 H   0  0  0  0  0  0  0  0  0  0  0  0
    4.9834   11.9759    5.4069 C   0  0  0  0  0  0  0  0  0  0  0  0
    4.4395   11.0866    5.6898 H   0  0  0  0  0  0  0  0  0  0  0  0
    5.0812   12.3282    4.0739 C   0  0  0  0  0  0  0  0  0  0  0  0
    4.6228   11.7119    3.3107 H   0  0  0  0  0  0  0  0  0  0  0  0
    6.2403   11.1367   -0.9878 C   0  0  0  0  0  0  0  0  0  0  0  0
    6.2893   10.8156    0.0596 H   0  0  0  0  0  0  0  0  0  0  0  0
    7.1832   10.9203   -1.4911 H   0  0  0  0  0  0  0  0  0  0  0  0
    5.4088   10.6627   -1.5032 H   0  0  0  0  0  0  0  0  0  0  0  0
  1  5  1  0  0  0  0
  1  2  1  0  0  0  0
  3  1  1  0  0  0  0
  4 38  1  1  0  0  0
  4  7  1  0  0  0  0
  4  1  1  0  0  0  0
  5 27  1  0  0  0  0
  6 14  1  0  0  0  0
  6  5  1  0  0  0  0
  7  6  2  0  0  0  0
  8 10  2  0  0  0  0
  8  7  1  0  0  0  0
  9  8  1  0  0  0  0
 10 12  1  0  0  0  0
 11 10  1  0  0  0  0
 12 13  1  0  0  0  0
 12 14  2  0  0  0  0
 14 15  1  0  0  0  0
 16  5  1  0  0  0  0
 16 17  1  0  0  0  0
 17 18  1  0  0  0  0
 19 17  2  0  0  0  0
 19 20  1  0  0  0  0
 21 19  1  0  0  0  0
 22 21  1  0  0  0  0
 23 25  1  0  0  0  0
 23 21  2  0  0  0  0
 24 23  1  0  0  0  0
 25 16  2  0  0  0  0
 26 25  1  0  0  0  0
 27 36  2  0  0  0  0
 27 28  1  0  0  0  0
 28 30  2  0  0  0  0
 29 28  1  0  0  0  0
 30 32  1  0  0  0  0
 30 31  1  0  0  0  0
 32 33  1  0  0  0  0
 34 35  1  0  0  0  0
 34 32  2  0  0  0  0
 36 34  1  0  0  0  0
 37 36  1  0  0  0  0
 38 39  1  0  0  0  0
 40 38  1  0  0  0  0
 41 38  1  0  0  0  0
M  END
$$$$
