CSD_code = DUJJEZ | q = 0 | S = 0 | Stoichiometry = C20H16Cl2Zr | MND = 12
 OpenBabel04212202033D

 39 44  0  0  1  0  0  0  0  0999 V2000
   10.8449    6.1505   17.3253 Zr  0  0  0  0  0  0  0  0  0  0  0  0
   11.6130    3.9637   17.3759 Cl  0  0  0  0  0  0  0  0  0  0  0  0
   12.9962    7.0489   17.3039 Cl  0  0  0  0  0  0  0  0  0  0  0  0
    7.9121    7.9342   16.6137 C   0  0  0  0  0  0  0  0  0  0  0  0
    7.5833    8.7589   15.9756 H   0  0  0  0  0  0  0  0  0  0  0  0
    7.0605    7.2649   16.7591 H   0  0  0  0  0  0  0  0  0  0  0  0
    9.0300    7.1770   15.9503 C   0  0  2  0  0  3  0  0  0  0  0  0
    9.0378    5.7830   15.6971 C   0  0  1  0  0  0  0  0  0  0  0  0
    8.1886    5.1162   15.8016 H   0  0  0  0  0  0  0  0  0  0  0  0
   10.2436    5.4769   14.9869 C   0  0  0  0  0  0  0  0  0  0  0  0
   10.7356    4.2922   14.4056 C   0  0  0  0  0  0  0  0  0  0  0  0
   10.1528    3.3817   14.4500 H   0  0  0  0  0  0  0  0  0  0  0  0
   11.9590    4.3208   13.7849 C   0  0  0  0  0  0  0  0  0  0  0  0
   12.3521    3.4214   13.3355 H   0  0  0  0  0  0  0  0  0  0  0  0
   12.7199    5.5015   13.7146 C   0  0  0  0  0  0  0  0  0  0  0  0
   13.6766    5.4738   13.2150 H   0  0  0  0  0  0  0  0  0  0  0  0
   12.2682    6.6804   14.2529 C   0  0  0  0  0  0  0  0  0  0  0  0
   12.8509    7.5890   14.1783 H   0  0  0  0  0  0  0  0  0  0  0  0
   11.0167    6.6939   14.8994 C   0  0  0  0  0  0  0  0  0  0  0  0
   10.2674    7.7317   15.5451 C   0  0  2  0  0  0  0  0  0  0  0  0
   10.5230    8.7857   15.5364 H   0  0  0  0  0  0  0  0  0  0  0  0
    8.3749    8.4932   17.9771 C   0  0  0  0  0  0  0  0  0  0  0  0
    7.4996    8.7452   18.5830 H   0  0  0  0  0  0  0  0  0  0  0  0
    8.9532    9.4093   17.8262 H   0  0  0  0  0  0  0  0  0  0  0  0
    9.2328    7.4790   18.6828 C   0  0  0  0  0  0  0  0  0  0  0  0
   10.5449    7.7064   19.1575 C   0  0  1  0  0  0  0  0  0  0  0  0
   11.0482    8.6662   19.2097 H   0  0  0  0  0  0  0  0  0  0  0  0
   11.0074    6.4886   19.7574 C   0  0  0  0  0  0  0  0  0  0  0  0
   12.2143    6.1321   20.3911 C   0  0  0  0  0  0  0  0  0  0  0  0
   13.0059    6.8623   20.5019 H   0  0  0  0  0  0  0  0  0  0  0  0
   12.3516    4.8550   20.8758 C   0  0  0  0  0  0  0  0  0  0  0  0
   13.2690    4.5644   21.3655 H   0  0  0  0  0  0  0  0  0  0  0  0
   11.3176    3.9083   20.7618 C   0  0  0  0  0  0  0  0  0  0  0  0
   11.4683    2.9224   21.1747 H   0  0  0  0  0  0  0  0  0  0  0  0
   10.1356    4.2096   20.1342 C   0  0  0  0  0  0  0  0  0  0  0  0
    9.3469    3.4740   20.0458 H   0  0  0  0  0  0  0  0  0  0  0  0
    9.9629    5.5007   19.5988 C   0  0  0  0  0  0  0  0  0  0  0  0
    8.8907    6.1190   18.8852 C   0  0  0  0  0  0  0  0  0  0  0  0
    7.9114    5.6820   18.7305 H   0  0  0  0  0  0  0  0  0  0  0  0
  1  2  1  0  0  0  0
  1 26  1  0  0  0  0
  3  1  1  0  0  0  0
  4  6  1  0  0  0  0
  4 22  1  0  0  0  0
  5  4  1  0  0  0  0
  7  4  1  1  0  0  0
  8  9  1  1  0  0  0
  8  7  1  0  0  0  0
  8  1  1  0  0  0  0
 10  8  1  0  0  0  0
 11 12  1  0  0  0  0
 11 10  2  0  0  0  0
 13 11  1  0  0  0  0
 14 13  1  0  0  0  0
 15 13  2  0  0  0  0
 15 17  1  0  0  0  0
 16 15  1  0  0  0  0
 17 19  2  0  0  0  0
 18 17  1  0  0  0  0
 19 10  1  0  0  0  0
 19 20  1  0  0  0  0
 20 21  1  6  0  0  0
 20  7  1  0  0  0  0
 20  1  1  0  0  0  0
 22 23  1  0  0  0  0
 22 25  1  0  0  0  0
 24 22  1  0  0  0  0
 25 38  2  0  0  0  0
 25 26  1  0  0  0  0
 26 27  1  1  0  0  0
 26 28  1  0  0  0  0
 28 29  1  0  0  0  0
 29 30  1  0  0  0  0
 29 31  2  0  0  0  0
 31 32  1  0  0  0  0
 33 31  1  0  0  0  0
 33 34  1  0  0  0  0
 35 33  2  0  0  0  0
 36 35  1  0  0  0  0
 37 28  2  0  0  0  0
 37 35  1  0  0  0  0
 38 37  1  0  0  0  0
 39 38  1  0  0  0  0
M  END
$$$$
