CSD_code = DUKCES | q = 0 | S = 0 | Stoichiometry = C16H24I2N2O2Zn | MND = 4
 OpenBabel04212202033D

 47 49  0  0  0  0  0  0  0  0999 V2000
    0.3710    7.8982   10.8752 Zn  0  0  0  0  0  0  0  0  0  0  0  0
   -0.0373    8.5428   13.3247 I   0  0  0  0  0  0  0  0  0  0  0  0
    0.5072    9.8080    9.1896 I   0  0  0  0  0  0  0  0  0  0  0  0
    2.3635    7.1783   10.8090 N   0  0  0  0  0  0  0  0  0  0  0  0
    3.9135    9.9883   12.5495 N   0  0  0  0  0  4  0  0  0  0  0  0
   -0.3107    6.2546   10.3861 O   0  0  0  0  0  0  0  0  0  0  0  0
   -1.9235    4.0365    9.5709 O   0  0  0  0  0  0  0  0  0  0  0  0
    1.6541    4.9264   10.1856 C   0  0  0  0  0  0  0  0  0  0  0  0
    0.2404    5.1342   10.1084 C   0  0  0  0  0  0  0  0  0  0  0  0
   -0.5618    4.0154    9.6946 C   0  0  0  0  0  0  0  0  0  0  0  0
    0.0208    2.7885    9.4737 C   0  0  0  0  0  0  0  0  0  0  0  0
   -0.6264    1.9700    9.1976 H   0  0  0  0  0  0  0  0  0  0  0  0
    1.3981    2.5910    9.6006 C   0  0  0  0  0  0  0  0  0  0  0  0
    1.8164    1.6128    9.4210 H   0  0  0  0  0  0  0  0  0  0  0  0
    2.1971    3.6448    9.9286 C   0  0  0  0  0  0  0  0  0  0  0  0
    3.2677    3.5157   10.0118 H   0  0  0  0  0  0  0  0  0  0  0  0
    2.5856    5.9482   10.4801 C   0  0  0  0  0  3  0  0  0  0  0  0
    3.6355    5.6375   10.3857 H   0  0  0  0  0  0  0  0  0  0  0  0
    3.5037    8.0491   10.9605 C   0  0  0  0  0  0  0  0  0  0  0  0
    3.3597    8.9016   10.2869 H   0  0  0  0  0  0  0  0  0  0  0  0
    4.4308    7.5395   10.6556 H   0  0  0  0  0  0  0  0  0  0  0  0
    3.6220    8.5382   12.4153 C   0  0  0  0  0  0  0  0  0  0  0  0
    4.4123    7.9838   12.9248 H   0  0  0  0  0  0  0  0  0  0  0  0
    2.6825    8.3428   12.9389 H   0  0  0  0  0  0  0  0  0  0  0  0
    2.7731   10.8599   12.1606 C   0  0  0  0  0  0  0  0  0  0  0  0
    1.9581   10.6808   12.8647 H   0  0  0  0  0  0  0  0  0  0  0  0
    2.4277   10.5965   11.1601 H   0  0  0  0  0  0  0  0  0  0  0  0
    3.1900   12.3203   12.1948 C   0  0  0  0  0  0  0  0  0  0  0  0
    3.9914   12.5006   11.4738 H   0  0  0  0  0  0  0  0  0  0  0  0
    2.3361   12.9243   11.8923 H   0  0  0  0  0  0  0  0  0  0  0  0
    3.6470   12.7027   13.5981 C   0  0  0  0  0  0  0  0  0  0  0  0
    2.8089   12.6153   14.2901 H   0  0  0  0  0  0  0  0  0  0  0  0
    3.9918   13.7355   13.6156 H   0  0  0  0  0  0  0  0  0  0  0  0
    4.7717   11.7691   14.0349 C   0  0  0  0  0  0  0  0  0  0  0  0
    5.6522   11.9288   13.4069 H   0  0  0  0  0  0  0  0  0  0  0  0
    5.0592   11.9756   15.0654 H   0  0  0  0  0  0  0  0  0  0  0  0
    4.3251   10.3160   13.9356 C   0  0  0  0  0  0  0  0  0  0  0  0
    3.4651   10.1343   14.5842 H   0  0  0  0  0  0  0  0  0  0  0  0
    5.1365    9.6482   14.2333 H   0  0  0  0  0  0  0  0  0  0  0  0
   -2.6151    5.2238    9.2225 C   0  0  0  0  0  0  0  0  0  0  0  0
   -3.6626    4.9081    9.1931 H   0  0  0  0  0  0  0  0  0  0  0  0
   -2.5022    5.9871    9.9977 H   0  0  0  0  0  0  0  0  0  0  0  0
   -2.1956    5.7778    7.8659 C   0  0  0  0  0  0  0  0  0  0  0  0
   -1.1681    6.1332    7.8976 H   0  0  0  0  0  0  0  0  0  0  0  0
   -2.8418    6.6089    7.5951 H   0  0  0  0  0  0  0  0  0  0  0  0
   -2.2708    5.0046    7.1037 H   0  0  0  0  0  0  0  0  0  0  0  0
    4.6936   10.2229   11.9245 H   0  0  0  0  0  0  0  0  0  0  0  0
  1  2  1  0  0  0  0
  3  1  1  0  0  0  0
  4  1  1  0  0  0  0
  4 19  1  0  0  0  0
  5 37  1  0  0  0  0
  6  1  1  0  0  0  0
  7 10  1  0  0  0  0
  8 17  1  0  0  0  0
  9  8  1  0  0  0  0
  9  6  1  0  0  0  0
 10  9  2  0  0  0  0
 11 13  2  0  0  0  0
 11 10  1  0  0  0  0
 12 11  1  0  0  0  0
 13 15  1  0  0  0  0
 14 13  1  0  0  0  0
 15 16  1  0  0  0  0
 15  8  2  0  0  0  0
 17  4  1  0  0  0  0
 18 17  1  0  0  0  0
 19 22  1  0  0  0  0
 20 19  1  0  0  0  0
 21 19  1  0  0  0  0
 22  5  1  0  0  0  0
 22 23  1  0  0  0  0
 22 24  1  0  0  0  0
 25 28  1  0  0  0  0
 25  5  1  0  0  0  0
 25 26  1  0  0  0  0
 27 25  1  0  0  0  0
 28 31  1  0  0  0  0
 29 28  1  0  0  0  0
 30 28  1  0  0  0  0
 31 33  1  0  0  0  0
 31 34  1  0  0  0  0
 31 32  1  0  0  0  0
 34 36  1  0  0  0  0
 35 34  1  0  0  0  0
 37 34  1  0  0  0  0
 37 39  1  0  0  0  0
 37 38  1  0  0  0  0
 40  7  1  0  0  0  0
 40 42  1  0  0  0  0
 41 40  1  0  0  0  0
 43 44  1  0  0  0  0
 43 40  1  0  0  0  0
 45 43  1  0  0  0  0
 46 43  1  0  0  0  0
 47  5  1  0  0  0  0
M  END
$$$$
