CSD_code = DUKHEW | q = 0 | S = 0 | Stoichiometry = C36H26Cl2NiP2 | MND = 4
 OpenBabel04212202033D

 67 72  0  0  0  0  0  0  0  0999 V2000
    0.0003   -0.0000   -0.0002 Ni  0  0  0  0  0  0  0  0  0  0  0  0
    1.3125    1.1415    1.2814 P   0  0  2  0  0  4  0  0  0  0  0  0
    1.0881   -1.7876    0.0981 Cl  0  0  0  0  0  0  0  0  0  0  0  0
    2.7122    0.3487    2.1433 C   0  0  0  0  0  0  0  0  0  0  0  0
    2.7630    0.3015    3.5447 C   0  0  0  0  0  0  0  0  0  0  0  0
    3.8181   -0.3555    4.0867 C   0  0  0  0  0  3  0  0  0  0  0  0
    4.8207   -0.9726    3.3989 C   0  0  0  0  0  0  0  0  0  0  0  0
    4.7623   -0.9171    2.0071 C   0  0  0  0  0  0  0  0  0  0  0  0
    3.7081   -0.2679    1.3950 C   0  0  0  0  0  0  0  0  0  0  0  0
    0.7095    2.2989    2.5471 C   0  0  0  0  0  0  0  0  0  0  0  0
    1.4960    3.3400    2.9506 C   0  0  0  0  0  3  0  0  0  0  0  0
    1.1467    4.2256    3.9289 C   0  0  0  0  0  0  0  0  0  0  0  0
   -0.0902    4.0420    4.5463 C   0  0  0  0  0  0  0  0  0  0  0  0
   -0.9103    2.9921    4.1682 C   0  0  0  0  0  0  0  0  0  0  0  0
   -0.5214    2.1114    3.1755 C   0  0  0  0  0  0  0  0  0  0  0  0
    2.2229    2.2100    0.1285 C   0  0  0  0  0  0  0  0  0  0  0  0
    2.2197    1.8655   -1.2190 C   0  0  0  0  0  0  0  0  0  0  0  0
    2.9419    2.6188   -2.1251 C   0  0  0  0  0  0  0  0  0  0  0  0
    3.6660    3.7163   -1.6870 C   0  0  0  0  0  0  0  0  0  0  0  0
    3.6600    4.0700   -0.3459 C   0  0  0  0  0  0  0  0  0  0  0  0
    2.9477    3.3093    0.5603 C   0  0  0  0  0  0  0  0  0  0  0  0
    1.9950    0.7731    4.1395 H   0  0  0  0  0  0  0  0  0  0  0  0
    5.6264   -1.4893    3.8974 H   0  0  0  0  0  0  0  0  0  0  0  0
    5.5325   -1.3924    1.4168 H   0  0  0  0  0  0  0  0  0  0  0  0
    3.6453   -0.2453    0.3158 H   0  0  0  0  0  0  0  0  0  0  0  0
    1.7896    5.0428    4.2221 H   0  0  0  0  0  0  0  0  0  0  0  0
   -0.4050    4.7295    5.3185 H   0  0  0  0  0  0  0  0  0  0  0  0
   -1.8667    2.8599    4.6533 H   0  0  0  0  0  0  0  0  0  0  0  0
   -1.1550    1.2887    2.8702 H   0  0  0  0  0  0  0  0  0  0  0  0
    1.6262    1.0083   -1.5487 H   0  0  0  0  0  0  0  0  0  0  0  0
    2.9375    2.3571   -3.1731 H   0  0  0  0  0  0  0  0  0  0  0  0
    4.2303    4.3055   -2.3948 H   0  0  0  0  0  0  0  0  0  0  0  0
    4.2139    4.9351   -0.0119 H   0  0  0  0  0  0  0  0  0  0  0  0
    2.8739    3.5727    1.6253 H   0  0  0  0  0  0  0  0  0  0  0  0
   -1.3124   -1.1414   -1.2814 P   0  0  1  0  0  4  0  0  0  0  0  0
   -1.0878    1.7873   -0.0985 Cl  0  0  0  0  0  0  0  0  0  0  0  0
   -2.7122   -0.3487   -2.1432 C   0  0  0  0  0  0  0  0  0  0  0  0
   -0.7096   -2.2989   -2.5473 C   0  0  0  0  0  0  0  0  0  0  0  0
   -2.2227   -2.2100   -0.1285 C   0  0  0  0  0  0  0  0  0  0  0  0
   -2.7632   -0.3014   -3.5445 C   0  0  0  0  0  0  0  0  0  0  0  0
   -3.7080    0.2679   -1.3947 C   0  0  0  0  0  0  0  0  0  0  0  0
   -1.4964   -3.3398   -2.9509 C   0  0  0  0  0  3  0  0  0  0  0  0
    0.5212   -2.1115   -3.1758 C   0  0  0  0  0  0  0  0  0  0  0  0
   -2.2192   -1.8657    1.2190 C   0  0  0  0  0  0  0  0  0  0  0  0
   -2.9477   -3.3092   -0.5603 C   0  0  0  0  0  0  0  0  0  0  0  0
   -3.8184    0.3556   -4.0864 C   0  0  0  0  0  3  0  0  0  0  0  0
   -1.9953   -0.7729   -4.1395 H   0  0  0  0  0  0  0  0  0  0  0  0
   -4.7622    0.9171   -2.0066 C   0  0  0  0  0  0  0  0  0  0  0  0
   -3.6451    0.2452   -0.3155 H   0  0  0  0  0  0  0  0  0  0  0  0
   -1.1473   -4.2253   -3.9294 C   0  0  0  0  0  0  0  0  0  0  0  0
    0.9100   -2.9921   -4.1686 C   0  0  0  0  0  0  0  0  0  0  0  0
    1.1551   -1.2889   -2.8705 H   0  0  0  0  0  0  0  0  0  0  0  0
   -2.9413   -2.6191    2.1251 C   0  0  0  0  0  0  0  0  0  0  0  0
   -1.6257   -1.0086    1.5488 H   0  0  0  0  0  0  0  0  0  0  0  0
   -3.6599   -4.0700    0.3460 C   0  0  0  0  0  0  0  0  0  0  0  0
   -2.8741   -3.5725   -1.6253 H   0  0  0  0  0  0  0  0  0  0  0  0
   -4.8208    0.9727   -3.3984 C   0  0  0  0  0  0  0  0  0  0  0  0
   -5.5324    1.3924   -1.4161 H   0  0  0  0  0  0  0  0  0  0  0  0
    0.0897   -4.0419   -4.5467 C   0  0  0  0  0  0  0  0  0  0  0  0
   -1.7902   -5.0423   -4.2225 H   0  0  0  0  0  0  0  0  0  0  0  0
    1.8665   -2.8601   -4.6536 H   0  0  0  0  0  0  0  0  0  0  0  0
   -3.6656   -3.7165    1.6871 C   0  0  0  0  0  0  0  0  0  0  0  0
   -2.9367   -2.3575    3.1732 H   0  0  0  0  0  0  0  0  0  0  0  0
   -4.2139   -4.9350    0.0119 H   0  0  0  0  0  0  0  0  0  0  0  0
   -5.6267    1.4895   -3.8967 H   0  0  0  0  0  0  0  0  0  0  0  0
    0.4044   -4.7294   -5.3189 H   0  0  0  0  0  0  0  0  0  0  0  0
   -4.2298   -4.3057    2.3950 H   0  0  0  0  0  0  0  0  0  0  0  0
  1  3  1  0  0  0  0
  2  1  1  6  0  0  0
  2  4  1  0  0  0  0
  2 10  1  0  0  0  0
  4  5  1  0  0  0  0
  5  6  2  0  0  0  0
  5 22  1  0  0  0  0
  7 23  1  0  0  0  0
  7  6  1  0  0  0  0
  8  7  2  0  0  0  0
  9  8  1  0  0  0  0
  9  4  2  0  0  0  0
 10 11  2  0  0  0  0
 10 15  1  0  0  0  0
 11 12  1  0  0  0  0
 12 26  1  0  0  0  0
 12 13  2  0  0  0  0
 13 27  1  0  0  0  0
 14 13  1  0  0  0  0
 14 28  1  0  0  0  0
 15 14  2  0  0  0  0
 16 21  1  0  0  0  0
 16  2  1  0  0  0  0
 17 16  2  0  0  0  0
 18 19  2  0  0  0  0
 18 17  1  0  0  0  0
 19 20  1  0  0  0  0
 20 33  1  0  0  0  0
 20 21  2  0  0  0  0
 21 34  1  0  0  0  0
 24  8  1  0  0  0  0
 25  9  1  0  0  0  0
 29 15  1  0  0  0  0
 30 17  1  0  0  0  0
 31 18  1  0  0  0  0
 32 19  1  0  0  0  0
 35 39  1  0  0  0  0
 35  1  1  1  0  0  0
 36  1  1  0  0  0  0
 37 41  1  0  0  0  0
 37 35  1  0  0  0  0
 38 35  1  0  0  0  0
 39 44  1  0  0  0  0
 40 37  2  0  0  0  0
 41 49  1  0  0  0  0
 42 38  1  0  0  0  0
 43 52  1  0  0  0  0
 43 38  2  0  0  0  0
 44 54  1  0  0  0  0
 44 53  2  0  0  0  0
 45 39  2  0  0  0  0
 45 55  1  0  0  0  0
 46 40  1  0  0  0  0
 46 57  2  0  0  0  0
 47 40  1  0  0  0  0
 48 58  1  0  0  0  0
 48 41  2  0  0  0  0
 50 42  2  0  0  0  0
 51 43  1  0  0  0  0
 53 63  1  0  0  0  0
 55 62  2  0  0  0  0
 56 45  1  0  0  0  0
 57 48  1  0  0  0  0
 59 51  2  0  0  0  0
 59 50  1  0  0  0  0
 60 50  1  0  0  0  0
 61 51  1  0  0  0  0
 62 53  1  0  0  0  0
 62 67  1  0  0  0  0
 64 55  1  0  0  0  0
 65 57  1  0  0  0  0
 66 59  1  0  0  0  0
M  END
$$$$
