CSD_code = DULRIN | q = 0 | S = 0 | Stoichiometry = C22H22Cl2Si2Zr | MND = 12
 OpenBabel04212202033D

 49 54  0  0  1  0  0  0  0  0999 V2000
   -1.9686    5.6318    6.2381 Zr  0  0  0  0  0  0  0  0  0  0  0  0
   -3.8055    6.5550    5.1463 Cl  0  0  0  0  0  0  0  0  0  0  0  0
   -3.1587    5.0700    8.1593 Cl  0  0  0  0  0  0  0  0  0  0  0  0
    0.2826    6.1231    4.0337 Si  0  0  0  0  0  0  0  0  0  0  0  0
    0.9196    4.5347    7.0380 Si  0  0  0  0  0  0  0  0  0  0  0  0
   -0.0381    6.9798    5.6874 C   0  0  2  0  0  3  0  0  0  0  0  0
    0.2317    6.3089    6.9302 C   0  0  1  0  0  0  0  0  0  0  0  0
   -0.6116    6.8428    7.9302 C   0  0  0  0  0  3  0  0  0  0  0  0
   -0.5879    6.5988    8.9857 H   0  0  0  0  0  0  0  0  0  0  0  0
   -1.4114    7.8705    7.3488 C   0  0  0  0  0  0  0  0  0  0  0  0
   -2.4206    8.6979    7.8761 C   0  0  0  0  0  0  0  0  0  0  0  0
   -2.7009    8.6128    8.9184 H   0  0  0  0  0  0  0  0  0  0  0  0
   -3.0241    9.6114    7.0479 C   0  0  0  0  0  0  0  0  0  0  0  0
   -3.8073   10.2495    7.4294 H   0  0  0  0  0  0  0  0  0  0  0  0
   -2.6272    9.7516    5.7069 C   0  0  0  0  0  0  0  0  0  0  0  0
   -3.1094   10.5024    5.0988 H   0  0  0  0  0  0  0  0  0  0  0  0
   -1.6480    8.9604    5.1580 C   0  0  0  0  0  0  0  0  0  0  0  0
   -1.3392    9.1023    4.1326 H   0  0  0  0  0  0  0  0  0  0  0  0
   -1.0397    7.9728    5.9544 C   0  0  0  0  0  0  0  0  0  0  0  0
   -1.9440    4.2558    4.1706 C   0  0  0  0  0  3  0  0  0  0  0  0
   -2.4019    4.5495    3.2336 H   0  0  0  0  0  0  0  0  0  0  0  0
   -0.6199    4.5347    4.5775 C   0  0  2  0  0  0  0  0  0  0  0  0
   -0.3665    3.8666    5.8253 C   0  0  2  0  0  3  0  0  0  0  0  0
   -1.5544    3.1328    6.1583 C   0  0  0  0  0  0  0  0  0  0  0  0
   -1.8781    2.2573    7.2113 C   0  0  0  0  0  0  0  0  0  0  0  0
   -1.1356    1.9911    7.9492 H   0  0  0  0  0  0  0  0  0  0  0  0
   -3.1460    1.7338    7.2787 C   0  0  0  0  0  0  0  0  0  0  0  0
   -3.4076    1.0723    8.0913 H   0  0  0  0  0  0  0  0  0  0  0  0
   -4.1220    2.0360    6.3134 C   0  0  0  0  0  0  0  0  0  0  0  0
   -5.1087    1.6096    6.4179 H   0  0  0  0  0  0  0  0  0  0  0  0
   -3.8342    2.8415    5.2396 C   0  0  0  0  0  0  0  0  0  0  0  0
   -4.5738    3.0471    4.4761 H   0  0  0  0  0  0  0  0  0  0  0  0
   -2.5441    3.3949    5.1363 C   0  0  0  0  0  0  0  0  0  0  0  0
   -0.7689    6.8577    2.6194 C   0  0  0  0  0  0  0  0  0  0  0  0
   -0.3665    7.8067    2.2816 H   0  0  0  0  0  0  0  0  0  0  0  0
   -1.8000    7.0146    2.9322 H   0  0  0  0  0  0  0  0  0  0  0  0
   -0.7734    6.1929    1.7609 H   0  0  0  0  0  0  0  0  0  0  0  0
    2.1100    5.9809    3.5050 C   0  0  0  0  0  0  0  0  0  0  0  0
    2.3220    5.0108    3.0694 H   0  0  0  0  0  0  0  0  0  0  0  0
    2.7884    6.1361    4.3348 H   0  0  0  0  0  0  0  0  0  0  0  0
    2.3330    6.7310    2.7545 H   0  0  0  0  0  0  0  0  0  0  0  0
    0.5980    3.9605    8.8302 C   0  0  0  0  0  0  0  0  0  0  0  0
    0.8974    2.9278    8.9728 H   0  0  0  0  0  0  0  0  0  0  0  0
   -0.4549    4.0511    9.0930 H   0  0  0  0  0  0  0  0  0  0  0  0
    1.1743    4.5565    9.5315 H   0  0  0  0  0  0  0  0  0  0  0  0
    2.7452    4.2547    6.5629 C   0  0  0  0  0  0  0  0  0  0  0  0
    2.8684    4.0656    5.5038 H   0  0  0  0  0  0  0  0  0  0  0  0
    3.1352    3.3957    7.0976 H   0  0  0  0  0  0  0  0  0  0  0  0
    3.3570    5.1099    6.8284 H   0  0  0  0  0  0  0  0  0  0  0  0
  1  7  1  0  0  0  0
  1  3  1  0  0  0  0
  2  1  1  0  0  0  0
  4 22  1  0  0  0  0
  4  6  1  0  0  0  0
  5 42  1  0  0  0  0
  6 19  1  1  0  0  0
  6  7  1  0  0  0  0
  7  5  1  0  0  0  0
  7  8  1  1  0  0  0
  8  9  1  0  0  0  0
 10 11  1  0  0  0  0
 10  8  1  0  0  0  0
 11 12  1  0  0  0  0
 13 14  1  0  0  0  0
 13 11  2  0  0  0  0
 15 13  1  0  0  0  0
 16 15  1  0  0  0  0
 17 15  2  0  0  0  0
 17 19  1  0  0  0  0
 18 17  1  0  0  0  0
 19 10  2  0  0  0  0
 20 33  1  0  0  0  0
 21 20  1  0  0  0  0
 22 20  1  6  0  0  0
 22 23  1  0  0  0  0
 22  1  1  0  0  0  0
 23 24  1  1  0  0  0
 23  5  1  0  0  0  0
 24 25  1  0  0  0  0
 25 27  2  0  0  0  0
 25 26  1  0  0  0  0
 27 28  1  0  0  0  0
 29 30  1  0  0  0  0
 29 27  1  0  0  0  0
 31 29  2  0  0  0  0
 32 31  1  0  0  0  0
 33 31  1  0  0  0  0
 33 24  2  0  0  0  0
 34 36  1  0  0  0  0
 34  4  1  0  0  0  0
 35 34  1  0  0  0  0
 37 34  1  0  0  0  0
 38  4  1  0  0  0  0
 38 40  1  0  0  0  0
 39 38  1  0  0  0  0
 41 38  1  0  0  0  0
 42 43  1  0  0  0  0
 42 44  1  0  0  0  0
 42 45  1  0  0  0  0
 46 49  1  0  0  0  0
 46  5  1  0  0  0  0
 46 48  1  0  0  0  0
 47 46  1  0  0  0  0
M  END
$$$$
