CSD_code = DUPGEA | q = 0 | S = 0 | Stoichiometry = C13H25Cl2N2PPdS | MND = 4
 OpenBabel04212202033D

 45 45  0  0  0  0  0  0  0  0999 V2000
    1.2043    1.3125    3.0065 Pd  0  0  0  0  0  0  0  0  0  0  0  0
    2.2940   -0.6943    2.9799 Cl  0  0  0  0  0  0  0  0  0  0  0  0
    0.2271    3.3659    2.9043 Cl  0  0  0  0  0  0  0  0  0  0  0  0
    1.8745    1.8355    5.0625 P   0  0  0  0  0  4  0  0  0  0  0  0
    1.2848    1.0843   -0.3459 S   0  0  0  0  0  3  0  0  0  0  0  0
   -0.7840   -0.3504   -0.3204 N   0  0  0  0  0  0  0  0  0  0  0  0
    0.5216    0.8669    1.0747 N   0  0  0  0  0  0  0  0  0  0  0  0
    2.2916   -0.4313   -0.5514 C   0  0  0  0  0  0  0  0  0  0  0  0
    2.6116    2.1340    0.3250 C   0  0  0  0  0  0  0  0  0  0  0  0
   -0.5652    0.0792    0.9289 C   0  0  0  0  0  0  0  0  0  0  0  0
   -1.3828   -0.2832    2.0132 C   0  0  0  0  0  0  0  0  0  0  0  0
   -2.4610   -1.0948    1.7559 C   0  0  0  0  0  0  0  0  0  0  0  0
   -2.7070   -1.5181    0.4488 C   0  0  0  0  0  0  0  0  0  0  0  0
   -1.8386   -1.1187   -0.5468 C   0  0  0  0  0  0  0  0  0  0  0  0
    2.8837    3.3697    5.0768 C   0  0  0  0  0  0  0  0  0  0  0  0
    3.9976    3.2167    4.0458 C   0  0  0  0  0  0  0  0  0  0  0  0
    2.8683    0.5775    5.9749 C   0  0  0  0  0  0  0  0  0  0  0  0
    3.5340    1.0575    7.2572 C   0  0  0  0  0  0  0  0  0  0  0  0
    0.4509    2.1749    6.1804 C   0  0  0  0  0  0  0  0  0  0  0  0
   -0.6956    1.2485    5.7801 C   0  0  0  0  0  0  0  0  0  0  0  0
    3.1425   -0.2089   -1.1848 H   0  0  0  0  0  0  0  0  0  0  0  0
    1.6555   -1.1757   -1.0163 H   0  0  0  0  0  0  0  0  0  0  0  0
    2.6005   -0.7644    0.4385 H   0  0  0  0  0  0  0  0  0  0  0  0
    3.3122    2.3829   -0.4658 H   0  0  0  0  0  0  0  0  0  0  0  0
    3.1079    1.5821    1.1338 H   0  0  0  0  0  0  0  0  0  0  0  0
    2.1372    3.0409    0.7063 H   0  0  0  0  0  0  0  0  0  0  0  0
   -1.1358    0.0671    3.0176 H   0  0  0  0  0  0  0  0  0  0  0  0
   -3.1142   -1.4061    2.5586 H   0  0  0  0  0  0  0  0  0  0  0  0
   -3.5473   -2.1541    0.2219 H   0  0  0  0  0  0  0  0  0  0  0  0
   -1.9738   -1.4297   -1.5750 H   0  0  0  0  0  0  0  0  0  0  0  0
    3.2721    3.5757    6.0763 H   0  0  0  0  0  0  0  0  0  0  0  0
    2.2135    4.1808    4.7804 H   0  0  0  0  0  0  0  0  0  0  0  0
    4.5516    4.1451    3.9237 H   0  0  0  0  0  0  0  0  0  0  0  0
    3.5481    2.9467    3.0810 H   0  0  0  0  0  0  0  0  0  0  0  0
    4.6936    2.4302    4.3347 H   0  0  0  0  0  0  0  0  0  0  0  0
    3.6145    0.1899    5.2766 H   0  0  0  0  0  0  0  0  0  0  0  0
    2.1803   -0.2481    6.1841 H   0  0  0  0  0  0  0  0  0  0  0  0
    3.9589    0.2075    7.7877 H   0  0  0  0  0  0  0  0  0  0  0  0
    2.8225    1.5461    7.9200 H   0  0  0  0  0  0  0  0  0  0  0  0
    4.3405    1.7544    7.0433 H   0  0  0  0  0  0  0  0  0  0  0  0
    0.1538    3.2173    6.0479 H   0  0  0  0  0  0  0  0  0  0  0  0
    0.7416    2.0164    7.2222 H   0  0  0  0  0  0  0  0  0  0  0  0
   -1.5319    1.3323    6.4718 H   0  0  0  0  0  0  0  0  0  0  0  0
   -0.3618    0.2072    5.7605 H   0  0  0  0  0  0  0  0  0  0  0  0
   -1.0454    1.5309    4.7811 H   0  0  0  0  0  0  0  0  0  0  0  0
  1  4  1  0  0  0  0
  2  1  1  0  0  0  0
  3  1  1  0  0  0  0
  4 15  1  0  0  0  0
  4 17  1  0  0  0  0
  4 19  1  0  0  0  0
  5  9  1  0  0  0  0
  5  7  1  0  0  0  0
  6 10  1  0  0  0  0
  7  1  1  0  0  0  0
  8  5  1  0  0  0  0
  8 23  1  0  0  0  0
  9 26  1  0  0  0  0
  9 25  1  0  0  0  0
 10  7  1  0  0  0  0
 10 11  2  0  0  0  0
 11 27  1  0  0  0  0
 12 11  1  0  0  0  0
 12 28  1  0  0  0  0
 13 12  2  0  0  0  0
 14  6  2  0  0  0  0
 14 13  1  0  0  0  0
 15 31  1  0  0  0  0
 16 35  1  0  0  0  0
 16 15  1  0  0  0  0
 17 37  1  0  0  0  0
 17 18  1  0  0  0  0
 18 38  1  0  0  0  0
 18 39  1  0  0  0  0
 19 42  1  0  0  0  0
 20 19  1  0  0  0  0
 20 43  1  0  0  0  0
 21  8  1  0  0  0  0
 22  8  1  0  0  0  0
 24  9  1  0  0  0  0
 29 13  1  0  0  0  0
 30 14  1  0  0  0  0
 32 15  1  0  0  0  0
 33 16  1  0  0  0  0
 34 16  1  0  0  0  0
 36 17  1  0  0  0  0
 40 18  1  0  0  0  0
 41 19  1  0  0  0  0
 44 20  1  0  0  0  0
 45 20  1  0  0  0  0
M  END
$$$$
