CSD_code = DUPPEK | q = 0 | S = 0 | Stoichiometry = C12H16CdCl2N8S4 | MND = 6
 OpenBabel04212202033D

 43 46  0  0  1  0  0  0  0  0999 V2000
    1.1466    1.9674    3.8524 Cd  0  0  0  0  0  0  0  0  0  0  0  0
    3.0127    2.4421    2.2561 Cl  0  0  0  0  0  0  0  0  0  0  0  0
   -0.7599    1.4969    5.3983 Cl  0  0  0  0  0  0  0  0  0  0  0  0
    4.5243    0.7388    7.1237 S   0  0  0  0  0  0  0  0  0  0  0  0
    3.8546    1.3628    5.6224 C   0  0  1  0  0  3  0  0  0  0  0  0
    2.6431    0.9486    5.3751 N   0  0  0  0  0  0  0  0  0  0  0  0
    2.1846    0.1201    6.3600 C   0  0  0  0  0  0  0  0  0  0  0  0
    1.1906   -0.2836    6.2818 H   0  0  0  0  0  0  0  0  0  0  0  0
    3.0364   -0.1146    7.3773 C   0  0  0  0  0  0  0  0  0  0  0  0
    2.9029   -0.7204    8.2487 H   0  0  0  0  0  0  0  0  0  0  0  0
    4.5459    2.2219    4.8673 N   0  0  0  0  0  0  0  0  0  0  0  0
    4.1982    2.3885    3.9166 H   0  0  0  0  0  0  0  0  0  0  0  0
    5.5279    2.3416    5.0438 H   0  0  0  0  0  0  0  0  0  0  0  0
    2.6899    5.2656    7.0582 S   0  0  0  0  0  0  0  0  0  0  0  0
    1.7109    3.9611    6.4018 C   0  0  1  0  0  3  0  0  0  0  0  0
    1.7336    3.8905    5.0999 N   0  0  0  0  0  0  0  0  0  0  0  0
    2.5243    4.8641    4.5578 C   0  0  0  0  0  0  0  0  0  0  0  0
    2.6347    4.9121    3.4889 H   0  0  0  0  0  0  0  0  0  0  0  0
    3.1214    5.6948    5.4346 C   0  0  0  0  0  0  0  0  0  0  0  0
    3.7763    6.5202    5.2503 H   0  0  0  0  0  0  0  0  0  0  0  0
    1.0633    3.1156    7.2093 N   0  0  0  0  0  0  0  0  0  0  0  0
    0.3563    2.5108    6.7777 H   0  0  0  0  0  0  0  0  0  0  0  0
    0.9606    3.3535    8.1802 H   0  0  0  0  0  0  0  0  0  0  0  0
   -2.1498    3.0637    0.4734 S   0  0  0  0  0  0  0  0  0  0  0  0
   -1.5224    2.4771    2.0070 C   0  0  2  0  0  3  0  0  0  0  0  0
   -0.3590    2.9731    2.3238 N   0  0  0  0  0  0  0  0  0  0  0  0
    0.0910    3.8446    1.3727 C   0  0  0  0  0  0  0  0  0  0  0  0
    1.0441    4.3234    1.5125 H   0  0  0  0  0  0  0  0  0  0  0  0
   -0.7173    4.0265    0.3101 C   0  0  0  0  0  0  0  0  0  0  0  0
   -0.5801    4.6491   -0.5488 H   0  0  0  0  0  0  0  0  0  0  0  0
   -2.1932    1.5661    2.7204 N   0  0  0  0  0  0  0  0  0  0  0  0
   -1.8904    1.4274    3.6902 H   0  0  0  0  0  0  0  0  0  0  0  0
   -3.1548    1.3845    2.4915 H   0  0  0  0  0  0  0  0  0  0  0  0
   -0.3612   -1.4225    0.7275 S   0  0  0  0  0  0  0  0  0  0  0  0
    0.5853   -0.0720    1.3361 C   0  0  2  0  0  3  0  0  0  0  0  0
    0.6115    0.0079    2.6371 N   0  0  0  0  0  0  0  0  0  0  0  0
   -0.1125   -0.9952    3.2166 C   0  0  0  0  0  0  0  0  0  0  0  0
   -0.1757   -1.0407    4.2894 H   0  0  0  0  0  0  0  0  0  0  0  0
   -0.7076   -1.8578    2.3695 C   0  0  0  0  0  0  0  0  0  0  0  0
   -1.3174   -2.7097    2.5853 H   0  0  0  0  0  0  0  0  0  0  0  0
    1.1629    0.7953    0.4978 N   0  0  0  0  0  0  0  0  0  0  0  0
    1.8701    1.4207    0.8986 H   0  0  0  0  0  0  0  0  0  0  0  0
    1.2412    0.5500   -0.4737 H   0  0  0  0  0  0  0  0  0  0  0  0
  1 16  1  0  0  0  0
  1  6  1  0  0  0  0
  1  3  1  0  0  0  0
  2  1  1  0  0  0  0
  4  9  1  0  0  0  0
  5 11  1  1  0  0  0
  5  4  1  0  0  0  0
  6  5  1  0  0  0  0
  6  7  1  0  0  0  0
  7  9  2  0  0  0  0
  8  7  1  0  0  0  0
  9 10  1  0  0  0  0
 11 13  1  0  0  0  0
 12 11  1  0  0  0  0
 15 14  1  0  0  0  0
 15 21  1  1  0  0  0
 16 15  1  0  0  0  0
 17 16  1  0  0  0  0
 17 19  2  0  0  0  0
 18 17  1  0  0  0  0
 19 14  1  0  0  0  0
 20 19  1  0  0  0  0
 21 23  1  0  0  0  0
 22 21  1  0  0  0  0
 24 25  1  0  0  0  0
 25 26  1  0  0  0  0
 25 31  1  6  0  0  0
 26  1  1  0  0  0  0
 27 28  1  0  0  0  0
 27 26  1  0  0  0  0
 29 24  1  0  0  0  0
 29 27  2  0  0  0  0
 30 29  1  0  0  0  0
 31 32  1  0  0  0  0
 33 31  1  0  0  0  0
 34 35  1  0  0  0  0
 34 39  1  0  0  0  0
 35 41  1  6  0  0  0
 35 36  1  0  0  0  0
 36 37  1  0  0  0  0
 36  1  1  0  0  0  0
 37 38  1  0  0  0  0
 39 40  1  0  0  0  0
 39 37  2  0  0  0  0
 41 42  1  0  0  0  0
 43 41  1  0  0  0  0
M  END
$$$$
