CSD_code = DUPVAM | q = 0 | S = 0 | Stoichiometry = C11H13I2N4O2Re | MND = 6
 OpenBabel04212202033D

 33 35  0  0  0  0  0  0  0  0999 V2000
    3.2732   -3.7837   -1.5428 Re  0  0  0  0  0  0  0  0  0  0  0  0
    2.9094   -3.4710   -4.1642 I   0  0  0  0  0  0  0  0  0  0  0  0
    3.0283   -6.4348   -1.5996 I   0  0  0  0  0  0  0  0  0  0  0  0
    4.9207   -3.7921   -1.6252 O   0  0  0  0  0  1  0  0  0  0  0  0
    1.5860   -3.5071   -1.1564 O   0  0  0  0  0  0  0  0  0  0  0  0
    3.4757   -1.4464   -0.9786 N   0  0  0  0  0  0  0  0  0  0  0  0
    3.5600   -3.5425    0.8377 N   0  0  0  0  0  0  0  0  0  0  0  0
    3.6871    0.0468    0.8169 N   0  0  0  0  0  0  0  0  0  0  0  0
    3.8593   -1.9705    2.5521 N   0  0  0  0  0  0  0  0  0  0  0  0
    3.4650   -0.4396   -1.8351 C   0  0  0  0  0  3  0  0  0  0  0  0
    3.3709   -0.6953   -2.8836 H   0  0  0  0  0  0  0  0  0  0  0  0
    3.5689    0.8742   -1.4009 C   0  0  0  0  0  0  0  0  0  0  0  0
    3.5661    1.6963   -2.0964 H   0  0  0  0  0  0  0  0  0  0  0  0
    3.6699    1.0606   -0.0277 C   0  0  0  0  0  0  0  0  0  0  0  0
    3.7394    2.0436    0.4184 H   0  0  0  0  0  0  0  0  0  0  0  0
    3.9675   -2.9509    3.4287 C   0  0  0  0  0  0  0  0  0  0  0  0
    4.1202   -2.6469    4.4556 H   0  0  0  0  0  0  0  0  0  0  0  0
    3.8920   -4.2865    3.0535 C   0  0  0  0  0  0  0  0  0  0  0  0
    3.9922   -5.0917    3.7614 H   0  0  0  0  0  0  0  0  0  0  0  0
    3.6750   -4.5334    1.7053 C   0  0  0  0  0  3  0  0  0  0  0  0
    3.5900   -5.5382    1.3091 H   0  0  0  0  0  0  0  0  0  0  0  0
    3.6019   -1.1751    0.3199 C   0  0  0  0  0  0  0  0  0  0  0  0
    3.6710   -2.2916    1.2839 C   0  0  0  0  0  0  0  0  0  0  0  0
    0.2368   -3.3153   -1.0030 C   0  0  0  0  0  0  0  0  0  0  0  0
   -0.0182   -3.5152    0.0567 H   0  0  0  0  0  0  0  0  0  0  0  0
   -0.5341   -4.2915   -1.9002 C   0  0  0  0  0  0  0  0  0  0  0  0
   -0.3017   -4.0947   -2.9457 H   0  0  0  0  0  0  0  0  0  0  0  0
   -1.6024   -4.1741   -1.7424 H   0  0  0  0  0  0  0  0  0  0  0  0
   -0.2510   -5.3174   -1.6696 H   0  0  0  0  0  0  0  0  0  0  0  0
   -0.1230   -1.8600   -1.3351 C   0  0  0  0  0  0  0  0  0  0  0  0
    0.4106   -1.1729   -0.6768 H   0  0  0  0  0  0  0  0  0  0  0  0
   -1.1906   -1.7061   -1.2086 H   0  0  0  0  0  0  0  0  0  0  0  0
    0.1470   -1.6429   -2.3681 H   0  0  0  0  0  0  0  0  0  0  0  0
  1  5  1  0  0  0  0
  1  6  1  0  0  0  0
  1  7  1  0  0  0  0
  2  1  1  0  0  0  0
  3  1  1  0  0  0  0
  4  1  1  0  0  0  0
  5 24  1  0  0  0  0
  6 22  1  0  0  0  0
  7 23  1  0  0  0  0
  7 20  1  0  0  0  0
  9 16  1  0  0  0  0
 10 12  1  0  0  0  0
 10  6  1  0  0  0  0
 11 10  1  0  0  0  0
 12 14  2  0  0  0  0
 13 12  1  0  0  0  0
 14 15  1  0  0  0  0
 14  8  1  0  0  0  0
 16 17  1  0  0  0  0
 18 16  2  0  0  0  0
 18 19  1  0  0  0  0
 20 18  1  0  0  0  0
 21 20  1  0  0  0  0
 22  8  2  0  0  0  0
 22 23  1  0  0  0  0
 23  9  2  0  0  0  0
 24 25  1  0  0  0  0
 26 28  1  0  0  0  0
 26 29  1  0  0  0  0
 26 24  1  0  0  0  0
 27 26  1  0  0  0  0
 30 32  1  0  0  0  0
 30 24  1  0  0  0  0
 30 31  1  0  0  0  0
 33 30  1  0  0  0  0
M  END
$$$$
