CSD_code = DUPXES | q = 0 | S = 0 | Stoichiometry = C16H14Cl2N4Zn | MND = 4
 OpenBabel04212202033D

 37 41  0  0  1  0  0  0  0  0999 V2000
    1.2145    8.9118   17.1781 Zn  0  0  0  0  0  0  0  0  0  0  0  0
    3.1440    8.1356   18.0533 Cl  0  0  0  0  0  0  0  0  0  0  0  0
    0.6105    8.7944   15.0916 Cl  0  0  0  0  0  0  0  0  0  0  0  0
    0.0198    7.8667   18.5130 N   0  0  0  0  0  0  0  0  0  0  0  0
   -0.0790    6.8601   20.4756 N   0  0  0  0  0  0  0  0  0  0  0  0
   -0.0433    6.7337   21.4739 H   0  0  0  0  0  0  0  0  0  0  0  0
    1.7587   12.3626   19.4122 N   0  0  0  0  0  0  0  0  0  0  0  0
    2.0682   12.7746   20.2772 H   0  0  0  0  0  0  0  0  0  0  0  0
    1.1610   10.8165   17.9573 N   0  0  0  0  0  0  0  0  0  0  0  0
   -0.1583    6.5180   18.2939 C   0  0  0  0  0  0  0  0  0  0  0  0
   -0.2736    5.8022   17.1081 C   0  0  0  0  0  0  0  0  0  0  0  0
   -0.2274    6.3025   16.1539 H   0  0  0  0  0  0  0  0  0  0  0  0
   -0.4423    4.4374   17.2128 C   0  0  0  0  0  0  0  0  0  0  0  0
   -0.5301    3.8456   16.3146 H   0  0  0  0  0  0  0  0  0  0  0  0
   -0.4992    3.7935   18.4515 C   0  0  0  0  0  0  0  0  0  0  0  0
   -0.6283    2.7222   18.4801 H   0  0  0  0  0  0  0  0  0  0  0  0
   -0.3914    4.4914   19.6377 C   0  0  0  0  0  0  0  0  0  0  0  0
   -0.4325    3.9941   20.5946 H   0  0  0  0  0  0  0  0  0  0  0  0
   -0.2208    5.8629   19.5392 C   0  0  0  0  0  0  0  0  0  0  0  0
    0.0699    8.0329   19.8114 C   0  0  2  0  0  3  0  0  0  0  0  0
    0.2219    9.3302   20.5271 C   0  0  0  0  0  0  0  0  0  0  0  0
    0.1144    9.1419   21.5969 H   0  0  0  0  0  0  0  0  0  0  0  0
   -0.5877    9.9950   20.2152 H   0  0  0  0  0  0  0  0  0  0  0  0
    1.5812   10.0226   20.2698 C   0  0  0  0  0  0  0  0  0  0  0  0
    1.9318   10.4936   21.1889 H   0  0  0  0  0  0  0  0  0  0  0  0
    2.3153    9.2728   19.9499 H   0  0  0  0  0  0  0  0  0  0  0  0
    1.5000   11.0486   19.2017 C   0  0  2  0  0  3  0  0  0  0  0  0
    1.5890   13.0211   18.2148 C   0  0  0  0  0  0  0  0  0  0  0  0
    1.7244   14.3476   17.8386 C   0  0  0  0  0  0  0  0  0  0  0  0
    2.0236   15.1076   18.5439 H   0  0  0  0  0  0  0  0  0  0  0  0
    1.4614   14.6471   16.5164 C   0  0  0  0  0  0  0  0  0  0  0  0
    1.5569   15.6680   16.1790 H   0  0  0  0  0  0  0  0  0  0  0  0
    1.0775   13.6629   15.6023 C   0  0  0  0  0  0  0  0  0  0  0  0
    0.8862   13.9494   14.5796 H   0  0  0  0  0  0  0  0  0  0  0  0
    0.9402   12.3404   15.9699 C   0  0  0  0  0  0  0  0  0  0  0  0
    0.6497   11.5737   15.2697 H   0  0  0  0  0  0  0  0  0  0  0  0
    1.2036   12.0237   17.2969 C   0  0  0  0  0  0  0  0  0  0  0  0
  1  9  1  0  0  0  0
  1  2  1  0  0  0  0
  1  4  1  0  0  0  0
  3  1  1  0  0  0  0
  5  6  1  0  0  0  0
  7  8  1  0  0  0  0
 10  4  1  0  0  0  0
 10 19  1  0  0  0  0
 11 13  1  0  0  0  0
 11 10  2  0  0  0  0
 12 11  1  0  0  0  0
 13 15  2  0  0  0  0
 14 13  1  0  0  0  0
 15 16  1  0  0  0  0
 15 17  1  0  0  0  0
 17 18  1  0  0  0  0
 19 17  2  0  0  0  0
 19  5  1  0  0  0  0
 20  4  1  6  0  0  0
 20  5  1  0  0  0  0
 20 21  1  0  0  0  0
 21 22  1  0  0  0  0
 23 21  1  0  0  0  0
 24 21  1  0  0  0  0
 24 25  1  0  0  0  0
 26 24  1  0  0  0  0
 27  9  1  1  0  0  0
 27  7  1  0  0  0  0
 27 24  1  0  0  0  0
 28  7  1  0  0  0  0
 29 28  1  0  0  0  0
 29 30  1  0  0  0  0
 31 29  2  0  0  0  0
 32 31  1  0  0  0  0
 33 35  2  0  0  0  0
 33 31  1  0  0  0  0
 34 33  1  0  0  0  0
 35 37  1  0  0  0  0
 36 35  1  0  0  0  0
 37  9  1  0  0  0  0
 37 28  2  0  0  0  0
M  END
$$$$
