CSD_code = DUPYET | q = 0 | S = 0 | Stoichiometry = C19H23AuClN5 | MND = 4
 OpenBabel04212202033D

 49 53  0  0  0  0  0  0  0  0999 V2000
    1.2872   11.8207    5.5247 Au  0  0  2  0  0  0  0  0  0  0  0  0
    1.4900   11.3638    7.6852 Cl  0  0  0  0  0  0  0  0  0  0  0  0
    1.1066   12.2263    3.6029 N   0  0  0  0  0  0  0  0  0  0  0  0
    0.1887   13.1369    3.2445 C   0  0  0  0  0  0  0  0  0  0  0  0
    0.0463   13.4373    1.8904 C   0  0  0  0  0  0  0  0  0  0  0  0
   -0.6830   14.1637    1.5739 H   0  0  0  0  0  0  0  0  0  0  0  0
    0.8607   12.7807    0.9788 C   0  0  0  0  0  0  0  0  0  0  0  0
    0.7622   13.0031   -0.0732 H   0  0  0  0  0  0  0  0  0  0  0  0
    1.7985   11.8440    1.3895 C   0  0  0  0  0  0  0  0  0  0  0  0
    2.4315   11.3329    0.6840 H   0  0  0  0  0  0  0  0  0  0  0  0
    1.9105   11.5703    2.7522 C   0  0  0  0  0  0  0  0  0  0  0  0
   -0.5148   13.6601    4.3742 C   0  0  0  0  0  0  0  0  0  0  0  0
   -0.1492   13.1684    5.6070 N   0  0  0  0  0  0  0  0  0  0  0  0
   -0.8661   13.7171    6.5541 N   0  0  0  0  0  2  0  0  0  0  0  0
   -1.7140   14.5730    5.9852 C   0  0  0  0  0  0  0  0  0  0  0  0
   -1.5338   14.5798    4.5955 C   0  0  0  0  0  0  0  0  0  0  0  0
   -2.0636   15.1567    3.8654 H   0  0  0  0  0  0  0  0  0  0  0  0
   -2.6581   15.3851    6.7995 C   0  0  0  0  0  0  0  0  0  0  0  0
   -2.7086   14.9519    7.7985 H   0  0  0  0  0  0  0  0  0  0  0  0
   -3.6528   15.3481    6.3481 H   0  0  0  0  0  0  0  0  0  0  0  0
   -2.1962   16.8434    6.8927 C   0  0  0  0  0  0  0  0  0  0  0  0
   -2.1116   17.2616    5.8864 H   0  0  0  0  0  0  0  0  0  0  0  0
   -1.2053   16.8721    7.3500 H   0  0  0  0  0  0  0  0  0  0  0  0
   -3.1629   17.6910    7.7149 C   0  0  0  0  0  0  0  0  0  0  0  0
   -3.2418   17.2721    8.7201 H   0  0  0  0  0  0  0  0  0  0  0  0
   -4.1556   17.6505    7.2599 H   0  0  0  0  0  0  0  0  0  0  0  0
   -2.7059   19.1419    7.8048 C   0  0  0  0  0  0  0  0  0  0  0  0
   -1.7304   19.2047    8.2818 H   0  0  0  0  0  0  0  0  0  0  0  0
   -3.4113   19.7303    8.3869 H   0  0  0  0  0  0  0  0  0  0  0  0
   -2.6297   19.5811    6.8121 H   0  0  0  0  0  0  0  0  0  0  0  0
    2.7801   10.6610    3.4315 C   0  0  0  0  0  0  0  0  0  0  0  0
    2.6613   10.6057    4.8019 N   0  0  0  0  0  0  0  0  0  0  0  0
    3.5043    9.7405    5.3041 N   0  0  0  0  0  0  0  0  0  0  0  0
    4.1955    9.2073    4.2973 C   0  0  0  0  0  0  0  0  0  0  0  0
    3.7749    9.7558    3.0787 C   0  0  0  0  0  0  0  0  0  0  0  0
    4.1394    9.5342    2.0965 H   0  0  0  0  0  0  0  0  0  0  0  0
    5.2137    8.1484    4.5328 C   0  0  0  0  0  0  0  0  0  0  0  0
    6.0714    8.3128    3.8762 H   0  0  0  0  0  0  0  0  0  0  0  0
    5.5441    8.2110    5.5698 H   0  0  0  0  0  0  0  0  0  0  0  0
    4.6239    6.7585    4.2678 C   0  0  0  0  0  0  0  0  0  0  0  0
    4.2742    6.7053    3.2334 H   0  0  0  0  0  0  0  0  0  0  0  0
    3.7604    6.6129    4.9198 H   0  0  0  0  0  0  0  0  0  0  0  0
    5.6443    5.6519    4.5177 C   0  0  0  0  0  0  0  0  0  0  0  0
    6.5113    5.8056    3.8704 H   0  0  0  0  0  0  0  0  0  0  0  0
    5.9888    5.7085    5.5523 H   0  0  0  0  0  0  0  0  0  0  0  0
    5.0539    4.2720    4.2551 C   0  0  0  0  0  0  0  0  0  0  0  0
    4.2028    4.0921    4.9080 H   0  0  0  0  0  0  0  0  0  0  0  0
    5.7953    3.4972    4.4361 H   0  0  0  0  0  0  0  0  0  0  0  0
    4.7167    4.1900    3.2238 H   0  0  0  0  0  0  0  0  0  0  0  0
  1 13  1  0  0  0  0
  1  2  1  1  0  0  0
  3  1  1  0  0  0  0
  4  3  1  0  0  0  0
  4 12  2  0  0  0  0
  5  4  1  0  0  0  0
  6  5  1  0  0  0  0
  7  9  1  0  0  0  0
  7  5  2  0  0  0  0
  8  7  1  0  0  0  0
  9 11  2  0  0  0  0
 10  9  1  0  0  0  0
 11 31  1  0  0  0  0
 11  3  1  0  0  0  0
 12 16  1  0  0  0  0
 12 13  1  0  0  0  0
 13 14  1  0  0  0  0
 15 14  1  0  0  0  0
 15 18  1  0  0  0  0
 16 15  2  0  0  0  0
 17 16  1  0  0  0  0
 18 21  1  0  0  0  0
 18 19  1  0  0  0  0
 20 18  1  0  0  0  0
 21 23  1  0  0  0  0
 21 24  1  0  0  0  0
 22 21  1  0  0  0  0
 24 27  1  0  0  0  0
 24 25  1  0  0  0  0
 26 24  1  0  0  0  0
 27 28  1  0  0  0  0
 27 29  1  0  0  0  0
 30 27  1  0  0  0  0
 31 32  1  0  0  0  0
 32 33  1  0  0  0  0
 32  1  1  0  0  0  0
 34 37  1  0  0  0  0
 34 33  2  0  0  0  0
 35 31  2  0  0  0  0
 35 34  1  0  0  0  0
 36 35  1  0  0  0  0
 37 39  1  0  0  0  0
 38 37  1  0  0  0  0
 40 43  1  0  0  0  0
 40 37  1  0  0  0  0
 40 42  1  0  0  0  0
 41 40  1  0  0  0  0
 43 45  1  0  0  0  0
 44 43  1  0  0  0  0
 46 48  1  0  0  0  0
 46 43  1  0  0  0  0
 46 47  1  0  0  0  0
 49 46  1  0  0  0  0
M  END
$$$$
