CSD_code = DUQTIT | q = 0 | S = 0 | Stoichiometry = C18H14Cl2N2Zn | MND = 4
 OpenBabel04212202033D

 37 40  0  0  1  0  0  0  0  0999 V2000
    5.9747    4.0819    3.8751 Zn  0  0  0  0  0  0  0  0  0  0  0  0
    3.7770    3.8082    4.0486 Cl  0  0  0  0  0  0  0  0  0  0  0  0
    7.7516    2.7850    3.7056 Cl  0  0  0  0  0  0  0  0  0  0  0  0
    6.1267    5.3547    2.1759 N   0  0  0  0  0  0  0  0  0  0  0  0
    6.4026    5.2950    5.5702 N   0  0  0  0  0  0  0  0  0  0  0  0
    5.0534    5.9341    1.6943 C   0  0  0  0  0  0  0  0  0  0  0  0
    4.1465    5.8262    2.2750 H   0  0  0  0  0  0  0  0  0  0  0  0
    5.0397    6.6482    0.4813 C   0  0  0  0  0  0  0  0  0  0  0  0
    3.8732    7.2574   -0.0285 C   0  0  0  0  0  0  0  0  0  0  0  0
    2.9562    7.1758    0.5351 H   0  0  0  0  0  0  0  0  0  0  0  0
    3.9173    7.9292   -1.2177 C   0  0  0  0  0  0  0  0  0  0  0  0
    3.0274    8.3945   -1.6141 H   0  0  0  0  0  0  0  0  0  0  0  0
    5.1192    8.0215   -1.9415 C   0  0  0  0  0  0  0  0  0  0  0  0
    5.1276    8.5568   -2.8794 H   0  0  0  0  0  0  0  0  0  0  0  0
    6.2654    7.4423   -1.4721 C   0  0  0  0  0  0  0  0  0  0  0  0
    7.1894    7.5097   -2.0270 H   0  0  0  0  0  0  0  0  0  0  0  0
    6.2544    6.7406   -0.2496 C   0  0  2  0  0  3  0  0  0  0  0  0
    7.3893    6.1069    0.2991 C   0  0  0  0  0  0  0  0  0  0  0  0
    8.3319    6.1469   -0.2246 H   0  0  0  0  0  0  0  0  0  0  0  0
    7.2835    5.4385    1.4858 C   0  0  0  0  0  0  0  0  0  0  0  0
    8.1226    4.9241    1.9308 H   0  0  0  0  0  0  0  0  0  0  0  0
    5.4224    5.8140    6.2696 C   0  0  0  0  0  0  0  0  0  0  0  0
    4.4250    5.6844    5.8699 H   0  0  0  0  0  0  0  0  0  0  0  0
    5.6178    6.4938    7.4869 C   0  0  0  0  0  0  0  0  0  0  0  0
    4.5507    7.0387    8.2325 C   0  0  0  0  0  0  0  0  0  0  0  0
    3.5453    6.9313    7.8545 H   0  0  0  0  0  0  0  0  0  0  0  0
    4.8001    7.6824    9.4118 C   0  0  0  0  0  0  0  0  0  0  0  0
    3.9876    8.0991    9.9877 H   0  0  0  0  0  0  0  0  0  0  0  0
    6.1156    7.8091    9.8919 C   0  0  0  0  0  0  0  0  0  0  0  0
    6.2863    8.3217   10.8270 H   0  0  0  0  0  0  0  0  0  0  0  0
    7.1694    7.2910    9.1914 C   0  0  0  0  0  0  0  0  0  0  0  0
    8.1805    7.3846    9.5590 H   0  0  0  0  0  0  0  0  0  0  0  0
    6.9470    6.6197    7.9720 C   0  0  1  0  0  3  0  0  0  0  0  0
    7.9765    6.0493    7.1938 C   0  0  0  0  0  0  0  0  0  0  0  0
    9.0006    6.1160    7.5271 H   0  0  0  0  0  0  0  0  0  0  0  0
    7.6673    5.4086    6.0276 C   0  0  0  0  0  0  0  0  0  0  0  0
    8.4225    4.9419    5.4124 H   0  0  0  0  0  0  0  0  0  0  0  0
  1  2  1  0  0  0  0
  1  5  1  0  0  0  0
  3  1  1  0  0  0  0
  4  1  1  0  0  0  0
  5 36  1  0  0  0  0
  5 22  1  0  0  0  0
  6  4  1  0  0  0  0
  6  7  1  0  0  0  0
  8  6  2  0  0  0  0
  9  8  1  0  0  0  0
  9 10  1  0  0  0  0
 11  9  2  0  0  0  0
 12 11  1  0  0  0  0
 13 15  2  0  0  0  0
 13 11  1  0  0  0  0
 14 13  1  0  0  0  0
 16 15  1  0  0  0  0
 17 15  1  6  0  0  0
 17 18  1  0  0  0  0
 17  8  1  0  0  0  0
 18 20  2  0  0  0  0
 19 18  1  0  0  0  0
 20 21  1  0  0  0  0
 20  4  1  0  0  0  0
 22 24  2  0  0  0  0
 23 22  1  0  0  0  0
 24 33  1  0  0  0  0
 24 25  1  0  0  0  0
 25 27  2  0  0  0  0
 26 25  1  0  0  0  0
 27 29  1  0  0  0  0
 27 28  1  0  0  0  0
 29 30  1  0  0  0  0
 31 32  1  0  0  0  0
 31 29  2  0  0  0  0
 33 34  1  1  0  0  0
 33 31  1  0  0  0  0
 34 35  1  0  0  0  0
 36 34  2  0  0  0  0
 37 36  1  0  0  0  0
M  END
$$$$
