CSD_code = DURROY | q = 0 | S = 0 | Stoichiometry = C8H8HgI2N2S2 | MND = 4
 OpenBabel04212202033D

 23 23  0  0  0  0  0  0  0  0999 V2000
    6.6421    5.4948    3.4175 Hg  0  0  0  0  0  0  0  0  0  0  0  0
    8.0539    4.0515    1.7646 I   0  0  0  0  0  0  0  0  0  0  0  0
    5.5274    6.1154    5.6941 I   0  0  0  0  0  0  0  0  0  0  0  0
    8.0297   10.1690    2.2272 S   0  0  0  0  0  0  0  0  0  0  0  0
    3.0936    6.7559    0.0994 S   0  0  0  0  0  0  0  0  0  0  0  0
    7.1867    7.8053    2.6479 N   0  0  0  0  0  0  0  0  0  0  0  0
    4.9489    6.3392    1.7904 N   0  0  0  0  0  0  0  0  0  0  0  0
    8.1404    8.6112    2.9848 C   0  0  0  0  0  0  0  0  0  0  0  0
    6.6057    9.6534    1.4272 C   0  0  0  0  0  0  0  0  0  0  0  0
    6.0794   10.3114    0.7677 H   0  0  0  0  0  0  0  0  0  0  0  0
    6.3021    8.3661    1.7688 C   0  0  0  0  0  0  0  0  0  0  0  0
    5.1716    7.5936    1.2936 C   0  0  0  0  0  0  0  0  0  0  0  0
    4.2560    7.9869    0.3593 C   0  0  0  0  0  0  0  0  0  0  0  0
    4.2056    8.9099   -0.1796 H   0  0  0  0  0  0  0  0  0  0  0  0
    3.9101    5.7698    1.2718 C   0  0  0  0  0  0  0  0  0  0  0  0
    9.2305    8.2766    3.9277 C   0  0  0  0  0  0  0  0  0  0  0  0
    8.8208    8.1075    4.9253 H   0  0  0  0  0  0  0  0  0  0  0  0
    9.9557    9.0841    3.9768 H   0  0  0  0  0  0  0  0  0  0  0  0
    9.7329    7.3614    3.6109 H   0  0  0  0  0  0  0  0  0  0  0  0
    3.4419    4.4072    1.6081 C   0  0  0  0  0  0  0  0  0  0  0  0
    3.3791    4.2877    2.6906 H   0  0  0  0  0  0  0  0  0  0  0  0
    4.1494    3.6675    1.2283 H   0  0  0  0  0  0  0  0  0  0  0  0
    2.4666    4.2176    1.1686 H   0  0  0  0  0  0  0  0  0  0  0  0
  1  3  1  0  0  0  0
  2  1  1  0  0  0  0
  4  8  1  0  0  0  0
  5 13  1  0  0  0  0
  5 15  1  0  0  0  0
  6  8  2  0  0  0  0
  8 16  1  0  0  0  0
  9 11  2  0  0  0  0
  9  4  1  0  0  0  0
 10  9  1  0  0  0  0
 11  6  1  0  0  0  0
 12 11  1  0  0  0  0
 12  7  1  0  0  0  0
 13 12  2  0  0  0  0
 14 13  1  0  0  0  0
 15 20  1  0  0  0  0
 15  7  2  0  0  0  0
 16 18  1  0  0  0  0
 16 17  1  0  0  0  0
 19 16  1  0  0  0  0
 20 21  1  0  0  0  0
 22 20  1  0  0  0  0
 23 20  1  0  0  0  0
M  END
$$$$
