CSD_code = DURXIY | q = 0 | S = 0 | Stoichiometry = C14H13ClHgN4O3 | MND = 4
 OpenBabel04212202033D

 36 37  0  0  0  0  0  0  0  0999 V2000
    1.2540    5.6065    0.5745 Hg  0  0  0  0  0  0  0  0  0  0  0  0
    1.6111    3.2536    0.4157 Cl  0  0  0  0  0  0  0  0  0  0  0  0
    3.9183    6.8900   -0.0242 O   0  0  0  0  0  0  0  0  0  0  0  0
   -6.1414    9.3778    2.5010 O   0  0  0  0  0  0  0  0  0  0  0  0
   -6.4257    7.2473    2.5736 O   0  0  0  0  0  0  0  0  0  0  0  0
    1.5829    7.9827    0.5112 N   0  0  0  0  0  0  0  0  0  0  0  0
    0.4216    8.3629    0.8086 N   0  0  0  0  0  2  0  0  0  0  0  0
   -0.4112    7.4221    1.0122 N   0  0  0  0  0  2  0  0  0  0  0  0
   -5.7405    8.2350    2.3965 N   0  0  0  0  0  0  0  0  0  0  0  0
    2.6240    8.8363    0.2492 C   0  0  0  0  0  0  0  0  0  0  0  0
    3.8774    8.2477   -0.0417 C   0  0  0  0  0  0  0  0  0  0  0  0
    4.9565    9.0756   -0.3177 C   0  0  0  0  0  0  0  0  0  0  0  0
    5.9240    8.6580   -0.5453 H   0  0  0  0  0  0  0  0  0  0  0  0
    4.8048   10.4537   -0.3053 C   0  0  0  0  0  0  0  0  0  0  0  0
    5.6581   11.0775   -0.5221 H   0  0  0  0  0  0  0  0  0  0  0  0
    3.5784   11.0297   -0.0182 C   0  0  0  0  0  0  0  0  0  0  0  0
    3.4709   12.1030   -0.0097 H   0  0  0  0  0  0  0  0  0  0  0  0
    2.4919   10.2252    0.2571 C   0  0  0  0  0  0  0  0  0  0  0  0
    1.5252   10.6479    0.4817 H   0  0  0  0  0  0  0  0  0  0  0  0
   -1.7117    7.6678    1.3502 C   0  0  0  0  0  0  0  0  0  0  0  0
   -2.5517    6.5624    1.5519 C   0  0  0  0  0  0  0  0  0  0  0  0
   -2.1385    5.5697    1.4310 H   0  0  0  0  0  0  0  0  0  0  0  0
   -3.8696    6.7455    1.8948 C   0  0  0  0  0  0  0  0  0  0  0  0
   -4.5326    5.9088    2.0536 H   0  0  0  0  0  0  0  0  0  0  0  0
   -4.3662    8.0399    2.0402 C   0  0  0  0  0  0  0  0  0  0  0  0
   -3.5439    9.1481    1.8435 C   0  0  0  0  0  0  0  0  0  0  0  0
   -3.9611   10.1362    1.9653 H   0  0  0  0  0  0  0  0  0  0  0  0
   -2.2258    8.9666    1.5013 C   0  0  0  0  0  0  0  0  0  0  0  0
   -1.5716    9.8097    1.3455 H   0  0  0  0  0  0  0  0  0  0  0  0
    5.1508    6.2330   -0.2827 C   0  0  0  0  0  0  0  0  0  0  0  0
    5.9009    6.5568    0.4513 H   0  0  0  0  0  0  0  0  0  0  0  0
    5.5011    6.4894   -1.2914 H   0  0  0  0  0  0  0  0  0  0  0  0
    4.9105    4.7387   -0.1698 C   0  0  0  0  0  0  0  0  0  0  0  0
    5.8352    4.1982   -0.3501 H   0  0  0  0  0  0  0  0  0  0  0  0
    4.1680    4.4226   -0.9003 H   0  0  0  0  0  0  0  0  0  0  0  0
    4.5464    4.4934    0.8265 H   0  0  0  0  0  0  0  0  0  0  0  0
  2  1  1  0  0  0  0
  6  1  1  0  0  0  0
  6  7  1  0  0  0  0
  7  8  1  0  0  0  0
  8 20  1  0  0  0  0
  9  4  2  0  0  0  0
  9  5  2  0  0  0  0
 10 18  1  0  0  0  0
 10  6  1  0  0  0  0
 11  3  1  0  0  0  0
 11 10  2  0  0  0  0
 12 14  2  0  0  0  0
 12 11  1  0  0  0  0
 13 12  1  0  0  0  0
 14 16  1  0  0  0  0
 15 14  1  0  0  0  0
 16 17  1  0  0  0  0
 16 18  2  0  0  0  0
 18 19  1  0  0  0  0
 20 28  2  0  0  0  0
 20 21  1  0  0  0  0
 21 23  2  0  0  0  0
 22 21  1  0  0  0  0
 23 25  1  0  0  0  0
 23 24  1  0  0  0  0
 25  9  1  0  0  0  0
 26 27  1  0  0  0  0
 26 25  2  0  0  0  0
 28 26  1  0  0  0  0
 29 28  1  0  0  0  0
 30 33  1  0  0  0  0
 30  3  1  0  0  0  0
 30 31  1  0  0  0  0
 32 30  1  0  0  0  0
 33 36  1  0  0  0  0
 34 33  1  0  0  0  0
 35 33  1  0  0  0  0
M  END
$$$$
