CSD_code = DURYAR | q = 0 | S = 0 | Stoichiometry = C12H12Br2N2Zn | MND = 4
 OpenBabel04212202033D

 29 31  0  0  0  0  0  0  0  0999 V2000
    0.8582    6.1819    1.9715 C   0  0  0  0  0  3  0  0  0  0  0  0
    1.3230    7.1576    1.9263 H   0  0  0  0  0  0  0  0  0  0  0  0
    1.4658    5.0782    1.4062 C   0  0  0  0  0  0  0  0  0  0  0  0
    2.4186    5.1796    0.9116 H   0  0  0  0  0  0  0  0  0  0  0  0
    0.8229    3.8444    1.4668 C   0  0  0  0  0  0  0  0  0  0  0  0
    1.4335    2.6283    0.8569 C   0  0  0  0  0  0  0  0  0  0  0  0
    1.8352    2.8569   -0.1278 H   0  0  0  0  0  0  0  0  0  0  0  0
    0.7077    1.8243    0.7692 H   0  0  0  0  0  0  0  0  0  0  0  0
    2.2592    2.2823    1.4790 H   0  0  0  0  0  0  0  0  0  0  0  0
   -0.3994    3.7921    2.1253 C   0  0  0  0  0  0  0  0  0  0  0  0
   -0.9407    2.8606    2.1730 H   0  0  0  0  0  0  0  0  0  0  0  0
   -0.9367    4.9455    2.6874 C   0  0  0  0  0  0  0  0  0  0  0  0
   -0.3114    6.1220    2.5911 N   0  0  0  0  0  0  0  0  0  0  0  0
   -1.5817    7.7958    3.0424 Zn  0  0  0  0  0  0  0  0  0  0  0  0
   -1.0419    8.5305    5.2091 Br  0  0  0  0  0  0  0  0  0  0  0  0
   -4.0217    6.1819    4.1131 C   0  0  0  0  0  3  0  0  0  0  0  0
   -4.4866    7.1576    4.1582 H   0  0  0  0  0  0  0  0  0  0  0  0
   -4.6294    5.0782    4.6785 C   0  0  0  0  0  0  0  0  0  0  0  0
   -5.5822    5.1796    5.1731 H   0  0  0  0  0  0  0  0  0  0  0  0
   -3.9864    3.8444    4.6180 C   0  0  0  0  0  0  0  0  0  0  0  0
   -4.5969    2.6283    5.2280 C   0  0  0  0  0  0  0  0  0  0  0  0
   -4.9987    2.8570    6.2126 H   0  0  0  0  0  0  0  0  0  0  0  0
   -3.8711    1.8244    5.3157 H   0  0  0  0  0  0  0  0  0  0  0  0
   -5.4226    2.2822    4.6059 H   0  0  0  0  0  0  0  0  0  0  0  0
   -2.7641    3.7921    3.9594 C   0  0  0  0  0  0  0  0  0  0  0  0
   -2.2227    2.8606    3.9118 H   0  0  0  0  0  0  0  0  0  0  0  0
   -2.2268    4.9455    3.3973 C   0  0  0  0  0  0  0  0  0  0  0  0
   -2.8521    6.1220    3.4935 N   0  0  0  0  0  0  0  0  0  0  0  0
   -2.1214    8.5312    0.8760 Br  0  0  0  0  0  0  0  0  0  0  0  0
  1 13  1  0  0  0  0
  2  1  1  0  0  0  0
  3  5  2  0  0  0  0
  3  1  1  0  0  0  0
  4  3  1  0  0  0  0
  5 10  1  0  0  0  0
  6  5  1  0  0  0  0
  6  9  1  0  0  0  0
  7  6  1  0  0  0  0
  8  6  1  0  0  0  0
 10 11  1  0  0  0  0
 10 12  2  0  0  0  0
 12 27  1  0  0  0  0
 13 12  1  0  0  0  0
 13 14  1  0  0  0  0
 14 28  1  0  0  0  0
 14 15  1  0  0  0  0
 16 17  1  0  0  0  0
 16 18  1  0  0  0  0
 18 19  1  0  0  0  0
 20 18  2  0  0  0  0
 20 21  1  0  0  0  0
 21 23  1  0  0  0  0
 21 22  1  0  0  0  0
 24 21  1  0  0  0  0
 25 20  1  0  0  0  0
 26 25  1  0  0  0  0
 27 28  1  0  0  0  0
 27 25  2  0  0  0  0
 28 16  1  0  0  0  0
 29 14  1  0  0  0  0
M  END
$$$$
