CSD_code = DURYIZ | q = 0 | S = 0 | Stoichiometry = C12H12CdCl2N2 | MND = 4
 OpenBabel04212202033D

 29 31  0  0  1  0  0  0  0  0999 V2000
    2.0469    0.5986    4.7944 C   0  0  0  0  0  0  0  0  0  0  0  0
    2.7347    1.4044    5.0707 H   0  0  0  0  0  0  0  0  0  0  0  0
    1.0976    1.0564    4.4975 H   0  0  0  0  0  0  0  0  0  0  0  0
    2.4590    0.0508    3.9506 H   0  0  0  0  0  0  0  0  0  0  0  0
    1.8281   -0.2973    5.9673 C   0  0  1  0  0  3  0  0  0  0  0  0
    2.1409   -1.6566    5.9340 C   0  0  0  0  0  0  0  0  0  0  0  0
    2.5552   -2.0981    5.0413 H   0  0  0  0  0  0  0  0  0  0  0  0
    1.9097   -2.4207    7.0625 C   0  0  0  0  0  0  0  0  0  0  0  0
    2.1412   -3.4755    7.0657 H   0  0  0  0  0  0  0  0  0  0  0  0
    1.3778   -1.8218    8.1933 C   0  0  0  0  0  0  0  0  0  0  0  0
    1.1973   -2.4152    9.0735 H   0  0  0  0  0  0  0  0  0  0  0  0
    1.0888   -0.4581    8.1604 C   0  0  0  0  0  0  0  0  0  0  0  0
    0.5218    0.2673    9.3211 C   0  0  1  0  0  3  0  0  0  0  0  0
    0.2341   -0.3596   10.5330 C   0  0  0  0  0  0  0  0  0  0  0  0
    0.4129   -1.4113   10.6797 H   0  0  0  0  0  0  0  0  0  0  0  0
   -0.2937    0.3947   11.5684 C   0  0  0  0  0  0  0  0  0  0  0  0
   -0.5235   -0.0705   12.5155 H   0  0  0  0  0  0  0  0  0  0  0  0
   -0.5228    1.7447   11.3775 C   0  0  0  0  0  0  0  0  0  0  0  0
   -0.9329    2.3539   12.1675 H   0  0  0  0  0  0  0  0  0  0  0  0
   -0.2131    2.3095   10.1402 C   0  0  0  0  0  0  0  0  0  0  0  0
   -0.4300    3.7573    9.8498 C   0  0  0  0  0  0  0  0  0  0  0  0
   -1.1139    3.8640    9.0015 H   0  0  0  0  0  0  0  0  0  0  0  0
    0.5211    4.2248    9.5750 H   0  0  0  0  0  0  0  0  0  0  0  0
   -0.8462    4.2745   10.7107 H   0  0  0  0  0  0  0  0  0  0  0  0
    1.3183    0.2593    7.0589 N   0  0  0  0  0  0  0  0  0  0  0  0
    0.2928    1.5721    9.1598 N   0  0  0  0  0  0  0  0  0  0  0  0
    0.8128    2.5416    7.0910 Cd  0  0  0  0  0  0  0  0  0  0  0  0
    2.7794    3.8001    7.1722 Cl  0  0  0  0  0  0  0  0  0  0  0  0
   -1.1107    2.9976    5.8441 Cl  0  0  0  0  0  0  0  0  0  0  0  0
  1  2  1  0  0  0  0
  3  1  1  0  0  0  0
  4  1  1  0  0  0  0
  5  1  1  1  0  0  0
  5 25  1  0  0  0  0
  6  5  1  0  0  0  0
  6  8  2  0  0  0  0
  7  6  1  0  0  0  0
  8  9  1  0  0  0  0
  8 10  1  0  0  0  0
 10 11  1  0  0  0  0
 12 10  2  0  0  0  0
 13 12  1  1  0  0  0
 13 14  1  0  0  0  0
 14 15  1  0  0  0  0
 14 16  2  0  0  0  0
 16 17  1  0  0  0  0
 18 16  1  0  0  0  0
 18 19  1  0  0  0  0
 20 18  2  0  0  0  0
 21 20  1  0  0  0  0
 21 24  1  0  0  0  0
 22 21  1  0  0  0  0
 23 21  1  0  0  0  0
 25 27  1  0  0  0  0
 25 12  1  0  0  0  0
 26 13  1  0  0  0  0
 26 20  1  0  0  0  0
 27 28  1  0  0  0  0
 27 26  1  0  0  0  0
 29 27  1  0  0  0  0
M  END
$$$$
