CSD_code = DUSNAG | q = 0 | S = 0 | Stoichiometry = C21H27BrCuN3 | MND = 4
 OpenBabel04212202033D

 53 55  0  0  0  0  0  0  0  0999 V2000
    5.2509    5.7903    6.4557 Br  0  0  0  0  0  0  0  0  0  0  0  0
    4.0610    4.4782    4.9920 Cu  0  0  2  0  0  0  0  0  0  0  0  0
    2.6194    3.4011    5.9430 N   0  0  0  0  0  0  0  0  0  0  0  0
    2.3235    3.7829    7.1795 C   0  0  0  0  0  3  0  0  0  0  0  0
    1.7846    2.9271    8.1325 C   0  0  0  0  0  0  0  0  0  0  0  0
    1.4793    3.4229    9.5090 C   0  0  0  0  0  0  0  0  0  0  0  0
    1.5417    1.6150    7.7491 C   0  0  0  0  0  0  0  0  0  0  0  0
    1.8370    1.2020    6.4523 C   0  0  0  0  0  0  0  0  0  0  0  0
    1.5781   -0.2055    6.0148 C   0  0  0  0  0  0  0  0  0  0  0  0
    2.3770    2.1412    5.5893 C   0  0  0  0  0  0  0  0  0  0  0  0
    2.6349    1.8745    4.5726 H   0  0  0  0  0  0  0  0  0  0  0  0
    2.1128   -0.9040    6.6567 H   0  0  0  0  0  0  0  0  0  0  0  0
    0.5153   -0.4345    6.0868 H   0  0  0  0  0  0  0  0  0  0  0  0
    1.8997   -0.3591    4.9877 H   0  0  0  0  0  0  0  0  0  0  0  0
    1.1253    0.9098    8.4552 H   0  0  0  0  0  0  0  0  0  0  0  0
    0.5637    4.0145    9.4983 H   0  0  0  0  0  0  0  0  0  0  0  0
    1.3453    2.5943   10.2001 H   0  0  0  0  0  0  0  0  0  0  0  0
    2.2838    4.0615    9.8666 H   0  0  0  0  0  0  0  0  0  0  0  0
    2.5416    4.8122    7.4281 H   0  0  0  0  0  0  0  0  0  0  0  0
    5.2590    3.1482    4.0242 N   0  0  0  0  0  0  0  0  0  0  0  0
    3.1292    5.5910    3.5655 N   0  0  0  0  0  0  0  0  0  0  0  0
    6.4705    2.9702    4.5369 C   0  0  0  0  0  3  0  0  0  0  0  0
    5.0678    2.8851    2.7337 C   0  0  0  0  0  0  0  0  0  0  0  0
    3.5377    6.8481    3.4436 C   0  0  0  0  0  3  0  0  0  0  0  0
    1.8992    5.2784    3.1647 C   0  0  0  0  0  0  0  0  0  0  0  0
    7.5578    2.5348    3.7891 C   0  0  0  0  0  0  0  0  0  0  0  0
    6.5843    3.1995    5.5875 H   0  0  0  0  0  0  0  0  0  0  0  0
    6.0753    2.4414    1.8930 C   0  0  0  0  0  0  0  0  0  0  0  0
    4.0656    3.0468    2.3585 H   0  0  0  0  0  0  0  0  0  0  0  0
    2.7388    7.8623    2.9295 C   0  0  0  0  0  0  0  0  0  0  0  0
    4.5411    7.0610    3.7857 H   0  0  0  0  0  0  0  0  0  0  0  0
    1.0172    6.2042    2.6321 C   0  0  0  0  0  0  0  0  0  0  0  0
    1.6083    4.2429    3.2848 H   0  0  0  0  0  0  0  0  0  0  0  0
    8.8960    2.3587    4.4308 C   0  0  0  0  0  0  0  0  0  0  0  0
    7.3429    2.2692    2.4435 C   0  0  0  0  0  0  0  0  0  0  0  0
    5.8190    2.1565    0.4465 C   0  0  0  0  0  0  0  0  0  0  0  0
    3.2623    9.2582    2.8235 C   0  0  0  0  0  0  0  0  0  0  0  0
    1.4570    7.5208    2.5199 C   0  0  0  0  0  0  0  0  0  0  0  0
   -0.3583    5.8118    2.1923 C   0  0  0  0  0  0  0  0  0  0  0  0
    8.9111    1.4402    5.0178 H   0  0  0  0  0  0  0  0  0  0  0  0
    9.6819    2.3009    3.6816 H   0  0  0  0  0  0  0  0  0  0  0  0
    9.1030    3.1873    5.1042 H   0  0  0  0  0  0  0  0  0  0  0  0
    8.1579    1.9306    1.8187 H   0  0  0  0  0  0  0  0  0  0  0  0
    6.4768    2.7584   -0.1788 H   0  0  0  0  0  0  0  0  0  0  0  0
    6.0186    1.1082    0.2265 H   0  0  0  0  0  0  0  0  0  0  0  0
    4.7879    2.3784    0.1829 H   0  0  0  0  0  0  0  0  0  0  0  0
    3.9405    9.3393    1.9740 H   0  0  0  0  0  0  0  0  0  0  0  0
    2.4508    9.9684    2.6847 H   0  0  0  0  0  0  0  0  0  0  0  0
    3.8191    9.5209    3.7200 H   0  0  0  0  0  0  0  0  0  0  0  0
    0.7959    8.2749    2.1153 H   0  0  0  0  0  0  0  0  0  0  0  0
   -1.1058    6.3997    2.7229 H   0  0  0  0  0  0  0  0  0  0  0  0
   -0.4826    6.0000    1.1263 H   0  0  0  0  0  0  0  0  0  0  0  0
   -0.5425    4.7578    2.3846 H   0  0  0  0  0  0  0  0  0  0  0  0
  2  3  1  0  0  0  0
  2  1  1  1  0  0  0
  3  4  1  0  0  0  0
  4 19  1  0  0  0  0
  4  5  1  0  0  0  0
  5  6  1  0  0  0  0
  6 18  1  0  0  0  0
  6 17  1  0  0  0  0
  7  5  2  0  0  0  0
  7 15  1  0  0  0  0
  8  7  1  0  0  0  0
  9 13  1  0  0  0  0
  9  8  1  0  0  0  0
  9 12  1  0  0  0  0
 10  3  1  0  0  0  0
 10  8  2  0  0  0  0
 11 10  1  0  0  0  0
 14  9  1  0  0  0  0
 16  6  1  0  0  0  0
 20 22  1  0  0  0  0
 20  2  1  0  0  0  0
 21  2  1  0  0  0  0
 22 27  1  0  0  0  0
 23 20  1  0  0  0  0
 24 21  1  0  0  0  0
 24 31  1  0  0  0  0
 25 33  1  0  0  0  0
 25 21  1  0  0  0  0
 26 34  1  0  0  0  0
 26 22  1  0  0  0  0
 28 35  1  0  0  0  0
 28 23  2  0  0  0  0
 29 23  1  0  0  0  0
 30 24  1  0  0  0  0
 32 25  2  0  0  0  0
 34 40  1  0  0  0  0
 34 42  1  0  0  0  0
 35 26  2  0  0  0  0
 36 28  1  0  0  0  0
 37 30  1  0  0  0  0
 37 49  1  0  0  0  0
 38 32  1  0  0  0  0
 38 30  2  0  0  0  0
 39 53  1  0  0  0  0
 39 32  1  0  0  0  0
 39 51  1  0  0  0  0
 41 34  1  0  0  0  0
 43 35  1  0  0  0  0
 44 36  1  0  0  0  0
 45 36  1  0  0  0  0
 46 36  1  0  0  0  0
 47 37  1  0  0  0  0
 48 37  1  0  0  0  0
 50 38  1  0  0  0  0
 52 39  1  0  0  0  0
M  END
$$$$
