CSD_code = DUSSOB | q = 0 | S = 0 | Stoichiometry = C22H40FeI2N4 | MND = 4
 OpenBabel04212202033D

 69 70  0  0  1  0  0  0  0  0999 V2000
    6.4922    4.1630    5.7852 Fe  0  0  0  0  0  0  0  0  0  0  0  0
    7.0904    2.8508    3.7418 I   0  0  0  0  0  0  0  0  0  0  0  0
    8.8479    5.5370    6.9083 N   0  0  0  0  0  0  0  0  0  0  0  0
    7.0375    6.5274    7.5593 N   0  0  0  0  0  0  0  0  0  0  0  0
    7.4982    5.5065    6.7929 C   0  0  2  0  0  3  0  0  0  0  0  0
    8.0976    7.2007    8.1384 C   0  0  0  0  0  0  0  0  0  0  0  0
    9.2354    6.5730    7.7326 C   0  0  0  0  0  0  0  0  0  0  0  0
    5.6181    6.7376    7.7893 C   0  0  0  0  0  0  0  0  0  0  0  0
    5.1352    5.9051    7.2608 H   0  0  0  0  0  0  0  0  0  0  0  0
    5.0961    8.0328    7.1681 C   0  0  0  0  0  0  0  0  0  0  0  0
    5.4896    8.9161    7.6631 H   0  0  0  0  0  0  0  0  0  0  0  0
    4.0127    8.0565    7.2559 H   0  0  0  0  0  0  0  0  0  0  0  0
    5.3542    8.0800    6.1140 H   0  0  0  0  0  0  0  0  0  0  0  0
    5.2612    6.6222    9.2693 C   0  0  0  0  0  0  0  0  0  0  0  0
    5.7049    5.7226    9.6888 H   0  0  0  0  0  0  0  0  0  0  0  0
    4.1821    6.5461    9.3735 H   0  0  0  0  0  0  0  0  0  0  0  0
    5.5991    7.4830    9.8375 H   0  0  0  0  0  0  0  0  0  0  0  0
    7.9977    8.3741    9.0507 C   0  0  0  0  0  0  0  0  0  0  0  0
    7.8813    8.0515   10.0862 H   0  0  0  0  0  0  0  0  0  0  0  0
    7.1611    9.0159    8.7941 H   0  0  0  0  0  0  0  0  0  0  0  0
    8.9070    8.9666    8.9815 H   0  0  0  0  0  0  0  0  0  0  0  0
   10.6414    6.9288    8.0660 C   0  0  0  0  0  0  0  0  0  0  0  0
   11.1288    7.4252    7.2261 H   0  0  0  0  0  0  0  0  0  0  0  0
   11.2220    6.0494    8.3306 H   0  0  0  0  0  0  0  0  0  0  0  0
   10.6530    7.6050    8.9164 H   0  0  0  0  0  0  0  0  0  0  0  0
    9.6781    4.5028    6.3137 C   0  0  0  0  0  0  0  0  0  0  0  0
    8.9942    3.9515    5.6512 H   0  0  0  0  0  0  0  0  0  0  0  0
   10.8071    5.0648    5.4553 C   0  0  0  0  0  0  0  0  0  0  0  0
   10.4450    5.8900    4.8456 H   0  0  0  0  0  0  0  0  0  0  0  0
   11.1684    4.2846    4.7904 H   0  0  0  0  0  0  0  0  0  0  0  0
   11.6421    5.4090    6.0580 H   0  0  0  0  0  0  0  0  0  0  0  0
   10.1749    3.5166    7.3687 C   0  0  0  0  0  0  0  0  0  0  0  0
   10.8844    3.9739    8.0534 H   0  0  0  0  0  0  0  0  0  0  0  0
   10.6627    2.6792    6.8772 H   0  0  0  0  0  0  0  0  0  0  0  0
    9.3354    3.1348    7.9457 H   0  0  0  0  0  0  0  0  0  0  0  0
    5.8895    2.8566    7.8307 I   0  0  0  0  0  0  0  0  0  0  0  0
    4.1336    5.5352    4.6634 N   0  0  0  0  0  0  0  0  0  0  0  0
    5.9436    6.5256    4.0110 N   0  0  0  0  0  0  0  0  0  0  0  0
    5.4834    5.5042    4.7772 C   0  0  2  0  0  3  0  0  0  0  0  0
    4.8828    7.2000    3.4342 C   0  0  0  0  0  0  0  0  0  0  0  0
    3.7454    6.5724    3.8411 C   0  0  0  0  0  0  0  0  0  0  0  0
    7.3626    6.7341    3.7775 C   0  0  0  0  0  0  0  0  0  0  0  0
    7.8460    5.9011    4.3047 H   0  0  0  0  0  0  0  0  0  0  0  0
    7.8882    8.0285    4.3972 C   0  0  0  0  0  0  0  0  0  0  0  0
    7.4917    8.9126    3.9060 H   0  0  0  0  0  0  0  0  0  0  0  0
    8.9711    8.0524    4.3029 H   0  0  0  0  0  0  0  0  0  0  0  0
    7.6365    8.0742    5.4530 H   0  0  0  0  0  0  0  0  0  0  0  0
    7.7150    6.6179    2.2964 C   0  0  0  0  0  0  0  0  0  0  0  0
    7.2696    5.7183    1.8788 H   0  0  0  0  0  0  0  0  0  0  0  0
    8.7938    6.5413    2.1889 H   0  0  0  0  0  0  0  0  0  0  0  0
    7.3756    7.4785    1.7288 H   0  0  0  0  0  0  0  0  0  0  0  0
    4.9815    8.3744    2.5229 C   0  0  0  0  0  0  0  0  0  0  0  0
    5.0894    8.0528    1.4862 H   0  0  0  0  0  0  0  0  0  0  0  0
    5.8224    9.0124    2.7746 H   0  0  0  0  0  0  0  0  0  0  0  0
    4.0751    8.9707    2.5992 H   0  0  0  0  0  0  0  0  0  0  0  0
    2.3390    6.9301    3.5111 C   0  0  0  0  0  0  0  0  0  0  0  0
    1.8533    7.4233    4.3538 H   0  0  0  0  0  0  0  0  0  0  0  0
    1.7575    6.0521    3.2438 H   0  0  0  0  0  0  0  0  0  0  0  0
    2.3265    7.6098    2.6635 H   0  0  0  0  0  0  0  0  0  0  0  0
    3.3040    4.4992    5.2558 C   0  0  0  0  0  0  0  0  0  0  0  0
    3.9889    3.9449    5.9147 H   0  0  0  0  0  0  0  0  0  0  0  0
    2.1771    5.0585    6.1188 C   0  0  0  0  0  0  0  0  0  0  0  0
    2.5414    5.8797    6.7324 H   0  0  0  0  0  0  0  0  0  0  0  0
    1.8155    4.2752    6.7799 H   0  0  0  0  0  0  0  0  0  0  0  0
    1.3419    5.4072    5.5191 H   0  0  0  0  0  0  0  0  0  0  0  0
    2.8046    3.5173    4.1981 C   0  0  0  0  0  0  0  0  0  0  0  0
    2.0928    3.9771    3.5175 H   0  0  0  0  0  0  0  0  0  0  0  0
    2.3185    2.6777    4.6875 H   0  0  0  0  0  0  0  0  0  0  0  0
    3.6425    3.1383    3.6170 H   0  0  0  0  0  0  0  0  0  0  0  0
  1 36  1  0  0  0  0
  2  1  1  0  0  0  0
  3  7  1  0  0  0  0
  4  8  1  0  0  0  0
  4  6  1  0  0  0  0
  5  1  1  1  0  0  0
  5  3  1  0  0  0  0
  5  4  1  0  0  0  0
  6 18  1  0  0  0  0
  7 22  1  0  0  0  0
  7  6  2  0  0  0  0
  8 14  1  0  0  0  0
  9  8  1  0  0  0  0
 10 12  1  0  0  0  0
 10 11  1  0  0  0  0
 10  8  1  0  0  0  0
 13 10  1  0  0  0  0
 14 16  1  0  0  0  0
 14 15  1  0  0  0  0
 14 17  1  0  0  0  0
 18 19  1  0  0  0  0
 20 18  1  0  0  0  0
 21 18  1  0  0  0  0
 22 24  1  0  0  0  0
 22 25  1  0  0  0  0
 23 22  1  0  0  0  0
 26  3  1  0  0  0  0
 26 32  1  0  0  0  0
 27 26  1  0  0  0  0
 28 31  1  0  0  0  0
 28 26  1  0  0  0  0
 29 28  1  0  0  0  0
 30 28  1  0  0  0  0
 32 35  1  0  0  0  0
 32 33  1  0  0  0  0
 34 32  1  0  0  0  0
 37 39  1  0  0  0  0
 37 60  1  0  0  0  0
 38 39  1  0  0  0  0
 39  1  1  6  0  0  0
 40 41  2  0  0  0  0
 40 38  1  0  0  0  0
 41 37  1  0  0  0  0
 42 38  1  0  0  0  0
 42 43  1  0  0  0  0
 42 44  1  0  0  0  0
 44 47  1  0  0  0  0
 45 44  1  0  0  0  0
 46 44  1  0  0  0  0
 48 42  1  0  0  0  0
 49 48  1  0  0  0  0
 50 48  1  0  0  0  0
 51 48  1  0  0  0  0
 52 55  1  0  0  0  0
 52 54  1  0  0  0  0
 52 40  1  0  0  0  0
 53 52  1  0  0  0  0
 56 41  1  0  0  0  0
 56 57  1  0  0  0  0
 58 56  1  0  0  0  0
 59 56  1  0  0  0  0
 60 61  1  0  0  0  0
 60 62  1  0  0  0  0
 62 63  1  0  0  0  0
 62 64  1  0  0  0  0
 65 62  1  0  0  0  0
 66 68  1  0  0  0  0
 66 60  1  0  0  0  0
 67 66  1  0  0  0  0
 69 66  1  0  0  0  0
M  END
$$$$
