CSD_code = DUSTOC | q = 0 | S = 0 | Stoichiometry = C22H24Cl2N4OZn | MND = 5
 OpenBabel04212202033D

 54 59  0  0  1  0  0  0  0  0999 V2000
    7.7005    3.4558   13.2331 Zn  0  0  0  0  0  0  0  0  0  0  0  0
    5.8151    4.4783   13.7996 Cl  0  0  0  0  0  0  0  0  0  0  0  0
    9.4680    3.1747   14.6120 Cl  0  0  0  0  0  0  0  0  0  0  0  0
    9.7873    0.2067   11.3241 O   0  0  0  0  0  0  0  0  0  0  0  0
    6.9135    1.4493   13.0927 N   0  0  0  0  0  0  0  0  0  0  0  0
    8.8467    2.4056   11.4974 N   0  0  1  0  0  4  0  0  0  0  0  0
   10.5900    2.8636   10.0324 N   0  0  0  0  0  0  0  0  0  0  0  0
    8.5449    5.0235   12.0224 N   0  0  0  0  0  0  0  0  0  0  0  0
    7.4518   -0.7894   12.5060 C   0  0  0  0  0  0  0  0  0  0  0  0
    8.1661   -1.4732   12.0768 H   0  0  0  0  0  0  0  0  0  0  0  0
    5.3470   -0.2839   13.5124 C   0  0  0  0  0  0  0  0  0  0  0  0
    4.3819   -0.5764   13.8932 H   0  0  0  0  0  0  0  0  0  0  0  0
   10.0265    3.2347   11.3155 C   0  0  1  0  0  0  0  0  0  0  0  0
   10.7182    3.0726   12.1498 H   0  0  0  0  0  0  0  0  0  0  0  0
    7.7595    0.5609   12.5809 C   0  0  2  0  0  3  0  0  0  0  0  0
   11.9316    2.6364    9.8186 C   0  0  0  0  0  0  0  0  0  0  0  0
    9.0942    1.1174   12.1386 C   0  0  1  0  0  0  0  0  0  0  0  0
    9.6598    1.3326   13.0588 H   0  0  0  0  0  0  0  0  0  0  0  0
    8.8754    7.3114   11.4794 C   0  0  0  0  0  0  0  0  0  0  0  0
    8.5423    8.3329   11.5663 H   0  0  0  0  0  0  0  0  0  0  0  0
    5.7363    1.0446   13.5472 C   0  0  0  0  0  0  0  0  0  0  0  0
    5.0967    1.8213   13.9425 H   0  0  0  0  0  0  0  0  0  0  0  0
   12.9014    3.0744   10.7282 C   0  0  0  0  0  0  0  0  0  0  0  0
   12.6143    3.5972   11.6280 H   0  0  0  0  0  0  0  0  0  0  0  0
   11.0891   -0.1490   11.7708 C   0  0  0  0  0  0  0  0  0  0  0  0
   11.0113   -0.6957   12.7214 H   0  0  0  0  0  0  0  0  0  0  0  0
   11.6963    0.7495   11.9397 H   0  0  0  0  0  0  0  0  0  0  0  0
    8.3175    2.2860   10.1401 C   0  0  0  0  0  0  0  0  0  0  0  0
    7.7147    3.1712    9.9250 H   0  0  0  0  0  0  0  0  0  0  0  0
    7.6972    1.3965   10.0484 H   0  0  0  0  0  0  0  0  0  0  0  0
    6.2228   -1.2175   12.9805 C   0  0  0  0  0  0  0  0  0  0  0  0
    5.9552   -2.2627   12.9358 H   0  0  0  0  0  0  0  0  0  0  0  0
   10.0130    6.9844   10.7573 C   0  0  0  0  0  0  0  0  0  0  0  0
   10.5933    7.7498   10.2641 H   0  0  0  0  0  0  0  0  0  0  0  0
   14.2436    2.8542   10.4886 C   0  0  0  0  0  0  0  0  0  0  0  0
   14.9688    3.1963   11.2122 H   0  0  0  0  0  0  0  0  0  0  0  0
    9.5563    2.2337    9.2335 C   0  0  0  0  0  0  0  0  0  0  0  0
    9.8174    1.1944    9.0089 H   0  0  0  0  0  0  0  0  0  0  0  0
    9.3965    2.7788    8.2973 H   0  0  0  0  0  0  0  0  0  0  0  0
   12.3692    2.0117    8.6450 C   0  0  0  0  0  0  0  0  0  0  0  0
   11.6558    1.6976    7.8996 H   0  0  0  0  0  0  0  0  0  0  0  0
    9.6318    4.7003   11.3325 C   0  0  2  0  0  3  0  0  0  0  0  0
    8.1688    6.2937   12.0957 C   0  0  0  0  0  0  0  0  0  0  0  0
    7.2700    6.4825   12.6662 H   0  0  0  0  0  0  0  0  0  0  0  0
   14.6634    2.2106    9.3371 C   0  0  0  0  0  0  0  0  0  0  0  0
   15.7133    2.0420    9.1553 H   0  0  0  0  0  0  0  0  0  0  0  0
   10.3965    5.6563   10.6769 C   0  0  0  0  0  0  0  0  0  0  0  0
   11.2710    5.3575   10.1212 H   0  0  0  0  0  0  0  0  0  0  0  0
   11.7380   -1.0180   10.7071 C   0  0  0  0  0  0  0  0  0  0  0  0
   12.7054   -1.3631   11.0595 H   0  0  0  0  0  0  0  0  0  0  0  0
   11.8823   -0.4464    9.7939 H   0  0  0  0  0  0  0  0  0  0  0  0
   11.1085   -1.8768   10.4903 H   0  0  0  0  0  0  0  0  0  0  0  0
   13.7152    1.8016    8.4159 C   0  0  0  0  0  0  0  0  0  0  0  0
   14.0237    1.3123    7.5033 H   0  0  0  0  0  0  0  0  0  0  0  0
  1  2  1  0  0  0  0
  1  3  1  0  0  0  0
  4 25  1  0  0  0  0
  4 17  1  0  0  0  0
  5  1  1  0  0  0  0
  5 21  1  0  0  0  0
  6 28  1  6  0  0  0
  6 17  1  0  0  0  0
  6  1  1  0  0  0  0
  7 13  1  0  0  0  0
  8 43  1  0  0  0  0
  8  1  1  0  0  0  0
  9 31  2  0  0  0  0
 10  9  1  0  0  0  0
 11 21  2  0  0  0  0
 11 12  1  0  0  0  0
 13 42  1  0  0  0  0
 13  6  1  0  0  0  0
 13 14  1  1  0  0  0
 15  9  1  1  0  0  0
 15  5  1  0  0  0  0
 16  7  1  0  0  0  0
 16 23  1  0  0  0  0
 17 15  1  0  0  0  0
 17 18  1  1  0  0  0
 19 20  1  0  0  0  0
 19 43  2  0  0  0  0
 21 22  1  0  0  0  0
 23 24  1  0  0  0  0
 25 27  1  0  0  0  0
 25 26  1  0  0  0  0
 29 28  1  0  0  0  0
 30 28  1  0  0  0  0
 31 11  1  0  0  0  0
 32 31  1  0  0  0  0
 33 19  1  0  0  0  0
 34 33  1  0  0  0  0
 35 23  2  0  0  0  0
 35 36  1  0  0  0  0
 37  7  1  0  0  0  0
 37 28  1  0  0  0  0
 38 37  1  0  0  0  0
 39 37  1  0  0  0  0
 40 16  2  0  0  0  0
 41 40  1  0  0  0  0
 42 47  1  1  0  0  0
 42  8  1  0  0  0  0
 43 44  1  0  0  0  0
 45 35  1  0  0  0  0
 46 45  1  0  0  0  0
 47 33  2  0  0  0  0
 48 47  1  0  0  0  0
 49 50  1  0  0  0  0
 49 25  1  0  0  0  0
 51 49  1  0  0  0  0
 52 49  1  0  0  0  0
 53 40  1  0  0  0  0
 53 45  2  0  0  0  0
 54 53  1  0  0  0  0
M  END
$$$$
