CSD_code = DUSTAO | q = 0 | S = 0 | Stoichiometry = C21H22Cl2N4OZn | MND = 5
 OpenBabel04212202033D

 51 55  0  0  1  0  0  0  0  0999 V2000
    8.8762    7.2676    2.6251 Zn  0  0  0  0  0  0  0  0  0  0  0  0
    9.3971    6.5692    0.5686 Cl  0  0  0  0  0  0  0  0  0  0  0  0
    8.7135    9.4891    2.8394 Cl  0  0  0  0  0  0  0  0  0  0  0  0
    9.5958    7.6821    6.9208 O   0  0  0  0  0  0  0  0  0  0  0  0
    7.4269    5.6567    2.9920 N   0  0  0  0  0  0  0  0  0  0  0  0
    8.3365    7.2485    4.9434 N   0  0  2  0  0  0  0  0  0  0  0  0
   10.6564    6.6539    3.6288 N   0  0  0  0  0  0  0  0  0  0  0  0
    7.1379    6.0526    6.5394 N   0  0  0  0  0  0  0  0  0  0  0  0
    6.7939    5.0843    1.9763 C   0  0  0  0  0  3  0  0  0  0  0  0
    7.0613    5.4480    0.9945 H   0  0  0  0  0  0  0  0  0  0  0  0
    5.8668    4.0721    2.1545 C   0  0  0  0  0  0  0  0  0  0  0  0
    5.3736    3.6335    1.3023 H   0  0  0  0  0  0  0  0  0  0  0  0
    5.5922    3.6455    3.4443 C   0  0  0  0  0  0  0  0  0  0  0  0
    4.8711    2.8629    3.6272 H   0  0  0  0  0  0  0  0  0  0  0  0
    6.2624    4.2388    4.5011 C   0  0  0  0  0  0  0  0  0  0  0  0
    6.0794    3.9380    5.5202 H   0  0  0  0  0  0  0  0  0  0  0  0
    7.1825    5.2436    4.2306 C   0  0  0  0  0  0  0  0  0  0  0  0
    7.9624    5.9094    5.3525 C   0  0  1  0  0  0  0  0  0  0  0  0
    8.8640    5.3180    5.5562 H   0  0  0  0  0  0  0  0  0  0  0  0
    9.5827    7.7292    5.5077 C   0  0  2  0  0  0  0  0  0  0  0  0
    9.6930    8.7654    5.1510 H   0  0  0  0  0  0  0  0  0  0  0  0
   10.7325    6.9322    4.9265 C   0  0  2  0  0  3  0  0  0  0  0  0
   11.8224    6.5472    5.6950 C   0  0  0  0  0  0  0  0  0  0  0  0
   11.8373    6.7686    6.7499 H   0  0  0  0  0  0  0  0  0  0  0  0
   12.8633    5.8683    5.0830 C   0  0  0  0  0  0  0  0  0  0  0  0
   13.7235    5.5587    5.6577 H   0  0  0  0  0  0  0  0  0  0  0  0
   12.7806    5.5965    3.7265 C   0  0  0  0  0  0  0  0  0  0  0  0
   13.5713    5.0762    3.2105 H   0  0  0  0  0  0  0  0  0  0  0  0
   11.6503    6.0045    3.0387 C   0  0  0  0  0  0  0  0  0  0  0  0
   11.5167    5.8134    1.9828 H   0  0  0  0  0  0  0  0  0  0  0  0
    7.1610    8.0378    5.3052 C   0  0  0  0  0  0  0  0  0  0  0  0
    6.4169    7.9132    4.5156 H   0  0  0  0  0  0  0  0  0  0  0  0
    7.4084    9.0935    5.3759 H   0  0  0  0  0  0  0  0  0  0  0  0
    6.6631    7.4221    6.6170 C   0  0  0  0  0  0  0  0  0  0  0  0
    7.0962    7.9345    7.4830 H   0  0  0  0  0  0  0  0  0  0  0  0
    5.5717    7.4536    6.6903 H   0  0  0  0  0  0  0  0  0  0  0  0
    7.2729    5.2583    7.6568 C   0  0  0  0  0  0  0  0  0  0  0  0
    7.9288    4.0234    7.6024 C   0  0  0  0  0  0  0  0  0  0  0  0
    8.3692    3.6751    6.6796 H   0  0  0  0  0  0  0  0  0  0  0  0
    8.0176    3.2197    8.7224 C   0  0  0  0  0  0  0  0  0  0  0  0
    8.5354    2.2739    8.6511 H   0  0  0  0  0  0  0  0  0  0  0  0
    7.4477    3.6086    9.9218 C   0  0  0  0  0  0  0  0  0  0  0  0
    7.5179    2.9758   10.7929 H   0  0  0  0  0  0  0  0  0  0  0  0
    6.7756    4.8172    9.9814 C   0  0  0  0  0  0  0  0  0  0  0  0
    6.3132    5.1329   10.9054 H   0  0  0  0  0  0  0  0  0  0  0  0
    6.6832    5.6311    8.8698 C   0  0  0  0  0  0  0  0  0  0  0  0
    6.1407    6.5596    8.9456 H   0  0  0  0  0  0  0  0  0  0  0  0
    9.9163    8.8971    7.5597 C   0  0  0  0  0  0  0  0  0  0  0  0
    9.8545    8.6991    8.6286 H   0  0  0  0  0  0  0  0  0  0  0  0
    9.2119    9.6919    7.2935 H   0  0  0  0  0  0  0  0  0  0  0  0
   10.9301    9.2266    7.3085 H   0  0  0  0  0  0  0  0  0  0  0  0
  1  3  1  0  0  0  0
  1  5  1  0  0  0  0
  1  7  1  0  0  0  0
  2  1  1  0  0  0  0
  4 48  1  0  0  0  0
  5 17  1  0  0  0  0
  6 31  1  1  0  0  0
  6 18  1  0  0  0  0
  6 20  1  0  0  0  0
  7 22  1  0  0  0  0
  8 34  1  0  0  0  0
  8 37  1  0  0  0  0
  9 11  1  0  0  0  0
  9  5  1  0  0  0  0
 10  9  1  0  0  0  0
 11 13  2  0  0  0  0
 12 11  1  0  0  0  0
 13 14  1  0  0  0  0
 13 15  1  0  0  0  0
 15 16  1  0  0  0  0
 17 15  2  0  0  0  0
 17 18  1  0  0  0  0
 18 19  1  1  0  0  0
 18  8  1  0  0  0  0
 20 21  1  6  0  0  0
 20  4  1  0  0  0  0
 22 20  1  0  0  0  0
 22 23  1  6  0  0  0
 23 24  1  0  0  0  0
 25 26  1  0  0  0  0
 25 23  2  0  0  0  0
 27 25  1  0  0  0  0
 28 27  1  0  0  0  0
 29  7  1  0  0  0  0
 29 27  2  0  0  0  0
 30 29  1  0  0  0  0
 31 33  1  0  0  0  0
 31 34  1  0  0  0  0
 32 31  1  0  0  0  0
 34 36  1  0  0  0  0
 34 35  1  0  0  0  0
 37 46  1  0  0  0  0
 38 37  2  0  0  0  0
 38 40  1  0  0  0  0
 39 38  1  0  0  0  0
 40 42  2  0  0  0  0
 41 40  1  0  0  0  0
 42 44  1  0  0  0  0
 42 43  1  0  0  0  0
 44 45  1  0  0  0  0
 46 47  1  0  0  0  0
 46 44  2  0  0  0  0
 48 49  1  0  0  0  0
 50 48  1  0  0  0  0
 51 48  1  0  0  0  0
M  END
$$$$
