CSD_code = DUTGII | q = 0 | S = 0 | Stoichiometry = C9H19Cl2NPt | MND = 5
 OpenBabel04212202033D

 32 31  0  0  1  0  0  0  0  0999 V2000
   -0.2783    1.3318    5.3521 Pt  0  0  0  0  0  0  0  0  0  0  0  0
   -2.1864    0.3037    4.7095 Cl  0  0  0  0  0 15  0  0  0  0  0  0
   -0.8614    2.6628    8.1955 Cl  0  0  0  0  0  0  0  0  0  0  0  0
    1.6903    2.2173    5.8888 N   0  0  0  0  0  4  0  0  0  0  0  0
    2.6049    1.9082    4.7663 C   0  0  0  0  0  0  0  0  0  0  0  0
    2.1822    0.6916    3.9185 C   0  0  0  0  0  0  0  0  0  0  0  0
    0.7445    0.8350    3.4687 C   0  0  2  0  0  0  0  0  0  0  0  0
    0.0901    2.0068    3.2376 C   0  0  0  0  0  3  0  0  0  0  0  0
    3.0962    0.6116    2.6890 C   0  0  0  0  0  0  0  0  0  0  0  0
    2.2822   -0.6135    4.7205 C   0  0  0  0  0  0  0  0  0  0  0  0
    2.2471    1.7076    7.1452 C   0  0  0  0  0  0  0  0  0  0  0  0
    1.5414    3.6691    6.0288 C   0  0  0  0  0  0  0  0  0  0  0  0
   -0.9782    1.1487    7.2576 C   0  0  0  0  0  0  0  0  0  0  0  0
   -0.8590    1.9940    2.7165 H   0  0  0  0  0  0  0  0  0  0  0  0
    2.6542    2.7749    4.1030 H   0  0  0  0  0  0  0  0  0  0  0  0
    3.6184    1.7415    5.1498 H   0  0  0  0  0  0  0  0  0  0  0  0
    0.5872    2.9684    3.2697 H   0  0  0  0  0  0  0  0  0  0  0  0
    0.2888   -0.0905    3.1217 H   0  0  0  0  0  0  0  0  0  0  0  0
    2.8005   -0.2208    2.0557 H   0  0  0  0  0  0  0  0  0  0  0  0
    3.0341    1.5245    2.1007 H   0  0  0  0  0  0  0  0  0  0  0  0
    4.1303    0.4624    2.9927 H   0  0  0  0  0  0  0  0  0  0  0  0
    2.1582   -1.4658    4.0565 H   0  0  0  0  0  0  0  0  0  0  0  0
    3.2489   -0.7016    5.2117 H   0  0  0  0  0  0  0  0  0  0  0  0
    1.4842   -0.6594    5.4697 H   0  0  0  0  0  0  0  0  0  0  0  0
    3.2303    2.1549    7.3376 H   0  0  0  0  0  0  0  0  0  0  0  0
    1.5875    1.9683    7.9697 H   0  0  0  0  0  0  0  0  0  0  0  0
    2.3555    0.6272    7.1079 H   0  0  0  0  0  0  0  0  0  0  0  0
    2.5137    4.1472    6.1985 H   0  0  0  0  0  0  0  0  0  0  0  0
    1.0876    4.0996    5.1373 H   0  0  0  0  0  0  0  0  0  0  0  0
    0.8944    3.8846    6.8777 H   0  0  0  0  0  0  0  0  0  0  0  0
   -0.4122    0.3991    7.8287 H   0  0  0  0  0  0  0  0  0  0  0  0
   -2.0391    0.8803    7.3041 H   0  0  0  0  0  0  0  0  0  0  0  0
  1  4  1  0  0  0  0
  1 13  1  0  0  0  0
  4 12  1  0  0  0  0
  4 11  1  0  0  0  0
  5 16  1  0  0  0  0
  5  4  1  0  0  0  0
  6 10  1  0  0  0  0
  6  5  1  0  0  0  0
  7 18  1  6  0  0  0
  7  6  1  0  0  0  0
  7  1  1  0  0  0  0
  8 17  1  0  0  0  0
  8  7  1  0  0  0  0
  9 21  1  0  0  0  0
  9  6  1  0  0  0  0
 10 23  1  0  0  0  0
 10 24  1  0  0  0  0
 11 25  1  0  0  0  0
 11 26  1  0  0  0  0
 12 28  1  0  0  0  0
 12 30  1  0  0  0  0
 13 32  1  0  0  0  0
 13 31  1  0  0  0  0
 13  3  1  0  0  0  0
 14  8  1  0  0  0  0
 15  5  1  0  0  0  0
 19  9  1  0  0  0  0
 20  9  1  0  0  0  0
 22 10  1  0  0  0  0
 27 11  1  0  0  0  0
 29 12  1  0  0  0  0
M  END
$$$$
