CSD_code = DUTGOO | q = 0 | S = 0 | Stoichiometry = C9H19Cl2NPt | MND = 5
 OpenBabel04212202033D

 32 30  0  0  1  0  0  0  0  0999 V2000
    0.5577    1.8669    1.1980 Pt  0  0  0  0  0  0  0  0  0  0  0  0
    2.3409    0.9460    2.2016 Cl  0  0  0  0  0 15  0  0  0  0  0  0
    2.2250    3.1627   -0.9637 Cl  0  0  0  0  0  0  0  0  0  0  0  0
   -0.3506    2.3967    3.2205 N   0  0  0  0  0  0  0  0  0  0  0  0
   -1.4209    3.3756    2.9544 C   0  0  0  0  0  0  0  0  0  0  0  0
   -1.2021    4.1780    1.6535 C   0  0  0  0  0  0  0  0  0  0  0  0
   -0.9032    3.2542    0.4893 C   0  0  2  0  0  0  0  0  0  0  0  0
   -1.4015    1.9676    0.3394 C   0  0  0  0  0  3  0  0  0  0  0  0
   -2.4770    4.9762    1.3502 C   0  0  0  0  0  0  0  0  0  0  0  0
   -0.0118    5.1391    1.7762 C   0  0  0  0  0  0  0  0  0  0  0  0
    0.6167    2.9285    4.1823 C   0  0  0  0  0  0  0  0  0  0  0  0
   -0.8874    1.1540    3.7753 C   0  0  0  0  0  0  0  0  0  0  0  0
    1.5087    1.5857   -0.5891 C   0  0  0  0  0  0  0  0  0  0  0  0
   -1.5164    4.0729    3.7961 H   0  0  0  0  0  0  0  0  0  0  0  0
   -2.3730    2.8453    2.8692 H   0  0  0  0  0  0  0  0  0  0  0  0
   -2.3581    5.5388    0.4279 H   0  0  0  0  0  0  0  0  0  0  0  0
   -3.3313    4.3124    1.2366 H   0  0  0  0  0  0  0  0  0  0  0  0
   -2.6851    5.6770    2.1558 H   0  0  0  0  0  0  0  0  0  0  0  0
    0.0082    5.8133    0.9231 H   0  0  0  0  0  0  0  0  0  0  0  0
   -0.0780    5.7366    2.6827 H   0  0  0  0  0  0  0  0  0  0  0  0
    0.9278    4.5808    1.7737 H   0  0  0  0  0  0  0  0  0  0  0  0
   -0.5550    3.7781   -0.3987 H   0  0  0  0  0  0  0  0  0  0  0  0
   -1.4521    1.5329   -0.6526 H   0  0  0  0  0  0  0  0  0  0  0  0
   -2.1249    1.5624    1.0377 H   0  0  0  0  0  0  0  0  0  0  0  0
    1.4332    2.2181    4.3027 H   0  0  0  0  0  0  0  0  0  0  0  0
    1.0334    3.8683    3.8326 H   0  0  0  0  0  0  0  0  0  0  0  0
    0.1412    3.0936    5.1584 H   0  0  0  0  0  0  0  0  0  0  0  0
   -0.0657    0.4568    3.9387 H   0  0  0  0  0  0  0  0  0  0  0  0
   -1.3943    1.3302    4.7333 H   0  0  0  0  0  0  0  0  0  0  0  0
   -1.5936    0.6925    3.0857 H   0  0  0  0  0  0  0  0  0  0  0  0
    0.8495    1.3342   -1.4253 H   0  0  0  0  0  0  0  0  0  0  0  0
    2.3353    0.8727   -0.5454 H   0  0  0  0  0  0  0  0  0  0  0  0
  3 13  1  0  0  0  0
  4 12  1  0  0  0  0
  4 11  1  0  0  0  0
  5  4  1  0  0  0  0
  5 14  1  0  0  0  0
  6 10  1  0  0  0  0
  6  5  1  0  0  0  0
  7 22  1  6  0  0  0
  7  1  1  0  0  0  0
  7  6  1  0  0  0  0
  8  7  1  0  0  0  0
  8 24  1  0  0  0  0
  9  6  1  0  0  0  0
  9 18  1  0  0  0  0
 10 20  1  0  0  0  0
 11 25  1  0  0  0  0
 11 27  1  0  0  0  0
 12 28  1  0  0  0  0
 12 29  1  0  0  0  0
 13 32  1  0  0  0  0
 13  1  1  0  0  0  0
 15  5  1  0  0  0  0
 16  9  1  0  0  0  0
 17  9  1  0  0  0  0
 19 10  1  0  0  0  0
 21 10  1  0  0  0  0
 23  8  1  0  0  0  0
 26 11  1  0  0  0  0
 30 12  1  0  0  0  0
 31 13  1  0  0  0  0
M  END
$$$$
