CSD_code = DUVFAD | q = 0 | S = 0 | Stoichiometry = C19H10BrClN5O3Re | MND = 6
 OpenBabel04212202033D

 40 44  0  0  0  0  0  0  0  0999 V2000
    6.5306    5.6035   20.0283 Re  0  0  0  0  0  0  0  0  0  0  0  0
    8.2072    5.3718   18.0870 Br  0  0  0  0  0  0  0  0  0  0  0  0
   11.4962    8.4289   21.5411 Cl  0  0  0  0  0  0  0  0  0  0  0  0
    5.4436    6.8981   18.6239 N   0  0  0  0  0  0  0  0  0  0  0  0
    5.0951    3.0228   19.1172 O   0  0  0  0  0  1  0  0  0  0  0  0
    7.4354    7.5704   20.2267 N   0  0  0  0  0  0  0  0  0  0  0  0
    4.6301    6.1079   22.4073 O   0  0  0  0  0  1  0  0  0  0  0  0
    5.9924    8.1101   18.4082 C   0  0  0  0  0  0  0  0  0  0  0  0
    4.4477    6.5102   17.8322 C   0  0  0  0  0  0  0  0  0  0  0  0
    4.0260    5.5335   18.0310 H   0  0  0  0  0  0  0  0  0  0  0  0
   10.7785    6.8554   23.4477 N   0  0  0  0  0  0  0  0  0  0  0  0
    8.4366    8.1070   20.9221 N   0  0  0  0  0  0  0  0  0  0  0  0
    9.9274    6.0654   24.1348 C   0  0  0  0  0  0  0  0  0  0  0  0
    5.6204    3.9653   19.5034 C   0  0  0  0  0  2  0  0  0  0  0  0
    7.0690    8.4618   19.3089 C   0  0  0  0  0  0  0  0  0  0  0  0
    8.7206    9.3543   20.4660 C   0  0  0  0  0  0  0  0  0  0  0  0
    9.4827    9.9596   20.9097 H   0  0  0  0  0  0  0  0  0  0  0  0
    8.9738    7.4264   22.0150 C   0  0  0  0  0  0  0  0  0  0  0  0
    5.5550    8.9522   17.3886 C   0  0  0  0  0  0  0  0  0  0  0  0
    6.0317    9.9085   17.2468 H   0  0  0  0  0  0  0  0  0  0  0  0
    8.1351    6.6478   22.6516 N   0  0  0  0  0  0  0  0  0  0  0  0
    7.8640    9.6203   19.4331 C   0  0  0  0  0  0  0  0  0  0  0  0
    7.8161   10.5131   18.8457 H   0  0  0  0  0  0  0  0  0  0  0  0
    3.9597    7.2877   16.7984 C   0  0  0  0  0  0  0  0  0  0  0  0
    3.1559    6.9177   16.1831 H   0  0  0  0  0  0  0  0  0  0  0  0
   10.3366    7.5085   22.4182 C   0  0  0  0  0  0  0  0  0  0  0  0
    8.5728    5.9454   23.7147 C   0  0  0  0  0  0  0  0  0  0  0  0
   10.3764    5.3378   25.2505 C   0  0  0  0  0  0  0  0  0  0  0  0
   11.4065    5.4414   25.5515 H   0  0  0  0  0  0  0  0  0  0  0  0
    4.5270    8.5337   16.5677 C   0  0  0  0  0  0  0  0  0  0  0  0
    4.1761    9.1608   15.7627 H   0  0  0  0  0  0  0  0  0  0  0  0
    8.6125    3.8893   21.5437 O   0  0  0  0  0  1  0  0  0  0  0  0
    7.8000    4.5340   21.0558 C   0  0  0  0  0  2  0  0  0  0  0  0
    8.1669    4.3899   25.4881 C   0  0  0  0  0  0  0  0  0  0  0  0
    7.5071    3.7264   26.0261 H   0  0  0  0  0  0  0  0  0  0  0  0
    7.6994    5.0891   24.4085 C   0  0  0  0  0  0  0  0  0  0  0  0
    6.6830    5.0028   24.0588 H   0  0  0  0  0  0  0  0  0  0  0  0
    9.5021    4.5159   25.9097 C   0  0  0  0  0  0  0  0  0  0  0  0
    9.8383    3.9477   26.7640 H   0  0  0  0  0  0  0  0  0  0  0  0
    5.3270    5.9245   21.5146 C   0  0  0  0  0  2  0  0  0  0  0  0
  1  6  1  0  0  0  0
  1 33  1  0  0  0  0
  1 40  1  0  0  0  0
  2  1  1  0  0  0  0
  3 26  1  0  0  0  0
  4  1  1  0  0  0  0
  5 14  1  0  0  0  0
  6 12  1  0  0  0  0
  8  4  1  0  0  0  0
  8 15  2  0  0  0  0
  9 10  1  0  0  0  0
  9  4  1  0  0  0  0
 11 13  1  0  0  0  0
 12 18  1  0  0  0  0
 13 28  1  0  0  0  0
 14  1  1  0  0  0  0
 15 22  1  0  0  0  0
 15  6  1  0  0  0  0
 16 17  1  0  0  0  0
 16 12  1  0  0  0  0
 18 26  1  0  0  0  0
 18 21  2  0  0  0  0
 19  8  1  0  0  0  0
 20 19  1  0  0  0  0
 21 27  1  0  0  0  0
 22 16  2  0  0  0  0
 23 22  1  0  0  0  0
 24  9  2  0  0  0  0
 25 24  1  0  0  0  0
 26 11  2  0  0  0  0
 27 13  2  0  0  0  0
 27 36  1  0  0  0  0
 28 29  1  0  0  0  0
 28 38  2  0  0  0  0
 30 24  1  0  0  0  0
 30 19  2  0  0  0  0
 31 30  1  0  0  0  0
 33 32  1  0  0  0  0
 34 38  1  0  0  0  0
 34 35  1  0  0  0  0
 36 34  2  0  0  0  0
 37 36  1  0  0  0  0
 38 39  1  0  0  0  0
 40  7  1  0  0  0  0
M  END
$$$$
