CSD_code = DUVHIN | q = 1 | S = 0 | Stoichiometry = C17H20ClN4Zn(1+) | MND = 5
 OpenBabel04212202033D

 43 47  0  0  1  0  0  0  0  0999 V2000
    0.4170    1.7600    3.2514 Zn  0  0  0  0  0  0  0  0  0  0  0  0
   -1.3573    0.9031    4.1164 Cl  0  0  0  0  0  0  0  0  0  0  0  0
   -0.3738    2.4061    1.3681 N   0  0  0  0  0  0  0  0  0  0  0  0
   -1.5723    2.9272    1.1661 C   0  0  0  0  0  3  0  0  0  0  0  0
   -2.1054    3.2528    2.0481 H   0  0  0  0  0  0  0  0  0  0  0  0
   -2.1417    3.0313   -0.0954 C   0  0  0  0  0  0  0  0  0  0  0  0
   -3.1223    3.4619   -0.2155 H   0  0  0  0  0  0  0  0  0  0  0  0
   -1.4253    2.5590   -1.1822 C   0  0  0  0  0  0  0  0  0  0  0  0
   -1.8340    2.6122   -2.1794 H   0  0  0  0  0  0  0  0  0  0  0  0
    1.7106    0.8479    1.8626 N   0  0  1  0  0  0  0  0  0  0  0  0
    0.8404    3.4247    5.5297 C   0  0  2  0  0  3  0  0  0  0  0  0
    0.4403    3.6509    4.2714 N   0  0  0  0  0  0  0  0  0  0  0  0
    1.5856    1.2428    0.6569 C   0  0  2  0  0  3  0  0  0  0  0  0
    0.3231    1.9329    0.3299 C   0  0  0  0  0  0  0  0  0  0  0  0
    2.8095    0.0261    2.2951 C   0  0  0  0  0  0  0  0  0  0  0  0
    3.7160    0.6393    2.3755 H   0  0  0  0  0  0  0  0  0  0  0  0
    3.0007   -0.7586    1.5542 H   0  0  0  0  0  0  0  0  0  0  0  0
    2.4904   -0.6213    3.6419 C   0  0  0  0  0  0  0  0  0  0  0  0
    1.4493   -0.9501    3.6343 H   0  0  0  0  0  0  0  0  0  0  0  0
    3.1249   -1.4985    3.7724 H   0  0  0  0  0  0  0  0  0  0  0  0
    2.7097    0.3068    4.8319 C   0  0  0  0  0  0  0  0  0  0  0  0
    2.5253   -0.2514    5.7575 H   0  0  0  0  0  0  0  0  0  0  0  0
    3.7546    0.6450    4.8503 H   0  0  0  0  0  0  0  0  0  0  0  0
    1.8423    1.4517    4.7640 N   0  0  2  0  0  0  0  0  0  0  0  0
    1.7717    2.2968    5.7165 C   0  0  1  0  0  3  0  0  0  0  0  0
   -0.3464    4.6863    4.0240 C   0  0  0  0  0  0  0  0  0  0  0  0
   -0.6004    4.8524    2.9867 H   0  0  0  0  0  0  0  0  0  0  0  0
   -0.8200    5.5316    5.0162 C   0  0  0  0  0  0  0  0  0  0  0  0
   -1.4569    6.3639    4.7650 H   0  0  0  0  0  0  0  0  0  0  0  0
   -0.4681    5.2657    6.3289 C   0  0  0  0  0  0  0  0  0  0  0  0
   -0.8433    5.8748    7.1365 H   0  0  0  0  0  0  0  0  0  0  0  0
    0.3867    4.2063    6.5890 C   0  0  0  0  0  0  0  0  0  0  0  0
    0.6673    3.9792    7.6042 H   0  0  0  0  0  0  0  0  0  0  0  0
    2.5678    2.2055    6.9753 C   0  0  0  0  0  0  0  0  0  0  0  0
    2.0855    1.5041    7.6576 H   0  0  0  0  0  0  0  0  0  0  0  0
    2.6579    3.1669    7.4692 H   0  0  0  0  0  0  0  0  0  0  0  0
    3.5667    1.8261    6.7688 H   0  0  0  0  0  0  0  0  0  0  0  0
   -0.1758    1.9963   -0.9686 C   0  0  0  0  0  0  0  0  0  0  0  0
    0.3787    1.5875   -1.7971 H   0  0  0  0  0  0  0  0  0  0  0  0
    2.5844    0.9864   -0.4218 C   0  0  0  0  0  0  0  0  0  0  0  0
    3.5944    1.0299   -0.0196 H   0  0  0  0  0  0  0  0  0  0  0  0
    2.4982    1.7121   -1.2243 H   0  0  0  0  0  0  0  0  0  0  0  0
    2.4359   -0.0115   -0.8371 H   0  0  0  0  0  0  0  0  0  0  0  0
  1  2  1  0  0  0  0
  1 12  1  0  0  0  0
  1 24  1  0  0  0  0
  3  1  1  0  0  0  0
  4  3  1  0  0  0  0
  4  5  1  0  0  0  0
  6  4  1  0  0  0  0
  7  6  1  0  0  0  0
  8 38  1  0  0  0  0
  8  6  2  0  0  0  0
  9  8  1  0  0  0  0
 10 15  1  1  0  0  0
 10  1  1  0  0  0  0
 11 25  1  0  0  0  0
 11 32  1  1  0  0  0
 12 11  1  0  0  0  0
 13 40  1  6  0  0  0
 13 10  1  0  0  0  0
 14 13  1  0  0  0  0
 14  3  1  0  0  0  0
 15 16  1  0  0  0  0
 15 18  1  0  0  0  0
 17 15  1  0  0  0  0
 18 20  1  0  0  0  0
 18 21  1  0  0  0  0
 19 18  1  0  0  0  0
 21 23  1  0  0  0  0
 21 22  1  0  0  0  0
 24 21  1  1  0  0  0
 24 25  1  0  0  0  0
 25 34  1  6  0  0  0
 26 12  1  0  0  0  0
 26 28  2  0  0  0  0
 27 26  1  0  0  0  0
 28 30  1  0  0  0  0
 29 28  1  0  0  0  0
 30 32  2  0  0  0  0
 30 31  1  0  0  0  0
 32 33  1  0  0  0  0
 34 36  1  0  0  0  0
 34 35  1  0  0  0  0
 37 34  1  0  0  0  0
 38 14  2  0  0  0  0
 39 38  1  0  0  0  0
 40 41  1  0  0  0  0
 42 40  1  0  0  0  0
 43 40  1  0  0  0  0
M  END
$$$$
