CSD_code = DUWMIR | q = 0 | S = 0 | Stoichiometry = C16Cl2HgO4Se2 | MND = 4
 OpenBabel04212202033D

 25 22  0  0  0  0  0  0  0  0999 V2000
    6.5361    6.1757    2.0212 Hg  0  0  0  0  0  0  0  0  0  0  0  0
    3.4824    6.1872    1.2054 Se  0  0  0  0  0  0  0  0  0  0  0  0
    6.0759    6.1897   -1.1077 Se  0  0  0  0  0  0  0  0  0  0  0  0
    6.5861    3.8460    2.0622 Cl  0  0  0  0  0  0  0  0  0  0  0  0
    4.7833   12.2698   -1.9104 O   0  0  0  0  0  0  0  0  0  0  0  0
    2.3370   11.7205   -0.3927 O   0  0  0  0  0  0  0  0  0  0  0  0
    3.7752    7.6442    0.0146 C   0  0  0  0  0  0  0  0  0  0  0  0
    4.8574    7.6442   -0.9464 C   0  0  0  0  0  0  0  0  0  0  0  0
    5.0512    8.7565   -1.7121 C   0  0  0  0  0  3  0  0  0  0  0  0
    4.2476    9.7680   -1.4986 C   0  0  0  0  0  3  0  0  0  0  0  0
    3.2824    9.7585   -0.6343 C   0  0  0  0  0  3  0  0  0  0  0  0
    2.9762    8.7447    0.1425 C   0  0  0  0  0  3  0  0  0  0  0  0
    5.6928   12.7622   -2.3604 C   0  0  0  0  0  2  0  0  0  0  0  0
    2.6974   12.7474   -0.6974 C   0  0  0  0  0  2  0  0  0  0  0  0
    6.6046    8.5042    2.0803 Cl  0  0  0  0  0  0  0  0  0  0  0  0
    3.7693    4.7370    0.0050 C   0  0  0  0  0  0  0  0  0  0  0  0
    4.8506    4.7397   -0.9572 C   0  0  0  0  0  0  0  0  0  0  0  0
    2.9667    3.6383    0.1259 C   0  0  0  0  0  3  0  0  0  0  0  0
    5.0398    3.6322   -1.7309 C   0  0  0  0  0  3  0  0  0  0  0  0
    3.2685    2.6292   -0.6583 C   0  0  0  0  0  3  0  0  0  0  0  0
    4.2328    2.6221   -1.5234 C   0  0  0  0  0  3  0  0  0  0  0  0
    2.3306    0.6561   -0.4054 O   0  0  0  0  0  0  0  0  0  0  0  0
    4.8042    0.1021   -1.8811 O   0  0  0  0  0  0  0  0  0  0  0  0
    2.7049   -0.3727   -0.6856 C   0  0  0  0  0  2  0  0  0  0  0  0
    5.7272   -0.3842   -2.3098 C   0  0  0  0  0  2  0  0  0  0  0  0
  1  4  1  0  0  0  0
  1 15  1  0  0  0  0
  3 17  1  0  0  0  0
  3  8  1  0  0  0  0
  7 12  1  0  0  0  0
  7  2  1  0  0  0  0
  8  7  2  0  0  0  0
  9 10  2  0  0  0  0
  9  8  1  0  0  0  0
 10 11  1  0  0  0  0
 11 12  2  0  0  0  0
 13  5  2  0  0  0  0
 14  6  2  0  0  0  0
 16 18  1  0  0  0  0
 16  2  1  0  0  0  0
 17 16  2  0  0  0  0
 19 21  2  0  0  0  0
 19 17  1  0  0  0  0
 20 18  2  0  0  0  0
 21 20  1  0  0  0  0
 24 22  2  0  0  0  0
 25 23  2  0  0  0  0
M  END
$$$$
