CSD_code = DUXLEN | q = 1 | S = 0 | Stoichiometry = C28H32Cl2N2P2Rh(1+) | MND = 6
 OpenBabel04212202033D

 67 72  0  0  0  0  0  0  0  0999 V2000
    2.4355    4.4484    0.5213 Rh  0  0  0  0  0  0  0  0  0  0  0  0
    2.1523    2.1547    0.4236 Cl  0  0  0  0  0  0  0  0  0  0  0  0
    3.0019    6.6374    1.0120 Cl  0  0  0  0  0  0  0  0  0  0  0  0
    0.1728    4.6328    0.3776 P   0  0  0  0  0  4  0  0  0  0  0  0
    3.0276    4.8806   -1.6325 P   0  0  0  0  0  4  0  0  0  0  0  0
    2.0327    4.2055    2.6631 N   0  0  0  0  0  4  0  0  0  0  0  0
    4.5771    4.0486    0.7691 N   0  0  0  0  0  4  0  0  0  0  0  0
   -0.3283    4.1161    2.0833 C   0  0  0  0  0  0  0  0  0  0  0  0
    0.7026    4.7029    3.0399 C   0  0  0  0  0  0  0  0  0  0  0  0
    4.8735    4.8968   -1.4920 C   0  0  0  0  0  0  0  0  0  0  0  0
    5.2495    3.7922   -0.5118 C   0  0  0  0  0  0  0  0  0  0  0  0
   -0.6979    6.2134    0.1507 C   0  0  0  0  0  0  0  0  0  0  0  0
   -0.0484    7.3981   -0.1647 C   0  0  0  0  0  0  0  0  0  0  0  0
   -0.7796    8.5615   -0.3393 C   0  0  0  0  0  0  0  0  0  0  0  0
   -2.1563    8.5458   -0.2014 C   0  0  0  0  0  0  0  0  0  0  0  0
   -2.8097    7.3608    0.1050 C   0  0  0  0  0  0  0  0  0  0  0  0
   -2.0874    6.1967    0.2768 C   0  0  0  0  0  0  0  0  0  0  0  0
   -0.7157    3.5515   -0.7762 C   0  0  0  0  0  0  0  0  0  0  0  0
   -1.1011    4.0920   -2.0026 C   0  0  0  0  0  0  0  0  0  0  0  0
   -1.7166    3.2983   -2.9513 C   0  0  0  0  0  0  0  0  0  0  0  0
   -1.9540    1.9589   -2.6856 C   0  0  0  0  0  0  0  0  0  0  0  0
   -1.5785    1.4186   -1.4667 C   0  0  0  0  0  0  0  0  0  0  0  0
   -0.9556    2.2062   -0.5145 C   0  0  0  0  0  0  0  0  0  0  0  0
    2.5445    6.4709   -2.3587 C   0  0  0  0  0  0  0  0  0  0  0  0
    1.4293    6.4875   -3.1957 C   0  0  0  0  0  0  0  0  0  0  0  0
    0.9674    7.6804   -3.7175 C   0  0  0  0  0  0  0  0  0  0  0  0
    1.6132    8.8675   -3.4096 C   0  0  0  0  0  0  0  0  0  0  0  0
    2.7251    8.8556   -2.5839 C   0  0  0  0  0  0  0  0  0  0  0  0
    3.1897    7.6652   -2.0528 C   0  0  0  0  0  0  0  0  0  0  0  0
    2.7241    3.7340   -3.0114 C   0  0  0  0  0  0  0  0  0  0  0  0
    3.3144    4.0433   -4.2373 C   0  0  0  0  0  0  0  0  0  0  0  0
    3.1083    3.2227   -5.3285 C   0  0  0  0  0  0  0  0  0  0  0  0
    2.3069    2.0961   -5.2103 C   0  0  0  0  0  0  0  0  0  0  0  0
    1.7112    1.7946   -3.9984 C   0  0  0  0  0  0  0  0  0  0  0  0
    1.9176    2.6107   -2.8985 C   0  0  0  0  0  0  0  0  0  0  0  0
    2.7414    4.6766    3.2284 H   0  0  0  0  0  0  0  0  0  0  0  0
    2.0821    3.1999    2.8521 H   0  0  0  0  0  0  0  0  0  0  0  0
    4.9770    4.8890    1.1972 H   0  0  0  0  0  0  0  0  0  0  0  0
    4.7360    3.2585    1.3971 H   0  0  0  0  0  0  0  0  0  0  0  0
   -1.3335    4.4740    2.3121 H   0  0  0  0  0  0  0  0  0  0  0  0
   -0.3114    3.0253    2.1424 H   0  0  0  0  0  0  0  0  0  0  0  0
    0.7087    5.7948    2.9528 H   0  0  0  0  0  0  0  0  0  0  0  0
    0.4623    4.4349    4.0763 H   0  0  0  0  0  0  0  0  0  0  0  0
    5.3334    4.7356   -2.4685 H   0  0  0  0  0  0  0  0  0  0  0  0
    5.1901    5.8660   -1.0995 H   0  0  0  0  0  0  0  0  0  0  0  0
    6.3380    3.7474   -0.3817 H   0  0  0  0  0  0  0  0  0  0  0  0
    4.9020    2.8257   -0.8927 H   0  0  0  0  0  0  0  0  0  0  0  0
    1.0242    7.4158   -0.2677 H   0  0  0  0  0  0  0  0  0  0  0  0
   -0.2674    9.4797   -0.5827 H   0  0  0  0  0  0  0  0  0  0  0  0
   -2.7244    9.4535   -0.3348 H   0  0  0  0  0  0  0  0  0  0  0  0
   -3.8841    7.3453    0.2071 H   0  0  0  0  0  0  0  0  0  0  0  0
   -2.5996    5.2686    0.4938 H   0  0  0  0  0  0  0  0  0  0  0  0
   -0.9271    5.1413   -2.1975 H   0  0  0  0  0  0  0  0  0  0  0  0
   -2.0130    3.7237   -3.8980 H   0  0  0  0  0  0  0  0  0  0  0  0
   -2.4334    1.3383   -3.4268 H   0  0  0  0  0  0  0  0  0  0  0  0
   -1.7660    0.3768   -1.2560 H   0  0  0  0  0  0  0  0  0  0  0  0
   -0.6468    1.7621    0.4187 H   0  0  0  0  0  0  0  0  0  0  0  0
    0.9390    5.5563   -3.4440 H   0  0  0  0  0  0  0  0  0  0  0  0
    0.1042    7.6853   -4.3656 H   0  0  0  0  0  0  0  0  0  0  0  0
    1.2514    9.7997   -3.8151 H   0  0  0  0  0  0  0  0  0  0  0  0
    3.2319    9.7784   -2.3458 H   0  0  0  0  0  0  0  0  0  0  0  0
    4.0415    7.6786   -1.3912 H   0  0  0  0  0  0  0  0  0  0  0  0
    3.9199    4.9345   -4.3365 H   0  0  0  0  0  0  0  0  0  0  0  0
    3.5698    3.4619   -6.2744 H   0  0  0  0  0  0  0  0  0  0  0  0
    2.1478    1.4580   -6.0658 H   0  0  0  0  0  0  0  0  0  0  0  0
    1.0833    0.9223   -3.9023 H   0  0  0  0  0  0  0  0  0  0  0  0
    1.4561    2.3689   -1.9553 H   0  0  0  0  0  0  0  0  0  0  0  0
  1  7  1  0  0  0  0
  1  3  1  0  0  0  0
  1  6  1  0  0  0  0
  2  1  1  0  0  0  0
  4  1  1  0  0  0  0
  4  8  1  0  0  0  0
  5 10  1  0  0  0  0
  5  1  1  0  0  0  0
  6 37  1  0  0  0  0
  6  9  1  0  0  0  0
  6 36  1  0  0  0  0
  7 38  1  0  0  0  0
  7 39  1  0  0  0  0
  8 41  1  0  0  0  0
  8 40  1  0  0  0  0
  8  9  1  0  0  0  0
  9 43  1  0  0  0  0
 10 45  1  0  0  0  0
 10 11  1  0  0  0  0
 11 46  1  0  0  0  0
 11  7  1  0  0  0  0
 12 17  1  0  0  0  0
 12  4  1  0  0  0  0
 13 12  2  0  0  0  0
 14 15  2  0  0  0  0
 14 13  1  0  0  0  0
 15 16  1  0  0  0  0
 16 51  1  0  0  0  0
 16 17  2  0  0  0  0
 17 52  1  0  0  0  0
 18 23  1  0  0  0  0
 18  4  1  0  0  0  0
 19 18  2  0  0  0  0
 20 21  2  0  0  0  0
 20 19  1  0  0  0  0
 21 22  1  0  0  0  0
 22 56  1  0  0  0  0
 22 23  2  0  0  0  0
 23 57  1  0  0  0  0
 24 29  1  0  0  0  0
 24  5  1  0  0  0  0
 25 24  2  0  0  0  0
 26 27  2  0  0  0  0
 26 25  1  0  0  0  0
 27 28  1  0  0  0  0
 28 61  1  0  0  0  0
 28 29  2  0  0  0  0
 29 62  1  0  0  0  0
 30 35  1  0  0  0  0
 30  5  1  0  0  0  0
 31 30  2  0  0  0  0
 32 33  2  0  0  0  0
 32 31  1  0  0  0  0
 33 34  1  0  0  0  0
 34 66  1  0  0  0  0
 34 35  2  0  0  0  0
 35 67  1  0  0  0  0
 42  9  1  0  0  0  0
 44 10  1  0  0  0  0
 47 11  1  0  0  0  0
 48 13  1  0  0  0  0
 49 14  1  0  0  0  0
 50 15  1  0  0  0  0
 53 19  1  0  0  0  0
 54 20  1  0  0  0  0
 55 21  1  0  0  0  0
 58 25  1  0  0  0  0
 59 26  1  0  0  0  0
 60 27  1  0  0  0  0
 63 31  1  0  0  0  0
 64 32  1  0  0  0  0
 65 33  1  0  0  0  0
M  END
$$$$
