CSD_code = DUXQUJ | q = 0 | S = 0 | Stoichiometry = C23H23CdCl2N3 | MND = 5
 OpenBabel04212202033D

 52 56  0  0  1  0  0  0  0  0999 V2000
    9.0941    5.6626    3.6026 Cd  0  0  0  0  0  0  0  0  0  0  0  0
    7.2136    6.1795    4.9465 Cl  0  0  0  0  0  0  0  0  0  0  0  0
   10.6165    4.0642    4.3595 Cl  0  0  0  0  0  0  0  0  0  0  0  0
   10.1363    7.8112    3.8980 N   0  0  0  0  0  0  0  0  0  0  0  0
    8.2025    7.3483    2.1757 N   0  0  0  0  0  0  0  0  0  0  0  0
    7.9085    4.7697    1.6959 N   0  0  0  0  0  0  0  0  0  0  0  0
    9.4497    8.8299    3.5580 C   0  0  0  0  0  0  0  0  0  0  0  0
    8.2986    8.5775    2.6674 C   0  0  0  0  0  0  0  0  0  0  0  0
    7.3145    9.5349    2.4099 C   0  0  0  0  0  0  0  0  0  0  0  0
    7.3818   10.5303    2.8164 H   0  0  0  0  0  0  0  0  0  0  0  0
    6.2204    9.1679    1.6451 C   0  0  0  0  0  0  0  0  0  0  0  0
    5.4380    9.8834    1.4394 H   0  0  0  0  0  0  0  0  0  0  0  0
    6.1190    7.8715    1.1698 C   0  0  0  0  0  0  0  0  0  0  0  0
    5.2518    7.5655    0.6082 H   0  0  0  0  0  0  0  0  0  0  0  0
    7.1437    6.9714    1.4708 C   0  0  0  0  0  0  0  0  0  0  0  0
    7.0838    5.5411    1.1049 C   0  0  1  0  0  3  0  0  0  0  0  0
    9.7255   10.2417    3.9854 C   0  0  0  0  0  0  0  0  0  0  0  0
   10.7130   10.3106    4.4369 H   0  0  0  0  0  0  0  0  0  0  0  0
    8.9865   10.5653    4.7172 H   0  0  0  0  0  0  0  0  0  0  0  0
    9.6763   10.9102    3.1278 H   0  0  0  0  0  0  0  0  0  0  0  0
    6.0806    5.1126    0.0741 C   0  0  0  0  0  0  0  0  0  0  0  0
    6.3163    4.1133   -0.2862 H   0  0  0  0  0  0  0  0  0  0  0  0
    6.0849    5.8069   -0.7642 H   0  0  0  0  0  0  0  0  0  0  0  0
    5.0793    5.0978    0.5026 H   0  0  0  0  0  0  0  0  0  0  0  0
   11.1624    7.7796    4.8297 C   0  0  0  0  0  0  0  0  0  0  0  0
   12.3185    7.0615    4.5090 C   0  0  0  0  0  0  0  0  0  0  0  0
   12.4064    6.6197    3.5260 H   0  0  0  0  0  0  0  0  0  0  0  0
   13.3281    6.9287    5.4361 C   0  0  0  0  0  0  0  0  0  0  0  0
   14.2188    6.3758    5.1768 H   0  0  0  0  0  0  0  0  0  0  0  0
   13.2059    7.4676    6.7152 C   0  0  0  0  0  0  0  0  0  0  0  0
   12.0433    8.1556    7.0360 C   0  0  0  0  0  0  0  0  0  0  0  0
   11.9187    8.5592    8.0308 H   0  0  0  0  0  0  0  0  0  0  0  0
   11.0340    8.3269    6.1075 C   0  0  0  0  0  0  0  0  0  0  0  0
   10.1143    8.8185    6.3892 H   0  0  0  0  0  0  0  0  0  0  0  0
   14.2926    7.2667    7.7248 C   0  0  0  0  0  0  0  0  0  0  0  0
   14.1395    7.8977    8.5967 H   0  0  0  0  0  0  0  0  0  0  0  0
   15.2664    7.4899    7.2925 H   0  0  0  0  0  0  0  0  0  0  0  0
   14.3046    6.2269    8.0510 H   0  0  0  0  0  0  0  0  0  0  0  0
    7.9531    3.3866    1.6079 C   0  0  0  0  0  0  0  0  0  0  0  0
    9.2051    2.7798    1.4655 C   0  0  0  0  0  0  0  0  0  0  0  0
   10.0830    3.4028    1.3632 H   0  0  0  0  0  0  0  0  0  0  0  0
    9.3088    1.4066    1.4515 C   0  0  0  0  0  0  0  0  0  0  0  0
   10.2798    0.9482    1.3370 H   0  0  0  0  0  0  0  0  0  0  0  0
    8.1858    0.5978    1.6140 C   0  0  0  0  0  0  0  0  0  0  0  0
    6.9496    1.2070    1.7818 C   0  0  0  0  0  0  0  0  0  0  0  0
    6.0698    0.5981    1.9334 H   0  0  0  0  0  0  0  0  0  0  0  0
    6.8227    2.5833    1.7676 C   0  0  0  0  0  0  0  0  0  0  0  0
    5.8615    3.0404    1.9512 H   0  0  0  0  0  0  0  0  0  0  0  0
    8.3285   -0.8920    1.6428 C   0  0  0  0  0  0  0  0  0  0  0  0
    8.9273   -1.2368    0.8015 H   0  0  0  0  0  0  0  0  0  0  0  0
    7.3577   -1.3799    1.6090 H   0  0  0  0  0  0  0  0  0  0  0  0
    8.8356   -1.1970    2.5578 H   0  0  0  0  0  0  0  0  0  0  0  0
  1  4  1  0  0  0  0
  1  3  1  0  0  0  0
  1  2  1  0  0  0  0
  4 25  1  0  0  0  0
  5  8  1  0  0  0  0
  5  1  1  0  0  0  0
  6  1  1  0  0  0  0
  7  4  1  0  0  0  0
  7 17  1  0  0  0  0
  8  7  2  0  0  0  0
  9  8  1  0  0  0  0
  9 10  1  0  0  0  0
 11  9  2  0  0  0  0
 12 11  1  0  0  0  0
 13 15  2  0  0  0  0
 13 11  1  0  0  0  0
 14 13  1  0  0  0  0
 15  5  1  0  0  0  0
 16 21  1  6  0  0  0
 16 15  1  0  0  0  0
 16  6  1  0  0  0  0
 17 18  1  0  0  0  0
 17 19  1  0  0  0  0
 20 17  1  0  0  0  0
 21 24  1  0  0  0  0
 22 21  1  0  0  0  0
 23 21  1  0  0  0  0
 25 33  1  0  0  0  0
 26 25  2  0  0  0  0
 26 28  1  0  0  0  0
 27 26  1  0  0  0  0
 28 30  2  0  0  0  0
 29 28  1  0  0  0  0
 30 31  1  0  0  0  0
 30 35  1  0  0  0  0
 31 32  1  0  0  0  0
 33 34  1  0  0  0  0
 33 31  2  0  0  0  0
 35 38  1  0  0  0  0
 35 36  1  0  0  0  0
 37 35  1  0  0  0  0
 39  6  1  0  0  0  0
 39 47  1  0  0  0  0
 40 39  2  0  0  0  0
 41 40  1  0  0  0  0
 42 40  1  0  0  0  0
 42 44  2  0  0  0  0
 43 42  1  0  0  0  0
 44 49  1  0  0  0  0
 44 45  1  0  0  0  0
 45 46  1  0  0  0  0
 47 45  2  0  0  0  0
 47 48  1  0  0  0  0
 49 52  1  0  0  0  0
 50 49  1  0  0  0  0
 51 49  1  0  0  0  0
M  END
$$$$
