CSD_code = DUXROE | q = 0 | S = 0 | Stoichiometry = C27H31Cl2N3Zn | MND = 5
 OpenBabel04212202033D

 64 68  0  0  1  0  0  0  0  0999 V2000
    2.6229    3.1066    2.5203 Zn  0  0  0  0  0  0  0  0  0  0  0  0
    4.4983    4.2897    3.0246 Cl  0  0  0  0  0  0  0  0  0  0  0  0
    2.2961    0.9941    3.0314 Cl  0  0  0  0  0  0  0  0  0  0  0  0
    3.0016    2.9384    0.3023 N   0  0  0  0  0  0  0  0  0  0  0  0
    1.8797    4.8855    1.6174 N   0  0  0  0  0  0  0  0  0  0  0  0
    1.2602    4.0985    4.0205 N   0  0  0  0  0  0  0  0  0  0  0  0
    2.9372    4.0467   -0.3169 C   0  0  0  0  0  0  0  0  0  0  0  0
    2.4028    5.1911    0.4402 C   0  0  0  0  0  0  0  0  0  0  0  0
    2.4752    6.5169    0.0129 C   0  0  0  0  0  0  0  0  0  0  0  0
    2.9071    6.7731   -0.9404 H   0  0  0  0  0  0  0  0  0  0  0  0
    2.0046    7.5074    0.8595 C   0  0  0  0  0  0  0  0  0  0  0  0
    2.0565    8.5439    0.5610 H   0  0  0  0  0  0  0  0  0  0  0  0
    1.4911    7.1673    2.1005 C   0  0  0  0  0  0  0  0  0  0  0  0
    1.1536    7.9322    2.7802 H   0  0  0  0  0  0  0  0  0  0  0  0
    1.4533    5.8188    2.4542 C   0  0  0  0  0  0  0  0  0  0  0  0
    1.0116    5.3187    3.7671 C   0  0  1  0  0  3  0  0  0  0  0  0
    3.3552    4.2595   -1.7385 C   0  0  0  0  0  0  0  0  0  0  0  0
    3.5748    3.3037   -2.2093 H   0  0  0  0  0  0  0  0  0  0  0  0
    4.2490    4.8811   -1.7753 H   0  0  0  0  0  0  0  0  0  0  0  0
    2.5644    4.7619   -2.2931 H   0  0  0  0  0  0  0  0  0  0  0  0
    0.3106    6.2610    4.6955 C   0  0  0  0  0  0  0  0  0  0  0  0
   -0.0956    5.7144    5.5439 H   0  0  0  0  0  0  0  0  0  0  0  0
   -0.4972    6.7730    4.1752 H   0  0  0  0  0  0  0  0  0  0  0  0
    1.0101    7.0098    5.0649 H   0  0  0  0  0  0  0  0  0  0  0  0
    3.5125    1.7633   -0.2626 C   0  0  0  0  0  0  0  0  0  0  0  0
    2.6083    0.7437   -0.5824 C   0  0  0  0  0  0  0  0  0  0  0  0
    3.0974   -0.4460   -1.0920 C   0  0  0  0  0  0  0  0  0  0  0  0
    2.3996   -1.2313   -1.3448 H   0  0  0  0  0  0  0  0  0  0  0  0
    4.4575   -0.6564   -1.2709 C   0  0  0  0  0  0  0  0  0  0  0  0
    5.3334    0.3627   -0.9305 C   0  0  0  0  0  0  0  0  0  0  0  0
    6.3967    0.2101   -1.0508 H   0  0  0  0  0  0  0  0  0  0  0  0
    4.8884    1.5780   -0.4313 C   0  0  0  0  0  0  0  0  0  0  0  0
    1.1413    0.9560   -0.3768 C   0  0  0  0  0  0  0  0  0  0  0  0
    0.5736    0.1141   -0.7637 H   0  0  0  0  0  0  0  0  0  0  0  0
    0.8004    1.8686   -0.8660 H   0  0  0  0  0  0  0  0  0  0  0  0
    0.9449    1.0499    0.6912 H   0  0  0  0  0  0  0  0  0  0  0  0
    4.9714   -1.9658   -1.7873 C   0  0  0  0  0  0  0  0  0  0  0  0
    4.2263   -2.4592   -2.4069 H   0  0  0  0  0  0  0  0  0  0  0  0
    5.2056   -2.6252   -0.9512 H   0  0  0  0  0  0  0  0  0  0  0  0
    5.8801   -1.8250   -2.3687 H   0  0  0  0  0  0  0  0  0  0  0  0
    5.8750    2.6425   -0.0551 C   0  0  0  0  0  0  0  0  0  0  0  0
    5.5520    3.1848    0.8310 H   0  0  0  0  0  0  0  0  0  0  0  0
    6.0014    3.3608   -0.8667 H   0  0  0  0  0  0  0  0  0  0  0  0
    6.8450    2.1965    0.1498 H   0  0  0  0  0  0  0  0  0  0  0  0
    0.9322    3.4747    5.2310 C   0  0  0  0  0  0  0  0  0  0  0  0
    1.6905    3.6919    6.3855 C   0  0  0  0  0  0  0  0  0  0  0  0
    1.3597    2.9874    7.5335 C   0  0  0  0  0  0  0  0  0  0  0  0
    1.9508    3.1422    8.4252 H   0  0  0  0  0  0  0  0  0  0  0  0
    0.3026    2.0911    7.5656 C   0  0  0  0  0  0  0  0  0  0  0  0
   -0.4325    1.8944    6.4051 C   0  0  0  0  0  0  0  0  0  0  0  0
   -1.2556    1.1942    6.4088 H   0  0  0  0  0  0  0  0  0  0  0  0
   -0.1296    2.5630    5.2323 C   0  0  0  0  0  0  0  0  0  0  0  0
    2.8558    4.6352    6.3884 C   0  0  0  0  0  0  0  0  0  0  0  0
    3.4085    4.5800    5.4527 H   0  0  0  0  0  0  0  0  0  0  0  0
    3.5328    4.3909    7.2030 H   0  0  0  0  0  0  0  0  0  0  0  0
    2.5234    5.6654    6.5254 H   0  0  0  0  0  0  0  0  0  0  0  0
   -0.0158    1.3275    8.8150 C   0  0  0  0  0  0  0  0  0  0  0  0
   -1.0682    1.0551    8.8469 H   0  0  0  0  0  0  0  0  0  0  0  0
    0.2272    1.9109    9.7004 H   0  0  0  0  0  0  0  0  0  0  0  0
    0.5713    0.4093    8.8450 H   0  0  0  0  0  0  0  0  0  0  0  0
   -0.9147    2.3305    3.9796 C   0  0  0  0  0  0  0  0  0  0  0  0
   -1.2851    3.2677    3.5638 H   0  0  0  0  0  0  0  0  0  0  0  0
   -1.7572    1.6716    4.1711 H   0  0  0  0  0  0  0  0  0  0  0  0
   -0.2661    1.8638    3.2385 H   0  0  0  0  0  0  0  0  0  0  0  0
  1  2  1  0  0  0  0
  1  3  1  0  0  0  0
  1  6  1  0  0  0  0
  4  1  1  0  0  0  0
  5 15  1  0  0  0  0
  5  1  1  0  0  0  0
  6 45  1  0  0  0  0
  7  4  1  0  0  0  0
  7  8  2  0  0  0  0
  8  5  1  0  0  0  0
  9  8  1  0  0  0  0
  9 11  2  0  0  0  0
 10  9  1  0  0  0  0
 11 13  1  0  0  0  0
 12 11  1  0  0  0  0
 13 15  2  0  0  0  0
 13 14  1  0  0  0  0
 15 16  1  0  0  0  0
 16  6  1  0  0  0  0
 16 21  1  6  0  0  0
 17  7  1  0  0  0  0
 18 17  1  0  0  0  0
 19 17  1  0  0  0  0
 20 17  1  0  0  0  0
 21 24  1  0  0  0  0
 21 22  1  0  0  0  0
 23 21  1  0  0  0  0
 25  4  1  0  0  0  0
 26 33  1  0  0  0  0
 26 25  2  0  0  0  0
 27 26  1  0  0  0  0
 28 27  1  0  0  0  0
 29 27  2  0  0  0  0
 29 30  1  0  0  0  0
 30 32  2  0  0  0  0
 31 30  1  0  0  0  0
 32 25  1  0  0  0  0
 32 41  1  0  0  0  0
 33 36  1  0  0  0  0
 34 33  1  0  0  0  0
 35 33  1  0  0  0  0
 37 29  1  0  0  0  0
 37 39  1  0  0  0  0
 38 37  1  0  0  0  0
 40 37  1  0  0  0  0
 41 44  1  0  0  0  0
 41 42  1  0  0  0  0
 43 41  1  0  0  0  0
 45 52  2  0  0  0  0
 45 46  1  0  0  0  0
 46 53  1  0  0  0  0
 46 47  2  0  0  0  0
 47 49  1  0  0  0  0
 47 48  1  0  0  0  0
 49 57  1  0  0  0  0
 50 51  1  0  0  0  0
 50 49  2  0  0  0  0
 52 50  1  0  0  0  0
 53 56  1  0  0  0  0
 53 55  1  0  0  0  0
 54 53  1  0  0  0  0
 57 60  1  0  0  0  0
 57 58  1  0  0  0  0
 57 59  1  0  0  0  0
 61 63  1  0  0  0  0
 61 52  1  0  0  0  0
 62 61  1  0  0  0  0
 64 61  1  0  0  0  0
M  END
$$$$
