CSD_code = DUXWUQ | q = 0 | S = 0 | Stoichiometry = C24H17BrMnN3O2 | MND = 6
 OpenBabel04212202033D

 48 53  0  0  1  0  0  0  0  0999 V2000
    2.1735    3.0305    4.5604 Br  0  0  0  0  0  0  0  0  0  0  0  0
    1.7764    3.4419    2.1512 Mn  0  0  0  0  0  0  0  0  0  0  0  0
    1.6935    5.3989    2.5610 N   0  0  0  0  0  0  0  0  0  0  0  0
    3.5895    3.8604    2.0038 N   0  0  0  0  0  0  0  0  0  0  0  0
    2.5027    1.6148    1.7797 N   0  0  0  0  0  0  0  0  0  0  0  0
   -1.0231    2.7371    2.6657 O   0  0  0  0  0  1  0  0  0  0  0  0
    1.0328    3.8611   -0.6438 O   0  0  0  0  0  1  0  0  0  0  0  0
    0.0780    3.0153    2.4564 C   0  0  0  0  0  2  0  0  0  0  0  0
    1.3423    3.6992    0.4572 C   0  0  0  0  0  2  0  0  0  0  0  0
    0.6264    6.1380    2.8799 C   0  0  0  0  0  3  0  0  0  0  0  0
    0.7016    7.4772    3.2063 C   0  0  0  0  0  0  0  0  0  0  0  0
    1.9415    8.1056    3.2060 C   0  0  0  0  0  0  0  0  0  0  0  0
    3.0536    7.3573    2.8790 C   0  0  0  0  0  0  0  0  0  0  0  0
    2.9058    6.0086    2.5633 C   0  0  0  0  0  0  0  0  0  0  0  0
    4.0098    5.1143    2.2369 C   0  0  1  0  0  3  0  0  0  0  0  0
    5.3579    5.4466    2.1962 C   0  0  0  0  0  0  0  0  0  0  0  0
    6.3034    4.4565    1.9278 C   0  0  0  0  0  0  0  0  0  0  0  0
    5.8490    3.1519    1.7337 C   0  0  0  0  0  0  0  0  0  0  0  0
    4.4864    2.8860    1.7827 C   0  0  0  0  0  0  0  0  0  0  0  0
    3.8532    1.5795    1.6515 C   0  0  1  0  0  3  0  0  0  0  0  0
    4.5445    0.3882    1.4440 C   0  0  0  0  0  0  0  0  0  0  0  0
    3.8467   -0.7998    1.3708 C   0  0  0  0  0  0  0  0  0  0  0  0
    2.4640   -0.7608    1.5075 C   0  0  0  0  0  0  0  0  0  0  0  0
    1.8419    0.4552    1.7066 C   0  0  0  0  0  0  0  0  0  0  0  0
    7.7332    4.7755    1.8691 C   0  0  0  0  0  0  0  0  0  0  0  0
    8.1737    5.9537    1.2694 C   0  0  0  0  0  0  0  0  0  0  0  0
    8.6813    3.9085    2.4074 C   0  0  0  0  0  0  0  0  0  0  0  0
    9.5209    6.2482    1.2049 C   0  0  0  0  0  0  0  0  0  0  0  0
   10.0266    4.2142    2.3482 C   0  0  0  0  0  0  0  0  0  0  0  0
   10.4684    5.3851    1.7437 C   0  0  0  0  0  0  0  0  0  0  0  0
   11.9258    5.7228    1.6940 C   0  0  0  0  0  0  0  0  0  0  0  0
   12.5356    4.8236    1.7376 H   0  0  0  0  0  0  0  0  0  0  0  0
   12.1899    6.3514    2.5452 H   0  0  0  0  0  0  0  0  0  0  0  0
   12.1663    6.2712    0.7860 H   0  0  0  0  0  0  0  0  0  0  0  0
   -0.3290    5.6270    2.8805 H   0  0  0  0  0  0  0  0  0  0  0  0
   -0.1955    8.0170    3.4620 H   0  0  0  0  0  0  0  0  0  0  0  0
    2.0344    9.1499    3.4600 H   0  0  0  0  0  0  0  0  0  0  0  0
    4.0345    7.8046    2.8749 H   0  0  0  0  0  0  0  0  0  0  0  0
    5.6797    6.4543    2.4023 H   0  0  0  0  0  0  0  0  0  0  0  0
    6.5538    2.3608    1.5372 H   0  0  0  0  0  0  0  0  0  0  0  0
    5.6184    0.4008    1.3494 H   0  0  0  0  0  0  0  0  0  0  0  0
    4.3630   -1.7344    1.2166 H   0  0  0  0  0  0  0  0  0  0  0  0
    1.8753   -1.6627    1.4654 H   0  0  0  0  0  0  0  0  0  0  0  0
    0.7659    0.5076    1.8223 H   0  0  0  0  0  0  0  0  0  0  0  0
    7.4566    6.6294    0.8256 H   0  0  0  0  0  0  0  0  0  0  0  0
    8.3601    3.0027    2.9006 H   0  0  0  0  0  0  0  0  0  0  0  0
    9.8447    7.1618    0.7272 H   0  0  0  0  0  0  0  0  0  0  0  0
   10.7468    3.5333    2.7789 H   0  0  0  0  0  0  0  0  0  0  0  0
  2  8  1  0  0  0  0
  2  3  1  0  0  0  0
  2  1  1  0  0  0  0
  3 14  1  0  0  0  0
  3 10  1  0  0  0  0
  4  2  1  0  0  0  0
  4 15  1  0  0  0  0
  5  2  1  0  0  0  0
  7  9  1  0  0  0  0
  8  6  1  0  0  0  0
  9  2  1  0  0  0  0
 10 35  1  0  0  0  0
 10 11  1  0  0  0  0
 11 36  1  0  0  0  0
 12 11  2  0  0  0  0
 12 37  1  0  0  0  0
 13 12  1  0  0  0  0
 14 13  2  0  0  0  0
 15 16  1  1  0  0  0
 15 14  1  0  0  0  0
 16 39  1  0  0  0  0
 17 16  2  0  0  0  0
 18 19  2  0  0  0  0
 18 17  1  0  0  0  0
 19  4  1  0  0  0  0
 20 21  1  1  0  0  0
 20  5  1  0  0  0  0
 20 19  1  0  0  0  0
 22 21  2  0  0  0  0
 22 23  1  0  0  0  0
 23 24  2  0  0  0  0
 24  5  1  0  0  0  0
 24 44  1  0  0  0  0
 25 17  1  0  0  0  0
 25 27  1  0  0  0  0
 26 25  2  0  0  0  0
 27 46  1  0  0  0  0
 28 26  1  0  0  0  0
 28 30  2  0  0  0  0
 29 27  2  0  0  0  0
 29 48  1  0  0  0  0
 30 29  1  0  0  0  0
 31 32  1  0  0  0  0
 31 30  1  0  0  0  0
 31 33  1  0  0  0  0
 34 31  1  0  0  0  0
 38 13  1  0  0  0  0
 40 18  1  0  0  0  0
 41 21  1  0  0  0  0
 42 22  1  0  0  0  0
 43 23  1  0  0  0  0
 45 26  1  0  0  0  0
 47 28  1  0  0  0  0
M  END
$$$$
