CSD_code = DUYBOO | q = 0 | S = 0 | Stoichiometry = C29H25ClF6OP2Pd | MND = 4
 OpenBabel04212202033D

 65 69  0  0  0  0  0  0  0  0999 V2000
   -0.8358    3.0576    0.2707 Pd  0  0  2  0  0  0  0  0  0  0  0  0
   -0.3972    2.3113   -1.8074 Cl  0  0  0  0  0  0  0  0  0  0  0  0
   -1.0698    3.8316    2.3557 P   0  0  0  0  0  4  0  0  0  0  0  0
   -2.4735    1.5817   -0.0456 P   0  0  0  0  0  4  0  0  0  0  0  0
    2.2532    3.3087    3.0361 F   0  0  0  0  0  0  0  0  0  0  0  0
    3.3187    3.4791    1.1836 F   0  0  0  0  0  0  0  0  0  0  0  0
    1.4853    2.3604    1.2699 F   0  0  0  0  0  0  0  0  0  0  0  0
    1.5956    7.1074    1.0984 F   0  0  0  0  0  0  0  0  0  0  0  0
    3.0656    5.8505    0.1777 F   0  0  0  0  0  0  0  0  0  0  0  0
    3.0178    6.0636    2.3203 F   0  0  0  0  0  0  0  0  0  0  0  0
    0.6098    4.5904    0.1889 O   0  0  0  0  0  0  0  0  0  0  0  0
    0.2840    5.0818    2.5229 C   0  0  0  0  0  0  0  0  0  0  0  0
    1.2509    4.7596    1.3450 C   0  0  0  0  0  0  0  0  0  0  0  0
    2.0992    3.4899    1.7101 C   0  0  0  0  0  0  0  0  0  0  0  0
    2.2480    5.9426    1.2180 C   0  0  0  0  0  0  0  0  0  0  0  0
   -2.2152   -0.0631   -0.7953 C   0  0  0  0  0  0  0  0  0  0  0  0
   -0.7611    2.6735    3.7157 C   0  0  0  0  0  0  0  0  0  0  0  0
   -0.5603    1.3386    3.3784 C   0  0  0  0  0  0  0  0  0  0  0  0
   -0.3041    0.4068    4.3673 C   0  0  0  0  0  0  0  0  0  0  0  0
   -0.2446    0.8065    5.6924 C   0  0  0  0  0  0  0  0  0  0  0  0
   -0.4232    2.1392    6.0289 C   0  0  0  0  0  0  0  0  0  0  0  0
   -0.6766    3.0768    5.0448 C   0  0  0  0  0  0  0  0  0  0  0  0
   -2.5553    4.7988    2.7365 C   0  0  0  0  0  0  0  0  0  0  0  0
   -3.3559    4.6612    3.8612 C   0  0  0  0  0  0  0  0  0  0  0  0
   -4.5003    5.4325    3.9806 C   0  0  0  0  0  0  0  0  0  0  0  0
   -4.8549    6.3215    2.9800 C   0  0  0  0  0  0  0  0  0  0  0  0
   -4.0685    6.4428    1.8432 C   0  0  0  0  0  0  0  0  0  0  0  0
   -2.9245    5.6801    1.7196 C   0  0  0  0  0  0  0  0  0  0  0  0
   -3.6847    2.4192   -1.1096 C   0  0  0  0  0  0  0  0  0  0  0  0
   -4.8593    1.7868   -1.5039 C   0  0  0  0  0  0  0  0  0  0  0  0
   -5.7772    2.4630   -2.2866 C   0  0  0  0  0  0  0  0  0  0  0  0
   -5.5331    3.7721   -2.6704 C   0  0  0  0  0  0  0  0  0  0  0  0
   -4.3682    4.4083   -2.2728 C   0  0  0  0  0  0  0  0  0  0  0  0
   -3.4437    3.7360   -1.4934 C   0  0  0  0  0  0  0  0  0  0  0  0
   -3.4728    1.2164    1.4396 C   0  0  0  0  0  0  0  0  0  0  0  0
   -4.3709    2.1755    1.8987 C   0  0  0  0  0  0  0  0  0  0  0  0
   -5.0722    1.9702    3.0718 C   0  0  0  0  0  0  0  0  0  0  0  0
   -4.8665    0.8168    3.8116 C   0  0  0  0  0  0  0  0  0  0  0  0
   -3.9654   -0.1361    3.3676 C   0  0  0  0  0  0  0  0  0  0  0  0
   -3.2727    0.0602    2.1867 C   0  0  0  0  0  0  0  0  0  0  0  0
   -3.1062   -0.6780   -0.6695 H   0  0  0  0  0  0  0  0  0  0  0  0
   -1.9886    0.0860   -1.8496 H   0  0  0  0  0  0  0  0  0  0  0  0
   -1.3568   -0.5433   -0.3251 H   0  0  0  0  0  0  0  0  0  0  0  0
    0.7675    5.0681    3.5026 H   0  0  0  0  0  0  0  0  0  0  0  0
   -0.1396    6.0732    2.3335 H   0  0  0  0  0  0  0  0  0  0  0  0
   -0.5871    1.0493    2.3281 H   0  0  0  0  0  0  0  0  0  0  0  0
   -0.1427   -0.6284    4.1071 H   0  0  0  0  0  0  0  0  0  0  0  0
   -0.0446    0.0804    6.4660 H   0  0  0  0  0  0  0  0  0  0  0  0
   -0.3569    2.4491    7.0613 H   0  0  0  0  0  0  0  0  0  0  0  0
   -0.7974    4.1201    5.3027 H   0  0  0  0  0  0  0  0  0  0  0  0
   -3.0961    3.9491    4.6303 H   0  0  0  0  0  0  0  0  0  0  0  0
   -5.1209    5.3341    4.8593 H   0  0  0  0  0  0  0  0  0  0  0  0
   -5.7508    6.9157    3.0802 H   0  0  0  0  0  0  0  0  0  0  0  0
   -4.3538    7.1256    1.0571 H   0  0  0  0  0  0  0  0  0  0  0  0
   -2.2998    5.7481    0.8305 H   0  0  0  0  0  0  0  0  0  0  0  0
   -5.0539    0.7698   -1.1934 H   0  0  0  0  0  0  0  0  0  0  0  0
   -6.6855    1.9690   -2.5986 H   0  0  0  0  0  0  0  0  0  0  0  0
   -6.2516    4.2957   -3.2835 H   0  0  0  0  0  0  0  0  0  0  0  0
   -4.1787    5.4271   -2.5766 H   0  0  0  0  0  0  0  0  0  0  0  0
   -2.5074    4.2252   -1.1986 H   0  0  0  0  0  0  0  0  0  0  0  0
   -4.5233    3.0789    1.3225 H   0  0  0  0  0  0  0  0  0  0  0  0
   -5.7779    2.7138    3.4113 H   0  0  0  0  0  0  0  0  0  0  0  0
   -5.4086    0.6602    4.7321 H   0  0  0  0  0  0  0  0  0  0  0  0
   -3.8025   -1.0355    3.9429 H   0  0  0  0  0  0  0  0  0  0  0  0
   -2.5742   -0.6898    1.8449 H   0  0  0  0  0  0  0  0  0  0  0  0
  1  2  1  1  0  0  0
  1  3  1  0  0  0  0
  3 12  1  0  0  0  0
  3 23  1  0  0  0  0
  3 17  1  0  0  0  0
  4  1  1  0  0  0  0
  4 35  1  0  0  0  0
  6 14  1  0  0  0  0
  7 14  1  0  0  0  0
  8 15  1  0  0  0  0
  9 15  1  0  0  0  0
 11  1  1  0  0  0  0
 11 13  1  0  0  0  0
 12 44  1  0  0  0  0
 13 14  1  0  0  0  0
 13 12  1  0  0  0  0
 14  5  1  0  0  0  0
 15 13  1  0  0  0  0
 15 10  1  0  0  0  0
 16 41  1  0  0  0  0
 16 43  1  0  0  0  0
 16  4  1  0  0  0  0
 17 22  1  0  0  0  0
 18 17  2  0  0  0  0
 18 19  1  0  0  0  0
 19 20  2  0  0  0  0
 20 21  1  0  0  0  0
 20 48  1  0  0  0  0
 21 49  1  0  0  0  0
 22 50  1  0  0  0  0
 22 21  2  0  0  0  0
 23 24  1  0  0  0  0
 24 25  2  0  0  0  0
 24 51  1  0  0  0  0
 25 52  1  0  0  0  0
 26 53  1  0  0  0  0
 26 25  1  0  0  0  0
 27 26  2  0  0  0  0
 28 27  1  0  0  0  0
 28 23  2  0  0  0  0
 29  4  1  0  0  0  0
 30 56  1  0  0  0  0
 30 29  2  0  0  0  0
 31 30  1  0  0  0  0
 32 31  2  0  0  0  0
 32 33  1  0  0  0  0
 33 34  2  0  0  0  0
 34 60  1  0  0  0  0
 34 29  1  0  0  0  0
 35 36  2  0  0  0  0
 35 40  1  0  0  0  0
 36 37  1  0  0  0  0
 37 62  1  0  0  0  0
 37 38  2  0  0  0  0
 38 63  1  0  0  0  0
 39 38  1  0  0  0  0
 39 64  1  0  0  0  0
 40 39  2  0  0  0  0
 42 16  1  0  0  0  0
 45 12  1  0  0  0  0
 46 18  1  0  0  0  0
 47 19  1  0  0  0  0
 54 27  1  0  0  0  0
 55 28  1  0  0  0  0
 57 31  1  0  0  0  0
 58 32  1  0  0  0  0
 59 33  1  0  0  0  0
 61 36  1  0  0  0  0
 65 40  1  0  0  0  0
M  END
$$$$
