CSD_code = DUYREW | q = 0 | S = 0 | Stoichiometry = C21H36BBrF2N2P2Pt | MND = 4
 OpenBabel04212202033D

 66 68  0  0  0  0  0  0  0  0999 V2000
   10.0054   13.7734    7.5417 C   0  0  0  0  0  0  0  0  0  0  0  0
    8.9890   14.2603    6.7147 C   0  0  0  0  0  0  0  0  0  0  0  0
    7.6162   13.9416    6.6909 C   0  0  0  0  0  0  0  0  0  0  0  0
    7.1347   13.2251    7.3327 H   0  0  0  0  0  0  0  0  0  0  0  0
    7.0317   14.7296    5.7180 C   0  0  0  0  0  0  0  0  0  0  0  0
    5.9984   14.7523    5.4320 H   0  0  0  0  0  0  0  0  0  0  0  0
    8.0505   15.5050    5.1647 C   0  0  0  0  0  0  0  0  0  0  0  0
    7.9972   16.2338    4.3789 H   0  0  0  0  0  0  0  0  0  0  0  0
   11.2690   14.3663    7.4479 C   0  0  0  0  0  0  0  0  0  0  0  0
   12.4222   14.1507    8.2288 C   0  0  0  0  0  0  0  0  0  0  0  0
   12.4958   13.4527    9.0427 H   0  0  0  0  0  0  0  0  0  0  0  0
   13.3968   15.0111    7.7601 C   0  0  0  0  0  0  0  0  0  0  0  0
   14.3988   15.1213    8.1259 H   0  0  0  0  0  0  0  0  0  0  0  0
   12.8288   15.7250    6.7051 C   0  0  0  0  0  0  0  0  0  0  0  0
   13.2694   16.4784    6.0810 H   0  0  0  0  0  0  0  0  0  0  0  0
    6.7994   12.7790   10.5801 C   0  0  0  0  0  0  0  0  0  0  0  0
    6.2167   13.0029    9.6808 H   0  0  0  0  0  0  0  0  0  0  0  0
    6.8877   11.6914   10.6586 H   0  0  0  0  0  0  0  0  0  0  0  0
    6.0779   13.3145   11.8116 C   0  0  0  0  0  0  0  0  0  0  0  0
    5.9038   14.3856   11.7455 H   0  0  0  0  0  0  0  0  0  0  0  0
    6.6408   13.1063   12.7177 H   0  0  0  0  0  0  0  0  0  0  0  0
    5.1097   12.8254   11.8991 H   0  0  0  0  0  0  0  0  0  0  0  0
    9.3230   13.2936   11.9360 C   0  0  0  0  0  0  0  0  0  0  0  0
    9.0127   14.1260   12.5730 H   0  0  0  0  0  0  0  0  0  0  0  0
    8.9852   12.3562   12.3875 H   0  0  0  0  0  0  0  0  0  0  0  0
   10.8401   13.2539   11.7775 C   0  0  0  0  0  0  0  0  0  0  0  0
   11.2233   14.1849   11.3661 H   0  0  0  0  0  0  0  0  0  0  0  0
   11.1148   12.4390   11.1025 H   0  0  0  0  0  0  0  0  0  0  0  0
   11.3209   13.0729   12.7368 H   0  0  0  0  0  0  0  0  0  0  0  0
    8.1904   15.2327   10.0674 C   0  0  0  0  0  0  0  0  0  0  0  0
    7.6825   15.3447    9.1052 H   0  0  0  0  0  0  0  0  0  0  0  0
    7.5067   15.5618   10.8543 H   0  0  0  0  0  0  0  0  0  0  0  0
    9.4500   16.0879   10.0882 C   0  0  0  0  0  0  0  0  0  0  0  0
   10.1845   15.7117    9.3794 H   0  0  0  0  0  0  0  0  0  0  0  0
    9.8957   16.1020   11.0803 H   0  0  0  0  0  0  0  0  0  0  0  0
    9.2089   17.1123    9.8115 H   0  0  0  0  0  0  0  0  0  0  0  0
   11.4589   11.5721    5.7097 C   0  0  0  0  0  0  0  0  0  0  0  0
   10.6438   12.0973    5.2023 H   0  0  0  0  0  0  0  0  0  0  0  0
   12.1593   12.3401    6.0473 H   0  0  0  0  0  0  0  0  0  0  0  0
   12.1617   10.6319    4.7396 C   0  0  0  0  0  0  0  0  0  0  0  0
   11.5105    9.8229    4.4159 H   0  0  0  0  0  0  0  0  0  0  0  0
   13.0568   10.2020    5.1827 H   0  0  0  0  0  0  0  0  0  0  0  0
   12.4616   11.1927    3.8570 H   0  0  0  0  0  0  0  0  0  0  0  0
   12.0154    9.6657    7.8549 C   0  0  0  0  0  0  0  0  0  0  0  0
   11.5427    9.0279    8.6067 H   0  0  0  0  0  0  0  0  0  0  0  0
   12.3528    9.0297    7.0322 H   0  0  0  0  0  0  0  0  0  0  0  0
   13.1758   10.4276    8.4824 C   0  0  0  0  0  0  0  0  0  0  0  0
   12.8190   11.0072    9.3330 H   0  0  0  0  0  0  0  0  0  0  0  0
   13.6342   11.1098    7.7687 H   0  0  0  0  0  0  0  0  0  0  0  0
   13.9366    9.7369    8.8400 H   0  0  0  0  0  0  0  0  0  0  0  0
    9.4584    9.6358    6.5706 C   0  0  0  0  0  0  0  0  0  0  0  0
    9.8223    9.1610    5.6566 H   0  0  0  0  0  0  0  0  0  0  0  0
    9.3115    8.8592    7.3264 H   0  0  0  0  0  0  0  0  0  0  0  0
    8.1464   10.3720    6.3255 C   0  0  0  0  0  0  0  0  0  0  0  0
    8.2688   11.1607    5.5846 H   0  0  0  0  0  0  0  0  0  0  0  0
    7.8041   10.8259    7.2600 H   0  0  0  0  0  0  0  0  0  0  0  0
    7.3753    9.6870    5.9789 H   0  0  0  0  0  0  0  0  0  0  0  0
   11.5639   15.3477    6.5254 N   0  0  0  0  0  0  0  0  0  0  0  0
    9.2090   15.2326    5.7621 N   0  0  0  0  0  0  0  0  0  0  0  0
   11.0211   15.2211    4.2012 F   0  0  0  0  0  0  0  0  0  0  0  0
   10.5703   17.1572    5.2913 F   0  0  0  0  0  0  0  0  0  0  0  0
    8.5041   13.4284   10.2912 P   0  0  0  0  0  4  0  0  0  0  0  0
   10.7210   10.8073    7.2182 P   0  0  0  0  0  4  0  0  0  0  0  0
    9.2756   10.2017   10.1071 Br  0  0  0  0  0  0  0  0  0  0  0  0
   10.6038   15.7856    5.3995 B   0  0  0  0  0  0  0  0  0  0  0  0
    9.6791   12.2104    8.7277 Pt  0  0  0  0  0  0  0  0  0  0  0  0
  1 66  2  0  0  0  0
  2  1  1  0  0  0  0
  3  2  2  0  0  0  0
  3  4  1  0  0  0  0
  5  3  1  0  0  0  0
  6  5  1  0  0  0  0
  7  5  2  0  0  0  0
  7 59  1  0  0  0  0
  8  7  1  0  0  0  0
  9  1  1  0  0  0  0
  9 10  2  0  0  0  0
 10 11  1  0  0  0  0
 12 13  1  0  0  0  0
 12 10  1  0  0  0  0
 14 12  2  0  0  0  0
 15 14  1  0  0  0  0
 16 18  1  0  0  0  0
 16 19  1  0  0  0  0
 17 16  1  0  0  0  0
 19 22  1  0  0  0  0
 19 21  1  0  0  0  0
 20 19  1  0  0  0  0
 23 25  1  0  0  0  0
 23 24  1  0  0  0  0
 26 23  1  0  0  0  0
 26 29  1  0  0  0  0
 27 26  1  0  0  0  0
 28 26  1  0  0  0  0
 30 33  1  0  0  0  0
 30 62  1  0  0  0  0
 30 32  1  0  0  0  0
 31 30  1  0  0  0  0
 33 35  1  0  0  0  0
 34 33  1  0  0  0  0
 36 33  1  0  0  0  0
 37 39  1  0  0  0  0
 37 63  1  0  0  0  0
 38 37  1  0  0  0  0
 40 42  1  0  0  0  0
 40 37  1  0  0  0  0
 41 40  1  0  0  0  0
 43 40  1  0  0  0  0
 44 47  1  0  0  0  0
 44 45  1  0  0  0  0
 46 44  1  0  0  0  0
 47 50  1  0  0  0  0
 47 48  1  0  0  0  0
 49 47  1  0  0  0  0
 51 63  1  0  0  0  0
 51 53  1  0  0  0  0
 52 51  1  0  0  0  0
 54 51  1  0  0  0  0
 54 56  1  0  0  0  0
 55 54  1  0  0  0  0
 57 54  1  0  0  0  0
 58 14  1  0  0  0  0
 58  9  1  0  0  0  0
 59  2  1  0  0  0  0
 60 65  1  0  0  0  0
 61 65  1  0  0  0  0
 62 16  1  0  0  0  0
 62 23  1  0  0  0  0
 63 44  1  0  0  0  0
 63 66  1  0  0  0  0
 65 59  1  0  0  0  0
 65 58  1  0  0  0  0
 66 64  1  0  0  0  0
 66 62  1  0  0  0  0
M  END
$$$$
