CSD_code = DUYYIF | q = 0 | S = 0 | Stoichiometry = C5H5Cl3MoN4S2 | MND = 6
 OpenBabel04212202033D

 20 21  0  0  0  0  0  0  0  0999 V2000
    6.7636    4.9351    3.4319 Mo  0  0  0  0  0  0  0  0  0  0  0  0
    6.6294    3.0665    4.9173 Cl  0  0  0  0  0  0  0  0  0  0  0  0
    7.1719    6.7582    1.9232 Cl  0  0  0  0  0  0  0  0  0  0  0  0
    8.0079    6.0366    4.9583 Cl  0  0  0  0  0  0  0  0  0  0  0  0
    5.0779    5.4720    3.7864 N   0  0  0  0  0  2  0  0  0  0  0  0
    3.6117    5.2892    3.2699 S   0  0  0  0  0  0  0  0  0  0  0  0
    6.2121    3.8835    2.0303 N   0  0  0  0  0  2  0  0  0  0  0  0
    4.8668    3.5353    1.3463 S   0  0  0  0  0  0  0  0  0  0  0  0
    3.6569    4.2834    2.0347 N   0  0  0  0  0  2  0  0  0  0  0  0
    8.7817    4.1452    2.8132 N   0  0  0  0  0  0  0  0  0  0  0  0
    9.1434    4.1717    1.5311 C   0  0  0  0  0  3  0  0  0  0  0  0
   10.3531    3.6747    1.0773 C   0  0  0  0  0  0  0  0  0  0  0  0
   11.2344    3.1173    1.9897 C   0  0  0  0  0  0  0  0  0  0  0  0
   10.8593    3.0834    3.3233 C   0  0  0  0  0  0  0  0  0  0  0  0
    9.6310    3.6070    3.6900 C   0  0  0  0  0  0  0  0  0  0  0  0
    8.4347    4.6165    0.8436 H   0  0  0  0  0  0  0  0  0  0  0  0
   10.5949    3.7282    0.0279 H   0  0  0  0  0  0  0  0  0  0  0  0
   12.1865    2.7207    1.6712 H   0  0  0  0  0  0  0  0  0  0  0  0
   11.5058    2.6591    4.0748 H   0  0  0  0  0  0  0  0  0  0  0  0
    9.3153    3.5902    4.7280 H   0  0  0  0  0  0  0  0  0  0  0  0
  1  5  1  0  0  0  0
  1  2  1  0  0  0  0
  1  4  1  0  0  0  0
  3  1  1  0  0  0  0
  6  5  1  0  0  0  0
  7  1  1  0  0  0  0
  8  7  1  0  0  0  0
  8  9  1  0  0  0  0
  9  6  1  0  0  0  0
 10  1  1  0  0  0  0
 10 15  1  0  0  0  0
 11 10  1  0  0  0  0
 12 11  1  0  0  0  0
 12 13  2  0  0  0  0
 13 14  1  0  0  0  0
 14 15  2  0  0  0  0
 14 19  1  0  0  0  0
 15 20  1  0  0  0  0
 16 11  1  0  0  0  0
 17 12  1  0  0  0  0
 18 13  1  0  0  0  0
M  END
$$$$
