CSD_code = DUZVAV | q = 0 | S = 0 | Stoichiometry = C28H29Cl3NP2V | MND = 6
 OpenBabel04212202033D

 64 67  0  0  0  0  0  0  0  0999 V2000
    7.1776    4.3550    8.4271 V   0  0  0  0  0  0  0  0  0  0  0  0
    7.7914    6.0262    9.3657 Cl  0  0  0  0  0  0  0  0  0  0  0  0
    8.8772    2.9472    8.9735 Cl  0  0  0  0  0  0  0  0  0  0  0  0
    6.0323    2.6140    7.1483 Cl  0  0  0  0  0  0  0  0  0  0  0  0
    8.1122    4.2266    6.3274 P   0  0  0  0  0  4  0  0  0  0  0  0
    5.9714    3.0266    9.8689 P   0  0  0  0  0  4  0  0  0  0  0  0
    5.6379    5.2707    7.8069 N   0  0  0  0  0  2  0  0  0  0  0  0
    8.8802    2.6961    5.6965 C   0  0  0  0  0  0  0  0  0  0  0  0
    6.2799    1.2347   10.0243 C   0  0  0  0  0  0  0  0  0  0  0  0
    4.6496    5.6230    7.3341 C   0  0  0  0  0  2  0  0  0  0  0  0
    3.4152    6.0497    6.7408 C   0  0  0  0  0  0  0  0  0  0  0  0
    9.5441    5.3427    6.0822 C   0  0  0  0  0  0  0  0  0  0  0  0
    9.8662    5.8500    4.8265 C   0  0  0  0  0  0  0  0  0  0  0  0
   10.9842    6.6477    4.6659 C   0  0  0  0  0  0  0  0  0  0  0  0
   11.7947    6.9376    5.7517 C   0  0  0  0  0  0  0  0  0  0  0  0
   11.4888    6.4209    6.9996 C   0  0  0  0  0  0  0  0  0  0  0  0
   10.3681    5.6259    7.1654 C   0  0  0  0  0  0  0  0  0  0  0  0
    6.9992    4.7864    5.0091 C   0  0  0  0  0  0  0  0  0  0  0  0
    6.6749    6.1417    4.9905 C   0  0  0  0  0  0  0  0  0  0  0  0
    5.7799    6.6320    4.0593 C   0  0  0  0  0  0  0  0  0  0  0  0
    5.1881    5.7688    3.1481 C   0  0  0  0  0  0  0  0  0  0  0  0
    5.4936    4.4185    3.1750 C   0  0  0  0  0  0  0  0  0  0  0  0
    6.3947    3.9246    4.1032 C   0  0  0  0  0  0  0  0  0  0  0  0
    6.1817    3.4669   11.6349 C   0  0  0  0  0  0  0  0  0  0  0  0
    7.4074    3.9677   12.0583 C   0  0  0  0  0  0  0  0  0  0  0  0
    7.6182    4.2560   13.3955 C   0  0  0  0  0  0  0  0  0  0  0  0
    6.6072    4.0459   14.3184 C   0  0  0  0  0  0  0  0  0  0  0  0
    5.3879    3.5347   13.9038 C   0  0  0  0  0  0  0  0  0  0  0  0
    5.1751    3.2407   12.5694 C   0  0  0  0  0  0  0  0  0  0  0  0
    4.1753    3.1915    9.6753 C   0  0  0  0  0  0  0  0  0  0  0  0
    3.3738    2.2052    9.1153 C   0  0  0  0  0  0  0  0  0  0  0  0
    2.0214    2.4371    8.9289 C   0  0  0  0  0  0  0  0  0  0  0  0
    1.4640    3.6510    9.2940 C   0  0  0  0  0  0  0  0  0  0  0  0
    2.2628    4.6437    9.8429 C   0  0  0  0  0  0  0  0  0  0  0  0
    3.6133    4.4177   10.0254 C   0  0  0  0  0  0  0  0  0  0  0  0
    8.1778    1.8661    5.7498 H   0  0  0  0  0  0  0  0  0  0  0  0
    9.7392    2.4782    6.3326 H   0  0  0  0  0  0  0  0  0  0  0  0
    9.2100    2.8678    4.6699 H   0  0  0  0  0  0  0  0  0  0  0  0
    6.2044    0.7480    9.0535 H   0  0  0  0  0  0  0  0  0  0  0  0
    7.2940    1.1122   10.4073 H   0  0  0  0  0  0  0  0  0  0  0  0
    5.5610    0.8167   10.7319 H   0  0  0  0  0  0  0  0  0  0  0  0
    2.6256    5.3462    7.0076 H   0  0  0  0  0  0  0  0  0  0  0  0
    3.5204    6.0883    5.6556 H   0  0  0  0  0  0  0  0  0  0  0  0
    3.1554    7.0391    7.1155 H   0  0  0  0  0  0  0  0  0  0  0  0
    9.2367    5.6240    3.9755 H   0  0  0  0  0  0  0  0  0  0  0  0
   11.2257    7.0436    3.6896 H   0  0  0  0  0  0  0  0  0  0  0  0
   12.6658    7.5634    5.6227 H   0  0  0  0  0  0  0  0  0  0  0  0
   12.1243    6.6386    7.8457 H   0  0  0  0  0  0  0  0  0  0  0  0
   10.1309    5.2154    8.1395 H   0  0  0  0  0  0  0  0  0  0  0  0
    7.1386    6.8042    5.7139 H   0  0  0  0  0  0  0  0  0  0  0  0
    5.5395    7.6860    4.0409 H   0  0  0  0  0  0  0  0  0  0  0  0
    4.4867    6.1505    2.4199 H   0  0  0  0  0  0  0  0  0  0  0  0
    5.0260    3.7463    2.4703 H   0  0  0  0  0  0  0  0  0  0  0  0
    6.6184    2.8685    4.1313 H   0  0  0  0  0  0  0  0  0  0  0  0
    8.1991    4.1251   11.3357 H   0  0  0  0  0  0  0  0  0  0  0  0
    8.5725    4.6461   13.7183 H   0  0  0  0  0  0  0  0  0  0  0  0
    6.7688    4.2765   15.3614 H   0  0  0  0  0  0  0  0  0  0  0  0
    4.6004    3.3628   14.6236 H   0  0  0  0  0  0  0  0  0  0  0  0
    4.2222    2.8390   12.2498 H   0  0  0  0  0  0  0  0  0  0  0  0
    3.8075    1.2632    8.8144 H   0  0  0  0  0  0  0  0  0  0  0  0
    1.3998    1.6675    8.4947 H   0  0  0  0  0  0  0  0  0  0  0  0
    0.4075    3.8265    9.1492 H   0  0  0  0  0  0  0  0  0  0  0  0
    1.8288    5.5927   10.1253 H   0  0  0  0  0  0  0  0  0  0  0  0
    4.2511    5.1877   10.4468 H   0  0  0  0  0  0  0  0  0  0  0  0
  1  3  1  0  0  0  0
  1  2  1  0  0  0  0
  1  6  1  0  0  0  0
  4  1  1  0  0  0  0
  5  1  1  0  0  0  0
  6  9  1  0  0  0  0
  6 24  1  0  0  0  0
  7  1  1  0  0  0  0
  8 36  1  0  0  0  0
  8  5  1  0  0  0  0
  8 37  1  0  0  0  0
  9 40  1  0  0  0  0
  9 41  1  0  0  0  0
 10  7  1  0  0  0  0
 11 42  1  0  0  0  0
 11 44  1  0  0  0  0
 11 10  1  0  0  0  0
 12  5  1  0  0  0  0
 12 17  1  0  0  0  0
 13 12  2  0  0  0  0
 14 13  1  0  0  0  0
 14 15  2  0  0  0  0
 15 16  1  0  0  0  0
 16 17  2  0  0  0  0
 16 48  1  0  0  0  0
 17 49  1  0  0  0  0
 18  5  1  0  0  0  0
 19 18  1  0  0  0  0
 19 50  1  0  0  0  0
 20 19  2  0  0  0  0
 21 22  2  0  0  0  0
 21 20  1  0  0  0  0
 22 23  1  0  0  0  0
 23 54  1  0  0  0  0
 23 18  2  0  0  0  0
 24 25  2  0  0  0  0
 24 29  1  0  0  0  0
 25 26  1  0  0  0  0
 26 56  1  0  0  0  0
 26 27  2  0  0  0  0
 27 57  1  0  0  0  0
 28 27  1  0  0  0  0
 28 58  1  0  0  0  0
 29 28  2  0  0  0  0
 30  6  1  0  0  0  0
 30 35  1  0  0  0  0
 31 30  2  0  0  0  0
 32 31  1  0  0  0  0
 32 33  2  0  0  0  0
 33 34  1  0  0  0  0
 34 35  2  0  0  0  0
 34 63  1  0  0  0  0
 35 64  1  0  0  0  0
 38  8  1  0  0  0  0
 39  9  1  0  0  0  0
 43 11  1  0  0  0  0
 45 13  1  0  0  0  0
 46 14  1  0  0  0  0
 47 15  1  0  0  0  0
 51 20  1  0  0  0  0
 52 21  1  0  0  0  0
 53 22  1  0  0  0  0
 55 25  1  0  0  0  0
 59 29  1  0  0  0  0
 60 31  1  0  0  0  0
 61 32  1  0  0  0  0
 62 33  1  0  0  0  0
M  END
$$$$
