CSD_code = EABHCP | q = -1 | S = 0 | Stoichiometry = CH2Br3OPt(1-) | MND = 6
 OpenBabel04212202033D

  8  7  0  0  0  0  0  0  0  0999 V2000
    3.6874    1.4148    0.4873 Br  0  0  0  0  0  0  0  0  0  0  0  0
    0.2281    4.9755    1.9180 Br  0  0  0  0  0  0  0  0  0  0  0  0
    1.6112    1.9655    3.4241 Br  0  0  0  0  0  0  0  0  0  0  0  0
    2.2033    4.0689   -0.3749 C   0  0  0  0  0  2  0  0  0  0  0  0
    0.8080    2.3009    0.6486 H   0  0  0  0  0  0  0  0  0  0  0  0
    3.0793    3.9892    1.9375 H   0  0  0  0  0  0  0  0  0  0  0  0
    2.3567    4.6185   -1.3657 O   0  0  0  0  0  1  0  0  0  0  0  0
    1.9515    3.1730    1.2426 Pt  0  0  0  0  0  0  0  0  0  0  0  0
  1  8  1  0  0  0  0
  4  8  1  0  0  0  0
  5  8  1  0  0  0  0
  7  4  1  0  0  0  0
  8  2  1  0  0  0  0
  8  6  1  0  0  0  0
  8  3  1  0  0  0  0
M  END
$$$$
