CSD_code = EBAGOF | q = 1 | S = 0 | Stoichiometry = C17H24ClN4O2Ru(1+) | MND = 6
 OpenBabel04212202033D

 49 52  0  0  1  0  0  0  0  0999 V2000
    3.6614    4.3549    1.1790 Ru  0  0  0  0  0  0  0  0  0  0  0  0
    4.2085    4.5184   -1.1010 Cl  0  0  0  0  0  0  0  0  0  0  0  0
    1.1989    5.6581    0.6612 O   0  0  0  0  0  1  0  0  0  0  0  0
    5.3130    3.3898    1.3718 O   0  0  0  0  0  0  0  0  0  0  0  0
    2.1971    5.1468    0.9653 N   0  0  0  0  0  2  0  0  0  0  0  0
    3.4294    4.1210    3.3713 N   0  0  2  0  0  4  0  0  0  0  0  0
    4.6885    6.1782    1.3790 N   0  0  0  0  0  0  0  0  0  0  0  0
    2.7759    2.4479    0.8636 N   0  0  0  0  0  0  0  0  0  0  0  0
    6.2151    2.8237    0.4924 C   0  0  0  0  0  0  0  0  0  0  0  0
    2.0059    4.3112    3.7372 C   0  0  0  0  0  0  0  0  0  0  0  0
    1.6573    4.0909    5.2095 C   0  0  0  0  0  0  0  0  0  0  0  0
    4.2513    5.1234    4.0744 C   0  0  0  0  0  0  0  0  0  0  0  0
    5.6409    5.3654    3.4680 C   0  0  0  0  0  0  0  0  0  0  0  0
    3.9114    2.7750    3.7199 C   0  0  0  0  0  0  0  0  0  0  0  0
    3.0854    1.6049    3.1905 C   0  0  0  0  0  0  0  0  0  0  0  0
    5.6022    6.3515    2.3380 C   0  0  2  0  0  3  0  0  0  0  0  0
    6.4716    7.4377    2.3157 C   0  0  0  0  0  0  0  0  0  0  0  0
    6.3814    8.3700    1.2979 C   0  0  0  0  0  0  0  0  0  0  0  0
    5.3870    8.2096    0.3451 C   0  0  0  0  0  0  0  0  0  0  0  0
    4.5650    7.1008    0.4203 C   0  0  0  0  0  0  0  0  0  0  0  0
    2.9096    1.4158    1.7042 C   0  0  1  0  0  3  0  0  0  0  0  0
    2.7349    0.1057    1.2568 C   0  0  0  0  0  0  0  0  0  0  0  0
    2.3794   -0.1446   -0.0547 C   0  0  0  0  0  0  0  0  0  0  0  0
    2.1518    0.9404   -0.8869 C   0  0  0  0  0  0  0  0  0  0  0  0
    2.3673    2.2108   -0.3897 C   0  0  0  0  0  0  0  0  0  0  0  0
    5.7207    2.1426   -0.2168 H   0  0  0  0  0  0  0  0  0  0  0  0
    6.9570    2.2471    1.0641 H   0  0  0  0  0  0  0  0  0  0  0  0
    6.7468    3.5922   -0.0870 H   0  0  0  0  0  0  0  0  0  0  0  0
    1.4003    3.6410    3.1209 H   0  0  0  0  0  0  0  0  0  0  0  0
    1.7340    5.3382    3.4739 H   0  0  0  0  0  0  0  0  0  0  0  0
    1.8560    3.0744    5.5361 H   0  0  0  0  0  0  0  0  0  0  0  0
    0.5938    4.2752    5.3361 H   0  0  0  0  0  0  0  0  0  0  0  0
    2.1895    4.7799    5.8587 H   0  0  0  0  0  0  0  0  0  0  0  0
    3.7046    6.0718    4.0758 H   0  0  0  0  0  0  0  0  0  0  0  0
    4.3888    4.8096    5.1156 H   0  0  0  0  0  0  0  0  0  0  0  0
    6.3010    5.7473    4.2472 H   0  0  0  0  0  0  0  0  0  0  0  0
    6.0648    4.4279    3.0976 H   0  0  0  0  0  0  0  0  0  0  0  0
    3.9575    2.6741    4.8116 H   0  0  0  0  0  0  0  0  0  0  0  0
    4.9266    2.6746    3.3269 H   0  0  0  0  0  0  0  0  0  0  0  0
    3.5583    0.7014    3.5824 H   0  0  0  0  0  0  0  0  0  0  0  0
    2.0760    1.6308    3.6151 H   0  0  0  0  0  0  0  0  0  0  0  0
    7.2123    7.5407    3.0928 H   0  0  0  0  0  0  0  0  0  0  0  0
    7.0588    9.2084    1.2581 H   0  0  0  0  0  0  0  0  0  0  0  0
    5.2511    8.9223   -0.4513 H   0  0  0  0  0  0  0  0  0  0  0  0
    3.7906    6.9473   -0.3206 H   0  0  0  0  0  0  0  0  0  0  0  0
    2.8732   -0.7110    1.9477 H   0  0  0  0  0  0  0  0  0  0  0  0
    2.2624   -1.1561   -0.4106 H   0  0  0  0  0  0  0  0  0  0  0  0
    1.8281    0.8127   -1.9064 H   0  0  0  0  0  0  0  0  0  0  0  0
    2.2113    3.0732   -1.0254 H   0  0  0  0  0  0  0  0  0  0  0  0
  1  4  1  0  0  0  0
  1  7  1  0  0  0  0
  1  6  1  0  0  0  0
  2  1  1  0  0  0  0
  3  5  1  0  0  0  0
  5  1  1  0  0  0  0
  6 14  1  0  0  0  0
  6 10  1  1  0  0  0
  6 12  1  0  0  0  0
  7 16  1  0  0  0  0
  8  1  1  0  0  0  0
  8 21  1  0  0  0  0
  9 27  1  0  0  0  0
  9  4  1  0  0  0  0
 10 11  1  0  0  0  0
 11 32  1  0  0  0  0
 11 31  1  0  0  0  0
 11 33  1  0  0  0  0
 12 34  1  0  0  0  0
 12 35  1  0  0  0  0
 13 12  1  0  0  0  0
 13 36  1  0  0  0  0
 14 38  1  0  0  0  0
 15 40  1  0  0  0  0
 15 41  1  0  0  0  0
 15 14  1  0  0  0  0
 16 17  1  1  0  0  0
 16 13  1  0  0  0  0
 17 42  1  0  0  0  0
 18 17  2  0  0  0  0
 19 20  2  0  0  0  0
 19 18  1  0  0  0  0
 20  7  1  0  0  0  0
 21 22  1  1  0  0  0
 21 15  1  0  0  0  0
 22 46  1  0  0  0  0
 23 22  2  0  0  0  0
 24 25  2  0  0  0  0
 24 23  1  0  0  0  0
 25  8  1  0  0  0  0
 26  9  1  0  0  0  0
 28  9  1  0  0  0  0
 29 10  1  0  0  0  0
 30 10  1  0  0  0  0
 37 13  1  0  0  0  0
 39 14  1  0  0  0  0
 43 18  1  0  0  0  0
 44 19  1  0  0  0  0
 45 20  1  0  0  0  0
 47 23  1  0  0  0  0
 48 24  1  0  0  0  0
 49 25  1  0  0  0  0
M  END
$$$$
