CSD_code = EBAHEW | q = 0 | S = 0 | Stoichiometry = C16H20Cl2N4ORu | MND = 6
 OpenBabel04212202033D

 44 48  0  0  1  0  0  0  0  0999 V2000
    4.9895    3.2201    2.8975 Ru  0  0  0  0  0  0  0  0  0  0  0  0
    5.8059    1.8830    1.1268 Cl  0  0  0  0  0  0  0  0  0  0  0  0
    5.0110    1.5740    4.5447 Cl  0  0  0  0  0  0  0  0  0  0  0  0
    3.2319    4.7963    4.3990 O   0  0  0  0  0  1  0  0  0  0  0  0
    4.3632    4.5216    3.9834 N   0  0  0  0  0  0  0  0  0  0  0  0
    5.1944    5.0781    1.5663 N   0  0  2  0  0  4  0  0  0  0  0  0
    6.7338    3.7458    3.6297 N   0  0  0  0  0  0  0  0  0  0  0  0
    3.1467    2.6493    2.1685 N   0  0  0  0  0  0  0  0  0  0  0  0
    6.4444    5.0038    0.7856 C   0  0  0  0  0  0  0  0  0  0  0  0
    6.6413    6.1114   -0.2495 C   0  0  0  0  0  0  0  0  0  0  0  0
    5.2312    6.1885    2.5322 C   0  0  0  0  0  0  0  0  0  0  0  0
    5.3535    5.6184    3.9717 C   0  0  2  0  0  0  0  0  0  0  0  0
    4.0370    5.1541    0.6663 C   0  0  0  0  0  0  0  0  0  0  0  0
    2.6816    4.9073    1.3460 C   0  0  0  0  0  0  0  0  0  0  0  0
    6.6887    4.9697    4.1760 C   0  0  1  0  0  3  0  0  0  0  0  0
    7.7644    5.5102    4.8551 C   0  0  0  0  0  0  0  0  0  0  0  0
    8.9240    4.7533    4.9691 C   0  0  0  0  0  0  0  0  0  0  0  0
    8.9573    3.4874    4.4035 C   0  0  0  0  0  0  0  0  0  0  0  0
    7.8366    3.0136    3.7428 C   0  0  0  0  0  0  0  0  0  0  0  0
    2.3332    3.4490    1.4729 C   0  0  1  0  0  3  0  0  0  0  0  0
    1.1812    2.9643    0.8657 C   0  0  0  0  0  0  0  0  0  0  0  0
    0.8540    1.6246    0.9755 C   0  0  0  0  0  0  0  0  0  0  0  0
    1.7071    0.8039    1.6927 C   0  0  0  0  0  0  0  0  0  0  0  0
    2.8381    1.3557    2.2656 C   0  0  0  0  0  0  0  0  0  0  0  0
    6.4619    4.0303    0.2854 H   0  0  0  0  0  0  0  0  0  0  0  0
    7.2790    5.0260    1.4915 H   0  0  0  0  0  0  0  0  0  0  0  0
    5.9556    6.0058   -1.0853 H   0  0  0  0  0  0  0  0  0  0  0  0
    7.6529    6.0400   -0.6397 H   0  0  0  0  0  0  0  0  0  0  0  0
    6.5163    7.1033    0.1815 H   0  0  0  0  0  0  0  0  0  0  0  0
    4.3083    6.7723    2.4780 H   0  0  0  0  0  0  0  0  0  0  0  0
    6.0740    6.8581    2.3379 H   0  0  0  0  0  0  0  0  0  0  0  0
    5.1224    6.3874    4.7181 H   0  0  0  0  0  0  0  0  0  0  0  0
    4.1840    4.3946   -0.1082 H   0  0  0  0  0  0  0  0  0  0  0  0
    4.0037    6.1422    0.1877 H   0  0  0  0  0  0  0  0  0  0  0  0
    2.6457    5.3554    2.3423 H   0  0  0  0  0  0  0  0  0  0  0  0
    1.9105    5.3928    0.7452 H   0  0  0  0  0  0  0  0  0  0  0  0
    7.6933    6.4950    5.2901 H   0  0  0  0  0  0  0  0  0  0  0  0
    9.7798    5.1455    5.4958 H   0  0  0  0  0  0  0  0  0  0  0  0
    9.8369    2.8692    4.4789 H   0  0  0  0  0  0  0  0  0  0  0  0
    7.8063    2.0325    3.2850 H   0  0  0  0  0  0  0  0  0  0  0  0
    0.5481    3.6393    0.3103 H   0  0  0  0  0  0  0  0  0  0  0  0
   -0.0380    1.2349    0.5091 H   0  0  0  0  0  0  0  0  0  0  0  0
    1.5096   -0.2493    1.8076 H   0  0  0  0  0  0  0  0  0  0  0  0
    3.5250    0.7367    2.8304 H   0  0  0  0  0  0  0  0  0  0  0  0
  1  7  1  0  0  0  0
  1  5  1  0  0  0  0
  1  3  1  0  0  0  0
  2  1  1  0  0  0  0
  5  4  1  0  0  0  0
  6  9  1  6  0  0  0
  6 11  1  0  0  0  0
  6  1  1  0  0  0  0
  7 19  1  0  0  0  0
  7 15  1  0  0  0  0
  8 24  1  0  0  0  0
  8  1  1  0  0  0  0
  9 26  1  0  0  0  0
 10 29  1  0  0  0  0
 10  9  1  0  0  0  0
 11 12  1  0  0  0  0
 12  5  1  0  0  0  0
 12 15  1  0  0  0  0
 12 32  1  1  0  0  0
 13 14  1  0  0  0  0
 13  6  1  0  0  0  0
 14 20  1  0  0  0  0
 14 35  1  0  0  0  0
 15 16  1  1  0  0  0
 16 17  2  0  0  0  0
 16 37  1  0  0  0  0
 17 38  1  0  0  0  0
 18 39  1  0  0  0  0
 18 17  1  0  0  0  0
 19 18  2  0  0  0  0
 20 21  1  6  0  0  0
 20  8  1  0  0  0  0
 21 22  2  0  0  0  0
 22 23  1  0  0  0  0
 23 43  1  0  0  0  0
 23 24  2  0  0  0  0
 24 44  1  0  0  0  0
 25  9  1  0  0  0  0
 27 10  1  0  0  0  0
 28 10  1  0  0  0  0
 30 11  1  0  0  0  0
 31 11  1  0  0  0  0
 33 13  1  0  0  0  0
 34 13  1  0  0  0  0
 36 14  1  0  0  0  0
 40 19  1  0  0  0  0
 41 21  1  0  0  0  0
 42 22  1  0  0  0  0
M  END
$$$$
