CSD_code = EBAKEA | q = 1 | S = 0 | Stoichiometry = C18H40ClN4Ni(1+) | MND = 5
 OpenBabel04212202033D

 64 67  0  0  1  0  0  0  0  0999 V2000
    4.8892    2.8500    4.1271 Ni  0  0  0  0  0  0  0  0  0  0  0  0
    5.8046    1.6185    5.6537 N   0  0  1  0  0  4  0  0  0  0  0  0
    5.6901    0.6771    5.2717 H   0  0  0  0  0  0  0  0  0  0  0  0
    7.2279    1.9787    5.4894 C   0  0  2  0  0  0  0  0  0  0  0  0
    7.8801    1.2651    6.0147 H   0  0  0  0  0  0  0  0  0  0  0  0
    7.5213    3.3870    6.0028 C   0  0  0  0  0  0  0  0  0  0  0  0
    6.7858    4.0947    5.6170 H   0  0  0  0  0  0  0  0  0  0  0  0
    8.5106    3.6973    5.6772 H   0  0  0  0  0  0  0  0  0  0  0  0
    7.5087    3.4267    7.0876 H   0  0  0  0  0  0  0  0  0  0  0  0
    7.5266    1.8794    3.9877 C   0  0  0  0  0  0  0  0  0  0  0  0
    8.5682    2.1650    3.8140 H   0  0  0  0  0  0  0  0  0  0  0  0
    7.4033    0.8408    3.6722 H   0  0  0  0  0  0  0  0  0  0  0  0
    6.6081    2.7312    3.2078 N   0  0  1  0  0  4  0  0  0  0  0  0
    6.9280    3.6991    3.3146 H   0  0  0  0  0  0  0  0  0  0  0  0
    6.6274    2.4803    1.7388 C   0  0  0  0  0  0  0  0  0  0  0  0
    8.0806    2.4570    1.2361 C   0  0  0  0  0  0  0  0  0  0  0  0
    8.6302    3.3207    1.6042 H   0  0  0  0  0  0  0  0  0  0  0  0
    8.0861    2.5025    0.1509 H   0  0  0  0  0  0  0  0  0  0  0  0
    8.6023    1.5512    1.5333 H   0  0  0  0  0  0  0  0  0  0  0  0
    5.9108    3.6389    1.0452 C   0  0  0  0  0  0  0  0  0  0  0  0
    4.9253    3.8017    1.4751 H   0  0  0  0  0  0  0  0  0  0  0  0
    5.8032    3.4307   -0.0153 H   0  0  0  0  0  0  0  0  0  0  0  0
    6.4803    4.5588    1.1546 H   0  0  0  0  0  0  0  0  0  0  0  0
    5.9708    1.1356    1.3818 C   0  0  0  0  0  0  0  0  0  0  0  0
    6.2835    0.8911    0.3665 H   0  0  0  0  0  0  0  0  0  0  0  0
    6.3641    0.3494    2.0286 H   0  0  0  0  0  0  0  0  0  0  0  0
    4.4349    1.0512    1.4040 C   0  0  1  0  0  0  0  0  0  0  0  0
    4.0243    1.7984    0.7212 H   0  0  0  0  0  0  0  0  0  0  0  0
    4.0606   -0.3519    0.9137 C   0  0  0  0  0  0  0  0  0  0  0  0
    4.5033   -1.1096    1.5591 H   0  0  0  0  0  0  0  0  0  0  0  0
    4.4402   -0.5073   -0.0923 H   0  0  0  0  0  0  0  0  0  0  0  0
    2.9883   -0.5082    0.8895 H   0  0  0  0  0  0  0  0  0  0  0  0
    3.9051    1.3333    2.7500 N   0  0  2  0  0  4  0  0  0  0  0  0
    3.8499    0.4376    3.2384 H   0  0  0  0  0  0  0  0  0  0  0  0
    2.5668    1.9578    2.8144 C   0  0  1  0  0  0  0  0  0  0  0  0
    2.6549    2.9632    2.3808 H   0  0  0  0  0  0  0  0  0  0  0  0
    1.4477    1.2099    2.0885 C   0  0  0  0  0  0  0  0  0  0  0  0
    1.6180    1.1889    1.0168 H   0  0  0  0  0  0  0  0  0  0  0  0
    0.5035    1.7212    2.2566 H   0  0  0  0  0  0  0  0  0  0  0  0
    1.3512    0.1916    2.4595 H   0  0  0  0  0  0  0  0  0  0  0  0
    2.2059    2.0823    4.3013 C   0  0  0  0  0  0  0  0  0  0  0  0
    1.1920    2.4836    4.3849 H   0  0  0  0  0  0  0  0  0  0  0  0
    2.2127    1.0822    4.7437 H   0  0  0  0  0  0  0  0  0  0  0  0
    3.0937    2.8679    6.5035 C   0  0  0  0  0  0  0  0  0  0  0  0
    3.1610    2.9416    5.0187 N   0  0  1  0  0  4  0  0  0  0  0  0
    2.9209    3.9113    4.7836 H   0  0  0  0  0  0  0  0  0  0  0  0
    1.6306    2.8715    6.9743 C   0  0  0  0  0  0  0  0  0  0  0  0
    1.0741    3.6768    6.5005 H   0  0  0  0  0  0  0  0  0  0  0  0
    1.6023    3.0388    8.0473 H   0  0  0  0  0  0  0  0  0  0  0  0
    1.1308    1.9284    6.7708 H   0  0  0  0  0  0  0  0  0  0  0  0
    3.7651    4.1302    7.0482 C   0  0  0  0  0  0  0  0  0  0  0  0
    4.7201    4.3040    6.5574 H   0  0  0  0  0  0  0  0  0  0  0  0
    3.9236    4.0477    8.1193 H   0  0  0  0  0  0  0  0  0  0  0  0
    3.1347    4.9974    6.8662 H   0  0  0  0  0  0  0  0  0  0  0  0
    3.7689    1.5874    7.0355 C   0  0  0  0  0  0  0  0  0  0  0  0
    3.4429    1.4546    8.0671 H   0  0  0  0  0  0  0  0  0  0  0  0
    3.4078    0.7233    6.4733 H   0  0  0  0  0  0  0  0  0  0  0  0
    5.3033    1.5692    7.0348 C   0  0  1  0  0  0  0  0  0  0  0  0
    5.6656    2.4545    7.5572 H   0  0  0  0  0  0  0  0  0  0  0  0
    5.7998    0.3223    7.7697 C   0  0  0  0  0  0  0  0  0  0  0  0
    5.4361   -0.5841    7.2881 H   0  0  0  0  0  0  0  0  0  0  0  0
    5.4460    0.3251    8.7964 H   0  0  0  0  0  0  0  0  0  0  0  0
    6.8860    0.2898    7.7955 H   0  0  0  0  0  0  0  0  0  0  0  0
    4.7988    5.0049    3.8072 Cl  0  0  0  0  0  0  0  0  0  0  0  0
  1 45  1  0  0  0  0
  1  2  1  0  0  0  0
  2  3  1  6  0  0  0
  2 58  1  0  0  0  0
  4  2  1  0  0  0  0
  4  6  1  0  0  0  0
  4  5  1  1  0  0  0
  6  9  1  0  0  0  0
  7  6  1  0  0  0  0
  8  6  1  0  0  0  0
 10  4  1  0  0  0  0
 11 10  1  0  0  0  0
 12 10  1  0  0  0  0
 13 14  1  1  0  0  0
 13 10  1  0  0  0  0
 13  1  1  0  0  0  0
 15 13  1  0  0  0  0
 16 19  1  0  0  0  0
 16 17  1  0  0  0  0
 16 15  1  0  0  0  0
 18 16  1  0  0  0  0
 20 23  1  0  0  0  0
 20 21  1  0  0  0  0
 20 15  1  0  0  0  0
 22 20  1  0  0  0  0
 24 27  1  0  0  0  0
 24 15  1  0  0  0  0
 24 26  1  0  0  0  0
 25 24  1  0  0  0  0
 27 28  1  6  0  0  0
 27 33  1  0  0  0  0
 29 27  1  0  0  0  0
 29 30  1  0  0  0  0
 31 29  1  0  0  0  0
 32 29  1  0  0  0  0
 33 35  1  0  0  0  0
 33 34  1  1  0  0  0
 33  1  1  0  0  0  0
 35 36  1  6  0  0  0
 35 41  1  0  0  0  0
 37 39  1  0  0  0  0
 37 40  1  0  0  0  0
 37 35  1  0  0  0  0
 38 37  1  0  0  0  0
 41 42  1  0  0  0  0
 41 43  1  0  0  0  0
 41 45  1  0  0  0  0
 44 47  1  0  0  0  0
 44 55  1  0  0  0  0
 44 51  1  0  0  0  0
 45 46  1  6  0  0  0
 45 44  1  0  0  0  0
 47 49  1  0  0  0  0
 48 47  1  0  0  0  0
 50 47  1  0  0  0  0
 51 53  1  0  0  0  0
 52 51  1  0  0  0  0
 54 51  1  0  0  0  0
 55 56  1  0  0  0  0
 57 55  1  0  0  0  0
 58 55  1  0  0  0  0
 58 59  1  1  0  0  0
 58 60  1  0  0  0  0
 60 63  1  0  0  0  0
 60 62  1  0  0  0  0
 61 60  1  0  0  0  0
 64  1  1  0  0  0  0
M  END
$$$$
