CSD_code = EBANEC | q = 0 | S = 0 | Stoichiometry = C27H20BrN2O7Re | MND = 6
 OpenBabel04212202033D

 58 62  0  0  1  0  0  0  0  0999 V2000
   -0.0434   -0.8318    8.9215 C   0  0  0  0  0  0  0  0  0  0  0  0
   -0.7892   -1.7325    8.1313 C   0  0  0  0  0  0  0  0  0  0  0  0
   -1.1619   -2.6396    8.5872 H   0  0  0  0  0  0  0  0  0  0  0  0
   -1.0609   -1.4579    6.8196 C   0  0  0  0  0  0  0  0  0  0  0  0
   -1.6348   -2.1588    6.2331 H   0  0  0  0  0  0  0  0  0  0  0  0
   -0.5993   -0.2729    6.2319 C   0  0  0  0  0  0  0  0  0  0  0  0
   -0.8042   -0.0777    5.1905 H   0  0  0  0  0  0  0  0  0  0  0  0
    0.0944    0.6411    6.9773 C   0  0  0  0  0  3  0  0  0  0  0  0
    0.4231    1.5691    6.5395 H   0  0  0  0  0  0  0  0  0  0  0  0
    0.3702    0.4019    8.3369 C   0  0  0  0  0  0  0  0  0  0  0  0
    1.0617    1.3199    9.1731 C   0  0  0  0  0  0  0  0  0  0  0  0
    1.2355    1.0055   10.4976 C   0  0  0  0  0  0  0  0  0  0  0  0
    1.7295    1.7119   11.1411 H   0  0  0  0  0  0  0  0  0  0  0  0
    0.8144   -0.2393   10.9967 C   0  0  0  0  0  0  0  0  0  0  0  0
    0.9329   -0.5859   12.4174 C   0  0  0  0  0  0  0  0  0  0  0  0
    1.4704    0.3095   13.3573 C   0  0  0  0  0  0  0  0  0  0  0  0
    1.8924    1.2456   13.0376 H   0  0  0  0  0  0  0  0  0  0  0  0
    1.5174   -0.0195   14.6897 C   0  0  0  0  0  0  0  0  0  0  0  0
    0.9336   -1.2463   15.1101 C   0  0  0  0  0  0  0  0  0  0  0  0
    0.8576   -1.6535   16.4554 C   0  0  0  0  0  0  0  0  0  0  0  0
    1.2900   -1.0189   17.2110 H   0  0  0  0  0  0  0  0  0  0  0  0
    0.2542   -2.8329   16.7984 C   0  0  0  0  0  0  0  0  0  0  0  0
    0.2085   -3.1357   17.8331 H   0  0  0  0  0  0  0  0  0  0  0  0
   -0.3219   -3.6436   15.8120 C   0  0  0  0  0  0  0  0  0  0  0  0
   -0.8238   -4.5564   16.0937 H   0  0  0  0  0  0  0  0  0  0  0  0
   -0.2569   -3.2832   14.4945 C   0  0  0  0  0  0  0  0  0  0  0  0
   -0.7246   -3.8980   13.7376 H   0  0  0  0  0  0  0  0  0  0  0  0
    0.3901   -2.0931   14.0982 C   0  0  1  0  0  3  0  0  0  0  0  0
    1.5718    2.6315    8.6766 C   0  0  0  0  0  0  0  0  0  0  0  0
    3.2061    4.2896    9.0578 C   0  0  0  0  0  0  0  0  0  0  0  0
    3.1724    4.4123    7.9705 H   0  0  0  0  0  0  0  0  0  0  0  0
    4.2425    4.2182    9.3933 H   0  0  0  0  0  0  0  0  0  0  0  0
    2.4816    5.4407    9.7406 C   0  0  0  0  0  0  0  0  0  0  0  0
    1.4542    5.4959    9.3884 H   0  0  0  0  0  0  0  0  0  0  0  0
    2.9833    6.3748    9.5060 H   0  0  0  0  0  0  0  0  0  0  0  0
    2.4795    5.3008   10.8192 H   0  0  0  0  0  0  0  0  0  0  0  0
    2.1719    0.9254   15.6394 C   0  0  0  0  0  0  0  0  0  0  0  0
    2.8758    3.1480   15.9327 C   0  0  0  0  0  0  0  0  0  0  0  0
    3.8696    2.7868   16.2193 H   0  0  0  0  0  0  0  0  0  0  0  0
    2.2870    3.2830   16.8469 H   0  0  0  0  0  0  0  0  0  0  0  0
    2.9591    4.4337   15.1327 C   0  0  0  0  0  0  0  0  0  0  0  0
    3.5503    4.2790   14.2338 H   0  0  0  0  0  0  0  0  0  0  0  0
    3.4274    5.2065   15.7348 H   0  0  0  0  0  0  0  0  0  0  0  0
    1.9635    4.7621   14.8455 H   0  0  0  0  0  0  0  0  0  0  0  0
    0.6837   -4.1018    9.4057 C   0  0  0  0  0  2  0  0  0  0  0  0
    0.9151   -4.7495   12.0622 C   0  0  0  0  0  2  0  0  0  0  0  0
   -1.4945   -3.4608   11.1671 C   0  0  0  0  0  2  0  0  0  0  0  0
    0.2421   -1.1517   10.2102 N   0  0  0  0  0  0  0  0  0  0  0  0
    0.4616   -1.7806   12.7784 N   0  0  0  0  0  0  0  0  0  0  0  0
    1.1083    3.2597    7.7579 O   0  0  0  0  0  0  0  0  0  0  0  0
    2.6199    3.0324    9.3999 O   0  0  0  0  0  0  0  0  0  0  0  0
    2.5957    0.6475   16.7333 O   0  0  0  0  0  0  0  0  0  0  0  0
    2.2420    2.1558   15.1220 O   0  0  0  0  0  0  0  0  0  0  0  0
    0.9553   -4.6172    8.4222 O   0  0  0  0  0  1  0  0  0  0  0  0
    1.3226   -5.6463   12.6421 O   0  0  0  0  0  1  0  0  0  0  0  0
   -2.6249   -3.6559   11.2156 O   0  0  0  0  0  1  0  0  0  0  0  0
    2.9686   -2.6510   10.9731 Br  0  0  0  0  0  0  0  0  0  0  0  0
    0.4141   -3.1322   11.0829 Re  0  0  0  0  0  0  0  0  0  0  0  0
  1 48  1  0  0  0  0
  2  3  1  0  0  0  0
  2  1  2  0  0  0  0
  4  2  1  0  0  0  0
  5  4  1  0  0  0  0
  6  4  2  0  0  0  0
  6  8  1  0  0  0  0
  7  6  1  0  0  0  0
  8 10  1  0  0  0  0
  9  8  1  0  0  0  0
 10  1  1  0  0  0  0
 10 11  2  0  0  0  0
 11 12  1  0  0  0  0
 12 14  2  0  0  0  0
 12 13  1  0  0  0  0
 14 15  1  0  0  0  0
 15 49  1  0  0  0  0
 15 16  2  0  0  0  0
 16 18  1  0  0  0  0
 17 16  1  0  0  0  0
 18 19  2  0  0  0  0
 18 37  1  0  0  0  0
 19 20  1  0  0  0  0
 20 22  2  0  0  0  0
 20 21  1  0  0  0  0
 22 23  1  0  0  0  0
 24 25  1  0  0  0  0
 24 22  1  0  0  0  0
 26 24  2  0  0  0  0
 27 26  1  0  0  0  0
 28 26  1  1  0  0  0
 28 19  1  0  0  0  0
 29 11  1  0  0  0  0
 29 51  1  0  0  0  0
 30 32  1  0  0  0  0
 30 51  1  0  0  0  0
 30 33  1  0  0  0  0
 31 30  1  0  0  0  0
 33 36  1  0  0  0  0
 34 33  1  0  0  0  0
 35 33  1  0  0  0  0
 37 52  2  0  0  0  0
 38 39  1  0  0  0  0
 38 40  1  0  0  0  0
 41 43  1  0  0  0  0
 41 38  1  0  0  0  0
 42 41  1  0  0  0  0
 44 41  1  0  0  0  0
 45 58  1  0  0  0  0
 46 55  1  0  0  0  0
 47 56  1  0  0  0  0
 48 14  1  0  0  0  0
 48 58  1  0  0  0  0
 49 28  1  0  0  0  0
 50 29  2  0  0  0  0
 53 37  1  0  0  0  0
 53 38  1  0  0  0  0
 54 45  1  0  0  0  0
 57 58  1  0  0  0  0
 58 47  1  0  0  0  0
 58 46  1  0  0  0  0
 58 49  1  0  0  0  0
M  END
$$$$
