CSD_code = EBAXEN | q = 0 | S = 0 | Stoichiometry = C17H14Cl2HgN2 | MND = 4
 OpenBabel04212202033D

 36 37  0  0  0  0  0  0  0  0999 V2000
    1.4032    7.8069    7.4292 Hg  0  0  0  0  0  0  0  0  0  0  0  0
   -0.8656    7.7982    7.7195 Cl  0  0  0  0  0  0  0  0  0  0  0  0
    3.3788    6.7559    7.8591 Cl  0  0  0  0  0  0  0  0  0  0  0  0
    1.9069   10.2314    7.6393 N   0  0  0  0  0  0  0  0  0  0  0  0
    1.8243    8.8875    5.2206 N   0  0  0  0  0  0  0  0  0  0  0  0
    2.0768   10.8862    6.5045 C   0  0  0  0  0  0  0  0  0  0  0  0
    2.2739   12.2858    6.4680 C   0  0  0  0  0  0  0  0  0  0  0  0
    2.4072   12.7771    5.5162 H   0  0  0  0  0  0  0  0  0  0  0  0
    2.2882   12.9917    7.6378 C   0  0  0  0  0  0  0  0  0  0  0  0
    2.4340   14.0624    7.6430 H   0  0  0  0  0  0  0  0  0  0  0  0
    2.1101   12.3115    8.8592 C   0  0  0  0  0  0  0  0  0  0  0  0
    2.1114   12.9575   10.1111 C   0  0  0  0  0  0  0  0  0  0  0  0
    2.2548   14.0278   10.1421 H   0  0  0  0  0  0  0  0  0  0  0  0
    1.9331   12.2389   11.2605 C   0  0  0  0  0  0  0  0  0  0  0  0
    1.9333   12.7368   12.2184 H   0  0  0  0  0  0  0  0  0  0  0  0
    1.7477   10.8459   11.2100 C   0  0  0  0  0  0  0  0  0  0  0  0
    1.6096   10.2982   12.1297 H   0  0  0  0  0  0  0  0  0  0  0  0
    1.7415   10.1881   10.0129 C   0  0  0  0  0  0  0  0  0  0  0  0
    1.6008    9.1123    9.9590 H   0  0  0  0  0  0  0  0  0  0  0  0
    1.9196   10.8992    8.8067 C   0  0  0  0  0  0  0  0  0  0  0  0
    2.0623   10.1395    5.2566 C   0  0  0  0  0  0  0  0  0  0  0  0
    2.2476   10.7232    4.3511 H   0  0  0  0  0  0  0  0  0  0  0  0
    1.8503    8.1466    4.0511 C   0  0  0  0  0  0  0  0  0  0  0  0
    2.6675    8.4535    2.9592 C   0  0  0  0  0  0  0  0  0  0  0  0
    3.3412    9.2963    3.0069 H   0  0  0  0  0  0  0  0  0  0  0  0
    2.6634    7.6426    1.8424 C   0  0  0  0  0  0  0  0  0  0  0  0
    3.3139    7.8807    1.0131 H   0  0  0  0  0  0  0  0  0  0  0  0
    1.8433    6.5216    1.7688 C   0  0  0  0  0  0  0  0  0  0  0  0
    1.0351    6.2162    2.8628 C   0  0  0  0  0  0  0  0  0  0  0  0
    0.4005    5.3432    2.8257 H   0  0  0  0  0  0  0  0  0  0  0  0
    1.0466    7.0033    3.9921 C   0  0  0  0  0  0  0  0  0  0  0  0
    0.4126    6.7646    4.8401 H   0  0  0  0  0  0  0  0  0  0  0  0
    1.8453    5.6379    0.5631 C   0  0  0  0  0  0  0  0  0  0  0  0
    2.3498    6.1148   -0.2731 H   0  0  0  0  0  0  0  0  0  0  0  0
    2.3612    4.7046    0.7886 H   0  0  0  0  0  0  0  0  0  0  0  0
    0.8275    5.3894    0.2691 H   0  0  0  0  0  0  0  0  0  0  0  0
  1  2  1  0  0  0  0
  1  3  1  0  0  0  0
  4 20  1  0  0  0  0
  5 21  2  0  0  0  0
  6  4  2  0  0  0  0
  7  6  1  0  0  0  0
  7  9  2  0  0  0  0
  8  7  1  0  0  0  0
  9 10  1  0  0  0  0
  9 11  1  0  0  0  0
 11 12  1  0  0  0  0
 12 13  1  0  0  0  0
 12 14  2  0  0  0  0
 14 15  1  0  0  0  0
 16 14  1  0  0  0  0
 16 17  1  0  0  0  0
 18 16  2  0  0  0  0
 19 18  1  0  0  0  0
 20 11  2  0  0  0  0
 20 18  1  0  0  0  0
 21  6  1  0  0  0  0
 22 21  1  0  0  0  0
 23  5  1  0  0  0  0
 24 25  1  0  0  0  0
 24 23  2  0  0  0  0
 26 24  1  0  0  0  0
 27 26  1  0  0  0  0
 28 26  2  0  0  0  0
 28 29  1  0  0  0  0
 29 31  2  0  0  0  0
 30 29  1  0  0  0  0
 31 23  1  0  0  0  0
 31 32  1  0  0  0  0
 33 35  1  0  0  0  0
 33 28  1  0  0  0  0
 34 33  1  0  0  0  0
 36 33  1  0  0  0  0
M  END
$$$$
