CSD_code = EBAYAJ | q = 0 | S = 0 | Stoichiometry = C28H24Cl3N3PRe | MND = 6
 OpenBabel04212202033D

 60 65  0  0  0  0  0  0  0  0999 V2000
    5.1153    2.2334    7.5256 Re  0  0  0  0  0  0  0  0  0  0  0  0
    3.3819    0.8764    6.7843 Cl  0  0  0  0  0  0  0  0  0  0  0  0
    3.9179    4.1674    7.0954 Cl  0  0  0  0  0  0  0  0  0  0  0  0
    4.3826    2.1988    9.7319 Cl  0  0  0  0  0  0  0  0  0  0  0  0
    5.8507    2.0822    5.2116 P   0  0  0  0  0  4  0  0  0  0  0  0
    6.2933    0.5680    8.0099 N   0  0  0  0  0  0  0  0  0  0  0  0
    8.2899    1.7308    7.5124 N   0  0  0  0  0  0  0  0  0  0  0  0
    9.2705    1.5798    7.3125 H   0  0  0  0  0  0  0  0  0  0  0  0
    6.7501    3.3842    8.1918 N   0  0  0  0  0  0  0  0  0  0  0  0
    5.7030   -0.5657    8.4134 C   0  0  0  0  0  3  0  0  0  0  0  0
    4.6337   -0.5099    8.5586 H   0  0  0  0  0  0  0  0  0  0  0  0
    6.3853   -1.7446    8.6154 C   0  0  0  0  0  0  0  0  0  0  0  0
    5.8502   -2.6241    8.9321 H   0  0  0  0  0  0  0  0  0  0  0  0
    7.7562   -1.7733    8.3971 C   0  0  0  0  0  0  0  0  0  0  0  0
    8.3254   -2.6799    8.5269 H   0  0  0  0  0  0  0  0  0  0  0  0
    8.3828   -0.5982    8.0301 C   0  0  0  0  0  0  0  0  0  0  0  0
    9.4507   -0.5627    7.8769 H   0  0  0  0  0  0  0  0  0  0  0  0
    7.6277    0.5609    7.8663 C   0  0  0  0  0  0  0  0  0  0  0  0
    6.5446    4.5890    8.7479 C   0  0  0  0  0  3  0  0  0  0  0  0
    5.5182    4.8264    8.9881 H   0  0  0  0  0  0  0  0  0  0  0  0
    7.5532    5.4955    8.9870 C   0  0  0  0  0  0  0  0  0  0  0  0
    7.3200    6.4508    9.4263 H   0  0  0  0  0  0  0  0  0  0  0  0
    8.8554    5.1585    8.6397 C   0  0  0  0  0  0  0  0  0  0  0  0
    9.6696    5.8515    8.7798 H   0  0  0  0  0  0  0  0  0  0  0  0
    9.0890    3.8925    8.1380 C   0  0  0  0  0  0  0  0  0  0  0  0
   10.0891    3.5672    7.8945 H   0  0  0  0  0  0  0  0  0  0  0  0
    8.0204    3.0153    7.9610 C   0  0  0  0  0  0  0  0  0  0  0  0
    4.5629    1.9470    3.9265 C   0  0  0  0  0  0  0  0  0  0  0  0
    3.5254    2.8738    3.9653 C   0  0  0  0  0  0  0  0  0  0  0  0
    3.4848    3.5945    4.7705 H   0  0  0  0  0  0  0  0  0  0  0  0
    2.5437    2.8559    2.9926 C   0  0  0  0  0  0  0  0  0  0  0  0
    1.7350    3.5701    3.0352 H   0  0  0  0  0  0  0  0  0  0  0  0
    2.5949    1.9219    1.9708 C   0  0  0  0  0  0  0  0  0  0  0  0
    1.8255    1.9043    1.2128 H   0  0  0  0  0  0  0  0  0  0  0  0
    3.6334    1.0076    1.9231 C   0  0  0  0  0  0  0  0  0  0  0  0
    3.6772    0.2784    1.1268 H   0  0  0  0  0  0  0  0  0  0  0  0
    4.6192    1.0173    2.8940 C   0  0  0  0  0  0  0  0  0  0  0  0
    5.4206    0.2935    2.8476 H   0  0  0  0  0  0  0  0  0  0  0  0
    6.8388    0.5769    4.9455 C   0  0  0  0  0  0  0  0  0  0  0  0
    8.2060    0.5776    4.6973 C   0  0  0  0  0  0  0  0  0  0  0  0
    8.7321    1.5142    4.5740 H   0  0  0  0  0  0  0  0  0  0  0  0
    8.8931   -0.6211    4.6055 C   0  0  0  0  0  0  0  0  0  0  0  0
    9.9542   -0.6162    4.3999 H   0  0  0  0  0  0  0  0  0  0  0  0
    8.2274   -1.8232    4.7757 C   0  0  0  0  0  0  0  0  0  0  0  0
    8.7685   -2.7549    4.7030 H   0  0  0  0  0  0  0  0  0  0  0  0
    6.8671   -1.8286    5.0442 C   0  0  0  0  0  0  0  0  0  0  0  0
    6.3468   -2.7640    5.1865 H   0  0  0  0  0  0  0  0  0  0  0  0
    6.1756   -0.6362    5.1329 C   0  0  0  0  0  0  0  0  0  0  0  0
    5.1161   -0.6245    5.3561 H   0  0  0  0  0  0  0  0  0  0  0  0
    6.8274    3.4294    4.4660 C   0  0  0  0  0  0  0  0  0  0  0  0
    6.9228    4.6533    5.1166 C   0  0  0  0  0  0  0  0  0  0  0  0
    6.4115    4.7976    6.0574 H   0  0  0  0  0  0  0  0  0  0  0  0
    7.6347    5.6918    4.5415 C   0  0  0  0  0  0  0  0  0  0  0  0
    7.7062    6.6402    5.0530 H   0  0  0  0  0  0  0  0  0  0  0  0
    8.2440    5.5169    3.3108 C   0  0  0  0  0  0  0  0  0  0  0  0
    8.8017    6.3258    2.8624 H   0  0  0  0  0  0  0  0  0  0  0  0
    8.1210    4.3083    2.6419 C   0  0  0  0  0  0  0  0  0  0  0  0
    8.5751    4.1800    1.6700 H   0  0  0  0  0  0  0  0  0  0  0  0
    7.4103    3.2691    3.2112 C   0  0  0  0  0  0  0  0  0  0  0  0
    7.2963    2.3332    2.6817 H   0  0  0  0  0  0  0  0  0  0  0  0
  1  6  1  0  0  0  0
  1  9  1  0  0  0  0
  1  4  1  0  0  0  0
  2  1  1  0  0  0  0
  3  1  1  0  0  0  0
  5  1  1  0  0  0  0
  6 10  1  0  0  0  0
  7 18  1  0  0  0  0
  7 27  1  0  0  0  0
  8  7  1  0  0  0  0
  9 19  1  0  0  0  0
 10 11  1  0  0  0  0
 10 12  1  0  0  0  0
 12 13  1  0  0  0  0
 14 15  1  0  0  0  0
 14 12  2  0  0  0  0
 16 14  1  0  0  0  0
 17 16  1  0  0  0  0
 18  6  1  0  0  0  0
 18 16  2  0  0  0  0
 19 21  1  0  0  0  0
 19 20  1  0  0  0  0
 21 22  1  0  0  0  0
 23 24  1  0  0  0  0
 23 21  2  0  0  0  0
 25 23  1  0  0  0  0
 26 25  1  0  0  0  0
 27 25  2  0  0  0  0
 27  9  1  0  0  0  0
 28 29  1  0  0  0  0
 28  5  1  0  0  0  0
 29 30  1  0  0  0  0
 31 32  1  0  0  0  0
 31 29  2  0  0  0  0
 33 31  1  0  0  0  0
 34 33  1  0  0  0  0
 35 33  2  0  0  0  0
 35 37  1  0  0  0  0
 36 35  1  0  0  0  0
 37 28  2  0  0  0  0
 38 37  1  0  0  0  0
 39 48  1  0  0  0  0
 39  5  1  0  0  0  0
 40 39  2  0  0  0  0
 41 40  1  0  0  0  0
 42 40  1  0  0  0  0
 42 44  2  0  0  0  0
 43 42  1  0  0  0  0
 44 46  1  0  0  0  0
 45 44  1  0  0  0  0
 46 48  2  0  0  0  0
 46 47  1  0  0  0  0
 48 49  1  0  0  0  0
 50 51  1  0  0  0  0
 50  5  1  0  0  0  0
 51 52  1  0  0  0  0
 53 54  1  0  0  0  0
 53 51  2  0  0  0  0
 55 53  1  0  0  0  0
 56 55  1  0  0  0  0
 57 59  1  0  0  0  0
 57 55  2  0  0  0  0
 58 57  1  0  0  0  0
 59 50  2  0  0  0  0
 60 59  1  0  0  0  0
M  END
$$$$
