CSD_code = EBAYIS | q = 0 | S = 0 | Stoichiometry = C18H19AuClN3 | MND = 2
 OpenBabel04212202033D

 42 44  0  0  0  0  0  0  0  0999 V2000
    2.8514   -1.6701    7.3131 Au  0  0  0  0  0  0  0  0  0  0  0  0
    2.8372   -3.5540    6.0910 Cl  0  0  0  0  0  0  0  0  0  0  0  0
    4.0247    0.4819    8.9563 N   0  0  0  0  0  0  0  0  0  0  0  0
    2.8947   -0.0175    8.4092 C   0  0  0  0  0  0  0  0  0  0  0  0
    2.5702    1.8492    9.5461 N   0  0  0  0  0  0  0  0  0  0  0  0
    1.9265    0.9070    8.8087 C   0  0  0  0  0  0  0  0  0  0  0  0
    3.8483    1.5882    9.6381 N   0  0  0  0  0  2  0  0  0  0  0  0
    0.5014    0.9078    8.5159 C   0  0  0  0  0  0  0  0  0  0  0  0
    5.3139   -0.0912    8.8117 C   0  0  0  0  0  0  0  0  0  0  0  0
    7.8170   -1.2200    8.4505 C   0  0  0  0  0  0  0  0  0  0  0  0
   -0.1705    2.0749    8.1563 C   0  0  0  0  0  0  0  0  0  0  0  0
    0.3661    3.0082    8.0695 H   0  0  0  0  0  0  0  0  0  0  0  0
   -1.5206    2.0372    7.8605 C   0  0  0  0  0  0  0  0  0  0  0  0
   -2.0302    2.9461    7.5766 H   0  0  0  0  0  0  0  0  0  0  0  0
   -0.2011   -0.2961    8.5595 C   0  0  0  0  0  0  0  0  0  0  0  0
    0.3206   -1.2027    8.8242 H   0  0  0  0  0  0  0  0  0  0  0  0
   -1.5501   -0.3255    8.2636 C   0  0  0  0  0  0  0  0  0  0  0  0
   -2.0833   -1.2630    8.2987 H   0  0  0  0  0  0  0  0  0  0  0  0
    6.1402    0.3953    7.7984 C   0  0  0  0  0  0  0  0  0  0  0  0
    2.0348    2.9841   10.2411 C   0  0  0  0  0  0  0  0  0  0  0  0
    2.6532    3.1678   11.1186 H   0  0  0  0  0  0  0  0  0  0  0  0
    1.0075    2.7798   10.5387 H   0  0  0  0  0  0  0  0  0  0  0  0
    2.0592    3.8719    9.6066 H   0  0  0  0  0  0  0  0  0  0  0  0
   -2.2144    0.8403    7.9180 C   0  0  0  0  0  0  0  0  0  0  0  0
   -3.2680    0.8152    7.6847 H   0  0  0  0  0  0  0  0  0  0  0  0
    5.6626    1.4961    6.9024 C   0  0  0  0  0  0  0  0  0  0  0  0
    5.4138    2.3844    7.4831 H   0  0  0  0  0  0  0  0  0  0  0  0
    4.7689    1.1788    6.3635 H   0  0  0  0  0  0  0  0  0  0  0  0
    6.4275    1.7583    6.1773 H   0  0  0  0  0  0  0  0  0  0  0  0
    6.9698   -1.6793    9.4481 C   0  0  0  0  0  0  0  0  0  0  0  0
    7.2896   -2.4916   10.0842 H   0  0  0  0  0  0  0  0  0  0  0  0
    7.3884   -0.1813    7.6352 C   0  0  0  0  0  0  0  0  0  0  0  0
    8.0344    0.1806    6.8489 H   0  0  0  0  0  0  0  0  0  0  0  0
    9.1686   -1.8370    8.2685 C   0  0  0  0  0  0  0  0  0  0  0  0
    9.8211   -1.5609    9.0967 H   0  0  0  0  0  0  0  0  0  0  0  0
    9.6283   -1.5042    7.3419 H   0  0  0  0  0  0  0  0  0  0  0  0
    9.0913   -2.9221    8.2527 H   0  0  0  0  0  0  0  0  0  0  0  0
    4.8317   -1.6656   10.7360 C   0  0  0  0  0  0  0  0  0  0  0  0
    5.2544   -1.4211   11.7103 H   0  0  0  0  0  0  0  0  0  0  0  0
    4.7674   -2.7490   10.6593 H   0  0  0  0  0  0  0  0  0  0  0  0
    3.8245   -1.2611   10.6844 H   0  0  0  0  0  0  0  0  0  0  0  0
    5.7107   -1.1314    9.6471 C   0  0  0  0  0  0  0  0  0  0  0  0
  1  4  1  0  0  0  0
  2  1  1  0  0  0  0
  3  7  1  0  0  0  0
  4  6  2  0  0  0  0
  4  3  1  0  0  0  0
  5  7  1  0  0  0  0
  5 20  1  0  0  0  0
  6  5  1  0  0  0  0
  8 15  1  0  0  0  0
  8  6  1  0  0  0  0
  9  3  1  0  0  0  0
  9 42  1  0  0  0  0
 10 30  1  0  0  0  0
 11  8  2  0  0  0  0
 12 11  1  0  0  0  0
 13 24  2  0  0  0  0
 13 11  1  0  0  0  0
 14 13  1  0  0  0  0
 15 16  1  0  0  0  0
 17 18  1  0  0  0  0
 17 15  2  0  0  0  0
 19  9  2  0  0  0  0
 20 22  1  0  0  0  0
 20 21  1  0  0  0  0
 23 20  1  0  0  0  0
 24 17  1  0  0  0  0
 25 24  1  0  0  0  0
 26 27  1  0  0  0  0
 26 19  1  0  0  0  0
 28 26  1  0  0  0  0
 29 26  1  0  0  0  0
 30 42  2  0  0  0  0
 30 31  1  0  0  0  0
 32 19  1  0  0  0  0
 32 10  2  0  0  0  0
 33 32  1  0  0  0  0
 34 10  1  0  0  0  0
 34 35  1  0  0  0  0
 36 34  1  0  0  0  0
 37 34  1  0  0  0  0
 38 39  1  0  0  0  0
 40 38  1  0  0  0  0
 41 38  1  0  0  0  0
 42 38  1  0  0  0  0
M  END
$$$$
