CSD_code = EBECEV | q = -1 | S = 0 | Stoichiometry = C6H6Cl5N4OPt(1-) | MND = 6
 OpenBabel04212202033D

 23 24  0  0  1  0  0  0  0  0999 V2000
    0.6506    7.3528    3.6733 Pt  0  0  0  0  0  0  0  0  0  0  0  0
   -1.6753    7.2991    3.7429 Cl  0  0  0  0  0  0  0  0  0  0  0  0
    0.5995    9.6627    4.1235 Cl  0  0  0  0  0  0  0  0  0  0  0  0
    0.5811    7.7377    1.4199 Cl  0  0  0  0  0  0  0  0  0  0  0  0
    3.0587    7.3921    3.5538 Cl  0  0  0  0  0  0  0  0  0  0  0  0
    0.7272    4.9872    3.3851 Cl  0  0  0  0  0  0  0  0  0  0  0  0
    0.6772    6.9362    5.7506 N   0  0  0  0  0  0  0  0  0  0  0  0
    1.5379    6.1123    6.3343 C   0  0  1  0  0  3  0  0  0  0  0  0
   -0.0801    6.4562    7.7858 N   0  0  0  0  0  0  0  0  0  0  0  0
    2.6921    5.6290    5.8662 N   0  0  0  0  0  0  0  0  0  0  0  0
    3.0139    6.0039    4.9373 H   0  0  0  0  0  0  0  0  0  0  0  0
   -0.2948    7.1085    6.6838 C   0  0  0  0  0  0  0  0  0  0  0  0
   -1.1552    7.7244    6.5157 H   0  0  0  0  0  0  0  0  0  0  0  0
    2.9742    4.4277    7.8741 C   0  0  0  0  0  0  0  0  0  0  0  0
    3.5401    3.7409    8.4813 H   0  0  0  0  0  0  0  0  0  0  0  0
    4.6525    4.2485    6.0004 C   0  0  0  0  0  0  0  0  0  0  0  0
    5.2417    3.6748    6.7089 H   0  0  0  0  0  0  0  0  0  0  0  0
    5.2439    5.0754    5.6124 H   0  0  0  0  0  0  0  0  0  0  0  0
    4.3856    3.6132    5.1570 H   0  0  0  0  0  0  0  0  0  0  0  0
    3.4086    4.7690    6.6317 C   0  0  0  0  0  0  0  0  0  0  0  0
    1.0866    5.8094    7.5801 N   0  0  0  0  0  0  0  0  0  0  0  0
    1.3428    4.7029    9.5767 O   0  0  0  0  0  0  0  0  0  0  0  0
    1.7653    4.9397    8.4715 C   0  0  0  0  0  0  0  0  0  0  0  0
  1  2  1  0  0  0  0
  1  3  1  0  0  0  0
  1  7  1  0  0  0  0
  4  1  1  0  0  0  0
  5  1  1  0  0  0  0
  6  1  1  0  0  0  0
  7 12  1  0  0  0  0
  8  7  1  1  0  0  0
  8 21  1  0  0  0  0
 10  8  1  0  0  0  0
 10 20  1  0  0  0  0
 11 10  1  0  0  0  0
 12  9  2  0  0  0  0
 13 12  1  0  0  0  0
 14 23  1  0  0  0  0
 14 15  1  0  0  0  0
 16 20  1  0  0  0  0
 16 17  1  0  0  0  0
 18 16  1  0  0  0  0
 19 16  1  0  0  0  0
 20 14  2  0  0  0  0
 21  9  1  0  0  0  0
 21 23  1  0  0  0  0
 23 22  2  0  0  0  0
M  END
$$$$
