CSD_code = EBEGEA | q = 0 | S = 0 | Stoichiometry = C8H24Cl2N4Zn | MND = 4
 OpenBabel04212202033D

 39 38  0  0  0  0  0  0  0  0999 V2000
    4.9724   -3.2261   11.8022 Zn  0  0  0  0  0  0  0  0  0  0  0  0
    2.7795   -3.1697   11.5609 Cl  0  0  0  0  0  0  0  0  0  0  0  0
    6.4497   -3.8883   13.2858 Cl  0  0  0  0  0  0  0  0  0  0  0  0
    6.0759   -1.5369   10.9011 N   0  0  0  0  0  4  0  0  0  0  0  0
    5.9854   -0.6606   11.4185 H   0  0  0  0  0  0  0  0  0  0  0  0
    7.0348   -1.8671   11.0574 H   0  0  0  0  0  0  0  0  0  0  0  0
    5.8358   -1.2459    9.5198 N   0  0  0  0  0  0  0  0  0  0  0  0
    5.3907   -2.0591    9.0913 H   0  0  0  0  0  0  0  0  0  0  0  0
    5.2642   -4.5717   10.0249 N   0  0  0  0  0  4  0  0  0  0  0  0
    4.8497   -5.4842   10.2482 H   0  0  0  0  0  0  0  0  0  0  0  0
    6.2207   -4.7443    9.7159 H   0  0  0  0  0  0  0  0  0  0  0  0
    4.5573   -3.9177    8.9648 N   0  0  0  0  0  0  0  0  0  0  0  0
    3.7038   -3.5384    9.3835 H   0  0  0  0  0  0  0  0  0  0  0  0
    7.0100   -0.8584    8.7369 C   0  0  0  0  0  0  0  0  0  0  0  0
    7.6373    0.3933    9.3571 C   0  0  0  0  0  0  0  0  0  0  0  0
    6.8719    1.1502    9.5083 H   0  0  0  0  0  0  0  0  0  0  0  0
    8.3975    0.7965    8.6940 H   0  0  0  0  0  0  0  0  0  0  0  0
    8.1097    0.1738   10.3126 H   0  0  0  0  0  0  0  0  0  0  0  0
    6.4744   -0.5302    7.3417 C   0  0  0  0  0  0  0  0  0  0  0  0
    6.0383   -1.4154    6.8856 H   0  0  0  0  0  0  0  0  0  0  0  0
    7.2743   -0.1678    6.7022 H   0  0  0  0  0  0  0  0  0  0  0  0
    5.7050    0.2324    7.4137 H   0  0  0  0  0  0  0  0  0  0  0  0
    8.0509   -1.9852    8.6343 C   0  0  0  0  0  0  0  0  0  0  0  0
    8.4665   -2.2439    9.6074 H   0  0  0  0  0  0  0  0  0  0  0  0
    8.8735   -1.6768    7.9951 H   0  0  0  0  0  0  0  0  0  0  0  0
    7.5953   -2.8757    8.2056 H   0  0  0  0  0  0  0  0  0  0  0  0
    4.1771   -4.7596    7.8193 C   0  0  0  0  0  0  0  0  0  0  0  0
    3.3669   -3.8433    6.9004 C   0  0  0  0  0  0  0  0  0  0  0  0
    2.4481   -3.5345    7.3921 H   0  0  0  0  0  0  0  0  0  0  0  0
    3.1123   -4.3595    5.9792 H   0  0  0  0  0  0  0  0  0  0  0  0
    3.9404   -2.9529    6.6572 H   0  0  0  0  0  0  0  0  0  0  0  0
    5.4462   -5.2285    7.1014 C   0  0  0  0  0  0  0  0  0  0  0  0
    6.0664   -4.3740    6.8403 H   0  0  0  0  0  0  0  0  0  0  0  0
    5.1820   -5.7533    6.1879 H   0  0  0  0  0  0  0  0  0  0  0  0
    6.0279   -5.9094    7.7207 H   0  0  0  0  0  0  0  0  0  0  0  0
    3.3184   -5.9624    8.2344 C   0  0  0  0  0  0  0  0  0  0  0  0
    3.9042   -6.7177    8.7572 H   0  0  0  0  0  0  0  0  0  0  0  0
    2.8886   -6.4323    7.3542 H   0  0  0  0  0  0  0  0  0  0  0  0
    2.5068   -5.6364    8.8828 H   0  0  0  0  0  0  0  0  0  0  0  0
  1  3  1  0  0  0  0
  2  1  1  0  0  0  0
  4  6  1  0  0  0  0
  4  5  1  0  0  0  0
  4  1  1  0  0  0  0
  7  4  1  0  0  0  0
  8  7  1  0  0  0  0
  9 10  1  0  0  0  0
  9  1  1  0  0  0  0
 11  9  1  0  0  0  0
 12 13  1  0  0  0  0
 12  9  1  0  0  0  0
 14 15  1  0  0  0  0
 14  7  1  0  0  0  0
 15 16  1  0  0  0  0
 15 18  1  0  0  0  0
 17 15  1  0  0  0  0
 19 22  1  0  0  0  0
 19 14  1  0  0  0  0
 20 19  1  0  0  0  0
 21 19  1  0  0  0  0
 23 14  1  0  0  0  0
 23 24  1  0  0  0  0
 25 23  1  0  0  0  0
 26 23  1  0  0  0  0
 27 36  1  0  0  0  0
 27 12  1  0  0  0  0
 28 29  1  0  0  0  0
 28 27  1  0  0  0  0
 30 28  1  0  0  0  0
 31 28  1  0  0  0  0
 32 35  1  0  0  0  0
 32 27  1  0  0  0  0
 33 32  1  0  0  0  0
 34 32  1  0  0  0  0
 36 37  1  0  0  0  0
 36 39  1  0  0  0  0
 38 36  1  0  0  0  0
M  END
$$$$
