CSD_code = EBEYES | q = 0 | S = 0 | Stoichiometry = C16H15AuClNO | MND = 2
 OpenBabel04212202033D

 35 36  0  0  0  0  0  0  0  0999 V2000
   -5.4749    3.0231    1.5798 Au  0  0  0  0  0  0  0  0  0  0  0  0
   -3.8123    3.1126    2.4226 C   0  0  0  0  0  0  0  0  0  0  0  0
   -1.5674    3.1958    3.5591 C   0  0  0  0  0  0  0  0  0  0  0  0
   -0.4013    3.0705    2.8037 C   0  0  0  0  0  0  0  0  0  0  0  0
   -0.4706    2.9337    1.7353 H   0  0  0  0  0  0  0  0  0  0  0  0
    0.8219    3.1180    3.4360 C   0  0  0  0  0  0  0  0  0  0  0  0
    1.7229    3.0017    2.8536 H   0  0  0  0  0  0  0  0  0  0  0  0
    0.9140    3.2862    4.8201 C   0  0  0  0  0  0  0  0  0  0  0  0
   -0.2666    3.4091    5.5572 C   0  0  0  0  0  0  0  0  0  0  0  0
   -0.2140    3.5605    6.6244 H   0  0  0  0  0  0  0  0  0  0  0  0
   -1.4987    3.3668    4.9419 C   0  0  0  0  0  0  0  0  0  0  0  0
   -2.4095    3.4677    5.5122 H   0  0  0  0  0  0  0  0  0  0  0  0
    2.2201    3.3298    5.4826 C   0  0  0  0  0  0  0  0  0  0  0  0
    3.3104    3.9634    4.8812 C   0  0  0  0  0  0  0  0  0  0  0  0
    3.1854    4.4546    3.9279 H   0  0  0  0  0  0  0  0  0  0  0  0
    4.5356    4.0034    5.5040 C   0  0  0  0  0  0  0  0  0  0  0  0
    5.3768    4.5007    5.0477 H   0  0  0  0  0  0  0  0  0  0  0  0
    4.7228    3.3982    6.7508 C   0  0  0  0  0  0  0  0  0  0  0  0
    3.6421    2.7618    7.3563 C   0  0  0  0  0  0  0  0  0  0  0  0
    3.7487    2.2797    8.3152 H   0  0  0  0  0  0  0  0  0  0  0  0
    2.4115    2.7377    6.7277 C   0  0  0  0  0  0  0  0  0  0  0  0
    1.5928    2.2198    7.2052 H   0  0  0  0  0  0  0  0  0  0  0  0
    6.2376    2.8972    8.5277 C   0  0  0  0  0  0  0  0  0  0  0  0
    6.0300    1.8186    8.4928 H   0  0  0  0  0  0  0  0  0  0  0  0
    5.6040    3.3520    9.3020 H   0  0  0  0  0  0  0  0  0  0  0  0
    7.7090    3.1347    8.8497 C   0  0  0  0  0  0  0  0  0  0  0  0
    8.3138    2.6949    8.0554 H   0  0  0  0  0  0  0  0  0  0  0  0
    7.8954    4.2095    8.8546 H   0  0  0  0  0  0  0  0  0  0  0  0
    8.0881    2.5297   10.1944 C   0  0  0  0  0  0  0  0  0  0  0  0
    7.5026    2.9763   10.9949 H   0  0  0  0  0  0  0  0  0  0  0  0
    9.1405    2.7028   10.4013 H   0  0  0  0  0  0  0  0  0  0  0  0
    7.9097    1.4567   10.1963 H   0  0  0  0  0  0  0  0  0  0  0  0
   -7.4384    2.9056    0.5840 Cl  0  0  0  0  0  0  0  0  0  0  0  0
   -2.7738    3.1500    2.9468 N   0  0  0  0  0  2  0  0  0  0  0  0
    5.9689    3.4865    7.2699 O   0  0  0  0  0  0  0  0  0  0  0  0
  1  2  3  0  0  0  0
  2 34  1  0  0  0  0
  3 11  1  0  0  0  0
  4  6  1  0  0  0  0
  4  3  2  0  0  0  0
  5  4  1  0  0  0  0
  6  8  2  0  0  0  0
  7  6  1  0  0  0  0
  8 13  1  0  0  0  0
  8  9  1  0  0  0  0
  9 10  1  0  0  0  0
 11 12  1  0  0  0  0
 11  9  2  0  0  0  0
 13 21  1  0  0  0  0
 14 13  2  0  0  0  0
 14 16  1  0  0  0  0
 15 14  1  0  0  0  0
 16 18  2  0  0  0  0
 17 16  1  0  0  0  0
 18 35  1  0  0  0  0
 18 19  1  0  0  0  0
 19 20  1  0  0  0  0
 21 22  1  0  0  0  0
 21 19  2  0  0  0  0
 23 26  1  0  0  0  0
 23 25  1  0  0  0  0
 24 23  1  0  0  0  0
 26 28  1  0  0  0  0
 26 29  1  0  0  0  0
 27 26  1  0  0  0  0
 29 32  1  0  0  0  0
 29 31  1  0  0  0  0
 29 30  1  0  0  0  0
 33  1  1  0  0  0  0
 34  3  1  0  0  0  0
 35 23  1  0  0  0  0
M  END
$$$$
