CSD_code = EBEZET | q = 0 | S = 0 | Stoichiometry = C21H25AuClNO | MND = 2
 OpenBabel04212202033D

 50 51  0  0  0  0  0  0  0  0999 V2000
   20.8190    3.3461    5.9300 Au  0  0  0  0  0  0  0  0  0  0  0  0
   22.8937    3.3307    6.6769 Cl  0  0  0  0  0  0  0  0  0  0  0  0
    8.9079    3.9340    1.3206 O   0  0  0  0  0  0  0  0  0  0  0  0
   17.9804    3.4086    4.8723 N   0  0  0  0  0  2  0  0  0  0  0  0
   12.7723    3.6338    2.8183 C   0  0  0  0  0  0  0  0  0  0  0  0
   16.7189    3.4575    4.3838 C   0  0  0  0  0  0  0  0  0  0  0  0
   19.0670    3.3724    5.2880 C   0  0  0  0  0  0  0  0  0  0  0  0
   16.1973    2.3603    3.6981 C   0  0  0  0  0  0  0  0  0  0  0  0
   16.8015    1.4748    3.5712 H   0  0  0  0  0  0  0  0  0  0  0  0
   14.1300    3.5671    3.3650 C   0  0  0  0  0  0  0  0  0  0  0  0
   10.1839    3.7920    1.7469 C   0  0  0  0  0  0  0  0  0  0  0  0
   11.2035    3.1619    1.0378 C   0  0  0  0  0  0  0  0  0  0  0  0
   11.0193    2.7328    0.0656 H   0  0  0  0  0  0  0  0  0  0  0  0
   15.9506    4.6075    4.5666 C   0  0  0  0  0  0  0  0  0  0  0  0
   16.3697    5.4497    5.0958 H   0  0  0  0  0  0  0  0  0  0  0  0
   14.9158    2.4243    3.1958 C   0  0  0  0  0  0  0  0  0  0  0  0
   14.5065    1.5693    2.6799 H   0  0  0  0  0  0  0  0  0  0  0  0
   14.6699    4.6519    4.0608 C   0  0  0  0  0  0  0  0  0  0  0  0
   14.0826    5.5487    4.1847 H   0  0  0  0  0  0  0  0  0  0  0  0
   12.4742    3.0826    1.5755 C   0  0  0  0  0  0  0  0  0  0  0  0
   13.2557    2.6094    0.9994 H   0  0  0  0  0  0  0  0  0  0  0  0
    8.5461    3.4401    0.0453 C   0  0  0  0  0  0  0  0  0  0  0  0
    8.6868    2.3509    0.0068 H   0  0  0  0  0  0  0  0  0  0  0  0
    9.1724    3.9023   -0.7304 H   0  0  0  0  0  0  0  0  0  0  0  0
    7.0813    3.7896   -0.1917 C   0  0  0  0  0  0  0  0  0  0  0  0
    6.9650    4.8714   -0.1073 H   0  0  0  0  0  0  0  0  0  0  0  0
    6.4796    3.3285    0.5930 H   0  0  0  0  0  0  0  0  0  0  0  0
   11.7430    4.2619    3.5238 C   0  0  0  0  0  0  0  0  0  0  0  0
   11.9387    4.6730    4.5028 H   0  0  0  0  0  0  0  0  0  0  0  0
   10.4723    4.3338    3.0035 C   0  0  0  0  0  0  0  0  0  0  0  0
    9.6727    4.8095    3.5488 H   0  0  0  0  0  0  0  0  0  0  0  0
    6.6043    3.3192   -1.5625 C   0  0  0  0  0  0  0  0  0  0  0  0
    6.7207    2.2353   -1.6355 H   0  0  0  0  0  0  0  0  0  0  0  0
    7.2279    3.7710   -2.3378 H   0  0  0  0  0  0  0  0  0  0  0  0
    5.1442    3.6889   -1.8123 C   0  0  0  0  0  0  0  0  0  0  0  0
    4.5196    3.2350   -1.0398 H   0  0  0  0  0  0  0  0  0  0  0  0
    5.0288    4.7723   -1.7355 H   0  0  0  0  0  0  0  0  0  0  0  0
    3.2058    3.6011   -3.4391 C   0  0  0  0  0  0  0  0  0  0  0  0
    2.5780    3.1474   -2.6686 H   0  0  0  0  0  0  0  0  0  0  0  0
    3.0925    4.6850   -3.3604 H   0  0  0  0  0  0  0  0  0  0  0  0
    4.6641    3.2271   -3.1861 C   0  0  0  0  0  0  0  0  0  0  0  0
    4.7772    2.1430   -3.2630 H   0  0  0  0  0  0  0  0  0  0  0  0
    5.2914    3.6789   -3.9584 H   0  0  0  0  0  0  0  0  0  0  0  0
    2.7245    3.1438   -4.8139 C   0  0  0  0  0  0  0  0  0  0  0  0
    3.3502    3.5996   -5.5848 H   0  0  0  0  0  0  0  0  0  0  0  0
    2.8393    2.0603   -4.8938 H   0  0  0  0  0  0  0  0  0  0  0  0
    1.2678    3.5178   -5.0578 C   0  0  0  0  0  0  0  0  0  0  0  0
    0.6259    3.0590   -4.3089 H   0  0  0  0  0  0  0  0  0  0  0  0
    0.9445    3.1808   -6.0399 H   0  0  0  0  0  0  0  0  0  0  0  0
    1.1370    4.5965   -5.0047 H   0  0  0  0  0  0  0  0  0  0  0  0
  1  2  1  0  0  0  0
  3 11  1  0  0  0  0
  4  7  1  0  0  0  0
  5 10  1  0  0  0  0
  5 28  1  0  0  0  0
  6 14  1  0  0  0  0
  6  4  1  0  0  0  0
  7  1  3  0  0  0  0
  8  6  2  0  0  0  0
  9  8  1  0  0  0  0
 10 18  1  0  0  0  0
 11 30  1  0  0  0  0
 12 20  1  0  0  0  0
 12 11  2  0  0  0  0
 13 12  1  0  0  0  0
 14 15  1  0  0  0  0
 16 10  2  0  0  0  0
 16  8  1  0  0  0  0
 17 16  1  0  0  0  0
 18 19  1  0  0  0  0
 18 14  2  0  0  0  0
 20  5  2  0  0  0  0
 21 20  1  0  0  0  0
 22  3  1  0  0  0  0
 23 22  1  0  0  0  0
 24 22  1  0  0  0  0
 25 26  1  0  0  0  0
 25 22  1  0  0  0  0
 25 27  1  0  0  0  0
 28 29  1  0  0  0  0
 30 28  2  0  0  0  0
 30 31  1  0  0  0  0
 32 25  1  0  0  0  0
 33 32  1  0  0  0  0
 34 32  1  0  0  0  0
 35 37  1  0  0  0  0
 35 32  1  0  0  0  0
 35 36  1  0  0  0  0
 38 40  1  0  0  0  0
 38 41  1  0  0  0  0
 38 39  1  0  0  0  0
 41 35  1  0  0  0  0
 42 41  1  0  0  0  0
 43 41  1  0  0  0  0
 44 38  1  0  0  0  0
 45 44  1  0  0  0  0
 46 44  1  0  0  0  0
 47 50  1  0  0  0  0
 47 44  1  0  0  0  0
 47 48  1  0  0  0  0
 49 47  1  0  0  0  0
M  END
$$$$
