CSD_code = EBIJAA | q = 0 | S = 0 | Stoichiometry = C8H23Cl2O2P2Re | MND = 6
 OpenBabel04212202033D

 38 37  0  0  0  0  0  0  0  0999 V2000
   19.2940    2.5181    1.4734 Re  0  0  0  0  0  0  0  0  0  0  0  0
   17.3651    1.8585    2.7024 Cl  0  0  0  0  0  0  0  0  0  0  0  0
   21.3474    3.0507    0.3819 Cl  0  0  0  0  0  0  0  0  0  0  0  0
   19.6154    4.3093    3.1281 P   0  0  0  0  0  4  0  0  0  0  0  0
   18.7936    0.7252   -0.1352 P   0  0  0  0  0  4  0  0  0  0  0  0
   18.4276    3.5726    0.5273 O   0  0  0  0  0  1  0  0  0  0  0  0
   20.2627    1.4094    2.4782 O   0  0  0  0  0  0  0  0  0  0  0  0
   21.4030    0.8575    2.9858 C   0  0  0  0  0  0  0  0  0  0  0  0
   21.4596   -0.6592    2.7837 C   0  0  0  0  0  0  0  0  0  0  0  0
   18.3713    5.6144    2.8848 C   0  0  0  0  0  0  0  0  0  0  0  0
   21.2101    5.1933    3.1150 C   0  0  0  0  0  0  0  0  0  0  0  0
   19.3805    3.8040    4.8652 C   0  0  0  0  0  0  0  0  0  0  0  0
   20.1197    0.2364   -1.2881 C   0  0  0  0  0  0  0  0  0  0  0  0
   18.1937   -0.8376    0.5891 C   0  0  0  0  0  0  0  0  0  0  0  0
   17.4285    1.2411   -1.2226 C   0  0  0  0  0  0  0  0  0  0  0  0
   18.5085    6.4185    3.6067 H   0  0  0  0  0  0  0  0  0  0  0  0
   17.3833    5.1689    2.9947 H   0  0  0  0  0  0  0  0  0  0  0  0
   18.4656    5.9946    1.8685 H   0  0  0  0  0  0  0  0  0  0  0  0
   21.2013    6.0002    3.8466 H   0  0  0  0  0  0  0  0  0  0  0  0
   21.3753    5.5913    2.1152 H   0  0  0  0  0  0  0  0  0  0  0  0
   22.0147    4.4950    3.3385 H   0  0  0  0  0  0  0  0  0  0  0  0
   20.1949    3.1522    5.1762 H   0  0  0  0  0  0  0  0  0  0  0  0
   19.3514    4.6845    5.5057 H   0  0  0  0  0  0  0  0  0  0  0  0
   18.4409    3.2572    4.9388 H   0  0  0  0  0  0  0  0  0  0  0  0
   21.4652    1.0800    4.0661 H   0  0  0  0  0  0  0  0  0  0  0  0
   22.2659    1.3311    2.4809 H   0  0  0  0  0  0  0  0  0  0  0  0
   20.4707    1.1287   -1.8041 H   0  0  0  0  0  0  0  0  0  0  0  0
   19.7478   -0.4938   -2.0055 H   0  0  0  0  0  0  0  0  0  0  0  0
   20.9561   -0.1813   -0.7312 H   0  0  0  0  0  0  0  0  0  0  0  0
   17.3831   -0.6034    1.2785 H   0  0  0  0  0  0  0  0  0  0  0  0
   17.8350   -1.4970   -0.2001 H   0  0  0  0  0  0  0  0  0  0  0  0
   18.9939   -1.3258    1.1409 H   0  0  0  0  0  0  0  0  0  0  0  0
   16.5665    1.4764   -0.5995 H   0  0  0  0  0  0  0  0  0  0  0  0
   17.1806    0.4519   -1.9313 H   0  0  0  0  0  0  0  0  0  0  0  0
   17.7281    2.1463   -1.7488 H   0  0  0  0  0  0  0  0  0  0  0  0
   20.6015   -1.1303    3.2597 H   0  0  0  0  0  0  0  0  0  0  0  0
   21.4491   -0.8907    1.7203 H   0  0  0  0  0  0  0  0  0  0  0  0
   22.3723   -1.0545    3.2210 H   0  0  0  0  0  0  0  0  0  0  0  0
  1  7  1  0  0  0  0
  1  2  1  0  0  0  0
  1  4  1  0  0  0  0
  3  1  1  0  0  0  0
  4 12  1  0  0  0  0
  5 14  1  0  0  0  0
  5  1  1  0  0  0  0
  6  1  1  0  0  0  0
  7  8  1  0  0  0  0
  8 25  1  0  0  0  0
  9  8  1  0  0  0  0
  9 38  1  0  0  0  0
  9 36  1  0  0  0  0
 10 17  1  0  0  0  0
 10  4  1  0  0  0  0
 10 16  1  0  0  0  0
 11  4  1  0  0  0  0
 11 21  1  0  0  0  0
 11 19  1  0  0  0  0
 12 24  1  0  0  0  0
 12 22  1  0  0  0  0
 12 23  1  0  0  0  0
 13 29  1  0  0  0  0
 13  5  1  0  0  0  0
 14 32  1  0  0  0  0
 14 30  1  0  0  0  0
 15 33  1  0  0  0  0
 15  5  1  0  0  0  0
 18 10  1  0  0  0  0
 20 11  1  0  0  0  0
 26  8  1  0  0  0  0
 27 13  1  0  0  0  0
 28 13  1  0  0  0  0
 31 14  1  0  0  0  0
 34 15  1  0  0  0  0
 35 15  1  0  0  0  0
 37  9  1  0  0  0  0
M  END
$$$$
