CSD_code = EBOHAE | q = 0 | S = 0 | Stoichiometry = C22H31Cl2OPPdS | MND = 4
 OpenBabel04212202033D

 59 61  0  0  1  0  0  0  0  0999 V2000
    5.2495   12.3519    3.5745 Pd  0  0  0  0  0  0  0  0  0  0  0  0
    4.3959   13.6861    1.8720 S   0  0  1  0  0  3  0  0  0  0  0  0
    6.5551   11.1149    2.2449 P   0  0  0  0  0  4  0  0  0  0  0  0
    6.2412   11.3376    5.3289 Cl  0  0  0  0  0  0  0  0  0  0  0  0
    3.6165   13.2480    4.8882 Cl  0  0  0  0  0  0  0  0  0  0  0  0
    5.7713   14.9581    1.8681 C   0  0  0  0  0  0  0  0  0  0  0  0
    5.9504    9.4005    2.4649 C   0  0  0  0  0  0  0  0  0  0  0  0
    4.2211    7.9292    3.2501 C   0  0  0  0  0  0  0  0  0  0  0  0
    4.9071    6.8486    2.7194 C   0  0  0  0  0  0  0  0  0  0  0  0
    6.6330    8.3153    1.9284 C   0  0  0  0  0  0  0  0  0  0  0  0
    4.7388    9.2066    3.1239 C   0  0  0  0  0  0  0  0  0  0  0  0
    6.2365   11.3847    0.6683 O   0  0  0  0  0  0  0  0  0  0  0  0
    2.5308   14.4633   -0.5041 C   0  0  0  0  0  0  0  0  0  0  0  0
    9.0283   10.6989    3.3454 C   0  0  0  0  0  0  0  0  0  0  0  0
    4.3763   12.8861    0.2050 C   0  0  2  0  0  0  0  0  0  0  0  0
    8.3506   10.9352    2.1529 C   0  0  0  0  0  0  0  0  0  0  0  0
    9.0499   11.0314    0.9558 C   0  0  0  0  0  0  0  0  0  0  0  0
    2.9418   13.0011   -0.3443 C   0  0  0  0  0  0  0  0  0  0  0  0
   10.4019   10.5425    3.3326 C   0  0  0  0  0  0  0  0  0  0  0  0
    4.8615   11.4316    0.2910 C   0  0  1  0  0  0  0  0  0  0  0  0
    5.3459   16.1069    0.9638 C   0  0  0  0  0  0  0  0  0  0  0  0
    7.1070   14.3753    1.4342 C   0  0  0  0  0  0  0  0  0  0  0  0
    6.1105    7.0413    2.0592 C   0  0  0  0  0  0  0  0  0  0  0  0
   10.4243   10.8724    0.9530 C   0  0  0  0  0  0  0  0  0  0  0  0
    5.8470   15.4177    3.3245 C   0  0  0  0  0  0  0  0  0  0  0  0
    1.9389   12.2703    0.5481 C   0  0  0  0  0  0  0  0  0  0  0  0
    4.7554   10.6788   -1.0322 C   0  0  0  0  0  0  0  0  0  0  0  0
   11.0996   10.6260    2.1374 C   0  0  0  0  0  0  0  0  0  0  0  0
    3.2861    7.7760    3.7679 H   0  0  0  0  0  0  0  0  0  0  0  0
    4.5053    5.8517    2.8245 H   0  0  0  0  0  0  0  0  0  0  0  0
    7.5728    8.4755    1.4176 H   0  0  0  0  0  0  0  0  0  0  0  0
    4.2050   10.0603    3.5669 H   0  0  0  0  0  0  0  0  0  0  0  0
    1.5511   14.5200   -0.9713 H   0  0  0  0  0  0  0  0  0  0  0  0
    3.2363   15.0011   -1.1331 H   0  0  0  0  0  0  0  0  0  0  0  0
    2.4747   14.9523    0.4641 H   0  0  0  0  0  0  0  0  0  0  0  0
    8.4658   10.6490    4.2680 H   0  0  0  0  0  0  0  0  0  0  0  0
    5.0639   13.4524   -0.4259 H   0  0  0  0  0  0  0  0  0  0  0  0
    8.5162   11.2241    0.0378 H   0  0  0  0  0  0  0  0  0  0  0  0
    2.9325   12.5465   -1.3405 H   0  0  0  0  0  0  0  0  0  0  0  0
   10.9299   10.3567    4.2557 H   0  0  0  0  0  0  0  0  0  0  0  0
    4.2583   10.9097    1.0524 H   0  0  0  0  0  0  0  0  0  0  0  0
    6.0722   16.9150    1.0287 H   0  0  0  0  0  0  0  0  0  0  0  0
    4.3767   16.4932    1.2687 H   0  0  0  0  0  0  0  0  0  0  0  0
    5.2848   15.7916   -0.0751 H   0  0  0  0  0  0  0  0  0  0  0  0
    7.8544   15.1680    1.4200 H   0  0  0  0  0  0  0  0  0  0  0  0
    7.0636   13.9378    0.4391 H   0  0  0  0  0  0  0  0  0  0  0  0
    7.4430   13.6091    2.1409 H   0  0  0  0  0  0  0  0  0  0  0  0
    6.6442    6.1960    1.6499 H   0  0  0  0  0  0  0  0  0  0  0  0
   10.9703   10.9404    0.0232 H   0  0  0  0  0  0  0  0  0  0  0  0
    6.5303   16.2611    3.4115 H   0  0  0  0  0  0  0  0  0  0  0  0
    6.2133   14.6044    3.9801 H   0  0  0  0  0  0  0  0  0  0  0  0
    4.8642   15.7253    3.6821 H   0  0  0  0  0  0  0  0  0  0  0  0
    2.0760   11.1926    0.5071 H   0  0  0  0  0  0  0  0  0  0  0  0
    0.9254   12.4929    0.2249 H   0  0  0  0  0  0  0  0  0  0  0  0
    2.0432   12.5944    1.5826 H   0  0  0  0  0  0  0  0  0  0  0  0
    5.2706    9.7266   -0.9282 H   0  0  0  0  0  0  0  0  0  0  0  0
    5.2322   11.2450   -1.8287 H   0  0  0  0  0  0  0  0  0  0  0  0
    3.7206   10.4843   -1.2934 H   0  0  0  0  0  0  0  0  0  0  0  0
   12.1726   10.5021    2.1287 H   0  0  0  0  0  0  0  0  0  0  0  0
  1  5  1  0  0  0  0
  1  4  1  0  0  0  0
  2  6  1  6  0  0  0
  2  1  1  0  0  0  0
  3  7  1  0  0  0  0
  3  1  1  0  0  0  0
  6 25  1  0  0  0  0
  7 11  1  0  0  0  0
  8 29  1  0  0  0  0
  9 30  1  0  0  0  0
  9  8  1  0  0  0  0
 10 23  1  0  0  0  0
 10  7  2  0  0  0  0
 11  8  2  0  0  0  0
 11 32  1  0  0  0  0
 12  3  1  0  0  0  0
 13 18  1  0  0  0  0
 13 35  1  0  0  0  0
 14 36  1  0  0  0  0
 15 37  1  6  0  0  0
 15 20  1  0  0  0  0
 15  2  1  0  0  0  0
 16  3  1  0  0  0  0
 16 14  2  0  0  0  0
 17 16  1  0  0  0  0
 18 15  1  0  0  0  0
 18 26  1  0  0  0  0
 19 14  1  0  0  0  0
 19 40  1  0  0  0  0
 20 12  1  0  0  0  0
 20 41  1  1  0  0  0
 21 42  1  0  0  0  0
 21 43  1  0  0  0  0
 21  6  1  0  0  0  0
 22  6  1  0  0  0  0
 22 47  1  0  0  0  0
 23  9  2  0  0  0  0
 24 17  2  0  0  0  0
 24 28  1  0  0  0  0
 25 50  1  0  0  0  0
 25 52  1  0  0  0  0
 25 51  1  0  0  0  0
 26 55  1  0  0  0  0
 27 56  1  0  0  0  0
 27 20  1  0  0  0  0
 28 19  2  0  0  0  0
 31 10  1  0  0  0  0
 33 13  1  0  0  0  0
 34 13  1  0  0  0  0
 38 17  1  0  0  0  0
 39 18  1  0  0  0  0
 44 21  1  0  0  0  0
 45 22  1  0  0  0  0
 46 22  1  0  0  0  0
 48 23  1  0  0  0  0
 49 24  1  0  0  0  0
 53 26  1  0  0  0  0
 54 26  1  0  0  0  0
 57 27  1  0  0  0  0
 58 27  1  0  0  0  0
 59 28  1  0  0  0  0
M  END
$$$$
