CSD_code = EBOYID | q = 0 | S = 0 | Stoichiometry = C15H19ClTi | MND = 12
 OpenBabel04212202033D

 36 35  0  0  1  0  0  0  0  0999 V2000
    0.9706    8.4950    7.0379 Ti  0  0  0  0  0  0  0  0  0  0  0  0
   -0.9988    7.5534    7.4113 Cl  0  0  0  0  0 15  0  0  0  0  0  0
    1.0943   10.3876    7.9090 C   0  0  1  0  0  0  0  0  0  0  0  0
    1.9975   10.5931    6.8009 C   0  0  0  0  0  0  0  0  0  0  0  0
    3.0589   10.7790    6.9049 H   0  0  0  0  0  0  0  0  0  0  0  0
    1.2690   10.6181    5.6190 C   0  0  0  0  0  0  0  0  0  0  0  0
    1.6632   10.8113    4.6308 H   0  0  0  0  0  0  0  0  0  0  0  0
   -0.0992   10.4477    5.9370 C   0  0  0  0  0  0  0  0  0  0  0  0
   -0.9192   10.5099    5.2326 H   0  0  0  0  0  0  0  0  0  0  0  0
   -0.2295   10.3633    7.3278 C   0  0  0  0  0  0  0  0  0  0  0  0
   -1.1735   10.3664    7.8521 H   0  0  0  0  0  0  0  0  0  0  0  0
    1.5324    9.4704    8.9240 C   0  0  0  0  0  3  0  0  0  0  0  0
    2.6239    9.4736    9.0468 H   0  0  0  0  0  0  0  0  0  0  0  0
    0.8621    9.1718   10.2565 C   0  0  0  0  0  0  0  0  0  0  0  0
   -0.6153    9.5596   10.3219 C   0  0  0  0  0  0  0  0  0  0  0  0
   -0.9990    9.3548   11.3198 H   0  0  0  0  0  0  0  0  0  0  0  0
   -1.1961    8.9739    9.6123 H   0  0  0  0  0  0  0  0  0  0  0  0
   -0.7444   10.6215   10.1230 H   0  0  0  0  0  0  0  0  0  0  0  0
    1.6174    9.9477   11.3499 C   0  0  0  0  0  0  0  0  0  0  0  0
    1.1743    9.7543   12.3243 H   0  0  0  0  0  0  0  0  0  0  0  0
    1.5682   11.0170   11.1550 H   0  0  0  0  0  0  0  0  0  0  0  0
    2.6638    9.6511   11.3867 H   0  0  0  0  0  0  0  0  0  0  0  0
    0.9900    7.6639   10.5233 C   0  0  0  0  0  0  0  0  0  0  0  0
    0.5500    7.4126   11.4861 H   0  0  0  0  0  0  0  0  0  0  0  0
    2.0362    7.3610   10.5364 H   0  0  0  0  0  0  0  0  0  0  0  0
    0.4663    7.1079    9.7421 H   0  0  0  0  0  0  0  0  0  0  0  0
    1.7019    6.2924    7.0523 C   0  0  0  0  0  0  0  0  0  0  0  0
    1.2814    5.4933    7.6510 H   0  0  0  0  0  0  0  0  0  0  0  0
    1.3260    6.6137    5.7297 C   0  0  0  0  0  0  0  0  0  0  0  0
    0.5659    6.1046    5.1480 H   0  0  0  0  0  0  0  0  0  0  0  0
    2.1847    7.6288    5.2659 C   0  0  0  0  0  0  0  0  0  0  0  0
    2.2147    8.0184    4.2557 H   0  0  0  0  0  0  0  0  0  0  0  0
    3.0961    7.9334    6.2976 C   0  0  0  0  0  0  0  0  0  0  0  0
    3.9677    8.5670    6.2029 H   0  0  0  0  0  0  0  0  0  0  0  0
    2.7896    7.1170    7.4110 C   0  0  0  0  0  3  0  0  0  0  0  0
    3.3885    7.0184    8.3075 H   0  0  0  0  0  0  0  0  0  0  0  0
  3  1  1  6  0  0  0
  3 12  1  0  0  0  0
  4  5  1  0  0  0  0
  4  3  1  0  0  0  0
  6  8  1  0  0  0  0
  6  4  2  0  0  0  0
  7  6  1  0  0  0  0
  8 10  2  0  0  0  0
  9  8  1  0  0  0  0
 10 11  1  0  0  0  0
 10  3  1  0  0  0  0
 12 13  1  0  0  0  0
 12 14  1  0  0  0  0
 14 15  1  0  0  0  0
 14 23  1  0  0  0  0
 14 19  1  0  0  0  0
 15 16  1  0  0  0  0
 17 15  1  0  0  0  0
 18 15  1  0  0  0  0
 19 22  1  0  0  0  0
 19 20  1  0  0  0  0
 21 19  1  0  0  0  0
 23 25  1  0  0  0  0
 23 24  1  0  0  0  0
 26 23  1  0  0  0  0
 27 35  1  0  0  0  0
 27 28  1  0  0  0  0
 29 27  2  0  0  0  0
 30 29  1  0  0  0  0
 31 29  1  0  0  0  0
 31 33  2  0  0  0  0
 32 31  1  0  0  0  0
 33 35  1  0  0  0  0
 34 33  1  0  0  0  0
 35 36  1  0  0  0  0
M  END
$$$$
