CSD_code = EBUFUD | q = 0 | S = 0 | Stoichiometry = C17H30Cl2N2Zr | MND = 9
 OpenBabel04212202033D

 52 53  0  0  1  0  0  0  0  0999 V2000
    2.0635    7.4775    9.6830 Zr  0  0  0  0  0  0  0  0  0  0  0  0
    3.9884    7.3503   11.0164 Cl  0  0  0  0  0  0  0  0  0  0  0  0
    1.1186    5.7498   10.9615 Cl  0  0  0  0  0  0  0  0  0  0  0  0
    0.1920    8.5066    9.9892 N   0  0  0  0  0  0  0  0  0  0  0  0
    2.1272    9.6039   10.0376 N   0  0  0  0  0  0  0  0  0  0  0  0
    1.7070    7.8750    7.3137 C   0  0  0  0  0  0  0  0  0  0  0  0
    3.1155    7.9086    7.5309 C   0  0  0  0  0  0  0  0  0  0  0  0
    3.5336    6.6099    7.9344 C   0  0  0  0  0  0  0  0  0  0  0  0
    2.3814    5.7755    7.9859 C   0  0  0  0  0  0  0  0  0  0  0  0
    1.2506    6.5568    7.6053 C   0  0  1  0  0  0  0  0  0  0  0  0
    0.8947    9.0276    6.7878 C   0  0  0  0  0  0  0  0  0  0  0  0
    0.9648    9.8936    7.4509 H   0  0  0  0  0  0  0  0  0  0  0  0
   -0.1537    8.7529    6.6941 H   0  0  0  0  0  0  0  0  0  0  0  0
    1.2542    9.3249    5.8005 H   0  0  0  0  0  0  0  0  0  0  0  0
    4.0248    9.0834    7.2991 C   0  0  0  0  0  0  0  0  0  0  0  0
    4.7752    9.1477    8.0897 H   0  0  0  0  0  0  0  0  0  0  0  0
    3.4570   10.0120    7.2817 H   0  0  0  0  0  0  0  0  0  0  0  0
    4.5488    8.9851    6.3452 H   0  0  0  0  0  0  0  0  0  0  0  0
    4.9509    6.1549    8.1418 C   0  0  0  0  0  0  0  0  0  0  0  0
    5.0029    5.3843    8.9115 H   0  0  0  0  0  0  0  0  0  0  0  0
    5.5865    6.9846    8.4485 H   0  0  0  0  0  0  0  0  0  0  0  0
    5.3547    5.7378    7.2156 H   0  0  0  0  0  0  0  0  0  0  0  0
    2.3917    4.3042    8.2985 C   0  0  0  0  0  0  0  0  0  0  0  0
    2.7964    3.7375    7.4564 H   0  0  0  0  0  0  0  0  0  0  0  0
    1.3853    3.9439    8.5040 H   0  0  0  0  0  0  0  0  0  0  0  0
    3.0120    4.0990    9.1744 H   0  0  0  0  0  0  0  0  0  0  0  0
   -0.1587    6.0343    7.5236 C   0  0  0  0  0  0  0  0  0  0  0  0
   -0.8689    6.8468    7.3800 H   0  0  0  0  0  0  0  0  0  0  0  0
   -0.4193    5.5061    8.4449 H   0  0  0  0  0  0  0  0  0  0  0  0
   -0.2652    5.3372    6.6895 H   0  0  0  0  0  0  0  0  0  0  0  0
    0.8607    9.5633   10.4004 C   0  0  0  0  0  3  0  0  0  0  0  0
    0.3926   10.3633   10.9936 H   0  0  0  0  0  0  0  0  0  0  0  0
   -1.1824    8.2893   10.4254 C   0  0  0  0  0  0  0  0  0  0  0  0
   -1.4780    7.3220    9.9959 H   0  0  0  0  0  0  0  0  0  0  0  0
   -2.1215    9.3731    9.8840 C   0  0  0  0  0  0  0  0  0  0  0  0
   -1.8975   10.3397   10.3298 H   0  0  0  0  0  0  0  0  0  0  0  0
   -3.1531    9.1196   10.1134 H   0  0  0  0  0  0  0  0  0  0  0  0
   -2.0114    9.4573    8.8048 H   0  0  0  0  0  0  0  0  0  0  0  0
   -1.2735    8.1793   11.9525 C   0  0  0  0  0  0  0  0  0  0  0  0
   -0.5552    7.4387   12.3053 H   0  0  0  0  0  0  0  0  0  0  0  0
   -2.2716    7.8637   12.2454 H   0  0  0  0  0  0  0  0  0  0  0  0
   -1.0595    9.1344   12.4290 H   0  0  0  0  0  0  0  0  0  0  0  0
    3.0053   10.6476   10.5545 C   0  0  0  0  0  0  0  0  0  0  0  0
    4.0054   10.4103   10.1650 H   0  0  0  0  0  0  0  0  0  0  0  0
    2.5967   12.0334   10.0421 C   0  0  0  0  0  0  0  0  0  0  0  0
    2.5417   12.0305    8.9553 H   0  0  0  0  0  0  0  0  0  0  0  0
    3.3282   12.7747   10.3528 H   0  0  0  0  0  0  0  0  0  0  0  0
    1.6249   12.3224   10.4365 H   0  0  0  0  0  0  0  0  0  0  0  0
    3.0709   10.6138   12.0866 C   0  0  0  0  0  0  0  0  0  0  0  0
    2.1248   10.9231   12.5276 H   0  0  0  0  0  0  0  0  0  0  0  0
    3.8514   11.2818   12.4420 H   0  0  0  0  0  0  0  0  0  0  0  0
    3.3011    9.6003   12.4173 H   0  0  0  0  0  0  0  0  0  0  0  0
  1  4  1  0  0  0  0
  1  5  1  0  0  0  0
  1  3  1  0  0  0  0
  1  2  1  0  0  0  0
  4 31  1  0  0  0  0
  4 33  1  0  0  0  0
  5 31  1  0  0  0  0
  5 43  1  0  0  0  0
  6  7  2  0  0  0  0
  6 10  1  0  0  0  0
  7  8  1  0  0  0  0
  8  9  2  0  0  0  0
  8 19  1  0  0  0  0
  9 23  1  0  0  0  0
 10 27  1  6  0  0  0
 10  9  1  0  0  0  0
 10  1  1  0  0  0  0
 11  6  1  0  0  0  0
 11 12  1  0  0  0  0
 13 11  1  0  0  0  0
 14 11  1  0  0  0  0
 15  7  1  0  0  0  0
 15 16  1  0  0  0  0
 17 15  1  0  0  0  0
 18 15  1  0  0  0  0
 19 21  1  0  0  0  0
 19 20  1  0  0  0  0
 22 19  1  0  0  0  0
 23 25  1  0  0  0  0
 23 26  1  0  0  0  0
 24 23  1  0  0  0  0
 27 29  1  0  0  0  0
 28 27  1  0  0  0  0
 30 27  1  0  0  0  0
 31 32  1  0  0  0  0
 33 39  1  0  0  0  0
 34 33  1  0  0  0  0
 35 37  1  0  0  0  0
 35 36  1  0  0  0  0
 35 33  1  0  0  0  0
 38 35  1  0  0  0  0
 39 41  1  0  0  0  0
 39 40  1  0  0  0  0
 39 42  1  0  0  0  0
 43 49  1  0  0  0  0
 44 43  1  0  0  0  0
 45 47  1  0  0  0  0
 45 48  1  0  0  0  0
 45 43  1  0  0  0  0
 46 45  1  0  0  0  0
 49 52  1  0  0  0  0
 49 51  1  0  0  0  0
 49 50  1  0  0  0  0
M  END
$$$$
