CSD_code = ECAJIB | q = 0 | S = 0 | Stoichiometry = C10H14CdI2N2O5 | MND = 6
 OpenBabel04212202033D

 34 32  0  0  0  0  0  0  0  0999 V2000
    2.5732    4.0766    4.1658 I   0  0  0  0  0  0  0  0  0  0  0  0
    0.6425    8.5184    5.2820 I   0  0  0  0  0  0  0  0  0  0  0  0
    2.5497    6.6602    4.9060 Cd  0  0  0  0  0  0  0  0  0  0  0  0
    2.4624    5.9849    7.3580 O   0  0  0  0  0  0  0  0  0  0  0  0
   -6.5212    7.4368   10.3304 O   0  5  0  0  0  0  0  0  0  0  0  0
    4.8481    7.3361    5.5427 O   0  0  0  0  0  0  0  0  0  0  0  0
    5.0496    4.9709    6.7869 O   0  0  0  0  0  0  0  0  0  0  0  0
    3.4870    7.3488    2.6130 O   0  0  0  0  0  0  0  0  0  0  0  0
    1.2731    6.1246    7.8235 N   0  0  0  0  0  0  0  0  0  0  0  0
   -5.3434    7.2371    9.9632 N   0  3  0  0  0  0  0  0  0  0  0  0
    0.2803    5.3153    7.4080 C   0  0  0  0  0  3  0  0  0  0  0  0
    0.5620    4.5345    6.7139 H   0  0  0  0  0  0  0  0  0  0  0  0
   -1.0125    5.5021    7.8269 C   0  0  0  0  0  0  0  0  0  0  0  0
   -1.7759    4.8338    7.4630 H   0  0  0  0  0  0  0  0  0  0  0  0
   -1.3298    6.5319    8.7178 C   0  0  0  0  0  0  0  0  0  0  0  0
   -0.2691    7.3253    9.1637 C   0  0  0  0  0  0  0  0  0  0  0  0
   -0.4427    8.1490    9.8364 H   0  0  0  0  0  0  0  0  0  0  0  0
    1.0042    7.1050    8.7042 C   0  0  0  0  0  0  0  0  0  0  0  0
    1.8441    7.7219    8.9864 H   0  0  0  0  0  0  0  0  0  0  0  0
   -2.7018    6.7740    9.1476 C   0  0  0  0  0  0  0  0  0  0  0  0
   -3.7851    6.5597    8.2895 C   0  0  0  0  0  0  0  0  0  0  0  0
   -3.6228    6.2357    7.2741 H   0  0  0  0  0  0  0  0  0  0  0  0
   -5.0667    6.8005    8.7091 C   0  0  0  0  0  0  0  0  0  0  0  0
   -5.9271    6.6604    8.0730 H   0  0  0  0  0  0  0  0  0  0  0  0
   -4.3044    7.4508   10.8083 C   0  0  0  0  0  0  0  0  0  0  0  0
   -4.5798    7.7962   11.7929 H   0  0  0  0  0  0  0  0  0  0  0  0
   -3.0044    7.2390   10.4308 C   0  0  0  0  0  0  0  0  0  0  0  0
   -2.2211    7.4101   11.1521 H   0  0  0  0  0  0  0  0  0  0  0  0
    4.2147    5.0935    7.2603 H   0  0  0  0  0  0  0  0  0  0  0  0
    3.9691    6.6634    2.1387 H   0  0  0  0  0  0  0  0  0  0  0  0
    5.0184    8.0182    6.1988 H   0  0  0  0  0  0  0  0  0  0  0  0
    3.8432    8.1967    2.3340 H   0  0  0  0  0  0  0  0  0  0  0  0
    4.9146    4.2150    6.2048 H   0  0  0  0  0  0  0  0  0  0  0  0
    5.1289    6.4901    5.9671 H   0  0  0  0  0  0  0  0  0  0  0  0
  1  3  1  0  0  0  0
  3  2  1  0  0  0  0
  3  4  1  0  0  0  0
  4  9  1  0  0  0  0
  6 34  1  0  0  0  0
  6 31  1  0  0  0  0
  7 29  1  0  0  0  0
  9 18  1  0  0  0  0
 10  5  1  0  0  0  0
 10 25  1  0  0  0  0
 11  9  1  0  0  0  0
 11 13  1  0  0  0  0
 12 11  1  0  0  0  0
 13 15  2  0  0  0  0
 14 13  1  0  0  0  0
 15 20  1  0  0  0  0
 15 16  1  0  0  0  0
 16 17  1  0  0  0  0
 18 19  1  0  0  0  0
 18 16  2  0  0  0  0
 20 27  1  0  0  0  0
 21 23  1  0  0  0  0
 21 20  2  0  0  0  0
 22 21  1  0  0  0  0
 23 10  2  0  0  0  0
 24 23  1  0  0  0  0
 25 26  1  0  0  0  0
 27 25  2  0  0  0  0
 27 28  1  0  0  0  0
 30  8  1  0  0  0  0
 32  8  1  0  0  0  0
 33  7  1  0  0  0  0
M  CHG  2   5  -1  10   1
M  END
$$$$
