CSD_code = ECAKUO | q = 0 | S = 0 | Stoichiometry = C21H12ClN6O3Re | MND = 6
 OpenBabel04212202033D

 44 48  0  0  1  0  0  0  0  0999 V2000
    0.3694    2.0411   12.2096 Re  0  0  0  0  0  0  0  0  0  0  0  0
   -1.9151    1.5582   12.7759 Cl  0  0  0  0  0  0  0  0  0  0  0  0
    1.2480    1.8381   15.1626 O   0  0  0  0  0  1  0  0  0  0  0  0
    3.2106    2.5420   11.1046 O   0  0  0  0  0  1  0  0  0  0  0  0
   -0.4526    5.0050   12.5134 O   0  0  0  0  0  1  0  0  0  0  0  0
   -2.0477    2.3838    8.5369 N   0  0  0  0  0  0  0  0  0  0  0  0
   -2.1838    0.2349    9.4496 N   0  0  0  0  0  0  0  0  0  0  0  0
   -0.5911    1.7747   10.2699 N   0  0  0  0  0  0  0  0  0  0  0  0
    0.3817   -0.0732   11.9243 N   0  0  0  0  0  0  0  0  0  0  0  0
   -4.1548    1.8311    6.9277 N   0  0  0  0  0  0  0  0  0  0  0  0
    0.7530    4.1322    9.8797 N   0  0  0  0  0  0  0  0  0  0  0  0
   -1.0261    2.6313    9.3437 C   0  0  1  0  0  3  0  0  0  0  0  0
   -2.6368    1.2038    8.6555 C   0  0  0  0  0  0  0  0  0  0  0  0
   -1.1878    0.5666   10.2522 C   0  0  0  0  0  0  0  0  0  0  0  0
   -0.3554    3.9265    9.1736 C   0  0  0  0  0  0  0  0  0  0  0  0
   -0.8787    4.8709    8.2912 C   0  0  0  0  0  0  0  0  0  0  0  0
   -0.2107    6.0754    8.1549 C   0  0  0  0  0  0  0  0  0  0  0  0
    0.9464    6.2875    8.8895 C   0  0  0  0  0  0  0  0  0  0  0  0
    1.3864    5.2790    9.7374 C   0  0  0  0  0  0  0  0  0  0  0  0
   -3.8339    0.9341    7.8558 C   0  0  0  0  0  0  0  0  0  0  0  0
   -4.5905   -0.2143    8.0922 C   0  0  0  0  0  0  0  0  0  0  0  0
   -5.7233   -0.4249    7.3256 C   0  0  0  0  0  0  0  0  0  0  0  0
   -6.0562    0.5095    6.3576 C   0  0  0  0  0  0  0  0  0  0  0  0
   -5.2331    1.6196    6.2038 C   0  0  0  0  0  0  0  0  0  0  0  0
   -0.5998   -0.4715   11.0984 C   0  0  1  0  0  3  0  0  0  0  0  0
   -1.0069   -1.7982   10.9964 C   0  0  0  0  0  0  0  0  0  0  0  0
   -0.3803   -2.7479   11.7791 C   0  0  0  0  0  0  0  0  0  0  0  0
    0.6488   -2.3390   12.6175 C   0  0  0  0  0  0  0  0  0  0  0  0
    0.9927   -0.9993   12.6569 C   0  0  0  0  0  0  0  0  0  0  0  0
    0.9611    1.9554   14.0592 C   0  0  0  0  0  2  0  0  0  0  0  0
    2.1619    2.3598   11.5304 C   0  0  0  0  0  2  0  0  0  0  0  0
   -0.0656    3.9360   12.3994 C   0  0  0  0  0  2  0  0  0  0  0  0
   -1.7802    4.6419    7.7464 H   0  0  0  0  0  0  0  0  0  0  0  0
   -0.5866    6.8368    7.4873 H   0  0  0  0  0  0  0  0  0  0  0  0
    1.4945    7.2132    8.8108 H   0  0  0  0  0  0  0  0  0  0  0  0
    2.2818    5.3902   10.3333 H   0  0  0  0  0  0  0  0  0  0  0  0
   -4.2862   -0.9017    8.8644 H   0  0  0  0  0  0  0  0  0  0  0  0
   -6.3367   -1.3006    7.4814 H   0  0  0  0  0  0  0  0  0  0  0  0
   -6.9310    0.3844    5.7386 H   0  0  0  0  0  0  0  0  0  0  0  0
   -5.4510    2.3767    5.4618 H   0  0  0  0  0  0  0  0  0  0  0  0
   -1.8062   -2.0419   10.3160 H   0  0  0  0  0  0  0  0  0  0  0  0
   -0.6824   -3.7831   11.7379 H   0  0  0  0  0  0  0  0  0  0  0  0
    1.1706   -3.0447   13.2438 H   0  0  0  0  0  0  0  0  0  0  0  0
    1.7839   -0.6488   13.3071 H   0  0  0  0  0  0  0  0  0  0  0  0
  1 32  1  0  0  0  0
  1  2  1  0  0  0  0
  1 30  1  0  0  0  0
  4 31  1  0  0  0  0
  6 13  2  0  0  0  0
  6 12  1  0  0  0  0
  7 14  2  0  0  0  0
  8  1  1  0  0  0  0
  9  1  1  0  0  0  0
  9 29  1  0  0  0  0
 10 20  1  0  0  0  0
 12 15  1  6  0  0  0
 12  8  1  0  0  0  0
 13  7  1  0  0  0  0
 14  8  1  0  0  0  0
 15 11  2  0  0  0  0
 16 15  1  0  0  0  0
 17 16  2  0  0  0  0
 17 18  1  0  0  0  0
 18 19  2  0  0  0  0
 19 11  1  0  0  0  0
 19 36  1  0  0  0  0
 20 21  2  0  0  0  0
 20 13  1  0  0  0  0
 21 37  1  0  0  0  0
 22 38  1  0  0  0  0
 22 21  1  0  0  0  0
 23 22  2  0  0  0  0
 24 23  1  0  0  0  0
 24 10  2  0  0  0  0
 25 14  1  6  0  0  0
 25  9  1  0  0  0  0
 26 25  1  0  0  0  0
 26 27  2  0  0  0  0
 27 28  1  0  0  0  0
 28 29  2  0  0  0  0
 28 43  1  0  0  0  0
 29 44  1  0  0  0  0
 30  3  1  0  0  0  0
 31  1  1  0  0  0  0
 32  5  1  0  0  0  0
 33 16  1  0  0  0  0
 34 17  1  0  0  0  0
 35 18  1  0  0  0  0
 39 23  1  0  0  0  0
 40 24  1  0  0  0  0
 41 26  1  0  0  0  0
 42 27  1  0  0  0  0
M  END
$$$$
