CSD_code = ECALAV | q = 0 | S = 0 | Stoichiometry = C21H12BrN6O3Re | MND = 6
 OpenBabel04212202033D

 44 48  0  0  0  0  0  0  0  0999 V2000
   -4.2532    7.7293    2.9408 Re  0  0  0  0  0  0  0  0  0  0  0  0
   -1.8426    7.4698    2.0195 Br  0  0  0  0  0  0  0  0  0  0  0  0
   -5.4347    7.5424    0.0906 O   0  0  0  0  0  1  0  0  0  0  0  0
   -6.9986    8.0234    4.3202 O   0  0  0  0  0  1  0  0  0  0  0  0
   -3.6989   10.7564    2.6120 O   0  0  0  0  0  1  0  0  0  0  0  0
   -3.1695    7.4686    4.8317 N   0  0  0  0  0  0  0  0  0  0  0  0
   -1.6265    5.9193    5.7264 N   0  0  0  0  0  0  0  0  0  0  0  0
   -1.7387    8.0900    6.5824 N   0  0  0  0  0  0  0  0  0  0  0  0
   -4.1288    5.6039    3.1899 N   0  0  0  0  0  0  0  0  0  0  0  0
   -4.5878    9.7832    5.3033 N   0  0  0  0  0  0  0  0  0  0  0  0
    0.3606    7.5631    8.2067 N   0  0  0  0  0  0  0  0  0  0  0  0
   -2.6026    6.2494    4.9009 C   0  0  0  0  0  0  0  0  0  0  0  0
   -2.7468    8.3344    5.7629 C   0  0  0  0  0  0  0  0  0  0  0  0
   -1.1625    6.8995    6.5001 C   0  0  0  0  0  0  0  0  0  0  0  0
   -3.1610    5.2118    4.0377 C   0  0  0  0  0  0  0  0  0  0  0  0
   -2.7273    3.8929    4.1304 C   0  0  0  0  0  0  0  0  0  0  0  0
   -3.3115    2.9413    3.3183 C   0  0  0  0  0  0  0  0  0  0  0  0
   -4.3249    3.3422    2.4568 C   0  0  0  0  0  0  0  0  0  0  0  0
   -4.6983    4.6737    2.4273 C   0  0  0  0  0  0  0  0  0  0  0  0
   -3.4226    9.6263    5.9269 C   0  0  0  0  0  0  0  0  0  0  0  0
   -2.8529   10.6125    6.7313 C   0  0  0  0  0  0  0  0  0  0  0  0
   -3.5347   11.8081    6.8758 C   0  0  0  0  0  0  0  0  0  0  0  0
   -4.7517   11.9689    6.2300 C   0  0  0  0  0  0  0  0  0  0  0  0
   -5.2351   10.9213    5.4572 C   0  0  0  0  0  0  0  0  0  0  0  0
    0.0244    6.6358    7.3141 C   0  0  0  0  0  0  0  0  0  0  0  0
    0.7580    5.4636    7.1265 C   0  0  0  0  0  0  0  0  0  0  0  0
    1.8836    5.2613    7.9056 C   0  0  0  0  0  0  0  0  0  0  0  0
    2.2328    6.2272    8.8362 C   0  0  0  0  0  0  0  0  0  0  0  0
    1.4321    7.3595    8.9422 C   0  0  0  0  0  0  0  0  0  0  0  0
   -5.0285    7.6460    1.1577 C   0  0  0  0  0  2  0  0  0  0  0  0
   -5.9830    7.9122    3.8043 C   0  0  0  0  0  2  0  0  0  0  0  0
   -3.9830    9.6576    2.7527 C   0  0  0  0  0  2  0  0  0  0  0  0
   -1.9402    3.6583    4.8277 H   0  0  0  0  0  0  0  0  0  0  0  0
   -2.9881    1.9126    3.3522 H   0  0  0  0  0  0  0  0  0  0  0  0
   -4.8141    2.6365    1.8050 H   0  0  0  0  0  0  0  0  0  0  0  0
   -5.4786    5.0136    1.7585 H   0  0  0  0  0  0  0  0  0  0  0  0
   -1.9072   10.4211    7.2116 H   0  0  0  0  0  0  0  0  0  0  0  0
   -3.1239   12.6019    7.4821 H   0  0  0  0  0  0  0  0  0  0  0  0
   -5.3134   12.8854    6.3191 H   0  0  0  0  0  0  0  0  0  0  0  0
   -6.1784   10.9924    4.9333 H   0  0  0  0  0  0  0  0  0  0  0  0
    0.4432    4.7518    6.3811 H   0  0  0  0  0  0  0  0  0  0  0  0
    2.4794    4.3678    7.7874 H   0  0  0  0  0  0  0  0  0  0  0  0
    3.1031    6.1098    9.4628 H   0  0  0  0  0  0  0  0  0  0  0  0
    1.6636    8.1416    9.6535 H   0  0  0  0  0  0  0  0  0  0  0  0
  1  9  1  0  0  0  0
  1 31  1  0  0  0  0
  1  6  1  0  0  0  0
  2  1  1  0  0  0  0
  3 30  1  0  0  0  0
  5 32  1  0  0  0  0
  6 12  1  0  0  0  0
  6 13  1  0  0  0  0
  7 14  2  0  0  0  0
  9 15  1  0  0  0  0
 10 24  2  0  0  0  0
 10 20  1  0  0  0  0
 11 29  1  0  0  0  0
 12  7  1  0  0  0  0
 13 20  1  0  0  0  0
 13  8  2  0  0  0  0
 14  8  1  0  0  0  0
 14 25  1  0  0  0  0
 15 16  1  0  0  0  0
 15 12  2  0  0  0  0
 16 33  1  0  0  0  0
 17 34  1  0  0  0  0
 17 16  2  0  0  0  0
 18 17  1  0  0  0  0
 19 18  2  0  0  0  0
 19  9  1  0  0  0  0
 20 21  2  0  0  0  0
 21 22  1  0  0  0  0
 21 37  1  0  0  0  0
 22 38  1  0  0  0  0
 23 39  1  0  0  0  0
 23 22  2  0  0  0  0
 24 23  1  0  0  0  0
 25 11  2  0  0  0  0
 26 25  1  0  0  0  0
 26 27  2  0  0  0  0
 27 28  1  0  0  0  0
 28 29  2  0  0  0  0
 28 43  1  0  0  0  0
 29 44  1  0  0  0  0
 30  1  1  0  0  0  0
 31  4  1  0  0  0  0
 32  1  1  0  0  0  0
 35 18  1  0  0  0  0
 36 19  1  0  0  0  0
 40 24  1  0  0  0  0
 41 26  1  0  0  0  0
 42 27  1  0  0  0  0
M  END
$$$$
