CSD_code = ECAPEE | q = 0 | S = 0 | Stoichiometry = C27H19Br2Cl2NO2PRe | MND = 6
 OpenBabel04212202033D

 55 60  0  0  1  0  0  0  0  0999 V2000
  -10.2054   -2.0654  -12.6247 Re  0  0  0  0  0  0  0  0  0  0  0  0
   -4.3332   -3.0286  -16.6482 Br  0  0  0  0  0  0  0  0  0  0  0  0
   -5.5798   -4.0473  -11.2268 Br  0  0  0  0  0  0  0  0  0  0  0  0
  -10.6463   -4.1897  -13.3106 Cl  0  0  0  0  0  0  0  0  0  0  0  0
  -11.1572   -2.5711  -10.6335 Cl  0  0  0  0  0  0  0  0  0  0  0  0
   -8.9811   -0.3888  -11.3104 P   0  0  0  0  0  4  0  0  0  0  0  0
  -11.3252   -1.0405  -13.2983 O   0  0  0  0  0  1  0  0  0  0  0  0
   -8.2805   -2.8921  -12.1209 O   0  0  0  0  0  0  0  0  0  0  0  0
   -9.0252   -1.9420  -14.4470 N   0  0  0  0  0  0  0  0  0  0  0  0
   -9.4504   -1.4602  -15.5949 C   0  0  0  0  0  0  0  0  0  0  0  0
   -8.6520   -1.4722  -16.7433 C   0  0  0  0  0  0  0  0  0  0  0  0
   -7.3780   -1.9762  -16.6855 C   0  0  0  0  0  0  0  0  0  0  0  0
   -6.8949   -2.4904  -15.4663 C   0  0  0  0  0  0  0  0  0  0  0  0
   -5.6067   -3.0115  -15.2378 C   0  0  2  0  0  3  0  0  0  0  0  0
   -5.2317   -3.4816  -14.0022 C   0  0  0  0  0  0  0  0  0  0  0  0
   -6.1250   -3.4574  -12.9382 C   0  0  0  0  0  0  0  0  0  0  0  0
   -7.4220   -2.9670  -13.0771 C   0  0  0  0  0  0  0  0  0  0  0  0
   -7.7885   -2.4705  -14.3674 C   0  0  0  0  0  0  0  0  0  0  0  0
   -7.3423   -0.1090  -12.0329 C   0  0  0  0  0  0  0  0  0  0  0  0
   -7.2948    0.4023  -13.3295 C   0  0  0  0  0  0  0  0  0  0  0  0
   -6.0856    0.5064  -13.9893 C   0  0  0  0  0  0  0  0  0  0  0  0
   -4.9182    0.0948  -13.3628 C   0  0  0  0  0  0  0  0  0  0  0  0
   -4.9606   -0.3985  -12.0694 C   0  0  0  0  0  0  0  0  0  0  0  0
   -6.1690   -0.5025  -11.4006 C   0  0  0  0  0  0  0  0  0  0  0  0
   -8.7134   -0.7514   -9.5548 C   0  0  0  0  0  0  0  0  0  0  0  0
   -8.2741   -2.0154   -9.1645 C   0  0  0  0  0  0  0  0  0  0  0  0
   -8.0464   -2.2854   -7.8286 C   0  0  0  0  0  0  0  0  0  0  0  0
   -8.2624   -1.3045   -6.8739 C   0  0  0  0  0  0  0  0  0  0  0  0
   -8.7104   -0.0514   -7.2579 C   0  0  0  0  0  0  0  0  0  0  0  0
   -8.9387    0.2298   -8.5931 C   0  0  0  0  0  0  0  0  0  0  0  0
   -9.7904    1.2349  -11.3382 C   0  0  0  0  0  0  0  0  0  0  0  0
  -11.1812    1.2820  -11.3320 C   0  0  0  0  0  0  0  0  0  0  0  0
  -11.8273    2.5047  -11.3122 C   0  0  0  0  0  0  0  0  0  0  0  0
  -11.0909    3.6791  -11.3021 C   0  0  0  0  0  0  0  0  0  0  0  0
   -9.7059    3.6329  -11.3092 C   0  0  0  0  0  0  0  0  0  0  0  0
   -9.0513    2.4141  -11.3241 C   0  0  0  0  0  0  0  0  0  0  0  0
  -10.4508   -1.0504  -15.5995 H   0  0  0  0  0  0  0  0  0  0  0  0
   -9.0502   -1.0770  -17.6636 H   0  0  0  0  0  0  0  0  0  0  0  0
   -6.7418   -1.9855  -17.5579 H   0  0  0  0  0  0  0  0  0  0  0  0
   -4.2359   -3.8685  -13.8460 H   0  0  0  0  0  0  0  0  0  0  0  0
   -8.2171    0.7085  -13.8080 H   0  0  0  0  0  0  0  0  0  0  0  0
   -6.0514    0.8973  -14.9955 H   0  0  0  0  0  0  0  0  0  0  0  0
   -3.9759    0.1593  -13.8858 H   0  0  0  0  0  0  0  0  0  0  0  0
   -4.0521   -0.7163  -11.5802 H   0  0  0  0  0  0  0  0  0  0  0  0
   -6.2031   -0.9008  -10.3965 H   0  0  0  0  0  0  0  0  0  0  0  0
   -8.1254   -2.7884   -9.9025 H   0  0  0  0  0  0  0  0  0  0  0  0
   -7.7041   -3.2659   -7.5342 H   0  0  0  0  0  0  0  0  0  0  0  0
   -8.0892   -1.5188   -5.8300 H   0  0  0  0  0  0  0  0  0  0  0  0
   -8.8888    0.7118   -6.5148 H   0  0  0  0  0  0  0  0  0  0  0  0
   -9.2958    1.2068   -8.8849 H   0  0  0  0  0  0  0  0  0  0  0  0
  -11.7436    0.3569  -11.3558 H   0  0  0  0  0  0  0  0  0  0  0  0
  -12.9059    2.5421  -11.3087 H   0  0  0  0  0  0  0  0  0  0  0  0
  -11.5963    4.6332  -11.2917 H   0  0  0  0  0  0  0  0  0  0  0  0
   -9.1329    4.5483  -11.3020 H   0  0  0  0  0  0  0  0  0  0  0  0
   -7.9705    2.3751  -11.3238 H   0  0  0  0  0  0  0  0  0  0  0  0
  1  8  1  0  0  0  0
  1  6  1  0  0  0  0
  1  5  1  0  0  0  0
  4  1  1  0  0  0  0
  6 25  1  0  0  0  0
  7  1  1  0  0  0  0
  9 18  1  0  0  0  0
  9  1  1  0  0  0  0
 10  9  1  0  0  0  0
 11 12  1  0  0  0  0
 11 10  2  0  0  0  0
 12 13  2  0  0  0  0
 13 14  1  0  0  0  0
 13 18  1  0  0  0  0
 14  2  1  1  0  0  0
 14 15  1  0  0  0  0
 15 40  1  0  0  0  0
 15 16  2  0  0  0  0
 16  3  1  0  0  0  0
 17 16  1  0  0  0  0
 17  8  1  0  0  0  0
 18 17  2  0  0  0  0
 19 24  1  0  0  0  0
 19  6  1  0  0  0  0
 20 19  2  0  0  0  0
 21 22  2  0  0  0  0
 21 20  1  0  0  0  0
 22 23  1  0  0  0  0
 23 44  1  0  0  0  0
 23 24  2  0  0  0  0
 24 45  1  0  0  0  0
 25 26  2  0  0  0  0
 25 30  1  0  0  0  0
 26 27  1  0  0  0  0
 27 47  1  0  0  0  0
 27 28  2  0  0  0  0
 28 48  1  0  0  0  0
 29 28  1  0  0  0  0
 29 49  1  0  0  0  0
 30 29  2  0  0  0  0
 31 32  2  0  0  0  0
 31 36  1  0  0  0  0
 31  6  1  0  0  0  0
 32 33  1  0  0  0  0
 33 52  1  0  0  0  0
 33 34  2  0  0  0  0
 34 53  1  0  0  0  0
 35 34  1  0  0  0  0
 35 54  1  0  0  0  0
 36 55  1  0  0  0  0
 36 35  2  0  0  0  0
 37 10  1  0  0  0  0
 38 11  1  0  0  0  0
 39 12  1  0  0  0  0
 41 20  1  0  0  0  0
 42 21  1  0  0  0  0
 43 22  1  0  0  0  0
 46 26  1  0  0  0  0
 50 30  1  0  0  0  0
 51 32  1  0  0  0  0
M  END
$$$$
