CSD_code = ECEJUT | q = 0 | S = 0 | Stoichiometry = C22H16CdI2N8 | MND = 6
 OpenBabel04212202033D

 49 54  0  0  1  0  0  0  0  0999 V2000
    4.2328    2.4639    7.5327 Cd  0  0  0  0  0  0  0  0  0  0  0  0
    6.1201    1.0686    6.1538 I   0  0  0  0  0  0  0  0  0  0  0  0
    5.6267    1.7199    9.6016 N   0  0  0  0  0  0  0  0  0  0  0  0
    7.8299    0.6027   10.8482 N   0  0  0  0  0  0  0  0  0  0  0  0
    5.8344    4.1417    8.2757 N   0  0  0  0  0  0  0  0  0  0  0  0
    8.0317    4.2742    8.5899 N   0  0  0  0  0  0  0  0  0  0  0  0
    8.9663    4.0017    8.8435 H   0  0  0  0  0  0  0  0  0  0  0  0
    6.8182    2.3291    9.5668 C   0  0  0  0  0  0  0  0  0  0  0  0
    7.9171    1.7591   10.2212 C   0  0  0  0  0  0  0  0  0  0  0  0
    8.8883    2.2343   10.2486 H   0  0  0  0  0  0  0  0  0  0  0  0
    6.6558   -0.0088   10.8437 C   0  0  0  0  0  0  0  0  0  0  0  0
    6.6107   -0.9672   11.3400 H   0  0  0  0  0  0  0  0  0  0  0  0
    5.5446    0.5633   10.2323 C   0  0  0  0  0  0  0  0  0  0  0  0
    4.5744    0.0849   10.2355 H   0  0  0  0  0  0  0  0  0  0  0  0
    6.8862    3.5674    8.8178 C   0  0  1  0  0  3  0  0  0  0  0  0
    6.2898    5.2675    7.6481 C   0  0  0  0  0  0  0  0  0  0  0  0
    5.6047    6.2382    6.9182 C   0  0  0  0  0  0  0  0  0  0  0  0
    4.5389    6.1708    6.7669 H   0  0  0  0  0  0  0  0  0  0  0  0
    6.3475    7.2709    6.3924 C   0  0  0  0  0  0  0  0  0  0  0  0
    5.8527    8.0368    5.8153 H   0  0  0  0  0  0  0  0  0  0  0  0
    7.7319    7.3567    6.5799 C   0  0  0  0  0  0  0  0  0  0  0  0
    8.2676    8.1858    6.1433 H   0  0  0  0  0  0  0  0  0  0  0  0
    8.4282    6.4099    7.3014 C   0  0  0  0  0  0  0  0  0  0  0  0
    9.4962    6.4742    7.4415 H   0  0  0  0  0  0  0  0  0  0  0  0
    7.6898    5.3638    7.8339 C   0  0  0  0  0  0  0  0  0  0  0  0
    2.3428    3.8618    6.1558 I   0  0  0  0  0  0  0  0  0  0  0  0
    2.8375    3.2077    9.6019 N   0  0  0  0  0  0  0  0  0  0  0  0
    0.6344    4.3238   10.8498 N   0  0  0  0  0  0  0  0  0  0  0  0
    2.6299    0.7868    8.2744 N   0  0  0  0  0  0  0  0  0  0  0  0
    0.4331    0.6522    8.5914 N   0  0  0  0  0  0  0  0  0  0  0  0
   -0.5014    0.9238    8.8464 H   0  0  0  0  0  0  0  0  0  0  0  0
    1.6463    2.5979    9.5677 C   0  0  0  0  0  0  0  0  0  0  0  0
    0.5475    3.1673   10.2229 C   0  0  0  0  0  0  0  0  0  0  0  0
   -0.4240    2.6924   10.2493 H   0  0  0  0  0  0  0  0  0  0  0  0
    1.8082    4.9359   10.8445 C   0  0  0  0  0  0  0  0  0  0  0  0
    1.8534    5.8937   11.3421 H   0  0  0  0  0  0  0  0  0  0  0  0
    2.9194    4.3642   10.2328 C   0  0  0  0  0  0  0  0  0  0  0  0
    3.8897    4.8424   10.2367 H   0  0  0  0  0  0  0  0  0  0  0  0
    1.5783    1.3599    8.8182 C   0  0  1  0  0  3  0  0  0  0  0  0
    2.1748   -0.3394    7.6475 C   0  0  0  0  0  0  0  0  0  0  0  0
    2.8599   -1.3095    6.9167 C   0  0  0  0  0  0  0  0  0  0  0  0
    3.9255   -1.2411    6.7641 H   0  0  0  0  0  0  0  0  0  0  0  0
    2.1175   -2.3428    6.3917 C   0  0  0  0  0  0  0  0  0  0  0  0
    2.6121   -3.1078    5.8134 H   0  0  0  0  0  0  0  0  0  0  0  0
    0.7332   -2.4295    6.5802 C   0  0  0  0  0  0  0  0  0  0  0  0
    0.1977   -3.2590    6.1442 H   0  0  0  0  0  0  0  0  0  0  0  0
    0.0369   -1.4832    7.3024 C   0  0  0  0  0  0  0  0  0  0  0  0
   -1.0308   -1.5487    7.4441 H   0  0  0  0  0  0  0  0  0  0  0  0
    0.7750   -0.4367    7.8345 C   0  0  0  0  0  0  0  0  0  0  0  0
  1 29  1  0  0  0  0
  1  5  1  0  0  0  0
  2  1  1  0  0  0  0
  3 13  1  0  0  0  0
  5 15  1  0  0  0  0
  6 15  1  0  0  0  0
  6  7  1  0  0  0  0
  8  3  2  0  0  0  0
  8  9  1  0  0  0  0
  9 10  1  0  0  0  0
  9  4  2  0  0  0  0
 11  4  1  0  0  0  0
 11 12  1  0  0  0  0
 13 14  1  0  0  0  0
 13 11  2  0  0  0  0
 15  8  1  1  0  0  0
 16 25  1  0  0  0  0
 16  5  1  0  0  0  0
 17 16  2  0  0  0  0
 18 17  1  0  0  0  0
 19 21  2  0  0  0  0
 19 17  1  0  0  0  0
 20 19  1  0  0  0  0
 21 23  1  0  0  0  0
 22 21  1  0  0  0  0
 23 24  1  0  0  0  0
 23 25  2  0  0  0  0
 25  6  1  0  0  0  0
 26  1  1  0  0  0  0
 27 37  1  0  0  0  0
 29 39  1  0  0  0  0
 30 39  1  0  0  0  0
 30 31  1  0  0  0  0
 32 27  2  0  0  0  0
 32 33  1  0  0  0  0
 33 34  1  0  0  0  0
 33 28  2  0  0  0  0
 35 28  1  0  0  0  0
 35 36  1  0  0  0  0
 37 38  1  0  0  0  0
 37 35  2  0  0  0  0
 39 32  1  1  0  0  0
 40 49  1  0  0  0  0
 40 29  1  0  0  0  0
 41 40  2  0  0  0  0
 42 41  1  0  0  0  0
 43 45  2  0  0  0  0
 43 41  1  0  0  0  0
 44 43  1  0  0  0  0
 45 47  1  0  0  0  0
 46 45  1  0  0  0  0
 47 48  1  0  0  0  0
 47 49  2  0  0  0  0
 49 30  1  0  0  0  0
M  END
$$$$
