CSD_code = ECIHOO | q = 0 | S = 0 | Stoichiometry = C5H8AuClN2 | MND = 2
 OpenBabel04212202033D

 17 17  0  0  1  0  0  0  0  0999 V2000
   -3.5769    5.3754    6.3438 Au  0  0  0  0  0  0  0  0  0  0  0  0
   -3.4619    3.8038    4.7465 Cl  0  0  0  0  0  0  0  0  0  0  0  0
   -3.6787    6.7826    7.7706 C   0  0  1  0  0  3  0  0  0  0  0  0
   -2.8050    6.9878    8.7725 N   0  0  0  0  0  0  0  0  0  0  0  0
   -1.6180    6.2176    9.0130 C   0  0  0  0  0  0  0  0  0  0  0  0
   -3.2038    8.0449    9.5438 C   0  0  0  0  0  0  0  0  0  0  0  0
   -4.3568    8.5082    9.0058 C   0  0  0  0  0  0  0  0  0  0  0  0
   -4.6303    7.7212    7.9206 N   0  0  0  0  0  0  0  0  0  0  0  0
   -5.7774    7.8870    7.0740 C   0  0  0  0  0  0  0  0  0  0  0  0
   -1.5520    5.4352    8.2581 H   0  0  0  0  0  0  0  0  0  0  0  0
   -1.6567    5.7613   10.0034 H   0  0  0  0  0  0  0  0  0  0  0  0
   -0.7336    6.8539    8.9505 H   0  0  0  0  0  0  0  0  0  0  0  0
   -2.6478    8.3765   10.3961 H   0  0  0  0  0  0  0  0  0  0  0  0
   -4.9903    9.3182    9.3026 H   0  0  0  0  0  0  0  0  0  0  0  0
   -5.7687    8.8759    6.6127 H   0  0  0  0  0  0  0  0  0  0  0  0
   -6.6954    7.7746    7.6531 H   0  0  0  0  0  0  0  0  0  0  0  0
   -5.7476    7.1264    6.2949 H   0  0  0  0  0  0  0  0  0  0  0  0
  2  1  1  0  0  0  0
  3  1  1  6  0  0  0
  3  8  1  0  0  0  0
  3  4  1  0  0  0  0
  4  5  1  0  0  0  0
  4  6  1  0  0  0  0
  5 11  1  0  0  0  0
  6 13  1  0  0  0  0
  7 14  1  0  0  0  0
  7  6  2  0  0  0  0
  8  7  1  0  0  0  0
  9 16  1  0  0  0  0
  9  8  1  0  0  0  0
 10  5  1  0  0  0  0
 12  5  1  0  0  0  0
 15  9  1  0  0  0  0
 17  9  1  0  0  0  0
M  END
$$$$
