CSD_code = ECOGUZ | q = 0 | S = 0 | Stoichiometry = C26H24Br2HgS2Si | MND = 4
 OpenBabel04212202033D

 56 58  0  0  0  0  0  0  0  0999 V2000
    9.2126   11.9026   -0.9112 Br  0  0  0  0  0  0  0  0  0  0  0  0
    7.9170    9.2880    2.8144 Br  0  0  0  0  0  0  0  0  0  0  0  0
   11.1414    7.4060    2.2270 C   0  0  0  0  0  0  0  0  0  0  0  0
   11.4590    6.3759    2.0771 H   0  0  0  0  0  0  0  0  0  0  0  0
   10.1212    7.4134    2.6056 H   0  0  0  0  0  0  0  0  0  0  0  0
   11.4501    9.8938    4.0981 C   0  0  0  0  0  0  0  0  0  0  0  0
   10.4148    9.6661    4.3454 H   0  0  0  0  0  0  0  0  0  0  0  0
   11.9548   10.2711    4.9856 H   0  0  0  0  0  0  0  0  0  0  0  0
    9.8027    7.4252   -0.2966 C   0  0  0  0  0  0  0  0  0  0  0  0
    9.5037    7.9685   -1.5431 C   0  0  0  0  0  0  0  0  0  0  0  0
   10.0905    8.7943   -1.9223 H   0  0  0  0  0  0  0  0  0  0  0  0
    8.4676    7.4400   -2.2888 C   0  0  0  0  0  0  0  0  0  0  0  0
    8.2325    7.8702   -3.2503 H   0  0  0  0  0  0  0  0  0  0  0  0
    7.7344    6.3698   -1.8000 C   0  0  0  0  0  0  0  0  0  0  0  0
    6.9194    5.9631   -2.3786 H   0  0  0  0  0  0  0  0  0  0  0  0
    8.0514    5.8234   -0.5695 C   0  0  0  0  0  0  0  0  0  0  0  0
    7.4881    4.9868   -0.1844 H   0  0  0  0  0  0  0  0  0  0  0  0
    9.0889    6.3420    0.1882 C   0  0  0  0  0  0  0  0  0  0  0  0
    9.3178    5.9032    1.1460 H   0  0  0  0  0  0  0  0  0  0  0  0
   10.2961   12.4459    3.5426 C   0  0  0  0  0  0  0  0  0  0  0  0
    9.7458   12.3607    4.8104 C   0  0  0  0  0  0  0  0  0  0  0  0
    9.9912   11.5479    5.4748 H   0  0  0  0  0  0  0  0  0  0  0  0
    8.8535   13.3356    5.2262 C   0  0  0  0  0  0  0  0  0  0  0  0
    8.4170   13.2612    6.2107 H   0  0  0  0  0  0  0  0  0  0  0  0
    8.5206   14.3891    4.3940 C   0  0  0  0  0  0  0  0  0  0  0  0
    7.8195   15.1396    4.7252 H   0  0  0  0  0  0  0  0  0  0  0  0
    9.0924   14.4797    3.1343 C   0  0  0  0  0  0  0  0  0  0  0  0
    8.8442   15.3006    2.4790 H   0  0  0  0  0  0  0  0  0  0  0  0
    9.9824   13.5135    2.7059 C   0  0  0  0  0  0  0  0  0  0  0  0
   10.4452   13.5855    1.7304 H   0  0  0  0  0  0  0  0  0  0  0  0
   12.5052    7.1612    4.9389 C   0  0  0  0  0  0  0  0  0  0  0  0
   11.3881    6.7315    5.6531 C   0  0  0  0  0  0  0  0  0  0  0  0
   10.4037    7.0634    5.3556 H   0  0  0  0  0  0  0  0  0  0  0  0
   11.5214    5.8854    6.7385 C   0  0  0  0  0  0  0  0  0  0  0  0
   10.6447    5.5623    7.2803 H   0  0  0  0  0  0  0  0  0  0  0  0
   12.7773    5.4523    7.1303 C   0  0  0  0  0  0  0  0  0  0  0  0
   12.8824    4.7907    7.9775 H   0  0  0  0  0  0  0  0  0  0  0  0
   13.8972    5.8702    6.4314 C   0  0  0  0  0  0  0  0  0  0  0  0
   14.8792    5.5357    6.7321 H   0  0  0  0  0  0  0  0  0  0  0  0
   13.7592    6.7168    5.3463 C   0  0  0  0  0  0  0  0  0  0  0  0
   14.6344    7.0409    4.8023 H   0  0  0  0  0  0  0  0  0  0  0  0
   13.9714    8.6725    2.5998 C   0  0  0  0  0  0  0  0  0  0  0  0
   14.6358    9.8869    2.7569 C   0  0  0  0  0  0  0  0  0  0  0  0
   14.1955   10.6621    3.3658 H   0  0  0  0  0  0  0  0  0  0  0  0
   15.8500   10.1186    2.1367 C   0  0  0  0  0  0  0  0  0  0  0  0
   16.3466   11.0691    2.2658 H   0  0  0  0  0  0  0  0  0  0  0  0
   16.4268    9.1362    1.3502 C   0  0  0  0  0  0  0  0  0  0  0  0
   17.3751    9.3164    0.8657 H   0  0  0  0  0  0  0  0  0  0  0  0
   15.7828    7.9209    1.1867 C   0  0  0  0  0  0  0  0  0  0  0  0
   16.2279    7.1501    0.5747 H   0  0  0  0  0  0  0  0  0  0  0  0
   14.5687    7.6935    1.8061 C   0  0  0  0  0  0  0  0  0  0  0  0
   14.0737    6.7424    1.6732 H   0  0  0  0  0  0  0  0  0  0  0  0
    9.2624   10.4341    1.0549 Hg  0  0  0  0  0  0  0  0  0  0  0  0
   11.1485    8.2103    0.5930 S   0  0  0  0  0  0  0  0  0  0  0  0
   11.4461   11.2426    2.8735 S   0  0  0  0  0  0  0  0  0  0  0  0
   12.3242    8.3098    3.4471 Si  0  0  0  0  0  0  0  0  0  0  0  0
  1 53  1  0  0  0  0
  3  5  1  0  0  0  0
  3 56  1  0  0  0  0
  4  3  1  0  0  0  0
  6  7  1  0  0  0  0
  6  8  1  0  0  0  0
  9 18  1  0  0  0  0
  9 54  1  0  0  0  0
 10  9  2  0  0  0  0
 11 10  1  0  0  0  0
 12 14  2  0  0  0  0
 12 10  1  0  0  0  0
 13 12  1  0  0  0  0
 14 16  1  0  0  0  0
 15 14  1  0  0  0  0
 16 17  1  0  0  0  0
 16 18  2  0  0  0  0
 18 19  1  0  0  0  0
 20 21  1  0  0  0  0
 21 23  2  0  0  0  0
 21 22  1  0  0  0  0
 23 24  1  0  0  0  0
 25 26  1  0  0  0  0
 25 23  1  0  0  0  0
 27 25  2  0  0  0  0
 28 27  1  0  0  0  0
 29 27  1  0  0  0  0
 29 20  2  0  0  0  0
 30 29  1  0  0  0  0
 31 40  2  0  0  0  0
 31 32  1  0  0  0  0
 32 34  2  0  0  0  0
 33 32  1  0  0  0  0
 34 36  1  0  0  0  0
 34 35  1  0  0  0  0
 36 37  1  0  0  0  0
 38 39  1  0  0  0  0
 38 36  2  0  0  0  0
 40 38  1  0  0  0  0
 41 40  1  0  0  0  0
 42 43  1  0  0  0  0
 42 56  1  0  0  0  0
 43 44  1  0  0  0  0
 45 46  1  0  0  0  0
 45 43  2  0  0  0  0
 47 45  1  0  0  0  0
 48 47  1  0  0  0  0
 49 47  2  0  0  0  0
 49 51  1  0  0  0  0
 50 49  1  0  0  0  0
 51 42  2  0  0  0  0
 52 51  1  0  0  0  0
 53  2  1  0  0  0  0
 54  3  1  0  0  0  0
 55 20  1  0  0  0  0
 55  6  1  0  0  0  0
 56  6  1  0  0  0  0
 56 31  1  0  0  0  0
M  END
$$$$
