CSD_code = ECOHAG | q = 0 | S = 0 | Stoichiometry = C26H24Br2PtS2Si | MND = 4
 OpenBabel04212202033D

 56 60  0  0  0  0  0  0  0  0999 V2000
    9.2441    3.2433    7.3126 Br  0  0  0  0  0  0  0  0  0  0  0  0
   10.9177    0.2505    6.9833 Br  0  0  0  0  0  0  0  0  0  0  0  0
    7.1169    2.0954    2.9989 C   0  0  0  0  0  0  0  0  0  0  0  0
    6.4641    2.8436    2.5507 H   0  0  0  0  0  0  0  0  0  0  0  0
    6.4844    1.2782    3.3444 H   0  0  0  0  0  0  0  0  0  0  0  0
    9.7891    0.4985    2.6760 C   0  0  0  0  0  0  0  0  0  0  0  0
   10.1875   -0.3050    2.0604 H   0  0  0  0  0  0  0  0  0  0  0  0
   10.6113    1.1216    3.0201 H   0  0  0  0  0  0  0  0  0  0  0  0
    8.8706    4.0580    3.8139 C   0  0  0  0  0  0  0  0  0  0  0  0
    8.3116    5.1145    3.1126 C   0  0  0  0  0  0  0  0  0  0  0  0
    7.2391    5.1943    3.0205 H   0  0  0  0  0  0  0  0  0  0  0  0
    9.1348    6.0690    2.5452 C   0  0  0  0  0  0  0  0  0  0  0  0
    8.7000    6.8915    1.9982 H   0  0  0  0  0  0  0  0  0  0  0  0
   10.5088    5.9764    2.6902 C   0  0  0  0  0  0  0  0  0  0  0  0
   11.1484    6.7270    2.2518 H   0  0  0  0  0  0  0  0  0  0  0  0
   11.0612    4.9305    3.4092 C   0  0  0  0  0  0  0  0  0  0  0  0
   12.1303    4.8644    3.5394 H   0  0  0  0  0  0  0  0  0  0  0  0
   10.2435    3.9674    3.9718 C   0  0  0  0  0  0  0  0  0  0  0  0
   10.6767    3.1597    4.5580 H   0  0  0  0  0  0  0  0  0  0  0  0
   10.0558   -1.6907    4.4315 C   0  0  0  0  0  0  0  0  0  0  0  0
   11.4250   -1.6450    4.2299 C   0  0  0  0  0  0  0  0  0  0  0  0
   11.9074   -0.7400    3.8955 H   0  0  0  0  0  0  0  0  0  0  0  0
   12.1825   -2.7706    4.4987 C   0  0  0  0  0  0  0  0  0  0  0  0
   13.2512   -2.7357    4.3535 H   0  0  0  0  0  0  0  0  0  0  0  0
   11.5802   -3.9246    4.9700 C   0  0  0  0  0  0  0  0  0  0  0  0
   12.1795   -4.7958    5.1857 H   0  0  0  0  0  0  0  0  0  0  0  0
   10.2113   -3.9576    5.1778 C   0  0  0  0  0  0  0  0  0  0  0  0
    9.7384   -4.8517    5.5544 H   0  0  0  0  0  0  0  0  0  0  0  0
    9.4434   -2.8407    4.9063 C   0  0  0  0  0  0  0  0  0  0  0  0
    8.3764   -2.8498    5.0730 H   0  0  0  0  0  0  0  0  0  0  0  0
    9.1449    2.9094    0.7603 C   0  0  0  0  0  0  0  0  0  0  0  0
    8.2782    3.7767    0.0985 C   0  0  0  0  0  0  0  0  0  0  0  0
    7.2118    3.6196    0.1757 H   0  0  0  0  0  0  0  0  0  0  0  0
    8.7582    4.8277   -0.6589 C   0  0  0  0  0  0  0  0  0  0  0  0
    8.0683    5.4874   -1.1645 H   0  0  0  0  0  0  0  0  0  0  0  0
   10.1234    5.0327   -0.7708 C   0  0  0  0  0  0  0  0  0  0  0  0
   10.5015    5.8541   -1.3609 H   0  0  0  0  0  0  0  0  0  0  0  0
   10.9996    4.1778   -0.1261 C   0  0  0  0  0  0  0  0  0  0  0  0
   12.0654    4.3291   -0.2124 H   0  0  0  0  0  0  0  0  0  0  0  0
   10.5131    3.1261    0.6289 C   0  0  0  0  0  0  0  0  0  0  0  0
   11.2096    2.4626    1.1196 H   0  0  0  0  0  0  0  0  0  0  0  0
    7.5219    0.2329    0.6159 C   0  0  0  0  0  0  0  0  0  0  0  0
    7.4298    0.4573   -0.7548 C   0  0  0  0  0  0  0  0  0  0  0  0
    7.8811    1.3445   -1.1741 H   0  0  0  0  0  0  0  0  0  0  0  0
    6.7735   -0.4361   -1.5815 C   0  0  0  0  0  0  0  0  0  0  0  0
    6.7119   -0.2419   -2.6422 H   0  0  0  0  0  0  0  0  0  0  0  0
    6.1971   -1.5775   -1.0500 C   0  0  0  0  0  0  0  0  0  0  0  0
    5.6837   -2.2762   -1.6936 H   0  0  0  0  0  0  0  0  0  0  0  0
    6.2832   -1.8203    0.3108 C   0  0  0  0  0  0  0  0  0  0  0  0
    5.8379   -2.7102    0.7306 H   0  0  0  0  0  0  0  0  0  0  0  0
    6.9382   -0.9229    1.1335 C   0  0  0  0  0  0  0  0  0  0  0  0
    6.9998   -1.1244    2.1935 H   0  0  0  0  0  0  0  0  0  0  0  0
    9.2647    1.4408    5.7220 Pt  0  0  0  0  0  0  0  0  0  0  0  0
    7.7626    2.8525    4.5347 S   0  0  2  0  0  3  0  0  0  0  0  0
    8.9883   -0.2988    4.1145 S   0  0  1  0  0  3  0  0  0  0  0  0
    8.4236    1.4635    1.7363 Si  0  0  0  0  0  0  0  0  0  0  0  0
  3  5  1  0  0  0  0
  3 54  1  0  0  0  0
  4  3  1  0  0  0  0
  6  8  1  0  0  0  0
  6 55  1  0  0  0  0
  7  6  1  0  0  0  0
  9 18  1  0  0  0  0
 10  9  2  0  0  0  0
 11 10  1  0  0  0  0
 12 14  2  0  0  0  0
 12 10  1  0  0  0  0
 13 12  1  0  0  0  0
 14 16  1  0  0  0  0
 15 14  1  0  0  0  0
 16 17  1  0  0  0  0
 16 18  2  0  0  0  0
 18 19  1  0  0  0  0
 20 29  1  0  0  0  0
 21 20  2  0  0  0  0
 21 23  1  0  0  0  0
 22 21  1  0  0  0  0
 23 25  2  0  0  0  0
 24 23  1  0  0  0  0
 25 27  1  0  0  0  0
 25 26  1  0  0  0  0
 27 28  1  0  0  0  0
 29 30  1  0  0  0  0
 29 27  2  0  0  0  0
 31 56  1  0  0  0  0
 32 33  1  0  0  0  0
 32 31  2  0  0  0  0
 34 32  1  0  0  0  0
 35 34  1  0  0  0  0
 36 34  2  0  0  0  0
 36 38  1  0  0  0  0
 37 36  1  0  0  0  0
 38 40  2  0  0  0  0
 39 38  1  0  0  0  0
 40 31  1  0  0  0  0
 40 41  1  0  0  0  0
 42 51  1  0  0  0  0
 42 56  1  0  0  0  0
 43 42  2  0  0  0  0
 44 43  1  0  0  0  0
 45 47  2  0  0  0  0
 45 43  1  0  0  0  0
 46 45  1  0  0  0  0
 47 49  1  0  0  0  0
 48 47  1  0  0  0  0
 49 50  1  0  0  0  0
 49 51  2  0  0  0  0
 51 52  1  0  0  0  0
 53  2  1  0  0  0  0
 53  1  1  0  0  0  0
 54  9  1  6  0  0  0
 54 53  1  0  0  0  0
 55 20  1  1  0  0  0
 55 53  1  0  0  0  0
 56  6  1  0  0  0  0
 56  3  1  0  0  0  0
M  END
$$$$
