CSD_code = ECOKEP | q = 0 | S = 0 | Stoichiometry = C23H30ClN5Pd | MND = 4
 OpenBabel04212202033D

 60 62  0  0  0  0  0  0  0  0999 V2000
   -0.7622    6.0520    9.4999 Pd  0  0  2  0  0  0  0  0  0  0  0  0
   -2.5952    4.8974    8.6484 Cl  0  0  0  0  0  0  0  0  0  0  0  0
    1.6807    6.6308   11.0550 N   0  0  0  0  0  0  0  0  0  0  0  0
    1.3148    5.9077   11.6583 H   0  0  0  0  0  0  0  0  0  0  0  0
    1.3450    7.9345    9.1973 N   0  0  0  0  0  0  0  0  0  0  0  0
    0.7008    9.2512    7.3501 N   0  0  0  0  0  0  0  0  0  0  0  0
   -0.0672    9.4272    6.7110 H   0  0  0  0  0  0  0  0  0  0  0  0
   -0.6051    7.4675    8.0599 N   0  0  0  0  0  0  0  0  0  0  0  0
   -1.4008    3.8151   11.4479 N   0  0  0  0  0  2  0  0  0  0  0  0
    0.9272    6.9810   10.0118 C   0  0  0  0  0  0  0  0  0  0  0  0
    2.9904    7.1668   11.4467 C   0  0  0  0  0  0  0  0  0  0  0  0
    3.3983    6.4540   12.7364 C   0  0  0  0  0  0  0  0  0  0  0  0
    2.6750    6.6454   13.5267 H   0  0  0  0  0  0  0  0  0  0  0  0
    4.3685    6.8139   13.0682 H   0  0  0  0  0  0  0  0  0  0  0  0
    3.4695    5.3797   12.5774 H   0  0  0  0  0  0  0  0  0  0  0  0
    2.8734    8.6714   11.6990 C   0  0  0  0  0  0  0  0  0  0  0  0
    2.4976    9.1678   10.8107 H   0  0  0  0  0  0  0  0  0  0  0  0
    3.8441    9.0862   11.9564 H   0  0  0  0  0  0  0  0  0  0  0  0
    2.1833    8.8605   12.5183 H   0  0  0  0  0  0  0  0  0  0  0  0
    4.0062    6.8659   10.3423 C   0  0  0  0  0  0  0  0  0  0  0  0
    4.1331    5.7912   10.2314 H   0  0  0  0  0  0  0  0  0  0  0  0
    4.9687    7.3099   10.5812 H   0  0  0  0  0  0  0  0  0  0  0  0
    3.6539    7.2677    9.3982 H   0  0  0  0  0  0  0  0  0  0  0  0
    0.4872    8.2003    8.1893 C   0  0  0  0  0  0  0  0  0  0  0  0
    1.7376   10.1723    7.2712 C   0  0  0  0  0  0  0  0  0  0  0  0
    2.9330   10.0403    7.9700 C   0  0  0  0  0  0  0  0  0  0  0  0
    3.0662    9.1920    8.6172 H   0  0  0  0  0  0  0  0  0  0  0  0
    3.9249   10.9922    7.8289 C   0  0  0  0  0  0  0  0  0  0  0  0
    4.8477   10.8789    8.3787 H   0  0  0  0  0  0  0  0  0  0  0  0
    3.7478   12.0799    6.9908 C   0  0  0  0  0  0  0  0  0  0  0  0
    4.5265   12.8198    6.8846 H   0  0  0  0  0  0  0  0  0  0  0  0
    2.5626   12.2097    6.2855 C   0  0  0  0  0  0  0  0  0  0  0  0
    2.4137   13.0515    5.6254 H   0  0  0  0  0  0  0  0  0  0  0  0
    1.5644   11.2653    6.4209 C   0  0  0  0  0  0  0  0  0  0  0  0
    0.6408   11.3697    5.8675 H   0  0  0  0  0  0  0  0  0  0  0  0
   -1.5782    7.6938    7.0757 C   0  0  0  0  0  0  0  0  0  0  0  0
   -1.2882    7.6981    5.7108 C   0  0  0  0  0  0  0  0  0  0  0  0
   -0.2761    7.5129    5.3752 H   0  0  0  0  0  0  0  0  0  0  0  0
   -2.3058    7.8846    4.7922 C   0  0  0  0  0  0  0  0  0  0  0  0
   -2.0764    7.8766    3.7363 H   0  0  0  0  0  0  0  0  0  0  0  0
   -3.6099    8.0686    5.2181 C   0  0  0  0  0  0  0  0  0  0  0  0
   -4.3994    8.2079    4.4947 H   0  0  0  0  0  0  0  0  0  0  0  0
   -3.9035    8.0555    6.5732 C   0  0  0  0  0  0  0  0  0  0  0  0
   -4.9224    8.1829    6.9073 H   0  0  0  0  0  0  0  0  0  0  0  0
   -2.8969    7.8727    7.4990 C   0  0  0  0  0  0  0  0  0  0  0  0
   -3.1080    7.8453    8.5658 H   0  0  0  0  0  0  0  0  0  0  0  0
   -0.9908    4.7141   10.8262 C   0  0  0  0  0  2  0  0  0  0  0  0
   -2.2232    2.7276   11.8255 C   0  0  0  0  0  0  0  0  0  0  0  0
   -1.6817    2.1289   13.1238 C   0  0  0  0  0  0  0  0  0  0  0  0
   -0.6629    1.7734   12.9845 H   0  0  0  0  0  0  0  0  0  0  0  0
   -2.3032    1.2913   13.4282 H   0  0  0  0  0  0  0  0  0  0  0  0
   -1.6858    2.8723   13.9182 H   0  0  0  0  0  0  0  0  0  0  0  0
   -3.6407    3.2782   12.0061 C   0  0  0  0  0  0  0  0  0  0  0  0
   -3.6692    4.0075   12.8128 H   0  0  0  0  0  0  0  0  0  0  0  0
   -4.3251    2.4671   12.2386 H   0  0  0  0  0  0  0  0  0  0  0  0
   -3.9587    3.7619   11.0848 H   0  0  0  0  0  0  0  0  0  0  0  0
   -2.1875    1.7142   10.6781 C   0  0  0  0  0  0  0  0  0  0  0  0
   -2.4980    2.2024    9.7564 H   0  0  0  0  0  0  0  0  0  0  0  0
   -2.8633    0.8906   10.8916 H   0  0  0  0  0  0  0  0  0  0  0  0
   -1.1820    1.3212   10.5440 H   0  0  0  0  0  0  0  0  0  0  0  0
  1  2  1  6  0  0  0
  1 10  2  0  0  0  0
  1 47  1  0  0  0  0
  3 11  1  0  0  0  0
  3  4  1  0  0  0  0
  5 10  1  0  0  0  0
  6 24  1  0  0  0  0
  7  6  1  0  0  0  0
  8 24  1  0  0  0  0
  8  1  1  0  0  0  0
  9 48  1  0  0  0  0
 10  3  1  0  0  0  0
 11 16  1  0  0  0  0
 11 12  1  0  0  0  0
 12 14  1  0  0  0  0
 12 13  1  0  0  0  0
 15 12  1  0  0  0  0
 16 18  1  0  0  0  0
 16 19  1  0  0  0  0
 17 16  1  0  0  0  0
 20 22  1  0  0  0  0
 20 11  1  0  0  0  0
 21 20  1  0  0  0  0
 23 20  1  0  0  0  0
 24  5  2  0  0  0  0
 25  6  1  0  0  0  0
 25 26  1  0  0  0  0
 26 27  1  0  0  0  0
 28 26  2  0  0  0  0
 28 29  1  0  0  0  0
 30 28  1  0  0  0  0
 31 30  1  0  0  0  0
 32 34  1  0  0  0  0
 32 30  2  0  0  0  0
 33 32  1  0  0  0  0
 34 25  2  0  0  0  0
 35 34  1  0  0  0  0
 36 45  1  0  0  0  0
 36  8  1  0  0  0  0
 37 36  2  0  0  0  0
 38 37  1  0  0  0  0
 39 41  2  0  0  0  0
 39 37  1  0  0  0  0
 40 39  1  0  0  0  0
 41 43  1  0  0  0  0
 42 41  1  0  0  0  0
 43 44  1  0  0  0  0
 43 45  2  0  0  0  0
 45 46  1  0  0  0  0
 47  9  1  0  0  0  0
 48 53  1  0  0  0  0
 48 49  1  0  0  0  0
 49 51  1  0  0  0  0
 49 52  1  0  0  0  0
 50 49  1  0  0  0  0
 53 55  1  0  0  0  0
 53 54  1  0  0  0  0
 56 53  1  0  0  0  0
 57 59  1  0  0  0  0
 57 48  1  0  0  0  0
 58 57  1  0  0  0  0
 60 57  1  0  0  0  0
M  END
$$$$
