CSD_code = ECOLEQ | q = 0 | S = 0 | Stoichiometry = C27H34ClN5Pd | MND = 4
 OpenBabel04212202033D

 68 72  0  0  1  0  0  0  0  0999 V2000
   -0.0654    7.4783    4.6731 C   0  0  0  0  0  0  0  0  0  0  0  0
    2.1946    7.3196    4.0338 C   0  0  0  0  0  0  0  0  0  0  0  0
    1.8890    7.1935    2.9752 H   0  0  0  0  0  0  0  0  0  0  0  0
    2.5438    5.9302    4.5887 C   0  0  0  0  0  0  0  0  0  0  0  0
    1.6454    5.2873    4.5187 H   0  0  0  0  0  0  0  0  0  0  0  0
    2.8106    6.0292    5.6433 H   0  0  0  0  0  0  0  0  0  0  0  0
    3.7031    5.3224    3.8095 C   0  0  0  0  0  0  0  0  0  0  0  0
    3.9522    4.3411    4.2189 H   0  0  0  0  0  0  0  0  0  0  0  0
    3.4015    5.1867    2.7682 H   0  0  0  0  0  0  0  0  0  0  0  0
    4.9226    6.2386    3.8711 C   0  0  0  0  0  0  0  0  0  0  0  0
    5.2536    6.3295    4.9080 H   0  0  0  0  0  0  0  0  0  0  0  0
    5.7428    5.8054    3.2944 H   0  0  0  0  0  0  0  0  0  0  0  0
    4.5798    7.6230    3.3283 C   0  0  0  0  0  0  0  0  0  0  0  0
    4.3044    7.5393    2.2742 H   0  0  0  0  0  0  0  0  0  0  0  0
    5.4529    8.2754    3.3956 H   0  0  0  0  0  0  0  0  0  0  0  0
    3.4172    8.2331    4.1041 C   0  0  0  0  0  0  0  0  0  0  0  0
    3.1602    9.2127    3.6977 H   0  0  0  0  0  0  0  0  0  0  0  0
    3.6928    8.3677    5.1515 H   0  0  0  0  0  0  0  0  0  0  0  0
   -2.1937    7.4101    5.6926 C   0  0  1  0  0  3  0  0  0  0  0  0
   -0.6064    9.1221    6.4093 C   0  0  0  0  0  0  0  0  0  0  0  0
   -0.1770   10.3197    5.8519 C   0  0  0  0  0  0  0  0  0  0  0  0
   -0.1570   10.4229    4.7787 H   0  0  0  0  0  0  0  0  0  0  0  0
    0.2296   11.3538    6.6742 C   0  0  0  0  0  0  0  0  0  0  0  0
    0.5653   12.2831    6.2391 H   0  0  0  0  0  0  0  0  0  0  0  0
    0.2059   11.2032    8.0513 C   0  0  0  0  0  0  0  0  0  0  0  0
    0.5214   12.0137    8.6907 H   0  0  0  0  0  0  0  0  0  0  0  0
   -0.2114   10.0062    8.6072 C   0  0  0  0  0  0  0  0  0  0  0  0
   -0.2159    9.8777    9.6795 H   0  0  0  0  0  0  0  0  0  0  0  0
   -0.6107    8.9620    7.7911 C   0  0  0  0  0  0  0  0  0  0  0  0
   -0.9033    8.0152    8.2240 H   0  0  0  0  0  0  0  0  0  0  0  0
   -3.5472    5.5718    5.0363 C   0  0  0  0  0  0  0  0  0  0  0  0
   -3.4932    4.2078    5.3209 C   0  0  0  0  0  0  0  0  0  0  0  0
   -2.5329    3.7562    5.5397 H   0  0  0  0  0  0  0  0  0  0  0  0
   -4.6472    3.4506    5.2926 C   0  0  0  0  0  0  0  0  0  0  0  0
   -4.5974    2.3927    5.5029 H   0  0  0  0  0  0  0  0  0  0  0  0
   -5.8625    4.0409    4.9837 C   0  0  0  0  0  0  0  0  0  0  0  0
   -6.7623    3.4446    4.9552 H   0  0  0  0  0  0  0  0  0  0  0  0
   -5.9184    5.3927    4.6911 C   0  0  0  0  0  0  0  0  0  0  0  0
   -6.8605    5.8530    4.4305 H   0  0  0  0  0  0  0  0  0  0  0  0
   -4.7692    6.1622    4.7175 C   0  0  0  0  0  0  0  0  0  0  0  0
   -4.8051    7.2099    4.4497 H   0  0  0  0  0  0  0  0  0  0  0  0
    0.3017    5.6969    2.1788 C   0  0  0  0  0  2  0  0  0  0  0  0
    1.0631    4.3129    0.2073 C   0  0  0  0  0  0  0  0  0  0  0  0
    1.9494    4.6440   -0.3498 H   0  0  0  0  0  0  0  0  0  0  0  0
    1.3076    2.9369    0.8381 C   0  0  0  0  0  0  0  0  0  0  0  0
    0.4400    2.6948    1.4561 H   0  0  0  0  0  0  0  0  0  0  0  0
    2.1874    2.9785    1.4843 H   0  0  0  0  0  0  0  0  0  0  0  0
    1.4905    1.8824   -0.2473 C   0  0  0  0  0  0  0  0  0  0  0  0
    2.3778    2.1168   -0.8417 H   0  0  0  0  0  0  0  0  0  0  0  0
    1.6478    0.9085    0.2192 H   0  0  0  0  0  0  0  0  0  0  0  0
    0.2652    1.8367   -1.1542 C   0  0  0  0  0  0  0  0  0  0  0  0
   -0.6092    1.5605   -0.5626 H   0  0  0  0  0  0  0  0  0  0  0  0
    0.4034    1.0820   -1.9309 H   0  0  0  0  0  0  0  0  0  0  0  0
    0.0290    3.2029   -1.7896 C   0  0  0  0  0  0  0  0  0  0  0  0
    0.8838    3.4668   -2.4186 H   0  0  0  0  0  0  0  0  0  0  0  0
   -0.8574    3.1714   -2.4251 H   0  0  0  0  0  0  0  0  0  0  0  0
   -0.1619    4.2641   -0.7119 C   0  0  0  0  0  0  0  0  0  0  0  0
   -1.0331    4.0255   -0.0975 H   0  0  0  0  0  0  0  0  0  0  0  0
   -0.3207    5.2450   -1.1652 H   0  0  0  0  0  0  0  0  0  0  0  0
   -1.8867    4.1355    2.5804 Cl  0  0  0  0  0  0  0  0  0  0  0  0
    1.1213    7.8914    4.7902 N   0  0  0  0  0  2  0  0  0  0  0  0
   -1.0042    8.0608    5.5563 N   0  0  0  0  0  0  0  0  0  0  0  0
   -3.1544    7.9573    6.4864 N   0  0  0  0  0  0  0  0  0  0  0  0
   -3.9451    7.3828    6.7264 H   0  0  0  0  0  0  0  0  0  0  0  0
   -2.9072    8.7130    7.1017 H   0  0  0  0  0  0  0  0  0  0  0  0
   -2.3427    6.2971    5.0349 N   0  0  0  0  0  0  0  0  0  0  0  0
    0.8257    5.2369    1.2401 N   0  0  0  0  0  2  0  0  0  0  0  0
   -0.8869    5.9719    3.6309 Pd  0  0  1  0  0  0  0  0  0  0  0  0
  1 61  1  0  0  0  0
  1 62  1  0  0  0  0
  2 16  1  0  0  0  0
  2  4  1  0  0  0  0
  2 61  1  0  0  0  0
  3  2  1  0  0  0  0
  4  6  1  0  0  0  0
  5  4  1  0  0  0  0
  7 10  1  0  0  0  0
  7  8  1  0  0  0  0
  7  4  1  0  0  0  0
  9  7  1  0  0  0  0
 10 11  1  0  0  0  0
 12 10  1  0  0  0  0
 13 15  1  0  0  0  0
 13 10  1  0  0  0  0
 13 16  1  0  0  0  0
 14 13  1  0  0  0  0
 16 18  1  0  0  0  0
 17 16  1  0  0  0  0
 19 63  1  6  0  0  0
 20 29  1  0  0  0  0
 21 20  2  0  0  0  0
 21 23  1  0  0  0  0
 22 21  1  0  0  0  0
 23 25  2  0  0  0  0
 24 23  1  0  0  0  0
 25 27  1  0  0  0  0
 25 26  1  0  0  0  0
 27 28  1  0  0  0  0
 29 30  1  0  0  0  0
 29 27  2  0  0  0  0
 31 32  1  0  0  0  0
 32 33  1  0  0  0  0
 34 32  2  0  0  0  0
 34 35  1  0  0  0  0
 36 34  1  0  0  0  0
 37 36  1  0  0  0  0
 38 40  1  0  0  0  0
 38 36  2  0  0  0  0
 39 38  1  0  0  0  0
 40 31  2  0  0  0  0
 41 40  1  0  0  0  0
 42 68  1  0  0  0  0
 43 45  1  0  0  0  0
 43 67  1  0  0  0  0
 44 43  1  0  0  0  0
 45 46  1  0  0  0  0
 45 47  1  0  0  0  0
 48 50  1  0  0  0  0
 48 45  1  0  0  0  0
 49 48  1  0  0  0  0
 51 52  1  0  0  0  0
 51 48  1  0  0  0  0
 53 51  1  0  0  0  0
 54 51  1  0  0  0  0
 54 57  1  0  0  0  0
 55 54  1  0  0  0  0
 56 54  1  0  0  0  0
 57 58  1  0  0  0  0
 57 43  1  0  0  0  0
 59 57  1  0  0  0  0
 62 19  1  0  0  0  0
 62 20  1  0  0  0  0
 63 64  1  0  0  0  0
 63 65  1  0  0  0  0
 66 31  1  0  0  0  0
 66 19  1  0  0  0  0
 67 42  1  0  0  0  0
 68 60  1  1  0  0  0
 68  1  2  0  0  0  0
 68 66  1  0  0  0  0
M  END
$$$$
