CSD_code = ECONAO | q = 0 | S = 0 | Stoichiometry = C20H15Cl2N5Zn | MND = 5
 OpenBabel04212202033D

 43 48  0  0  1  0  0  0  0  0999 V2000
    8.8852    2.0051    8.7909 Zn  0  0  0  0  0  0  0  0  0  0  0  0
    8.5649    4.0857    7.8610 Cl  0  0  0  0  0  0  0  0  0  0  0  0
    7.6511    1.1595   10.3818 Cl  0  0  0  0  0  0  0  0  0  0  0  0
   10.3968    1.9153    7.1690 N   0  0  2  0  0  0  0  0  0  0  0  0
   10.4629    2.3298    4.7709 C   0  0  0  0  0  0  0  0  0  0  0  0
   12.6427    4.0709    9.0318 C   0  0  0  0  0  0  0  0  0  0  0  0
    8.1255    0.6969    7.1543 N   0  0  0  0  0  0  0  0  0  0  0  0
   10.8261    2.5976    9.6202 N   0  0  0  0  0  0  0  0  0  0  0  0
   11.6193    3.1234    8.7042 C   0  0  0  0  0  0  0  0  0  0  0  0
   12.7439    4.4061   10.4034 C   0  0  0  0  0  0  0  0  0  0  0  0
   11.0937    1.5928    3.7743 C   0  0  0  0  0  0  0  0  0  0  0  0
   11.2005    0.5230    3.8846 H   0  0  0  0  0  0  0  0  0  0  0  0
   11.4275    2.7159    7.4167 N   0  0  0  0  0  0  0  0  0  0  0  0
   11.8237    3.2667    6.6560 H   0  0  0  0  0  0  0  0  0  0  0  0
    8.7111    0.8903    5.9677 C   0  0  2  0  0  3  0  0  0  0  0  0
   13.5098    4.6827    8.1107 C   0  0  0  0  0  3  0  0  0  0  0  0
   13.4553    4.4409    7.0597 H   0  0  0  0  0  0  0  0  0  0  0  0
    9.9301    1.6962    5.9968 C   0  0  2  0  0  3  0  0  0  0  0  0
    8.1448    0.4104    4.7881 C   0  0  0  0  0  0  0  0  0  0  0  0
    8.6200    0.6042    3.8393 H   0  0  0  0  0  0  0  0  0  0  0  0
   10.9502    2.8989   10.8985 N   0  0  0  0  0  0  0  0  0  0  0  0
    6.3827   -0.5236    6.1019 C   0  0  0  0  0  0  0  0  0  0  0  0
    5.4633   -1.0778    6.1995 H   0  0  0  0  0  0  0  0  0  0  0  0
   11.8457    3.7496   11.2893 C   0  0  0  0  0  0  0  0  0  0  0  0
   11.8769    3.9473   12.3507 H   0  0  0  0  0  0  0  0  0  0  0  0
    7.0014    0.0099    7.2248 C   0  0  0  0  0  0  0  0  0  0  0  0
    6.5878   -0.1037    8.2178 H   0  0  0  0  0  0  0  0  0  0  0  0
   11.5944    2.2349    2.6552 C   0  0  0  0  0  0  0  0  0  0  0  0
   12.0825    1.6608    1.8817 H   0  0  0  0  0  0  0  0  0  0  0  0
   13.7012    5.3450   10.8223 C   0  0  0  0  0  0  0  0  0  0  0  0
   13.7646    5.5936   11.8708 H   0  0  0  0  0  0  0  0  0  0  0  0
   10.8439    4.3454    3.5191 C   0  0  0  0  0  0  0  0  0  0  0  0
   10.7424    5.4154    3.4184 H   0  0  0  0  0  0  0  0  0  0  0  0
   11.4695    3.6087    2.5262 C   0  0  0  0  0  0  0  0  0  0  0  0
   11.8586    4.1044    1.6495 H   0  0  0  0  0  0  0  0  0  0  0  0
   10.3440    3.7134    4.6440 C   0  0  0  0  0  0  0  0  0  0  0  0
    9.8322    4.2702    5.4178 H   0  0  0  0  0  0  0  0  0  0  0  0
   14.4353    5.5965    8.5466 C   0  0  0  0  0  0  0  0  0  0  0  0
   15.0986    6.0687    7.8376 H   0  0  0  0  0  0  0  0  0  0  0  0
    6.9640   -0.3089    4.8621 C   0  0  0  0  0  0  0  0  0  0  0  0
    6.5035   -0.6915    3.9633 H   0  0  0  0  0  0  0  0  0  0  0  0
   14.5318    5.9304    9.9034 C   0  0  0  0  0  0  0  0  0  0  0  0
   15.2671    6.6553   10.2184 H   0  0  0  0  0  0  0  0  0  0  0  0
  1  8  1  0  0  0  0
  1  3  1  0  0  0  0
  2  1  1  0  0  0  0
  4 13  1  6  0  0  0
  4  1  1  0  0  0  0
  6 10  1  0  0  0  0
  7 26  1  0  0  0  0
  7  1  1  0  0  0  0
  8 21  1  0  0  0  0
  9  6  2  0  0  0  0
  9  8  1  0  0  0  0
 10 30  2  0  0  0  0
 10 24  1  0  0  0  0
 11 12  1  0  0  0  0
 11  5  2  0  0  0  0
 13  9  1  0  0  0  0
 14 13  1  0  0  0  0
 15 19  1  6  0  0  0
 15 18  1  0  0  0  0
 15  7  1  0  0  0  0
 16 38  1  0  0  0  0
 16  6  1  0  0  0  0
 17 16  1  0  0  0  0
 18  5  1  1  0  0  0
 18  4  1  0  0  0  0
 19 40  2  0  0  0  0
 20 19  1  0  0  0  0
 21 24  2  0  0  0  0
 22 23  1  0  0  0  0
 22 26  2  0  0  0  0
 24 25  1  0  0  0  0
 26 27  1  0  0  0  0
 28 11  1  0  0  0  0
 29 28  1  0  0  0  0
 30 31  1  0  0  0  0
 32 36  2  0  0  0  0
 33 32  1  0  0  0  0
 34 28  2  0  0  0  0
 34 32  1  0  0  0  0
 35 34  1  0  0  0  0
 36  5  1  0  0  0  0
 36 37  1  0  0  0  0
 38 42  2  0  0  0  0
 39 38  1  0  0  0  0
 40 22  1  0  0  0  0
 41 40  1  0  0  0  0
 42 43  1  0  0  0  0
 42 30  1  0  0  0  0
M  END
$$$$
