CSD_code = ECOROE | q = 0 | S = 0 | Stoichiometry = C25H27Cl2N3Ni | MND = 5
 OpenBabel04212202033D

 58 62  0  0  1  0  0  0  0  0999 V2000
    7.6093    2.8691    3.4173 Ni  0  0  0  0  0  0  0  0  0  0  0  0
    7.8534    2.2024    1.1978 Cl  0  0  0  0  0  0  0  0  0  0  0  0
    8.1550    1.1288    4.3626 Cl  0  0  0  0  0  0  0  0  0  0  0  0
    9.3826    3.8488    3.6026 N   0  0  0  0  0  0  0  0  0  0  0  0
    7.1214    4.4238    2.7113 N   0  0  0  0  0  0  0  0  0  0  0  0
    5.5918    2.6350    3.5486 N   0  0  0  0  0  0  0  0  0  0  0  0
    9.3845    4.9192    2.8794 C   0  0  0  0  0  0  0  0  0  0  0  0
    8.0747    5.3073    2.3748 C   0  0  0  0  0  0  0  0  0  0  0  0
    7.7582    6.4237    1.6080 C   0  0  0  0  0  0  0  0  0  0  0  0
    8.5241    7.1255    1.3204 H   0  0  0  0  0  0  0  0  0  0  0  0
    6.4426    6.6103    1.2095 C   0  0  0  0  0  0  0  0  0  0  0  0
    6.1772    7.4659    0.6077 H   0  0  0  0  0  0  0  0  0  0  0  0
    5.4696    5.6933    1.5788 C   0  0  0  0  0  0  0  0  0  0  0  0
    4.4456    5.8238    1.2684 H   0  0  0  0  0  0  0  0  0  0  0  0
    5.8407    4.5941    2.3461 C   0  0  0  0  0  0  0  0  0  0  0  0
    4.9867    3.5141    2.8206 C   0  0  2  0  0  3  0  0  0  0  0  0
   10.5904    5.7477    2.5804 C   0  0  0  0  0  0  0  0  0  0  0  0
   11.4463    5.3959    3.1513 H   0  0  0  0  0  0  0  0  0  0  0  0
   10.3962    6.7898    2.8308 H   0  0  0  0  0  0  0  0  0  0  0  0
   10.8250    5.6925    1.5178 H   0  0  0  0  0  0  0  0  0  0  0  0
    3.5309    3.4953    2.4888 C   0  0  0  0  0  0  0  0  0  0  0  0
    3.0241    2.7059    3.0386 H   0  0  0  0  0  0  0  0  0  0  0  0
    3.3947    3.3286    1.4208 H   0  0  0  0  0  0  0  0  0  0  0  0
    3.0808    4.4543    2.7420 H   0  0  0  0  0  0  0  0  0  0  0  0
   10.5444    3.3115    4.1765 C   0  0  0  0  0  0  0  0  0  0  0  0
   11.5321    2.6854    3.4055 C   0  0  0  0  0  0  0  0  0  0  0  0
   12.6334    2.1532    4.0620 C   0  0  0  0  0  0  0  0  0  0  0  0
   13.3991    1.6625    3.4791 H   0  0  0  0  0  0  0  0  0  0  0  0
   12.7583    2.2304    5.4361 C   0  0  0  0  0  0  0  0  0  0  0  0
   13.6247    1.8097    5.9241 H   0  0  0  0  0  0  0  0  0  0  0  0
   11.7606    2.8256    6.1880 C   0  0  0  0  0  0  0  0  0  0  0  0
   11.8436    2.8664    7.2640 H   0  0  0  0  0  0  0  0  0  0  0  0
   10.6411    3.3597    5.5749 C   0  0  0  0  0  0  0  0  0  0  0  0
   11.3950    2.5391    1.9223 C   0  0  0  0  0  0  0  0  0  0  0  0
   10.3535    2.3995    1.6384 H   0  0  0  0  0  0  0  0  0  0  0  0
   11.9605    1.6763    1.5802 H   0  0  0  0  0  0  0  0  0  0  0  0
   11.7766    3.4186    1.4020 H   0  0  0  0  0  0  0  0  0  0  0  0
    9.5353    3.9875    6.3628 C   0  0  0  0  0  0  0  0  0  0  0  0
    9.6609    3.7978    7.4250 H   0  0  0  0  0  0  0  0  0  0  0  0
    8.5823    3.5627    6.0345 H   0  0  0  0  0  0  0  0  0  0  0  0
    9.4973    5.0657    6.1995 H   0  0  0  0  0  0  0  0  0  0  0  0
    4.9453    1.5141    4.0899 C   0  0  0  0  0  0  0  0  0  0  0  0
    4.8108    1.4710    5.4854 C   0  0  0  0  0  0  0  0  0  0  0  0
    4.1974    0.3751    6.0660 C   0  0  0  0  0  0  0  0  0  0  0  0
    4.0848    0.3398    7.1395 H   0  0  0  0  0  0  0  0  0  0  0  0
    3.7454   -0.6743    5.2853 C   0  0  0  0  0  0  0  0  0  0  0  0
    3.2749   -1.5288    5.7482 H   0  0  0  0  0  0  0  0  0  0  0  0
    3.9191   -0.6390    3.9148 C   0  0  0  0  0  0  0  0  0  0  0  0
    3.5922   -1.4718    3.3095 H   0  0  0  0  0  0  0  0  0  0  0  0
    4.5197    0.4456    3.2903 C   0  0  0  0  0  0  0  0  0  0  0  0
    5.3299    2.6092    6.3056 C   0  0  0  0  0  0  0  0  0  0  0  0
    6.3570    2.8265    5.9984 H   0  0  0  0  0  0  0  0  0  0  0  0
    5.3216    2.3597    7.3628 H   0  0  0  0  0  0  0  0  0  0  0  0
    4.7344    3.5104    6.1514 H   0  0  0  0  0  0  0  0  0  0  0  0
    4.7458    0.4325    1.8107 C   0  0  0  0  0  0  0  0  0  0  0  0
    5.6797    0.9290    1.5536 H   0  0  0  0  0  0  0  0  0  0  0  0
    3.9341    0.9348    1.2827 H   0  0  0  0  0  0  0  0  0  0  0  0
    4.7943   -0.5923    1.4515 H   0  0  0  0  0  0  0  0  0  0  0  0
  1  6  1  0  0  0  0
  1  4  1  0  0  0  0
  1  3  1  0  0  0  0
  2  1  1  0  0  0  0
  4 25  1  0  0  0  0
  5  1  1  0  0  0  0
  6 42  1  0  0  0  0
  7  4  1  0  0  0  0
  8  5  1  0  0  0  0
  8  7  2  0  0  0  0
  9  8  1  0  0  0  0
 10  9  1  0  0  0  0
 11 13  1  0  0  0  0
 11  9  2  0  0  0  0
 12 11  1  0  0  0  0
 13 15  2  0  0  0  0
 14 13  1  0  0  0  0
 15  5  1  0  0  0  0
 15 16  1  0  0  0  0
 16 21  1  1  0  0  0
 16  6  1  0  0  0  0
 17 19  1  0  0  0  0
 17  7  1  0  0  0  0
 17 18  1  0  0  0  0
 20 17  1  0  0  0  0
 21 24  1  0  0  0  0
 21 22  1  0  0  0  0
 23 21  1  0  0  0  0
 25 33  1  0  0  0  0
 26 27  1  0  0  0  0
 26 25  2  0  0  0  0
 27 29  2  0  0  0  0
 28 27  1  0  0  0  0
 29 30  1  0  0  0  0
 29 31  1  0  0  0  0
 31 32  1  0  0  0  0
 33 31  2  0  0  0  0
 33 38  1  0  0  0  0
 34 26  1  0  0  0  0
 35 34  1  0  0  0  0
 36 34  1  0  0  0  0
 37 34  1  0  0  0  0
 38 39  1  0  0  0  0
 40 38  1  0  0  0  0
 41 38  1  0  0  0  0
 42 43  1  0  0  0  0
 43 44  2  0  0  0  0
 43 51  1  0  0  0  0
 44 45  1  0  0  0  0
 46 47  1  0  0  0  0
 46 44  1  0  0  0  0
 48 46  2  0  0  0  0
 49 48  1  0  0  0  0
 50 48  1  0  0  0  0
 50 42  2  0  0  0  0
 51 53  1  0  0  0  0
 52 51  1  0  0  0  0
 54 51  1  0  0  0  0
 55 50  1  0  0  0  0
 56 55  1  0  0  0  0
 57 55  1  0  0  0  0
 58 55  1  0  0  0  0
M  END
$$$$
