CSD_code = ECUBIN | q = 0 | S = 0 | Stoichiometry = C15H18Cl2IrN | MND = 8
 OpenBabel04212202033D

 37 37  0  0  1  0  0  0  0  0999 V2000
   -3.7467    5.3470    9.9960 Ir  0  0  0  0  0  0  0  0  0  0  0  0
   -5.1856    4.8825   11.7765 Cl  0  0  0  0  0 15  0  0  0  0  0  0
   -5.0646    7.1650    9.3506 Cl  0  0  0  0  0 15  0  0  0  0  0  0
   -2.6425    6.5192   11.1548 N   0  0  0  0  0  0  0  0  0  0  0  0
   -2.5888    3.4890    9.8879 C   0  0  2  0  0  3  0  0  0  0  0  0
   -3.6786    3.2327    8.9735 C   0  0  0  0  0  0  0  0  0  0  0  0
   -3.6313    4.1996    7.9486 C   0  0  0  0  0  0  0  0  0  0  0  0
   -2.5116    5.0769    8.2051 C   0  0  1  0  0  3  0  0  0  0  0  0
   -1.8459    4.5944    9.3723 C   0  0  1  0  0  0  0  0  0  0  0  0
   -2.2238    2.5901   11.0229 C   0  0  0  0  0  0  0  0  0  0  0  0
   -4.5949    2.0608    9.0889 C   0  0  0  0  0  0  0  0  0  0  0  0
   -4.4855    4.2905    6.7284 C   0  0  0  0  0  0  0  0  0  0  0  0
   -2.0559    6.1405    7.2615 C   0  0  0  0  0  0  0  0  0  0  0  0
   -0.7480    5.3203   10.1080 C   0  0  0  0  0  0  0  0  0  0  0  0
   -1.3042    6.3558   11.0615 C   0  0  2  0  0  3  0  0  0  0  0  0
   -0.4420    7.1253   11.8284 C   0  0  0  0  0  0  0  0  0  0  0  0
   -0.9435    8.0745   12.7035 C   0  0  0  0  0  0  0  0  0  0  0  0
   -2.3180    8.2286   12.7865 C   0  0  0  0  0  0  0  0  0  0  0  0
   -3.1281    7.4351   11.9985 C   0  0  0  0  0  0  0  0  0  0  0  0
   -1.9282    1.6098   10.6450 H   0  0  0  0  0  0  0  0  0  0  0  0
   -1.4057    3.0008   11.6100 H   0  0  0  0  0  0  0  0  0  0  0  0
   -3.0788    2.4525   11.6830 H   0  0  0  0  0  0  0  0  0  0  0  0
   -4.9738    1.9728   10.1055 H   0  0  0  0  0  0  0  0  0  0  0  0
   -5.4421    2.1523    8.4149 H   0  0  0  0  0  0  0  0  0  0  0  0
   -4.0539    1.1437    8.8489 H   0  0  0  0  0  0  0  0  0  0  0  0
   -4.8804    5.2990    6.6143 H   0  0  0  0  0  0  0  0  0  0  0  0
   -5.3208    3.5974    6.7770 H   0  0  0  0  0  0  0  0  0  0  0  0
   -3.8901    4.0597    5.8434 H   0  0  0  0  0  0  0  0  0  0  0  0
   -2.8628    6.8477    7.0753 H   0  0  0  0  0  0  0  0  0  0  0  0
   -1.7696    5.6965    6.3065 H   0  0  0  0  0  0  0  0  0  0  0  0
   -1.2072    6.6912    7.6604 H   0  0  0  0  0  0  0  0  0  0  0  0
   -0.0824    5.8182    9.3969 H   0  0  0  0  0  0  0  0  0  0  0  0
   -0.1401    4.6097   10.6754 H   0  0  0  0  0  0  0  0  0  0  0  0
    0.6222    6.9723   11.7321 H   0  0  0  0  0  0  0  0  0  0  0  0
   -0.2773    8.6755   13.3025 H   0  0  0  0  0  0  0  0  0  0  0  0
   -2.7624    8.9514   13.4504 H   0  0  0  0  0  0  0  0  0  0  0  0
   -4.2053    7.5231   12.0325 H   0  0  0  0  0  0  0  0  0  0  0  0
  1  4  1  0  0  0  0
  4 19  1  0  0  0  0
  5 10  1  6  0  0  0
  6 11  1  0  0  0  0
  6  5  1  0  0  0  0
  7  8  1  0  0  0  0
  7  6  2  0  0  0  0
  8 13  1  6  0  0  0
  8  9  1  0  0  0  0
  9  5  1  0  0  0  0
  9  1  1  1  0  0  0
  9 14  1  0  0  0  0
 10 21  1  0  0  0  0
 10 22  1  0  0  0  0
 11 23  1  0  0  0  0
 12 27  1  0  0  0  0
 12  7  1  0  0  0  0
 13 31  1  0  0  0  0
 14 33  1  0  0  0  0
 14 15  1  0  0  0  0
 15  4  1  0  0  0  0
 15 16  1  1  0  0  0
 16 17  2  0  0  0  0
 17 18  1  0  0  0  0
 17 35  1  0  0  0  0
 18 36  1  0  0  0  0
 19 37  1  0  0  0  0
 19 18  2  0  0  0  0
 20 10  1  0  0  0  0
 24 11  1  0  0  0  0
 25 11  1  0  0  0  0
 26 12  1  0  0  0  0
 28 12  1  0  0  0  0
 29 13  1  0  0  0  0
 30 13  1  0  0  0  0
 32 14  1  0  0  0  0
 34 16  1  0  0  0  0
M  END
$$$$
