CSD_code = ECUGER | q = 0 | S = 0 | Stoichiometry = C6H7Cl2N3OSZn | MND = 4
 OpenBabel04212202033D

 21 21  0  0  0  0  0  0  0  0999 V2000
    3.7565    0.8810    7.7642 Zn  0  0  0  0  0  0  0  0  0  0  0  0
    2.7108   -0.8841    7.0571 Cl  0  0  0  0  0  0  0  0  0  0  0  0
    3.5490    2.4583    9.2910 Cl  0  0  0  0  0  0  0  0  0  0  0  0
    6.9712    4.4473    8.4314 S   0  0  0  0  0  0  0  0  0  0  0  0
    5.9683    0.6679    8.0042 O   0  0  0  0  0  0  0  0  0  0  0  0
    4.2821    1.9491    5.8259 N   0  0  0  0  0  4  0  0  0  0  0  0
    6.2211    3.3426    7.5198 N   0  0  0  0  0  0  0  0  0  0  0  0
    4.2561    3.3477    6.0274 C   0  0  0  0  0  0  0  0  0  0  0  0
    5.1300    5.3427    7.1907 C   0  0  0  0  0  0  0  0  0  0  0  0
    3.2211    5.5357    5.7970 C   0  0  0  0  0  0  0  0  0  0  0  0
    2.4273    6.1165    5.3534 H   0  0  0  0  0  0  0  0  0  0  0  0
    5.2071    3.9416    6.8845 C   0  0  0  0  0  0  0  0  0  0  0  0
    4.1232    6.1422    6.6255 C   0  0  0  0  0  0  0  0  0  0  0  0
    4.0745    7.1906    6.8659 H   0  0  0  0  0  0  0  0  0  0  0  0
    3.2815    4.1596    5.5038 C   0  0  0  0  0  0  0  0  0  0  0  0
    2.5242    3.7285    4.8652 H   0  0  0  0  0  0  0  0  0  0  0  0
    6.0873    5.7146    8.0427 N   0  0  0  0  0  0  0  0  0  0  0  0
    6.2648    0.3792    8.8722 H   0  0  0  0  0  0  0  0  0  0  0  0
    6.2291    1.6154    7.9212 H   0  0  0  0  0  0  0  0  0  0  0  0
    5.2236    1.6038    5.6618 H   0  0  0  0  0  0  0  0  0  0  0  0
    3.6691    1.6596    5.0686 H   0  0  0  0  0  0  0  0  0  0  0  0
  1  3  1  0  0  0  0
  2  1  1  0  0  0  0
  5 18  1  0  0  0  0
  6  8  1  0  0  0  0
  6  1  1  0  0  0  0
  7  4  1  0  0  0  0
  8 12  1  0  0  0  0
  9 17  2  0  0  0  0
 10 13  2  0  0  0  0
 11 10  1  0  0  0  0
 12  9  1  0  0  0  0
 12  7  2  0  0  0  0
 13 14  1  0  0  0  0
 13  9  1  0  0  0  0
 15 10  1  0  0  0  0
 15  8  2  0  0  0  0
 16 15  1  0  0  0  0
 17  4  1  0  0  0  0
 19  5  1  0  0  0  0
 20  6  1  0  0  0  0
 21  6  1  0  0  0  0
M  END
$$$$
