CSD_code = ECUGUH | q = 0 | S = 0 | Stoichiometry = C22H17Cl3IrN3O | MND = 6
 OpenBabel04212202033D

 47 52  0  0  1  0  0  0  0  0999 V2000
    6.1522    7.2757   10.2681 Ir  0  0  0  0  0  0  0  0  0  0  0  0
    6.2468    5.1589   11.3268 Cl  0  0  0  0  0  0  0  0  0  0  0  0
    8.2336    7.8722   11.0729 Cl  0  0  0  0  0  0  0  0  0  0  0  0
    5.4744    8.5795   12.8891 C   0  0  0  0  0  3  0  0  0  0  0  0
    6.5452    8.7148   12.9769 H   0  0  0  0  0  0  0  0  0  0  0  0
    3.3761    7.0878   10.3467 C   0  0  2  0  0  3  0  0  0  0  0  0
    6.7463    6.4345    8.5558 N   0  0  0  0  0  0  0  0  0  0  0  0
    5.0561    7.9731   11.7867 N   0  0  0  0  0  0  0  0  0  0  0  0
    0.3652    5.9813    6.7876 C   0  0  0  0  0  0  0  0  0  0  0  0
    1.0944    6.4878    6.1728 H   0  0  0  0  0  0  0  0  0  0  0  0
    0.0807    4.8408   10.2198 O   0  0  0  0  0  0  0  0  0  0  0  0
    3.7285    7.7637   11.5980 C   0  0  0  0  0  0  0  0  0  0  0  0
    2.8031    8.1770   12.5500 C   0  0  0  0  0  0  0  0  0  0  0  0
    1.7523    8.0006   12.3870 H   0  0  0  0  0  0  0  0  0  0  0  0
    4.4514    6.7931    9.6084 N   0  0  0  0  0  0  0  0  0  0  0  0
    3.2425    8.8102   13.6994 C   0  0  0  0  0  0  0  0  0  0  0  0
    2.5356    9.1369   14.4466 H   0  0  0  0  0  0  0  0  0  0  0  0
    1.9889    6.1029    8.6515 C   0  0  0  0  0  0  0  0  0  0  0  0
    5.7014    5.9747    7.8216 C   0  0  2  0  0  3  0  0  0  0  0  0
    4.3808    6.1819    8.4215 C   0  0  0  0  0  0  0  0  0  0  0  0
   -1.5087    4.7256    8.3846 C   0  0  0  0  0  0  0  0  0  0  0  0
   -2.2519    4.2303    8.9886 H   0  0  0  0  0  0  0  0  0  0  0  0
    2.1129    6.7487    9.8839 C   0  0  0  0  0  0  0  0  0  0  0  0
    1.2319    6.9819   10.4562 H   0  0  0  0  0  0  0  0  0  0  0  0
    5.8914    9.3467    9.1435 Cl  0  0  0  0  0  0  0  0  0  0  0  0
    3.1412    5.8228    7.9115 C   0  0  0  0  0  0  0  0  0  0  0  0
    3.0584    5.3137    6.9650 H   0  0  0  0  0  0  0  0  0  0  0  0
    0.6725    5.7258    8.1189 C   0  0  0  0  0  0  0  0  0  0  0  0
    4.6028    9.0158   13.8724 C   0  0  0  0  0  0  0  0  0  0  0  0
    4.9880    9.5051   14.7519 H   0  0  0  0  0  0  0  0  0  0  0  0
    7.2062    5.2094    6.1192 C   0  0  0  0  0  0  0  0  0  0  0  0
    7.3863    4.7312    5.1686 H   0  0  0  0  0  0  0  0  0  0  0  0
    8.2596    5.6851    6.8850 C   0  0  0  0  0  0  0  0  0  0  0  0
    9.2806    5.5906    6.5533 H   0  0  0  0  0  0  0  0  0  0  0  0
   -0.2832    5.0873    8.9325 C   0  0  0  0  0  0  0  0  0  0  0  0
    7.9825    6.2918    8.0984 C   0  0  0  0  0  0  0  0  0  0  0  0
    8.7691    6.6804    8.7330 H   0  0  0  0  0  0  0  0  0  0  0  0
    5.9148    5.3567    6.5943 C   0  0  0  0  0  0  0  0  0  0  0  0
    5.0755    4.9962    6.0218 H   0  0  0  0  0  0  0  0  0  0  0  0
   -1.7943    4.9996    7.0581 C   0  0  0  0  0  0  0  0  0  0  0  0
   -2.7548    4.7160    6.6555 H   0  0  0  0  0  0  0  0  0  0  0  0
   -0.8613    5.6296    6.2552 C   0  0  0  0  0  0  0  0  0  0  0  0
   -1.0862    5.8453    5.2225 H   0  0  0  0  0  0  0  0  0  0  0  0
   -0.7723    4.0719   11.0348 C   0  0  0  0  0  0  0  0  0  0  0  0
   -0.9688    3.0891   10.5969 H   0  0  0  0  0  0  0  0  0  0  0  0
   -0.2387    3.9457   11.9755 H   0  0  0  0  0  0  0  0  0  0  0  0
   -1.7208    4.5849   11.2228 H   0  0  0  0  0  0  0  0  0  0  0  0
  1  3  1  0  0  0  0
  1  2  1  0  0  0  0
  1  8  1  0  0  0  0
  4  5  1  0  0  0  0
  4 29  1  0  0  0  0
  6 23  1  6  0  0  0
  6 12  1  0  0  0  0
  7  1  1  0  0  0  0
  8  4  1  0  0  0  0
  9 28  1  0  0  0  0
 10  9  1  0  0  0  0
 11 44  1  0  0  0  0
 12  8  1  0  0  0  0
 12 13  2  0  0  0  0
 13 16  1  0  0  0  0
 14 13  1  0  0  0  0
 15  1  1  0  0  0  0
 15  6  1  0  0  0  0
 16 29  2  0  0  0  0
 16 17  1  0  0  0  0
 18 23  2  0  0  0  0
 19 38  1  1  0  0  0
 19 20  1  0  0  0  0
 19  7  1  0  0  0  0
 20 15  1  0  0  0  0
 21 35  1  0  0  0  0
 21 22  1  0  0  0  0
 23 24  1  0  0  0  0
 25  1  1  0  0  0  0
 26 20  2  0  0  0  0
 26 18  1  0  0  0  0
 27 26  1  0  0  0  0
 28 18  1  0  0  0  0
 28 35  2  0  0  0  0
 29 30  1  0  0  0  0
 31 38  2  0  0  0  0
 31 33  1  0  0  0  0
 32 31  1  0  0  0  0
 33 36  2  0  0  0  0
 34 33  1  0  0  0  0
 35 11  1  0  0  0  0
 36  7  1  0  0  0  0
 36 37  1  0  0  0  0
 39 38  1  0  0  0  0
 40 21  2  0  0  0  0
 41 40  1  0  0  0  0
 42  9  2  0  0  0  0
 42 40  1  0  0  0  0
 43 42  1  0  0  0  0
 44 47  1  0  0  0  0
 44 46  1  0  0  0  0
 45 44  1  0  0  0  0
M  END
$$$$
