CSD_code = ECUKUI | q = 1 | S = 0 | Stoichiometry = C23H40ClNP2Ta(1+) | MND = 9
 OpenBabel04212202033D

 68 69  0  0  1  0  0  0  0  0999 V2000
   -8.4086    5.3458    8.9891 Ta  0  0  0  0  0  0  0  0  0  0  0  0
   -8.1624    3.6255    7.5528 Cl  0  0  0  0  0  0  0  0  0  0  0  0
   -9.9487    3.6604   10.4525 P   0  0  0  0  0  4  0  0  0  0  0  0
   -6.7210    6.7701    7.4978 P   0  0  0  0  0  4  0  0  0  0  0  0
   -9.7672    6.5214    9.0948 N   0  0  0  0  0  2  0  0  0  0  0  0
   -5.1344    4.8714   10.3620 C   0  0  0  0  0  0  0  0  0  0  0  0
   -4.2940    4.2538   10.0966 H   0  0  0  0  0  0  0  0  0  0  0  0
   -6.3581    4.4404   10.7753 C   0  0  0  0  0  0  0  0  0  0  0  0
   -6.6510    3.4168   10.9562 H   0  0  0  0  0  0  0  0  0  0  0  0
   -7.2163    5.6003   10.9969 C   0  0  1  0  0  0  0  0  0  0  0  0
   -7.8803    5.6132   11.8563 H   0  0  0  0  0  0  0  0  0  0  0  0
   -6.3494    6.7454   10.7791 C   0  0  0  0  0  0  0  0  0  0  0  0
   -6.6440    7.7640   10.9618 H   0  0  0  0  0  0  0  0  0  0  0  0
   -5.1263    6.3010   10.3687 C   0  0  0  0  0  0  0  0  0  0  0  0
   -4.2656    6.9065   10.1406 H   0  0  0  0  0  0  0  0  0  0  0  0
  -10.9118    7.2142    9.1057 C   0  0  0  0  0  0  0  0  0  0  0  0
  -11.8197    7.1719    8.0132 C   0  0  0  0  0  0  0  0  0  0  0  0
  -13.0142    7.8653    8.1035 C   0  0  0  0  0  0  0  0  0  0  0  0
  -13.7070    7.8398    7.2770 H   0  0  0  0  0  0  0  0  0  0  0  0
  -13.3364    8.6002    9.2302 C   0  0  0  0  0  0  0  0  0  0  0  0
  -14.2728    9.1338    9.2772 H   0  0  0  0  0  0  0  0  0  0  0  0
  -12.4480    8.6648   10.2914 C   0  0  0  0  0  0  0  0  0  0  0  0
  -12.7028    9.2570   11.1551 H   0  0  0  0  0  0  0  0  0  0  0  0
  -11.2453    7.9874   10.2531 C   0  0  0  0  0  0  0  0  0  0  0  0
  -11.4688    6.4356    6.7428 C   0  0  0  0  0  0  0  0  0  0  0  0
  -10.5267    5.8914    6.9073 H   0  0  0  0  0  0  0  0  0  0  0  0
  -11.2654    7.4493    5.6105 C   0  0  0  0  0  0  0  0  0  0  0  0
  -10.8729    6.9572    4.7238 H   0  0  0  0  0  0  0  0  0  0  0  0
  -10.5786    8.2360    5.9158 H   0  0  0  0  0  0  0  0  0  0  0  0
  -12.2102    7.9177    5.3483 H   0  0  0  0  0  0  0  0  0  0  0  0
  -12.5448    5.4229    6.3438 C   0  0  0  0  0  0  0  0  0  0  0  0
  -12.2073    4.8433    5.4879 H   0  0  0  0  0  0  0  0  0  0  0  0
  -13.4673    5.9246    6.0657 H   0  0  0  0  0  0  0  0  0  0  0  0
  -12.7620    4.7404    7.1607 H   0  0  0  0  0  0  0  0  0  0  0  0
  -10.2319    8.0845   11.3655 C   0  0  0  0  0  0  0  0  0  0  0  0
   -9.6708    7.1422   11.3781 H   0  0  0  0  0  0  0  0  0  0  0  0
   -9.2453    9.2055   11.0185 C   0  0  0  0  0  0  0  0  0  0  0  0
   -8.5020    9.3098   11.8047 H   0  0  0  0  0  0  0  0  0  0  0  0
   -9.7706   10.1515   10.9126 H   0  0  0  0  0  0  0  0  0  0  0  0
   -8.7450    8.9729   10.0798 H   0  0  0  0  0  0  0  0  0  0  0  0
  -10.8468    8.3180   12.7435 C   0  0  0  0  0  0  0  0  0  0  0  0
  -10.0884    8.1833   13.5108 H   0  0  0  0  0  0  0  0  0  0  0  0
  -11.6582    7.6190   12.9337 H   0  0  0  0  0  0  0  0  0  0  0  0
  -11.2326    9.3294   12.8349 H   0  0  0  0  0  0  0  0  0  0  0  0
   -6.2375    8.5079    7.8017 C   0  0  0  0  0  0  0  0  0  0  0  0
   -7.1337    9.1026    7.9693 H   0  0  0  0  0  0  0  0  0  0  0  0
   -5.7057    8.8904    6.9309 H   0  0  0  0  0  0  0  0  0  0  0  0
   -5.5987    8.5757    8.6778 H   0  0  0  0  0  0  0  0  0  0  0  0
   -7.5671    6.9128    5.8795 C   0  0  0  0  0  0  0  0  0  0  0  0
   -8.4762    7.4990    6.0008 H   0  0  0  0  0  0  0  0  0  0  0  0
   -7.8367    5.9217    5.5156 H   0  0  0  0  0  0  0  0  0  0  0  0
   -6.9155    7.3979    5.1525 H   0  0  0  0  0  0  0  0  0  0  0  0
   -5.1638    5.9463    7.0054 C   0  0  0  0  0  0  0  0  0  0  0  0
   -4.4762    5.8951    7.8454 H   0  0  0  0  0  0  0  0  0  0  0  0
   -4.7029    6.5034    6.1897 H   0  0  0  0  0  0  0  0  0  0  0  0
   -5.3852    4.9345    6.6679 H   0  0  0  0  0  0  0  0  0  0  0  0
  -10.5062    4.0969   12.1409 C   0  0  0  0  0  0  0  0  0  0  0  0
   -9.6663    4.0797   12.8326 H   0  0  0  0  0  0  0  0  0  0  0  0
  -11.2567    3.3802   12.4724 H   0  0  0  0  0  0  0  0  0  0  0  0
  -10.9373    5.0958   12.1256 H   0  0  0  0  0  0  0  0  0  0  0  0
  -11.5331    3.5182    9.5540 C   0  0  0  0  0  0  0  0  0  0  0  0
  -11.3425    3.1497    8.5469 H   0  0  0  0  0  0  0  0  0  0  0  0
  -11.9839    4.5078    9.4910 H   0  0  0  0  0  0  0  0  0  0  0  0
  -12.2067    2.8361   10.0724 H   0  0  0  0  0  0  0  0  0  0  0  0
   -9.4357    1.9102   10.6273 C   0  0  0  0  0  0  0  0  0  0  0  0
   -8.6038    1.8294   11.3243 H   0  0  0  0  0  0  0  0  0  0  0  0
   -9.1252    1.5242    9.6580 H   0  0  0  0  0  0  0  0  0  0  0  0
  -10.2715    1.3183   10.9989 H   0  0  0  0  0  0  0  0  0  0  0  0
  1  5  1  0  0  0  0
  1  3  1  0  0  0  0
  1 10  1  0  0  0  0
  2  1  1  0  0  0  0
  3 65  1  0  0  0  0
  3 57  1  0  0  0  0
  4 45  1  0  0  0  0
  4  1  1  0  0  0  0
  5 16  1  0  0  0  0
  6 14  1  0  0  0  0
  6  8  2  0  0  0  0
  7  6  1  0  0  0  0
  8  9  1  0  0  0  0
  8 10  1  0  0  0  0
 10 11  1  1  0  0  0
 12 13  1  0  0  0  0
 12 10  1  0  0  0  0
 14 12  2  0  0  0  0
 15 14  1  0  0  0  0
 16 24  1  0  0  0  0
 17 18  1  0  0  0  0
 17 16  2  0  0  0  0
 18 20  2  0  0  0  0
 19 18  1  0  0  0  0
 20 21  1  0  0  0  0
 20 22  1  0  0  0  0
 22 23  1  0  0  0  0
 24 22  2  0  0  0  0
 24 35  1  0  0  0  0
 25 26  1  0  0  0  0
 25 17  1  0  0  0  0
 27 29  1  0  0  0  0
 27 25  1  0  0  0  0
 28 27  1  0  0  0  0
 30 27  1  0  0  0  0
 31 25  1  0  0  0  0
 31 34  1  0  0  0  0
 32 31  1  0  0  0  0
 33 31  1  0  0  0  0
 35 36  1  0  0  0  0
 35 41  1  0  0  0  0
 37 35  1  0  0  0  0
 37 38  1  0  0  0  0
 39 37  1  0  0  0  0
 40 37  1  0  0  0  0
 41 44  1  0  0  0  0
 41 43  1  0  0  0  0
 41 42  1  0  0  0  0
 45 46  1  0  0  0  0
 45 48  1  0  0  0  0
 47 45  1  0  0  0  0
 49 50  1  0  0  0  0
 49  4  1  0  0  0  0
 51 49  1  0  0  0  0
 52 49  1  0  0  0  0
 53  4  1  0  0  0  0
 53 54  1  0  0  0  0
 55 53  1  0  0  0  0
 56 53  1  0  0  0  0
 57 59  1  0  0  0  0
 57 58  1  0  0  0  0
 60 57  1  0  0  0  0
 61 64  1  0  0  0  0
 61  3  1  0  0  0  0
 62 61  1  0  0  0  0
 63 61  1  0  0  0  0
 65 68  1  0  0  0  0
 65 66  1  0  0  0  0
 67 65  1  0  0  0  0
M  END
$$$$
