CSD_code = EDAMUR | q = 0 | S = 0 | Stoichiometry = C16H24Cl2N4Ru | MND = 6
 OpenBabel04212202033D

 47 50  0  0  1  0  0  0  0  0999 V2000
    0.2924    5.4289    3.5460 Ru  0  0  0  0  0  0  0  0  0  0  0  0
   -1.2861    4.8543    5.2662 Cl  0  0  0  0  0  0  0  0  0  0  0  0
    1.9030    6.0278    1.8625 Cl  0  0  0  0  0  0  0  0  0  0  0  0
    1.3374    6.3370    4.8360 N   0  0  0  0  0  0  0  0  0  0  0  0
   -0.6942    7.3827    3.4819 N   0  0  0  0  0  4  0  0  0  0  0  0
    1.6681    3.8106    4.0859 N   0  0  0  0  0  4  0  0  0  0  0  0
   -0.8150    4.4546    2.1670 N   0  0  0  0  0  0  0  0  0  0  0  0
    0.8950    7.4899    5.3516 C   0  0  2  0  0  3  0  0  0  0  0  0
    1.6395    8.1870    6.2849 C   0  0  0  0  0  0  0  0  0  0  0  0
    1.2733    9.1196    6.6850 H   0  0  0  0  0  0  0  0  0  0  0  0
    2.8562    7.6600    6.7025 C   0  0  0  0  0  0  0  0  0  0  0  0
    3.4533    8.1795    7.4347 H   0  0  0  0  0  0  0  0  0  0  0  0
    3.2950    6.4554    6.1650 C   0  0  0  0  0  0  0  0  0  0  0  0
    4.2352    6.0228    6.4697 H   0  0  0  0  0  0  0  0  0  0  0  0
    2.5107    5.8206    5.2197 C   0  0  0  0  0  0  0  0  0  0  0  0
   -0.4761    7.8711    4.8614 C   0  0  0  0  0  0  0  0  0  0  0  0
   -0.6397    8.9559    4.9227 H   0  0  0  0  0  0  0  0  0  0  0  0
   -1.2024    7.3672    5.5110 H   0  0  0  0  0  0  0  0  0  0  0  0
   -0.0723    8.3299    2.5578 C   0  0  0  0  0  0  0  0  0  0  0  0
   -0.1759    7.9774    1.5330 H   0  0  0  0  0  0  0  0  0  0  0  0
    0.9911    8.4225    2.7778 H   0  0  0  0  0  0  0  0  0  0  0  0
   -0.5443    9.3179    2.6423 H   0  0  0  0  0  0  0  0  0  0  0  0
   -2.1283    7.3186    3.2058 C   0  0  0  0  0  0  0  0  0  0  0  0
   -2.2858    7.0142    2.1705 H   0  0  0  0  0  0  0  0  0  0  0  0
   -2.5921    6.5819    3.8628 H   0  0  0  0  0  0  0  0  0  0  0  0
   -2.6039    8.2953    3.3625 H   0  0  0  0  0  0  0  0  0  0  0  0
    2.8794    4.5658    4.4748 C   0  0  0  0  0  0  0  0  0  0  0  0
    3.3877    4.8760    3.5536 H   0  0  0  0  0  0  0  0  0  0  0  0
    3.5626    3.9349    5.0602 H   0  0  0  0  0  0  0  0  0  0  0  0
    1.2307    3.0227    5.2374 C   0  0  0  0  0  0  0  0  0  0  0  0
    1.0271    3.6795    6.0829 H   0  0  0  0  0  0  0  0  0  0  0  0
    2.0028    2.2963    5.5242 H   0  0  0  0  0  0  0  0  0  0  0  0
    0.3146    2.4855    4.9983 H   0  0  0  0  0  0  0  0  0  0  0  0
    1.9896    2.9058    2.9832 C   0  0  0  0  0  0  0  0  0  0  0  0
    2.8137    2.2329    3.2528 H   0  0  0  0  0  0  0  0  0  0  0  0
    1.1129    2.3053    2.7380 H   0  0  0  0  0  0  0  0  0  0  0  0
    2.2724    3.4891    2.1061 H   0  0  0  0  0  0  0  0  0  0  0  0
   -0.8895    4.8757    0.8955 C   0  0  0  0  0  3  0  0  0  0  0  0
   -0.3092    5.7552    0.6459 H   0  0  0  0  0  0  0  0  0  0  0  0
   -1.6205    4.2277   -0.0807 C   0  0  0  0  0  0  0  0  0  0  0  0
   -1.6305    4.6188   -1.0862 H   0  0  0  0  0  0  0  0  0  0  0  0
   -2.3305    3.0825    0.2478 C   0  0  0  0  0  0  0  0  0  0  0  0
   -2.9115    2.5531   -0.4913 H   0  0  0  0  0  0  0  0  0  0  0  0
   -2.2661    2.6433    1.5616 C   0  0  0  0  0  0  0  0  0  0  0  0
   -2.7993    1.7609    1.8799 H   0  0  0  0  0  0  0  0  0  0  0  0
   -1.5059    3.3467    2.4750 C   0  0  0  0  0  0  0  0  0  0  0  0
   -1.4698    3.0306    3.5101 H   0  0  0  0  0  0  0  0  0  0  0  0
  1  6  1  0  0  0  0
  1  4  1  0  0  0  0
  1  2  1  0  0  0  0
  3  1  1  0  0  0  0
  4 15  1  0  0  0  0
  4  8  1  0  0  0  0
  5  1  1  0  0  0  0
  5 16  1  0  0  0  0
  6 27  1  0  0  0  0
  6 30  1  0  0  0  0
  7 46  1  0  0  0  0
  7  1  1  0  0  0  0
  8  9  1  1  0  0  0
  9 10  1  0  0  0  0
  9 11  2  0  0  0  0
 11 12  1  0  0  0  0
 13 14  1  0  0  0  0
 13 11  1  0  0  0  0
 15 13  2  0  0  0  0
 16 17  1  0  0  0  0
 16  8  1  0  0  0  0
 16 18  1  0  0  0  0
 19 22  1  0  0  0  0
 19 21  1  0  0  0  0
 19  5  1  0  0  0  0
 20 19  1  0  0  0  0
 23 26  1  0  0  0  0
 23  5  1  0  0  0  0
 23 25  1  0  0  0  0
 24 23  1  0  0  0  0
 27 29  1  0  0  0  0
 27 15  1  0  0  0  0
 28 27  1  0  0  0  0
 30 32  1  0  0  0  0
 30 31  1  0  0  0  0
 33 30  1  0  0  0  0
 34 35  1  0  0  0  0
 34  6  1  0  0  0  0
 36 34  1  0  0  0  0
 37 34  1  0  0  0  0
 38  7  1  0  0  0  0
 39 38  1  0  0  0  0
 40 42  2  0  0  0  0
 40 38  1  0  0  0  0
 41 40  1  0  0  0  0
 42 44  1  0  0  0  0
 43 42  1  0  0  0  0
 44 45  1  0  0  0  0
 44 46  2  0  0  0  0
 46 47  1  0  0  0  0
M  END
$$$$
