CSD_code = EDANAB | q = 0 | S = 0 | Stoichiometry = C31H23Br2N3Pd | MND = 4
 OpenBabel04212202033D

 60 66  0  0  0  0  0  0  0  0999 V2000
   11.4424    8.1620    8.5000 Pd  0  0  0  0  0  0  0  0  0  0  0  0
   13.0630    9.8909    7.8437 Br  0  0  0  0  0  0  0  0  0  0  0  0
    9.7973    6.4767    9.1562 Br  0  0  0  0  0  0  0  0  0  0  0  0
   12.6925    7.4476    9.9135 N   0  0  0  0  0  0  0  0  0  0  0  0
    9.0772    9.6559    7.7242 N   0  0  0  0  0  0  0  0  0  0  0  0
   13.0897    6.1806    9.9847 C   0  0  0  0  0  3  0  0  0  0  0  0
   12.7866    5.5319    9.1702 H   0  0  0  0  0  0  0  0  0  0  0  0
   13.8355    5.6938   11.0438 C   0  0  0  0  0  0  0  0  0  0  0  0
   14.1403    4.6595   11.0536 H   0  0  0  0  0  0  0  0  0  0  0  0
   14.1679    6.5503   12.0808 C   0  0  0  0  0  0  0  0  0  0  0  0
   14.7451    6.2010   12.9235 H   0  0  0  0  0  0  0  0  0  0  0  0
   13.7363    7.8654   12.0124 C   0  0  0  0  0  0  0  0  0  0  0  0
   13.9634    8.5695   12.7970 H   0  0  0  0  0  0  0  0  0  0  0  0
   13.0052    8.2729   10.9111 C   0  0  0  0  0  0  0  0  0  0  0  0
   12.6681    9.3030   10.8228 H   0  0  0  0  0  0  0  0  0  0  0  0
   10.1443    8.9641    7.2769 C   0  0  0  0  0  0  0  0  0  0  0  0
    8.3611   10.1470    6.6617 C   0  0  0  0  0  0  0  0  0  0  0  0
    7.4843   10.7478    6.7898 H   0  0  0  0  0  0  0  0  0  0  0  0
    9.0070    9.7494    5.5405 C   0  0  0  0  0  0  0  0  0  0  0  0
    8.7826    9.9256    4.5086 H   0  0  0  0  0  0  0  0  0  0  0  0
   10.0969    9.0203    5.9388 N   0  0  0  0  0  0  0  0  0  0  0  0
   11.0761    8.3850    5.0812 C   0  0  0  0  0  0  0  0  0  0  0  0
   11.9827    9.0019    5.0550 H   0  0  0  0  0  0  0  0  0  0  0  0
   10.6583    8.3213    4.0726 H   0  0  0  0  0  0  0  0  0  0  0  0
   11.3949    7.0072    5.6184 C   0  0  0  0  0  0  0  0  0  0  0  0
   12.6497    6.7204    6.1597 C   0  0  0  0  0  0  0  0  0  0  0  0
   13.4383    7.4647    6.1327 H   0  0  0  0  0  0  0  0  0  0  0  0
   12.9201    5.4447    6.6391 C   0  0  0  0  0  0  0  0  0  0  0  0
   13.9083    5.2165    7.0159 H   0  0  0  0  0  0  0  0  0  0  0  0
   11.9367    4.4682    6.6201 C   0  0  0  0  0  0  0  0  0  0  0  0
   12.1435    3.4828    7.0114 H   0  0  0  0  0  0  0  0  0  0  0  0
   10.6854    4.7569    6.1030 C   0  0  0  0  0  0  0  0  0  0  0  0
    9.9138    4.0029    6.1003 H   0  0  0  0  0  0  0  0  0  0  0  0
   10.4186    6.0164    5.5963 C   0  0  0  0  0  0  0  0  0  0  0  0
    9.4410    6.2366    5.1900 H   0  0  0  0  0  0  0  0  0  0  0  0
    8.7903    9.7759    9.1059 C   0  0  0  0  0  0  0  0  0  0  0  0
    9.8036   10.2576    9.9359 C   0  0  0  0  0  0  0  0  0  0  0  0
   10.7191   10.6471    9.4920 H   0  0  0  0  0  0  0  0  0  0  0  0
    9.6063   10.3384   11.3009 C   0  0  0  0  0  0  0  0  0  0  0  0
   10.3894   10.7237   11.9385 H   0  0  0  0  0  0  0  0  0  0  0  0
    8.3941    9.9440   11.8707 C   0  0  0  0  0  0  0  0  0  0  0  0
    7.3637    9.4500   11.0332 C   0  0  0  0  0  0  0  0  0  0  0  0
    7.5630    9.3470    9.6319 C   0  0  0  0  0  0  0  0  0  0  0  0
    6.5286    8.7742    8.8343 C   0  0  0  0  0  0  0  0  0  0  0  0
    6.7027    8.6292    7.7787 H   0  0  0  0  0  0  0  0  0  0  0  0
    5.3571    8.3802    9.3834 C   0  0  0  0  0  0  0  0  0  0  0  0
    4.5862    7.9385    8.7685 H   0  0  0  0  0  0  0  0  0  0  0  0
    5.1067    8.5172   10.7790 C   0  0  0  0  0  0  0  0  0  0  0  0
    6.1326    9.0425   11.6018 C   0  0  0  0  0  0  0  0  0  0  0  0
    5.9227    9.1532   12.9989 C   0  0  0  0  0  0  0  0  0  0  0  0
    6.9761    9.6630   13.8129 C   0  0  0  0  0  0  0  0  0  0  0  0
    6.8057    9.7398   14.8774 H   0  0  0  0  0  0  0  0  0  0  0  0
    8.1598   10.0344   13.2736 C   0  0  0  0  0  0  0  0  0  0  0  0
    8.9566   10.4133   13.8979 H   0  0  0  0  0  0  0  0  0  0  0  0
    4.6968    8.7565   13.5356 C   0  0  0  0  0  0  0  0  0  0  0  0
    4.5361    8.8426   14.6007 H   0  0  0  0  0  0  0  0  0  0  0  0
    3.6978    8.2551   12.7216 C   0  0  0  0  0  0  0  0  0  0  0  0
    2.7553    7.9526   13.1546 H   0  0  0  0  0  0  0  0  0  0  0  0
    3.8976    8.1315   11.3589 C   0  0  0  0  0  0  0  0  0  0  0  0
    3.1158    7.7308   10.7298 H   0  0  0  0  0  0  0  0  0  0  0  0
  1  3  1  0  0  0  0
  1  4  1  0  0  0  0
  2  1  1  0  0  0  0
  4  6  1  0  0  0  0
  4 14  1  0  0  0  0
  5 36  1  0  0  0  0
  6  8  1  0  0  0  0
  7  6  1  0  0  0  0
  8  9  1  0  0  0  0
  8 10  2  0  0  0  0
 10 11  1  0  0  0  0
 12 10  1  0  0  0  0
 12 13  1  0  0  0  0
 14 12  2  0  0  0  0
 15 14  1  0  0  0  0
 16  5  1  0  0  0  0
 16  1  2  0  0  0  0
 17 18  1  0  0  0  0
 17  5  1  0  0  0  0
 19 21  1  0  0  0  0
 19 17  2  0  0  0  0
 20 19  1  0  0  0  0
 21 16  1  0  0  0  0
 22 25  1  0  0  0  0
 22 21  1  0  0  0  0
 23 22  1  0  0  0  0
 24 22  1  0  0  0  0
 25 26  1  0  0  0  0
 26 28  2  0  0  0  0
 27 26  1  0  0  0  0
 28 29  1  0  0  0  0
 30 28  1  0  0  0  0
 30 31  1  0  0  0  0
 32 30  2  0  0  0  0
 33 32  1  0  0  0  0
 34 25  2  0  0  0  0
 34 32  1  0  0  0  0
 35 34  1  0  0  0  0
 36 43  2  0  0  0  0
 36 37  1  0  0  0  0
 37 39  2  0  0  0  0
 38 37  1  0  0  0  0
 39 41  1  0  0  0  0
 39 40  1  0  0  0  0
 41 53  1  0  0  0  0
 42 49  1  0  0  0  0
 42 41  2  0  0  0  0
 43 42  1  0  0  0  0
 44 46  2  0  0  0  0
 44 43  1  0  0  0  0
 45 44  1  0  0  0  0
 46 48  1  0  0  0  0
 47 46  1  0  0  0  0
 48 59  2  0  0  0  0
 48 49  1  0  0  0  0
 49 50  2  0  0  0  0
 50 55  1  0  0  0  0
 50 51  1  0  0  0  0
 51 52  1  0  0  0  0
 53 51  2  0  0  0  0
 53 54  1  0  0  0  0
 55 56  1  0  0  0  0
 57 58  1  0  0  0  0
 57 55  2  0  0  0  0
 59 57  1  0  0  0  0
 60 59  1  0  0  0  0
M  END
$$$$
