CSD_code = EDIFAA | q = 0 | S = 0 | Stoichiometry = C20H14BrMnN2O3S | MND = 6
 OpenBabel04212202033D

 42 45  0  0  0  0  0  0  0  0999 V2000
    0.5231    0.6853    2.4325 Br  0  0  0  0  0  0  0  0  0  0  0  0
   -0.9485    2.6696    2.7254 Mn  0  0  0  0  0  0  0  0  0  0  0  0
   -1.9901    1.9155    1.2020 N   0  0  0  0  0  0  0  0  0  0  0  0
    0.9507    3.0770    4.9288 O   0  0  0  0  0  1  0  0  0  0  0  0
    0.0733    3.5326    1.0767 N   0  0  0  0  0  0  0  0  0  0  0  0
   -2.9995    0.9509    1.3397 C   0  0  0  0  0  0  0  0  0  0  0  0
   -2.3500    5.1819    3.2603 O   0  0  0  0  0  1  0  0  0  0  0  0
   -0.3041    2.9364   -0.0578 C   0  0  0  0  0  0  0  0  0  0  0  0
   -2.6546    1.3796    4.7273 O   0  0  0  0  0  1  0  0  0  0  0  0
    1.0942    4.4263    1.0271 C   0  0  0  0  0  0  0  0  0  0  0  0
    0.2278    2.9956    4.0404 C   0  0  0  0  0  2  0  0  0  0  0  0
    3.2378    6.2426    0.9618 C   0  0  0  0  0  0  0  0  0  0  0  0
    4.0669    6.9335    0.9585 H   0  0  0  0  0  0  0  0  0  0  0  0
    2.9030    5.5559   -0.1728 C   0  0  0  0  0  3  0  0  0  0  0  0
    3.4542    5.6995   -1.0906 H   0  0  0  0  0  0  0  0  0  0  0  0
    1.8257    4.6510   -0.1756 C   0  0  0  0  0  0  0  0  0  0  0  0
   -1.4307    2.0546    0.0494 C   0  0  0  0  0  3  0  0  0  0  0  0
   -1.7858    1.5210   -0.8298 H   0  0  0  0  0  0  0  0  0  0  0  0
    1.4489    5.1747    2.1684 C   0  0  0  0  0  0  0  0  0  0  0  0
    0.8670    5.0529    3.0715 H   0  0  0  0  0  0  0  0  0  0  0  0
   -3.6699   -1.3591    1.2408 C   0  0  0  0  0  0  0  0  0  0  0  0
   -3.4404   -2.3849    0.9989 H   0  0  0  0  0  0  0  0  0  0  0  0
   -2.7309   -0.3752    1.0011 C   0  0  0  0  0  0  0  0  0  0  0  0
   -1.7545   -0.6312    0.6151 H   0  0  0  0  0  0  0  0  0  0  0  0
   -1.9753    1.8615    3.9337 C   0  0  0  0  0  2  0  0  0  0  0  0
   -1.8265    4.1905    3.0061 C   0  0  0  0  0  2  0  0  0  0  0  0
    1.4328    3.9611   -1.3442 C   0  0  0  0  0  0  0  0  0  0  0  0
    1.9845    4.1122   -2.2600 H   0  0  0  0  0  0  0  0  0  0  0  0
    0.3548    3.1315   -1.2922 C   0  0  0  0  0  0  0  0  0  0  0  0
    0.0011    2.5987   -2.1608 H   0  0  0  0  0  0  0  0  0  0  0  0
   -5.1861    0.2884    2.1061 C   0  0  0  0  0  0  0  0  0  0  0  0
   -6.1494    0.5435    2.5184 H   0  0  0  0  0  0  0  0  0  0  0  0
   -4.2459    1.2832    1.8853 C   0  0  0  0  0  0  0  0  0  0  0  0
   -4.5960    2.9955    2.1766 S   0  0  0  0  0  0  0  0  0  0  0  0
    2.4923    6.0589    2.1346 C   0  0  0  0  0  0  0  0  0  0  0  0
    2.7457    6.6221    3.0197 H   0  0  0  0  0  0  0  0  0  0  0  0
   -4.8941   -1.0277    1.7988 C   0  0  0  0  0  0  0  0  0  0  0  0
   -5.6289   -1.7944    1.9911 H   0  0  0  0  0  0  0  0  0  0  0  0
   -5.6154    2.9245    3.6792 C   0  0  0  0  0  0  0  0  0  0  0  0
   -5.5781    3.9217    4.1064 H   0  0  0  0  0  0  0  0  0  0  0  0
   -5.1812    2.2059    4.3669 H   0  0  0  0  0  0  0  0  0  0  0  0
   -6.6410    2.6678    3.4313 H   0  0  0  0  0  0  0  0  0  0  0  0
  1  2  1  0  0  0  0
  2 26  1  0  0  0  0
  2 25  1  0  0  0  0
  2 11  1  0  0  0  0
  3  6  1  0  0  0  0
  3  2  1  0  0  0  0
  5  2  1  0  0  0  0
  6 33  1  0  0  0  0
  8 17  1  0  0  0  0
  8  5  1  0  0  0  0
 10  5  1  0  0  0  0
 10 19  2  0  0  0  0
 11  4  1  0  0  0  0
 12 35  2  0  0  0  0
 13 12  1  0  0  0  0
 14 12  1  0  0  0  0
 15 14  1  0  0  0  0
 16 14  1  0  0  0  0
 16 10  1  0  0  0  0
 17  3  1  0  0  0  0
 18 17  1  0  0  0  0
 19 20  1  0  0  0  0
 21 37  2  0  0  0  0
 22 21  1  0  0  0  0
 23 21  1  0  0  0  0
 23  6  2  0  0  0  0
 24 23  1  0  0  0  0
 25  9  1  0  0  0  0
 26  7  1  0  0  0  0
 27 29  1  0  0  0  0
 27 16  2  0  0  0  0
 28 27  1  0  0  0  0
 29  8  2  0  0  0  0
 30 29  1  0  0  0  0
 31 32  1  0  0  0  0
 33 31  2  0  0  0  0
 33 34  1  0  0  0  0
 34 39  1  0  0  0  0
 35 19  1  0  0  0  0
 35 36  1  0  0  0  0
 37 38  1  0  0  0  0
 37 31  1  0  0  0  0
 39 40  1  0  0  0  0
 39 41  1  0  0  0  0
 42 39  1  0  0  0  0
M  END
$$$$
