CSD_code = EDIGIH | q = 0 | S = 0 | Stoichiometry = C14H20B2Cl2N2Zr | MND = 14
 OpenBabel04212202033D

 41 45  0  0  1  0  0  0  0  0999 V2000
   11.8877    9.6618    7.3125 Zr  0  0  0  0  0  0  0  0  0  0  0  0
   13.9668   10.5686    8.0068 Cl  0  0  0  0  0  0  0  0  0  0  0  0
   11.5661   11.6685    6.0908 Cl  0  0  0  0  0  0  0  0  0  0  0  0
    9.0336    7.6858    8.2111 N   0  0  0  0  0  0  0  0  0  0  0  0
   11.5176    6.1205    7.4855 N   0  0  0  0  0  0  0  0  0  0  0  0
    9.6456   10.2234    8.1760 C   0  0  2  0  0  0  0  0  0  0  0  0
   10.3543   11.2569    8.7996 C   0  0  0  0  0  3  0  0  0  0  0  0
   11.4053   11.0163    9.6917 C   0  0  0  0  0  0  0  0  0  0  0  0
   11.8155    9.7022    9.9702 C   0  0  0  0  0  0  0  0  0  0  0  0
   11.1739    8.5896    9.4247 C   0  0  1  0  0  0  0  0  0  0  0  0
    7.8098    7.8423    7.4557 C   0  0  0  0  0  0  0  0  0  0  0  0
    9.2941    6.3061    8.5626 C   0  0  0  0  0  0  0  0  0  0  0  0
   10.1674    5.5996    7.5036 C   0  0  0  0  0  0  0  0  0  0  0  0
   12.4077    5.3897    8.3615 C   0  0  0  0  0  0  0  0  0  0  0  0
   10.9679    7.9931    5.7349 C   0  0  1  0  0  0  0  0  0  0  0  0
   11.4756    8.8924    4.7963 C   0  0  0  0  0  0  0  0  0  0  0  0
   12.8402    9.2171    4.7309 C   0  0  0  0  0  0  0  0  0  0  0  0
   13.7415    8.6830    5.6585 C   0  0  0  0  0  3  0  0  0  0  0  0
   13.3492    7.7833    6.6564 C   0  0  2  0  0  0  0  0  0  0  0  0
    9.8945    8.7613    8.5786 B   0  0  0  0  0  0  0  0  0  0  0  0
   11.9181    7.2255    6.6778 B   0  0  0  0  0  0  0  0  0  0  0  0
    8.8160   10.5547    7.5496 H   0  0  0  0  0  0  0  0  0  0  0  0
   10.0634   12.2912    8.6228 H   0  0  0  0  0  0  0  0  0  0  0  0
   11.8994   11.8475   10.1807 H   0  0  0  0  0  0  0  0  0  0  0  0
   12.6313    9.5660   10.6790 H   0  0  0  0  0  0  0  0  0  0  0  0
   11.5308    7.6290    9.7899 H   0  0  0  0  0  0  0  0  0  0  0  0
    6.9355    7.6805    8.0979 H   0  0  0  0  0  0  0  0  0  0  0  0
    7.7596    7.1182    6.6363 H   0  0  0  0  0  0  0  0  0  0  0  0
    7.7406    8.8405    7.0333 H   0  0  0  0  0  0  0  0  0  0  0  0
    8.3443    5.7705    8.6607 H   0  0  0  0  0  0  0  0  0  0  0  0
    9.7986    6.2659    9.5302 H   0  0  0  0  0  0  0  0  0  0  0  0
   10.1946    4.5261    7.7177 H   0  0  0  0  0  0  0  0  0  0  0  0
    9.7147    5.7292    6.5184 H   0  0  0  0  0  0  0  0  0  0  0  0
   12.6686    4.4166    7.9285 H   0  0  0  0  0  0  0  0  0  0  0  0
   11.9354    5.2068    9.3312 H   0  0  0  0  0  0  0  0  0  0  0  0
   13.3265    5.9443    8.5307 H   0  0  0  0  0  0  0  0  0  0  0  0
    9.9118    7.7586    5.6216 H   0  0  0  0  0  0  0  0  0  0  0  0
   10.8151    9.3272    4.0472 H   0  0  0  0  0  0  0  0  0  0  0  0
   13.1972    9.8786    3.9506 H   0  0  0  0  0  0  0  0  0  0  0  0
   14.7915    8.9552    5.5629 H   0  0  0  0  0  0  0  0  0  0  0  0
   14.1656    7.4008    7.2706 H   0  0  0  0  0  0  0  0  0  0  0  0
  1  2  1  0  0  0  0
  1  6  1  0  0  0  0
  1 10  1  0  0  0  0
  3  1  1  0  0  0  0
  4 12  1  0  0  0  0
  4 20  1  0  0  0  0
  5 13  1  0  0  0  0
  5 14  1  0  0  0  0
  6 22  1  6  0  0  0
  6 20  1  0  0  0  0
  6  7  1  0  0  0  0
  7  8  1  0  0  0  0
  8  9  2  0  0  0  0
  8 24  1  0  0  0  0
  9 25  1  0  0  0  0
 10 26  1  1  0  0  0
 10  9  1  0  0  0  0
 11 27  1  0  0  0  0
 11  4  1  0  0  0  0
 12 30  1  0  0  0  0
 12 31  1  0  0  0  0
 13 32  1  0  0  0  0
 13 12  1  0  0  0  0
 14 36  1  0  0  0  0
 14 35  1  0  0  0  0
 15 37  1  1  0  0  0
 15 21  1  0  0  0  0
 15  1  1  0  0  0  0
 16 15  1  0  0  0  0
 17 16  2  0  0  0  0
 17 18  1  0  0  0  0
 18 19  1  0  0  0  0
 19 21  1  0  0  0  0
 19 41  1  1  0  0  0
 19  1  1  0  0  0  0
 20 10  1  0  0  0  0
 21  5  1  0  0  0  0
 23  7  1  0  0  0  0
 28 11  1  0  0  0  0
 29 11  1  0  0  0  0
 33 13  1  0  0  0  0
 34 14  1  0  0  0  0
 38 16  1  0  0  0  0
 39 17  1  0  0  0  0
 40 18  1  0  0  0  0
M  END
$$$$
