CSD_code = EDIHAC | q = 0 | S = 0 | Stoichiometry = C30H33ClPRhS | MND = 6
 OpenBabel04212202033D

 67 69  0  0  1  0  0  0  0  0999 V2000
    6.0326    0.0072    3.4814 Rh  0  0  0  0  0  0  0  0  0  0  0  0
    7.6118   -0.5095    1.9904 Cl  0  0  0  0  0 15  0  0  0  0  0  0
   11.8105   -0.4526    3.9302 S   0  0  0  0  0  0  0  0  0  0  0  0
    7.5506   -0.0284    5.1632 P   0  0  0  0  0  0  0  0  0  0  0  0
    4.5159    1.1775    4.3618 C   0  0  0  0  0  3  0  0  0  0  0  0
    4.7854    1.9182    5.1033 H   0  0  0  0  0  0  0  0  0  0  0  0
    4.2570   -0.1730    4.6002 C   0  0  1  0  0  0  0  0  0  0  0  0
    4.2810   -0.6683    5.5616 H   0  0  0  0  0  0  0  0  0  0  0  0
    3.3639   -0.6413    3.4487 C   0  0  1  0  0  0  0  0  0  0  0  0
    2.8263   -1.5750    3.5933 H   0  0  0  0  0  0  0  0  0  0  0  0
    2.5387    0.6276    3.1864 C   0  0  0  0  0  0  0  0  0  0  0  0
    1.8925    0.8973    4.0221 H   0  0  0  0  0  0  0  0  0  0  0  0
    1.9555    0.5778    2.2662 H   0  0  0  0  0  0  0  0  0  0  0  0
    3.7775    1.5286    3.0686 C   0  0  2  0  0  0  0  0  0  0  0  0
    3.6200    2.5847    2.8660 H   0  0  0  0  0  0  0  0  0  0  0  0
    4.5997    0.7475    2.0443 C   0  0  0  0  0  0  0  0  0  0  0  0
    5.0295    1.1849    1.1523 H   0  0  0  0  0  0  0  0  0  0  0  0
    4.3471   -0.5874    2.2782 C   0  0  0  0  0  0  0  0  0  0  0  0
    4.5320   -1.4136    1.6029 H   0  0  0  0  0  0  0  0  0  0  0  0
    7.1788    1.0829    6.5599 C   0  0  0  0  0  0  0  0  0  0  0  0
    7.6149    2.4041    6.5134 C   0  0  0  0  0  0  0  0  0  0  0  0
    8.2154    2.7378    5.6785 H   0  0  0  0  0  0  0  0  0  0  0  0
    7.2777    3.2869    7.5229 C   0  0  0  0  0  0  0  0  0  0  0  0
    7.6256    4.3089    7.4835 H   0  0  0  0  0  0  0  0  0  0  0  0
    6.4909    2.8631    8.5817 C   0  0  0  0  0  0  0  0  0  0  0  0
    6.2287    3.5523    9.3706 H   0  0  0  0  0  0  0  0  0  0  0  0
    6.0348    1.5558    8.6225 C   0  0  0  0  0  0  0  0  0  0  0  0
    5.4138    1.2253    9.4424 H   0  0  0  0  0  0  0  0  0  0  0  0
    6.3699    0.6710    7.6136 C   0  0  0  0  0  0  0  0  0  0  0  0
    6.0121   -0.3487    7.6454 H   0  0  0  0  0  0  0  0  0  0  0  0
    7.5810   -1.6698    5.9499 C   0  0  0  0  0  0  0  0  0  0  0  0
    8.2760   -1.9217    7.1287 C   0  0  0  0  0  0  0  0  0  0  0  0
    8.7979   -1.1174    7.6285 H   0  0  0  0  0  0  0  0  0  0  0  0
    8.2901   -3.1981    7.6597 C   0  0  0  0  0  0  0  0  0  0  0  0
    8.8301   -3.3941    8.5745 H   0  0  0  0  0  0  0  0  0  0  0  0
    7.6162   -4.2270    7.0194 C   0  0  0  0  0  0  0  0  0  0  0  0
    7.6326   -5.2224    7.4380 H   0  0  0  0  0  0  0  0  0  0  0  0
    6.9254   -3.9815    5.8441 C   0  0  0  0  0  0  0  0  0  0  0  0
    6.4042   -4.7848    5.3447 H   0  0  0  0  0  0  0  0  0  0  0  0
    6.9088   -2.7053    5.3105 C   0  0  0  0  0  0  0  0  0  0  0  0
    6.3808   -2.4919    4.3806 H   0  0  0  0  0  0  0  0  0  0  0  0
    9.3579    0.3001    4.9306 C   0  0  0  0  0  0  0  0  0  0  0  0
    9.4432    1.1635    4.2617 H   0  0  0  0  0  0  0  0  0  0  0  0
    9.8048    0.5553    5.8974 H   0  0  0  0  0  0  0  0  0  0  0  0
   10.0724   -0.8804    4.3010 C   0  0  0  0  0  0  0  0  0  0  0  0
    9.5851   -1.1765    3.3733 H   0  0  0  0  0  0  0  0  0  0  0  0
   10.1252   -1.7320    4.9791 H   0  0  0  0  0  0  0  0  0  0  0  0
   11.5124    0.7691    2.6533 C   0  0  0  0  0  0  0  0  0  0  0  0
   11.1446    0.3434    1.3764 C   0  0  0  0  0  0  0  0  0  0  0  0
   10.8572    1.3043    0.4191 C   0  0  0  0  0  0  0  0  0  0  0  0
   10.5578    0.9805   -0.5673 H   0  0  0  0  0  0  0  0  0  0  0  0
   10.9383    2.6607    0.6964 C   0  0  0  0  0  0  0  0  0  0  0  0
   11.3358    3.0526    1.9643 C   0  0  0  0  0  0  0  0  0  0  0  0
   11.4197    4.1054    2.1979 H   0  0  0  0  0  0  0  0  0  0  0  0
   11.6318    2.1245    2.9545 C   0  0  0  0  0  0  0  0  0  0  0  0
   11.0329   -1.1027    1.0131 C   0  0  0  0  0  0  0  0  0  0  0  0
    9.9880   -1.4098    1.0732 H   0  0  0  0  0  0  0  0  0  0  0  0
   11.6212   -1.7249    1.6833 H   0  0  0  0  0  0  0  0  0  0  0  0
   11.3700   -1.2612   -0.0090 H   0  0  0  0  0  0  0  0  0  0  0  0
   10.5921    3.6719   -0.3543 C   0  0  0  0  0  0  0  0  0  0  0  0
   10.9985    3.3773   -1.3199 H   0  0  0  0  0  0  0  0  0  0  0  0
   10.9775    4.6548   -0.0934 H   0  0  0  0  0  0  0  0  0  0  0  0
    9.5088    3.7438   -0.4562 H   0  0  0  0  0  0  0  0  0  0  0  0
   12.0787    2.6217    4.2972 C   0  0  0  0  0  0  0  0  0  0  0  0
   12.1745    1.8047    5.0068 H   0  0  0  0  0  0  0  0  0  0  0  0
   11.3749    3.3570    4.6866 H   0  0  0  0  0  0  0  0  0  0  0  0
   13.0499    3.1069    4.2032 H   0  0  0  0  0  0  0  0  0  0  0  0
  1  7  1  0  0  0  0
  3 45  1  0  0  0  0
  4 31  1  0  0  0  0
  4 20  1  0  0  0  0
  5  7  1  0  0  0  0
  5  6  1  0  0  0  0
  7  8  1  1  0  0  0
  9 10  1  1  0  0  0
  9  7  1  0  0  0  0
 11  9  1  0  0  0  0
 11 12  1  0  0  0  0
 13 11  1  0  0  0  0
 14 15  1  6  0  0  0
 14 11  1  0  0  0  0
 14  5  1  0  0  0  0
 16 18  2  0  0  0  0
 16 14  1  0  0  0  0
 17 16  1  0  0  0  0
 18  9  1  0  0  0  0
 19 18  1  0  0  0  0
 20 29  1  0  0  0  0
 21 20  2  0  0  0  0
 21 23  1  0  0  0  0
 22 21  1  0  0  0  0
 23 25  2  0  0  0  0
 24 23  1  0  0  0  0
 25 27  1  0  0  0  0
 25 26  1  0  0  0  0
 27 28  1  0  0  0  0
 29 30  1  0  0  0  0
 29 27  2  0  0  0  0
 31 32  1  0  0  0  0
 32 33  1  0  0  0  0
 32 34  2  0  0  0  0
 34 35  1  0  0  0  0
 36 37  1  0  0  0  0
 36 34  1  0  0  0  0
 38 36  2  0  0  0  0
 39 38  1  0  0  0  0
 40 38  1  0  0  0  0
 40 31  2  0  0  0  0
 41 40  1  0  0  0  0
 42  4  1  0  0  0  0
 42 44  1  0  0  0  0
 43 42  1  0  0  0  0
 45 42  1  0  0  0  0
 45 47  1  0  0  0  0
 46 45  1  0  0  0  0
 48 55  1  0  0  0  0
 48  3  1  0  0  0  0
 49 48  2  0  0  0  0
 50 52  2  0  0  0  0
 50 49  1  0  0  0  0
 51 50  1  0  0  0  0
 52 53  1  0  0  0  0
 53 54  1  0  0  0  0
 53 55  2  0  0  0  0
 55 64  1  0  0  0  0
 56 57  1  0  0  0  0
 56 49  1  0  0  0  0
 56 58  1  0  0  0  0
 59 56  1  0  0  0  0
 60 62  1  0  0  0  0
 60 52  1  0  0  0  0
 61 60  1  0  0  0  0
 63 60  1  0  0  0  0
 64 66  1  0  0  0  0
 64 65  1  0  0  0  0
 67 64  1  0  0  0  0
M  END
$$$$
