CSD_code = EDIMUA | q = 0 | S = 0 | Stoichiometry = C26H30Cl2N4O2RuS2 | MND = 6
 OpenBabel04212202033D

 67 72  0  0  1  0  0  0  0  0999 V2000
    2.2870    3.8166    7.6552 Ru  0  0  0  0  0  0  0  0  0  0  0  0
    4.2604    5.0922    7.5269 Cl  0  0  0  0  0  0  0  0  0  0  0  0
    0.1887    2.7227    7.7968 Cl  0  0  0  0  0  0  0  0  0  0  0  0
    1.3577    5.5296    8.8949 S   0  0  0  0  0  0  0  0  0  0  0  0
    1.6959    4.9692    5.7903 S   0  0  0  0  0  0  0  0  0  0  0  0
    1.1902    5.2077   10.3098 O   0  0  0  0  0  1  0  0  0  0  0  0
    1.5415    6.3986    6.0357 O   0  0  0  0  0  1  0  0  0  0  0  0
    3.3162    2.1611    1.5268 N   0  0  0  0  0  0  0  0  0  0  0  0
    2.7718    2.4694    0.7397 H   0  0  0  0  0  0  0  0  0  0  0  0
    1.5045    1.6601    5.2751 N   0  0  0  0  0  0  0  0  0  0  0  0
    0.8853    1.9949    6.0361 H   0  0  0  0  0  0  0  0  0  0  0  0
    3.2018    2.2414    6.6533 N   0  0  2  0  0  0  0  0  0  0  0  0
    3.0776    2.7670    9.1898 N   0  0  0  0  0  0  0  0  0  0  0  0
    7.2821    2.4617    2.5045 C   0  0  0  0  0  0  0  0  0  0  0  0
    8.3183    2.5257    2.8006 H   0  0  0  0  0  0  0  0  0  0  0  0
    6.9010    2.9826    1.2644 C   0  0  0  0  0  0  0  0  0  0  0  0
    7.6504    3.4333    0.6312 H   0  0  0  0  0  0  0  0  0  0  0  0
    5.5915    2.9335    0.8369 C   0  0  0  0  0  0  0  0  0  0  0  0
    5.2967    3.3378   -0.1202 H   0  0  0  0  0  0  0  0  0  0  0  0
    4.6610    2.3459    1.6833 C   0  0  0  0  0  0  0  0  0  0  0  0
    2.8113    1.5444    2.6467 C   0  0  0  0  0  0  0  0  0  0  0  0
    1.4150    1.2263    2.8419 C   0  0  0  0  0  0  0  0  0  0  0  0
    0.5990    0.9202    1.7485 C   0  0  0  0  0  0  0  0  0  0  0  0
    1.0401    0.8913    0.7623 H   0  0  0  0  0  0  0  0  0  0  0  0
   -0.7385    0.6323    1.9072 C   0  0  0  0  0  0  0  0  0  0  0  0
   -1.3451    0.3895    1.0484 H   0  0  0  0  0  0  0  0  0  0  0  0
   -1.3010    0.6603    3.1777 C   0  0  0  0  0  0  0  0  0  0  0  0
   -2.3496    0.4430    3.3102 H   0  0  0  0  0  0  0  0  0  0  0  0
   -0.5217    0.9723    4.2694 C   0  0  0  0  0  0  0  0  0  0  0  0
   -0.9509    1.0205    5.2588 H   0  0  0  0  0  0  0  0  0  0  0  0
    0.8433    1.2462    4.1302 C   0  0  0  0  0  0  0  0  0  0  0  0
    2.7981    1.5317    5.6545 C   0  0  2  0  0  3  0  0  0  0  0  0
    4.4442    2.0031    7.3511 C   0  0  0  0  0  0  0  0  0  0  0  0
    5.1272    2.8401    7.1378 H   0  0  0  0  0  0  0  0  0  0  0  0
    4.9249    1.0572    7.0830 H   0  0  0  0  0  0  0  0  0  0  0  0
    4.1259    2.0137    8.8237 C   0  0  2  0  0  3  0  0  0  0  0  0
    4.8526    1.2724    9.7403 C   0  0  0  0  0  0  0  0  0  0  0  0
    5.6958    0.6882    9.4056 H   0  0  0  0  0  0  0  0  0  0  0  0
    4.4861    1.2944   11.0769 C   0  0  0  0  0  0  0  0  0  0  0  0
    5.0423    0.7299   11.8091 H   0  0  0  0  0  0  0  0  0  0  0  0
    3.3834    2.0492   11.4402 C   0  0  0  0  0  0  0  0  0  0  0  0
    3.0448    2.0901   12.4625 H   0  0  0  0  0  0  0  0  0  0  0  0
    2.7092    2.7684   10.4685 C   0  0  0  0  0  0  0  0  0  0  0  0
    1.8582    3.3886   10.7235 H   0  0  0  0  0  0  0  0  0  0  0  0
    3.6445    0.5958    4.8263 C   0  0  0  0  0  0  0  0  0  0  0  0
    4.6038    0.3757    5.2851 H   0  0  0  0  0  0  0  0  0  0  0  0
    3.0918   -0.3363    4.6774 H   0  0  0  0  0  0  0  0  0  0  0  0
    3.8431    1.2942    3.5237 C   0  0  0  0  0  0  0  0  0  0  0  0
    5.0340    1.8105    2.9420 C   0  0  0  0  0  0  0  0  0  0  0  0
    6.3671    1.8760    3.3485 C   0  0  0  0  0  0  0  0  0  0  0  0
    6.6709    1.4811    4.3064 H   0  0  0  0  0  0  0  0  0  0  0  0
   -0.3004    6.0690    8.3649 C   0  0  0  0  0  0  0  0  0  0  0  0
   -0.9194    5.1821    8.2668 H   0  0  0  0  0  0  0  0  0  0  0  0
   -0.2116    6.5904    7.4207 H   0  0  0  0  0  0  0  0  0  0  0  0
   -0.6896    6.7097    9.1475 H   0  0  0  0  0  0  0  0  0  0  0  0
    2.1737    7.1483    8.8817 C   0  0  0  0  0  0  0  0  0  0  0  0
    1.6039    7.8081    9.5246 H   0  0  0  0  0  0  0  0  0  0  0  0
    2.2082    7.4987    7.8576 H   0  0  0  0  0  0  0  0  0  0  0  0
    3.1768    7.0076    9.2703 H   0  0  0  0  0  0  0  0  0  0  0  0
    0.2053    4.5307    4.8168 C   0  0  0  0  0  0  0  0  0  0  0  0
   -0.5340    4.1367    5.5064 H   0  0  0  0  0  0  0  0  0  0  0  0
    0.4456    3.7916    4.0652 H   0  0  0  0  0  0  0  0  0  0  0  0
   -0.1490    5.4490    4.3640 H   0  0  0  0  0  0  0  0  0  0  0  0
    2.9161    4.8445    4.4448 C   0  0  0  0  0  0  0  0  0  0  0  0
    2.6170    5.5193    3.6516 H   0  0  0  0  0  0  0  0  0  0  0  0
    2.9672    3.8180    4.1033 H   0  0  0  0  0  0  0  0  0  0  0  0
    3.8692    5.1512    4.8658 H   0  0  0  0  0  0  0  0  0  0  0  0
  1  3  1  0  0  0  0
  1  4  1  0  0  0  0
  1 13  1  0  0  0  0
  2  1  1  0  0  0  0
  4  6  1  0  0  0  0
  5  7  1  0  0  0  0
  5  1  1  0  0  0  0
  8 20  1  0  0  0  0
  8 21  1  0  0  0  0
  9  8  1  0  0  0  0
 10 32  1  0  0  0  0
 10 11  1  0  0  0  0
 12 33  1  1  0  0  0
 12  1  1  0  0  0  0
 13 43  1  0  0  0  0
 14 15  1  0  0  0  0
 14 50  1  0  0  0  0
 16 14  2  0  0  0  0
 17 16  1  0  0  0  0
 18 16  1  0  0  0  0
 18 20  2  0  0  0  0
 19 18  1  0  0  0  0
 20 49  1  0  0  0  0
 21 22  1  0  0  0  0
 21 48  2  0  0  0  0
 22 31  1  0  0  0  0
 23 25  1  0  0  0  0
 23 22  2  0  0  0  0
 24 23  1  0  0  0  0
 25 27  2  0  0  0  0
 26 25  1  0  0  0  0
 27 28  1  0  0  0  0
 27 29  1  0  0  0  0
 29 30  1  0  0  0  0
 31 29  2  0  0  0  0
 31 10  1  0  0  0  0
 32 45  1  6  0  0  0
 32 12  1  0  0  0  0
 33 36  1  0  0  0  0
 34 33  1  0  0  0  0
 35 33  1  0  0  0  0
 36 13  1  0  0  0  0
 36 37  1  6  0  0  0
 37 39  2  0  0  0  0
 38 37  1  0  0  0  0
 39 41  1  0  0  0  0
 39 40  1  0  0  0  0
 41 42  1  0  0  0  0
 43 44  1  0  0  0  0
 43 41  2  0  0  0  0
 45 46  1  0  0  0  0
 47 45  1  0  0  0  0
 48 45  1  0  0  0  0
 49 50  2  0  0  0  0
 49 48  1  0  0  0  0
 50 51  1  0  0  0  0
 52  4  1  0  0  0  0
 52 55  1  0  0  0  0
 53 52  1  0  0  0  0
 54 52  1  0  0  0  0
 56  4  1  0  0  0  0
 56 59  1  0  0  0  0
 56 57  1  0  0  0  0
 58 56  1  0  0  0  0
 60 61  1  0  0  0  0
 60  5  1  0  0  0  0
 62 60  1  0  0  0  0
 63 60  1  0  0  0  0
 64 67  1  0  0  0  0
 64  5  1  0  0  0  0
 65 64  1  0  0  0  0
 66 64  1  0  0  0  0
M  END
$$$$
