CSD_code = EDOCUW | q = 1 | S = 0 | Stoichiometry = C14H18ClN2Os(1+) | MND = 9
 OpenBabel04212202033D

 36 38  0  0  1  0  0  0  0  0999 V2000
   10.6699   -6.9202   13.5458 Os  0  0  0  0  0  0  0  0  0  0  0  0
   10.1728   -4.6582   13.6358 Cl  0  0  0  0  0  0  0  0  0  0  0  0
   11.7359   -6.6299   11.4700 C   0  0  0  0  0  0  0  0  0  0  0  0
   10.4136   -7.1202   11.2635 C   0  0  1  0  0  0  0  0  0  0  0  0
   10.0118   -8.3399   11.8261 C   0  0  0  0  0  3  0  0  0  0  0  0
   10.9316   -9.1400   12.5526 C   0  0  0  0  0  0  0  0  0  0  0  0
   12.2143   -8.6527   12.7891 C   0  0  0  0  0  0  0  0  0  0  0  0
   12.6044   -7.3872   12.2855 C   0  0  0  0  0  0  0  0  0  0  0  0
   12.1850   -5.3851   10.8361 C   0  0  0  0  0  0  0  0  0  0  0  0
   12.9804   -4.4794   11.5383 C   0  0  0  0  0  0  0  0  0  0  0  0
   13.3882   -3.3018   10.9425 C   0  0  0  0  0  0  0  0  0  0  0  0
   13.0223   -3.0193    9.6363 C   0  0  0  0  0  0  0  0  0  0  0  0
   12.2391   -3.9168    8.9290 C   0  0  0  0  0  0  0  0  0  0  0  0
   11.8136   -5.0888    9.5248 C   0  0  0  0  0  0  0  0  0  0  0  0
    8.9095   -7.0882   14.7702 N   0  0  0  0  0  4  0  0  0  0  0  0
    9.1475   -6.5456   16.1258 C   0  0  0  0  0  0  0  0  0  0  0  0
   10.5521   -6.9649   16.5533 C   0  0  0  0  0  0  0  0  0  0  0  0
   11.4708   -6.5120   15.4911 N   0  0  0  0  0  4  0  0  0  0  0  0
    8.3977   -6.8972   16.8387 H   0  0  0  0  0  0  0  0  0  0  0  0
    9.1045   -5.4550   16.0579 H   0  0  0  0  0  0  0  0  0  0  0  0
   10.6152   -8.0538   16.6351 H   0  0  0  0  0  0  0  0  0  0  0  0
   10.8053   -6.5241   17.5216 H   0  0  0  0  0  0  0  0  0  0  0  0
    9.7390   -6.5703   10.6199 H   0  0  0  0  0  0  0  0  0  0  0  0
   10.6496  -10.1303   12.8799 H   0  0  0  0  0  0  0  0  0  0  0  0
   12.9405   -9.2660   13.3056 H   0  0  0  0  0  0  0  0  0  0  0  0
   13.6318   -7.0646   12.4010 H   0  0  0  0  0  0  0  0  0  0  0  0
   13.2429   -4.6810   12.5672 H   0  0  0  0  0  0  0  0  0  0  0  0
   13.9897   -2.6007   11.5000 H   0  0  0  0  0  0  0  0  0  0  0  0
   13.3439   -2.1002    9.1720 H   0  0  0  0  0  0  0  0  0  0  0  0
   11.9547   -3.7018    7.9106 H   0  0  0  0  0  0  0  0  0  0  0  0
   11.2176   -5.7916    8.9612 H   0  0  0  0  0  0  0  0  0  0  0  0
    9.0291   -8.7359   11.5963 H   0  0  0  0  0  0  0  0  0  0  0  0
    8.5964   -8.0588   14.8418 H   0  0  0  0  0  0  0  0  0  0  0  0
    8.1520   -6.5537   14.3379 H   0  0  0  0  0  0  0  0  0  0  0  0
   12.4116   -6.8666   15.6705 H   0  0  0  0  0  0  0  0  0  0  0  0
   11.5155   -5.4829   15.5238 H   0  0  0  0  0  0  0  0  0  0  0  0
  1  2  1  0  0  0  0
  1 15  1  0  0  0  0
  1 18  1  0  0  0  0
  3  8  2  0  0  0  0
  4 23  1  6  0  0  0
  4  3  1  0  0  0  0
  4  5  1  0  0  0  0
  4  1  1  0  0  0  0
  5  6  1  0  0  0  0
  6  7  2  0  0  0  0
  6 24  1  0  0  0  0
  7 25  1  0  0  0  0
  8 26  1  0  0  0  0
  8  7  1  0  0  0  0
  9  3  1  0  0  0  0
  9 10  1  0  0  0  0
 10 27  1  0  0  0  0
 11 28  1  0  0  0  0
 11 10  2  0  0  0  0
 12 11  1  0  0  0  0
 13 14  1  0  0  0  0
 13 12  2  0  0  0  0
 14  9  2  0  0  0  0
 15 33  1  0  0  0  0
 15 16  1  0  0  0  0
 16 17  1  0  0  0  0
 16 19  1  0  0  0  0
 17 21  1  0  0  0  0
 17 22  1  0  0  0  0
 18 36  1  0  0  0  0
 18 35  1  0  0  0  0
 18 17  1  0  0  0  0
 20 16  1  0  0  0  0
 29 12  1  0  0  0  0
 30 13  1  0  0  0  0
 31 14  1  0  0  0  0
 32  5  1  0  0  0  0
 34 15  1  0  0  0  0
M  END
$$$$
