CSD_code = EDODEH | q = 1 | S = 0 | Stoichiometry = C22H22ClN2Os(1+) | MND = 9
 OpenBabel04212202033D

 48 52  0  0  1  0  0  0  0  0999 V2000
   14.7943    2.8663    2.0109 C   0  0  0  0  0  0  0  0  0  0  0  0
   13.8326    2.5308    3.0099 C   0  0  0  0  0  0  0  0  0  0  0  0
   14.0324    1.6267    4.0660 C   0  0  0  0  0  0  0  0  0  0  0  0
   12.9887    1.3881    4.9365 C   0  0  0  0  0  0  0  0  0  0  0  0
   11.7664    2.0368    4.7729 C   0  0  0  0  0  0  0  0  0  0  0  0
   11.5479    2.9142    3.7985 N   0  0  0  0  0  0  0  0  0  0  0  0
   12.5691    3.1425    2.9268 C   0  0  0  0  0  0  0  0  0  0  0  0
   12.2687    4.0479    1.8810 C   0  0  0  0  0  0  0  0  0  0  0  0
   11.0046    4.5554    1.9067 N   0  0  0  0  0  0  0  0  0  0  0  0
   10.6615    5.3790    0.9210 C   0  0  0  0  0  0  0  0  0  0  0  0
   11.5458    5.7437   -0.0922 C   0  0  0  0  0  0  0  0  0  0  0  0
   12.8317    5.2436   -0.1165 C   0  0  0  0  0  0  0  0  0  0  0  0
   13.2262    4.3564    0.8983 C   0  0  0  0  0  0  0  0  0  0  0  0
   14.5056    3.7343    1.0061 C   0  0  0  0  0  0  0  0  0  0  0  0
    9.4561    4.9706    5.5991 C   0  0  1  0  0  3  0  0  0  0  0  0
    5.0950    5.4731    3.1340 C   0  0  0  0  0  0  0  0  0  0  0  0
    8.6294    3.8237    5.6143 C   0  0  0  0  0  0  0  0  0  0  0  0
    7.6275    3.6518    4.6618 C   0  0  0  0  0  0  0  0  0  0  0  0
    7.3688    4.6376    3.6794 C   0  0  0  0  0  0  0  0  0  0  0  0
    8.1761    5.7811    3.6767 C   0  0  0  0  0  0  0  0  0  0  0  0
    9.2220    5.9360    4.6049 C   0  0  2  0  0  0  0  0  0  0  0  0
   10.4545    5.2083    6.6889 C   0  0  0  0  0  0  0  0  0  0  0  0
    6.2013    4.4896    2.7372 C   0  0  0  0  0  0  0  0  0  0  0  0
    6.6223    4.6932    1.2802 C   0  0  0  0  0  0  0  0  0  0  0  0
    9.2978    2.1055    2.0136 Cl  0  0  0  0  0  0  0  0  0  0  0  0
    9.8797    3.8457    3.3524 Os  0  0  2  0  0  0  0  0  0  0  0  0
   15.7669    2.4028    2.0695 H   0  0  0  0  0  0  0  0  0  0  0  0
   14.9786    1.1226    4.1797 H   0  0  0  0  0  0  0  0  0  0  0  0
   13.1017    0.6880    5.7484 H   0  0  0  0  0  0  0  0  0  0  0  0
   10.9411    1.8250    5.4393 H   0  0  0  0  0  0  0  0  0  0  0  0
    9.6472    5.7544    0.9242 H   0  0  0  0  0  0  0  0  0  0  0  0
   11.2050    6.4158   -0.8631 H   0  0  0  0  0  0  0  0  0  0  0  0
   13.5196    5.5134   -0.9015 H   0  0  0  0  0  0  0  0  0  0  0  0
   15.2463    3.9681    0.2571 H   0  0  0  0  0  0  0  0  0  0  0  0
    4.2312    5.3306    2.4910 H   0  0  0  0  0  0  0  0  0  0  0  0
    5.4325    6.5019    3.0318 H   0  0  0  0  0  0  0  0  0  0  0  0
    4.7864    5.3117    4.1644 H   0  0  0  0  0  0  0  0  0  0  0  0
    8.7348    3.1063    6.4179 H   0  0  0  0  0  0  0  0  0  0  0  0
    6.9784    2.7872    4.7202 H   0  0  0  0  0  0  0  0  0  0  0  0
    7.9590    6.5920    2.9952 H   0  0  0  0  0  0  0  0  0  0  0  0
    9.7843    6.8614    4.6220 H   0  0  0  0  0  0  0  0  0  0  0  0
   11.2466    5.8776    6.3617 H   0  0  0  0  0  0  0  0  0  0  0  0
    9.9530    5.6728    7.5391 H   0  0  0  0  0  0  0  0  0  0  0  0
   10.8971    4.2768    7.0349 H   0  0  0  0  0  0  0  0  0  0  0  0
    5.8114    3.4718    2.8365 H   0  0  0  0  0  0  0  0  0  0  0  0
    7.4555    4.0361    1.0327 H   0  0  0  0  0  0  0  0  0  0  0  0
    6.9076    5.7257    1.0901 H   0  0  0  0  0  0  0  0  0  0  0  0
    5.7915    4.4507    0.6237 H   0  0  0  0  0  0  0  0  0  0  0  0
  1 27  1  0  0  0  0
  1  2  1  0  0  0  0
  2  3  2  0  0  0  0
  3 28  1  0  0  0  0
  3  4  1  0  0  0  0
  4 29  1  0  0  0  0
  5  4  2  0  0  0  0
  5 30  1  0  0  0  0
  6  5  1  0  0  0  0
  7  2  1  0  0  0  0
  7  6  1  0  0  0  0
  8  9  1  0  0  0  0
  8  7  2  0  0  0  0
  9 26  1  0  0  0  0
 10 31  1  0  0  0  0
 10  9  1  0  0  0  0
 11 10  2  0  0  0  0
 12 11  1  0  0  0  0
 12 13  2  0  0  0  0
 13 14  1  0  0  0  0
 13  8  1  0  0  0  0
 14  1  2  0  0  0  0
 15 17  1  0  0  0  0
 15 22  1  1  0  0  0
 16 37  1  0  0  0  0
 17 38  1  0  0  0  0
 18 39  1  0  0  0  0
 18 17  2  0  0  0  0
 19 18  1  0  0  0  0
 20 19  2  0  0  0  0
 20 21  1  0  0  0  0
 21 41  1  6  0  0  0
 21 15  1  0  0  0  0
 22 44  1  0  0  0  0
 22 43  1  0  0  0  0
 23 45  1  0  0  0  0
 23 16  1  0  0  0  0
 23 19  1  0  0  0  0
 24 23  1  0  0  0  0
 26 25  1  6  0  0  0
 26  6  1  0  0  0  0
 26 21  1  0  0  0  0
 32 11  1  0  0  0  0
 33 12  1  0  0  0  0
 34 14  1  0  0  0  0
 35 16  1  0  0  0  0
 36 16  1  0  0  0  0
 40 20  1  0  0  0  0
 42 22  1  0  0  0  0
 46 24  1  0  0  0  0
 47 24  1  0  0  0  0
 48 24  1  0  0  0  0
M  END
$$$$
