CSD_code = EDODIL | q = 1 | S = 0 | Stoichiometry = C30H20ClN4Os(1+) | MND = 9
 OpenBabel04212202033D

 56 63  0  0  1  0  0  0  0  0999 V2000
    0.0920    1.9111   11.0319 Os  0  0  2  0  0  0  0  0  0  0  0  0
    0.1676    4.0319   10.2205 Cl  0  0  0  0  0  0  0  0  0  0  0  0
    1.3803    0.6785    9.1044 C   0  0  0  0  0  0  0  0  0  0  0  0
    1.3820   -0.1384   10.2388 C   0  0  0  0  0  0  0  0  0  0  0  0
    0.1719   -0.5785   10.8024 C   0  0  2  0  0  0  0  0  0  0  0  0
   -1.0403   -0.1692   10.2226 C   0  0  0  0  0  0  0  0  0  0  0  0
   -1.0440    0.6298    9.0702 C   0  0  0  0  0  0  0  0  0  0  0  0
    0.1662    1.0558    8.4845 C   0  0  2  0  0  3  0  0  0  0  0  0
    0.1747    1.8116    7.2278 C   0  0  0  0  0  0  0  0  0  0  0  0
   -0.7226    1.4900    6.2086 C   0  0  0  0  0  0  0  0  0  0  0  0
   -0.7024    2.1892    5.0172 C   0  0  0  0  0  0  0  0  0  0  0  0
    0.1978    3.2264    4.8330 C   0  0  0  0  0  0  0  0  0  0  0  0
    1.0858    3.5580    5.8437 C   0  0  0  0  0  0  0  0  0  0  0  0
    1.0830    2.8523    7.0314 C   0  0  0  0  0  0  0  0  0  0  0  0
   -1.2654    2.4860   12.3300 N   0  0  0  0  0  0  0  0  0  0  0  0
   -2.5883    2.5166   12.1678 C   0  0  0  0  0  0  0  0  0  0  0  0
   -3.4487    3.0151   13.1371 C   0  0  0  0  0  0  0  0  0  0  0  0
   -2.9469    3.5170   14.3257 C   0  0  0  0  0  0  0  0  0  0  0  0
   -1.5632    3.5139   14.5134 C   0  0  0  0  0  0  0  0  0  0  0  0
   -0.7663    2.9939   13.4871 C   0  0  0  0  0  0  0  0  0  0  0  0
    1.2890    2.4650   12.4894 N   0  0  0  0  0  0  0  0  0  0  0  0
    2.6223    2.4747   12.4922 C   0  0  0  0  0  0  0  0  0  0  0  0
    3.3637    2.9620   13.5604 C   0  0  0  0  0  0  0  0  0  0  0  0
    2.7266    3.4737   14.6779 C   0  0  0  0  0  0  0  0  0  0  0  0
    1.3305    3.4918   14.6933 C   0  0  0  0  0  0  0  0  0  0  0  0
    0.6587    2.9825   13.5759 C   0  0  0  0  0  0  0  0  0  0  0  0
   -0.8980    4.0281   15.6947 C   0  0  0  0  0  0  0  0  0  0  0  0
    0.5322    4.0179   15.7833 C   0  0  0  0  0  0  0  0  0  0  0  0
   -1.6386    4.5008   16.6774 N   0  0  0  0  0  0  0  0  0  0  0  0
    1.1527    4.4822   16.8496 N   0  0  0  0  0  0  0  0  0  0  0  0
   -1.0200    4.9788   17.7633 C   0  0  0  0  0  0  0  0  0  0  0  0
   -1.7761    5.4965   18.8372 C   0  0  0  0  0  0  0  0  0  0  0  0
   -1.1357    5.9820   19.9411 C   0  0  0  0  0  0  0  0  0  0  0  0
    0.2725    5.9736   20.0276 C   0  0  0  0  0  0  0  0  0  0  0  0
    1.0370    5.4797   19.0099 C   0  0  0  0  0  0  0  0  0  0  0  0
    0.4117    4.9699   17.8513 C   0  0  0  0  0  0  0  0  0  0  0  0
    2.3154    0.9426    8.6296 H   0  0  0  0  0  0  0  0  0  0  0  0
    2.3200   -0.5035   10.6364 H   0  0  0  0  0  0  0  0  0  0  0  0
    0.1751   -1.2835   11.6225 H   0  0  0  0  0  0  0  0  0  0  0  0
   -1.9751   -0.5561   10.6095 H   0  0  0  0  0  0  0  0  0  0  0  0
   -1.9805    0.8770    8.5886 H   0  0  0  0  0  0  0  0  0  0  0  0
   -1.4113    0.6674    6.3353 H   0  0  0  0  0  0  0  0  0  0  0  0
   -1.3918    1.9246    4.2303 H   0  0  0  0  0  0  0  0  0  0  0  0
    0.2059    3.7756    3.9043 H   0  0  0  0  0  0  0  0  0  0  0  0
    1.7820    4.3709    5.7072 H   0  0  0  0  0  0  0  0  0  0  0  0
    1.7541    3.1386    7.8274 H   0  0  0  0  0  0  0  0  0  0  0  0
   -2.9740    2.1440   11.2280 H   0  0  0  0  0  0  0  0  0  0  0  0
   -4.5099    3.0136   12.9471 H   0  0  0  0  0  0  0  0  0  0  0  0
   -3.5858    3.9173   15.0954 H   0  0  0  0  0  0  0  0  0  0  0  0
    3.1158    2.0930   11.6082 H   0  0  0  0  0  0  0  0  0  0  0  0
    4.4400    2.9447   13.5033 H   0  0  0  0  0  0  0  0  0  0  0  0
    3.2708    3.8657   15.5211 H   0  0  0  0  0  0  0  0  0  0  0  0
   -2.8510    5.4949   18.7522 H   0  0  0  0  0  0  0  0  0  0  0  0
   -1.7064    6.3811   20.7656 H   0  0  0  0  0  0  0  0  0  0  0  0
    0.7431    6.3664   20.9161 H   0  0  0  0  0  0  0  0  0  0  0  0
    2.1143    5.4651   19.0569 H   0  0  0  0  0  0  0  0  0  0  0  0
  1  2  1  6  0  0  0
  1 15  1  0  0  0  0
  1 21  1  0  0  0  0
  3  4  2  0  0  0  0
  4 38  1  0  0  0  0
  4  5  1  0  0  0  0
  5  1  1  0  0  0  0
  5 39  1  1  0  0  0
  6 40  1  0  0  0  0
  6  5  1  0  0  0  0
  7  6  2  0  0  0  0
  8  9  1  6  0  0  0
  8  7  1  0  0  0  0
  8  3  1  0  0  0  0
 10 42  1  0  0  0  0
 10  9  2  0  0  0  0
 11 10  1  0  0  0  0
 12 11  2  0  0  0  0
 12 13  1  0  0  0  0
 13 14  2  0  0  0  0
 14  9  1  0  0  0  0
 14 46  1  0  0  0  0
 15 20  1  0  0  0  0
 16 15  1  0  0  0  0
 16 17  2  0  0  0  0
 17 18  1  0  0  0  0
 18 19  2  0  0  0  0
 18 49  1  0  0  0  0
 19 27  1  0  0  0  0
 20 26  2  0  0  0  0
 20 19  1  0  0  0  0
 21 22  1  0  0  0  0
 21 26  1  0  0  0  0
 22 23  2  0  0  0  0
 23 24  1  0  0  0  0
 24 25  2  0  0  0  0
 24 52  1  0  0  0  0
 25 28  1  0  0  0  0
 26 25  1  0  0  0  0
 27 28  2  0  0  0  0
 27 29  1  0  0  0  0
 28 30  1  0  0  0  0
 29 31  2  0  0  0  0
 30 36  2  0  0  0  0
 31 36  1  0  0  0  0
 31 32  1  0  0  0  0
 32 33  2  0  0  0  0
 33 34  1  0  0  0  0
 33 54  1  0  0  0  0
 34 55  1  0  0  0  0
 35 56  1  0  0  0  0
 35 34  2  0  0  0  0
 36 35  1  0  0  0  0
 37  3  1  0  0  0  0
 41  7  1  0  0  0  0
 43 11  1  0  0  0  0
 44 12  1  0  0  0  0
 45 13  1  0  0  0  0
 47 16  1  0  0  0  0
 48 17  1  0  0  0  0
 50 22  1  0  0  0  0
 51 23  1  0  0  0  0
 53 32  1  0  0  0  0
M  END
$$$$
