CSD_code = EDOXEC | q = 0 | S = 0 | Stoichiometry = C18H37ClFeN4Si | MND = 4
 OpenBabel04212202033D

 62 61  0  0  0  0  0  0  0  0999 V2000
   12.0366    5.8910    4.9784 Fe  0  0  0  0  0  0  0  0  0  0  0  0
    9.3337    4.9430    5.8518 Si  0  0  0  0  0  0  0  0  0  0  0  0
   13.2514    7.4214    5.5043 Cl  0  0  0  0  0  0  0  0  0  0  0  0
   10.9028    4.5378    5.2051 N   0  0  0  0  0  0  0  0  0  0  0  0
    8.0044    3.9939    5.2820 N   0  0  0  0  0  0  0  0  0  0  0  0
   11.7800    6.6666    2.4768 N   0  0  0  0  0  0  0  0  0  0  0  0
   13.9102    4.8284    3.5196 N   0  0  0  0  0  0  0  0  0  0  0  0
   11.4183    3.2610    5.3176 C   0  0  0  0  0  0  0  0  0  0  0  0
   12.4891    3.0384    6.1924 C   0  0  0  0  0  0  0  0  0  0  0  0
   12.8481    3.8776    6.7780 H   0  0  0  0  0  0  0  0  0  0  0  0
   13.0606    1.7870    6.3044 C   0  0  0  0  0  0  0  0  0  0  0  0
   13.8870    1.6304    6.9836 H   0  0  0  0  0  0  0  0  0  0  0  0
   12.5714    0.7263    5.5564 C   0  0  0  0  0  0  0  0  0  0  0  0
   13.0142   -0.2542    5.6488 H   0  0  0  0  0  0  0  0  0  0  0  0
   11.5067    0.9326    4.6936 C   0  0  0  0  0  0  0  0  0  0  0  0
   11.1210    0.1082    4.1105 H   0  0  0  0  0  0  0  0  0  0  0  0
   10.9333    2.1835    4.5727 C   0  0  0  0  0  0  0  0  0  0  0  0
   10.1068    2.3494    3.8986 H   0  0  0  0  0  0  0  0  0  0  0  0
    9.4348    4.7888    7.7513 C   0  0  0  0  0  0  0  0  0  0  0  0
    9.6079    3.7636    8.0605 H   0  0  0  0  0  0  0  0  0  0  0  0
    8.5359    5.1427    8.2438 H   0  0  0  0  0  0  0  0  0  0  0  0
   10.2664    5.3846    8.1150 H   0  0  0  0  0  0  0  0  0  0  0  0
    9.1397    6.7848    5.3896 C   0  0  0  0  0  0  0  0  0  0  0  0
    8.6016    6.9245    4.4602 H   0  0  0  0  0  0  0  0  0  0  0  0
   10.1210    7.2495    5.2838 H   0  0  0  0  0  0  0  0  0  0  0  0
    8.6031    7.3269    6.1593 H   0  0  0  0  0  0  0  0  0  0  0  0
    7.2812    3.0536    6.1078 C   0  0  0  0  0  0  0  0  0  0  0  0
    7.2620    3.4319    7.1295 H   0  0  0  0  0  0  0  0  0  0  0  0
    6.2471    2.9903    5.7551 H   0  0  0  0  0  0  0  0  0  0  0  0
    7.9002    1.6549    6.1093 C   0  0  0  0  0  0  0  0  0  0  0  0
    7.3359    0.9965    6.7652 H   0  0  0  0  0  0  0  0  0  0  0  0
    8.9296    1.7054    6.4548 H   0  0  0  0  0  0  0  0  0  0  0  0
    7.8984    1.2288    5.1091 H   0  0  0  0  0  0  0  0  0  0  0  0
    7.6373    3.9943    3.8842 C   0  0  0  0  0  0  0  0  0  0  0  0
    7.4738    2.9657    3.5410 H   0  0  0  0  0  0  0  0  0  0  0  0
    8.4689    4.4113    3.3135 H   0  0  0  0  0  0  0  0  0  0  0  0
    6.3797    4.8203    3.6063 C   0  0  0  0  0  0  0  0  0  0  0  0
    6.1680    4.8348    2.5398 H   0  0  0  0  0  0  0  0  0  0  0  0
    6.5217    5.8394    3.9544 H   0  0  0  0  0  0  0  0  0  0  0  0
    5.5198    4.4017    4.1228 H   0  0  0  0  0  0  0  0  0  0  0  0
   10.4960    6.2404    1.9370 C   0  0  0  0  0  0  0  0  0  0  0  0
   10.3578    6.5635    0.8939 H   0  0  0  0  0  0  0  0  0  0  0  0
    9.6968    6.6640    2.5396 H   0  0  0  0  0  0  0  0  0  0  0  0
   10.4253    5.1552    1.9868 H   0  0  0  0  0  0  0  0  0  0  0  0
   11.8337    8.1237    2.5200 C   0  0  0  0  0  0  0  0  0  0  0  0
   11.7163    8.5649    1.5183 H   0  0  0  0  0  0  0  0  0  0  0  0
   12.7839    8.4437    2.9400 H   0  0  0  0  0  0  0  0  0  0  0  0
   11.0378    8.4947    3.1626 H   0  0  0  0  0  0  0  0  0  0  0  0
   12.8790    6.1353    1.6664 C   0  0  0  0  0  0  0  0  0  0  0  0
   13.1456    6.8377    0.8614 H   0  0  0  0  0  0  0  0  0  0  0  0
   12.5500    5.2086    1.1946 H   0  0  0  0  0  0  0  0  0  0  0  0
   14.1280    5.8534    2.5006 C   0  0  0  0  0  0  0  0  0  0  0  0
   14.4259    6.7683    3.0158 H   0  0  0  0  0  0  0  0  0  0  0  0
   14.9441    5.5582    1.8161 H   0  0  0  0  0  0  0  0  0  0  0  0
   15.0750    4.7609    4.3946 C   0  0  0  0  0  0  0  0  0  0  0  0
   15.9893    4.5049    3.8390 H   0  0  0  0  0  0  0  0  0  0  0  0
   14.9015    4.0025    5.1538 H   0  0  0  0  0  0  0  0  0  0  0  0
   15.2150    5.7208    4.8861 H   0  0  0  0  0  0  0  0  0  0  0  0
   13.6955    3.5221    2.9148 C   0  0  0  0  0  0  0  0  0  0  0  0
   14.4914    3.2694    2.1972 H   0  0  0  0  0  0  0  0  0  0  0  0
   12.7356    3.4929    2.4068 H   0  0  0  0  0  0  0  0  0  0  0  0
   13.6775    2.7657    3.6942 H   0  0  0  0  0  0  0  0  0  0  0  0
  1  4  1  0  0  0  0
  1  3  1  0  0  0  0
  2 19  1  0  0  0  0
  4  8  1  0  0  0  0
  4  2  1  0  0  0  0
  5  2  1  0  0  0  0
  5 27  1  0  0  0  0
  6 45  1  0  0  0  0
  7 55  1  0  0  0  0
  8  9  1  0  0  0  0
  9 11  2  0  0  0  0
  9 10  1  0  0  0  0
 11 12  1  0  0  0  0
 13 14  1  0  0  0  0
 13 11  1  0  0  0  0
 15 13  2  0  0  0  0
 16 15  1  0  0  0  0
 17 15  1  0  0  0  0
 17  8  2  0  0  0  0
 18 17  1  0  0  0  0
 19 20  1  0  0  0  0
 19 22  1  0  0  0  0
 19 21  1  0  0  0  0
 23  2  1  0  0  0  0
 23 26  1  0  0  0  0
 24 23  1  0  0  0  0
 25 23  1  0  0  0  0
 27 30  1  0  0  0  0
 27 28  1  0  0  0  0
 29 27  1  0  0  0  0
 30 32  1  0  0  0  0
 30 31  1  0  0  0  0
 33 30  1  0  0  0  0
 34  5  1  0  0  0  0
 35 34  1  0  0  0  0
 36 34  1  0  0  0  0
 37 34  1  0  0  0  0
 37 39  1  0  0  0  0
 37 40  1  0  0  0  0
 38 37  1  0  0  0  0
 41 44  1  0  0  0  0
 41  6  1  0  0  0  0
 41 43  1  0  0  0  0
 42 41  1  0  0  0  0
 45 47  1  0  0  0  0
 45 48  1  0  0  0  0
 46 45  1  0  0  0  0
 49  6  1  0  0  0  0
 49 52  1  0  0  0  0
 50 49  1  0  0  0  0
 51 49  1  0  0  0  0
 52 53  1  0  0  0  0
 52  7  1  0  0  0  0
 54 52  1  0  0  0  0
 55 58  1  0  0  0  0
 55 57  1  0  0  0  0
 56 55  1  0  0  0  0
 59  7  1  0  0  0  0
 59 62  1  0  0  0  0
 60 59  1  0  0  0  0
 61 59  1  0  0  0  0
M  END
$$$$
