CSD_code = EDUQOL | q = 0 | S = 0 | Stoichiometry = C6H16Cl2N2Pt | MND = 4
 OpenBabel04212202033D

 27 27  0  0  0  0  0  0  0  0999 V2000
    4.3259    4.5496    4.5041 Pt  0  0  0  0  0  0  0  0  0  0  0  0
    2.9476    5.9671    5.5679 Cl  0  0  0  0  0  0  0  0  0  0  0  0
    3.5540    5.2260    2.5077 Cl  0  0  0  0  0  0  0  0  0  0  0  0
    5.1712    3.8711    6.3424 N   0  0  0  0  0  4  0  0  0  0  0  0
    5.6363    3.1264    3.6042 N   0  0  0  0  0  4  0  0  0  0  0  0
    4.1685    3.0447    7.0135 C   0  0  0  0  0  0  0  0  0  0  0  0
    4.5628    2.6345    7.9518 H   0  0  0  0  0  0  0  0  0  0  0  0
    3.8550    2.2222    6.3720 H   0  0  0  0  0  0  0  0  0  0  0  0
    3.2970    3.6616    7.2296 H   0  0  0  0  0  0  0  0  0  0  0  0
    5.5539    4.9665    7.2333 C   0  0  0  0  0  0  0  0  0  0  0  0
    4.6668    5.5497    7.4754 H   0  0  0  0  0  0  0  0  0  0  0  0
    6.2635    5.6243    6.7322 H   0  0  0  0  0  0  0  0  0  0  0  0
    6.0052    4.5818    8.1555 H   0  0  0  0  0  0  0  0  0  0  0  0
    6.3579    3.0851    5.9754 C   0  0  0  0  0  0  0  0  0  0  0  0
    7.1880    3.7772    5.8136 H   0  0  0  0  0  0  0  0  0  0  0  0
    6.6416    2.4081    6.7941 H   0  0  0  0  0  0  0  0  0  0  0  0
    6.1199    2.2749    4.7003 C   0  0  0  0  0  0  0  0  0  0  0  0
    7.0489    1.7624    4.4109 H   0  0  0  0  0  0  0  0  0  0  0  0
    5.3645    1.5095    4.8949 H   0  0  0  0  0  0  0  0  0  0  0  0
    6.7306    3.8688    2.9798 C   0  0  0  0  0  0  0  0  0  0  0  0
    7.2320    4.5032    3.7096 H   0  0  0  0  0  0  0  0  0  0  0  0
    6.3173    4.5064    2.1991 H   0  0  0  0  0  0  0  0  0  0  0  0
    7.4657    3.1851    2.5369 H   0  0  0  0  0  0  0  0  0  0  0  0
    4.9811    2.3055    2.5859 C   0  0  0  0  0  0  0  0  0  0  0  0
    5.6819    1.5785    2.1588 H   0  0  0  0  0  0  0  0  0  0  0  0
    4.6033    2.9563    1.7988 H   0  0  0  0  0  0  0  0  0  0  0  0
    4.1341    1.7762    3.0216 H   0  0  0  0  0  0  0  0  0  0  0  0
  1  2  1  0  0  0  0
  1  4  1  0  0  0  0
  3  1  1  0  0  0  0
  4  6  1  0  0  0  0
  4 10  1  0  0  0  0
  5  1  1  0  0  0  0
  5 17  1  0  0  0  0
  6  9  1  0  0  0  0
  6  7  1  0  0  0  0
  8  6  1  0  0  0  0
 10 11  1  0  0  0  0
 10 13  1  0  0  0  0
 12 10  1  0  0  0  0
 14  4  1  0  0  0  0
 14 16  1  0  0  0  0
 15 14  1  0  0  0  0
 17 19  1  0  0  0  0
 17 14  1  0  0  0  0
 18 17  1  0  0  0  0
 20  5  1  0  0  0  0
 20 21  1  0  0  0  0
 22 20  1  0  0  0  0
 23 20  1  0  0  0  0
 24 27  1  0  0  0  0
 24  5  1  0  0  0  0
 25 24  1  0  0  0  0
 26 24  1  0  0  0  0
M  END
$$$$
