CSD_code = EFEKUY | q = 0 | S = 0 | Stoichiometry = C17H20AuClN4 | MND = 2
 OpenBabel04212202033D

 43 44  0  0  0  0  0  0  0  0999 V2000
    1.6807    5.3736    4.4379 Au  0  0  0  0  0  0  0  0  0  0  0  0
    3.3604    4.1132    3.6566 Cl  0  0  0  0  0  0  0  0  0  0  0  0
    0.0688    7.0161    6.3665 N   0  0  0  0  0  0  0  0  0  0  0  0
   -1.1072    6.4113    4.6459 N   0  0  0  0  0  0  0  0  0  0  0  0
    2.4294    4.9856   11.5605 N   0  0  0  0  0  0  0  0  0  0  0  0
   -3.4093    1.2689    0.1185 N   0  0  0  0  0  0  0  0  0  0  0  0
    0.1316    6.3905    5.1751 C   0  0  0  0  0  3  0  0  0  0  0  0
   -1.2194    7.4363    6.6166 C   0  0  0  0  0  0  0  0  0  0  0  0
   -1.8030    8.1124    7.6786 C   0  0  0  0  0  0  0  0  0  0  0  0
   -1.2300    8.4256    8.5367 H   0  0  0  0  0  0  0  0  0  0  0  0
   -3.1568    8.3723    7.5960 C   0  0  0  0  0  0  0  0  0  0  0  0
   -3.6437    8.8949    8.4045 H   0  0  0  0  0  0  0  0  0  0  0  0
   -3.9125    7.9751    6.4935 C   0  0  0  0  0  0  0  0  0  0  0  0
   -4.9678    8.1978    6.4729 H   0  0  0  0  0  0  0  0  0  0  0  0
   -3.3416    7.3047    5.4296 C   0  0  0  0  0  0  0  0  0  0  0  0
   -3.9325    7.0004    4.5805 H   0  0  0  0  0  0  0  0  0  0  0  0
   -1.9817    7.0404    5.5033 C   0  0  0  0  0  0  0  0  0  0  0  0
    1.1938    7.1975    7.2510 C   0  0  0  0  0  0  0  0  0  0  0  0
    0.9612    8.0193    7.9311 H   0  0  0  0  0  0  0  0  0  0  0  0
    2.0628    7.4728    6.6478 H   0  0  0  0  0  0  0  0  0  0  0  0
    1.5223    5.9296    8.0436 C   0  0  0  0  0  0  0  0  0  0  0  0
    2.3664    6.1506    8.6994 H   0  0  0  0  0  0  0  0  0  0  0  0
    1.8342    5.1505    7.3429 H   0  0  0  0  0  0  0  0  0  0  0  0
    0.3450    5.4300    8.8782 C   0  0  0  0  0  0  0  0  0  0  0  0
   -0.0183    6.2317    9.5263 H   0  0  0  0  0  0  0  0  0  0  0  0
   -0.4759    5.1263    8.2241 H   0  0  0  0  0  0  0  0  0  0  0  0
    0.7528    4.2314    9.7445 C   0  0  0  0  0  0  0  0  0  0  0  0
    1.2144    3.4562    9.1267 H   0  0  0  0  0  0  0  0  0  0  0  0
   -0.1223    3.8047   10.2425 H   0  0  0  0  0  0  0  0  0  0  0  0
    1.6941    4.6351   10.7592 C   0  0  0  0  0  0  0  0  0  0  0  0
   -1.4630    5.8196    3.3823 C   0  0  0  0  0  0  0  0  0  0  0  0
   -0.6028    5.9063    2.7134 H   0  0  0  0  0  0  0  0  0  0  0  0
   -2.2996    6.3804    2.9584 H   0  0  0  0  0  0  0  0  0  0  0  0
   -1.8347    4.3433    3.5416 C   0  0  0  0  0  0  0  0  0  0  0  0
   -2.6544    4.2497    4.2594 H   0  0  0  0  0  0  0  0  0  0  0  0
   -0.9679    3.8110    3.9420 H   0  0  0  0  0  0  0  0  0  0  0  0
   -2.2406    3.7323    2.2039 C   0  0  0  0  0  0  0  0  0  0  0  0
   -3.1350    4.2328    1.8246 H   0  0  0  0  0  0  0  0  0  0  0  0
   -1.4396    3.8817    1.4772 H   0  0  0  0  0  0  0  0  0  0  0  0
   -2.5182    2.2311    2.3446 C   0  0  0  0  0  0  0  0  0  0  0  0
   -3.2717    2.0528    3.1180 H   0  0  0  0  0  0  0  0  0  0  0  0
   -1.6031    1.7014    2.6231 H   0  0  0  0  0  0  0  0  0  0  0  0
   -3.0082    1.6832    1.1048 C   0  0  0  0  0  0  0  0  0  0  0  0
  1  7  1  0  0  0  0
  2  1  1  0  0  0  0
  3  8  1  0  0  0  0
  3 18  1  0  0  0  0
  4  7  1  0  0  0  0
  4 17  1  0  0  0  0
  6 43  3  0  0  0  0
  7  3  1  0  0  0  0
  8  9  1  0  0  0  0
  9 10  1  0  0  0  0
 11  9  2  0  0  0  0
 11 12  1  0  0  0  0
 13 11  1  0  0  0  0
 14 13  1  0  0  0  0
 15 17  1  0  0  0  0
 15 13  2  0  0  0  0
 16 15  1  0  0  0  0
 17  8  2  0  0  0  0
 18 19  1  0  0  0  0
 18 21  1  0  0  0  0
 20 18  1  0  0  0  0
 21 22  1  0  0  0  0
 21 24  1  0  0  0  0
 23 21  1  0  0  0  0
 24 25  1  0  0  0  0
 24 27  1  0  0  0  0
 26 24  1  0  0  0  0
 27 29  1  0  0  0  0
 27 30  1  0  0  0  0
 28 27  1  0  0  0  0
 30  5  3  0  0  0  0
 31 34  1  0  0  0  0
 31  4  1  0  0  0  0
 32 31  1  0  0  0  0
 33 31  1  0  0  0  0
 34 36  1  0  0  0  0
 34 35  1  0  0  0  0
 37 40  1  0  0  0  0
 37 34  1  0  0  0  0
 38 37  1  0  0  0  0
 39 37  1  0  0  0  0
 40 42  1  0  0  0  0
 40 41  1  0  0  0  0
 43 40  1  0  0  0  0
M  END
$$$$
