CSD_code = EFELEJ | q = 0 | S = 0 | Stoichiometry = C18H22AuClN4 | MND = 2
 OpenBabel04212202033D

 46 47  0  0  1  0  0  0  0  0999 V2000
    7.5838    2.2400    1.7108 Au  0  0  0  0  0  0  0  0  0  0  0  0
    9.5086    2.1767    0.5646 Cl  0  0  0  0  0  0  0  0  0  0  0  0
    5.3187    1.2706    3.4136 N   0  0  0  0  0  0  0  0  0  0  0  0
    5.1399    3.3955    3.0121 N   0  0  0  0  0  0  0  0  0  0  0  0
    6.5387    6.5581    8.0680 N   0  0  0  0  0  0  0  0  0  0  0  0
    4.2682   -5.6862    1.3124 N   0  0  0  0  0  0  0  0  0  0  0  0
    5.8916    2.3035    2.7687 C   0  0  1  0  0  3  0  0  0  0  0  0
    4.0720    3.0684    3.8193 C   0  0  0  0  0  0  0  0  0  0  0  0
    3.0280    3.8104    4.3532 C   0  0  0  0  0  0  0  0  0  0  0  0
    2.9306    4.8684    4.1699 H   0  0  0  0  0  0  0  0  0  0  0  0
    2.1114    3.1385    5.1375 C   0  0  0  0  0  0  0  0  0  0  0  0
    1.2874    3.6841    5.5698 H   0  0  0  0  0  0  0  0  0  0  0  0
    2.2244    1.7712    5.3878 C   0  0  0  0  0  0  0  0  0  0  0  0
    1.4851    1.2887    6.0076 H   0  0  0  0  0  0  0  0  0  0  0  0
    3.2587    1.0233    4.8611 C   0  0  0  0  0  0  0  0  0  0  0  0
    3.3408   -0.0337    5.0577 H   0  0  0  0  0  0  0  0  0  0  0  0
    4.1843    1.6900    4.0717 C   0  0  0  0  0  0  0  0  0  0  0  0
    5.7791   -0.0923    3.3560 C   0  0  0  0  0  0  0  0  0  0  0  0
    5.6590   -0.5382    4.3460 H   0  0  0  0  0  0  0  0  0  0  0  0
    6.8408   -0.0720    3.0956 H   0  0  0  0  0  0  0  0  0  0  0  0
    5.0072   -0.8878    2.2986 C   0  0  0  0  0  0  0  0  0  0  0  0
    5.0219   -0.3166    1.3677 H   0  0  0  0  0  0  0  0  0  0  0  0
    3.9654   -0.9972    2.6086 H   0  0  0  0  0  0  0  0  0  0  0  0
    5.6175   -2.2625    2.0363 C   0  0  0  0  0  0  0  0  0  0  0  0
    5.0572   -2.7361    1.2269 H   0  0  0  0  0  0  0  0  0  0  0  0
    6.6487   -2.1376    1.6984 H   0  0  0  0  0  0  0  0  0  0  0  0
    5.5870   -3.1809    3.2574 C   0  0  0  0  0  0  0  0  0  0  0  0
    4.5769   -3.2041    3.6743 H   0  0  0  0  0  0  0  0  0  0  0  0
    6.2668   -2.8101    4.0264 H   0  0  0  0  0  0  0  0  0  0  0  0
    6.0098   -4.6092    2.8881 C   0  0  0  0  0  0  0  0  0  0  0  0
    6.9834   -4.5981    2.3905 H   0  0  0  0  0  0  0  0  0  0  0  0
    6.0862   -5.2292    3.7857 H   0  0  0  0  0  0  0  0  0  0  0  0
    5.4521    4.7161    2.5252 C   0  0  0  0  0  0  0  0  0  0  0  0
    4.5385    5.3135    2.5466 H   0  0  0  0  0  0  0  0  0  0  0  0
    5.7937    4.6258    1.4905 H   0  0  0  0  0  0  0  0  0  0  0  0
    6.5507    5.3880    3.3539 C   0  0  0  0  0  0  0  0  0  0  0  0
    7.4485    4.7668    3.3049 H   0  0  0  0  0  0  0  0  0  0  0  0
    6.7829    6.3499    2.8935 H   0  0  0  0  0  0  0  0  0  0  0  0
    6.1413    5.5963    4.8091 C   0  0  0  0  0  0  0  0  0  0  0  0
    5.8888    4.6371    5.2682 H   0  0  0  0  0  0  0  0  0  0  0  0
    5.2547    6.2334    4.8585 H   0  0  0  0  0  0  0  0  0  0  0  0
    7.2739    6.2482    5.6112 C   0  0  0  0  0  0  0  0  0  0  0  0
    8.1687    5.6199    5.5840 H   0  0  0  0  0  0  0  0  0  0  0  0
    7.5267    7.2254    5.1903 H   0  0  0  0  0  0  0  0  0  0  0  0
    6.8793    6.4276    6.9850 C   0  0  0  0  0  0  0  0  0  0  0  0
    5.0486   -5.2180    2.0037 C   0  0  0  0  0  0  0  0  0  0  0  0
  2  1  1  0  0  0  0
  3 17  1  0  0  0  0
  4  8  1  0  0  0  0
  6 46  3  0  0  0  0
  7  1  1  1  0  0  0
  7  4  1  0  0  0  0
  7  3  1  0  0  0  0
  8 17  2  0  0  0  0
  8  9  1  0  0  0  0
  9 11  2  0  0  0  0
 10  9  1  0  0  0  0
 11 13  1  0  0  0  0
 11 12  1  0  0  0  0
 13 14  1  0  0  0  0
 15 16  1  0  0  0  0
 15 13  2  0  0  0  0
 17 15  1  0  0  0  0
 18  3  1  0  0  0  0
 18 19  1  0  0  0  0
 20 18  1  0  0  0  0
 21 23  1  0  0  0  0
 21 18  1  0  0  0  0
 22 21  1  0  0  0  0
 24 21  1  0  0  0  0
 24 27  1  0  0  0  0
 25 24  1  0  0  0  0
 26 24  1  0  0  0  0
 27 28  1  0  0  0  0
 27 29  1  0  0  0  0
 30 27  1  0  0  0  0
 30 32  1  0  0  0  0
 31 30  1  0  0  0  0
 33 34  1  0  0  0  0
 33  4  1  0  0  0  0
 33 36  1  0  0  0  0
 35 33  1  0  0  0  0
 36 39  1  0  0  0  0
 37 36  1  0  0  0  0
 38 36  1  0  0  0  0
 39 41  1  0  0  0  0
 39 40  1  0  0  0  0
 39 42  1  0  0  0  0
 42 45  1  0  0  0  0
 43 42  1  0  0  0  0
 44 42  1  0  0  0  0
 45  5  3  0  0  0  0
 46 30  1  0  0  0  0
M  END
$$$$
