CSD_code = EFEMAF | q = 1 | S = 0 | Stoichiometry = C26H22AuCl2N6(1+) | MND = 4
 OpenBabel04212202033D

 57 62  0  0  1  0  0  0  0  0999 V2000
    5.8273    9.9925    9.4438 Au  0  0  0  0  0  0  0  0  0  0  0  0
    6.7535    9.9664    7.3789 Cl  0  0  0  0  0  0  0  0  0  0  0  0
    6.6378   12.0614    9.8728 Cl  0  0  0  0  0  0  0  0  0  0  0  0
    5.0576    9.9514   11.2995 C   0  0  0  0  0  0  0  0  0  0  0  0
    4.2104    7.8258    8.0736 N   0  0  0  0  0  0  0  0  0  0  0  0
    5.0403    8.1825    9.0666 C   0  0  2  0  0  3  0  0  0  0  0  0
    3.7954    9.5704   11.5970 N   0  0  0  0  0  0  0  0  0  0  0  0
    5.0965    7.1295    9.9122 N   0  0  0  0  0  0  0  0  0  0  0  0
    5.6995   10.0807   12.4715 N   0  0  0  0  0  0  0  0  0  0  0  0
    3.8313    8.5313    6.9637 C   0  0  0  0  0  0  0  0  0  0  0  0
    4.2778    9.5039    6.8389 H   0  0  0  0  0  0  0  0  0  0  0  0
    4.3002    6.1051    9.4884 C   0  0  0  0  0  0  0  0  0  0  0  0
    3.7329    6.5352    8.3035 C   0  0  0  0  0  0  0  0  0  0  0  0
    4.8310    9.7685   13.5176 C   0  0  0  0  0  0  0  0  0  0  0  0
    3.6187    9.4343   12.9436 C   0  0  0  0  0  0  0  0  0  0  0  0
    5.9071    7.1113   11.0743 C   0  0  0  0  0  0  0  0  0  0  0  0
    7.2572    7.4307   10.9832 C   0  0  0  0  0  0  0  0  0  0  0  0
    7.7101    7.6582   10.0311 H   0  0  0  0  0  0  0  0  0  0  0  0
    6.0176    6.7591   13.3113 C   0  0  0  0  0  0  0  0  0  0  0  0
    5.4765    6.4784   14.2036 H   0  0  0  0  0  0  0  0  0  0  0  0
    5.2997    6.7840   12.2012 N   0  0  0  0  0  0  0  0  0  0  0  0
    2.7962    9.3654   10.6136 C   0  0  0  0  0  0  0  0  0  0  0  0
    2.1520    8.2133   10.6716 N   0  0  0  0  0  0  0  0  0  0  0  0
    5.2969    9.8350   14.8492 C   0  0  0  0  0  0  0  0  0  0  0  0
    4.6153    9.5968   15.6488 H   0  0  0  0  0  0  0  0  0  0  0  0
    6.9919   10.4594   12.7163 C   0  0  0  0  0  0  0  0  0  0  0  0
    7.5842   10.7252   11.8564 H   0  0  0  0  0  0  0  0  0  0  0  0
    6.5832   10.2072   15.0815 C   0  0  0  0  0  0  0  0  0  0  0  0
    6.9650   10.2743   16.0869 H   0  0  0  0  0  0  0  0  0  0  0  0
    7.4357   10.5294   13.9929 C   0  0  0  0  0  0  0  0  0  0  0  0
    8.4487   10.8420   14.1844 H   0  0  0  0  0  0  0  0  0  0  0  0
    7.3688    7.0685   13.3443 C   0  0  0  0  0  0  0  0  0  0  0  0
    7.9162    7.0333   14.2716 H   0  0  0  0  0  0  0  0  0  0  0  0
    7.9979    7.4090   12.1554 C   0  0  0  0  0  0  0  0  0  0  0  0
    9.0512    7.6414   12.1345 H   0  0  0  0  0  0  0  0  0  0  0  0
    2.9787    7.9693    6.0754 C   0  0  0  0  0  0  0  0  0  0  0  0
    2.6935    8.5201    5.1947 H   0  0  0  0  0  0  0  0  0  0  0  0
    2.8376    5.9522    7.3799 C   0  0  0  0  0  0  0  0  0  0  0  0
    2.4804    4.9528    7.5652 H   0  0  0  0  0  0  0  0  0  0  0  0
    2.4644    6.6623    6.2828 C   0  0  0  0  0  0  0  0  0  0  0  0
    1.7894    6.2409    5.5564 H   0  0  0  0  0  0  0  0  0  0  0  0
    2.5483   10.3475    9.6610 C   0  0  0  0  0  0  0  0  0  0  0  0
    3.0809   11.2852    9.6798 H   0  0  0  0  0  0  0  0  0  0  0  0
    0.8883    8.8771    8.7660 C   0  0  0  0  0  0  0  0  0  0  0  0
    0.1158    8.6444    8.0518 H   0  0  0  0  0  0  0  0  0  0  0  0
    1.5690   10.0850    8.7148 C   0  0  0  0  0  0  0  0  0  0  0  0
    1.3349   10.8194    7.9600 H   0  0  0  0  0  0  0  0  0  0  0  0
    4.1524    4.8294   10.2204 C   0  0  0  0  0  0  0  0  0  0  0  0
    3.7294    5.0123   11.2068 H   0  0  0  0  0  0  0  0  0  0  0  0
    5.1209    4.3493   10.3571 H   0  0  0  0  0  0  0  0  0  0  0  0
    3.5030    4.1574    9.6687 H   0  0  0  0  0  0  0  0  0  0  0  0
    2.3433    9.0149   13.5619 C   0  0  0  0  0  0  0  0  0  0  0  0
    1.5350    9.6849   13.2703 H   0  0  0  0  0  0  0  0  0  0  0  0
    2.4338    9.0247   14.6434 H   0  0  0  0  0  0  0  0  0  0  0  0
    2.0802    8.0119   13.2301 H   0  0  0  0  0  0  0  0  0  0  0  0
    1.2148    7.9773    9.7693 C   0  0  0  0  0  0  0  0  0  0  0  0
    0.7124    7.0253    9.8650 H   0  0  0  0  0  0  0  0  0  0  0  0
  1  3  1  0  0  0  0
  1  4  2  0  0  0  0
  2  1  1  0  0  0  0
  4  7  1  0  0  0  0
  4  9  1  0  0  0  0
  5 13  1  0  0  0  0
  5  6  1  0  0  0  0
  6  1  1  1  0  0  0
  6  8  1  0  0  0  0
  7 15  1  0  0  0  0
  8 16  1  0  0  0  0
  9 26  1  0  0  0  0
  9 14  1  0  0  0  0
 10  5  1  0  0  0  0
 11 10  1  0  0  0  0
 12  8  1  0  0  0  0
 12 48  1  0  0  0  0
 13 12  2  0  0  0  0
 14 24  1  0  0  0  0
 15 14  2  0  0  0  0
 15 52  1  0  0  0  0
 16 21  1  0  0  0  0
 17 16  2  0  0  0  0
 17 34  1  0  0  0  0
 18 17  1  0  0  0  0
 19 32  1  0  0  0  0
 19 20  1  0  0  0  0
 21 19  2  0  0  0  0
 22 23  1  0  0  0  0
 22  7  1  0  0  0  0
 24 28  2  0  0  0  0
 24 25  1  0  0  0  0
 26 30  2  0  0  0  0
 27 26  1  0  0  0  0
 28 29  1  0  0  0  0
 30 31  1  0  0  0  0
 30 28  1  0  0  0  0
 32 33  1  0  0  0  0
 34 32  2  0  0  0  0
 35 34  1  0  0  0  0
 36 40  1  0  0  0  0
 36 10  2  0  0  0  0
 37 36  1  0  0  0  0
 38 39  1  0  0  0  0
 38 13  1  0  0  0  0
 40 38  2  0  0  0  0
 41 40  1  0  0  0  0
 42 43  1  0  0  0  0
 42 22  2  0  0  0  0
 44 56  1  0  0  0  0
 45 44  1  0  0  0  0
 46 44  2  0  0  0  0
 46 42  1  0  0  0  0
 47 46  1  0  0  0  0
 48 50  1  0  0  0  0
 48 49  1  0  0  0  0
 51 48  1  0  0  0  0
 52 54  1  0  0  0  0
 53 52  1  0  0  0  0
 55 52  1  0  0  0  0
 56 57  1  0  0  0  0
 56 23  2  0  0  0  0
M  END
$$$$
