CSD_code = EFIJEK | q = 1 | S = 0 | Stoichiometry = C27H36ClHgN4(1+) | MND = 5
 OpenBabel04212202033D

 69 73  0  0  1  0  0  0  0  0999 V2000
    4.1555    9.9058    1.1816 C   0  0  0  0  0  0  0  0  0  0  0  0
    5.5070    9.8651    0.8571 C   0  0  0  0  0  0  0  0  0  0  0  0
    6.0998   10.7683    0.9155 H   0  0  0  0  0  0  0  0  0  0  0  0
    6.0925    8.6840    0.4385 C   0  0  0  0  0  0  0  0  0  0  0  0
    7.1407    8.6651    0.1820 H   0  0  0  0  0  0  0  0  0  0  0  0
    5.3319    7.5306    0.3403 C   0  0  0  0  0  0  0  0  0  0  0  0
    5.7867    6.6102    0.0085 H   0  0  0  0  0  0  0  0  0  0  0  0
    3.9854    7.5629    0.6601 C   0  0  0  0  0  0  0  0  0  0  0  0
    3.3879    6.6679    0.5790 H   0  0  0  0  0  0  0  0  0  0  0  0
    3.4008    8.7445    1.0826 C   0  0  0  0  0  0  0  0  0  0  0  0
    2.3478    8.7672    1.3253 H   0  0  0  0  0  0  0  0  0  0  0  0
    3.5458   11.1953    1.6677 C   0  0  0  0  0  0  0  0  0  0  0  0
    2.4546   11.1307    1.6642 H   0  0  0  0  0  0  0  0  0  0  0  0
    3.8465   12.0212    1.0163 H   0  0  0  0  0  0  0  0  0  0  0  0
    3.5354   10.5409    4.0255 C   0  0  0  0  0  0  0  0  0  0  0  0
    2.4523   10.4382    3.9211 H   0  0  0  0  0  0  0  0  0  0  0  0
    3.9854    9.5591    3.8330 H   0  0  0  0  0  0  0  0  0  0  0  0
    3.9011   10.9727    5.4462 C   0  0  0  0  0  0  0  0  0  0  0  0
    4.9842   11.0942    5.4963 H   0  0  0  0  0  0  0  0  0  0  0  0
    3.6195   10.1756    6.1466 H   0  0  0  0  0  0  0  0  0  0  0  0
    1.8813   12.0430    6.2410 C   0  0  0  0  0  0  0  0  0  0  0  0
    1.8279   11.7192    7.2885 H   0  0  0  0  0  0  0  0  0  0  0  0
    1.4551   11.2497    5.6250 H   0  0  0  0  0  0  0  0  0  0  0  0
    1.0248   13.2968    6.0607 C   0  0  0  0  0  0  0  0  0  0  0  0
    0.0154   13.0860    6.4352 H   0  0  0  0  0  0  0  0  0  0  0  0
    1.4314   14.1283    6.6421 H   0  0  0  0  0  0  0  0  0  0  0  0
    0.2265   14.9643    4.4575 C   0  0  0  0  0  0  0  0  0  0  0  0
    0.3455   15.2607    3.4111 H   0  0  0  0  0  0  0  0  0  0  0  0
    0.6692   15.7383    5.0895 H   0  0  0  0  0  0  0  0  0  0  0  0
   -1.2346   14.7839    4.7793 C   0  0  0  0  0  0  0  0  0  0  0  0
   -2.0374   14.0404    3.9209 C   0  0  0  0  0  0  0  0  0  0  0  0
   -1.6169   13.6366    3.0094 H   0  0  0  0  0  0  0  0  0  0  0  0
   -3.3734   13.8337    4.2126 C   0  0  0  0  0  0  0  0  0  0  0  0
   -3.9892   13.2612    3.5360 H   0  0  0  0  0  0  0  0  0  0  0  0
   -3.9209   14.3689    5.3670 C   0  0  0  0  0  0  0  0  0  0  0  0
   -4.9642   14.2125    5.5925 H   0  0  0  0  0  0  0  0  0  0  0  0
   -3.1291   15.1116    6.2259 C   0  0  0  0  0  0  0  0  0  0  0  0
   -3.5535   15.5356    7.1229 H   0  0  0  0  0  0  0  0  0  0  0  0
   -1.7908   15.3150    5.9352 C   0  0  0  0  0  0  0  0  0  0  0  0
   -1.1775   15.9008    6.6052 H   0  0  0  0  0  0  0  0  0  0  0  0
    4.0448   12.9064    6.8949 C   0  0  0  0  0  0  0  0  0  0  0  0
    4.3780   12.1756    7.6433 H   0  0  0  0  0  0  0  0  0  0  0  0
    3.3893   13.6212    7.3949 H   0  0  0  0  0  0  0  0  0  0  0  0
    5.2605   13.6669    6.3637 C   0  0  0  0  0  0  0  0  0  0  0  0
    5.8116   14.0820    7.2167 H   0  0  0  0  0  0  0  0  0  0  0  0
    5.9326   12.9925    5.8268 H   0  0  0  0  0  0  0  0  0  0  0  0
    6.0132   15.4253    4.8362 C   0  0  0  0  0  0  0  0  0  0  0  0
    6.6421   14.6834    4.3376 H   0  0  0  0  0  0  0  0  0  0  0  0
    5.6264   16.1161    4.0812 H   0  0  0  0  0  0  0  0  0  0  0  0
    6.8029   16.1836    5.8718 C   0  0  0  0  0  0  0  0  0  0  0  0
    8.0404   15.7315    6.3097 C   0  0  0  0  0  0  0  0  0  0  0  0
    8.4673   14.8366    5.8795 H   0  0  0  0  0  0  0  0  0  0  0  0
    8.7370   16.4290    7.2818 C   0  0  0  0  0  0  0  0  0  0  0  0
    9.7019   16.0735    7.6093 H   0  0  0  0  0  0  0  0  0  0  0  0
    8.1986   17.5804    7.8301 C   0  0  0  0  0  0  0  0  0  0  0  0
    8.7427   18.1253    8.5856 H   0  0  0  0  0  0  0  0  0  0  0  0
    6.9633   18.0370    7.4006 C   0  0  0  0  0  0  0  0  0  0  0  0
    6.5439   18.9390    7.8190 H   0  0  0  0  0  0  0  0  0  0  0  0
    6.2697   17.3419    6.4266 C   0  0  0  0  0  0  0  0  0  0  0  0
    5.3136   17.7111    6.0800 H   0  0  0  0  0  0  0  0  0  0  0  0
    3.3041   15.1308    1.9634 Cl  0  0  0  0  0  0  0  0  0  0  0  0
    3.2917   13.7915    3.7629 Hg  0  0  2  0  0  0  0  0  0  0  0  0
    3.9843   11.5317    3.0416 N   0  0  0  0  0  4  0  0  0  0  0  0
    5.0066   11.5071    3.0279 H   0  0  0  0  0  0  0  0  0  0  0  0
    0.9915   13.7117    4.6543 N   0  0  0  0  0  4  0  0  0  0  0  0
    0.4873   12.9887    4.1353 H   0  0  0  0  0  0  0  0  0  0  0  0
    3.2772   12.2432    5.8341 N   0  0  1  0  0  0  0  0  0  0  0  0
    4.8529   14.7236    5.4318 N   0  0  0  0  0  4  0  0  0  0  0  0
    4.3438   15.4271    5.9723 H   0  0  0  0  0  0  0  0  0  0  0  0
  1 12  1  0  0  0  0
  2  3  1  0  0  0  0
  2  1  2  0  0  0  0
  4  2  1  0  0  0  0
  5  4  1  0  0  0  0
  6  4  2  0  0  0  0
  6  8  1  0  0  0  0
  7  6  1  0  0  0  0
  8 10  2  0  0  0  0
  9  8  1  0  0  0  0
 10  1  1  0  0  0  0
 10 11  1  0  0  0  0
 12 63  1  0  0  0  0
 13 12  1  0  0  0  0
 14 12  1  0  0  0  0
 15 18  1  0  0  0  0
 16 15  1  0  0  0  0
 17 15  1  0  0  0  0
 18 19  1  0  0  0  0
 18 20  1  0  0  0  0
 21 22  1  0  0  0  0
 23 21  1  0  0  0  0
 24 21  1  0  0  0  0
 24 25  1  0  0  0  0
 24 26  1  0  0  0  0
 27 65  1  0  0  0  0
 27 30  1  0  0  0  0
 27 29  1  0  0  0  0
 28 27  1  0  0  0  0
 30 39  1  0  0  0  0
 31 33  1  0  0  0  0
 31 30  2  0  0  0  0
 32 31  1  0  0  0  0
 33 35  2  0  0  0  0
 34 33  1  0  0  0  0
 35 36  1  0  0  0  0
 35 37  1  0  0  0  0
 37 38  1  0  0  0  0
 39 37  2  0  0  0  0
 39 40  1  0  0  0  0
 41 43  1  0  0  0  0
 41 42  1  0  0  0  0
 44 41  1  0  0  0  0
 44 45  1  0  0  0  0
 46 44  1  0  0  0  0
 47 68  1  0  0  0  0
 47 50  1  0  0  0  0
 48 47  1  0  0  0  0
 49 47  1  0  0  0  0
 50 51  2  0  0  0  0
 50 59  1  0  0  0  0
 51 53  1  0  0  0  0
 52 51  1  0  0  0  0
 53 54  1  0  0  0  0
 53 55  2  0  0  0  0
 55 56  1  0  0  0  0
 57 58  1  0  0  0  0
 57 55  1  0  0  0  0
 59 57  2  0  0  0  0
 60 59  1  0  0  0  0
 62 61  1  6  0  0  0
 62 65  1  0  0  0  0
 62 68  1  0  0  0  0
 63 62  1  0  0  0  0
 63 15  1  0  0  0  0
 64 63  1  0  0  0  0
 65 24  1  0  0  0  0
 66 65  1  0  0  0  0
 67 18  1  1  0  0  0
 67 21  1  0  0  0  0
 67 41  1  0  0  0  0
 68 69  1  0  0  0  0
 68 44  1  0  0  0  0
M  END
$$$$
