CSD_code = EFILIQ | q = 0 | S = 0 | Stoichiometry = C21H29ClIrN3 | MND = 6
 OpenBabel04212202033D

 55 56  0  0  1  0  0  0  0  0999 V2000
    6.4904   11.5210    3.5784 Ir  0  0  0  0  0  0  0  0  0  0  0  0
    5.9189    9.2136    3.5052 Cl  0  0  0  0  0 15  0  0  0  0  0  0
    6.6634   10.7995    0.6071 N   0  0  0  0  0  0  0  0  0  0  0  0
    4.9635   12.0540    1.0050 N   0  0  0  0  0  0  0  0  0  0  0  0
    3.3150   11.2070    3.2046 N   0  0  0  0  0  0  0  0  0  0  0  0
    4.0943   10.6035    2.9750 H   0  0  0  0  0  0  0  0  0  0  0  0
    2.8977   11.0343    4.1026 H   0  0  0  0  0  0  0  0  0  0  0  0
    6.0510   11.4940    1.5924 C   0  0  1  0  0  3  0  0  0  0  0  0
    5.9832   10.9375   -0.5712 C   0  0  0  0  0  0  0  0  0  0  0  0
    6.3040   10.4658   -1.4770 H   0  0  0  0  0  0  0  0  0  0  0  0
    4.9148   11.7286   -0.3257 C   0  0  0  0  0  0  0  0  0  0  0  0
    4.1282   12.0692   -0.9664 H   0  0  0  0  0  0  0  0  0  0  0  0
    7.8333    9.9687    0.7663 C   0  0  0  0  0  0  0  0  0  0  0  0
    7.9906    9.4338   -0.1733 H   0  0  0  0  0  0  0  0  0  0  0  0
    7.6283    9.2435    1.5591 H   0  0  0  0  0  0  0  0  0  0  0  0
    9.0767   10.7767    1.1338 C   0  0  0  0  0  0  0  0  0  0  0  0
    9.9126   10.0848    1.2470 H   0  0  0  0  0  0  0  0  0  0  0  0
    8.8981   11.2540    2.0990 H   0  0  0  0  0  0  0  0  0  0  0  0
    9.4203   11.8335    0.0875 C   0  0  0  0  0  0  0  0  0  0  0  0
    9.5987   11.3486   -0.8757 H   0  0  0  0  0  0  0  0  0  0  0  0
    8.5735   12.5131   -0.0336 H   0  0  0  0  0  0  0  0  0  0  0  0
   10.6528   12.6357    0.4853 C   0  0  0  0  0  0  0  0  0  0  0  0
   10.4832   13.1507    1.4281 H   0  0  0  0  0  0  0  0  0  0  0  0
   10.8885   13.3784   -0.2732 H   0  0  0  0  0  0  0  0  0  0  0  0
   11.5131   11.9806    0.6029 H   0  0  0  0  0  0  0  0  0  0  0  0
    4.0178   12.9094    1.6247 C   0  0  0  0  0  0  0  0  0  0  0  0
    3.2665   12.4833    2.7353 C   0  0  0  0  0  0  0  0  0  0  0  0
    2.3781   13.4087    3.2998 C   0  0  0  0  0  0  0  0  0  0  0  0
    1.7989   13.1037    4.1595 H   0  0  0  0  0  0  0  0  0  0  0  0
    2.2249   14.6750    2.7800 C   0  0  0  0  0  0  0  0  0  0  0  0
    1.5316   15.3617    3.2425 H   0  0  0  0  0  0  0  0  0  0  0  0
    2.9523   15.0704    1.6675 C   0  0  0  0  0  0  0  0  0  0  0  0
    2.8313   16.0589    1.2536 H   0  0  0  0  0  0  0  0  0  0  0  0
    3.8453   14.1821    1.0996 C   0  0  0  0  0  0  0  0  0  0  0  0
    4.4374   14.4750    0.2441 H   0  0  0  0  0  0  0  0  0  0  0  0
    6.1302   11.5342    5.6962 C   0  0  0  0  0  3  0  0  0  0  0  0
    5.5107   10.6680    5.9197 H   0  0  0  0  0  0  0  0  0  0  0  0
    7.4806   11.3227    5.5011 C   0  0  0  0  0  3  0  0  0  0  0  0
    7.8434   10.2992    5.5545 H   0  0  0  0  0  0  0  0  0  0  0  0
    8.5301   12.3842    5.7423 C   0  0  0  0  0  0  0  0  0  0  0  0
    9.4464   11.9061    6.0941 H   0  0  0  0  0  0  0  0  0  0  0  0
    8.1869   13.0467    6.5385 H   0  0  0  0  0  0  0  0  0  0  0  0
    8.8484   13.1974    4.4732 C   0  0  0  0  0  0  0  0  0  0  0  0
    9.1510   14.2148    4.7457 H   0  0  0  0  0  0  0  0  0  0  0  0
    9.6983   12.7381    3.9629 H   0  0  0  0  0  0  0  0  0  0  0  0
    7.6923   13.2609    3.4978 C   0  0  2  0  0  0  0  0  0  0  0  0
    8.0105   13.5302    2.4909 H   0  0  0  0  0  0  0  0  0  0  0  0
    6.3802   13.6288    3.8572 C   0  0  0  0  0  3  0  0  0  0  0  0
    5.7872   14.1160    3.0883 H   0  0  0  0  0  0  0  0  0  0  0  0
    5.9944   14.0391    5.2641 C   0  0  0  0  0  0  0  0  0  0  0  0
    5.1910   14.7761    5.2082 H   0  0  0  0  0  0  0  0  0  0  0  0
    6.8462   14.5255    5.7423 H   0  0  0  0  0  0  0  0  0  0  0  0
    5.5122   12.8476    6.1118 C   0  0  0  0  0  0  0  0  0  0  0  0
    5.7218   13.0294    7.1717 H   0  0  0  0  0  0  0  0  0  0  0  0
    4.4285   12.7606    6.0093 H   0  0  0  0  0  0  0  0  0  0  0  0
  3 13  1  0  0  0  0
  3  8  1  0  0  0  0
  4  8  1  0  0  0  0
  4 26  1  0  0  0  0
  5  7  1  0  0  0  0
  6  5  1  0  0  0  0
  8  1  1  1  0  0  0
  9 11  2  0  0  0  0
  9  3  1  0  0  0  0
 10  9  1  0  0  0  0
 11  4  1  0  0  0  0
 12 11  1  0  0  0  0
 13 16  1  0  0  0  0
 13 15  1  0  0  0  0
 14 13  1  0  0  0  0
 16 17  1  0  0  0  0
 16 18  1  0  0  0  0
 19 22  1  0  0  0  0
 19 16  1  0  0  0  0
 20 19  1  0  0  0  0
 21 19  1  0  0  0  0
 22 25  1  0  0  0  0
 22 23  1  0  0  0  0
 24 22  1  0  0  0  0
 26 27  1  0  0  0  0
 27  5  1  0  0  0  0
 27 28  2  0  0  0  0
 28 29  1  0  0  0  0
 30 31  1  0  0  0  0
 30 28  1  0  0  0  0
 32 30  2  0  0  0  0
 33 32  1  0  0  0  0
 34 26  2  0  0  0  0
 34 32  1  0  0  0  0
 35 34  1  0  0  0  0
 36 37  1  0  0  0  0
 36 53  1  0  0  0  0
 38 39  1  0  0  0  0
 38 36  1  0  0  0  0
 38 40  1  0  0  0  0
 40 41  1  0  0  0  0
 40 42  1  0  0  0  0
 43 44  1  0  0  0  0
 43 40  1  0  0  0  0
 45 43  1  0  0  0  0
 46 47  1  6  0  0  0
 46  1  1  0  0  0  0
 46 48  1  0  0  0  0
 46 43  1  0  0  0  0
 48 50  1  0  0  0  0
 49 48  1  0  0  0  0
 50 52  1  0  0  0  0
 50 53  1  0  0  0  0
 51 50  1  0  0  0  0
 53 54  1  0  0  0  0
 55 53  1  0  0  0  0
M  END
$$$$
