CSD_code = EFIPEQ | q = 0 | S = 0 | Stoichiometry = C28H34Cl3N3Pd | MND = 4
 OpenBabel04212202033D

 69 72  0  0  0  0  0  0  0  0999 V2000
    9.6054   10.4065   14.7925 Pd  0  0  0  0  0  0  0  0  0  0  0  0
    8.0406    9.2051   13.6057 Cl  0  0  0  0  0  0  0  0  0  0  0  0
   10.7071    6.0319   17.9615 Cl  0  0  0  0  0  0  0  0  0  0  0  0
    9.0956    9.2274   16.3218 N   0  0  0  0  0  0  0  0  0  0  0  0
    9.4193   12.5321   12.8728 N   0  0  0  0  0  0  0  0  0  0  0  0
   10.9733    8.7153   12.0252 C   0  0  0  0  0  0  0  0  0  0  0  0
    9.9270    8.7323   12.3428 H   0  0  0  0  0  0  0  0  0  0  0  0
   11.0987    9.4352   11.2186 H   0  0  0  0  0  0  0  0  0  0  0  0
   11.1882    7.7210   11.6412 H   0  0  0  0  0  0  0  0  0  0  0  0
   11.4768   11.4328   12.9298 N   0  0  0  0  0  0  0  0  0  0  0  0
   10.2148   11.5741   13.3396 C   0  0  0  0  0  0  0  0  0  0  0  0
   12.2099   10.3465   13.5299 C   0  0  0  0  0  0  0  0  0  0  0  0
   11.8882    9.0271   13.1728 C   0  0  0  0  0  0  0  0  0  0  0  0
   12.0655   12.0813   11.7653 C   0  0  0  0  0  0  0  0  0  0  0  0
   13.0084   11.5727   11.5520 H   0  0  0  0  0  0  0  0  0  0  0  0
   11.4008   11.9177   10.9087 H   0  0  0  0  0  0  0  0  0  0  0  0
   12.5004    7.9864   13.8646 C   0  0  0  0  0  0  0  0  0  0  0  0
   12.2350    6.9687   13.6125 H   0  0  0  0  0  0  0  0  0  0  0  0
    9.8922    8.1997   16.5839 C   0  0  0  0  0  3  0  0  0  0  0  0
   10.7483    8.0552   15.9263 H   0  0  0  0  0  0  0  0  0  0  0  0
   13.4457    8.2248   14.8512 C   0  0  0  0  0  0  0  0  0  0  0  0
    8.0069   12.3860   13.1154 C   0  0  0  0  0  0  0  0  0  0  0  0
    3.8081   11.8376   13.7502 C   0  0  0  0  0  0  0  0  0  0  0  0
    3.4510   12.4177   14.5977 H   0  0  0  0  0  0  0  0  0  0  0  0
    3.2351   12.1120   12.8668 H   0  0  0  0  0  0  0  0  0  0  0  0
    3.6233   10.7827   13.9532 H   0  0  0  0  0  0  0  0  0  0  0  0
    9.6459    7.3517   17.6545 C   0  0  0  0  0  0  0  0  0  0  0  0
    5.2725   12.0583   13.5229 C   0  0  0  0  0  0  0  0  0  0  0  0
    7.7265    8.6578   18.1724 C   0  0  0  0  0  0  0  0  0  0  0  0
    6.8598    8.8715   18.7778 H   0  0  0  0  0  0  0  0  0  0  0  0
    7.8319   11.3648   10.8176 C   0  0  0  0  0  0  0  0  0  0  0  0
    8.0615   12.2138   10.1723 H   0  0  0  0  0  0  0  0  0  0  0  0
    8.7479   10.8119   11.0148 H   0  0  0  0  0  0  0  0  0  0  0  0
    7.1452   10.7094   10.2900 H   0  0  0  0  0  0  0  0  0  0  0  0
    9.7997   13.7476   12.1578 C   0  0  0  0  0  0  0  0  0  0  0  0
    9.8126   13.5938   11.0732 H   0  0  0  0  0  0  0  0  0  0  0  0
    9.0186   14.4831   12.3725 H   0  0  0  0  0  0  0  0  0  0  0  0
    7.4359   12.8120   14.3179 C   0  0  0  0  0  0  0  0  0  0  0  0
   13.8302    9.5356   15.0963 C   0  0  0  0  0  0  0  0  0  0  0  0
   14.5993    9.7323   15.8291 H   0  0  0  0  0  0  0  0  0  0  0  0
    8.2538   13.4842   15.3806 C   0  0  0  0  0  0  0  0  0  0  0  0
    8.9458   12.7726   15.8474 H   0  0  0  0  0  0  0  0  0  0  0  0
    8.8496   14.2929   14.9597 H   0  0  0  0  0  0  0  0  0  0  0  0
    7.6089   13.8938   16.1543 H   0  0  0  0  0  0  0  0  0  0  0  0
    8.0364    9.4612   17.0876 C   0  0  0  0  0  0  0  0  0  0  0  0
    7.4225   10.3149   16.8112 H   0  0  0  0  0  0  0  0  0  0  0  0
    8.5438    7.5790   18.4689 C   0  0  0  0  0  0  0  0  0  0  0  0
    8.3371    6.9305   19.3059 H   0  0  0  0  0  0  0  0  0  0  0  0
    6.0703   12.6290   14.5015 C   0  0  0  0  0  0  0  0  0  0  0  0
    5.6230   12.9436   15.4346 H   0  0  0  0  0  0  0  0  0  0  0  0
   12.3147   13.5822   11.9344 C   0  0  0  0  0  0  0  0  0  0  0  0
   13.2289   13.7564   12.5006 H   0  0  0  0  0  0  0  0  0  0  0  0
   12.4527   14.0137   10.9406 H   0  0  0  0  0  0  0  0  0  0  0  0
   11.1486   14.2687   12.6442 C   0  0  0  0  0  0  0  0  0  0  0  0
   11.2092   15.3457   12.4790 H   0  0  0  0  0  0  0  0  0  0  0  0
   11.2146   14.0934   13.7202 H   0  0  0  0  0  0  0  0  0  0  0  0
    5.8603   11.6757   12.3258 C   0  0  0  0  0  0  0  0  0  0  0  0
    5.2497   11.2277   11.5556 H   0  0  0  0  0  0  0  0  0  0  0  0
   13.2315   10.6067   14.4496 C   0  0  0  0  0  0  0  0  0  0  0  0
   13.6986   12.0006   14.7330 C   0  0  0  0  0  0  0  0  0  0  0  0
   14.3881   12.3297   13.9540 H   0  0  0  0  0  0  0  0  0  0  0  0
   12.8563   12.6838   14.7814 H   0  0  0  0  0  0  0  0  0  0  0  0
   14.2177   12.0351   15.6864 H   0  0  0  0  0  0  0  0  0  0  0  0
   14.0541    7.0990   15.6313 C   0  0  0  0  0  0  0  0  0  0  0  0
   13.7640    6.1355   15.2195 H   0  0  0  0  0  0  0  0  0  0  0  0
   15.1403    7.1710   15.6270 H   0  0  0  0  0  0  0  0  0  0  0  0
   13.7239    7.1440   16.6693 H   0  0  0  0  0  0  0  0  0  0  0  0
    7.2199   11.8232   12.1067 C   0  0  0  0  0  0  0  0  0  0  0  0
   10.9436   11.4883   16.3420 Cl  0  0  0  0  0  0  0  0  0  0  0  0
  1  4  1  0  0  0  0
  1 69  1  0  0  0  0
  2  1  1  0  0  0  0
  4 19  1  0  0  0  0
  4 45  1  0  0  0  0
  5 22  1  0  0  0  0
  5 11  1  0  0  0  0
  6  7  1  0  0  0  0
  6 13  1  0  0  0  0
  8  6  1  0  0  0  0
  9  6  1  0  0  0  0
 10 11  1  0  0  0  0
 10 12  1  0  0  0  0
 11  1  2  0  0  0  0
 12 59  1  0  0  0  0
 13 12  2  0  0  0  0
 13 17  1  0  0  0  0
 14 51  1  0  0  0  0
 14 10  1  0  0  0  0
 15 14  1  0  0  0  0
 16 14  1  0  0  0  0
 17 21  2  0  0  0  0
 18 17  1  0  0  0  0
 19 27  1  0  0  0  0
 20 19  1  0  0  0  0
 21 39  1  0  0  0  0
 21 64  1  0  0  0  0
 22 38  1  0  0  0  0
 23 26  1  0  0  0  0
 23 24  1  0  0  0  0
 25 23  1  0  0  0  0
 27  3  1  0  0  0  0
 27 47  2  0  0  0  0
 28 23  1  0  0  0  0
 28 49  1  0  0  0  0
 29 47  1  0  0  0  0
 29 30  1  0  0  0  0
 31 33  1  0  0  0  0
 31 68  1  0  0  0  0
 32 31  1  0  0  0  0
 34 31  1  0  0  0  0
 35 37  1  0  0  0  0
 35 54  1  0  0  0  0
 35  5  1  0  0  0  0
 36 35  1  0  0  0  0
 38 49  2  0  0  0  0
 38 41  1  0  0  0  0
 39 40  1  0  0  0  0
 41 42  1  0  0  0  0
 41 44  1  0  0  0  0
 43 41  1  0  0  0  0
 45 29  2  0  0  0  0
 46 45  1  0  0  0  0
 47 48  1  0  0  0  0
 49 50  1  0  0  0  0
 51 52  1  0  0  0  0
 51 54  1  0  0  0  0
 53 51  1  0  0  0  0
 54 56  1  0  0  0  0
 55 54  1  0  0  0  0
 57 28  2  0  0  0  0
 58 57  1  0  0  0  0
 59 60  1  0  0  0  0
 59 39  2  0  0  0  0
 60 62  1  0  0  0  0
 60 63  1  0  0  0  0
 61 60  1  0  0  0  0
 64 67  1  0  0  0  0
 65 64  1  0  0  0  0
 66 64  1  0  0  0  0
 68 57  1  0  0  0  0
 68 22  2  0  0  0  0
M  END
$$$$
