CSD_code = EFISUI | q = 0 | S = 0 | Stoichiometry = C17H12ClN4O3Re | MND = 6
 OpenBabel04212202033D

 38 41  0  0  0  0  0  0  0  0999 V2000
    2.2961    2.3119    1.8614 Re  0  0  0  0  0  0  0  0  0  0  0  0
    1.3477    4.5035    1.9904 Cl  0  0  0  0  0  0  0  0  0  0  0  0
    1.2962    2.3957   -0.1025 N   0  0  0  0  0  0  0  0  0  0  0  0
    3.6306    3.3697    0.6537 N   0  0  0  0  0  0  0  0  0  0  0  0
    4.7318    3.9714    0.9053 N   0  0  0  0  0  2  0  0  0  0  0  0
    4.9780    4.8126   -0.0814 N   0  0  0  0  0  0  0  0  0  0  0  0
    3.5335   -0.4693    1.3246 O   0  0  0  0  0  1  0  0  0  0  0  0
   -0.2046    1.3025    3.3657 O   0  0  0  0  0  1  0  0  0  0  0  0
    3.8498    2.9375    4.4554 O   0  0  0  0  0  1  0  0  0  0  0  0
    0.1242    1.8584   -0.4191 C   0  0  0  0  0  3  0  0  0  0  0  0
   -0.2907    1.1576    0.2934 H   0  0  0  0  0  0  0  0  0  0  0  0
   -0.5522    2.1630   -1.5878 C   0  0  0  0  0  0  0  0  0  0  0  0
   -1.5061    1.7042   -1.7916 H   0  0  0  0  0  0  0  0  0  0  0  0
    0.0130    3.0673   -2.4755 C   0  0  0  0  0  0  0  0  0  0  0  0
   -0.4923    3.3333   -3.3913 H   0  0  0  0  0  0  0  0  0  0  0  0
    1.2379    3.6248   -2.1611 C   0  0  0  0  0  0  0  0  0  0  0  0
    1.7175    4.3343   -2.8168 H   0  0  0  0  0  0  0  0  0  0  0  0
    1.8502    3.2681   -0.9637 C   0  0  0  0  0  0  0  0  0  0  0  0
    3.1201    3.8090   -0.5282 C   0  0  0  0  0  0  0  0  0  0  0  0
    4.0011    4.7579   -1.0081 C   0  0  0  0  0  0  0  0  0  0  0  0
    3.9954    5.3741   -1.8819 H   0  0  0  0  0  0  0  0  0  0  0  0
    6.0853    5.7274   -0.0079 C   0  0  0  0  0  0  0  0  0  0  0  0
    6.6106    5.7445   -0.9665 H   0  0  0  0  0  0  0  0  0  0  0  0
    6.7540    5.3416    0.7671 H   0  0  0  0  0  0  0  0  0  0  0  0
    5.5900    7.1082    0.3590 C   0  0  0  0  0  0  0  0  0  0  0  0
    4.7518    7.2653    1.4568 C   0  0  0  0  0  0  0  0  0  0  0  0
    4.4684    6.4063    2.0486 H   0  0  0  0  0  0  0  0  0  0  0  0
    4.2740    8.5193    1.7905 C   0  0  0  0  0  0  0  0  0  0  0  0
    3.6175    8.6310    2.6400 H   0  0  0  0  0  0  0  0  0  0  0  0
    4.6365    9.6239    1.0367 C   0  0  0  0  0  0  0  0  0  0  0  0
    4.2640   10.6030    1.2980 H   0  0  0  0  0  0  0  0  0  0  0  0
    5.4756    9.4715   -0.0540 C   0  0  0  0  0  0  0  0  0  0  0  0
    5.7616   10.3299   -0.6440 H   0  0  0  0  0  0  0  0  0  0  0  0
    5.9467    8.2154   -0.3967 C   0  0  0  0  0  0  0  0  0  0  0  0
    6.5990    8.0982   -1.2513 H   0  0  0  0  0  0  0  0  0  0  0  0
    3.0759    0.5614    1.5476 C   0  0  0  0  0  2  0  0  0  0  0  0
    0.7585    1.6176    2.8336 C   0  0  0  0  0  2  0  0  0  0  0  0
    3.2791    2.6301    3.5145 C   0  0  0  0  0  2  0  0  0  0  0  0
  1  2  1  0  0  0  0
  1 37  1  0  0  0  0
  1 38  1  0  0  0  0
  3  1  1  0  0  0  0
  4  5  1  0  0  0  0
  4  1  1  0  0  0  0
  6 22  1  0  0  0  0
  6  5  1  0  0  0  0
  7 36  1  0  0  0  0
 10  3  1  0  0  0  0
 10 11  1  0  0  0  0
 12 10  1  0  0  0  0
 13 12  1  0  0  0  0
 14 16  1  0  0  0  0
 14 12  2  0  0  0  0
 15 14  1  0  0  0  0
 16 18  2  0  0  0  0
 17 16  1  0  0  0  0
 18 19  1  0  0  0  0
 18  3  1  0  0  0  0
 19  4  1  0  0  0  0
 20 19  2  0  0  0  0
 20  6  1  0  0  0  0
 21 20  1  0  0  0  0
 22 25  1  0  0  0  0
 22 24  1  0  0  0  0
 23 22  1  0  0  0  0
 25 26  1  0  0  0  0
 26 28  2  0  0  0  0
 26 27  1  0  0  0  0
 28 29  1  0  0  0  0
 30 31  1  0  0  0  0
 30 28  1  0  0  0  0
 32 30  2  0  0  0  0
 33 32  1  0  0  0  0
 34 32  1  0  0  0  0
 34 25  2  0  0  0  0
 35 34  1  0  0  0  0
 36  1  1  0  0  0  0
 37  8  1  0  0  0  0
 38  9  1  0  0  0  0
M  END
$$$$
