CSD_code = EFOJIV | q = 0 | S = 0 | Stoichiometry = C10H6Cl4N2Pd | MND = 4
 OpenBabel04212202033D

 23 25  0  0  0  0  0  0  0  0999 V2000
    5.0074    3.1673    8.0813 Pd  0  0  0  0  0  0  0  0  0  0  0  0
    5.1608    1.1395    7.2214 Cl  0  0  0  0  0  0  0  0  0  0  0  0
    4.0717    3.8572    6.2041 Cl  0  0  0  0  0  0  0  0  0  0  0  0
    5.6795    2.6361    9.9386 N   0  0  0  0  0  0  0  0  0  0  0  0
    5.7127    1.3884   10.3980 C   0  0  0  0  0  0  0  0  0  0  0  0
    5.7420    0.6103    9.6427 H   0  0  0  0  0  0  0  0  0  0  0  0
    5.7006    1.1047   11.7530 C   0  0  0  0  0  0  0  0  0  0  0  0
    5.7570    0.0846   12.0955 H   0  0  0  0  0  0  0  0  0  0  0  0
    5.5497    2.1478   12.6527 C   0  0  0  0  0  0  0  0  0  0  0  0
    5.4413    1.9656   13.7099 H   0  0  0  0  0  0  0  0  0  0  0  0
    5.5062    3.4500   12.1700 C   0  0  0  0  0  0  0  0  0  0  0  0
    5.1125    4.7217   13.2604 Cl  0  0  0  0  0  0  0  0  0  0  0  0
    5.6663    3.6783   10.7977 C   0  0  0  0  0  0  0  0  0  0  0  0
    5.7165    4.9907   10.1418 C   0  0  0  0  0  0  0  0  0  0  0  0
    6.4043    6.1178   10.6084 C   0  0  0  0  0  0  0  0  0  0  0  0
    7.4926    6.0294   11.9383 Cl  0  0  0  0  0  0  0  0  0  0  0  0
    6.2991    7.3153    9.9117 C   0  0  0  0  0  0  0  0  0  0  0  0
    6.8145    8.1910   10.2725 H   0  0  0  0  0  0  0  0  0  0  0  0
    5.5546    7.3476    8.7432 C   0  0  0  0  0  0  0  0  0  0  0  0
    5.4373    8.2644    8.1891 H   0  0  0  0  0  0  0  0  0  0  0  0
    5.0160    6.1665    8.2622 C   0  0  0  0  0  0  0  0  0  0  0  0
    4.4972    6.1103    7.3112 H   0  0  0  0  0  0  0  0  0  0  0  0
    5.1108    5.0231    8.9351 N   0  0  0  0  0  0  0  0  0  0  0  0
  1 23  1  0  0  0  0
  1  4  1  0  0  0  0
  2  1  1  0  0  0  0
  3  1  1  0  0  0  0
  4  5  1  0  0  0  0
  4 13  1  0  0  0  0
  5  7  2  0  0  0  0
  6  5  1  0  0  0  0
  7  8  1  0  0  0  0
  7  9  1  0  0  0  0
  9 10  1  0  0  0  0
 11  9  2  0  0  0  0
 11 12  1  0  0  0  0
 13 11  1  0  0  0  0
 14 15  1  0  0  0  0
 14 13  2  0  0  0  0
 15 16  1  0  0  0  0
 17 18  1  0  0  0  0
 17 15  2  0  0  0  0
 19 17  1  0  0  0  0
 20 19  1  0  0  0  0
 21 19  2  0  0  0  0
 21 23  1  0  0  0  0
 22 21  1  0  0  0  0
 23 14  1  0  0  0  0
M  END
$$$$
