CSD_code = EFOPUK | q = 0 | S = 0 | Stoichiometry = C8H11CdCl2N5S | MND = 5
 OpenBabel04212202033D

 28 30  0  0  1  0  0  0  0  0999 V2000
    2.1122   -0.4521    3.5709 Cd  0  0  0  0  0  0  0  0  0  0  0  0
    2.4916   -1.9708    5.4491 Cl  0  0  0  0  0  0  0  0  0  0  0  0
    2.4046   -1.5256    1.5189 Cl  0  0  0  0  0  0  0  0  0  0  0  0
    3.1853    1.8359    4.6370 S   0  0  0  0  0  0  0  0  0  0  0  0
   -0.3818   -0.5099    3.2813 N   0  0  0  0  0  0  0  0  0  0  0  0
    0.7192    0.4983    5.5112 N   0  0  2  0  0  0  0  0  0  0  0  0
    1.6190    0.7542    6.4910 N   0  0  0  0  0  0  0  0  0  0  0  0
    1.5433    0.2518    7.3742 H   0  0  0  0  0  0  0  0  0  0  0  0
    3.6401    1.5453    7.2188 N   0  0  0  0  0  0  0  0  0  0  0  0
    3.4331    1.0935    8.0987 H   0  0  0  0  0  0  0  0  0  0  0  0
   -0.3857   -1.1940    6.7490 N   0  0  0  0  0  0  0  0  0  0  0  0
    0.4741   -1.4894    7.1992 H   0  0  0  0  0  0  0  0  0  0  0  0
   -0.9997   -1.9801    6.5927 H   0  0  0  0  0  0  0  0  0  0  0  0
   -1.0433   -0.7341    2.1586 C   0  0  0  0  0  3  0  0  0  0  0  0
   -0.4618   -0.6559    1.2489 H   0  0  0  0  0  0  0  0  0  0  0  0
   -2.3910   -1.0687    2.1378 C   0  0  0  0  0  0  0  0  0  0  0  0
   -2.8932   -1.2493    1.2010 H   0  0  0  0  0  0  0  0  0  0  0  0
   -3.0672   -1.1695    3.3429 C   0  0  0  0  0  0  0  0  0  0  0  0
   -4.1165   -1.4234    3.3680 H   0  0  0  0  0  0  0  0  0  0  0  0
   -2.3744   -0.9448    4.5220 C   0  0  0  0  0  0  0  0  0  0  0  0
   -2.8710   -1.0031    5.4786 H   0  0  0  0  0  0  0  0  0  0  0  0
   -1.0249   -0.6132    4.4464 C   0  0  0  0  0  0  0  0  0  0  0  0
   -0.1751   -0.4113    5.6382 C   0  0  2  0  0  3  0  0  0  0  0  0
    2.8090    1.3266    6.1878 C   0  0  2  0  0  3  0  0  0  0  0  0
    4.9841    2.0448    7.0625 C   0  0  0  0  0  0  0  0  0  0  0  0
    5.6897    1.2311    6.8755 H   0  0  0  0  0  0  0  0  0  0  0  0
    5.2739    2.5737    7.9681 H   0  0  0  0  0  0  0  0  0  0  0  0
    5.0064    2.7276    6.2160 H   0  0  0  0  0  0  0  0  0  0  0  0
  1  4  1  0  0  0  0
  1  2  1  0  0  0  0
  1  6  1  0  0  0  0
  3  1  1  0  0  0  0
  4 24  1  0  0  0  0
  5  1  1  0  0  0  0
  5 22  1  0  0  0  0
  6 23  1  0  0  0  0
  6  7  1  1  0  0  0
  7  8  1  0  0  0  0
  9 10  1  0  0  0  0
 11 12  1  0  0  0  0
 13 11  1  0  0  0  0
 14  5  1  0  0  0  0
 15 14  1  0  0  0  0
 16 14  1  0  0  0  0
 16 18  2  0  0  0  0
 17 16  1  0  0  0  0
 18 19  1  0  0  0  0
 18 20  1  0  0  0  0
 20 21  1  0  0  0  0
 22 20  2  0  0  0  0
 22 23  1  0  0  0  0
 23 11  1  6  0  0  0
 24  7  1  0  0  0  0
 24  9  1  1  0  0  0
 25  9  1  0  0  0  0
 25 27  1  0  0  0  0
 26 25  1  0  0  0  0
 28 25  1  0  0  0  0
M  END
$$$$
