CSD_code = EFOYIK | q = 0 | S = 0 | Stoichiometry = C8H18Cl3S3Ta | MND = 6
 OpenBabel04212202033D

 33 33  0  0  0  0  0  0  0  0999 V2000
    4.2408    2.1343   12.5951 Ta  0  0  0  0  0  0  0  0  0  0  0  0
    2.2220    2.8891   13.3470 Cl  0  0  0  0  0  0  0  0  0  0  0  0
    6.4067    2.6442   12.0768 Cl  0  0  0  0  0  0  0  0  0  0  0  0
    3.5702    1.6379   10.4916 Cl  0  0  0  0  0  0  0  0  0  0  0  0
    4.0048    5.0825   11.8582 S   0  0  2  0  0  3  0  0  0  0  0  0
    5.2012    3.4806   14.9447 S   0  0  2  0  0  3  0  0  0  0  0  0
    4.4255    0.1413   13.6197 S   0  0  0  0  0  1  0  0  0  0  0  0
    4.1756    4.5690   17.2880 C   0  0  0  0  0  0  0  0  0  0  0  0
    5.1066    4.2545   17.7532 H   0  0  0  0  0  0  0  0  0  0  0  0
    3.3901    4.5476   18.0401 H   0  0  0  0  0  0  0  0  0  0  0  0
    4.2812    5.5944   16.9426 H   0  0  0  0  0  0  0  0  0  0  0  0
    3.8088    3.6267   16.1560 C   0  0  0  0  0  0  0  0  0  0  0  0
    2.9442    3.9882   15.5970 H   0  0  0  0  0  0  0  0  0  0  0  0
    5.4175    4.9533    9.5703 C   0  0  0  0  0  0  0  0  0  0  0  0
    5.4099    3.8728    9.7013 H   0  0  0  0  0  0  0  0  0  0  0  0
    6.2829    5.2215    8.9685 H   0  0  0  0  0  0  0  0  0  0  0  0
    4.5153    5.2465    9.0375 H   0  0  0  0  0  0  0  0  0  0  0  0
    5.4888    5.6528   10.9184 C   0  0  0  0  0  0  0  0  0  0  0  0
    6.3642    5.3026   11.4684 H   0  0  0  0  0  0  0  0  0  0  0  0
    3.5473    2.2144   16.6516 C   0  0  0  0  0  0  0  0  0  0  0  0
    3.3163    1.5517   15.8187 H   0  0  0  0  0  0  0  0  0  0  0  0
    2.7034    2.2162   17.3369 H   0  0  0  0  0  0  0  0  0  0  0  0
    4.4205    1.8258   17.1701 H   0  0  0  0  0  0  0  0  0  0  0  0
    5.4993    7.1641   10.7742 C   0  0  0  0  0  0  0  0  0  0  0  0
    4.5764    7.5057   10.3111 H   0  0  0  0  0  0  0  0  0  0  0  0
    6.3337    7.4606   10.1418 H   0  0  0  0  0  0  0  0  0  0  0  0
    5.6150    7.6602   11.7353 H   0  0  0  0  0  0  0  0  0  0  0  0
    5.4268    5.1819   14.3067 C   0  0  0  0  0  0  0  0  0  0  0  0
    5.6629    5.8123   15.1640 H   0  0  0  0  0  0  0  0  0  0  0  0
    6.3171    5.0978   13.6826 H   0  0  0  0  0  0  0  0  0  0  0  0
    4.2620    5.7687   13.5316 C   0  0  0  0  0  0  0  0  0  0  0  0
    4.3961    6.8453   13.4254 H   0  0  0  0  0  0  0  0  0  0  0  0
    3.3142    5.5854   14.0377 H   0  0  0  0  0  0  0  0  0  0  0  0
  1  2  1  0  0  0  0
  1  7  1  0  0  0  0
  1  6  1  0  0  0  0
  3  1  1  0  0  0  0
  4  1  1  0  0  0  0
  5 18  1  6  0  0  0
  5  1  1  0  0  0  0
  5 31  1  0  0  0  0
  6 12  1  1  0  0  0
  8  9  1  0  0  0  0
  8 10  1  0  0  0  0
 11  8  1  0  0  0  0
 12 20  1  0  0  0  0
 12  8  1  0  0  0  0
 13 12  1  0  0  0  0
 14 15  1  0  0  0  0
 14 18  1  0  0  0  0
 16 14  1  0  0  0  0
 17 14  1  0  0  0  0
 18 19  1  0  0  0  0
 20 23  1  0  0  0  0
 20 22  1  0  0  0  0
 21 20  1  0  0  0  0
 24 18  1  0  0  0  0
 24 27  1  0  0  0  0
 25 24  1  0  0  0  0
 26 24  1  0  0  0  0
 28  6  1  0  0  0  0
 28 29  1  0  0  0  0
 30 28  1  0  0  0  0
 31 33  1  0  0  0  0
 31 28  1  0  0  0  0
 32 31  1  0  0  0  0
M  END
$$$$
