CSD_code = EFOYAC | q = 0 | S = 0 | Stoichiometry = C4H10Cl3SSe2Ta | MND = 6
 OpenBabel04212202033D

 21 19  0  0  0  0  0  0  0  0999 V2000
    2.1906    4.5028    5.5093 Ta  0  0  0  0  0  0  0  0  0  0  0  0
    4.3202    6.6212    5.1452 Se  0  0  0  0  0  0  0  0  0  0  0  0
    3.7704    3.2693    3.5928 Se  0  0  0  0  0  0  0  0  0  0  0  0
    1.5698    5.9466    3.8178 Cl  0  0  0  0  0  0  0  0  0  0  0  0
    1.3749    5.7535    7.1875 Cl  0  0  0  0  0  0  0  0  0  0  0  0
    3.8997    3.5849    6.7510 Cl  0  0  0  0  0  0  0  0  0  0  0  0
    0.7822    2.7841    5.1690 S   0  0  0  0  0  1  0  0  0  0  0  0
    5.3162    4.4882    3.3771 C   0  0  0  0  0  0  0  0  0  0  0  0
    5.9911    4.2277    4.1957 H   0  0  0  0  0  0  0  0  0  0  0  0
    5.7948    4.2233    2.4289 H   0  0  0  0  0  0  0  0  0  0  0  0
    4.9661    5.9642    3.4001 C   0  0  0  0  0  0  0  0  0  0  0  0
    4.1667    6.2006    2.6960 H   0  0  0  0  0  0  0  0  0  0  0  0
    5.8478    6.5609    3.1504 H   0  0  0  0  0  0  0  0  0  0  0  0
    5.9628    6.3234    6.1662 C   0  0  0  0  0  0  0  0  0  0  0  0
    5.8777    6.9172    7.0729 H   0  0  0  0  0  0  0  0  0  0  0  0
    6.8246    6.6515    5.5904 H   0  0  0  0  0  0  0  0  0  0  0  0
    6.0374    5.2718    6.4308 H   0  0  0  0  0  0  0  0  0  0  0  0
    2.9456    3.5288    1.8455 C   0  0  0  0  0  0  0  0  0  0  0  0
    2.1394    2.8000    1.7879 H   0  0  0  0  0  0  0  0  0  0  0  0
    3.6726    3.3465    1.0564 H   0  0  0  0  0  0  0  0  0  0  0  0
    2.5299    4.5320    1.7869 H   0  0  0  0  0  0  0  0  0  0  0  0
  1  6  1  0  0  0  0
  1  5  1  0  0  0  0
  2 14  1  0  0  0  0
  4  1  1  0  0  0  0
  7  1  1  0  0  0  0
  8 11  1  0  0  0  0
  8  3  1  0  0  0  0
  8  9  1  0  0  0  0
 10  8  1  0  0  0  0
 11  2  1  0  0  0  0
 12 11  1  0  0  0  0
 13 11  1  0  0  0  0
 14 17  1  0  0  0  0
 14 15  1  0  0  0  0
 16 14  1  0  0  0  0
 18  3  1  0  0  0  0
 19 18  1  0  0  0  0
 20 18  1  0  0  0  0
 21 18  1  0  0  0  0
M  END
$$$$
