CSD_code = EFUHAQ | q = 0 | S = 0 | Stoichiometry = C19H15AuIOP | MND = 2
 OpenBabel04212202033D

 38 40  0  0  0  0  0  0  0  0999 V2000
    8.4706   11.7260   10.9664 Au  0  0  0  0  0  0  0  0  0  0  0  0
    5.9866   12.2376   11.2301 I   0  0  0  0  0  0  0  0  0  0  0  0
   10.6312   11.1619   10.5068 P   0  0  0  0  0  4  0  0  0  0  0  0
   10.4097   12.4444   12.4615 O   0  0  0  0  0  0  0  0  0  0  0  0
   11.8043   12.4976   10.1712 C   0  0  0  0  0  0  0  0  0  0  0  0
   11.8804   13.5735   11.0811 C   0  0  0  0  0  0  0  0  0  0  0  0
   12.7038   14.6696   10.8139 C   0  0  0  0  0  0  0  0  0  0  0  0
   13.4611   14.6926    9.6636 C   0  0  0  0  0  0  0  0  0  0  0  0
   13.3840   13.6369    8.7591 C   0  0  0  0  0  0  0  0  0  0  0  0
   12.5533   12.5590    8.9982 C   0  0  0  0  0  0  0  0  0  0  0  0
   11.0101   13.4895   12.2235 C   0  0  0  0  0  0  0  0  0  0  0  0
   10.7253   10.1911    8.9601 C   0  0  0  0  0  0  0  0  0  0  0  0
    9.9243   10.6329    7.9094 C   0  0  0  0  0  0  0  0  0  0  0  0
    9.9002    9.9469    6.7107 C   0  0  0  0  0  0  0  0  0  0  0  0
   10.6661    8.8013    6.5595 C   0  0  0  0  0  0  0  0  0  0  0  0
   11.4547    8.3490    7.6047 C   0  0  0  0  0  0  0  0  0  0  0  0
   11.4871    9.0387    8.8041 C   0  0  0  0  0  0  0  0  0  0  0  0
   11.4453   10.0605   11.6933 C   0  0  0  0  0  0  0  0  0  0  0  0
   10.6721    9.0525   12.2581 C   0  0  0  0  0  0  0  0  0  0  0  0
   11.2362    8.1790   13.1688 C   0  0  0  0  0  0  0  0  0  0  0  0
   12.5703    8.3132   13.5191 C   0  0  0  0  0  0  0  0  0  0  0  0
   13.3399    9.3194   12.9581 C   0  0  0  0  0  0  0  0  0  0  0  0
   12.7827   10.1968   12.0450 C   0  0  0  0  0  0  0  0  0  0  0  0
   12.7418   15.4849   11.5212 H   0  0  0  0  0  0  0  0  0  0  0  0
   14.1093   15.5304    9.4565 H   0  0  0  0  0  0  0  0  0  0  0  0
   13.9778   13.6606    7.8575 H   0  0  0  0  0  0  0  0  0  0  0  0
   12.4947   11.7539    8.2795 H   0  0  0  0  0  0  0  0  0  0  0  0
   10.8354   14.3919   12.8215 H   0  0  0  0  0  0  0  0  0  0  0  0
    9.3205   11.5232    8.0466 H   0  0  0  0  0  0  0  0  0  0  0  0
    9.2794   10.2970    5.8996 H   0  0  0  0  0  0  0  0  0  0  0  0
   10.6425    8.2567    5.6275 H   0  0  0  0  0  0  0  0  0  0  0  0
   12.0463    7.4529    7.4870 H   0  0  0  0  0  0  0  0  0  0  0  0
   12.1029    8.6839    9.6193 H   0  0  0  0  0  0  0  0  0  0  0  0
    9.6294    8.9636   11.9811 H   0  0  0  0  0  0  0  0  0  0  0  0
   10.6353    7.3975   13.6096 H   0  0  0  0  0  0  0  0  0  0  0  0
   13.0109    7.6339   14.2335 H   0  0  0  0  0  0  0  0  0  0  0  0
   14.3793    9.4231   13.2336 H   0  0  0  0  0  0  0  0  0  0  0  0
   13.3827   10.9831   11.6063 H   0  0  0  0  0  0  0  0  0  0  0  0
  1  2  1  0  0  0  0
  3  1  1  0  0  0  0
  3 18  1  0  0  0  0
  5  3  1  0  0  0  0
  5  6  1  0  0  0  0
  6 11  1  0  0  0  0
  7  6  2  0  0  0  0
  7 24  1  0  0  0  0
  8  7  1  0  0  0  0
  9 10  1  0  0  0  0
  9  8  2  0  0  0  0
 10  5  2  0  0  0  0
 11  4  2  0  0  0  0
 11 28  1  0  0  0  0
 12  3  1  0  0  0  0
 13 29  1  0  0  0  0
 13 12  2  0  0  0  0
 14 13  1  0  0  0  0
 15 14  2  0  0  0  0
 15 16  1  0  0  0  0
 16 17  2  0  0  0  0
 17 12  1  0  0  0  0
 17 33  1  0  0  0  0
 18 23  2  0  0  0  0
 18 19  1  0  0  0  0
 19 20  2  0  0  0  0
 20 21  1  0  0  0  0
 20 35  1  0  0  0  0
 21 36  1  0  0  0  0
 22 37  1  0  0  0  0
 22 21  2  0  0  0  0
 23 22  1  0  0  0  0
 25  8  1  0  0  0  0
 26  9  1  0  0  0  0
 27 10  1  0  0  0  0
 30 14  1  0  0  0  0
 31 15  1  0  0  0  0
 32 16  1  0  0  0  0
 34 19  1  0  0  0  0
 38 23  1  0  0  0  0
M  END
$$$$
