CSD_code = EFUKEX | q = 0 | S = 0 | Stoichiometry = C20H28Cl2HgN8S2 | MND = 4
 OpenBabel04212202033D

 61 61  0  0  0  0  0  0  0  0999 V2000
    2.2798   21.3176    7.7416 Hg  0  0  0  0  0  0  0  0  0  0  0  0
    2.3447   23.7709    8.0615 Cl  0  0  0  0  0  0  0  0  0  0  0  0
    1.2288   20.5343    5.8954 Cl  0  0  0  0  0  0  0  0  0  0  0  0
    5.0018   20.7597    8.2520 S   0  0  0  0  0  0  0  0  0  0  0  0
    7.0446   21.9071    9.4102 N   0  0  0  0  0  0  0  0  0  0  0  0
    7.5701   22.7306    9.6616 H   0  0  0  0  0  0  0  0  0  0  0  0
    7.4653   20.9961    9.3768 H   0  0  0  0  0  0  0  0  0  0  0  0
    5.8446   22.0928    8.8453 C   0  0  0  0  0  0  0  0  0  0  0  0
    5.3862   23.3451    8.7807 N   0  0  0  0  0  0  0  0  0  0  0  0
    4.4470   23.5445    8.3977 H   0  0  0  0  0  0  0  0  0  0  0  0
    6.1512   24.3572    9.2590 N   0  0  0  0  0  0  0  0  0  0  0  0
    5.7155   25.5521    9.1218 C   0  0  0  0  0  0  0  0  0  0  0  0
    4.7632   25.7480    8.6221 H   0  0  0  0  0  0  0  0  0  0  0  0
    6.4456   26.6852    9.6173 C   0  0  0  0  0  0  0  0  0  0  0  0
    5.9905   27.9820    9.3654 C   0  0  0  0  0  0  0  0  0  0  0  0
    5.0941   28.1237    8.7791 H   0  0  0  0  0  0  0  0  0  0  0  0
    6.6636   29.0812    9.8416 C   0  0  0  0  0  0  0  0  0  0  0  0
    6.2730   30.0594    9.6150 H   0  0  0  0  0  0  0  0  0  0  0  0
    7.8309   28.9426   10.6114 C   0  0  0  0  0  0  0  0  0  0  0  0
    8.2887   27.6361   10.8554 C   0  0  0  0  0  0  0  0  0  0  0  0
    9.1881   27.4715   11.4251 H   0  0  0  0  0  0  0  0  0  0  0  0
    7.6149   26.5430   10.3707 C   0  0  0  0  0  0  0  0  0  0  0  0
    7.9801   25.5488   10.5727 H   0  0  0  0  0  0  0  0  0  0  0  0
    8.4713   30.0380   11.1309 N   0  0  0  0  0  0  0  0  0  0  0  0
    8.1433   31.3579   10.6422 C   0  0  0  0  0  0  0  0  0  0  0  0
    8.2471   31.4278    9.5544 H   0  0  0  0  0  0  0  0  0  0  0  0
    8.8092   32.0880   11.0956 H   0  0  0  0  0  0  0  0  0  0  0  0
    7.1186   31.6264   10.9110 H   0  0  0  0  0  0  0  0  0  0  0  0
    9.7222   29.8789   11.8330 C   0  0  0  0  0  0  0  0  0  0  0  0
    9.6031   29.1695   12.6524 H   0  0  0  0  0  0  0  0  0  0  0  0
   10.0192   30.8353   12.2584 H   0  0  0  0  0  0  0  0  0  0  0  0
   10.5264   29.5282   11.1756 H   0  0  0  0  0  0  0  0  0  0  0  0
    1.7919   20.4410   10.2854 S   0  0  0  0  0  0  0  0  0  0  0  0
    3.4516   20.8674   12.2746 N   0  0  0  0  0  4  0  0  0  0  0  0
    4.0476   21.4667   12.8244 H   0  0  0  0  0  0  0  0  0  0  0  0
    3.3524   19.8874   12.4688 H   0  0  0  0  0  0  0  0  0  0  0  0
    2.8336   21.3949   11.2155 C   0  0  0  0  0  0  0  0  0  0  0  0
    3.0161   22.6941   10.9714 N   0  0  0  0  0  0  0  0  0  0  0  0
    2.5361   23.1443   10.1773 H   0  0  0  0  0  0  0  0  0  0  0  0
    3.8670   23.4281   11.7334 N   0  0  0  0  0  0  0  0  0  0  0  0
    3.8760   24.6935   11.5391 C   0  0  0  0  0  0  0  0  0  0  0  0
    3.2024   25.1465   10.8059 H   0  0  0  0  0  0  0  0  0  0  0  0
    4.7490   25.5807   12.2525 C   0  0  0  0  0  0  0  0  0  0  0  0
    4.5746   26.9642   12.1516 C   0  0  0  0  0  0  0  0  0  0  0  0
    3.7673   27.3523   11.5480 H   0  0  0  0  0  0  0  0  0  0  0  0
    5.3962   27.8399   12.8173 C   0  0  0  0  0  0  0  0  0  0  0  0
    5.2118   28.8955   12.7123 H   0  0  0  0  0  0  0  0  0  0  0  0
    6.4642   27.3783   13.6052 C   0  0  0  0  0  0  0  0  0  0  0  0
    6.6371   25.9857   13.7024 C   0  0  0  0  0  0  0  0  0  0  0  0
    7.4337   25.5767   14.3017 H   0  0  0  0  0  0  0  0  0  0  0  0
    5.7998   25.1158   13.0488 C   0  0  0  0  0  0  0  0  0  0  0  0
    5.9497   24.0509   13.1348 H   0  0  0  0  0  0  0  0  0  0  0  0
    7.3133   28.2508   14.2292 N   0  0  0  0  0  0  0  0  0  0  0  0
    6.9850   29.6559   14.2886 C   0  0  0  0  0  0  0  0  0  0  0  0
    6.0133   29.8251   14.7647 H   0  0  0  0  0  0  0  0  0  0  0  0
    6.9646   30.0846   13.2850 H   0  0  0  0  0  0  0  0  0  0  0  0
    7.7422   30.1815   14.8653 H   0  0  0  0  0  0  0  0  0  0  0  0
    8.3400   27.7577   15.1148 C   0  0  0  0  0  0  0  0  0  0  0  0
    8.9943   27.0594   14.5884 H   0  0  0  0  0  0  0  0  0  0  0  0
    7.9213   27.2494   15.9910 H   0  0  0  0  0  0  0  0  0  0  0  0
    8.9488   28.5894   15.4629 H   0  0  0  0  0  0  0  0  0  0  0  0
  1  2  1  0  0  0  0
  1 33  1  0  0  0  0
  3  1  1  0  0  0  0
  4  8  2  0  0  0  0
  5  6  1  0  0  0  0
  7  5  1  0  0  0  0
  8  5  1  0  0  0  0
  9  8  1  0  0  0  0
  9 11  1  0  0  0  0
 10  9  1  0  0  0  0
 12 11  2  0  0  0  0
 12 14  1  0  0  0  0
 13 12  1  0  0  0  0
 14 22  1  0  0  0  0
 15 14  2  0  0  0  0
 15 17  1  0  0  0  0
 16 15  1  0  0  0  0
 17 19  2  0  0  0  0
 18 17  1  0  0  0  0
 19 20  1  0  0  0  0
 19 24  1  0  0  0  0
 20 21  1  0  0  0  0
 22 23  1  0  0  0  0
 22 20  2  0  0  0  0
 24 29  1  0  0  0  0
 25 28  1  0  0  0  0
 25 27  1  0  0  0  0
 25 24  1  0  0  0  0
 26 25  1  0  0  0  0
 29 31  1  0  0  0  0
 29 30  1  0  0  0  0
 32 29  1  0  0  0  0
 33 37  1  0  0  0  0
 34 36  1  0  0  0  0
 34 35  1  0  0  0  0
 37 34  2  0  0  0  0
 38 37  1  0  0  0  0
 38 40  1  0  0  0  0
 39 38  1  0  0  0  0
 41 40  2  0  0  0  0
 41 43  1  0  0  0  0
 42 41  1  0  0  0  0
 43 51  1  0  0  0  0
 44 43  2  0  0  0  0
 44 46  1  0  0  0  0
 45 44  1  0  0  0  0
 46 48  2  0  0  0  0
 47 46  1  0  0  0  0
 48 49  1  0  0  0  0
 48 53  1  0  0  0  0
 49 50  1  0  0  0  0
 51 52  1  0  0  0  0
 51 49  2  0  0  0  0
 53 54  1  0  0  0  0
 53 58  1  0  0  0  0
 54 55  1  0  0  0  0
 54 57  1  0  0  0  0
 56 54  1  0  0  0  0
 58 61  1  0  0  0  0
 58 60  1  0  0  0  0
 59 58  1  0  0  0  0
M  END
$$$$
