CSD_code = EFULOG | q = 0 | S = 0 | Stoichiometry = C19H15BrNS4V | MND = 6
 OpenBabel04212202033D

 41 47  0  0  1  0  0  0  0  0999 V2000
    3.0168   10.7529    2.2583 Br  0  0  0  0  0  0  0  0  0  0  0  0
    3.8437   11.4362    4.2375 V   0  0  0  0  0  0  0  0  0  0  0  0
    2.4210   13.2354    4.6575 S   0  0  0  0  0  0  0  0  0  0  0  0
    2.4271   10.1534    5.5729 S   0  0  2  0  0  3  0  0  0  0  0  0
    5.4640   12.8868    3.3944 S   0  0  1  0  0  3  0  0  0  0  0  0
    5.5539    9.8731    4.5078 S   0  0  0  0  0  0  0  0  0  0  0  0
    4.5918   12.0515    6.0544 N   0  0  0  0  0  0  0  0  0  0  0  0
    1.2145   12.6291    5.7378 C   0  0  0  0  0  0  0  0  0  0  0  0
    0.2121   13.4865    6.2036 C   0  0  0  0  0  0  0  0  0  0  0  0
    0.2090   14.5088    5.8569 H   0  0  0  0  0  0  0  0  0  0  0  0
   -0.7529   13.0293    7.0743 C   0  0  0  0  0  0  0  0  0  0  0  0
   -1.5224   13.7040    7.4187 H   0  0  0  0  0  0  0  0  0  0  0  0
   -0.7468   11.7090    7.5078 C   0  0  0  0  0  0  0  0  0  0  0  0
   -1.5061   11.3537    8.1870 H   0  0  0  0  0  0  0  0  0  0  0  0
    0.2314   10.8461    7.0502 C   0  0  0  0  0  0  0  0  0  0  0  0
    0.2426    9.8097    7.3556 H   0  0  0  0  0  0  0  0  0  0  0  0
    1.2079   11.3068    6.1823 C   0  0  0  0  0  0  0  0  0  0  0  0
    3.5236   10.1052    7.0251 C   0  0  0  0  0  0  0  0  0  0  0  0
    2.9284    9.9007    7.9163 H   0  0  0  0  0  0  0  0  0  0  0  0
    4.2019    9.2678    6.8311 H   0  0  0  0  0  0  0  0  0  0  0  0
    4.3173   11.3650    7.1630 C   0  0  1  0  0  3  0  0  0  0  0  0
    4.7936   11.7570    8.4078 C   0  0  0  0  0  0  0  0  0  0  0  0
    4.5417   11.1814    9.2844 H   0  0  0  0  0  0  0  0  0  0  0  0
    5.6020   12.8773    8.4969 C   0  0  0  0  0  0  0  0  0  0  0  0
    5.9955   13.1989    9.4484 H   0  0  0  0  0  0  0  0  0  0  0  0
    5.8942   13.5756    7.3378 C   0  0  0  0  0  0  0  0  0  0  0  0
    6.5181   14.4550    7.3605 H   0  0  0  0  0  0  0  0  0  0  0  0
    5.3573   13.1395    6.1329 C   0  0  0  0  0  0  0  0  0  0  0  0
    5.5773   13.9296    4.8824 C   0  0  0  0  0  0  0  0  0  0  0  0
    6.5419   14.4394    4.8891 H   0  0  0  0  0  0  0  0  0  0  0  0
    4.7712   14.6620    4.7687 H   0  0  0  0  0  0  0  0  0  0  0  0
    7.0038   11.9981    3.5608 C   0  0  0  0  0  0  0  0  0  0  0  0
    8.1787   12.6230    3.1755 C   0  0  0  0  0  0  0  0  0  0  0  0
    8.1406   13.6377    2.8058 H   0  0  0  0  0  0  0  0  0  0  0  0
    9.3800   11.9443    3.2593 C   0  0  0  0  0  0  0  0  0  0  0  0
   10.2969   12.4299    2.9635 H   0  0  0  0  0  0  0  0  0  0  0  0
    9.3943   10.6303    3.7115 C   0  0  0  0  0  0  0  0  0  0  0  0
   10.3285   10.0915    3.7670 H   0  0  0  0  0  0  0  0  0  0  0  0
    8.2255   10.0045    4.0865 C   0  0  0  0  0  0  0  0  0  0  0  0
    8.2282    8.9817    4.4318 H   0  0  0  0  0  0  0  0  0  0  0  0
    7.0022   10.6794    4.0161 C   0  0  0  0  0  0  0  0  0  0  0  0
  1  2  1  0  0  0  0
  2  6  1  0  0  0  0
  2  3  1  0  0  0  0
  2  4  1  0  0  0  0
  2  7  1  0  0  0  0
  3  8  1  0  0  0  0
  4 17  1  1  0  0  0
  4 18  1  0  0  0  0
  5 32  1  1  0  0  0
  5  2  1  0  0  0  0
  5 29  1  0  0  0  0
  7 28  1  0  0  0  0
  7 21  1  0  0  0  0
  8 17  2  0  0  0  0
  8  9  1  0  0  0  0
  9 11  2  0  0  0  0
 10  9  1  0  0  0  0
 11 12  1  0  0  0  0
 11 13  1  0  0  0  0
 13 14  1  0  0  0  0
 15 16  1  0  0  0  0
 15 13  2  0  0  0  0
 17 15  1  0  0  0  0
 18 21  1  0  0  0  0
 18 19  1  0  0  0  0
 20 18  1  0  0  0  0
 21 22  1  6  0  0  0
 22 24  2  0  0  0  0
 22 23  1  0  0  0  0
 24 25  1  0  0  0  0
 26 27  1  0  0  0  0
 26 24  1  0  0  0  0
 28 26  2  0  0  0  0
 29 30  1  0  0  0  0
 29 28  1  0  0  0  0
 31 29  1  0  0  0  0
 32 41  1  0  0  0  0
 33 35  1  0  0  0  0
 33 32  2  0  0  0  0
 34 33  1  0  0  0  0
 35 37  2  0  0  0  0
 36 35  1  0  0  0  0
 37 38  1  0  0  0  0
 37 39  1  0  0  0  0
 39 40  1  0  0  0  0
 41 39  2  0  0  0  0
 41  6  1  0  0  0  0
M  END
$$$$
