CSD_code = EFUQOO | q = 0 | S = 0 | Stoichiometry = C5H14Cl2N2Pt | MND = 4
 OpenBabel04212202033D

 24 24  0  0  0  0  0  0  0  0999 V2000
   -2.8741    5.9342   -0.1289 Pt  0  0  0  0  0  0  0  0  0  0  0  0
   -4.9569    5.7550   -0.9511 Cl  0  0  0  0  0  0  0  0  0  0  0  0
   -2.0285    6.9718   -1.9331 Cl  0  0  0  0  0  0  0  0  0  0  0  0
   -3.6522    4.9620    1.5795 N   0  0  0  0  0  4  0  0  0  0  0  0
   -4.1770    5.6742    2.0866 H   0  0  0  0  0  0  0  0  0  0  0  0
   -4.3450    4.3302    1.1725 H   0  0  0  0  0  0  0  0  0  0  0  0
   -0.9192    6.0920    0.6652 N   0  0  0  0  0  4  0  0  0  0  0  0
   -0.8232    7.0649    0.9555 H   0  0  0  0  0  0  0  0  0  0  0  0
   -0.3370    5.9828   -0.1678 H   0  0  0  0  0  0  0  0  0  0  0  0
   -2.7449    4.2486    2.4768 C   0  0  0  0  0  0  0  0  0  0  0  0
   -2.4089    3.3404    1.9697 H   0  0  0  0  0  0  0  0  0  0  0  0
   -3.2767    3.9455    3.3885 H   0  0  0  0  0  0  0  0  0  0  0  0
   -1.5041    5.0676    2.8951 C   0  0  0  0  0  0  0  0  0  0  0  0
   -0.4942    5.1877    1.7327 C   0  0  0  0  0  0  0  0  0  0  0  0
    0.4658    5.5205    2.1491 H   0  0  0  0  0  0  0  0  0  0  0  0
   -0.3427    4.1957    1.2993 H   0  0  0  0  0  0  0  0  0  0  0  0
   -0.8104    4.3007    4.0271 C   0  0  0  0  0  0  0  0  0  0  0  0
   -1.4762    4.1908    4.8791 H   0  0  0  0  0  0  0  0  0  0  0  0
    0.0778    4.8309    4.3607 H   0  0  0  0  0  0  0  0  0  0  0  0
   -0.5129    3.3090    3.6948 H   0  0  0  0  0  0  0  0  0  0  0  0
   -1.9150    6.4530    3.3995 C   0  0  0  0  0  0  0  0  0  0  0  0
   -2.4077    7.0339    2.6213 H   0  0  0  0  0  0  0  0  0  0  0  0
   -1.0398    7.0035    3.7370 H   0  0  0  0  0  0  0  0  0  0  0  0
   -2.5971    6.3581    4.2414 H   0  0  0  0  0  0  0  0  0  0  0  0
  1  7  1  0  0  0  0
  1  4  1  0  0  0  0
  2  1  1  0  0  0  0
  3  1  1  0  0  0  0
  4  5  1  0  0  0  0
  4 10  1  0  0  0  0
  6  4  1  0  0  0  0
  7  8  1  0  0  0  0
  7 14  1  0  0  0  0
  9  7  1  0  0  0  0
 10 13  1  0  0  0  0
 10 12  1  0  0  0  0
 11 10  1  0  0  0  0
 13 21  1  0  0  0  0
 13 17  1  0  0  0  0
 14 15  1  0  0  0  0
 14 13  1  0  0  0  0
 16 14  1  0  0  0  0
 17 19  1  0  0  0  0
 17 18  1  0  0  0  0
 20 17  1  0  0  0  0
 21 23  1  0  0  0  0
 21 24  1  0  0  0  0
 22 21  1  0  0  0  0
M  END
$$$$
