CSD_code = EGACAT | q = 0 | S = 0 | Stoichiometry = C23H29IN2PtS | MND = 4
 OpenBabel04212202033D

 57 60  0  0  0  0  0  0  0  0999 V2000
    5.1754    5.2723    5.1308 Pt  0  0  1  0  0  0  0  0  0  0  0  0
    6.0569    2.8694    4.7726 I   0  0  0  0  0  0  0  0  0  0  0  0
    6.0190    6.0920    2.8056 S   0  0  0  0  0  3  0  0  0  0  0  0
    3.3019    7.5550    4.6818 N   0  0  0  0  0  0  0  0  0  0  0  0
    4.2951    7.7118    6.5900 N   0  0  0  0  0  0  0  0  0  0  0  0
    4.2760    7.0110    5.4363 C   0  0  0  0  0  0  0  0  0  0  0  0
    3.3312    8.6863    6.5578 C   0  0  0  0  0  0  0  0  0  0  0  0
    3.1332    9.3339    7.3850 H   0  0  0  0  0  0  0  0  0  0  0  0
    2.7094    8.5903    5.3599 C   0  0  0  0  0  0  0  0  0  0  0  0
    1.8970    9.1532    4.9481 H   0  0  0  0  0  0  0  0  0  0  0  0
    5.1895    7.4075    7.6415 C   0  0  0  0  0  0  0  0  0  0  0  0
    5.4223    6.0411    7.8894 C   0  0  0  0  0  0  0  0  0  0  0  0
    4.6892    5.0034    7.1302 C   0  0  0  0  0  0  0  0  0  0  0  0
    3.6014    5.1350    7.2346 H   0  0  0  0  0  0  0  0  0  0  0  0
    4.9586    4.0058    7.4858 H   0  0  0  0  0  0  0  0  0  0  0  0
    6.3506    5.7006    8.8673 C   0  0  0  0  0  0  0  0  0  0  0  0
    6.5426    4.6556    9.0614 H   0  0  0  0  0  0  0  0  0  0  0  0
    7.0317    6.6680    9.5896 C   0  0  0  0  0  0  0  0  0  0  0  0
    8.0055    6.2773   10.6588 C   0  0  0  0  0  0  0  0  0  0  0  0
    7.4909    6.1960   11.6169 H   0  0  0  0  0  0  0  0  0  0  0  0
    8.7914    7.0222   10.7610 H   0  0  0  0  0  0  0  0  0  0  0  0
    8.4565    5.3135   10.4364 H   0  0  0  0  0  0  0  0  0  0  0  0
    6.7858    8.0047    9.3125 C   0  0  0  0  0  0  0  0  0  0  0  0
    7.3258    8.7668    9.8562 H   0  0  0  0  0  0  0  0  0  0  0  0
    5.8830    8.3976    8.3316 C   0  0  0  0  0  0  0  0  0  0  0  0
    5.7234    9.8612    8.0350 C   0  0  0  0  0  0  0  0  0  0  0  0
    5.5156   10.0363    6.9811 H   0  0  0  0  0  0  0  0  0  0  0  0
    6.6364   10.3907    8.2982 H   0  0  0  0  0  0  0  0  0  0  0  0
    4.9126   10.2918    8.6239 H   0  0  0  0  0  0  0  0  0  0  0  0
    2.9684    7.1622    3.3583 C   0  0  0  0  0  0  0  0  0  0  0  0
    3.2927    8.0172    2.3038 C   0  0  0  0  0  0  0  0  0  0  0  0
    4.0344    9.2949    2.5566 C   0  0  0  0  0  0  0  0  0  0  0  0
    3.3965   10.0305    3.0461 H   0  0  0  0  0  0  0  0  0  0  0  0
    4.3863    9.7192    1.6204 H   0  0  0  0  0  0  0  0  0  0  0  0
    4.8942    9.1103    3.1995 H   0  0  0  0  0  0  0  0  0  0  0  0
    2.9442    7.6438    1.0152 C   0  0  0  0  0  0  0  0  0  0  0  0
    3.1949    8.2987    0.1933 H   0  0  0  0  0  0  0  0  0  0  0  0
    2.2938    6.4451    0.7592 C   0  0  0  0  0  0  0  0  0  0  0  0
    1.9083    6.0610   -0.6363 C   0  0  0  0  0  0  0  0  0  0  0  0
    0.8557    6.2888   -0.8062 H   0  0  0  0  0  0  0  0  0  0  0  0
    2.0479    4.9941   -0.7970 H   0  0  0  0  0  0  0  0  0  0  0  0
    2.4962    6.6092   -1.3682 H   0  0  0  0  0  0  0  0  0  0  0  0
    2.0014    5.6052    1.8248 C   0  0  0  0  0  0  0  0  0  0  0  0
    1.5112    4.6610    1.6356 H   0  0  0  0  0  0  0  0  0  0  0  0
    2.3297    5.9410    3.1304 C   0  0  0  0  0  0  0  0  0  0  0  0
    2.0382    4.9980    4.2538 C   0  0  0  0  0  0  0  0  0  0  0  0
    2.9853    4.5632    4.6226 H   0  0  0  0  0  0  0  0  0  0  0  0
    1.4000    4.1846    3.9212 H   0  0  0  0  0  0  0  0  0  0  0  0
    1.5592    5.5097    5.0875 H   0  0  0  0  0  0  0  0  0  0  0  0
    5.6566    4.8504    1.5373 C   0  0  0  0  0  0  0  0  0  0  0  0
    5.8887    3.8573    1.9135 H   0  0  0  0  0  0  0  0  0  0  0  0
    6.2479    5.0772    0.6541 H   0  0  0  0  0  0  0  0  0  0  0  0
    4.5979    4.9296    1.3105 H   0  0  0  0  0  0  0  0  0  0  0  0
    7.7915    5.7700    3.0308 C   0  0  0  0  0  0  0  0  0  0  0  0
    8.1226    6.3616    3.8803 H   0  0  0  0  0  0  0  0  0  0  0  0
    8.3200    6.0785    2.1318 H   0  0  0  0  0  0  0  0  0  0  0  0
    7.9538    4.7134    3.2276 H   0  0  0  0  0  0  0  0  0  0  0  0
  1  2  1  6  0  0  0
  1  6  2  0  0  0  0
  1 13  1  0  0  0  0
  3 54  1  0  0  0  0
  3  1  1  0  0  0  0
  4  9  1  0  0  0  0
  4  6  1  0  0  0  0
  5 11  1  0  0  0  0
  6  5  1  0  0  0  0
  7  5  1  0  0  0  0
  7  8  1  0  0  0  0
  9  7  2  0  0  0  0
 10  9  1  0  0  0  0
 11 12  2  0  0  0  0
 11 25  1  0  0  0  0
 12 16  1  0  0  0  0
 13 14  1  0  0  0  0
 13 15  1  0  0  0  0
 13 12  1  0  0  0  0
 16 17  1  0  0  0  0
 16 18  2  0  0  0  0
 18 19  1  0  0  0  0
 19 21  1  0  0  0  0
 19 20  1  0  0  0  0
 22 19  1  0  0  0  0
 23 18  1  0  0  0  0
 23 24  1  0  0  0  0
 25 23  2  0  0  0  0
 26 28  1  0  0  0  0
 26 25  1  0  0  0  0
 26 29  1  0  0  0  0
 27 26  1  0  0  0  0
 30  4  1  0  0  0  0
 31 32  1  0  0  0  0
 31 30  2  0  0  0  0
 32 33  1  0  0  0  0
 32 35  1  0  0  0  0
 34 32  1  0  0  0  0
 36 31  1  0  0  0  0
 37 36  1  0  0  0  0
 38 36  2  0  0  0  0
 38 43  1  0  0  0  0
 39 38  1  0  0  0  0
 40 39  1  0  0  0  0
 41 39  1  0  0  0  0
 42 39  1  0  0  0  0
 43 45  2  0  0  0  0
 44 43  1  0  0  0  0
 45 30  1  0  0  0  0
 45 46  1  0  0  0  0
 46 47  1  0  0  0  0
 46 49  1  0  0  0  0
 48 46  1  0  0  0  0
 50 51  1  0  0  0  0
 50  3  1  0  0  0  0
 52 50  1  0  0  0  0
 53 50  1  0  0  0  0
 54 57  1  0  0  0  0
 54 55  1  0  0  0  0
 56 54  1  0  0  0  0
M  END
$$$$
