CSD_code = EGAKAB | q = 0 | S = 0 | Stoichiometry = C14H19Cl2N3Pd | MND = 4
 OpenBabel04212202033D

 39 41  0  0  1  0  0  0  0  0999 V2000
   10.3273    5.2465    7.6070 Pd  0  0  0  0  0  0  0  0  0  0  0  0
   10.6207    3.9569    9.3847 Cl  0  0  0  0  0  0  0  0  0  0  0  0
   12.4595    5.8493    7.5423 Cl  0  0  0  0  0  0  0  0  0  0  0  0
    8.3707    4.7408    7.5242 N   0  0  2  0  0  0  0  0  0  0  0  0
   10.0918    6.5159    5.8343 N   0  0  0  0  0  4  0  0  0  0  0  0
   10.1478    7.4961    6.1057 H   0  0  0  0  0  0  0  0  0  0  0  0
   10.9992    6.2657    5.4296 H   0  0  0  0  0  0  0  0  0  0  0  0
    7.7682    4.6229    6.3371 N   0  0  0  0  0  0  0  0  0  0  0  0
    7.4521    4.5448    8.4539 C   0  0  0  0  0  3  0  0  0  0  0  0
    7.7132    4.5748    9.4950 H   0  0  0  0  0  0  0  0  0  0  0  0
    8.9806    6.2386    4.9302 C   0  0  0  0  0  0  0  0  0  0  0  0
    9.2631    6.3866    3.8801 H   0  0  0  0  0  0  0  0  0  0  0  0
    8.1488    6.9122    5.1582 H   0  0  0  0  0  0  0  0  0  0  0  0
    5.5513    4.1478    5.3458 C   0  0  0  0  0  0  0  0  0  0  0  0
    6.4494    4.3525    6.4900 C   0  0  0  0  0  0  0  0  0  0  0  0
    8.5039    4.7851    5.1109 C   0  0  0  0  0  0  0  0  0  0  0  0
    7.8494    4.4959    4.2858 H   0  0  0  0  0  0  0  0  0  0  0  0
    9.3878    4.1250    5.1388 H   0  0  0  0  0  0  0  0  0  0  0  0
    6.2158    4.2986    7.8505 C   0  0  0  0  0  0  0  0  0  0  0  0
    5.2828    4.0972    8.3342 H   0  0  0  0  0  0  0  0  0  0  0  0
    4.7233    5.1861    4.9156 C   0  0  0  0  0  0  0  0  0  0  0  0
    5.5310    2.9077    4.7005 C   0  0  0  0  0  0  0  0  0  0  0  0
    3.8581    3.7531    3.1690 C   0  0  0  0  0  0  0  0  0  0  0  0
    4.6830    2.7308    3.6190 C   0  0  0  0  0  0  0  0  0  0  0  0
    4.6602    1.7735    3.1185 H   0  0  0  0  0  0  0  0  0  0  0  0
    3.8890    4.9730    3.8289 C   0  0  0  0  0  0  0  0  0  0  0  0
    3.2468    5.7746    3.4934 H   0  0  0  0  0  0  0  0  0  0  0  0
    6.4080    1.7885    5.1757 C   0  0  0  0  0  0  0  0  0  0  0  0
    6.0606    0.8383    4.7790 H   0  0  0  0  0  0  0  0  0  0  0  0
    6.4120    1.7348    6.2626 H   0  0  0  0  0  0  0  0  0  0  0  0
    7.4374    1.9344    4.8469 H   0  0  0  0  0  0  0  0  0  0  0  0
    4.7184    6.5024    5.6332 C   0  0  0  0  0  0  0  0  0  0  0  0
    4.1536    6.4166    6.5612 H   0  0  0  0  0  0  0  0  0  0  0  0
    4.2542    7.2723    5.0224 H   0  0  0  0  0  0  0  0  0  0  0  0
    5.7271    6.8181    5.8931 H   0  0  0  0  0  0  0  0  0  0  0  0
    2.9668    3.5414    1.9845 C   0  0  0  0  0  0  0  0  0  0  0  0
    3.5389    3.6555    1.0632 H   0  0  0  0  0  0  0  0  0  0  0  0
    2.1561    4.2653    1.9721 H   0  0  0  0  0  0  0  0  0  0  0  0
    2.5458    2.5386    1.9932 H   0  0  0  0  0  0  0  0  0  0  0  0
  1  2  1  0  0  0  0
  3  1  1  0  0  0  0
  4  1  1  0  0  0  0
  4  9  1  1  0  0  0
  5  6  1  0  0  0  0
  5  1  1  0  0  0  0
  7  5  1  0  0  0  0
  8 15  1  0  0  0  0
  8  4  1  0  0  0  0
  9 10  1  0  0  0  0
 11 16  1  0  0  0  0
 11 13  1  0  0  0  0
 11  5  1  0  0  0  0
 12 11  1  0  0  0  0
 14 15  1  0  0  0  0
 15 19  2  0  0  0  0
 16 18  1  0  0  0  0
 16  8  1  0  0  0  0
 17 16  1  0  0  0  0
 19 20  1  0  0  0  0
 19  9  1  0  0  0  0
 21 14  1  0  0  0  0
 21 32  1  0  0  0  0
 22 28  1  0  0  0  0
 22 14  2  0  0  0  0
 23 24  2  0  0  0  0
 23 26  1  0  0  0  0
 24 22  1  0  0  0  0
 25 24  1  0  0  0  0
 26 21  2  0  0  0  0
 27 26  1  0  0  0  0
 28 30  1  0  0  0  0
 29 28  1  0  0  0  0
 31 28  1  0  0  0  0
 32 35  1  0  0  0  0
 32 33  1  0  0  0  0
 34 32  1  0  0  0  0
 36 39  1  0  0  0  0
 36 23  1  0  0  0  0
 37 36  1  0  0  0  0
 38 36  1  0  0  0  0
M  END
$$$$
