CSD_code = EGAXAN | q = 0 | S = 0 | Stoichiometry = C13H25INiP2S | MND = 4
 OpenBabel04212202033D

 43 43  0  0  0  0  0  0  0  0999 V2000
   -0.2896    9.8914   16.0572 I   0  0  0  0  0  0  0  0  0  0  0  0
    1.3044    8.1660   15.3692 Ni  0  0  0  0  0  0  0  0  0  0  0  0
   -0.2389    6.8867   14.5489 P   0  0  0  0  0  4  0  0  0  0  0  0
    2.4345    8.3251   12.7827 S   0  0  0  0  0  0  0  0  0  0  0  0
    3.0107    9.2610   16.1312 P   0  0  0  0  0  4  0  0  0  0  0  0
    2.8974    5.7373   15.7600 C   0  0  0  0  0  0  0  0  0  0  0  0
    2.5032    5.6249   16.7636 H   0  0  0  0  0  0  0  0  0  0  0  0
    2.5001    6.7981   14.9645 C   0  0  0  0  0  0  0  0  0  0  0  0
    3.0274    6.9121   13.6745 C   0  0  0  0  0  0  0  0  0  0  0  0
    3.9328    5.9866   13.1870 C   0  0  0  0  0  0  0  0  0  0  0  0
    4.3436    6.0760   12.1922 H   0  0  0  0  0  0  0  0  0  0  0  0
    3.8032    4.8019   15.2739 C   0  0  0  0  0  0  0  0  0  0  0  0
    4.1045    3.9744   15.9006 H   0  0  0  0  0  0  0  0  0  0  0  0
    3.1691   10.9734   15.5055 C   0  0  0  0  0  0  0  0  0  0  0  0
    4.0734   11.4264   15.9116 H   0  0  0  0  0  0  0  0  0  0  0  0
    2.2981   11.5563   15.7989 H   0  0  0  0  0  0  0  0  0  0  0  0
    3.2256   10.9526   14.4177 H   0  0  0  0  0  0  0  0  0  0  0  0
    0.1503    5.3344   13.6518 C   0  0  0  0  0  0  0  0  0  0  0  0
   -0.7767    4.8510   13.3451 H   0  0  0  0  0  0  0  0  0  0  0  0
    0.7179    4.6614   14.2924 H   0  0  0  0  0  0  0  0  0  0  0  0
    0.7477    5.5572   12.7694 H   0  0  0  0  0  0  0  0  0  0  0  0
    2.9879    9.5169   17.9432 C   0  0  0  0  0  0  0  0  0  0  0  0
    3.0221    8.5503   18.4452 H   0  0  0  0  0  0  0  0  0  0  0  0
    2.0699   10.0292   18.2275 H   0  0  0  0  0  0  0  0  0  0  0  0
    3.8503   10.1129   18.2405 H   0  0  0  0  0  0  0  0  0  0  0  0
    4.7325    8.6741   15.8958 C   0  0  0  0  0  0  0  0  0  0  0  0
    5.4232    9.3738   16.3658 H   0  0  0  0  0  0  0  0  0  0  0  0
    4.9559    8.6079   14.8324 H   0  0  0  0  0  0  0  0  0  0  0  0
    4.8571    7.6867   16.3372 H   0  0  0  0  0  0  0  0  0  0  0  0
    4.3153    4.9278   13.9963 C   0  0  0  0  0  0  0  0  0  0  0  0
    5.0201    4.2007   13.6196 H   0  0  0  0  0  0  0  0  0  0  0  0
   -1.3497    7.6878   13.3345 C   0  0  0  0  0  0  0  0  0  0  0  0
   -0.7558    8.0843   12.5116 H   0  0  0  0  0  0  0  0  0  0  0  0
   -1.8827    8.5101   13.8078 H   0  0  0  0  0  0  0  0  0  0  0  0
   -2.0602    6.9541   12.9544 H   0  0  0  0  0  0  0  0  0  0  0  0
   -1.4232    6.2647   15.7976 C   0  0  0  0  0  0  0  0  0  0  0  0
   -1.8777    7.1054   16.3197 H   0  0  0  0  0  0  0  0  0  0  0  0
   -0.8937    5.6447   16.5206 H   0  0  0  0  0  0  0  0  0  0  0  0
   -2.1962    5.6738   15.3071 H   0  0  0  0  0  0  0  0  0  0  0  0
    3.1086    8.1222   11.1072 C   0  0  0  0  0  0  0  0  0  0  0  0
    4.1925    8.1927   11.1312 H   0  0  0  0  0  0  0  0  0  0  0  0
    2.6996    8.9384   10.5199 H   0  0  0  0  0  0  0  0  0  0  0  0
    2.7882    7.1702   10.6933 H   0  0  0  0  0  0  0  0  0  0  0  0
  2  1  1  0  0  0  0
  2  5  1  0  0  0  0
  3  2  1  0  0  0  0
  3 36  1  0  0  0  0
  4  9  1  0  0  0  0
  5 22  1  0  0  0  0
  6  7  1  0  0  0  0
  8  2  1  0  0  0  0
  8  6  2  0  0  0  0
  9  8  1  0  0  0  0
 10  9  2  0  0  0  0
 10 30  1  0  0  0  0
 11 10  1  0  0  0  0
 12  6  1  0  0  0  0
 12 13  1  0  0  0  0
 14 16  1  0  0  0  0
 14 15  1  0  0  0  0
 14  5  1  0  0  0  0
 17 14  1  0  0  0  0
 18 20  1  0  0  0  0
 18  3  1  0  0  0  0
 19 18  1  0  0  0  0
 21 18  1  0  0  0  0
 22 24  1  0  0  0  0
 22 25  1  0  0  0  0
 22 23  1  0  0  0  0
 26  5  1  0  0  0  0
 26 29  1  0  0  0  0
 26 27  1  0  0  0  0
 28 26  1  0  0  0  0
 30 12  2  0  0  0  0
 31 30  1  0  0  0  0
 32 34  1  0  0  0  0
 32  3  1  0  0  0  0
 33 32  1  0  0  0  0
 35 32  1  0  0  0  0
 36 37  1  0  0  0  0
 36 38  1  0  0  0  0
 39 36  1  0  0  0  0
 40 41  1  0  0  0  0
 40  4  1  0  0  0  0
 42 40  1  0  0  0  0
 43 40  1  0  0  0  0
M  END
$$$$
