CSD_code = EGEGON | q = 0 | S = 0 | Stoichiometry = C29H29ClNRhS | MND = 6
 OpenBabel04212202033D

 62 65  0  0  1  0  0  0  0  0999 V2000
    1.8108   12.0051    6.6721 C   0  0  0  0  0  0  0  0  0  0  0  0
    2.5145   11.8119    5.4773 C   0  0  0  0  0  0  0  0  0  0  0  0
    2.4166   12.9770    4.6642 C   0  0  0  0  0  0  0  0  0  0  0  0
    2.8859   13.3686    3.4143 C   0  0  0  0  0  0  0  0  0  0  0  0
    3.5062   12.7109    2.8220 H   0  0  0  0  0  0  0  0  0  0  0  0
    2.5444   14.6218    2.9473 C   0  0  0  0  0  0  0  0  0  0  0  0
    2.9021   14.9427    1.9796 H   0  0  0  0  0  0  0  0  0  0  0  0
    1.7458   15.4835    3.6960 C   0  0  0  0  0  0  0  0  0  0  0  0
    1.4982   16.4557    3.2964 H   0  0  0  0  0  0  0  0  0  0  0  0
    1.2661   15.1167    4.9396 C   0  0  0  0  0  0  0  0  0  0  0  0
    0.6476   15.7885    5.5156 H   0  0  0  0  0  0  0  0  0  0  0  0
    1.6043   13.8626    5.4209 C   0  0  0  0  0  0  0  0  0  0  0  0
    0.5355   13.8701    7.6723 C   0  0  0  0  0  0  0  0  0  0  0  0
    0.5822   13.2108    8.5428 H   0  0  0  0  0  0  0  0  0  0  0  0
   -0.5088   14.0308    7.3897 H   0  0  0  0  0  0  0  0  0  0  0  0
    0.9842   14.8317    7.9301 H   0  0  0  0  0  0  0  0  0  0  0  0
    0.3828    9.4740    7.0285 C   0  0  2  0  0  0  0  0  0  0  0  0
    0.2050    9.8624    6.0239 H   0  0  0  0  0  0  0  0  0  0  0  0
   -0.1996   10.1680    8.0953 C   0  0  0  0  0  3  0  0  0  0  0  0
   -0.7689   11.0608    7.8415 H   0  0  0  0  0  0  0  0  0  0  0  0
   -0.6485    9.4924    9.3755 C   0  0  0  0  0  0  0  0  0  0  0  0
   -0.9615    8.4717    9.1493 H   0  0  0  0  0  0  0  0  0  0  0  0
   -1.5237   10.0154    9.7675 H   0  0  0  0  0  0  0  0  0  0  0  0
    0.4493    9.4910   10.4572 C   0  0  0  0  0  0  0  0  0  0  0  0
    0.3492   10.3953   11.0633 H   0  0  0  0  0  0  0  0  0  0  0  0
    0.3137    8.6355   11.1287 H   0  0  0  0  0  0  0  0  0  0  0  0
    1.8497    9.4639    9.8888 C   0  0  0  0  0  3  0  0  0  0  0  0
    2.5981    9.9238   10.5352 H   0  0  0  0  0  0  0  0  0  0  0  0
    2.2864    8.6011    8.9074 C   0  0  0  0  0  3  0  0  0  0  0  0
    3.3606    8.4472    8.8062 H   0  0  0  0  0  0  0  0  0  0  0  0
    1.4221    7.5187    8.3009 C   0  0  0  0  0  0  0  0  0  0  0  0
    0.6998    7.1804    9.0454 H   0  0  0  0  0  0  0  0  0  0  0  0
    2.0488    6.6605    8.0476 H   0  0  0  0  0  0  0  0  0  0  0  0
    0.6948    7.9942    7.0284 C   0  0  0  0  0  0  0  0  0  0  0  0
    1.3243    7.7851    6.1574 H   0  0  0  0  0  0  0  0  0  0  0  0
   -0.2341    7.4273    6.8943 H   0  0  0  0  0  0  0  0  0  0  0  0
    2.7428    9.4407    3.9810 C   0  0  0  0  0  0  0  0  0  0  0  0
    3.1991    8.1465    3.7771 C   0  0  0  0  0  0  0  0  0  0  0  0
    3.9902    7.7554    4.3993 H   0  0  0  0  0  0  0  0  0  0  0  0
    2.6357    7.3755    2.7756 C   0  0  0  0  0  0  0  0  0  0  0  0
    2.9874    6.3685    2.6105 H   0  0  0  0  0  0  0  0  0  0  0  0
    1.6163    7.8952    1.9931 C   0  0  0  0  0  0  0  0  0  0  0  0
    1.1750    7.2921    1.2143 H   0  0  0  0  0  0  0  0  0  0  0  0
    1.1579    9.1836    2.2132 C   0  0  0  0  0  0  0  0  0  0  0  0
    0.3611    9.5871    1.6070 H   0  0  0  0  0  0  0  0  0  0  0  0
    1.7160    9.9613    3.2143 C   0  0  0  0  0  0  0  0  0  0  0  0
    1.3599   10.9633    3.3975 H   0  0  0  0  0  0  0  0  0  0  0  0
    4.9676   11.0166    4.6026 C   0  0  0  0  0  0  0  0  0  0  0  0
    5.7289   11.8284    5.4279 C   0  0  0  0  0  0  0  0  0  0  0  0
    5.4070   11.9989    6.4463 H   0  0  0  0  0  0  0  0  0  0  0  0
    6.8890   12.3936    4.9295 C   0  0  0  0  0  0  0  0  0  0  0  0
    7.4871   13.0288    5.5642 H   0  0  0  0  0  0  0  0  0  0  0  0
    7.2801   12.1420    3.6240 C   0  0  0  0  0  0  0  0  0  0  0  0
    8.1848   12.5848    3.2354 H   0  0  0  0  0  0  0  0  0  0  0  0
    6.5152   11.3180    2.8157 C   0  0  0  0  0  0  0  0  0  0  0  0
    6.8197   11.1184    1.7991 H   0  0  0  0  0  0  0  0  0  0  0  0
    5.3509   10.7450    3.3023 C   0  0  0  0  0  0  0  0  0  0  0  0
    4.7534   10.1075    2.6676 H   0  0  0  0  0  0  0  0  0  0  0  0
    1.2699   13.2470    6.6063 N   0  0  0  0  0  0  0  0  0  0  0  0
    3.4622   10.3636    5.3638 S   0  0  0  0  0  3  0  0  0  0  0  0
    4.0214   11.2857    8.3985 Cl  0  0  0  0  0 15  0  0  0  0  0  0
    1.8833   10.5516    8.0249 Rh  0  0  0  0  0  0  0  0  0  0  0  0
  1 62  1  0  0  0  0
  2  1  2  0  0  0  0
  3 12  1  0  0  0  0
  3  2  1  0  0  0  0
  4  3  2  0  0  0  0
  5  4  1  0  0  0  0
  6  4  1  0  0  0  0
  6  8  2  0  0  0  0
  7  6  1  0  0  0  0
  8 10  1  0  0  0  0
  9  8  1  0  0  0  0
 10 12  2  0  0  0  0
 10 11  1  0  0  0  0
 12 59  1  0  0  0  0
 13 16  1  0  0  0  0
 13 14  1  0  0  0  0
 15 13  1  0  0  0  0
 17 18  1  6  0  0  0
 17 62  1  0  0  0  0
 17 19  1  0  0  0  0
 19 21  1  0  0  0  0
 20 19  1  0  0  0  0
 21 23  1  0  0  0  0
 21 24  1  0  0  0  0
 22 21  1  0  0  0  0
 24 25  1  0  0  0  0
 24 26  1  0  0  0  0
 27 24  1  0  0  0  0
 27 28  1  0  0  0  0
 29 27  1  0  0  0  0
 30 29  1  0  0  0  0
 31 29  1  0  0  0  0
 31 32  1  0  0  0  0
 33 31  1  0  0  0  0
 34 17  1  0  0  0  0
 34 31  1  0  0  0  0
 35 34  1  0  0  0  0
 36 34  1  0  0  0  0
 37 60  1  0  0  0  0
 38 37  1  0  0  0  0
 38 39  1  0  0  0  0
 40 38  2  0  0  0  0
 41 40  1  0  0  0  0
 42 44  2  0  0  0  0
 42 40  1  0  0  0  0
 43 42  1  0  0  0  0
 44 46  1  0  0  0  0
 45 44  1  0  0  0  0
 46 47  1  0  0  0  0
 46 37  2  0  0  0  0
 48 60  1  0  0  0  0
 48 49  1  0  0  0  0
 49 50  1  0  0  0  0
 51 49  2  0  0  0  0
 51 52  1  0  0  0  0
 53 51  1  0  0  0  0
 54 53  1  0  0  0  0
 55 57  1  0  0  0  0
 55 53  2  0  0  0  0
 56 55  1  0  0  0  0
 57 48  2  0  0  0  0
 58 57  1  0  0  0  0
 59  1  1  0  0  0  0
 59 13  1  0  0  0  0
 60  2  1  0  0  0  0
M  END
$$$$
