CSD_code = EGETIU | q = 0 | S = 0 | Stoichiometry = C11H15Cl2N2O3Re | MND = 6
 OpenBabel04212202033D

 34 36  0  0  1  0  0  0  0  0999 V2000
    0.6507    3.0066    2.4758 Re  0  0  0  0  0  0  0  0  0  0  0  0
    2.0740    3.0677    4.2249 Cl  0  0  0  0  0  0  0  0  0  0  0  0
    2.0930    4.3280    1.3076 Cl  0  0  0  0  0  0  0  0  0  0  0  0
    1.4213    1.4239    1.7203 O   0  0  0  0  0  0  0  0  0  0  0  0
   -0.6507    1.3837    3.3295 N   0  0  0  0  0  0  0  0  0  0  0  0
   -0.4886    4.1523    2.8278 O   0  0  0  0  0  1  0  0  0  0  0  0
   -0.7735    2.3252    0.6600 N   0  0  1  0  0  4  0  0  0  0  0  0
   -0.9988    3.1323    0.0852 H   0  0  0  0  0  0  0  0  0  0  0  0
    1.0247   -0.6083    0.8911 O   0  0  0  0  0  0  0  0  0  0  0  0
    0.8915    0.5908    0.9015 C   0  0  0  0  0  0  0  0  0  0  0  0
   -0.0488    1.3226   -0.1094 C   0  0  2  0  0  0  0  0  0  0  0  0
   -0.7239    0.5677   -0.5360 H   0  0  0  0  0  0  0  0  0  0  0  0
    0.7890    1.9834   -1.2188 C   0  0  0  0  0  0  0  0  0  0  0  0
    1.3410    2.8175   -0.7688 H   0  0  0  0  0  0  0  0  0  0  0  0
   -1.9701    1.8296    1.3429 C   0  0  0  0  0  0  0  0  0  0  0  0
   -2.5061    2.7006    1.7367 H   0  0  0  0  0  0  0  0  0  0  0  0
   -2.6265    1.2837    0.6525 H   0  0  0  0  0  0  0  0  0  0  0  0
   -1.6136    0.9479    2.5138 C   0  0  2  0  0  3  0  0  0  0  0  0
   -0.2954    0.6706    4.3858 C   0  0  0  0  0  0  0  0  0  0  0  0
    0.4972    1.0928    4.9897 H   0  0  0  0  0  0  0  0  0  0  0  0
   -2.2602   -0.2552    2.7556 C   0  0  0  0  0  0  0  0  0  0  0  0
   -3.0314   -0.5976    2.0835 H   0  0  0  0  0  0  0  0  0  0  0  0
   -0.8965   -0.5378    4.6950 C   0  0  0  0  0  0  0  0  0  0  0  0
   -0.5792   -1.0942    5.5613 H   0  0  0  0  0  0  0  0  0  0  0  0
   -1.8944   -1.0110    3.8586 C   0  0  0  0  0  0  0  0  0  0  0  0
   -2.3761   -1.9565    4.0537 H   0  0  0  0  0  0  0  0  0  0  0  0
    1.7907    0.9885   -1.8006 C   0  0  0  0  0  0  0  0  0  0  0  0
    2.5054    0.6674   -1.0475 H   0  0  0  0  0  0  0  0  0  0  0  0
    2.3419    1.4527   -2.6143 H   0  0  0  0  0  0  0  0  0  0  0  0
    1.2803    0.1067   -2.1830 H   0  0  0  0  0  0  0  0  0  0  0  0
   -0.1165    2.5206   -2.3270 C   0  0  0  0  0  0  0  0  0  0  0  0
   -0.8246    3.2614   -1.9600 H   0  0  0  0  0  0  0  0  0  0  0  0
   -0.6726    1.7084   -2.7927 H   0  0  0  0  0  0  0  0  0  0  0  0
    0.4896    2.9992   -3.0909 H   0  0  0  0  0  0  0  0  0  0  0  0
  1  6  1  0  0  0  0
  1  5  1  0  0  0  0
  1  2  1  0  0  0  0
  3  1  1  0  0  0  0
  4  1  1  0  0  0  0
  5 19  1  0  0  0  0
  7  8  1  6  0  0  0
  7 15  1  0  0  0  0
  7  1  1  0  0  0  0
  9 10  2  0  0  0  0
 10  4  1  0  0  0  0
 11 12  1  6  0  0  0
 11  7  1  0  0  0  0
 11 10  1  0  0  0  0
 13 14  1  0  0  0  0
 13 11  1  0  0  0  0
 15 16  1  0  0  0  0
 15 18  1  0  0  0  0
 17 15  1  0  0  0  0
 18 21  1  1  0  0  0
 18  5  1  0  0  0  0
 19 23  2  0  0  0  0
 19 20  1  0  0  0  0
 21 25  2  0  0  0  0
 22 21  1  0  0  0  0
 23 24  1  0  0  0  0
 25 26  1  0  0  0  0
 25 23  1  0  0  0  0
 27 13  1  0  0  0  0
 27 28  1  0  0  0  0
 29 27  1  0  0  0  0
 30 27  1  0  0  0  0
 31 32  1  0  0  0  0
 31 13  1  0  0  0  0
 33 31  1  0  0  0  0
 34 31  1  0  0  0  0
M  END
$$$$
