CSD_code = EGETOA | q = 0 | S = 0 | Stoichiometry = C12H17Cl2N2O3Re | MND = 6
 OpenBabel04212202033D

 37 39  0  0  1  0  0  0  0  0999 V2000
    2.5663    4.8079    7.0770 Re  0  0  0  0  0  0  0  0  0  0  0  0
    4.3956    4.6834    8.3935 Cl  0  0  0  0  0  0  0  0  0  0  0  0
    3.7284    3.7659    5.4151 Cl  0  0  0  0  0  0  0  0  0  0  0  0
    1.6293    3.5263    7.5399 O   0  0  0  0  0  1  0  0  0  0  0  0
    3.0251    6.5293    6.3710 O   0  0  0  0  0  0  0  0  0  0  0  0
    2.4206    8.5901    5.7648 O   0  0  0  0  0  0  0  0  0  0  0  0
    1.4342    6.1944    8.4305 N   0  0  0  0  0  0  0  0  0  0  0  0
    0.6950    5.5501    5.7772 N   0  0  1  0  0  4  0  0  0  0  0  0
    2.0005    6.8148    9.4529 C   0  0  0  0  0  3  0  0  0  0  0  0
    2.9489    6.4072    9.7785 H   0  0  0  0  0  0  0  0  0  0  0  0
    1.4183    7.9133   10.0622 C   0  0  0  0  0  0  0  0  0  0  0  0
    1.9095    8.3960   10.8908 H   0  0  0  0  0  0  0  0  0  0  0  0
    0.2082    8.3756    9.5712 C   0  0  0  0  0  0  0  0  0  0  0  0
   -0.2711    9.2393   10.0059 H   0  0  0  0  0  0  0  0  0  0  0  0
   -0.3777    7.7168    8.5012 C   0  0  0  0  0  0  0  0  0  0  0  0
   -1.3187    8.0527    8.0946 H   0  0  0  0  0  0  0  0  0  0  0  0
    0.2653    6.6202    7.9458 C   0  0  0  0  0  0  0  0  0  0  0  0
   -0.3195    5.8469    6.7899 C   0  0  0  0  0  0  0  0  0  0  0  0
   -0.6823    4.8899    7.1817 H   0  0  0  0  0  0  0  0  0  0  0  0
   -1.1629    6.4026    6.3592 H   0  0  0  0  0  0  0  0  0  0  0  0
    2.2925    7.3912    5.7681 C   0  0  0  0  0  0  0  0  0  0  0  0
    1.1275    6.6966    4.9914 C   0  0  1  0  0  0  0  0  0  0  0  0
    0.3252    7.4351    4.8717 H   0  0  0  0  0  0  0  0  0  0  0  0
    1.6882    6.2540    3.6379 C   0  0  0  0  0  0  0  0  0  0  0  0
    2.4372    5.4776    3.8228 H   0  0  0  0  0  0  0  0  0  0  0  0
    2.1954    7.1064    3.1810 H   0  0  0  0  0  0  0  0  0  0  0  0
    0.6342    5.7180    2.6597 C   0  0  0  0  0  0  0  0  0  0  0  0
    0.0078    4.9724    3.1664 H   0  0  0  0  0  0  0  0  0  0  0  0
   -0.2680    6.8334    2.1367 C   0  0  0  0  0  0  0  0  0  0  0  0
   -0.8207    7.3143    2.9408 H   0  0  0  0  0  0  0  0  0  0  0  0
   -0.9890    6.4330    1.4277 H   0  0  0  0  0  0  0  0  0  0  0  0
    0.3248    7.5910    1.6298 H   0  0  0  0  0  0  0  0  0  0  0  0
    1.3424    5.0216    1.5000 C   0  0  0  0  0  0  0  0  0  0  0  0
    1.9593    4.2044    1.8651 H   0  0  0  0  0  0  0  0  0  0  0  0
    1.9813    5.7249    0.9715 H   0  0  0  0  0  0  0  0  0  0  0  0
    0.6175    4.6200    0.7960 H   0  0  0  0  0  0  0  0  0  0  0  0
    0.3889    4.7929    5.1716 H   0  0  0  0  0  0  0  0  0  0  0  0
  1  4  1  0  0  0  0
  1  2  1  0  0  0  0
  1  7  1  0  0  0  0
  3  1  1  0  0  0  0
  5  1  1  0  0  0  0
  6 21  2  0  0  0  0
  7  9  1  0  0  0  0
  8 37  1  6  0  0  0
  8 18  1  0  0  0  0
  8  1  1  0  0  0  0
  9 10  1  0  0  0  0
  9 11  1  0  0  0  0
 11 12  1  0  0  0  0
 13 14  1  0  0  0  0
 13 11  2  0  0  0  0
 15 13  1  0  0  0  0
 16 15  1  0  0  0  0
 17  7  1  0  0  0  0
 17 15  2  0  0  0  0
 18 19  1  0  0  0  0
 18 17  1  0  0  0  0
 20 18  1  0  0  0  0
 21  5  1  0  0  0  0
 22 23  1  6  0  0  0
 22 21  1  0  0  0  0
 22  8  1  0  0  0  0
 24 25  1  0  0  0  0
 24 22  1  0  0  0  0
 26 24  1  0  0  0  0
 27 28  1  0  0  0  0
 27 24  1  0  0  0  0
 29 27  1  0  0  0  0
 29 30  1  0  0  0  0
 31 29  1  0  0  0  0
 32 29  1  0  0  0  0
 33 34  1  0  0  0  0
 33 27  1  0  0  0  0
 35 33  1  0  0  0  0
 36 33  1  0  0  0  0
M  END
$$$$
