CSD_code = EGEXOE | q = 0 | S = 0 | Stoichiometry = C20H7ClF10N2Pt | MND = 4
 OpenBabel04212202033D

 41 44  0  0  0  0  0  0  0  0999 V2000
    3.7338    2.7464    2.3520 Pt  0  0  0  0  0  0  0  0  0  0  0  0
    4.2901    4.6636    3.5696 Cl  0  0  0  0  0  0  0  0  0  0  0  0
    1.7875    3.1700    2.5702 C   0  0  0  0  0  0  0  0  0  0  0  0
    1.2018    4.1771    1.8104 C   0  0  0  0  0  0  0  0  0  0  0  0
   -0.1247    4.5591    1.9681 C   0  0  0  0  0  0  0  0  0  0  0  0
   -0.9095    3.9107    2.9171 C   0  0  0  0  0  0  0  0  0  0  0  0
   -0.3588    2.8973    3.6951 C   0  0  0  0  0  0  0  0  0  0  0  0
    0.9727    2.5494    3.5076 C   0  0  0  0  0  0  0  0  0  0  0  0
    1.9682    4.8084    0.9039 F   0  0  0  0  0  0  0  0  0  0  0  0
   -0.6536    5.5386    1.2254 F   0  0  0  0  0  0  0  0  0  0  0  0
   -2.1900    4.2621    3.0829 F   0  0  0  0  0  0  0  0  0  0  0  0
   -1.1120    2.2736    4.6111 F   0  0  0  0  0  0  0  0  0  0  0  0
    1.5132    1.5677    4.2634 F   0  0  0  0  0  0  0  0  0  0  0  0
    3.1903    1.0064    1.4556 C   0  0  0  0  0  0  0  0  0  0  0  0
    2.3947    0.8970    0.3192 C   0  0  0  0  0  0  0  0  0  0  0  0
    2.0326   -0.3237   -0.2403 C   0  0  0  0  0  0  0  0  0  0  0  0
    2.4757   -1.5048    0.3466 C   0  0  0  0  0  0  0  0  0  0  0  0
    3.2717   -1.4419    1.4846 C   0  0  0  0  0  0  0  0  0  0  0  0
    3.6001   -0.2005    2.0111 C   0  0  0  0  0  0  0  0  0  0  0  0
    1.9652    2.0224   -0.2758 F   0  0  0  0  0  0  0  0  0  0  0  0
    1.2727   -0.3744   -1.3399 F   0  0  0  0  0  0  0  0  0  0  0  0
    2.1496   -2.6880   -0.1838 F   0  0  0  0  0  0  0  0  0  0  0  0
    3.7253   -2.5679    2.0535 F   0  0  0  0  0  0  0  0  0  0  0  0
    4.3884   -0.1666    3.1164 F   0  0  0  0  0  0  0  0  0  0  0  0
    5.6998    2.1776    2.1576 N   0  0  0  0  0  0  0  0  0  0  0  0
    5.8549    2.3637    4.4548 N   0  0  0  0  0  0  0  0  0  0  0  0
    6.2110    1.7388    1.0100 C   0  0  0  0  0  3  0  0  0  0  0  0
    7.3346    0.9170    0.9431 C   0  0  0  0  0  0  0  0  0  0  0  0
    7.9627    0.5192    2.1018 C   0  0  0  0  0  0  0  0  0  0  0  0
    7.4669    0.9905    3.3331 C   0  0  0  0  0  0  0  0  0  0  0  0
    8.0084    0.6619    4.5937 C   0  0  0  0  0  0  0  0  0  0  0  0
    7.4587    1.1950    5.7387 C   0  0  0  0  0  0  0  0  0  0  0  0
    6.3800    2.0670    5.6345 C   0  0  0  0  0  3  0  0  0  0  0  0
    6.3351    1.8499    3.3017 C   0  0  0  0  0  0  0  0  0  0  0  0
    5.1416    3.1764    4.3240 H   0  0  0  0  0  0  0  0  0  0  0  0
    5.6997    2.0527    0.1090 H   0  0  0  0  0  0  0  0  0  0  0  0
    7.6946    0.5937   -0.0201 H   0  0  0  0  0  0  0  0  0  0  0  0
    8.8216   -0.1325    2.0851 H   0  0  0  0  0  0  0  0  0  0  0  0
    8.8483   -0.0140    4.6417 H   0  0  0  0  0  0  0  0  0  0  0  0
    7.8529    0.9459    6.7102 H   0  0  0  0  0  0  0  0  0  0  0  0
    5.9244    2.5233    6.4997 H   0  0  0  0  0  0  0  0  0  0  0  0
  1  3  1  0  0  0  0
  1  2  1  0  0  0  0
  3  8  1  0  0  0  0
  4  5  1  0  0  0  0
  4  3  2  0  0  0  0
  5  6  2  0  0  0  0
  6 11  1  0  0  0  0
  6  7  1  0  0  0  0
  7 12  1  0  0  0  0
  8  7  2  0  0  0  0
  8 13  1  0  0  0  0
  9  4  1  0  0  0  0
 10  5  1  0  0  0  0
 14 19  1  0  0  0  0
 14  1  1  0  0  0  0
 15 14  2  0  0  0  0
 16 15  1  0  0  0  0
 16 17  2  0  0  0  0
 17 18  1  0  0  0  0
 18 19  2  0  0  0  0
 18 23  1  0  0  0  0
 19 24  1  0  0  0  0
 20 15  1  0  0  0  0
 21 16  1  0  0  0  0
 22 17  1  0  0  0  0
 25  1  1  0  0  0  0
 25 34  1  0  0  0  0
 26 33  1  0  0  0  0
 27 25  1  0  0  0  0
 28 27  1  0  0  0  0
 28 29  2  0  0  0  0
 29 30  1  0  0  0  0
 30 31  1  0  0  0  0
 31 39  1  0  0  0  0
 31 32  2  0  0  0  0
 32 40  1  0  0  0  0
 33 32  1  0  0  0  0
 33 41  1  0  0  0  0
 34 30  2  0  0  0  0
 34 26  1  0  0  0  0
 35 26  1  0  0  0  0
 36 27  1  0  0  0  0
 37 28  1  0  0  0  0
 38 29  1  0  0  0  0
M  END
$$$$
