CSD_code = EGIBEB | q = 0 | S = 0 | Stoichiometry = C19H28Cl2SiZr | MND = 12
 OpenBabel04212202033D

 51 53  0  0  1  0  0  0  0  0999 V2000
    2.2671    5.9065    3.1977 Zr  0  0  0  0  0  0  0  0  0  0  0  0
    5.5684    5.8494    3.6118 Si  0  0  0  0  0  0  0  0  0  0  0  0
    0.3860    7.2547    2.8488 Cl  0  0  0  0  0  0  0  0  0  0  0  0
    1.0710    3.8912    3.1821 Cl  0  0  0  0  0  0  0  0  0  0  0  0
    4.1186    6.1186    4.7965 C   0  0  2  0  0  3  0  0  0  0  0  0
    3.2446    5.0906    5.2537 C   0  0  1  0  0  0  0  0  0  0  0  0
    2.0272    5.6773    5.6787 C   0  0  0  0  0  0  0  0  0  0  0  0
    2.1290    7.0722    5.4539 C   0  0  0  0  0  0  0  0  0  0  0  0
    3.3920    7.3374    4.8881 C   0  0  0  0  0  3  0  0  0  0  0  0
    0.8829    4.9649    6.3546 C   0  0  0  0  0  0  0  0  0  0  0  0
    0.9892    5.1460    7.8739 C   0  0  0  0  0  0  0  0  0  0  0  0
   -0.4666    5.4796    5.8457 C   0  0  0  0  0  0  0  0  0  0  0  0
    6.4610    4.2084    3.9998 C   0  0  0  0  0  0  0  0  0  0  0  0
    6.8924    7.2279    3.6676 C   0  0  0  0  0  0  0  0  0  0  0  0
    4.4407    5.8836    2.0845 C   0  0  1  0  0  3  0  0  0  0  0  0
    3.7115    4.7571    1.5852 C   0  0  1  0  0  3  0  0  0  0  0  0
    2.6209    5.2279    0.8103 C   0  0  0  0  0  0  0  0  0  0  0  0
    2.6515    6.6498    0.8299 C   0  0  0  0  0  0  0  0  0  0  0  0
    3.7419    7.0547    1.6385 C   0  0  1  0  0  0  0  0  0  0  0  0
    4.0922    3.3126    1.7603 C   0  0  0  0  0  0  0  0  0  0  0  0
    1.6280    4.4093    0.0343 C   0  0  0  0  0  0  0  0  0  0  0  0
    1.7822    7.5540    0.0051 C   0  0  0  0  0  0  0  0  0  0  0  0
    4.1333    8.4955    1.8247 C   0  0  0  0  0  0  0  0  0  0  0  0
    3.5091    4.0454    5.3821 H   0  0  0  0  0  0  0  0  0  0  0  0
    1.4042    7.8203    5.7499 H   0  0  0  0  0  0  0  0  0  0  0  0
    3.7980    8.3265    4.7143 H   0  0  0  0  0  0  0  0  0  0  0  0
    0.9559    3.8935    6.1253 H   0  0  0  0  0  0  0  0  0  0  0  0
    0.1867    4.6114    8.3766 H   0  0  0  0  0  0  0  0  0  0  0  0
    0.9198    6.2002    8.1329 H   0  0  0  0  0  0  0  0  0  0  0  0
    1.9415    4.7657    8.2364 H   0  0  0  0  0  0  0  0  0  0  0  0
   -1.2765    4.8984    6.2818 H   0  0  0  0  0  0  0  0  0  0  0  0
   -0.5270    5.3916    4.7586 H   0  0  0  0  0  0  0  0  0  0  0  0
   -0.6119    6.5232    6.1194 H   0  0  0  0  0  0  0  0  0  0  0  0
    7.1504    3.9394    3.2070 H   0  0  0  0  0  0  0  0  0  0  0  0
    5.7788    3.3799    4.1509 H   0  0  0  0  0  0  0  0  0  0  0  0
    7.0428    4.3231    4.9086 H   0  0  0  0  0  0  0  0  0  0  0  0
    6.5309    8.1329    4.1437 H   0  0  0  0  0  0  0  0  0  0  0  0
    7.2436    7.4861    2.6746 H   0  0  0  0  0  0  0  0  0  0  0  0
    7.7503    6.8886    4.2368 H   0  0  0  0  0  0  0  0  0  0  0  0
    5.1722    3.2131    1.8358 H   0  0  0  0  0  0  0  0  0  0  0  0
    3.7593    2.7291    0.9031 H   0  0  0  0  0  0  0  0  0  0  0  0
    3.6319    2.8809    2.6556 H   0  0  0  0  0  0  0  0  0  0  0  0
    1.6699    3.3621    0.3269 H   0  0  0  0  0  0  0  0  0  0  0  0
    1.8247    4.4817   -1.0378 H   0  0  0  0  0  0  0  0  0  0  0  0
    0.6123    4.7697    0.2180 H   0  0  0  0  0  0  0  0  0  0  0  0
    1.6621    8.5264    0.4812 H   0  0  0  0  0  0  0  0  0  0  0  0
    0.7933    7.1198   -0.1379 H   0  0  0  0  0  0  0  0  0  0  0  0
    2.2309    7.7077   -0.9796 H   0  0  0  0  0  0  0  0  0  0  0  0
    4.3860    8.9424    0.8608 H   0  0  0  0  0  0  0  0  0  0  0  0
    4.9979    8.5910    2.4742 H   0  0  0  0  0  0  0  0  0  0  0  0
    3.3025    9.0714    2.2465 H   0  0  0  0  0  0  0  0  0  0  0  0
  1  6  1  0  0  0  0
  2 14  1  0  0  0  0
  2 13  1  0  0  0  0
  2  5  1  0  0  0  0
  3  1  1  0  0  0  0
  4  1  1  0  0  0  0
  5  9  1  6  0  0  0
  5  6  1  0  0  0  0
  6 24  1  1  0  0  0
  6  7  1  0  0  0  0
  7 10  1  0  0  0  0
  8  7  2  0  0  0  0
  8 25  1  0  0  0  0
  9  8  1  0  0  0  0
 10 11  1  0  0  0  0
 11 29  1  0  0  0  0
 11 30  1  0  0  0  0
 11 28  1  0  0  0  0
 12 33  1  0  0  0  0
 12 31  1  0  0  0  0
 12 10  1  0  0  0  0
 13 35  1  0  0  0  0
 13 36  1  0  0  0  0
 14 37  1  0  0  0  0
 14 39  1  0  0  0  0
 15  2  1  1  0  0  0
 16 20  1  6  0  0  0
 16 15  1  0  0  0  0
 17 18  2  0  0  0  0
 17 16  1  0  0  0  0
 18 19  1  0  0  0  0
 19 23  1  1  0  0  0
 19 15  1  0  0  0  0
 19  1  1  0  0  0  0
 20 40  1  0  0  0  0
 20 42  1  0  0  0  0
 21 45  1  0  0  0  0
 21 43  1  0  0  0  0
 21 17  1  0  0  0  0
 22 46  1  0  0  0  0
 22 18  1  0  0  0  0
 23 51  1  0  0  0  0
 23 50  1  0  0  0  0
 26  9  1  0  0  0  0
 27 10  1  0  0  0  0
 32 12  1  0  0  0  0
 34 13  1  0  0  0  0
 38 14  1  0  0  0  0
 41 20  1  0  0  0  0
 44 21  1  0  0  0  0
 47 22  1  0  0  0  0
 48 22  1  0  0  0  0
 49 23  1  0  0  0  0
M  END
$$$$
