CSD_code = EGICUT | q = 0 | S = 0 | Stoichiometry = C19H20Cl3N2O3Rh | MND = 6
 OpenBabel04212202033D

 48 51  0  0  1  0  0  0  0  0999 V2000
    8.3000   11.9520    7.5289 Rh  0  0  0  0  0  0  0  0  0  0  0  0
    9.2664   11.6091    5.4117 Cl  0  0  0  0  0  0  0  0  0  0  0  0
    8.0591   13.3502   10.4547 Cl  0  0  0  0  0  0  0  0  0  0  0  0
    7.3522   10.5945   10.2663 Cl  0  0  0  0  0  0  0  0  0  0  0  0
   10.1837   13.8192    8.2538 C   0  0  0  0  0  0  0  0  0  0  0  0
   10.7080   14.7602    8.3801 H   0  0  0  0  0  0  0  0  0  0  0  0
   10.7298   12.5863    8.7366 C   0  0  0  0  0  0  0  0  0  0  0  0
   11.9324   12.4503    9.4318 C   0  0  0  0  0  0  0  0  0  0  0  0
   12.5129   13.3295    9.6624 H   0  0  0  0  0  0  0  0  0  0  0  0
   12.3458   11.1905    9.8127 C   0  0  0  0  0  0  0  0  0  0  0  0
   13.2684   11.0558   10.3557 H   0  0  0  0  0  0  0  0  0  0  0  0
   11.5525   10.0957    9.4837 C   0  0  0  0  0  0  0  0  0  0  0  0
   11.8454    9.0965    9.7624 H   0  0  0  0  0  0  0  0  0  0  0  0
   10.3719   10.2988    8.7938 C   0  0  0  0  0  0  0  0  0  0  0  0
    9.7239    9.4761    8.5203 H   0  0  0  0  0  0  0  0  0  0  0  0
    8.4439   14.8802    7.1069 C   0  0  0  0  0  0  0  0  0  0  0  0
    8.3100   16.0296    7.8916 C   0  0  0  0  0  0  0  0  0  0  0  0
    8.6633   16.0234    8.9120 H   0  0  0  0  0  0  0  0  0  0  0  0
    7.6725   17.1383    7.3868 C   0  0  0  0  0  0  0  0  0  0  0  0
    7.5411   18.0246    7.9868 H   0  0  0  0  0  0  0  0  0  0  0  0
    7.1724   17.1411    6.0803 C   0  0  0  0  0  0  0  0  0  0  0  0
    7.3210   15.9999    5.2945 C   0  0  0  0  0  0  0  0  0  0  0  0
    6.9571   15.9738    4.2798 H   0  0  0  0  0  0  0  0  0  0  0  0
    7.9433   14.8788    5.8063 C   0  0  0  0  0  0  0  0  0  0  0  0
    8.0804   14.0008    5.1931 H   0  0  0  0  0  0  0  0  0  0  0  0
    6.0335   18.3585    4.3821 C   0  0  0  0  0  0  0  0  0  0  0  0
    6.8086   18.2271    3.6208 H   0  0  0  0  0  0  0  0  0  0  0  0
    5.6075   19.3564    4.2934 H   0  0  0  0  0  0  0  0  0  0  0  0
    5.2454   17.6141    4.2328 H   0  0  0  0  0  0  0  0  0  0  0  0
    6.6614    9.6177    6.7798 C   0  0  0  0  0  0  0  0  0  0  0  0
    5.7164   10.4066    6.1192 C   0  0  0  0  0  0  0  0  0  0  0  0
    4.9237    9.9023    5.5901 H   0  0  0  0  0  0  0  0  0  0  0  0
    5.7302   11.8010    6.0938 C   0  0  1  0  0  3  0  0  0  0  0  0
    6.4849    8.1182    6.7197 C   0  0  0  0  0  0  0  0  0  0  0  0
    6.8271    7.7637    5.7488 H   0  0  0  0  0  0  0  0  0  0  0  0
    5.4401    7.8469    6.8397 H   0  0  0  0  0  0  0  0  0  0  0  0
    7.0823    7.6454    7.4948 H   0  0  0  0  0  0  0  0  0  0  0  0
    4.6223   12.4991    5.3374 C   0  0  0  0  0  0  0  0  0  0  0  0
    4.6663   13.5671    5.5336 H   0  0  0  0  0  0  0  0  0  0  0  0
    3.6522   12.1076    5.6314 H   0  0  0  0  0  0  0  0  0  0  0  0
    4.7545   12.3262    4.2714 H   0  0  0  0  0  0  0  0  0  0  0  0
    7.3433   12.1287    9.3769 C   0  0  0  0  0  0  0  0  0  0  0  0
    6.2895   12.4136    9.2831 H   0  0  0  0  0  0  0  0  0  0  0  0
    9.0603   13.7374    7.6148 N   0  0  0  0  0  0  0  0  0  0  0  0
    9.9655   11.5103    8.4327 N   0  0  0  0  0  0  0  0  0  0  0  0
    7.6588   10.0287    7.4331 O   0  0  0  0  0  0  0  0  0  0  0  0
    6.5753   12.5577    6.6493 O   0  0  0  0  0  0  0  0  0  0  0  0
    6.5701   18.2888    5.6826 O   0  0  0  0  0  0  0  0  0  0  0  0
  1 44  1  0  0  0  0
  1 45  1  0  0  0  0
  1 42  1  0  0  0  0
  2  1  1  0  0  0  0
  5  6  1  0  0  0  0
  5  7  2  0  0  0  0
  7  8  1  0  0  0  0
  8  9  1  0  0  0  0
  8 10  2  0  0  0  0
 10 11  1  0  0  0  0
 12 13  1  0  0  0  0
 12 10  1  0  0  0  0
 14 12  2  0  0  0  0
 15 14  1  0  0  0  0
 16 44  1  0  0  0  0
 16 17  1  0  0  0  0
 17 18  1  0  0  0  0
 19 17  2  0  0  0  0
 19 20  1  0  0  0  0
 21 19  1  0  0  0  0
 22 24  1  0  0  0  0
 22 21  2  0  0  0  0
 23 22  1  0  0  0  0
 24 16  2  0  0  0  0
 25 24  1  0  0  0  0
 26 48  1  0  0  0  0
 27 26  1  0  0  0  0
 28 26  1  0  0  0  0
 29 26  1  0  0  0  0
 30 46  1  0  0  0  0
 31 30  2  0  0  0  0
 32 31  1  0  0  0  0
 33 38  1  1  0  0  0
 33 31  1  0  0  0  0
 33 47  1  0  0  0  0
 34 30  1  0  0  0  0
 34 36  1  0  0  0  0
 34 37  1  0  0  0  0
 35 34  1  0  0  0  0
 38 39  1  0  0  0  0
 38 40  1  0  0  0  0
 41 38  1  0  0  0  0
 42  4  1  0  0  0  0
 42  3  1  0  0  0  0
 43 42  1  0  0  0  0
 44  5  1  0  0  0  0
 45  7  1  0  0  0  0
 45 14  1  0  0  0  0
 46  1  1  0  0  0  0
 47  1  1  0  0  0  0
 48 21  1  0  0  0  0
M  END
$$$$
