CSD_code = EGOGAJ | q = 0 | S = 0 | Stoichiometry = C20H24ClN3Pd | MND = 5
 OpenBabel04212202033D

 49 50  0  0  1  0  0  0  0  0999 V2000
    4.9065   -0.4650    7.3285 Pd  0  0  0  0  0  0  0  0  0  0  0  0
    6.9022    0.1805    7.5065 C   0  0  0  0  0  0  0  0  0  0  0  0
    7.2360    1.0611    8.0469 H   0  0  0  0  0  0  0  0  0  0  0  0
    7.4700   -0.7177    7.7454 H   0  0  0  0  0  0  0  0  0  0  0  0
    6.4791    0.3581    6.1712 C   0  0  0  0  0  3  0  0  0  0  0  0
    6.3915    1.3685    5.7778 H   0  0  0  0  0  0  0  0  0  0  0  0
    5.9401   -0.7006    5.4476 C   0  0  0  0  0  3  0  0  0  0  0  0
    6.3131   -1.7168    5.6138 H   0  0  0  0  0  0  0  0  0  0  0  0
    5.5657   -0.5161    4.4460 H   0  0  0  0  0  0  0  0  0  0  0  0
    4.2806   -0.5856    9.2532 C   0  0  2  0  0  3  0  0  0  0  0  0
    4.7952   -2.9744    9.9378 C   0  0  0  0  0  0  0  0  0  0  0  0
    5.8306   -3.0499    8.8169 C   0  0  0  0  0  0  0  0  0  0  0  0
    5.3808   -2.7393    7.8604 H   0  0  0  0  0  0  0  0  0  0  0  0
    6.1650   -4.0794    8.7115 H   0  0  0  0  0  0  0  0  0  0  0  0
    6.6929   -2.4267    9.0568 H   0  0  0  0  0  0  0  0  0  0  0  0
    5.4304   -3.5036   11.2295 C   0  0  0  0  0  0  0  0  0  0  0  0
    6.1671   -2.7984   11.6090 H   0  0  0  0  0  0  0  0  0  0  0  0
    5.9312   -4.4458   11.0244 H   0  0  0  0  0  0  0  0  0  0  0  0
    4.6894   -3.6889   12.0021 H   0  0  0  0  0  0  0  0  0  0  0  0
    3.5644   -3.7987    9.5458 C   0  0  0  0  0  0  0  0  0  0  0  0
    2.8177   -3.7822   10.3366 H   0  0  0  0  0  0  0  0  0  0  0  0
    3.8477   -4.8298    9.3545 H   0  0  0  0  0  0  0  0  0  0  0  0
    3.1225   -3.3779    8.6425 H   0  0  0  0  0  0  0  0  0  0  0  0
    3.6325   -1.2434   11.2799 C   0  0  0  0  0  0  0  0  0  0  0  0
    3.5295   -1.8821   12.1304 H   0  0  0  0  0  0  0  0  0  0  0  0
    3.1396   -0.0027   11.0798 C   0  0  0  0  0  0  0  0  0  0  0  0
    2.5413    0.6202   11.7129 H   0  0  0  0  0  0  0  0  0  0  0  0
    3.0494    1.5493    9.1381 C   0  0  0  0  0  0  0  0  0  0  0  0
    2.3919    2.0911    9.8240 H   0  0  0  0  0  0  0  0  0  0  0  0
    2.4748    1.2060    8.2661 H   0  0  0  0  0  0  0  0  0  0  0  0
    4.1347    2.4740    8.6441 C   0  0  0  0  0  0  0  0  0  0  0  0
    4.8913    3.2401    9.4940 C   0  0  0  0  0  0  0  0  0  0  0  0
    4.7714    3.1349   10.5632 H   0  0  0  0  0  0  0  0  0  0  0  0
    5.8155    4.1723    8.9982 C   0  0  0  0  0  0  0  0  0  0  0  0
    6.4056    4.7496    9.6945 H   0  0  0  0  0  0  0  0  0  0  0  0
    5.9475    4.3749    7.6522 C   0  0  0  0  0  0  0  0  0  0  0  0
    6.6323    5.1173    7.2677 H   0  0  0  0  0  0  0  0  0  0  0  0
    5.1916    3.6103    6.7416 C   0  0  0  0  0  0  0  0  0  0  0  0
    5.2613    3.7700    5.3391 C   0  0  0  0  0  0  0  0  0  0  0  0
    5.9083    4.5316    4.9254 H   0  0  0  0  0  0  0  0  0  0  0  0
    4.5134    2.9545    4.5339 C   0  0  0  0  0  0  0  0  0  0  0  0
    4.5363    3.0545    3.4595 H   0  0  0  0  0  0  0  0  0  0  0  0
    3.7150    1.9569    5.1282 C   0  0  0  0  0  0  0  0  0  0  0  0
    3.1320    1.2789    4.5165 H   0  0  0  0  0  0  0  0  0  0  0  0
    4.3138    2.6107    7.2412 C   0  0  0  0  0  0  0  0  0  0  0  0
    2.9208   -1.5145    6.7998 Cl  0  0  0  0  0 15  0  0  0  0  0  0
    4.3338   -1.5955   10.1522 N   0  0  0  0  0  0  0  0  0  0  0  0
    3.5419    0.3814    9.8309 N   0  0  0  0  0  0  0  0  0  0  0  0
    3.6203    1.7840    6.4197 N   0  0  0  0  0  0  0  0  0  0  0  0
  1  2  1  0  0  0  0
  2  4  1  0  0  0  0
  2  3  1  0  0  0  0
  5  2  1  0  0  0  0
  6  5  1  0  0  0  0
  7  8  1  0  0  0  0
  7  5  1  0  0  0  0
  9  7  1  0  0  0  0
 10  1  1  6  0  0  0
 10 48  1  0  0  0  0
 10 47  1  0  0  0  0
 11 47  1  0  0  0  0
 11 16  1  0  0  0  0
 12 15  1  0  0  0  0
 12 11  1  0  0  0  0
 13 12  1  0  0  0  0
 14 12  1  0  0  0  0
 16 17  1  0  0  0  0
 16 19  1  0  0  0  0
 18 16  1  0  0  0  0
 20 11  1  0  0  0  0
 20 21  1  0  0  0  0
 22 20  1  0  0  0  0
 23 20  1  0  0  0  0
 24 25  1  0  0  0  0
 26 24  2  0  0  0  0
 26 27  1  0  0  0  0
 28 29  1  0  0  0  0
 28 48  1  0  0  0  0
 30 28  1  0  0  0  0
 31 28  1  0  0  0  0
 31 32  1  0  0  0  0
 32 33  1  0  0  0  0
 34 32  2  0  0  0  0
 34 35  1  0  0  0  0
 36 34  1  0  0  0  0
 37 36  1  0  0  0  0
 38 45  1  0  0  0  0
 38 36  2  0  0  0  0
 39 38  1  0  0  0  0
 40 39  1  0  0  0  0
 41 43  1  0  0  0  0
 41 39  2  0  0  0  0
 42 41  1  0  0  0  0
 43 49  2  0  0  0  0
 44 43  1  0  0  0  0
 45 31  2  0  0  0  0
 47 24  1  0  0  0  0
 48 26  1  0  0  0  0
 49 45  1  0  0  0  0
M  END
$$$$
