CSD_code = EGUCUF | q = 0 | S = 0 | Stoichiometry = C14H18Br2N2O2Pd | MND = 4
 OpenBabel04212202033D

 39 40  0  0  1  0  0  0  0  0999 V2000
    2.2163    9.8371    6.0226 Pd  0  0  0  0  0  0  0  0  0  0  0  0
    3.3165   10.2392    3.8938 Br  0  0  0  0  0  0  0  0  0  0  0  0
    1.1336    9.4453    8.1717 Br  0  0  0  0  0  0  0  0  0  0  0  0
    6.9255    5.0045    7.0730 O   0  0  0  0  0  0  0  0  0  0  0  0
    7.4210    4.2331    7.3672 H   0  0  0  0  0  0  0  0  0  0  0  0
   -2.3939   14.6548    4.5761 O   0  0  0  0  0  0  0  0  0  0  0  0
   -2.9901   15.4109    4.5840 H   0  0  0  0  0  0  0  0  0  0  0  0
    3.2901    8.2377    6.2891 N   0  0  0  0  0  0  0  0  0  0  0  0
    1.1321   11.4329    5.7758 N   0  0  0  0  0  0  0  0  0  0  0  0
    2.7512    7.0345    6.1043 C   0  0  0  0  0  3  0  0  0  0  0  0
    1.7161    7.0124    5.7635 H   0  0  0  0  0  0  0  0  0  0  0  0
    3.4557    5.8708    6.3364 C   0  0  0  0  0  0  0  0  0  0  0  0
    2.9846    4.9147    6.1697 H   0  0  0  0  0  0  0  0  0  0  0  0
    4.7698    5.9505    6.7878 C   0  0  0  0  0  0  0  0  0  0  0  0
    5.3212    7.2134    6.9680 C   0  0  0  0  0  0  0  0  0  0  0  0
    6.3410    7.3114    7.3004 H   0  0  0  0  0  0  0  0  0  0  0  0
    4.5513    8.3290    6.7028 C   0  0  0  0  0  0  0  0  0  0  0  0
    4.9511    9.3355    6.8243 H   0  0  0  0  0  0  0  0  0  0  0  0
    5.5494    4.7032    7.1132 C   0  0  2  0  0  0  0  0  0  0  0  0
    5.3115    3.9336    6.3586 H   0  0  0  0  0  0  0  0  0  0  0  0
    5.1235    4.1922    8.4968 C   0  0  0  0  0  0  0  0  0  0  0  0
    5.6443    3.2659    8.7328 H   0  0  0  0  0  0  0  0  0  0  0  0
    4.0534    4.0072    8.5201 H   0  0  0  0  0  0  0  0  0  0  0  0
    5.3680    4.9361    9.2518 H   0  0  0  0  0  0  0  0  0  0  0  0
   -0.1507   11.3300    5.4372 C   0  0  0  0  0  3  0  0  0  0  0  0
   -0.5347   10.3211    5.2878 H   0  0  0  0  0  0  0  0  0  0  0  0
   -0.9646   12.4361    5.2919 C   0  0  0  0  0  0  0  0  0  0  0  0
   -1.9984   12.3286    5.0096 H   0  0  0  0  0  0  0  0  0  0  0  0
   -0.4323   13.7023    5.5051 C   0  0  0  0  0  0  0  0  0  0  0  0
    0.9124   13.7948    5.8507 C   0  0  0  0  0  0  0  0  0  0  0  0
    1.3764   14.7544    6.0171 H   0  0  0  0  0  0  0  0  0  0  0  0
    1.6579   12.6396    5.9741 C   0  0  0  0  0  0  0  0  0  0  0  0
    2.7155   12.6725    6.2346 H   0  0  0  0  0  0  0  0  0  0  0  0
   -1.2925   14.9353    5.4098 C   0  0  2  0  0  0  0  0  0  0  0  0
   -0.6906   15.7513    4.9745 H   0  0  0  0  0  0  0  0  0  0  0  0
   -1.7411   15.3444    6.8198 C   0  0  0  0  0  0  0  0  0  0  0  0
   -2.3330   16.2569    6.7766 H   0  0  0  0  0  0  0  0  0  0  0  0
   -0.8782   15.5176    7.4565 H   0  0  0  0  0  0  0  0  0  0  0  0
   -2.3461   14.5522    7.2550 H   0  0  0  0  0  0  0  0  0  0  0  0
  1  8  1  0  0  0  0
  1  3  1  0  0  0  0
  2  1  1  0  0  0  0
  4 19  1  0  0  0  0
  4  5  1  0  0  0  0
  6  7  1  0  0  0  0
  6 34  1  0  0  0  0
  8 17  1  0  0  0  0
  9 32  1  0  0  0  0
  9  1  1  0  0  0  0
 10  8  1  0  0  0  0
 10 12  1  0  0  0  0
 11 10  1  0  0  0  0
 12 14  2  0  0  0  0
 13 12  1  0  0  0  0
 14 15  1  0  0  0  0
 14 19  1  0  0  0  0
 15 16  1  0  0  0  0
 17 18  1  0  0  0  0
 17 15  2  0  0  0  0
 19 20  1  6  0  0  0
 19 21  1  0  0  0  0
 21 23  1  0  0  0  0
 21 22  1  0  0  0  0
 21 24  1  0  0  0  0
 25  9  1  0  0  0  0
 26 25  1  0  0  0  0
 27 25  1  0  0  0  0
 27 29  2  0  0  0  0
 28 27  1  0  0  0  0
 29 30  1  0  0  0  0
 30 32  2  0  0  0  0
 30 31  1  0  0  0  0
 32 33  1  0  0  0  0
 34 35  1  6  0  0  0
 34 29  1  0  0  0  0
 34 36  1  0  0  0  0
 36 39  1  0  0  0  0
 36 38  1  0  0  0  0
 37 36  1  0  0  0  0
M  END
$$$$
