CSD_code = EGUCOZ | q = 0 | S = 0 | Stoichiometry = C14H18Cl2N2O2Pd | MND = 4
 OpenBabel04212202033D

 39 40  0  0  1  0  0  0  0  0999 V2000
    2.2754    9.8164    6.0668 Pd  0  0  0  0  0  0  0  0  0  0  0  0
    3.0217    9.9595    3.9167 Cl  0  0  0  0  0  0  0  0  0  0  0  0
    1.5212    9.6695    8.2264 Cl  0  0  0  0  0  0  0  0  0  0  0  0
    3.3139    8.2080    6.3417 N   0  0  0  0  0  0  0  0  0  0  0  0
    1.2300   11.4266    5.8323 N   0  0  0  0  0  0  0  0  0  0  0  0
    6.8951    4.9348    7.2269 O   0  0  0  0  0  0  0  0  0  0  0  0
    7.3736    4.1592    7.5385 H   0  0  0  0  0  0  0  0  0  0  0  0
   -2.1817   14.7918    4.6578 O   0  0  0  0  0  0  0  0  0  0  0  0
   -2.7754   15.5488    4.6969 H   0  0  0  0  0  0  0  0  0  0  0  0
    5.5153    4.6453    7.2214 C   0  0  2  0  0  0  0  0  0  0  0  0
    5.2962    3.8798    6.4572 H   0  0  0  0  0  0  0  0  0  0  0  0
    4.7574    5.9015    6.8766 C   0  0  0  0  0  0  0  0  0  0  0  0
    5.2979    7.1584    7.1216 C   0  0  0  0  0  0  0  0  0  0  0  0
    6.2957    7.2430    7.5188 H   0  0  0  0  0  0  0  0  0  0  0  0
    4.5469    8.2833    6.8389 C   0  0  0  0  0  3  0  0  0  0  0  0
    4.9353    9.2859    7.0177 H   0  0  0  0  0  0  0  0  0  0  0  0
    2.7871    7.0102    6.0928 C   0  0  0  0  0  0  0  0  0  0  0  0
    1.7796    7.0019    5.6776 H   0  0  0  0  0  0  0  0  0  0  0  0
    3.4734    5.8380    6.3435 C   0  0  0  0  0  0  0  0  0  0  0  0
    3.0135    4.8864    6.1260 H   0  0  0  0  0  0  0  0  0  0  0  0
    5.0409    4.1341    8.5889 C   0  0  0  0  0  0  0  0  0  0  0  0
    5.5470    3.2035    8.8405 H   0  0  0  0  0  0  0  0  0  0  0  0
    3.9694    3.9566    8.5753 H   0  0  0  0  0  0  0  0  0  0  0  0
    5.2646    4.8750    9.3530 H   0  0  0  0  0  0  0  0  0  0  0  0
   -1.1475   14.9772    5.5974 C   0  0  2  0  0  0  0  0  0  0  0  0
   -0.5104   15.8249    5.2908 H   0  0  0  0  0  0  0  0  0  0  0  0
   -0.3009   13.7311    5.6421 C   0  0  0  0  0  0  0  0  0  0  0  0
   -0.8101   12.4978    5.2530 C   0  0  0  0  0  0  0  0  0  0  0  0
   -1.8128   12.4323    4.8644 H   0  0  0  0  0  0  0  0  0  0  0  0
   -0.0138   11.3734    5.3606 C   0  0  0  0  0  3  0  0  0  0  0  0
   -0.3762   10.3896    5.0635 H   0  0  0  0  0  0  0  0  0  0  0  0
    1.7345   12.6038    6.1995 C   0  0  0  0  0  0  0  0  0  0  0  0
    2.7587   12.5959    6.5720 H   0  0  0  0  0  0  0  0  0  0  0  0
    1.0062   13.7743    6.1182 C   0  0  0  0  0  0  0  0  0  0  0  0
    1.4513   14.7089    6.4229 H   0  0  0  0  0  0  0  0  0  0  0  0
   -1.7037   15.2547    7.0011 C   0  0  0  0  0  0  0  0  0  0  0  0
   -2.2866   16.1743    7.0016 H   0  0  0  0  0  0  0  0  0  0  0  0
   -0.8926   15.3543    7.7164 H   0  0  0  0  0  0  0  0  0  0  0  0
   -2.3443   14.4312    7.3086 H   0  0  0  0  0  0  0  0  0  0  0  0
  1  4  1  0  0  0  0
  1  3  1  0  0  0  0
  2  1  1  0  0  0  0
  4 15  1  0  0  0  0
  5  1  1  0  0  0  0
  5 32  1  0  0  0  0
  6  7  1  0  0  0  0
  8  9  1  0  0  0  0
  8 25  1  0  0  0  0
 10 11  1  6  0  0  0
 10  6  1  0  0  0  0
 10 21  1  0  0  0  0
 12 13  2  0  0  0  0
 12 10  1  0  0  0  0
 13 14  1  0  0  0  0
 15 16  1  0  0  0  0
 15 13  1  0  0  0  0
 17  4  1  0  0  0  0
 17 19  2  0  0  0  0
 18 17  1  0  0  0  0
 19 12  1  0  0  0  0
 20 19  1  0  0  0  0
 21 22  1  0  0  0  0
 21 24  1  0  0  0  0
 23 21  1  0  0  0  0
 25 26  1  6  0  0  0
 25 27  1  0  0  0  0
 25 36  1  0  0  0  0
 27 34  1  0  0  0  0
 28 30  1  0  0  0  0
 28 27  2  0  0  0  0
 29 28  1  0  0  0  0
 30  5  1  0  0  0  0
 31 30  1  0  0  0  0
 32 33  1  0  0  0  0
 34 32  2  0  0  0  0
 34 35  1  0  0  0  0
 36 37  1  0  0  0  0
 36 39  1  0  0  0  0
 36 38  1  0  0  0  0
M  END
$$$$
