CSD_code = EGUGET | q = 0 | S = 0 | Stoichiometry = C14H18CdI2N2 | MND = 4
 OpenBabel04212202033D

 37 36  0  0  0  0  0  0  0  0999 V2000
   -0.9196    1.8233    5.7078 I   0  0  0  0  0  0  0  0  0  0  0  0
   -1.5422    1.0673    3.2188 Cd  0  0  0  0  0  0  0  0  0  0  0  0
   -3.2752   -0.7480    4.0539 N   0  0  0  0  0  0  0  0  0  0  0  0
   -3.3463   -1.7252    3.7852 H   0  0  0  0  0  0  0  0  0  0  0  0
   -3.2321   -0.6743    5.0689 H   0  0  0  0  0  0  0  0  0  0  0  0
   -4.3565    0.0209    3.5344 C   0  0  0  0  0  0  0  0  0  0  0  0
   -4.7971    1.1407    4.2358 C   0  0  0  0  0  0  0  0  0  0  0  0
   -4.3726    1.3676    5.2075 H   0  0  0  0  0  0  0  0  0  0  0  0
   -5.7833    1.9528    3.7041 C   0  0  0  0  0  0  0  0  0  0  0  0
   -6.1141    2.8205    4.2544 H   0  0  0  0  0  0  0  0  0  0  0  0
   -6.3401    1.6461    2.4750 C   0  0  0  0  0  0  0  0  0  0  0  0
   -7.1054    2.2783    2.0527 H   0  0  0  0  0  0  0  0  0  0  0  0
   -5.9086    0.5279    1.7836 C   0  0  0  0  0  0  0  0  0  0  0  0
   -6.3387    0.2951    0.8210 H   0  0  0  0  0  0  0  0  0  0  0  0
   -4.9175   -0.2985    2.2927 C   0  0  0  0  0  0  0  0  0  0  0  0
   -4.4372   -1.4929    1.5210 C   0  0  0  0  0  0  0  0  0  0  0  0
   -3.3598   -1.4361    1.3515 H   0  0  0  0  0  0  0  0  0  0  0  0
   -4.9298   -1.5363    0.5542 H   0  0  0  0  0  0  0  0  0  0  0  0
   -4.6531   -2.4204    2.0557 H   0  0  0  0  0  0  0  0  0  0  0  0
   -2.1604    1.8143    0.7258 I   0  0  0  0  0  0  0  0  0  0  0  0
    0.1946   -0.7466    2.3955 N   0  0  0  0  0  0  0  0  0  0  0  0
    0.2632   -1.7232    2.6675 H   0  0  0  0  0  0  0  0  0  0  0  0
    0.1527   -0.6762    1.3802 H   0  0  0  0  0  0  0  0  0  0  0  0
    1.2774    0.0212    2.9135 C   0  0  0  0  0  0  0  0  0  0  0  0
    1.7158    1.1421    2.2126 C   0  0  0  0  0  0  0  0  0  0  0  0
    1.2879    1.3710    1.2429 H   0  0  0  0  0  0  0  0  0  0  0  0
    2.7041    1.9531    2.7421 C   0  0  0  0  0  0  0  0  0  0  0  0
    3.0330    2.8218    2.1924 H   0  0  0  0  0  0  0  0  0  0  0  0
    3.2654    1.6439    3.9686 C   0  0  0  0  0  0  0  0  0  0  0  0
    4.0325    2.2750    4.3892 H   0  0  0  0  0  0  0  0  0  0  0  0
    2.8358    0.5248    4.6597 C   0  0  0  0  0  0  0  0  0  0  0  0
    3.2692    0.2901    5.6204 H   0  0  0  0  0  0  0  0  0  0  0  0
    1.8425   -0.3003    4.1527 C   0  0  0  0  0  0  0  0  0  0  0  0
    1.3640   -1.4953    4.9246 C   0  0  0  0  0  0  0  0  0  0  0  0
    0.2881   -1.4352    5.1023 H   0  0  0  0  0  0  0  0  0  0  0  0
    1.8636   -1.5429    5.8877 H   0  0  0  0  0  0  0  0  0  0  0  0
    1.5730   -2.4222    4.3861 H   0  0  0  0  0  0  0  0  0  0  0  0
  2  1  1  0  0  0  0
  3  5  1  0  0  0  0
  4  3  1  0  0  0  0
  6  3  1  0  0  0  0
  6  7  1  0  0  0  0
  7  8  1  0  0  0  0
  9  7  2  0  0  0  0
  9 10  1  0  0  0  0
 11  9  1  0  0  0  0
 12 11  1  0  0  0  0
 13 15  1  0  0  0  0
 13 11  2  0  0  0  0
 14 13  1  0  0  0  0
 15  6  2  0  0  0  0
 16 19  1  0  0  0  0
 16 15  1  0  0  0  0
 17 16  1  0  0  0  0
 18 16  1  0  0  0  0
 20  2  1  0  0  0  0
 21 22  1  0  0  0  0
 21 24  1  0  0  0  0
 23 21  1  0  0  0  0
 24 33  1  0  0  0  0
 25 27  1  0  0  0  0
 25 24  2  0  0  0  0
 26 25  1  0  0  0  0
 27 29  2  0  0  0  0
 28 27  1  0  0  0  0
 29 30  1  0  0  0  0
 29 31  1  0  0  0  0
 31 32  1  0  0  0  0
 33 31  2  0  0  0  0
 33 34  1  0  0  0  0
 34 35  1  0  0  0  0
 34 36  1  0  0  0  0
 37 34  1  0  0  0  0
M  END
$$$$
