CSD_code = EGUVOR | q = 0 | S = 0 | Stoichiometry = C20H16Br2Cl4FeN4O4 | MND = 6
 OpenBabel04212202033D

 51 50  0  0  0  0  0  0  0  0999 V2000
    0.9416   -0.6544    3.7450 Fe  0  0  0  0  0  0  0  0  0  0  0  0
    0.4147    0.9271    5.3881 Br  0  0  0  0  0  0  0  0  0  0  0  0
    1.4574   -2.2407    2.1028 Br  0  0  0  0  0  0  0  0  0  0  0  0
    0.0504    5.5833    0.1177 Cl  0  0  0  0  0  0  0  0  0  0  0  0
    6.2144    2.7395    7.2299 Cl  0  0  0  0  0  0  0  0  0  0  0  0
    2.0339   -7.0327    6.9578 Cl  0  0  0  0  0  0  0  0  0  0  0  0
   -4.6486   -3.8550    0.4898 Cl  0  0  0  0  0  0  0  0  0  0  0  0
    2.1211    0.8813    2.7477 O   0  0  0  0  0  0  0  0  0  0  0  0
    2.9094    0.9987    3.3692 H   0  0  0  0  0  0  0  0  0  0  0  0
    2.7331   -1.1960    4.8489 O   0  0  0  0  0  0  0  0  0  0  0  0
    2.4320   -1.9799    5.4063 H   0  0  0  0  0  0  0  0  0  0  0  0
   -0.2289   -2.2023    4.7509 O   0  0  0  0  0  0  0  0  0  0  0  0
   -1.0279   -2.2974    4.1404 H   0  0  0  0  0  0  0  0  0  0  0  0
   -0.8321   -0.0989    2.6339 O   0  0  0  0  0  0  0  0  0  0  0  0
   -0.5255    0.6703    2.0586 H   0  0  0  0  0  0  0  0  0  0  0  0
    0.4841    1.9616    1.6289 N   0  0  0  0  0  0  0  0  0  0  0  0
    3.8424    0.7629    4.7728 N   0  0  0  0  0  0  0  0  0  0  0  0
    1.4497   -3.3121    5.7744 N   0  0  0  0  0  0  0  0  0  0  0  0
   -2.0116   -2.0126    2.7764 N   0  0  0  0  0  0  0  0  0  0  0  0
    1.6933    2.0114    2.1872 C   0  0  0  0  0  0  0  0  0  0  0  0
    2.4742    3.1732    2.1570 C   0  0  0  0  0  0  0  0  0  0  0  0
    3.4428    3.1822    2.6304 H   0  0  0  0  0  0  0  0  0  0  0  0
    1.9788    4.2884    1.5200 C   0  0  0  0  0  0  0  0  0  0  0  0
    2.5484    5.2032    1.4765 H   0  0  0  0  0  0  0  0  0  0  0  0
    0.7171    4.2181    0.9302 C   0  0  0  0  0  0  0  0  0  0  0  0
    0.0063    3.0353    1.0172 C   0  0  0  0  0  0  0  0  0  0  0  0
   -0.9815    2.9435    0.5888 H   0  0  0  0  0  0  0  0  0  0  0  0
   -1.6999   -0.9325    2.0605 C   0  0  0  0  0  0  0  0  0  0  0  0
   -2.2672   -0.6822    0.8067 C   0  0  0  0  0  0  0  0  0  0  0  0
   -1.9742    0.1921    0.2472 H   0  0  0  0  0  0  0  0  0  0  0  0
   -3.1812   -1.5813    0.3039 C   0  0  0  0  0  0  0  0  0  0  0  0
   -3.6365   -1.4302   -0.6620 H   0  0  0  0  0  0  0  0  0  0  0  0
   -3.5066   -2.7016    1.0666 C   0  0  0  0  0  0  0  0  0  0  0  0
   -2.8909   -2.8761    2.2928 C   0  0  0  0  0  0  0  0  0  0  0  0
   -3.1106   -3.7363    2.9086 H   0  0  0  0  0  0  0  0  0  0  0  0
    0.2429   -3.3613    5.2112 C   0  0  0  0  0  0  0  0  0  0  0  0
   -0.4893   -4.5517    5.1356 C   0  0  0  0  0  0  0  0  0  0  0  0
   -1.4546   -4.5601    4.6556 H   0  0  0  0  0  0  0  0  0  0  0  0
    0.0529   -5.6985    5.6708 C   0  0  0  0  0  0  0  0  0  0  0  0
   -0.4770   -6.6368    5.6275 H   0  0  0  0  0  0  0  0  0  0  0  0
    1.3104   -5.6291    6.2691 C   0  0  0  0  0  0  0  0  0  0  0  0
    1.9722   -4.4153    6.2893 C   0  0  0  0  0  0  0  0  0  0  0  0
    2.9563   -4.3211    6.7256 H   0  0  0  0  0  0  0  0  0  0  0  0
    3.5295   -0.3264    5.4737 C   0  0  0  0  0  0  0  0  0  0  0  0
    4.0210   -0.5481    6.7637 C   0  0  0  0  0  0  0  0  0  0  0  0
    3.7296   -1.4329    7.3075 H   0  0  0  0  0  0  0  0  0  0  0  0
    4.8537    0.3955    7.3237 C   0  0  0  0  0  0  0  0  0  0  0  0
    5.2456    0.2696    8.3205 H   0  0  0  0  0  0  0  0  0  0  0  0
    5.1768    1.5286    6.5796 C   0  0  0  0  0  0  0  0  0  0  0  0
    4.6426    1.6695    5.3113 C   0  0  0  0  0  0  0  0  0  0  0  0
    4.8608    2.5389    4.7082 H   0  0  0  0  0  0  0  0  0  0  0  0
  1  2  1  0  0  0  0
  3  1  1  0  0  0  0
  4 25  1  0  0  0  0
  7 33  1  0  0  0  0
  8  9  1  0  0  0  0
 10 11  1  0  0  0  0
 10 44  1  0  0  0  0
 12 36  1  0  0  0  0
 13 12  1  0  0  0  0
 15 14  1  0  0  0  0
 16 20  2  0  0  0  0
 17 50  1  0  0  0  0
 17 44  2  0  0  0  0
 18 42  1  0  0  0  0
 20  8  1  0  0  0  0
 21 20  1  0  0  0  0
 21 22  1  0  0  0  0
 23 21  2  0  0  0  0
 24 23  1  0  0  0  0
 25 26  2  0  0  0  0
 25 23  1  0  0  0  0
 26 16  1  0  0  0  0
 27 26  1  0  0  0  0
 28 14  1  0  0  0  0
 28 19  2  0  0  0  0
 29 28  1  0  0  0  0
 30 29  1  0  0  0  0
 31 29  2  0  0  0  0
 31 33  1  0  0  0  0
 32 31  1  0  0  0  0
 33 34  2  0  0  0  0
 34 19  1  0  0  0  0
 34 35  1  0  0  0  0
 36 18  2  0  0  0  0
 37 36  1  0  0  0  0
 37 39  2  0  0  0  0
 38 37  1  0  0  0  0
 39 41  1  0  0  0  0
 40 39  1  0  0  0  0
 41 42  2  0  0  0  0
 41  6  1  0  0  0  0
 42 43  1  0  0  0  0
 44 45  1  0  0  0  0
 45 46  1  0  0  0  0
 45 47  2  0  0  0  0
 47 48  1  0  0  0  0
 49  5  1  0  0  0  0
 49 47  1  0  0  0  0
 50 49  2  0  0  0  0
 51 50  1  0  0  0  0
M  END
$$$$
