CSD_code = EHAFAW | q = 0 | S = 0 | Stoichiometry = C10H13Cl3N4Pd | MND = 4
 OpenBabel04212202033D

 31 33  0  0  1  0  0  0  0  0999 V2000
    1.4220    7.0655    7.8524 Pd  0  0  0  0  0  0  0  0  0  0  0  0
    2.7507    6.3568    6.1738 Cl  0  0  0  0  0  0  0  0  0  0  0  0
    1.2713    9.1252    6.9380 Cl  0  0  0  0  0  0  0  0  0  0  0  0
   -1.8691    4.1472    6.5602 Cl  0  0  0  0  0  0  0  0  0  0  0  0
    2.1875    4.2207    8.8164 N   0  0  0  0  0  0  0  0  0  0  0  0
    0.0991    4.7205    8.9057 N   0  0  0  0  0  0  0  0  0  0  0  0
   -0.9594    6.7603    9.4559 N   0  0  0  0  0  0  0  0  0  0  0  0
   -0.0904    8.6379   10.0420 N   0  0  0  0  0  0  0  0  0  0  0  0
    1.3251    5.2163    8.5947 C   0  0  2  0  0  3  0  0  0  0  0  0
    1.5218    3.1026    9.2480 C   0  0  0  0  0  0  0  0  0  0  0  0
    0.2063    3.4121    9.3070 C   0  0  0  0  0  0  0  0  0  0  0  0
   -1.1179    5.4896    8.7853 C   0  0  1  0  0  0  0  0  0  0  0  0
    0.1015    7.5829    9.2446 C   0  0  0  0  0  0  0  0  0  0  0  0
   -1.2598    8.4979   10.7432 C   0  0  0  0  0  0  0  0  0  0  0  0
   -1.8106    7.3167   10.3806 C   0  0  0  0  0  0  0  0  0  0  0  0
    3.6117    4.3124    8.6422 C   0  0  0  0  0  0  0  0  0  0  0  0
    0.8112    9.7520   10.1584 C   0  0  0  0  0  0  0  0  0  0  0  0
   -1.4645    5.7137    7.3003 C   0  0  0  0  0  0  0  0  0  0  0  0
    2.0280    2.1867    9.4741 H   0  0  0  0  0  0  0  0  0  0  0  0
   -0.6427    2.8204    9.5799 H   0  0  0  0  0  0  0  0  0  0  0  0
   -1.9305    4.9328    9.2696 H   0  0  0  0  0  0  0  0  0  0  0  0
   -1.6041    9.2377   11.4365 H   0  0  0  0  0  0  0  0  0  0  0  0
   -2.7171    6.8406   10.6922 H   0  0  0  0  0  0  0  0  0  0  0  0
    4.1209    4.1551    9.5944 H   0  0  0  0  0  0  0  0  0  0  0  0
    3.8414    5.3061    8.2471 H   0  0  0  0  0  0  0  0  0  0  0  0
    3.9502    3.5674    7.9223 H   0  0  0  0  0  0  0  0  0  0  0  0
    1.6405    9.5897    9.4636 H   0  0  0  0  0  0  0  0  0  0  0  0
    1.1828    9.8336   11.1810 H   0  0  0  0  0  0  0  0  0  0  0  0
    0.3046   10.6762    9.8801 H   0  0  0  0  0  0  0  0  0  0  0  0
   -0.5920    6.1433    6.7663 H   0  0  0  0  0  0  0  0  0  0  0  0
   -2.3303    6.3692    7.2030 H   0  0  0  0  0  0  0  0  0  0  0  0
  1  9  1  0  0  0  0
  1 13  2  0  0  0  0
  2  1  1  0  0  0  0
  3  1  1  0  0  0  0
  4 18  1  0  0  0  0
  5 10  1  0  0  0  0
  6 11  1  0  0  0  0
  7 15  1  0  0  0  0
  8 17  1  0  0  0  0
  8 14  1  0  0  0  0
  9  5  1  6  0  0  0
  9  6  1  0  0  0  0
 10 11  2  0  0  0  0
 10 19  1  0  0  0  0
 11 20  1  0  0  0  0
 12  6  1  0  0  0  0
 12 21  1  1  0  0  0
 12  7  1  0  0  0  0
 13  7  1  0  0  0  0
 13  8  1  0  0  0  0
 14 22  1  0  0  0  0
 15 23  1  0  0  0  0
 15 14  2  0  0  0  0
 16  5  1  0  0  0  0
 16 24  1  0  0  0  0
 17 28  1  0  0  0  0
 18 12  1  0  0  0  0
 25 16  1  0  0  0  0
 26 16  1  0  0  0  0
 27 17  1  0  0  0  0
 29 17  1  0  0  0  0
 30 18  1  0  0  0  0
 31 18  1  0  0  0  0
M  END
$$$$
