CSD_code = EHAFIC | q = -1 | S = 0 | Stoichiometry = C7H6Cl4NO2Pt(1-) | MND = 6
 OpenBabel04212202033D

 21 22  0  0  0  0  0  0  0  0999 V2000
    9.5086    0.5696    3.9247 Pt  0  0  0  0  0  0  0  0  0  0  0  0
    9.9124    2.3661    2.5473 Cl  0  0  0  0  0  0  0  0  0  0  0  0
   11.7821    0.3906    4.4377 Cl  0  0  0  0  0  0  0  0  0  0  0  0
    9.1248    1.9725    5.7929 Cl  0  0  0  0  0  0  0  0  0  0  0  0
    9.7260   -0.9674    2.1367 Cl  0  0  0  0  0  0  0  0  0  0  0  0
    7.5282    0.7752    3.4385 O   0  0  0  0  0  0  0  0  0  0  0  0
   10.1710   -1.6401    5.7922 O   0  0  0  0  0  0  0  0  0  0  0  0
    9.1298   -1.0251    5.1447 N   0  0  0  0  0  0  0  0  0  0  0  0
    6.5884    0.0370    3.9037 C   0  0  0  0  0  0  0  0  0  0  0  0
    5.2739    0.3520    3.4645 C   0  0  0  0  0  0  0  0  0  0  0  0
    5.1833    1.1844    2.7837 H   0  0  0  0  0  0  0  0  0  0  0  0
    4.1789   -0.3550    3.8764 C   0  0  0  0  0  0  0  0  0  0  0  0
    3.1971   -0.0792    3.5171 H   0  0  0  0  0  0  0  0  0  0  0  0
    4.3197   -1.4295    4.7577 C   0  0  0  0  0  0  0  0  0  0  0  0
    3.4535   -1.9871    5.0815 H   0  0  0  0  0  0  0  0  0  0  0  0
    5.5715   -1.7626    5.2036 C   0  0  0  0  0  0  0  0  0  0  0  0
    5.6935   -2.5921    5.8870 H   0  0  0  0  0  0  0  0  0  0  0  0
    6.7245   -1.0601    4.8061 C   0  0  0  0  0  0  0  0  0  0  0  0
    7.9633   -1.5121    5.3522 C   0  0  0  0  0  3  0  0  0  0  0  0
    7.9135   -2.3677    6.0250 H   0  0  0  0  0  0  0  0  0  0  0  0
   10.9870   -1.1354    5.5198 H   0  0  0  0  0  0  0  0  0  0  0  0
  1  3  1  0  0  0  0
  1  8  1  0  0  0  0
  1  4  1  0  0  0  0
  2  1  1  0  0  0  0
  5  1  1  0  0  0  0
  6  9  1  0  0  0  0
  6  1  1  0  0  0  0
  8 19  1  0  0  0  0
  8  7  1  0  0  0  0
  9 18  1  0  0  0  0
 10 12  1  0  0  0  0
 10  9  2  0  0  0  0
 11 10  1  0  0  0  0
 12 14  2  0  0  0  0
 13 12  1  0  0  0  0
 14 15  1  0  0  0  0
 14 16  1  0  0  0  0
 16 17  1  0  0  0  0
 18 16  2  0  0  0  0
 18 19  1  0  0  0  0
 19 20  1  0  0  0  0
 21  7  1  0  0  0  0
M  END
$$$$
