CSD_code = EHENOW | q = 0 | S = 0 | Stoichiometry = C28H36ClNTi | MND = 12
 OpenBabel04212202033D

 67 70  0  0  1  0  0  0  0  0999 V2000
    1.3133   12.3139   12.8757 Ti  0  0  2  0  0  0  0  0  0  0  0  0
    3.4798   11.4583   12.2597 C   0  0  0  0  0  0  0  0  0  0  0  0
    2.4897   10.5019   11.9382 C   0  0  0  0  0  0  0  0  0  0  0  0
    2.2721   10.0982   10.9587 H   0  0  0  0  0  0  0  0  0  0  0  0
    1.8779   10.0539   13.1330 C   0  0  1  0  0  0  0  0  0  0  0  0
    1.1563    9.2481   13.1996 H   0  0  0  0  0  0  0  0  0  0  0  0
    2.4952   10.7164   14.2024 C   0  0  0  0  0  0  0  0  0  0  0  0
    2.3718   10.4855   15.2506 H   0  0  0  0  0  0  0  0  0  0  0  0
    3.4514   11.6069   13.6711 C   0  0  0  0  0  0  0  0  0  0  0  0
    4.1661   12.1564   14.2670 H   0  0  0  0  0  0  0  0  0  0  0  0
    4.4973   12.0579   11.3031 C   0  0  0  0  0  0  0  0  0  0  0  0
    4.3976   11.3301    9.9529 C   0  0  0  0  0  0  0  0  0  0  0  0
    4.4505   10.2549   10.1105 H   0  0  0  0  0  0  0  0  0  0  0  0
    5.2225   11.6070    9.3025 H   0  0  0  0  0  0  0  0  0  0  0  0
    3.4618   11.5658    9.4506 H   0  0  0  0  0  0  0  0  0  0  0  0
    5.8907   11.7586   11.8836 C   0  0  0  0  0  0  0  0  0  0  0  0
    6.0220   12.1880   12.8713 H   0  0  0  0  0  0  0  0  0  0  0  0
    6.6799   12.1299   11.2347 H   0  0  0  0  0  0  0  0  0  0  0  0
    6.0081   10.6804   11.9714 H   0  0  0  0  0  0  0  0  0  0  0  0
    4.2795   13.6057   11.0674 C   0  0  0  0  0  0  0  0  0  0  0  0
    5.1479   14.1206    9.9154 C   0  0  0  0  0  0  0  0  0  0  0  0
    5.1687   15.2073    9.9185 H   0  0  0  0  0  0  0  0  0  0  0  0
    4.7736   13.7966    8.9487 H   0  0  0  0  0  0  0  0  0  0  0  0
    6.1739   13.7788   10.0268 H   0  0  0  0  0  0  0  0  0  0  0  0
    4.6047   14.4301   12.3197 C   0  0  0  0  0  0  0  0  0  0  0  0
    5.6572   14.3490   12.5791 H   0  0  0  0  0  0  0  0  0  0  0  0
    3.9886   14.1032   13.1547 H   0  0  0  0  0  0  0  0  0  0  0  0
    4.3861   15.4799   12.1289 H   0  0  0  0  0  0  0  0  0  0  0  0
    2.7795   13.7859   10.7867 C   0  0  1  0  0  3  0  0  0  0  0  0
    2.2856   14.3346    9.4929 C   0  0  0  0  0  0  0  0  0  0  0  0
    2.5674   15.6287    9.0698 C   0  0  0  0  0  0  0  0  0  0  0  0
    3.1979   16.2712    9.6668 H   0  0  0  0  0  0  0  0  0  0  0  0
    2.0152   16.1132    7.8970 C   0  0  0  0  0  0  0  0  0  0  0  0
    2.2392   17.1205    7.5764 H   0  0  0  0  0  0  0  0  0  0  0  0
    1.1753   15.3151    7.1392 C   0  0  0  0  0  0  0  0  0  0  0  0
    0.7523   15.6948    6.2208 H   0  0  0  0  0  0  0  0  0  0  0  0
    0.8637   14.0369    7.5734 C   0  0  0  0  0  0  0  0  0  0  0  0
    0.1894   13.4191    6.9993 H   0  0  0  0  0  0  0  0  0  0  0  0
    1.4042   13.5526    8.7499 C   0  0  0  0  0  0  0  0  0  0  0  0
    1.1386   12.5696    9.1152 H   0  0  0  0  0  0  0  0  0  0  0  0
   -0.2615   13.9468   13.3239 C   0  0  1  0  0  0  0  0  0  0  0  0
   -0.6728   12.7862   14.0282 C   0  0  1  0  0  3  0  0  0  0  0  0
    0.2959   12.5110   15.0266 C   0  0  0  0  0  0  0  0  0  0  0  0
    1.3047   13.5112   14.9551 C   0  0  0  0  0  0  0  0  0  0  0  0
    0.9597   14.4052   13.9076 C   0  0  2  0  0  3  0  0  0  0  0  0
   -1.0317   14.6577   12.2528 C   0  0  0  0  0  0  0  0  0  0  0  0
   -1.5829   13.9438   11.6415 H   0  0  0  0  0  0  0  0  0  0  0  0
   -0.3567   15.2125   11.6012 H   0  0  0  0  0  0  0  0  0  0  0  0
   -1.7438   15.3576   12.6975 H   0  0  0  0  0  0  0  0  0  0  0  0
   -1.9945   12.0895   13.9148 C   0  0  0  0  0  0  0  0  0  0  0  0
   -1.8855   11.0122   14.0397 H   0  0  0  0  0  0  0  0  0  0  0  0
   -2.4530   12.2745   12.9465 H   0  0  0  0  0  0  0  0  0  0  0  0
   -2.6687   12.4566   14.6938 H   0  0  0  0  0  0  0  0  0  0  0  0
    0.0664   11.5359   16.1459 C   0  0  0  0  0  0  0  0  0  0  0  0
   -0.8019   11.8580   16.7265 H   0  0  0  0  0  0  0  0  0  0  0  0
    0.9171   11.4906   16.8230 H   0  0  0  0  0  0  0  0  0  0  0  0
   -0.1446   10.5313   15.7754 H   0  0  0  0  0  0  0  0  0  0  0  0
    2.3778   13.7407   15.9806 C   0  0  0  0  0  0  0  0  0  0  0  0
    1.9726   14.3270   16.8098 H   0  0  0  0  0  0  0  0  0  0  0  0
    3.2183   14.2941   15.5640 H   0  0  0  0  0  0  0  0  0  0  0  0
    2.7540   12.8040   16.3893 H   0  0  0  0  0  0  0  0  0  0  0  0
    1.5623   15.7530   13.6358 C   0  0  0  0  0  0  0  0  0  0  0  0
    1.7188   15.9069   12.5677 H   0  0  0  0  0  0  0  0  0  0  0  0
    2.5116   15.8774   14.1513 H   0  0  0  0  0  0  0  0  0  0  0  0
    0.8800   16.5293   13.9903 H   0  0  0  0  0  0  0  0  0  0  0  0
   -0.2381   11.4687   11.4143 Cl  0  0  0  0  0  0  0  0  0  0  0  0
    1.9217   13.4544   11.6315 N   0  0  0  0  0  2  0  0  0  0  0  0
  1 66  1  6  0  0  0
  1  5  1  0  0  0  0
  1 41  1  0  0  0  0
  2  9  1  0  0  0  0
  3  2  2  0  0  0  0
  3  5  1  0  0  0  0
  4  3  1  0  0  0  0
  5  6  1  1  0  0  0
  5  7  1  0  0  0  0
  7  8  1  0  0  0  0
  9  7  2  0  0  0  0
  9 10  1  0  0  0  0
 11 16  1  0  0  0  0
 11  2  1  0  0  0  0
 12 13  1  0  0  0  0
 12 11  1  0  0  0  0
 14 12  1  0  0  0  0
 15 12  1  0  0  0  0
 16 19  1  0  0  0  0
 16 17  1  0  0  0  0
 18 16  1  0  0  0  0
 20 11  1  0  0  0  0
 20 25  1  0  0  0  0
 21 22  1  0  0  0  0
 21 24  1  0  0  0  0
 21 20  1  0  0  0  0
 23 21  1  0  0  0  0
 25 26  1  0  0  0  0
 25 27  1  0  0  0  0
 28 25  1  0  0  0  0
 29 30  1  6  0  0  0
 29 20  1  0  0  0  0
 29 67  1  0  0  0  0
 31 30  1  0  0  0  0
 31 32  1  0  0  0  0
 33 31  2  0  0  0  0
 34 33  1  0  0  0  0
 35 37  2  0  0  0  0
 35 33  1  0  0  0  0
 36 35  1  0  0  0  0
 37 39  1  0  0  0  0
 38 37  1  0  0  0  0
 39 40  1  0  0  0  0
 39 30  2  0  0  0  0
 41 46  1  6  0  0  0
 41 45  1  0  0  0  0
 41 42  1  0  0  0  0
 42 50  1  1  0  0  0
 42 43  1  0  0  0  0
 43 54  1  0  0  0  0
 44 43  2  0  0  0  0
 44 58  1  0  0  0  0
 45 62  1  1  0  0  0
 45 44  1  0  0  0  0
 46 49  1  0  0  0  0
 47 46  1  0  0  0  0
 48 46  1  0  0  0  0
 50 51  1  0  0  0  0
 50 53  1  0  0  0  0
 52 50  1  0  0  0  0
 54 55  1  0  0  0  0
 54 56  1  0  0  0  0
 57 54  1  0  0  0  0
 58 61  1  0  0  0  0
 58 59  1  0  0  0  0
 60 58  1  0  0  0  0
 62 65  1  0  0  0  0
 62 64  1  0  0  0  0
 63 62  1  0  0  0  0
 67  1  1  0  0  0  0
M  END
$$$$
