CSD_code = EHEPOY | q = 0 | S = 0 | Stoichiometry = C16H25Cl2NTi | MND = 8
 OpenBabel04212202033D

 45 46  0  0  1  0  0  0  0  0999 V2000
    9.5833    5.2621   13.6470 Ti  0  0  0  0  0  0  0  0  0  0  0  0
   11.2391    3.8959   13.2263 Cl  0  0  0  0  0  0  0  0  0  0  0  0
   10.7403    7.0093   14.2011 Cl  0  0  0  0  0  0  0  0  0  0  0  0
    7.3412    5.0703   13.9073 C   0  0  1  0  0  0  0  0  0  0  0  0
    7.9049    3.7613   13.9505 C   0  0  0  0  0  3  0  0  0  0  0  0
    7.6798    2.9330   13.2905 H   0  0  0  0  0  0  0  0  0  0  0  0
    8.7186    3.6587   15.1015 C   0  0  0  0  0  0  0  0  0  0  0  0
    9.2085    2.7556   15.4448 H   0  0  0  0  0  0  0  0  0  0  0  0
    8.6792    4.8920   15.7760 C   0  0  0  0  0  0  0  0  0  0  0  0
    9.1222    5.1082   16.7408 H   0  0  0  0  0  0  0  0  0  0  0  0
    7.8280    5.7577   15.0528 C   0  0  0  0  0  3  0  0  0  0  0  0
    7.5174    6.7359   15.3953 H   0  0  0  0  0  0  0  0  0  0  0  0
    6.3318    5.5909   12.8973 C   0  0  0  0  0  0  0  0  0  0  0  0
    5.1143    6.0954   13.6912 C   0  0  0  0  0  0  0  0  0  0  0  0
    4.8118    5.3236   14.3959 H   0  0  0  0  0  0  0  0  0  0  0  0
    4.2731    6.2980   13.0345 H   0  0  0  0  0  0  0  0  0  0  0  0
    5.3408    6.9924   14.2584 H   0  0  0  0  0  0  0  0  0  0  0  0
    5.8624    4.4085   12.0336 C   0  0  0  0  0  0  0  0  0  0  0  0
    6.6839    4.0202   11.4342 H   0  0  0  0  0  0  0  0  0  0  0  0
    5.0521    4.7013   11.3725 H   0  0  0  0  0  0  0  0  0  0  0  0
    5.4874    3.6143   12.6753 H   0  0  0  0  0  0  0  0  0  0  0  0
    6.9316    6.7182   11.9544 C   0  0  0  0  0  0  0  0  0  0  0  0
    7.4854    7.9224   12.7429 C   0  0  0  0  0  0  0  0  0  0  0  0
    7.7902    8.6945   12.0383 H   0  0  0  0  0  0  0  0  0  0  0  0
    8.3612    7.6515   13.3361 H   0  0  0  0  0  0  0  0  0  0  0  0
    6.7222    8.3484   13.3894 H   0  0  0  0  0  0  0  0  0  0  0  0
    5.8365    7.2886   11.0483 C   0  0  0  0  0  0  0  0  0  0  0  0
    5.1167    7.8298   11.6581 H   0  0  0  0  0  0  0  0  0  0  0  0
    5.3045    6.5280   10.4904 H   0  0  0  0  0  0  0  0  0  0  0  0
    6.2593    8.0026   10.3484 H   0  0  0  0  0  0  0  0  0  0  0  0
    8.1624    6.1063   11.2451 C   0  0  0  0  0  0  0  0  0  0  0  0
    9.0686    5.6572   11.9832 N   0  0  0  0  0  0  0  0  0  0  0  0
    8.4505    6.1030    9.7346 C   0  0  0  0  0  0  0  0  0  0  0  0
    7.2806    5.7356    8.8172 C   0  0  0  0  0  0  0  0  0  0  0  0
    7.6762    5.4748    7.8374 H   0  0  0  0  0  0  0  0  0  0  0  0
    6.5877    6.5572    8.6778 H   0  0  0  0  0  0  0  0  0  0  0  0
    6.7411    4.8727    9.1977 H   0  0  0  0  0  0  0  0  0  0  0  0
    8.9851    7.5023    9.3916 C   0  0  0  0  0  0  0  0  0  0  0  0
    9.8253    7.7465   10.0395 H   0  0  0  0  0  0  0  0  0  0  0  0
    8.2220    8.2668    9.5105 H   0  0  0  0  0  0  0  0  0  0  0  0
    9.3245    7.5189    8.3581 H   0  0  0  0  0  0  0  0  0  0  0  0
    9.5777    5.0866    9.4858 C   0  0  0  0  0  0  0  0  0  0  0  0
    9.2407    4.0800    9.7292 H   0  0  0  0  0  0  0  0  0  0  0  0
   10.4431    5.3115   10.1094 H   0  0  0  0  0  0  0  0  0  0  0  0
    9.8804    5.1129    8.4417 H   0  0  0  0  0  0  0  0  0  0  0  0
  1  4  1  0  0  0  0
  1  3  1  0  0  0  0
  2  1  1  0  0  0  0
  4  5  1  1  0  0  0
  4 11  1  0  0  0  0
  5  7  1  0  0  0  0
  6  5  1  0  0  0  0
  7  8  1  0  0  0  0
  7  9  2  0  0  0  0
  9 10  1  0  0  0  0
 11 12  1  0  0  0  0
 11  9  1  0  0  0  0
 13 14  1  0  0  0  0
 13  4  1  0  0  0  0
 14 17  1  0  0  0  0
 14 15  1  0  0  0  0
 16 14  1  0  0  0  0
 18 21  1  0  0  0  0
 18 13  1  0  0  0  0
 19 18  1  0  0  0  0
 20 18  1  0  0  0  0
 22 23  1  0  0  0  0
 22 13  1  0  0  0  0
 23 25  1  0  0  0  0
 23 26  1  0  0  0  0
 24 23  1  0  0  0  0
 27 28  1  0  0  0  0
 27 22  1  0  0  0  0
 29 27  1  0  0  0  0
 30 27  1  0  0  0  0
 31 22  1  0  0  0  0
 31 32  2  0  0  0  0
 32  1  1  0  0  0  0
 33 31  1  0  0  0  0
 34 37  1  0  0  0  0
 34 33  1  0  0  0  0
 35 34  1  0  0  0  0
 36 34  1  0  0  0  0
 38 40  1  0  0  0  0
 38 33  1  0  0  0  0
 38 39  1  0  0  0  0
 41 38  1  0  0  0  0
 42 43  1  0  0  0  0
 42 33  1  0  0  0  0
 42 44  1  0  0  0  0
 45 42  1  0  0  0  0
M  END
$$$$
