CSD_code = EHERUG | q = 0 | S = 0 | Stoichiometry = C21H35Cl2N2PPd | MND = 4
 OpenBabel04212202033D

 62 64  0  0  0  0  0  0  0  0999 V2000
    0.4054    9.8176    1.0740 Pd  0  0  0  0  0  0  0  0  0  0  0  0
   -1.4013    8.4866    0.7739 Cl  0  0  0  0  0  0  0  0  0  0  0  0
   -0.4434   11.4068   -0.3048 Cl  0  0  0  0  0  0  0  0  0  0  0  0
    1.3155    8.8674    2.8783 P   0  0  0  0  0  4  0  0  0  0  0  0
    2.9510   11.4900    0.8327 N   0  0  0  0  0  0  0  0  0  0  0  0
    2.5765   10.0298    2.5932 N   0  0  0  0  0  0  0  0  0  0  0  0
    2.1555   10.6614    1.4630 C   0  0  0  0  0  0  0  0  0  0  0  0
    2.5843   12.0325   -0.4409 C   0  0  0  0  0  0  0  0  0  0  0  0
    2.3241   13.3957   -0.5574 C   0  0  0  0  0  0  0  0  0  0  0  0
    2.0294   13.9091   -1.8113 C   0  0  0  0  0  0  0  0  0  0  0  0
    1.9736   13.0971   -2.9322 C   0  0  0  0  0  0  0  0  0  0  0  0
    2.2020   11.7368   -2.7806 C   0  0  0  0  0  0  0  0  0  0  0  0
    2.5000   11.1824   -1.5469 C   0  0  0  0  0  0  0  0  0  0  0  0
    2.1649    7.1931    2.9651 C   0  0  0  0  0  0  0  0  0  0  0  0
    1.0225    6.1859    3.1056 C   0  0  0  0  0  0  0  0  0  0  0  0
    3.2193    6.9774    4.0441 C   0  0  0  0  0  0  0  0  0  0  0  0
    2.7783    7.0560    1.5682 C   0  0  0  0  0  0  0  0  0  0  0  0
    0.4327    9.4514    4.4395 C   0  0  0  0  0  0  0  0  0  0  0  0
    0.1716   10.9408    4.1853 C   0  0  0  0  0  0  0  0  0  0  0  0
   -0.9149    8.7259    4.4362 C   0  0  0  0  0  0  0  0  0  0  0  0
    1.1654    9.2474    5.7612 C   0  0  0  0  0  0  0  0  0  0  0  0
    3.8627   10.2951    3.2213 C   0  0  0  0  0  0  0  0  0  0  0  0
    4.3100   11.7012    2.8362 C   0  0  0  0  0  0  0  0  0  0  0  0
    4.2893   11.8064    1.3163 C   0  0  0  0  0  0  0  0  0  0  0  0
    2.6444    9.6949   -1.4099 C   0  0  0  0  0  0  0  0  0  0  0  0
    1.6189   13.6578   -4.2743 C   0  0  0  0  0  0  0  0  0  0  0  0
    2.3021   14.2947    0.6437 C   0  0  0  0  0  0  0  0  0  0  0  0
    1.8129   14.9634   -1.9059 H   0  0  0  0  0  0  0  0  0  0  0  0
    2.1200   11.0887   -3.6409 H   0  0  0  0  0  0  0  0  0  0  0  0
    1.3620    5.1892    2.8286 H   0  0  0  0  0  0  0  0  0  0  0  0
    0.1954    6.4628    2.4479 H   0  0  0  0  0  0  0  0  0  0  0  0
    0.6596    6.1439    4.1300 H   0  0  0  0  0  0  0  0  0  0  0  0
    2.7970    7.0654    5.0406 H   0  0  0  0  0  0  0  0  0  0  0  0
    3.6256    5.9712    3.9422 H   0  0  0  0  0  0  0  0  0  0  0  0
    4.0425    7.6806    3.9541 H   0  0  0  0  0  0  0  0  0  0  0  0
    3.6162    7.7404    1.4340 H   0  0  0  0  0  0  0  0  0  0  0  0
    3.1396    6.0417    1.4085 H   0  0  0  0  0  0  0  0  0  0  0  0
    2.0195    7.2748    0.8073 H   0  0  0  0  0  0  0  0  0  0  0  0
   -0.4943   11.3359    4.9509 H   0  0  0  0  0  0  0  0  0  0  0  0
    1.0954   11.5196    4.2075 H   0  0  0  0  0  0  0  0  0  0  0  0
   -0.3184   11.0823    3.2039 H   0  0  0  0  0  0  0  0  0  0  0  0
   -1.3627    8.7713    3.4383 H   0  0  0  0  0  0  0  0  0  0  0  0
   -0.8126    7.6819    4.7207 H   0  0  0  0  0  0  0  0  0  0  0  0
   -1.5964    9.2013    5.1398 H   0  0  0  0  0  0  0  0  0  0  0  0
    1.2437    8.1914    6.0078 H   0  0  0  0  0  0  0  0  0  0  0  0
    2.1642    9.6792    5.7417 H   0  0  0  0  0  0  0  0  0  0  0  0
    0.6056    9.7323    6.5605 H   0  0  0  0  0  0  0  0  0  0  0  0
    4.6150    9.5726    2.8783 H   0  0  0  0  0  0  0  0  0  0  0  0
    3.7657   10.1974    4.3054 H   0  0  0  0  0  0  0  0  0  0  0  0
    3.6216   12.4358    3.2592 H   0  0  0  0  0  0  0  0  0  0  0  0
    5.3103   11.9000    3.2207 H   0  0  0  0  0  0  0  0  0  0  0  0
    5.0121   11.1069    0.8768 H   0  0  0  0  0  0  0  0  0  0  0  0
    4.5521   12.8120    0.9856 H   0  0  0  0  0  0  0  0  0  0  0  0
    3.4561    9.4221   -0.7347 H   0  0  0  0  0  0  0  0  0  0  0  0
    1.6929    9.2778   -1.0144 H   0  0  0  0  0  0  0  0  0  0  0  0
    2.8266    9.2402   -2.3803 H   0  0  0  0  0  0  0  0  0  0  0  0
    0.5719   13.4451   -4.4906 H   0  0  0  0  0  0  0  0  0  0  0  0
    1.7600   14.7358   -4.2983 H   0  0  0  0  0  0  0  0  0  0  0  0
    2.2223   13.2019   -5.0573 H   0  0  0  0  0  0  0  0  0  0  0  0
    3.2788   14.7486    0.8220 H   0  0  0  0  0  0  0  0  0  0  0  0
    1.5864   15.0968    0.4856 H   0  0  0  0  0  0  0  0  0  0  0  0
    2.0026   13.7412    1.5310 H   0  0  0  0  0  0  0  0  0  0  0  0
  1  7  2  0  0  0  0
  1  4  1  0  0  0  0
  2  1  1  0  0  0  0
  3  1  1  0  0  0  0
  4 14  1  0  0  0  0
  4 18  1  0  0  0  0
  5 24  1  0  0  0  0
  5  7  1  0  0  0  0
  6  4  1  0  0  0  0
  6 22  1  0  0  0  0
  7  6  1  0  0  0  0
  8  5  1  0  0  0  0
  9  8  1  0  0  0  0
  9 27  1  0  0  0  0
 10  9  2  0  0  0  0
 11 12  2  0  0  0  0
 11 10  1  0  0  0  0
 12 13  1  0  0  0  0
 13 25  1  0  0  0  0
 13  8  2  0  0  0  0
 14 15  1  0  0  0  0
 14 16  1  0  0  0  0
 15 32  1  0  0  0  0
 16 33  1  0  0  0  0
 17 14  1  0  0  0  0
 18 21  1  0  0  0  0
 19 40  1  0  0  0  0
 19 18  1  0  0  0  0
 19 39  1  0  0  0  0
 20 18  1  0  0  0  0
 20 43  1  0  0  0  0
 20 44  1  0  0  0  0
 21 45  1  0  0  0  0
 21 47  1  0  0  0  0
 22 49  1  0  0  0  0
 23 51  1  0  0  0  0
 23 22  1  0  0  0  0
 23 50  1  0  0  0  0
 24 23  1  0  0  0  0
 25 55  1  0  0  0  0
 25 54  1  0  0  0  0
 26 11  1  0  0  0  0
 27 60  1  0  0  0  0
 27 62  1  0  0  0  0
 28 10  1  0  0  0  0
 29 12  1  0  0  0  0
 30 15  1  0  0  0  0
 31 15  1  0  0  0  0
 34 16  1  0  0  0  0
 35 16  1  0  0  0  0
 36 17  1  0  0  0  0
 37 17  1  0  0  0  0
 38 17  1  0  0  0  0
 41 19  1  0  0  0  0
 42 20  1  0  0  0  0
 46 21  1  0  0  0  0
 48 22  1  0  0  0  0
 52 24  1  0  0  0  0
 53 24  1  0  0  0  0
 56 25  1  0  0  0  0
 57 26  1  0  0  0  0
 58 26  1  0  0  0  0
 59 26  1  0  0  0  0
 61 27  1  0  0  0  0
M  END
$$$$
