CSD_code = EHESER | q = 0 | S = 0 | Stoichiometry = C18H29Cl2N2PPd | MND = 4
 OpenBabel04212202033D

 53 55  0  0  1  0  0  0  0  0999 V2000
    1.0126    7.2497    8.3684 Pd  0  0  0  0  0  0  0  0  0  0  0  0
    3.0190    6.4303    7.7246 Cl  0  0  0  0  0  0  0  0  0  0  0  0
    1.9502    9.1342    9.2327 Cl  0  0  0  0  0  0  0  0  0  0  0  0
   -0.3474    6.0385    7.0765 P   0  0  0  0  0  4  0  0  0  0  0  0
   -1.5705    7.0485    7.8021 N   0  0  2  0  0  0  0  0  0  0  0  0
   -1.4938    8.3416    9.7350 N   0  0  0  0  0  0  0  0  0  0  0  0
   -0.8702    7.6847    8.7778 C   0  0  1  0  0  3  0  0  0  0  0  0
   -0.7638    8.7692   10.8765 C   0  0  0  0  0  0  0  0  0  0  0  0
    0.1918    7.9219   11.4337 C   0  0  0  0  0  0  0  0  0  0  0  0
    0.9007    8.3296   12.5484 C   0  0  0  0  0  0  0  0  0  0  0  0
    0.6556    9.5687   13.1166 C   0  0  0  0  0  0  0  0  0  0  0  0
   -0.3038   10.4018   12.5696 C   0  0  0  0  0  0  0  0  0  0  0  0
   -1.0176   10.0055   11.4521 C   0  0  0  0  0  0  0  0  0  0  0  0
   -0.8384    4.2477    7.4062 C   0  0  0  0  0  0  0  0  0  0  0  0
    0.4523    3.4626    7.1532 C   0  0  0  0  0  0  0  0  0  0  0  0
   -1.9912    3.6602    6.6022 C   0  0  0  0  0  0  0  0  0  0  0  0
   -1.1360    4.2219    8.9068 C   0  0  0  0  0  0  0  0  0  0  0  0
   -0.2911    6.5895    5.2819 C   0  0  0  0  0  0  0  0  0  0  0  0
   -1.5983    6.4727    4.5046 C   0  0  0  0  0  0  0  0  0  0  0  0
    0.1409    8.0589    5.3800 C   0  0  0  0  0  0  0  0  0  0  0  0
    0.8337    5.7880    4.6278 C   0  0  0  0  0  0  0  0  0  0  0  0
   -3.0176    7.1357    7.6859 C   0  0  0  0  0  0  0  0  0  0  0  0
   -3.6187    7.3544    9.0715 C   0  0  0  0  0  0  0  0  0  0  0  0
   -2.9355    8.5582    9.7144 C   0  0  0  0  0  0  0  0  0  0  0  0
    0.3885    6.9422   10.9889 H   0  0  0  0  0  0  0  0  0  0  0  0
    1.6528    7.6796   12.9680 H   0  0  0  0  0  0  0  0  0  0  0  0
    1.2179    9.8872   13.9809 H   0  0  0  0  0  0  0  0  0  0  0  0
   -0.4915   11.3723   13.0035 H   0  0  0  0  0  0  0  0  0  0  0  0
   -1.7457   10.6702   11.0122 H   0  0  0  0  0  0  0  0  0  0  0  0
    0.3858    2.4744    7.6053 H   0  0  0  0  0  0  0  0  0  0  0  0
    1.3067    3.9861    7.5896 H   0  0  0  0  0  0  0  0  0  0  0  0
    0.6397    3.3342    6.0908 H   0  0  0  0  0  0  0  0  0  0  0  0
   -1.7399    3.5981    5.5465 H   0  0  0  0  0  0  0  0  0  0  0  0
   -2.1910    2.6485    6.9549 H   0  0  0  0  0  0  0  0  0  0  0  0
   -2.9064    4.2379    6.7114 H   0  0  0  0  0  0  0  0  0  0  0  0
   -1.1669    3.1958    9.2690 H   0  0  0  0  0  0  0  0  0  0  0  0
   -0.3411    4.7506    9.4491 H   0  0  0  0  0  0  0  0  0  0  0  0
   -2.0918    4.6912    9.1341 H   0  0  0  0  0  0  0  0  0  0  0  0
   -1.9218    5.4400    4.4103 H   0  0  0  0  0  0  0  0  0  0  0  0
   -1.4516    6.8692    3.5004 H   0  0  0  0  0  0  0  0  0  0  0  0
   -2.3925    7.0452    4.9780 H   0  0  0  0  0  0  0  0  0  0  0  0
    1.0750    8.1518    5.9622 H   0  0  0  0  0  0  0  0  0  0  0  0
    0.3264    8.4596    4.3846 H   0  0  0  0  0  0  0  0  0  0  0  0
   -0.6309    8.6700    5.8530 H   0  0  0  0  0  0  0  0  0  0  0  0
    1.7051    5.7701    5.2877 H   0  0  0  0  0  0  0  0  0  0  0  0
    1.1267    6.2526    3.6879 H   0  0  0  0  0  0  0  0  0  0  0  0
    0.5231    4.7673    4.4149 H   0  0  0  0  0  0  0  0  0  0  0  0
   -3.4007    6.2211    7.2296 H   0  0  0  0  0  0  0  0  0  0  0  0
   -3.2869    7.9792    7.0368 H   0  0  0  0  0  0  0  0  0  0  0  0
   -3.4519    6.4720    9.6930 H   0  0  0  0  0  0  0  0  0  0  0  0
   -4.6923    7.5267    8.9959 H   0  0  0  0  0  0  0  0  0  0  0  0
   -3.2812    8.6947   10.7413 H   0  0  0  0  0  0  0  0  0  0  0  0
   -3.1651    9.4663    9.1450 H   0  0  0  0  0  0  0  0  0  0  0  0
  1  7  1  0  0  0  0
  1  3  1  0  0  0  0
  2  1  1  0  0  0  0
  4 14  1  0  0  0  0
  4  5  1  0  0  0  0
  4  1  1  0  0  0  0
  5 22  1  1  0  0  0
  5  7  1  0  0  0  0
  6  8  1  0  0  0  0
  7  6  1  1  0  0  0
  8  9  2  0  0  0  0
  8 13  1  0  0  0  0
  9 10  1  0  0  0  0
 10 26  1  0  0  0  0
 10 11  2  0  0  0  0
 11 27  1  0  0  0  0
 12 28  1  0  0  0  0
 12 11  1  0  0  0  0
 13 12  2  0  0  0  0
 14 17  1  0  0  0  0
 15 14  1  0  0  0  0
 15 31  1  0  0  0  0
 15 30  1  0  0  0  0
 16 35  1  0  0  0  0
 16 34  1  0  0  0  0
 16 14  1  0  0  0  0
 17 38  1  0  0  0  0
 17 36  1  0  0  0  0
 17 37  1  0  0  0  0
 18 20  1  0  0  0  0
 18  4  1  0  0  0  0
 19 41  1  0  0  0  0
 19 18  1  0  0  0  0
 20 44  1  0  0  0  0
 20 42  1  0  0  0  0
 21 18  1  0  0  0  0
 21 45  1  0  0  0  0
 22 23  1  0  0  0  0
 23 50  1  0  0  0  0
 23 24  1  0  0  0  0
 24  6  1  0  0  0  0
 24 52  1  0  0  0  0
 25  9  1  0  0  0  0
 29 13  1  0  0  0  0
 32 15  1  0  0  0  0
 33 16  1  0  0  0  0
 39 19  1  0  0  0  0
 40 19  1  0  0  0  0
 43 20  1  0  0  0  0
 46 21  1  0  0  0  0
 47 21  1  0  0  0  0
 48 22  1  0  0  0  0
 49 22  1  0  0  0  0
 51 23  1  0  0  0  0
 53 24  1  0  0  0  0
M  END
$$$$
