CSD_code = EHEZOI | q = 0 | S = 0 | Stoichiometry = C21H26Cl2N2OTi | MND = 9
 OpenBabel04212202033D

 53 52  0  0  1  0  0  0  0  0999 V2000
    7.8594    3.8761    2.8825 N   0  0  0  0  0  0  0  0  0  0  0  0
   11.6543    5.0476    6.3505 H   0  0  0  0  0  0  0  0  0  0  0  0
    7.5450    6.5811    6.3023 H   0  0  0  0  0  0  0  0  0  0  0  0
   13.3944    5.2007    5.8261 H   0  0  0  0  0  0  0  0  0  0  0  0
   10.4606    5.5622    2.8061 H   0  0  0  0  0  0  0  0  0  0  0  0
    8.3191    4.5299    3.8692 C   0  0  0  0  0  0  0  0  0  0  0  0
    9.7039    4.3357    4.3944 C   0  0  0  0  0  0  0  0  0  0  0  0
   10.1289    3.4073    4.0070 H   0  0  0  0  0  0  0  0  0  0  0  0
    9.6890    4.3096    5.4828 H   0  0  0  0  0  0  0  0  0  0  0  0
   10.5174    5.5496    3.9016 C   0  0  1  0  0  0  0  0  0  0  0  0
    9.8598    6.8272    4.4341 C   0  0  0  0  0  0  0  0  0  0  0  0
   10.4148    7.6979    4.0797 H   0  0  0  0  0  0  0  0  0  0  0  0
    9.9065    6.8203    5.5241 H   0  0  0  0  0  0  0  0  0  0  0  0
    8.4085    6.9315    3.9730 C   0  0  0  0  0  0  0  0  0  0  0  0
    8.3670    6.9764    2.8822 H   0  0  0  0  0  0  0  0  0  0  0  0
    7.9554    7.8446    4.3655 H   0  0  0  0  0  0  0  0  0  0  0  0
    7.5687    5.7158    4.4272 C   0  0  1  0  0  0  0  0  0  0  0  0
   11.9711    5.4744    4.3103 C   0  0  0  0  0  0  0  0  0  0  0  0
   12.3536    5.2299    5.5533 C   0  0  0  0  0  0  0  0  0  0  0  0
   12.9505    5.7311    3.2067 C   0  0  0  0  0  0  0  0  0  0  0  0
   12.7602    6.7040    2.7544 H   0  0  0  0  0  0  0  0  0  0  0  0
   12.8427    4.9772    2.4272 H   0  0  0  0  0  0  0  0  0  0  0  0
   13.9726    5.7096    3.5745 H   0  0  0  0  0  0  0  0  0  0  0  0
    6.1389    5.8426    3.8911 C   0  0  0  0  0  0  0  0  0  0  0  0
    5.6902    6.7571    4.2748 H   0  0  0  0  0  0  0  0  0  0  0  0
    5.5336    4.9988    4.2137 H   0  0  0  0  0  0  0  0  0  0  0  0
    6.1359    5.8798    2.8030 H   0  0  0  0  0  0  0  0  0  0  0  0
    8.2509    2.2678   -0.5865 C   0  0  0  0  0  0  0  0  0  0  0  0
    9.2182    2.5940   -0.9483 H   0  0  0  0  0  0  0  0  0  0  0  0
    6.9958    2.7090   -1.0680 C   0  0  0  0  0  0  0  0  0  0  0  0
    6.8414    3.4384   -1.8539 H   0  0  0  0  0  0  0  0  0  0  0  0
    5.9949    1.9556   -0.4330 C   0  0  0  0  0  0  0  0  0  0  0  0
    4.9333    2.0008   -0.6431 H   0  0  0  0  0  0  0  0  0  0  0  0
    6.6260    1.0288    0.4321 C   0  0  0  0  0  0  0  0  0  0  0  0
    6.1276    0.2448    0.9894 H   0  0  0  0  0  0  0  0  0  0  0  0
    8.0202    1.2048    0.3153 C   0  0  0  0  0  3  0  0  0  0  0  0
    8.7812    0.5912    0.7802 H   0  0  0  0  0  0  0  0  0  0  0  0
    6.9443    4.6964    6.6281 C   0  0  0  0  0  0  0  0  0  0  0  0
    6.6364    4.9883    7.9601 C   0  0  0  0  0  0  0  0  0  0  0  0
    6.8596    5.9733    8.3481 H   0  0  0  0  0  0  0  0  0  0  0  0
    6.0548    4.0423    8.7786 C   0  0  0  0  0  0  0  0  0  0  0  0
    5.8250    4.2940    9.8038 H   0  0  0  0  0  0  0  0  0  0  0  0
    5.7583    2.7812    8.2886 C   0  0  0  0  0  0  0  0  0  0  0  0
    5.2965    2.0425    8.9255 H   0  0  0  0  0  0  0  0  0  0  0  0
    6.0574    2.4826    6.9709 C   0  0  0  0  0  0  0  0  0  0  0  0
    5.8271    1.5055    6.5725 H   0  0  0  0  0  0  0  0  0  0  0  0
    6.6469    3.4217    6.1447 C   0  0  0  0  0  0  0  0  0  0  0  0
    6.8621    3.1554    5.1201 H   0  0  0  0  0  0  0  0  0  0  0  0
    7.5970    5.6639    5.8805 N   0  0  0  0  0  0  0  0  0  0  0  0
    8.5524    2.8904    2.2827 O   0  0  0  0  0  0  0  0  0  0  0  0
    5.1802    3.0446    2.2736 Cl  0  0  0  0  0 15  0  0  0  0  0  0
    7.1809    5.2290    0.4902 Cl  0  0  0  0  0 15  0  0  0  0  0  0
    7.1238    3.1401    1.2385 Ti  0  0  0  0  0  0  0  0  0  0  0  0
  1  6  2  0  0  0  0
  6  7  1  0  0  0  0
  6 17  1  0  0  0  0
  7  9  1  0  0  0  0
  8  7  1  0  0  0  0
 10  5  1  6  0  0  0
 10 18  1  0  0  0  0
 10  7  1  0  0  0  0
 10 11  1  0  0  0  0
 11 13  1  0  0  0  0
 12 11  1  0  0  0  0
 14 16  1  0  0  0  0
 14 17  1  0  0  0  0
 14 11  1  0  0  0  0
 15 14  1  0  0  0  0
 17 24  1  6  0  0  0
 17 49  1  0  0  0  0
 18 19  2  0  0  0  0
 19  4  1  0  0  0  0
 19  2  1  0  0  0  0
 20 23  1  0  0  0  0
 20 18  1  0  0  0  0
 21 20  1  0  0  0  0
 22 20  1  0  0  0  0
 24 26  1  0  0  0  0
 24 25  1  0  0  0  0
 27 24  1  0  0  0  0
 28 36  1  0  0  0  0
 29 28  1  0  0  0  0
 30 28  2  0  0  0  0
 30 32  1  0  0  0  0
 31 30  1  0  0  0  0
 32 34  2  0  0  0  0
 33 32  1  0  0  0  0
 34 35  1  0  0  0  0
 36 34  1  0  0  0  0
 36 37  1  0  0  0  0
 38 39  1  0  0  0  0
 39 40  1  0  0  0  0
 39 41  2  0  0  0  0
 41 42  1  0  0  0  0
 43 41  1  0  0  0  0
 43 44  1  0  0  0  0
 45 43  2  0  0  0  0
 46 45  1  0  0  0  0
 47 38  2  0  0  0  0
 47 45  1  0  0  0  0
 48 47  1  0  0  0  0
 49  3  1  0  0  0  0
 49 38  1  0  0  0  0
 50  1  1  0  0  0  0
 53 50  1  0  0  0  0
M  END
$$$$
