CSD_code = EHIBOM | q = 0 | S = 0 | Stoichiometry = C11H10Br2CdN2S2 | MND = 4
 OpenBabel04212202033D

 28 30  0  0  1  0  0  0  0  0999 V2000
   -0.5132    4.6333    3.3404 Cd  0  0  0  0  0  0  0  0  0  0  0  0
    1.1605    5.7329    4.8144 Br  0  0  0  0  0  0  0  0  0  0  0  0
   -2.1026    3.3102    4.6996 N   0  0  0  0  0  0  0  0  0  0  0  0
   -0.0899    1.5770    4.8238 S   0  0  0  0  0  0  0  0  0  0  0  0
   -0.5130    0.5979    3.3406 C   0  0  0  0  0  0  0  0  0  0  0  0
   -1.3829   -0.0182    3.5542 H   0  0  0  0  0  0  0  0  0  0  0  0
    0.3569   -0.0182    3.1269 H   0  0  0  0  0  0  0  0  0  0  0  0
   -1.7436    2.1451    5.2162 C   0  0  2  0  0  3  0  0  0  0  0  0
   -2.5751    1.3732    6.0106 C   0  0  0  0  0  0  0  0  0  0  0  0
   -2.2238    0.4370    6.4145 H   0  0  0  0  0  0  0  0  0  0  0  0
   -3.8515    1.8496    6.2672 C   0  0  0  0  0  0  0  0  0  0  0  0
   -4.5295    1.2820    6.8865 H   0  0  0  0  0  0  0  0  0  0  0  0
   -4.2380    3.0610    5.7148 C   0  0  0  0  0  0  0  0  0  0  0  0
   -5.2239    3.4618    5.8857 H   0  0  0  0  0  0  0  0  0  0  0  0
   -3.3296    3.7595    4.9347 C   0  0  0  0  0  0  0  0  0  0  0  0
   -3.5880    4.7056    4.4729 H   0  0  0  0  0  0  0  0  0  0  0  0
   -2.1863    5.7330    1.8669 Br  0  0  0  0  0  0  0  0  0  0  0  0
   -0.9360    1.5771    1.8574 S   0  0  0  0  0  0  0  0  0  0  0  0
    0.7176    2.1451    1.4650 C   0  0  1  0  0  3  0  0  0  0  0  0
    1.0766    3.3102    1.9816 N   0  0  0  0  0  0  0  0  0  0  0  0
    2.3036    3.7595    1.7465 C   0  0  0  0  0  0  0  0  0  0  0  0
    3.2121    3.0610    0.9664 C   0  0  0  0  0  0  0  0  0  0  0  0
    2.8256    1.8496    0.4140 C   0  0  0  0  0  0  0  0  0  0  0  0
    1.5492    1.3732    0.6706 C   0  0  0  0  0  0  0  0  0  0  0  0
    1.1979    0.4370    0.2667 H   0  0  0  0  0  0  0  0  0  0  0  0
    3.5035    1.2820   -0.2053 H   0  0  0  0  0  0  0  0  0  0  0  0
    4.1980    3.4619    0.7955 H   0  0  0  0  0  0  0  0  0  0  0  0
    2.5620    4.7056    2.2083 H   0  0  0  0  0  0  0  0  0  0  0  0
  1  3  1  0  0  0  0
  1  2  1  0  0  0  0
  3 15  1  0  0  0  0
  3  8  1  0  0  0  0
  5  6  1  0  0  0  0
  5  4  1  0  0  0  0
  7  5  1  0  0  0  0
  8  4  1  6  0  0  0
  8  9  1  0  0  0  0
  9 11  2  0  0  0  0
  9 10  1  0  0  0  0
 11 12  1  0  0  0  0
 13 14  1  0  0  0  0
 13 11  1  0  0  0  0
 15 13  2  0  0  0  0
 16 15  1  0  0  0  0
 17  1  1  0  0  0  0
 18  5  1  0  0  0  0
 19 24  1  1  0  0  0
 19 18  1  0  0  0  0
 19 20  1  0  0  0  0
 20  1  1  0  0  0  0
 21 20  1  0  0  0  0
 21 28  1  0  0  0  0
 22 21  2  0  0  0  0
 23 24  2  0  0  0  0
 23 22  1  0  0  0  0
 25 24  1  0  0  0  0
 26 23  1  0  0  0  0
 27 22  1  0  0  0  0
M  END
$$$$
