CSD_code = EHISOF | q = 0 | S = 0 | Stoichiometry = C4H10Cl4N2O2Pt | MND = 6
 OpenBabel04212202033D

 23 22  0  0  0  0  0  0  0  0999 V2000
    8.8884    1.5064   10.5497 Pt  0  0  0  0  0  0  0  0  0  0  0  0
    9.8737    2.9859   12.1644 Cl  0  0  0  0  0  0  0  0  0  0  0  0
    6.9744    2.8909   10.4402 Cl  0  0  0  0  0  0  0  0  0  0  0  0
    7.9568    0.1591    8.8425 Cl  0  0  0  0  0  0  0  0  0  0  0  0
   10.7406   -0.0095   10.7519 Cl  0  0  0  0  0  0  0  0  0  0  0  0
   10.8508    1.7872    8.4293 O   0  0  0  0  0  0  0  0  0  0  0  0
   11.0556    0.9804    8.9745 H   0  0  0  0  0  0  0  0  0  0  0  0
    7.7677    1.2217   13.2100 O   0  0  0  0  0  0  0  0  0  0  0  0
    8.3603    2.0203   13.1774 H   0  0  0  0  0  0  0  0  0  0  0  0
    9.8666    2.4710    9.0806 N   0  0  0  0  0  0  0  0  0  0  0  0
    7.9549    0.5383   12.0446 N   0  0  0  0  0  0  0  0  0  0  0  0
    9.6236    3.6569    8.6874 C   0  0  0  0  0  3  0  0  0  0  0  0
    8.8202    4.1778    9.1929 H   0  0  0  0  0  0  0  0  0  0  0  0
   10.3569    4.3084    7.5797 C   0  0  0  0  0  0  0  0  0  0  0  0
   11.4045    4.0114    7.6003 H   0  0  0  0  0  0  0  0  0  0  0  0
   10.2605    5.3877    7.6312 H   0  0  0  0  0  0  0  0  0  0  0  0
    9.9443    3.9616    6.6313 H   0  0  0  0  0  0  0  0  0  0  0  0
    7.5078   -0.6510   11.9765 C   0  0  0  0  0  3  0  0  0  0  0  0
    7.6395   -1.1602   11.0295 H   0  0  0  0  0  0  0  0  0  0  0  0
    6.8081   -1.3381   13.0842 C   0  0  0  0  0  0  0  0  0  0  0  0
    7.0758   -0.8927   14.0397 H   0  0  0  0  0  0  0  0  0  0  0  0
    7.0379   -2.4000   13.0748 H   0  0  0  0  0  0  0  0  0  0  0  0
    5.7325   -1.2228   12.9457 H   0  0  0  0  0  0  0  0  0  0  0  0
  1  5  1  0  0  0  0
  1 11  1  0  0  0  0
  1  2  1  0  0  0  0
  3  1  1  0  0  0  0
  4  1  1  0  0  0  0
  6  7  1  0  0  0  0
  6 10  1  0  0  0  0
  9  8  1  0  0  0  0
 10  1  1  0  0  0  0
 11  8  1  0  0  0  0
 12 10  1  0  0  0  0
 12 13  1  0  0  0  0
 14 15  1  0  0  0  0
 14 16  1  0  0  0  0
 14 12  1  0  0  0  0
 17 14  1  0  0  0  0
 18 11  1  0  0  0  0
 18 20  1  0  0  0  0
 19 18  1  0  0  0  0
 20 21  1  0  0  0  0
 22 20  1  0  0  0  0
 23 20  1  0  0  0  0
M  END
$$$$
