CSD_code = EHOJOB | q = 0 | S = 0 | Stoichiometry = C15H16Cl2N2Pd | MND = 4
 OpenBabel04212202033D

 36 38  0  0  0  0  0  0  0  0999 V2000
    2.7745    2.3375    3.5636 Pd  0  0  0  0  0  0  0  0  0  0  0  0
    4.4512    3.6874    4.3469 Cl  0  0  0  0  0  0  0  0  0  0  0  0
    1.0811    0.9993    2.8072 Cl  0  0  0  0  0  0  0  0  0  0  0  0
    3.9696    1.5698    2.2349 N   0  0  0  0  0  0  0  0  0  0  0  0
    4.0827    2.1479    1.0312 C   0  0  0  0  0  0  0  0  0  0  0  0
    3.2980    3.2891    0.7245 C   0  0  0  0  0  0  0  0  0  0  0  0
    2.6070    3.6702    1.4903 H   0  0  0  0  0  0  0  0  0  0  0  0
    3.4044    3.8895   -0.4956 C   0  0  0  0  0  0  0  0  0  0  0  0
    2.8073    4.7585   -0.7275 H   0  0  0  0  0  0  0  0  0  0  0  0
    4.2915    3.3878   -1.4707 C   0  0  0  0  0  0  0  0  0  0  0  0
    4.3546    3.8829   -2.4280 H   0  0  0  0  0  0  0  0  0  0  0  0
    5.0585    2.2926   -1.2103 C   0  0  0  0  0  0  0  0  0  0  0  0
    5.7399    1.9007   -1.9510 H   0  0  0  0  0  0  0  0  0  0  0  0
    4.9824    1.6366    0.0435 C   0  0  0  0  0  0  0  0  0  0  0  0
    5.7452    0.5153    0.3629 C   0  0  0  0  0  0  0  0  0  0  0  0
    6.4355    0.1077   -0.3619 H   0  0  0  0  0  0  0  0  0  0  0  0
    5.6197   -0.0814    1.6158 C   0  0  0  0  0  0  0  0  0  0  0  0
    6.3630   -1.2227    2.0071 C   0  0  0  0  0  3  0  0  0  0  0  0
    7.0591   -1.6466    1.2984 H   0  0  0  0  0  0  0  0  0  0  0  0
    6.2015   -1.7683    3.2447 C   0  0  0  0  0  0  0  0  0  0  0  0
    6.7708   -2.6380    3.5363 H   0  0  0  0  0  0  0  0  0  0  0  0
    5.2890   -1.2062    4.1615 C   0  0  0  0  0  0  0  0  0  0  0  0
    5.1780   -1.6584    5.1354 H   0  0  0  0  0  0  0  0  0  0  0  0
    4.5542   -0.1067    3.8279 C   0  0  0  0  0  0  0  0  0  0  0  0
    3.8384    0.3367    4.5349 H   0  0  0  0  0  0  0  0  0  0  0  0
    4.6972    0.4888    2.5485 C   0  0  0  0  0  0  0  0  0  0  0  0
    1.5765    3.1783    4.9916 N   0  0  0  0  0  4  0  0  0  0  0  0
    2.2029    3.8550    5.4466 H   0  0  0  0  0  0  0  0  0  0  0  0
    1.1562    2.1891    5.9844 C   0  0  0  0  0  0  0  0  0  0  0  0
    0.5650    2.6537    6.7835 H   0  0  0  0  0  0  0  0  0  0  0  0
    2.0414    1.7187    6.4251 H   0  0  0  0  0  0  0  0  0  0  0  0
    0.5495    1.4252    5.4916 H   0  0  0  0  0  0  0  0  0  0  0  0
    0.4423    3.9009    4.4164 C   0  0  0  0  0  0  0  0  0  0  0  0
   -0.1891    3.1958    3.8706 H   0  0  0  0  0  0  0  0  0  0  0  0
    0.8112    4.6643    3.7242 H   0  0  0  0  0  0  0  0  0  0  0  0
   -0.1570    4.3869    5.1964 H   0  0  0  0  0  0  0  0  0  0  0  0
  1  2  1  0  0  0  0
  1 27  1  0  0  0  0
  3  1  1  0  0  0  0
  4 26  1  0  0  0  0
  4  1  1  0  0  0  0
  5  4  1  0  0  0  0
  6  5  1  0  0  0  0
  6  7  1  0  0  0  0
  8  6  2  0  0  0  0
  9  8  1  0  0  0  0
 10 12  2  0  0  0  0
 10  8  1  0  0  0  0
 11 10  1  0  0  0  0
 12 14  1  0  0  0  0
 13 12  1  0  0  0  0
 14 15  1  0  0  0  0
 14  5  2  0  0  0  0
 15 17  2  0  0  0  0
 16 15  1  0  0  0  0
 17 18  1  0  0  0  0
 17 26  1  0  0  0  0
 18 20  1  0  0  0  0
 19 18  1  0  0  0  0
 20 21  1  0  0  0  0
 20 22  2  0  0  0  0
 22 23  1  0  0  0  0
 24 22  1  0  0  0  0
 24 25  1  0  0  0  0
 26 24  2  0  0  0  0
 27 28  1  0  0  0  0
 27 29  1  0  0  0  0
 29 31  1  0  0  0  0
 29 30  1  0  0  0  0
 32 29  1  0  0  0  0
 33 27  1  0  0  0  0
 33 36  1  0  0  0  0
 34 33  1  0  0  0  0
 35 33  1  0  0  0  0
M  END
$$$$
