CSD_code = EHUGAQ | q = -1 | S = 0 | Stoichiometry = C6H4I4NO2Pt(1-) | MND = 6
 OpenBabel04212202033D

 18 19  0  0  0  0  0  0  0  0999 V2000
   -0.0863    6.2592    6.9175 Pt  0  0  0  0  0  0  0  0  0  0  0  0
   -2.1463    7.5843    7.9724 I   0  0  0  0  0  0  0  0  0  0  0  0
   -1.4922    4.0216    6.8039 I   0  0  0  0  0  0  0  0  0  0  0  0
   -0.7580    6.9920    4.4014 I   0  0  0  0  0  0  0  0  0  0  0  0
    0.9331    5.6779    9.3551 I   0  0  0  0  0  0  0  0  0  0  0  0
    1.5773    5.3001    6.0949 O   0  0  0  0  0  0  0  0  0  0  0  0
    3.6680    5.6731    5.4809 O   0  0  0  0  0  0  0  0  0  0  0  0
    1.2707    7.8721    6.8823 N   0  0  0  0  0  0  0  0  0  0  0  0
    1.0961    9.1264    7.2756 C   0  0  0  0  0  3  0  0  0  0  0  0
    0.1268    9.3911    7.6791 H   0  0  0  0  0  0  0  0  0  0  0  0
    2.1064   10.0654    7.1781 C   0  0  0  0  0  0  0  0  0  0  0  0
    1.9236   11.0749    7.5100 H   0  0  0  0  0  0  0  0  0  0  0  0
    3.3336    9.6853    6.6543 C   0  0  0  0  0  0  0  0  0  0  0  0
    4.1397   10.3985    6.5664 H   0  0  0  0  0  0  0  0  0  0  0  0
    3.5024    8.3748    6.2480 C   0  0  0  0  0  0  0  0  0  0  0  0
    4.4223    7.9958    5.8303 H   0  0  0  0  0  0  0  0  0  0  0  0
    2.4423    7.4907    6.3784 C   0  0  0  0  0  0  0  0  0  0  0  0
    2.5991    6.0297    5.9392 C   0  0  0  0  0  0  0  0  0  0  0  0
  1  2  1  0  0  0  0
  1  5  1  0  0  0  0
  3  1  1  0  0  0  0
  4  1  1  0  0  0  0
  6  1  1  0  0  0  0
  7 18  2  0  0  0  0
  8  1  1  0  0  0  0
  8  9  1  0  0  0  0
  9 10  1  0  0  0  0
 11  9  1  0  0  0  0
 11 12  1  0  0  0  0
 13 11  2  0  0  0  0
 14 13  1  0  0  0  0
 15 17  2  0  0  0  0
 15 13  1  0  0  0  0
 16 15  1  0  0  0  0
 17  8  1  0  0  0  0
 18  6  1  0  0  0  0
 18 17  1  0  0  0  0
M  END
$$$$
