CSD_code = EJALAC | q = 0 | S = 0 | Stoichiometry = C10H10Cl2N4PtS2 | MND = 6
 OpenBabel04212202033D

 29 32  0  0  1  0  0  0  0  0999 V2000
    6.3075    0.0000    3.6862 Pt  0  0  0  0  0  0  0  0  0  0  0  0
    7.2733    0.0710    1.5369 Cl  0  0  0  0  0  0  0  0  0  0  0  0
    8.2458   -1.3295    4.5101 S   0  0  0  0  0  0  0  0  0  0  0  0
    7.3774   -3.8269    4.0309 N   0  0  0  0  0  0  0  0  0  0  0  0
    6.0184   -1.9699    3.4912 N   0  0  0  0  0  0  0  0  0  0  0  0
    7.1517   -2.5293    3.9775 C   0  0  2  0  0  3  0  0  0  0  0  0
    5.0406   -2.7444    3.0286 C   0  0  0  0  0  0  0  0  0  0  0  0
    5.2244   -4.1265    3.0607 C   0  0  0  0  0  0  0  0  0  0  0  0
    6.4190   -4.6128    3.5747 C   0  0  0  0  0  0  0  0  0  0  0  0
    3.8157   -2.0864    2.5084 C   0  0  0  0  0  0  0  0  0  0  0  0
    4.4579   -4.7889    2.6960 H   0  0  0  0  0  0  0  0  0  0  0  0
    6.6242   -5.6733    3.6269 H   0  0  0  0  0  0  0  0  0  0  0  0
    3.3707   -1.4696    3.2906 H   0  0  0  0  0  0  0  0  0  0  0  0
    4.0784   -1.4213    1.6845 H   0  0  0  0  0  0  0  0  0  0  0  0
    3.0912   -2.8191    2.1669 H   0  0  0  0  0  0  0  0  0  0  0  0
    5.3419   -0.0709    5.8357 Cl  0  0  0  0  0  0  0  0  0  0  0  0
    4.3690    1.3295    2.8631 S   0  0  0  0  0  0  0  0  0  0  0  0
    5.4633    2.5293    3.3956 C   0  0  1  0  0  3  0  0  0  0  0  0
    5.2376    3.8269    3.3421 N   0  0  0  0  0  0  0  0  0  0  0  0
    6.1960    4.6128    3.7983 C   0  0  0  0  0  0  0  0  0  0  0  0
    7.3906    4.1265    4.3123 C   0  0  0  0  0  0  0  0  0  0  0  0
    7.5743    2.7444    4.3444 C   0  0  0  0  0  0  0  0  0  0  0  0
    6.5966    1.9699    3.8819 N   0  0  0  0  0  0  0  0  0  0  0  0
    8.7993    2.0864    4.8646 C   0  0  0  0  0  0  0  0  0  0  0  0
    9.2442    1.4696    4.0825 H   0  0  0  0  0  0  0  0  0  0  0  0
    8.5367    1.4213    5.6886 H   0  0  0  0  0  0  0  0  0  0  0  0
    9.5238    2.8191    5.2061 H   0  0  0  0  0  0  0  0  0  0  0  0
    8.1572    4.7888    4.6770 H   0  0  0  0  0  0  0  0  0  0  0  0
    5.9909    5.6733    3.7461 H   0  0  0  0  0  0  0  0  0  0  0  0
  1 23  1  0  0  0  0
  1  3  1  0  0  0  0
  1 16  1  0  0  0  0
  2  1  1  0  0  0  0
  5  1  1  0  0  0  0
  5  6  1  0  0  0  0
  6  4  1  6  0  0  0
  6  3  1  0  0  0  0
  7  8  2  0  0  0  0
  7  5  1  0  0  0  0
  8  9  1  0  0  0  0
  9 12  1  0  0  0  0
  9  4  2  0  0  0  0
 10  7  1  0  0  0  0
 10 13  1  0  0  0  0
 11  8  1  0  0  0  0
 14 10  1  0  0  0  0
 15 10  1  0  0  0  0
 17  1  1  0  0  0  0
 18 17  1  1  0  0  0
 18 23  1  0  0  0  0
 19 18  1  0  0  0  0
 19 20  2  0  0  0  0
 20 21  1  0  0  0  0
 21 22  2  0  0  0  0
 21 28  1  0  0  0  0
 22 24  1  0  0  0  0
 23 22  1  0  0  0  0
 24 27  1  0  0  0  0
 24 26  1  0  0  0  0
 25 24  1  0  0  0  0
 29 20  1  0  0  0  0
M  END
$$$$
