CSD_code = EJAMAE | q = 0 | S = 0 | Stoichiometry = C27H34AgCl3N2 | MND = 2
 OpenBabel04212202033D

 67 69  0  0  1  0  0  0  0  0999 V2000
   -0.7982    0.5508    4.1489 Ag  0  0  0  0  0  0  0  0  0  0  0  0
   -0.7982   -1.6840    4.1489 Cl  0  0  0  0  0  0  0  0  0  0  0  0
   -0.7982    2.6594    4.1489 C   0  0  2  0  0  3  0  0  0  0  0  0
   -0.8006    3.4753    3.0759 N   0  0  0  0  0  0  0  0  0  0  0  0
   -0.7996    4.7927    3.4666 C   0  0  0  0  0  0  0  0  0  0  0  0
   -0.8019    6.0801    2.3534 Cl  0  0  0  0  0  0  0  0  0  0  0  0
   -0.8021    3.0261    1.7245 C   0  0  0  0  0  0  0  0  0  0  0  0
    0.4203    2.8171    1.0835 C   0  0  0  0  0  0  0  0  0  0  0  0
    0.3950    2.3849   -0.2357 C   0  0  0  0  0  0  0  0  0  0  0  0
    1.3217    2.2041   -0.7566 H   0  0  0  0  0  0  0  0  0  0  0  0
   -0.8043    2.1730   -0.8879 C   0  0  0  0  0  0  0  0  0  0  0  0
   -0.8053    1.8349   -1.9132 H   0  0  0  0  0  0  0  0  0  0  0  0
   -2.0025    2.3773   -0.2311 C   0  0  0  0  0  0  0  0  0  0  0  0
   -2.9299    2.1901   -0.7484 H   0  0  0  0  0  0  0  0  0  0  0  0
   -2.0256    2.8101    1.0879 C   0  0  0  0  0  0  0  0  0  0  0  0
    1.7304    2.9949    1.8121 C   0  0  0  0  0  0  0  0  0  0  0  0
    1.5445    3.4936    2.7686 H   0  0  0  0  0  0  0  0  0  0  0  0
    2.7110    3.8633    1.0222 C   0  0  0  0  0  0  0  0  0  0  0  0
    3.5961    4.0600    1.6228 H   0  0  0  0  0  0  0  0  0  0  0  0
    2.2519    4.8148    0.7622 H   0  0  0  0  0  0  0  0  0  0  0  0
    3.0272    3.3714    0.1068 H   0  0  0  0  0  0  0  0  0  0  0  0
    2.3270    1.6162    2.1077 C   0  0  0  0  0  0  0  0  0  0  0  0
    1.6192    1.0134    2.6874 H   0  0  0  0  0  0  0  0  0  0  0  0
    3.2473    1.7167    2.6778 H   0  0  0  0  0  0  0  0  0  0  0  0
    2.5456    1.0868    1.1841 H   0  0  0  0  0  0  0  0  0  0  0  0
   -3.3340    2.9814    1.8213 C   0  0  0  0  0  0  0  0  0  0  0  0
   -3.1476    3.4864    2.7744 H   0  0  0  0  0  0  0  0  0  0  0  0
   -3.9190    1.5998    2.1262 C   0  0  0  0  0  0  0  0  0  0  0  0
   -3.2038    1.0043    2.7047 H   0  0  0  0  0  0  0  0  0  0  0  0
   -4.1386    1.0648    1.2060 H   0  0  0  0  0  0  0  0  0  0  0  0
   -4.8369    1.6961    2.7008 H   0  0  0  0  0  0  0  0  0  0  0  0
   -4.3252    3.8378    1.0317 C   0  0  0  0  0  0  0  0  0  0  0  0
   -3.8764    4.7930    0.7674 H   0  0  0  0  0  0  0  0  0  0  0  0
   -5.2105    4.0275    1.6343 H   0  0  0  0  0  0  0  0  0  0  0  0
   -4.6393    3.3400    0.1189 H   0  0  0  0  0  0  0  0  0  0  0  0
   -0.7958    3.4753    5.2219 N   0  0  0  0  0  0  0  0  0  0  0  0
   -0.7968    4.7927    4.8312 C   0  0  0  0  0  0  0  0  0  0  0  0
   -0.7945    6.0801    5.9444 Cl  0  0  0  0  0  0  0  0  0  0  0  0
   -0.7943    3.0261    6.5733 C   0  0  0  0  0  0  0  0  0  0  0  0
   -2.0167    2.8171    7.2144 C   0  0  0  0  0  0  0  0  0  0  0  0
   -1.9914    2.3849    8.5335 C   0  0  0  0  0  0  0  0  0  0  0  0
   -2.9181    2.2041    9.0544 H   0  0  0  0  0  0  0  0  0  0  0  0
   -0.7921    2.1730    9.1857 C   0  0  0  0  0  0  0  0  0  0  0  0
   -0.7911    1.8350   10.2110 H   0  0  0  0  0  0  0  0  0  0  0  0
    0.4060    2.3773    8.5289 C   0  0  0  0  0  0  0  0  0  0  0  0
    1.3335    2.1902    9.0462 H   0  0  0  0  0  0  0  0  0  0  0  0
    0.4292    2.8101    7.2099 C   0  0  0  0  0  0  0  0  0  0  0  0
   -3.3268    2.9949    6.4857 C   0  0  0  0  0  0  0  0  0  0  0  0
   -3.1409    3.4936    5.5292 H   0  0  0  0  0  0  0  0  0  0  0  0
   -4.3074    3.8633    7.2756 C   0  0  0  0  0  0  0  0  0  0  0  0
   -5.1925    4.0600    6.6750 H   0  0  0  0  0  0  0  0  0  0  0  0
   -3.8483    4.8149    7.5356 H   0  0  0  0  0  0  0  0  0  0  0  0
   -4.6236    3.3714    8.1910 H   0  0  0  0  0  0  0  0  0  0  0  0
   -3.9234    1.6162    6.1902 C   0  0  0  0  0  0  0  0  0  0  0  0
   -3.2157    1.0134    5.6104 H   0  0  0  0  0  0  0  0  0  0  0  0
   -4.8437    1.7167    5.6200 H   0  0  0  0  0  0  0  0  0  0  0  0
   -4.1421    1.0868    7.1137 H   0  0  0  0  0  0  0  0  0  0  0  0
    1.7376    2.9814    6.4765 C   0  0  0  0  0  0  0  0  0  0  0  0
    1.5512    3.4864    5.5235 H   0  0  0  0  0  0  0  0  0  0  0  0
    2.3226    1.5998    6.1717 C   0  0  0  0  0  0  0  0  0  0  0  0
    1.6074    1.0043    5.5931 H   0  0  0  0  0  0  0  0  0  0  0  0
    2.5422    1.0648    7.0918 H   0  0  0  0  0  0  0  0  0  0  0  0
    3.2405    1.6961    5.5970 H   0  0  0  0  0  0  0  0  0  0  0  0
    2.7288    3.8378    7.2661 C   0  0  0  0  0  0  0  0  0  0  0  0
    2.2800    4.7930    7.5304 H   0  0  0  0  0  0  0  0  0  0  0  0
    3.6141    4.0275    6.6635 H   0  0  0  0  0  0  0  0  0  0  0  0
    3.0429    3.3400    8.1790 H   0  0  0  0  0  0  0  0  0  0  0  0
  1  2  1  0  0  0  0
  3  1  1  6  0  0  0
  3 36  1  0  0  0  0
  4  5  1  0  0  0  0
  4  3  1  0  0  0  0
  5 37  2  0  0  0  0
  6  5  1  0  0  0  0
  7  4  1  0  0  0  0
  8  7  2  0  0  0  0
  8 16  1  0  0  0  0
  9  8  1  0  0  0  0
 10  9  1  0  0  0  0
 11  9  2  0  0  0  0
 11 13  1  0  0  0  0
 12 11  1  0  0  0  0
 13 15  2  0  0  0  0
 14 13  1  0  0  0  0
 15  7  1  0  0  0  0
 15 26  1  0  0  0  0
 16 22  1  0  0  0  0
 16 17  1  0  0  0  0
 18 19  1  0  0  0  0
 18 16  1  0  0  0  0
 20 18  1  0  0  0  0
 21 18  1  0  0  0  0
 22 24  1  0  0  0  0
 22 23  1  0  0  0  0
 25 22  1  0  0  0  0
 26 28  1  0  0  0  0
 26 27  1  0  0  0  0
 28 31  1  0  0  0  0
 28 29  1  0  0  0  0
 30 28  1  0  0  0  0
 32 34  1  0  0  0  0
 32 26  1  0  0  0  0
 33 32  1  0  0  0  0
 35 32  1  0  0  0  0
 36 39  1  0  0  0  0
 37 36  1  0  0  0  0
 37 38  1  0  0  0  0
 39 47  2  0  0  0  0
 39 40  1  0  0  0  0
 40 41  2  0  0  0  0
 41 42  1  0  0  0  0
 41 43  1  0  0  0  0
 43 44  1  0  0  0  0
 45 46  1  0  0  0  0
 45 43  2  0  0  0  0
 47 45  1  0  0  0  0
 48 40  1  0  0  0  0
 48 50  1  0  0  0  0
 49 48  1  0  0  0  0
 50 52  1  0  0  0  0
 50 53  1  0  0  0  0
 51 50  1  0  0  0  0
 54 48  1  0  0  0  0
 54 57  1  0  0  0  0
 55 54  1  0  0  0  0
 56 54  1  0  0  0  0
 58 47  1  0  0  0  0
 58 64  1  0  0  0  0
 59 58  1  0  0  0  0
 60 58  1  0  0  0  0
 60 62  1  0  0  0  0
 61 60  1  0  0  0  0
 63 60  1  0  0  0  0
 64 65  1  0  0  0  0
 64 67  1  0  0  0  0
 66 64  1  0  0  0  0
M  END
$$$$
