CSD_code = EJAMIM | q = 0 | S = 0 | Stoichiometry = C23H32AuCl3N2 | MND = 4
 OpenBabel04212202033D

 61 67  0  0  1  0  0  0  0  0999 V2000
    0.4230    3.3030    9.4935 Au  0  0  0  0  0  0  0  0  0  0  0  0
    1.1874    5.2107   10.4231 Cl  0  0  0  0  0  0  0  0  0  0  0  0
   -1.6833    4.1338    9.1500 Cl  0  0  0  0  0  0  0  0  0  0  0  0
    2.4277    2.2254    9.7160 Cl  0  0  0  0  0  0  0  0  0  0  0  0
   -0.2483    1.6111    8.6723 C   0  0  0  0  0  0  0  0  0  0  0  0
   -0.2040    1.2950    7.3676 N   0  0  0  0  0  0  0  0  0  0  0  0
   -0.7609    0.0558    7.2031 C   0  0  0  0  0  0  0  0  0  0  0  0
   -0.8431   -0.4335    6.2566 H   0  0  0  0  0  0  0  0  0  0  0  0
   -1.1504   -0.3794    8.4185 C   0  0  0  0  0  0  0  0  0  0  0  0
   -1.6316   -1.2969    8.6806 H   0  0  0  0  0  0  0  0  0  0  0  0
   -0.8254    0.5905    9.3277 N   0  0  0  0  0  0  0  0  0  0  0  0
    0.3131    2.0222    6.1919 C   0  0  1  0  0  0  0  0  0  0  0  0
    1.4434    1.1835    5.5793 C   0  0  0  0  0  0  0  0  0  0  0  0
    2.2582    1.1030    6.3025 H   0  0  0  0  0  0  0  0  0  0  0  0
    1.0963    0.1745    5.3497 H   0  0  0  0  0  0  0  0  0  0  0  0
    1.9388    1.8514    4.2957 C   0  0  1  0  0  0  0  0  0  0  0  0
    2.7300    1.2330    3.8590 H   0  0  0  0  0  0  0  0  0  0  0  0
    0.7822    1.9770    3.3040 C   0  0  0  0  0  0  0  0  0  0  0  0
    1.1390    2.4325    2.3787 H   0  0  0  0  0  0  0  0  0  0  0  0
    0.3905    0.9870    3.0580 H   0  0  0  0  0  0  0  0  0  0  0  0
   -0.3222    2.8419    3.9113 C   0  0  1  0  0  0  0  0  0  0  0  0
   -1.1506    2.9301    3.2004 H   0  0  0  0  0  0  0  0  0  0  0  0
   -0.8406    2.1851    5.1914 C   0  0  0  0  0  0  0  0  0  0  0  0
   -1.2801    1.2183    4.9416 H   0  0  0  0  0  0  0  0  0  0  0  0
   -1.6195    2.8024    5.6447 H   0  0  0  0  0  0  0  0  0  0  0  0
    0.8650    3.4099    6.5099 C   0  0  0  0  0  0  0  0  0  0  0  0
    1.6983    3.3320    7.2101 H   0  0  0  0  0  0  0  0  0  0  0  0
    0.0828    4.0353    6.9432 H   0  0  0  0  0  0  0  0  0  0  0  0
    1.3745    4.0810    5.2305 C   0  0  1  0  0  0  0  0  0  0  0  0
    1.7624    5.0696    5.4938 H   0  0  0  0  0  0  0  0  0  0  0  0
    2.4897    3.2370    4.6202 C   0  0  0  0  0  0  0  0  0  0  0  0
    3.3209    3.1535    5.3227 H   0  0  0  0  0  0  0  0  0  0  0  0
    2.8630    3.7130    3.7118 H   0  0  0  0  0  0  0  0  0  0  0  0
    0.2276    4.2276    4.2351 C   0  0  0  0  0  0  0  0  0  0  0  0
    0.5837    4.7115    3.3240 H   0  0  0  0  0  0  0  0  0  0  0  0
   -0.5597    4.8516    4.6622 H   0  0  0  0  0  0  0  0  0  0  0  0
   -1.1600    0.3951   10.7522 C   0  0  2  0  0  0  0  0  0  0  0  0
   -0.5093   -0.9143   11.2213 C   0  0  0  0  0  0  0  0  0  0  0  0
    0.5767   -0.8172   11.1515 H   0  0  0  0  0  0  0  0  0  0  0  0
   -0.8131   -1.7511   10.5911 H   0  0  0  0  0  0  0  0  0  0  0  0
   -0.9233   -1.2066   12.6645 C   0  0  2  0  0  0  0  0  0  0  0  0
   -0.4708   -2.1543   12.9753 H   0  0  0  0  0  0  0  0  0  0  0  0
   -2.4458   -1.3163   12.7469 C   0  0  0  0  0  0  0  0  0  0  0  0
   -2.7977   -2.1298   12.1081 H   0  0  0  0  0  0  0  0  0  0  0  0
   -2.7436   -1.5472   13.7711 H   0  0  0  0  0  0  0  0  0  0  0  0
   -3.0792    0.0046   12.3110 C   0  0  2  0  0  0  0  0  0  0  0  0
   -4.1696   -0.0737   12.3731 H   0  0  0  0  0  0  0  0  0  0  0  0
   -2.6882    0.3077   10.8639 C   0  0  0  0  0  0  0  0  0  0  0  0
   -3.0786   -0.4755   10.2114 H   0  0  0  0  0  0  0  0  0  0  0  0
   -3.1225    1.2584   10.5456 H   0  0  0  0  0  0  0  0  0  0  0  0
   -0.6748    1.5177   11.6662 C   0  0  0  0  0  0  0  0  0  0  0  0
   -1.1310    2.4649   11.3740 H   0  0  0  0  0  0  0  0  0  0  0  0
    0.4115    1.6053   11.6105 H   0  0  0  0  0  0  0  0  0  0  0  0
   -1.0733    1.2272   13.1166 C   0  0  2  0  0  0  0  0  0  0  0  0
   -0.7134    2.0499   13.7416 H   0  0  0  0  0  0  0  0  0  0  0  0
   -0.4377   -0.0820   13.5736 C   0  0  0  0  0  0  0  0  0  0  0  0
    0.6502   -0.0062   13.5270 H   0  0  0  0  0  0  0  0  0  0  0  0
   -0.7160   -0.2904   14.6081 H   0  0  0  0  0  0  0  0  0  0  0  0
   -2.5929    1.1311   13.2182 C   0  0  0  0  0  0  0  0  0  0  0  0
   -2.8857    0.9327   14.2508 H   0  0  0  0  0  0  0  0  0  0  0  0
   -3.0473    2.0764   12.9161 H   0  0  0  0  0  0  0  0  0  0  0  0
  1  4  1  0  0  0  0
  1  2  1  0  0  0  0
  3  1  1  0  0  0  0
  5 11  1  0  0  0  0
  5  1  2  0  0  0  0
  6  5  1  0  0  0  0
  7  6  1  0  0  0  0
  7  9  2  0  0  0  0
  8  7  1  0  0  0  0
  9 10  1  0  0  0  0
  9 11  1  0  0  0  0
 12 26  1  0  0  0  0
 12  6  1  1  0  0  0
 13 12  1  0  0  0  0
 13 14  1  0  0  0  0
 15 13  1  0  0  0  0
 16 17  1  6  0  0  0
 16 31  1  0  0  0  0
 16 13  1  0  0  0  0
 18 21  1  0  0  0  0
 18 16  1  0  0  0  0
 19 18  1  0  0  0  0
 20 18  1  0  0  0  0
 21 22  1  6  0  0  0
 21 34  1  0  0  0  0
 21 23  1  0  0  0  0
 23 25  1  0  0  0  0
 23 12  1  0  0  0  0
 24 23  1  0  0  0  0
 26 28  1  0  0  0  0
 26 27  1  0  0  0  0
 29 30  1  1  0  0  0
 29 26  1  0  0  0  0
 31 29  1  0  0  0  0
 31 32  1  0  0  0  0
 33 31  1  0  0  0  0
 34 36  1  0  0  0  0
 34 29  1  0  0  0  0
 35 34  1  0  0  0  0
 37 11  1  6  0  0  0
 37 48  1  0  0  0  0
 37 38  1  0  0  0  0
 37 51  1  0  0  0  0
 38 41  1  0  0  0  0
 39 38  1  0  0  0  0
 40 38  1  0  0  0  0
 41 43  1  0  0  0  0
 41 42  1  1  0  0  0
 41 56  1  0  0  0  0
 43 45  1  0  0  0  0
 44 43  1  0  0  0  0
 46 47  1  1  0  0  0
 46 43  1  0  0  0  0
 46 59  1  0  0  0  0
 48 46  1  0  0  0  0
 49 48  1  0  0  0  0
 50 48  1  0  0  0  0
 51 54  1  0  0  0  0
 52 51  1  0  0  0  0
 53 51  1  0  0  0  0
 54 59  1  0  0  0  0
 54 56  1  0  0  0  0
 54 55  1  1  0  0  0
 56 58  1  0  0  0  0
 57 56  1  0  0  0  0
 59 60  1  0  0  0  0
 61 59  1  0  0  0  0
M  END
$$$$
