CSD_code = EJANOT | q = 0 | S = 0 | Stoichiometry = C11H20AuCl3N2 | MND = 4
 OpenBabel04212202033D

 37 37  0  0  0  0  0  0  0  0999 V2000
    5.9989    7.7011    8.6394 Au  0  0  0  0  0  0  0  0  0  0  0  0
    4.6903    6.0511    9.4542 Cl  0  0  0  0  0  0  0  0  0  0  0  0
    5.1894    9.1856   10.1764 Cl  0  0  0  0  0  0  0  0  0  0  0  0
    6.8981    6.3298    7.0446 Cl  0  0  0  0  0  0  0  0  0  0  0  0
    7.1813    9.1322    7.8762 C   0  0  0  0  0  0  0  0  0  0  0  0
    6.8757    9.9401    6.8459 N   0  0  0  0  0  0  0  0  0  0  0  0
    7.9723   10.7003    6.5525 C   0  0  0  0  0  0  0  0  0  0  0  0
    7.9997   11.4293    5.7735 H   0  0  0  0  0  0  0  0  0  0  0  0
    8.9548   10.3463    7.4097 C   0  0  0  0  0  0  0  0  0  0  0  0
    9.9500   10.7262    7.4747 H   0  0  0  0  0  0  0  0  0  0  0  0
    8.4574    9.3701    8.2259 N   0  0  0  0  0  0  0  0  0  0  0  0
    5.5619   10.1539    6.2056 C   0  0  0  0  0  0  0  0  0  0  0  0
    4.8314    8.8351    5.9571 C   0  0  0  0  0  0  0  0  0  0  0  0
    4.4168    8.4211    6.8745 H   0  0  0  0  0  0  0  0  0  0  0  0
    5.4950    8.0994    5.5094 H   0  0  0  0  0  0  0  0  0  0  0  0
    3.9989    9.0064    5.2796 H   0  0  0  0  0  0  0  0  0  0  0  0
    5.7651   10.8403    4.8503 C   0  0  0  0  0  0  0  0  0  0  0  0
    4.8117   10.8781    4.3308 H   0  0  0  0  0  0  0  0  0  0  0  0
    6.4636   10.2799    4.2329 H   0  0  0  0  0  0  0  0  0  0  0  0
    6.1114   11.8649    4.9590 H   0  0  0  0  0  0  0  0  0  0  0  0
    4.7473   11.0628    7.1299 C   0  0  0  0  0  0  0  0  0  0  0  0
    4.6311   10.6123    8.1124 H   0  0  0  0  0  0  0  0  0  0  0  0
    3.7614   11.2281    6.7050 H   0  0  0  0  0  0  0  0  0  0  0  0
    5.2393   12.0259    7.2516 H   0  0  0  0  0  0  0  0  0  0  0  0
    9.2046    8.8418    9.3853 C   0  0  0  0  0  0  0  0  0  0  0  0
   10.7048    9.0653    9.1649 C   0  0  0  0  0  0  0  0  0  0  0  0
   10.9719   10.1180    9.2113 H   0  0  0  0  0  0  0  0  0  0  0  0
   11.0238    8.6469    8.2131 H   0  0  0  0  0  0  0  0  0  0  0  0
   11.2532    8.5607    9.9553 H   0  0  0  0  0  0  0  0  0  0  0  0
    8.7406    9.6208   10.6189 C   0  0  0  0  0  0  0  0  0  0  0  0
    8.9616   10.6807   10.5083 H   0  0  0  0  0  0  0  0  0  0  0  0
    9.2540    9.2495   11.5011 H   0  0  0  0  0  0  0  0  0  0  0  0
    7.6696    9.5094   10.7675 H   0  0  0  0  0  0  0  0  0  0  0  0
    8.9766    7.3423    9.5702 C   0  0  0  0  0  0  0  0  0  0  0  0
    7.9954    7.1294    9.9907 H   0  0  0  0  0  0  0  0  0  0  0  0
    9.7139    6.9487   10.2649 H   0  0  0  0  0  0  0  0  0  0  0  0
    9.0749    6.8131    8.6256 H   0  0  0  0  0  0  0  0  0  0  0  0
  1  2  1  0  0  0  0
  1  3  1  0  0  0  0
  4  1  1  0  0  0  0
  5 11  1  0  0  0  0
  5  1  2  0  0  0  0
  6  5  1  0  0  0  0
  7  6  1  0  0  0  0
  7  9  2  0  0  0  0
  8  7  1  0  0  0  0
  9 10  1  0  0  0  0
  9 11  1  0  0  0  0
 11 25  1  0  0  0  0
 12  6  1  0  0  0  0
 12 21  1  0  0  0  0
 13 12  1  0  0  0  0
 13 14  1  0  0  0  0
 15 13  1  0  0  0  0
 16 13  1  0  0  0  0
 17 20  1  0  0  0  0
 17 12  1  0  0  0  0
 18 17  1  0  0  0  0
 19 17  1  0  0  0  0
 21 24  1  0  0  0  0
 21 22  1  0  0  0  0
 23 21  1  0  0  0  0
 25 34  1  0  0  0  0
 25 30  1  0  0  0  0
 26 27  1  0  0  0  0
 26 25  1  0  0  0  0
 26 29  1  0  0  0  0
 28 26  1  0  0  0  0
 30 33  1  0  0  0  0
 30 32  1  0  0  0  0
 31 30  1  0  0  0  0
 34 35  1  0  0  0  0
 34 36  1  0  0  0  0
 37 34  1  0  0  0  0
M  END
$$$$
