CSD_code = EJAREM | q = 0 | S = 0 | Stoichiometry = C22H33BrN6O3SZn | MND = 4
 OpenBabel04212202033D

 67 72  0  0  1  0  0  0  0  0999 V2000
   19.2701    5.4122    3.6209 Zn  0  0  0  0  0  0  0  0  0  0  0  0
   20.7801    3.8565    4.1265 Br  0  0  0  0  0  0  0  0  0  0  0  0
   16.8446    5.5790    3.8859 S   0  0  2  0  0  0  0  0  0  0  0  0
   17.4974    4.6327    2.9875 O   0  0  0  0  0  0  0  0  0  0  0  0
   17.5979    5.6728    5.1225 O   0  0  0  0  0  0  0  0  0  0  0  0
   15.4262    5.4970    3.9596 O   0  0  0  0  0  1  0  0  0  0  0  0
   19.0102    6.3415    1.7047 N   0  0  0  0  0  0  0  0  0  0  0  0
   17.8087    6.9461    1.7580 N   0  0  1  0  0  0  0  0  0  0  0  0
   19.4013    7.3755    4.2157 N   0  0  0  0  0  0  0  0  0  0  0  0
   18.2635    7.9669    3.8252 N   0  0  2  0  0  0  0  0  0  0  0  0
   15.8002    8.8862    1.9550 N   0  0  0  0  0  0  0  0  0  0  0  0
   16.0888    8.0649    2.9794 N   0  0  0  0  0  0  0  0  0  0  0  0
   17.2347    6.9820    0.5417 C   0  0  0  0  0  3  0  0  0  0  0  0
   16.2719    7.4225    0.3896 H   0  0  0  0  0  0  0  0  0  0  0  0
   18.1249    6.4218   -0.3383 C   0  0  0  0  0  0  0  0  0  0  0  0
   17.9873    6.3081   -1.3926 H   0  0  0  0  0  0  0  0  0  0  0  0
   19.2310    6.0288    0.4309 C   0  0  0  0  0  0  0  0  0  0  0  0
   20.4844    5.3510   -0.0448 C   0  0  0  0  0  0  0  0  0  0  0  0
   20.7026    5.6411   -1.5341 C   0  0  0  0  0  0  0  0  0  0  0  0
   19.9141    5.2025   -2.1395 H   0  0  0  0  0  0  0  0  0  0  0  0
   21.6486    5.2101   -1.8514 H   0  0  0  0  0  0  0  0  0  0  0  0
   20.7334    6.7124   -1.7199 H   0  0  0  0  0  0  0  0  0  0  0  0
   20.3148    3.8391    0.1563 C   0  0  0  0  0  0  0  0  0  0  0  0
   19.4774    3.4688   -0.4308 H   0  0  0  0  0  0  0  0  0  0  0  0
   20.1294    3.6058    1.2007 H   0  0  0  0  0  0  0  0  0  0  0  0
   21.2181    3.3208   -0.1537 H   0  0  0  0  0  0  0  0  0  0  0  0
   21.6947    5.8558    0.7453 C   0  0  0  0  0  0  0  0  0  0  0  0
   21.7973    6.9334    0.6387 H   0  0  0  0  0  0  0  0  0  0  0  0
   22.5999    5.3816    0.3763 H   0  0  0  0  0  0  0  0  0  0  0  0
   21.5985    5.6180    1.8003 H   0  0  0  0  0  0  0  0  0  0  0  0
   18.1874    9.2185    4.3174 C   0  0  0  0  0  3  0  0  0  0  0  0
   17.3626    9.8696    4.1112 H   0  0  0  0  0  0  0  0  0  0  0  0
   19.3243    9.4364    5.0514 C   0  0  0  0  0  0  0  0  0  0  0  0
   19.5779   10.3327    5.5759 H   0  0  0  0  0  0  0  0  0  0  0  0
   20.0667    8.2481    4.9668 C   0  0  0  0  0  0  0  0  0  0  0  0
   21.3913    7.9421    5.6069 C   0  0  0  0  0  0  0  0  0  0  0  0
   22.3797    7.4486    4.5449 C   0  0  0  0  0  0  0  0  0  0  0  0
   22.0401    6.5212    4.0954 H   0  0  0  0  0  0  0  0  0  0  0  0
   23.3475    7.2636    5.0022 H   0  0  0  0  0  0  0  0  0  0  0  0
   22.5018    8.1934    3.7615 H   0  0  0  0  0  0  0  0  0  0  0  0
   21.1795    6.8649    6.6783 C   0  0  0  0  0  0  0  0  0  0  0  0
   20.5218    7.2337    7.4624 H   0  0  0  0  0  0  0  0  0  0  0  0
   22.1335    6.5914    7.1202 H   0  0  0  0  0  0  0  0  0  0  0  0
   20.7337    5.9715    6.2517 H   0  0  0  0  0  0  0  0  0  0  0  0
   21.9604    9.2012    6.2686 C   0  0  0  0  0  0  0  0  0  0  0  0
   21.3040    9.5600    7.0573 H   0  0  0  0  0  0  0  0  0  0  0  0
   22.1036    9.9943    5.5384 H   0  0  0  0  0  0  0  0  0  0  0  0
   22.9247    8.9688    6.7127 H   0  0  0  0  0  0  0  0  0  0  0  0
   15.2088    8.2287    4.0026 C   0  0  0  0  0  0  0  0  0  0  0  0
   15.2952    7.6672    4.9084 H   0  0  0  0  0  0  0  0  0  0  0  0
   14.2997    9.1649    3.5925 C   0  0  0  0  0  0  0  0  0  0  0  0
   13.4575    9.5233    4.1450 H   0  0  0  0  0  0  0  0  0  0  0  0
   14.7102    9.5445    2.2955 C   0  0  0  0  0  0  0  0  0  0  0  0
   14.1050   10.5605    1.3691 C   0  0  0  0  0  0  0  0  0  0  0  0
   12.6800   10.9043    1.8046 C   0  0  0  0  0  0  0  0  0  0  0  0
   12.0661   10.0078    1.8506 H   0  0  0  0  0  0  0  0  0  0  0  0
   12.2326   11.5913    1.0900 H   0  0  0  0  0  0  0  0  0  0  0  0
   12.6760   11.3813    2.7817 H   0  0  0  0  0  0  0  0  0  0  0  0
   14.0904    9.9948   -0.0547 C   0  0  0  0  0  0  0  0  0  0  0  0
   13.4845    9.0925   -0.0972 H   0  0  0  0  0  0  0  0  0  0  0  0
   15.1013    9.7506   -0.3691 H   0  0  0  0  0  0  0  0  0  0  0  0
   13.6738   10.7251   -0.7443 H   0  0  0  0  0  0  0  0  0  0  0  0
   14.9786   11.8224    1.4095 C   0  0  0  0  0  0  0  0  0  0  0  0
   15.0120   12.2325    2.4170 H   0  0  0  0  0  0  0  0  0  0  0  0
   14.5731   12.5790    0.7421 H   0  0  0  0  0  0  0  0  0  0  0  0
   15.9924   11.5857    1.0961 H   0  0  0  0  0  0  0  0  0  0  0  0
   17.2660    7.2800    3.0374 C   0  0  2  0  0  0  0  0  0  0  0  0
  1  2  1  0  0  0  0
  1  9  1  0  0  0  0
  1  5  1  0  0  0  0
  3  6  1  1  0  0  0
  3  5  1  0  0  0  0
  4  1  1  0  0  0  0
  4  3  1  0  0  0  0
  7  8  1  0  0  0  0
  7  1  1  0  0  0  0
  8 13  1  1  0  0  0
  8 67  1  0  0  0  0
  9 35  1  0  0  0  0
 10  9  1  0  0  0  0
 10 31  1  1  0  0  0
 11 53  2  0  0  0  0
 11 12  1  0  0  0  0
 12 49  1  0  0  0  0
 14 13  1  0  0  0  0
 15 17  2  0  0  0  0
 15 13  1  0  0  0  0
 16 15  1  0  0  0  0
 17  7  1  0  0  0  0
 18 23  1  0  0  0  0
 18 17  1  0  0  0  0
 18 27  1  0  0  0  0
 19 18  1  0  0  0  0
 20 19  1  0  0  0  0
 21 19  1  0  0  0  0
 22 19  1  0  0  0  0
 23 25  1  0  0  0  0
 24 23  1  0  0  0  0
 26 23  1  0  0  0  0
 27 30  1  0  0  0  0
 28 27  1  0  0  0  0
 29 27  1  0  0  0  0
 31 33  1  0  0  0  0
 32 31  1  0  0  0  0
 33 34  1  0  0  0  0
 35 33  2  0  0  0  0
 35 36  1  0  0  0  0
 36 45  1  0  0  0  0
 36 41  1  0  0  0  0
 37 39  1  0  0  0  0
 37 36  1  0  0  0  0
 38 37  1  0  0  0  0
 40 37  1  0  0  0  0
 41 43  1  0  0  0  0
 41 42  1  0  0  0  0
 44 41  1  0  0  0  0
 45 48  1  0  0  0  0
 45 46  1  0  0  0  0
 47 45  1  0  0  0  0
 49 50  1  0  0  0  0
 51 49  2  0  0  0  0
 51 52  1  0  0  0  0
 53 51  1  0  0  0  0
 54 63  1  0  0  0  0
 54 55  1  0  0  0  0
 54 53  1  0  0  0  0
 55 56  1  0  0  0  0
 55 58  1  0  0  0  0
 57 55  1  0  0  0  0
 59 54  1  0  0  0  0
 60 59  1  0  0  0  0
 61 59  1  0  0  0  0
 62 59  1  0  0  0  0
 63 64  1  0  0  0  0
 65 63  1  0  0  0  0
 66 63  1  0  0  0  0
 67 12  1  6  0  0  0
 67 10  1  0  0  0  0
 67  3  1  0  0  0  0
M  END
$$$$
