CSD_code = EJEGIK | q = 0 | S = 0 | Stoichiometry = C21H27Cl2N3P2Pt | MND = 4
 OpenBabel04212202033D

 56 59  0  0  0  0  0  0  0  0999 V2000
    0.9149   -0.1476    8.6553 Pt  0  0  0  0  0  0  0  0  0  0  0  0
    2.9474    0.4362    7.8379 P   0  0  0  0  0  4  0  0  0  0  0  0
   -0.1250    0.7416    6.8454 P   0  0  0  0  0  4  0  0  0  0  0  0
    2.0358   -1.0599   10.4515 Cl  0  0  0  0  0  0  0  0  0  0  0  0
   -1.1498   -0.6480    9.5205 Cl  0  0  0  0  0  0  0  0  0  0  0  0
    3.2941    2.2478    5.6401 N   0  0  0  0  0  0  0  0  0  0  0  0
    2.4506    2.8065    4.8045 N   0  0  0  0  0  0  0  0  0  0  0  0
    1.1918    2.4765    4.9785 N   0  0  0  0  0  0  0  0  0  0  0  0
    2.5405    1.4929    6.4296 C   0  0  0  0  0  0  0  0  0  0  0  0
    1.1975    1.6403    6.0090 C   0  0  0  0  0  0  0  0  0  0  0  0
    3.8958    1.5470    8.9096 C   0  0  0  0  0  0  0  0  0  0  0  0
    3.1488    2.3209    9.7931 C   0  0  0  0  0  0  0  0  0  0  0  0
    2.0686    2.2002    9.8148 H   0  0  0  0  0  0  0  0  0  0  0  0
    3.7841    3.1998   10.6485 C   0  0  0  0  0  0  0  0  0  0  0  0
    3.2067    3.7948   11.3403 H   0  0  0  0  0  0  0  0  0  0  0  0
    5.1665    3.3037   10.6253 C   0  0  0  0  0  0  0  0  0  0  0  0
    5.6663    3.9841   11.2989 H   0  0  0  0  0  0  0  0  0  0  0  0
    5.9104    2.5283    9.7508 C   0  0  0  0  0  0  0  0  0  0  0  0
    6.9878    2.6053    9.7441 H   0  0  0  0  0  0  0  0  0  0  0  0
    5.2808    1.6463    8.8898 C   0  0  0  0  0  0  0  0  0  0  0  0
    5.8597    1.0316    8.2156 H   0  0  0  0  0  0  0  0  0  0  0  0
    4.1347   -0.7583    7.1734 C   0  0  0  0  0  0  0  0  0  0  0  0
    4.9993   -0.4334    6.1321 C   0  0  0  0  0  0  0  0  0  0  0  0
    4.9685    0.5561    5.6971 H   0  0  0  0  0  0  0  0  0  0  0  0
    5.8891   -1.3839    5.6650 C   0  0  0  0  0  0  0  0  0  0  0  0
    6.5639   -1.1367    4.8581 H   0  0  0  0  0  0  0  0  0  0  0  0
    5.9171   -2.6500    6.2292 C   0  0  0  0  0  0  0  0  0  0  0  0
    6.6141   -3.3872    5.8584 H   0  0  0  0  0  0  0  0  0  0  0  0
    5.0541   -2.9721    7.2645 C   0  0  0  0  0  0  0  0  0  0  0  0
    5.0772   -3.9591    7.7017 H   0  0  0  0  0  0  0  0  0  0  0  0
    4.1593   -2.0296    7.7381 C   0  0  0  0  0  0  0  0  0  0  0  0
    3.4797   -2.2600    8.5478 H   0  0  0  0  0  0  0  0  0  0  0  0
   -1.4958    1.9559    7.0540 C   0  0  0  0  0  0  0  0  0  0  0  0
   -2.3142    1.3866    7.5111 H   0  0  0  0  0  0  0  0  0  0  0  0
   -1.0040    2.9941    8.0607 C   0  0  0  0  0  0  0  0  0  0  0  0
   -0.6603    2.4892    8.9666 H   0  0  0  0  0  0  0  0  0  0  0  0
   -1.8057    3.6777    8.3319 H   0  0  0  0  0  0  0  0  0  0  0  0
   -0.1789    3.5734    7.6460 H   0  0  0  0  0  0  0  0  0  0  0  0
   -1.9417    2.5816    5.7382 C   0  0  0  0  0  0  0  0  0  0  0  0
   -2.3771    1.8377    5.0751 H   0  0  0  0  0  0  0  0  0  0  0  0
   -1.0965    3.0434    5.2317 H   0  0  0  0  0  0  0  0  0  0  0  0
   -2.6928    3.3455    5.9315 H   0  0  0  0  0  0  0  0  0  0  0  0
   -0.6284   -0.5012    5.5701 C   0  0  0  0  0  0  0  0  0  0  0  0
   -0.7369    0.0060    4.6033 H   0  0  0  0  0  0  0  0  0  0  0  0
    0.5041   -1.5246    5.5050 C   0  0  0  0  0  0  0  0  0  0  0  0
    1.4398   -1.0603    5.1891 H   0  0  0  0  0  0  0  0  0  0  0  0
    0.2644   -2.3246    4.8073 H   0  0  0  0  0  0  0  0  0  0  0  0
    0.6561   -1.9636    6.4966 H   0  0  0  0  0  0  0  0  0  0  0  0
   -1.9372   -1.1579    5.9951 C   0  0  0  0  0  0  0  0  0  0  0  0
   -2.7736   -0.4675    5.9109 H   0  0  0  0  0  0  0  0  0  0  0  0
   -1.8660   -1.4857    7.0321 H   0  0  0  0  0  0  0  0  0  0  0  0
   -2.1443   -2.0244    5.3698 H   0  0  0  0  0  0  0  0  0  0  0  0
    2.8759    3.7106    3.7796 C   0  0  0  0  0  0  0  0  0  0  0  0
    3.9459    3.8653    3.8944 H   0  0  0  0  0  0  0  0  0  0  0  0
    2.3465    4.6584    3.8789 H   0  0  0  0  0  0  0  0  0  0  0  0
    2.6622    3.2891    2.7964 H   0  0  0  0  0  0  0  0  0  0  0  0
  1  5  1  0  0  0  0
  1  4  1  0  0  0  0
  2  1  1  0  0  0  0
  2 11  1  0  0  0  0
  3 33  1  0  0  0  0
  3  1  1  0  0  0  0
  6  9  2  0  0  0  0
  7  8  1  0  0  0  0
  7  6  1  0  0  0  0
  8 10  2  0  0  0  0
  9  2  1  0  0  0  0
 10  9  1  0  0  0  0
 10  3  1  0  0  0  0
 11 12  1  0  0  0  0
 12 13  1  0  0  0  0
 12 14  2  0  0  0  0
 14 15  1  0  0  0  0
 16 14  1  0  0  0  0
 16 17  1  0  0  0  0
 18 16  2  0  0  0  0
 19 18  1  0  0  0  0
 20 11  2  0  0  0  0
 20 18  1  0  0  0  0
 21 20  1  0  0  0  0
 22 31  1  0  0  0  0
 22  2  1  0  0  0  0
 23 22  2  0  0  0  0
 24 23  1  0  0  0  0
 25 23  1  0  0  0  0
 25 27  2  0  0  0  0
 26 25  1  0  0  0  0
 27 29  1  0  0  0  0
 28 27  1  0  0  0  0
 29 30  1  0  0  0  0
 29 31  2  0  0  0  0
 31 32  1  0  0  0  0
 33 34  1  0  0  0  0
 33 35  1  0  0  0  0
 35 37  1  0  0  0  0
 35 36  1  0  0  0  0
 38 35  1  0  0  0  0
 39 42  1  0  0  0  0
 39 33  1  0  0  0  0
 40 39  1  0  0  0  0
 41 39  1  0  0  0  0
 43 49  1  0  0  0  0
 43  3  1  0  0  0  0
 44 43  1  0  0  0  0
 45 43  1  0  0  0  0
 45 48  1  0  0  0  0
 46 45  1  0  0  0  0
 47 45  1  0  0  0  0
 49 51  1  0  0  0  0
 50 49  1  0  0  0  0
 52 49  1  0  0  0  0
 53 55  1  0  0  0  0
 53 54  1  0  0  0  0
 53  7  1  0  0  0  0
 56 53  1  0  0  0  0
M  END
$$$$
