CSD_code = EJIMIU | q = 1 | S = 0 | Stoichiometry = C9H16Cl2NORuS(1+) | MND = 9
 OpenBabel04212202033D

 31 29  0  0  1  0  0  0  0  0999 V2000
    1.2523    1.8206    2.4255 Ru  0  0  0  0  0  0  0  0  0  0  0  0
    0.4680    3.2949    4.0948 Cl  0  0  0  0  0 15  0  0  0  0  0  0
   -0.9499    1.2784    1.8801 Cl  0  0  0  0  0 15  0  0  0  0  0  0
    4.0976    3.1578    3.5776 C   0  0  0  0  0  0  0  0  0  0  0  0
    4.3864    3.0297    4.6234 H   0  0  0  0  0  0  0  0  0  0  0  0
    4.9926    3.3673    2.9861 H   0  0  0  0  0  0  0  0  0  0  0  0
    3.1637    4.3077    3.4754 N   0  0  0  0  0  4  0  0  0  0  0  0
    2.2296    4.0762    3.9710 H   0  0  0  0  0  0  0  0  0  0  0  0
    2.8657    4.4677    2.4749 H   0  0  0  0  0  0  0  0  0  0  0  0
    3.5706    5.1629    3.8567 H   0  0  0  0  0  0  0  0  0  0  0  0
    2.7161    0.4620    1.2079 C   0  0  0  0  0  0  0  0  0  0  0  0
    2.7685    0.2066    0.1575 H   0  0  0  0  0  0  0  0  0  0  0  0
    2.7642    1.0196    3.9680 C   0  0  0  0  0  0  0  0  0  0  0  0
    2.8309    1.1940    5.0376 H   0  0  0  0  0  0  0  0  0  0  0  0
    3.4171    1.9080    3.0713 C   0  0  1  0  0  0  0  0  0  0  0  0
    3.3810    1.6163    1.6913 C   0  0  0  0  0  3  0  0  0  0  0  0
    3.9356    2.2412    0.9993 H   0  0  0  0  0  0  0  0  0  0  0  0
    2.0804   -0.1127    3.4936 C   0  0  0  0  0  0  0  0  0  0  0  0
    1.6266   -0.8065    4.1917 H   0  0  0  0  0  0  0  0  0  0  0  0
    2.0423   -0.3787    2.1024 C   0  0  0  0  0  0  0  0  0  0  0  0
    1.5438   -1.2701    1.7407 H   0  0  0  0  0  0  0  0  0  0  0  0
    2.0007    4.3600    1.0269 O   0  0  0  0  0  1  0  0  0  0  0  0
    0.8064    3.4951    0.9907 S   0  0  0  0  0  0  0  0  0  0  0  0
   -0.6388    4.5450    1.1979 C   0  0  0  0  0  0  0  0  0  0  0  0
   -0.5940    4.9973    2.1842 H   0  0  0  0  0  0  0  0  0  0  0  0
   -1.5120    3.9061    1.1179 H   0  0  0  0  0  0  0  0  0  0  0  0
   -0.6191    5.3071    0.4273 H   0  0  0  0  0  0  0  0  0  0  0  0
    0.5827    2.9536   -0.7130 C   0  0  0  0  0  0  0  0  0  0  0  0
    1.4799    2.4342   -1.0339 H   0  0  0  0  0  0  0  0  0  0  0  0
    0.4103    3.8210   -1.3406 H   0  0  0  0  0  0  0  0  0  0  0  0
   -0.2714    2.2835   -0.7175 H   0  0  0  0  0  0  0  0  0  0  0  0
  4  5  1  0  0  0  0
  6  4  1  0  0  0  0
  7  4  1  0  0  0  0
  7 10  1  0  0  0  0
  7  8  1  0  0  0  0
  9  7  1  0  0  0  0
 11 16  1  0  0  0  0
 11 20  2  0  0  0  0
 12 11  1  0  0  0  0
 13 14  1  0  0  0  0
 15  1  1  6  0  0  0
 15  4  1  0  0  0  0
 15 13  1  0  0  0  0
 16 15  1  0  0  0  0
 17 16  1  0  0  0  0
 18 13  2  0  0  0  0
 18 19  1  0  0  0  0
 20 18  1  0  0  0  0
 21 20  1  0  0  0  0
 23 22  1  0  0  0  0
 23 24  1  0  0  0  0
 23  1  1  0  0  0  0
 24 25  1  0  0  0  0
 26 24  1  0  0  0  0
 27 24  1  0  0  0  0
 28 23  1  0  0  0  0
 29 28  1  0  0  0  0
 30 28  1  0  0  0  0
 31 28  1  0  0  0  0
M  END
$$$$
