CSD_code = EJIPOE | q = 0 | S = 0 | Stoichiometry = C20H16ClCuN4 | MND = 2
 OpenBabel04212202033D

 42 45  0  0  1  0  0  0  0  0999 V2000
    0.1036    4.6223   12.1761 C   0  0  1  0  0  3  0  0  0  0  0  0
    1.8518    3.4353   11.4693 C   0  0  0  0  0  0  0  0  0  0  0  0
    0.4728    6.4493   10.5496 C   0  0  0  0  0  0  0  0  0  0  0  0
    1.4679    7.0473    9.7824 C   0  0  0  0  0  0  0  0  0  0  0  0
    2.4225    6.5561    9.6848 H   0  0  0  0  0  0  0  0  0  0  0  0
    1.2232    8.2577    9.1623 C   0  0  0  0  0  0  0  0  0  0  0  0
    1.9987    8.7195    8.5702 H   0  0  0  0  0  0  0  0  0  0  0  0
   -0.0074    8.8776    9.3024 C   0  0  0  0  0  0  0  0  0  0  0  0
   -0.1956    9.8241    8.8190 H   0  0  0  0  0  0  0  0  0  0  0  0
   -0.9975    8.2779   10.0638 C   0  0  0  0  0  0  0  0  0  0  0  0
   -1.9598    8.7534   10.1741 H   0  0  0  0  0  0  0  0  0  0  0  0
   -0.7672    7.0645   10.6846 C   0  0  0  0  0  0  0  0  0  0  0  0
   -1.5413    6.5962   11.2761 H   0  0  0  0  0  0  0  0  0  0  0  0
    0.5339    2.5039   13.3726 C   0  0  0  0  0  0  0  0  0  0  0  0
   -0.7373    1.9494   13.4576 C   0  0  0  0  0  0  0  0  0  0  0  0
   -1.5013    2.2552   12.7594 H   0  0  0  0  0  0  0  0  0  0  0  0
   -1.0099    1.0198   14.4446 C   0  0  0  0  0  0  0  0  0  0  0  0
   -2.0001    0.5983   14.5188 H   0  0  0  0  0  0  0  0  0  0  0  0
   -0.0205    0.6363   15.3354 C   0  0  0  0  0  0  0  0  0  0  0  0
   -0.2387   -0.0871   16.1057 H   0  0  0  0  0  0  0  0  0  0  0  0
    1.2460    1.1885   15.2454 C   0  0  0  0  0  0  0  0  0  0  0  0
    2.0157    0.9008   15.9454 H   0  0  0  0  0  0  0  0  0  0  0  0
    1.5289    2.1264   14.2676 C   0  0  0  0  0  0  0  0  0  0  0  0
    2.5048    2.5887   14.2202 H   0  0  0  0  0  0  0  0  0  0  0  0
    3.7827    2.1997   10.5521 C   0  0  0  0  0  0  0  0  0  0  0  0
    4.5293    1.0327   10.6962 C   0  0  0  0  0  0  0  0  0  0  0  0
    4.2558    0.3109   11.4537 H   0  0  0  0  0  0  0  0  0  0  0  0
    5.6143    0.7990    9.8736 C   0  0  0  0  0  0  0  0  0  0  0  0
    6.1876   -0.1081    9.9927 H   0  0  0  0  0  0  0  0  0  0  0  0
    5.9649    1.7224    8.9026 C   0  0  0  0  0  0  0  0  0  0  0  0
    6.8132    1.5384    8.2617 H   0  0  0  0  0  0  0  0  0  0  0  0
    5.2197    2.8806    8.7592 C   0  0  0  0  0  0  0  0  0  0  0  0
    5.4860    3.6028    8.0023 H   0  0  0  0  0  0  0  0  0  0  0  0
    4.1314    3.1266    9.5763 C   0  0  0  0  0  0  0  0  0  0  0  0
    3.5441    4.0224    9.4679 H   0  0  0  0  0  0  0  0  0  0  0  0
   -3.0741    5.4714   14.3920 Cl  0  0  0  0  0  0  0  0  0  0  0  0
   -1.4149    5.0946   13.2128 Cu  0  0  0  0  0  0  0  0  0  0  0  0
    1.8226    4.5020   10.7241 N   0  0  0  0  0  0  0  0  0  0  0  0
    0.7499    5.2180   11.1645 N   0  0  0  0  0  0  0  0  0  0  0  0
    0.8120    3.4706   12.3801 N   0  0  0  0  0  0  0  0  0  0  0  0
    2.7026    2.3903   11.4145 N   0  0  0  0  0  0  0  0  0  0  0  0
    2.5113    1.6368   12.0620 H   0  0  0  0  0  0  0  0  0  0  0  0
  1 40  1  0  0  0  0
  1 37  1  1  0  0  0
  2 40  1  0  0  0  0
  3 12  1  0  0  0  0
  3 39  1  0  0  0  0
  4  3  2  0  0  0  0
  5  4  1  0  0  0  0
  6  8  2  0  0  0  0
  6  4  1  0  0  0  0
  7  6  1  0  0  0  0
  8 10  1  0  0  0  0
  9  8  1  0  0  0  0
 10 11  1  0  0  0  0
 10 12  2  0  0  0  0
 12 13  1  0  0  0  0
 14 15  2  0  0  0  0
 14 23  1  0  0  0  0
 15 17  1  0  0  0  0
 16 15  1  0  0  0  0
 17 18  1  0  0  0  0
 17 19  2  0  0  0  0
 19 20  1  0  0  0  0
 21 19  1  0  0  0  0
 21 22  1  0  0  0  0
 23 21  2  0  0  0  0
 24 23  1  0  0  0  0
 25 26  1  0  0  0  0
 25 41  1  0  0  0  0
 26 27  1  0  0  0  0
 28 29  1  0  0  0  0
 28 26  2  0  0  0  0
 30 28  1  0  0  0  0
 31 30  1  0  0  0  0
 32 30  2  0  0  0  0
 32 34  1  0  0  0  0
 33 32  1  0  0  0  0
 34 25  2  0  0  0  0
 35 34  1  0  0  0  0
 37 36  1  0  0  0  0
 38 39  1  0  0  0  0
 38  2  2  0  0  0  0
 39  1  1  0  0  0  0
 40 14  1  0  0  0  0
 41  2  1  0  0  0  0
 41 42  1  0  0  0  0
M  END
$$$$
