CSD_code = EJOTAY | q = 0 | S = 0 | Stoichiometry = C32H27BrP2Pt | MND = 4
 OpenBabel04212202033D

 63 69  0  0  0  0  0  0  0  0999 V2000
    1.3042    3.7879    2.3493 Pt  0  0  0  0  0  0  0  0  0  0  0  0
    2.8823    3.5537    0.4802 Br  0  0  0  0  0  0  0  0  0  0  0  0
    2.7528    3.1693    3.9515 P   0  0  0  0  0  4  0  0  0  0  0  0
   -0.5389    4.4419    1.2118 P   0  0  0  0  0  4  0  0  0  0  0  0
    1.6625    2.5708    5.3111 C   0  0  0  0  0  0  0  0  0  0  0  0
   -1.5748    5.2174    2.5194 C   0  0  0  0  0  0  0  0  0  0  0  0
    3.5547    4.6299    4.6592 C   0  0  0  0  0  0  0  0  0  0  0  0
    3.3845    5.8385    3.9932 C   0  0  0  0  0  0  0  0  0  0  0  0
    3.9543    6.9943    4.4948 C   0  0  0  0  0  0  0  0  0  0  0  0
    4.6949    6.9442    5.6643 C   0  0  0  0  0  0  0  0  0  0  0  0
    4.8647    5.7413    6.3332 C   0  0  0  0  0  0  0  0  0  0  0  0
    4.2970    4.5836    5.8350 C   0  0  0  0  0  0  0  0  0  0  0  0
    4.0514    1.9177    3.7735 C   0  0  0  0  0  0  0  0  0  0  0  0
    5.4066    2.2220    3.8248 C   0  0  0  0  0  0  0  0  0  0  0  0
    6.3424    1.2291    3.5952 C   0  0  0  0  0  0  0  0  0  0  0  0
    5.9347   -0.0603    3.2978 C   0  0  0  0  0  0  0  0  0  0  0  0
    4.5839   -0.3602    3.2145 C   0  0  0  0  0  0  0  0  0  0  0  0
    3.6455    0.6264    3.4435 C   0  0  0  0  0  0  0  0  0  0  0  0
   -1.4703    2.9420    0.7874 C   0  0  0  0  0  0  0  0  0  0  0  0
   -0.9227    1.7100    1.1253 C   0  0  0  0  0  0  0  0  0  0  0  0
   -1.6068    0.5437    0.8373 C   0  0  0  0  0  0  0  0  0  0  0  0
   -2.8388    0.6064    0.2072 C   0  0  0  0  0  0  0  0  0  0  0  0
   -3.3843    1.8330   -0.1392 C   0  0  0  0  0  0  0  0  0  0  0  0
   -2.7028    3.0011    0.1468 C   0  0  0  0  0  0  0  0  0  0  0  0
   -0.7378    5.4412   -0.2906 C   0  0  0  0  0  0  0  0  0  0  0  0
   -1.5345    6.5781   -0.3655 C   0  0  0  0  0  0  0  0  0  0  0  0
   -1.6382    7.2669   -1.5614 C   0  0  0  0  0  0  0  0  0  0  0  0
   -0.9468    6.8326   -2.6800 C   0  0  0  0  0  0  0  0  0  0  0  0
   -0.1439    5.7052   -2.6056 C   0  0  0  0  0  0  0  0  0  0  0  0
   -0.0379    5.0104   -1.4163 C   0  0  0  0  0  0  0  0  0  0  0  0
    0.0230    3.8940    3.9355 C   0  0  0  0  0  0  0  0  0  0  0  0
    0.3505    3.2990    5.1594 C   0  0  0  0  0  0  0  0  0  0  0  0
   -0.5355    3.3525    6.2268 C   0  0  0  0  0  0  0  0  0  0  0  0
   -1.7601    3.9794    6.0896 C   0  0  0  0  0  0  0  0  0  0  0  0
   -2.0994    4.5652    4.8836 C   0  0  0  0  0  0  0  0  0  0  0  0
   -1.2162    4.5326    3.8138 C   0  0  0  0  0  0  0  0  0  0  0  0
    1.5104    1.4920    5.1900 H   0  0  0  0  0  0  0  0  0  0  0  0
    2.1138    2.7391    6.2935 H   0  0  0  0  0  0  0  0  0  0  0  0
   -1.3028    6.2784    2.5837 H   0  0  0  0  0  0  0  0  0  0  0  0
   -2.6436    5.1418    2.2967 H   0  0  0  0  0  0  0  0  0  0  0  0
    2.8016    5.8583    3.0730 H   0  0  0  0  0  0  0  0  0  0  0  0
    3.8247    7.9319    3.9751 H   0  0  0  0  0  0  0  0  0  0  0  0
    5.1435    7.8444    6.0578 H   0  0  0  0  0  0  0  0  0  0  0  0
    5.4435    5.7078    7.2449 H   0  0  0  0  0  0  0  0  0  0  0  0
    4.4334    3.6423    6.3512 H   0  0  0  0  0  0  0  0  0  0  0  0
    5.7268    3.2324    4.0356 H   0  0  0  0  0  0  0  0  0  0  0  0
    7.3952    1.4666    3.6387 H   0  0  0  0  0  0  0  0  0  0  0  0
    6.6697   -0.8299    3.1147 H   0  0  0  0  0  0  0  0  0  0  0  0
    4.2657   -1.3604    2.9596 H   0  0  0  0  0  0  0  0  0  0  0  0
    2.5884    0.4075    3.3511 H   0  0  0  0  0  0  0  0  0  0  0  0
    0.0540    1.6802    1.6101 H   0  0  0  0  0  0  0  0  0  0  0  0
   -1.1803   -0.4138    1.0975 H   0  0  0  0  0  0  0  0  0  0  0  0
   -3.3745   -0.3032   -0.0212 H   0  0  0  0  0  0  0  0  0  0  0  0
   -4.3421    1.8765   -0.6370 H   0  0  0  0  0  0  0  0  0  0  0  0
   -3.1186    3.9603   -0.1322 H   0  0  0  0  0  0  0  0  0  0  0  0
   -2.0761    6.9280    0.5016 H   0  0  0  0  0  0  0  0  0  0  0  0
   -2.2612    8.1481   -1.6187 H   0  0  0  0  0  0  0  0  0  0  0  0
   -1.0307    7.3768   -3.6091 H   0  0  0  0  0  0  0  0  0  0  0  0
    0.4037    5.3700   -3.4734 H   0  0  0  0  0  0  0  0  0  0  0  0
    0.5991    4.1394   -1.3464 H   0  0  0  0  0  0  0  0  0  0  0  0
   -0.2665    2.8931    7.1682 H   0  0  0  0  0  0  0  0  0  0  0  0
   -2.4487    4.0119    6.9209 H   0  0  0  0  0  0  0  0  0  0  0  0
   -3.0562    5.0571    4.7732 H   0  0  0  0  0  0  0  0  0  0  0  0
  1 31  1  0  0  0  0
  1  3  1  0  0  0  0
  2  1  1  0  0  0  0
  3  7  1  0  0  0  0
  3  5  1  0  0  0  0
  4  1  1  0  0  0  0
  4  6  1  0  0  0  0
  5 38  1  0  0  0  0
  6 39  1  0  0  0  0
  6 36  1  0  0  0  0
  7 12  1  0  0  0  0
  8  9  1  0  0  0  0
  8  7  2  0  0  0  0
  9 10  2  0  0  0  0
 10 43  1  0  0  0  0
 10 11  1  0  0  0  0
 11 44  1  0  0  0  0
 12 11  2  0  0  0  0
 12 45  1  0  0  0  0
 13 14  1  0  0  0  0
 13  3  1  0  0  0  0
 14 46  1  0  0  0  0
 15 47  1  0  0  0  0
 15 14  2  0  0  0  0
 16 15  1  0  0  0  0
 17 16  2  0  0  0  0
 17 18  1  0  0  0  0
 18 13  2  0  0  0  0
 19 20  1  0  0  0  0
 19  4  1  0  0  0  0
 20 51  1  0  0  0  0
 21 52  1  0  0  0  0
 21 20  2  0  0  0  0
 22 21  1  0  0  0  0
 23 24  1  0  0  0  0
 23 22  2  0  0  0  0
 24 19  2  0  0  0  0
 25  4  1  0  0  0  0
 26 25  1  0  0  0  0
 26 56  1  0  0  0  0
 27 26  2  0  0  0  0
 28 29  2  0  0  0  0
 28 27  1  0  0  0  0
 29 30  1  0  0  0  0
 30 60  1  0  0  0  0
 30 25  2  0  0  0  0
 31 32  1  0  0  0  0
 32  5  1  0  0  0  0
 32 33  2  0  0  0  0
 33 61  1  0  0  0  0
 34 33  1  0  0  0  0
 34 62  1  0  0  0  0
 35 34  2  0  0  0  0
 36 31  2  0  0  0  0
 36 35  1  0  0  0  0
 37  5  1  0  0  0  0
 40  6  1  0  0  0  0
 41  8  1  0  0  0  0
 42  9  1  0  0  0  0
 48 16  1  0  0  0  0
 49 17  1  0  0  0  0
 50 18  1  0  0  0  0
 53 22  1  0  0  0  0
 54 23  1  0  0  0  0
 55 24  1  0  0  0  0
 57 27  1  0  0  0  0
 58 28  1  0  0  0  0
 59 29  1  0  0  0  0
 63 35  1  0  0  0  0
M  END
$$$$
