CSD_code = EJOZEJ | q = 0 | S = 0 | Stoichiometry = C22H31HfI2N5 | MND = 6
 OpenBabel04212202033D

 61 65  0  0  1  0  0  0  0  0999 V2000
    0.5840    2.5290    3.8242 C   0  0  0  0  0  0  0  0  0  0  0  0
   -0.0952    2.9314    4.5459 H   0  0  0  0  0  0  0  0  0  0  0  0
    0.9574    1.2444    3.6091 C   0  0  0  0  0  0  0  0  0  0  0  0
    0.6653    0.3429    4.1069 H   0  0  0  0  0  0  0  0  0  0  0  0
    2.0605    2.5131    2.1310 C   0  0  2  0  0  3  0  0  0  0  0  0
    4.0012    6.1748    0.1048 C   0  0  2  0  0  3  0  0  0  0  0  0
    4.4520    8.2683   -0.5373 C   0  0  0  0  0  0  0  0  0  0  0  0
    4.9349    9.0456   -1.0932 H   0  0  0  0  0  0  0  0  0  0  0  0
    3.5015    8.3380    0.4279 C   0  0  0  0  0  0  0  0  0  0  0  0
    3.0145    9.1930    0.8476 H   0  0  0  0  0  0  0  0  0  0  0  0
    1.2852    4.7152    2.8325 C   0  0  0  0  0  0  0  0  0  0  0  0
    0.5767    5.5485    3.6912 C   0  0  0  0  0  0  0  0  0  0  0  0
   -0.0858    5.1609    4.4502 H   0  0  0  0  0  0  0  0  0  0  0  0
    0.7472    6.9197    3.5733 C   0  0  0  0  0  0  0  0  0  0  0  0
    0.2070    7.5759    4.2388 H   0  0  0  0  0  0  0  0  0  0  0  0
    1.6151    7.4675    2.6406 C   0  0  0  0  0  0  0  0  0  0  0  0
    1.7531    8.5377    2.6077 H   0  0  0  0  0  0  0  0  0  0  0  0
    2.2964    6.6097    1.7849 C   0  0  0  0  0  0  0  0  0  0  0  0
    2.1194    5.2308    1.8460 C   0  0  0  0  0  0  0  0  0  0  0  0
    2.5200    0.0925    2.0473 C   0  0  0  0  0  0  0  0  0  0  0  0
    2.8134   -0.5565    2.8770 H   0  0  0  0  0  0  0  0  0  0  0  0
    3.4276    0.4205    1.5308 H   0  0  0  0  0  0  0  0  0  0  0  0
    1.6234   -0.6722    1.0712 C   0  0  0  0  0  0  0  0  0  0  0  0
    1.2298    0.0242    0.3272 H   0  0  0  0  0  0  0  0  0  0  0  0
    0.7734   -1.1010    1.6085 H   0  0  0  0  0  0  0  0  0  0  0  0
    2.4000   -1.7791    0.3626 C   0  0  0  0  0  0  0  0  0  0  0  0
    3.2474   -1.3400   -0.1672 H   0  0  0  0  0  0  0  0  0  0  0  0
    2.7958   -2.4761    1.1042 H   0  0  0  0  0  0  0  0  0  0  0  0
    1.5199   -2.5321   -0.6270 C   0  0  0  0  0  0  0  0  0  0  0  0
    0.6753   -2.9937   -0.1191 H   0  0  0  0  0  0  0  0  0  0  0  0
    2.0909   -3.3126   -1.1224 H   0  0  0  0  0  0  0  0  0  0  0  0
    1.1360   -1.8551   -1.3868 H   0  0  0  0  0  0  0  0  0  0  0  0
    5.6648    6.3890   -1.6771 C   0  0  0  0  0  0  0  0  0  0  0  0
    6.3483    5.7096   -1.1559 H   0  0  0  0  0  0  0  0  0  0  0  0
    6.2457    7.2060   -2.1118 H   0  0  0  0  0  0  0  0  0  0  0  0
    4.9145    5.6209   -2.7696 C   0  0  0  0  0  0  0  0  0  0  0  0
    5.6410    5.0757   -3.3734 H   0  0  0  0  0  0  0  0  0  0  0  0
    4.2502    4.8884   -2.2965 H   0  0  0  0  0  0  0  0  0  0  0  0
    4.0808    6.5340   -3.6651 C   0  0  0  0  0  0  0  0  0  0  0  0
    4.7366    7.2290   -4.1968 H   0  0  0  0  0  0  0  0  0  0  0  0
    3.3956    7.1256   -3.0511 H   0  0  0  0  0  0  0  0  0  0  0  0
    3.2731    5.7211   -4.6687 C   0  0  0  0  0  0  0  0  0  0  0  0
    3.9339    5.1371   -5.3049 H   0  0  0  0  0  0  0  0  0  0  0  0
    2.6734    6.3731   -5.2996 H   0  0  0  0  0  0  0  0  0  0  0  0
    2.6088    5.0363   -4.1467 H   0  0  0  0  0  0  0  0  0  0  0  0
    1.1248    4.9978   -1.1966 C   0  0  0  0  0  0  0  0  0  0  0  0
    0.6694    4.9281   -2.1981 H   0  0  0  0  0  0  0  0  0  0  0  0
    1.6643    5.9458   -1.1495 H   0  0  0  0  0  0  0  0  0  0  0  0
    0.2870    5.0404   -0.4709 H   0  0  0  0  0  0  0  0  0  0  0  0
    1.2995    2.6545   -1.1561 C   0  0  0  0  0  0  0  0  0  0  0  0
    0.4594    2.5272   -0.4396 H   0  0  0  0  0  0  0  0  0  0  0  0
    1.9743    1.8009   -1.0609 H   0  0  0  0  0  0  0  0  0  0  0  0
    0.8564    2.6096   -2.1646 H   0  0  0  0  0  0  0  0  0  0  0  0
    1.2654    3.2973    2.9183 N   0  0  0  0  0  0  0  0  0  0  0  0
    1.8608    1.2600    2.5813 N   0  0  0  0  0  0  0  0  0  0  0  0
    3.2307    7.0513    0.8105 N   0  0  0  0  0  0  0  0  0  0  0  0
    4.7416    6.9439   -0.7141 N   0  0  0  0  0  0  0  0  0  0  0  0
    2.0159    3.8905   -0.9635 N   0  0  0  0  0  0  0  0  0  0  0  0
    5.2672    4.0574    2.7468 I   0  0  0  0  0  0  0  0  0  0  0  0
    5.0481    2.1167   -0.7574 I   0  0  0  0  0  0  0  0  0  0  0  0
    3.3300    3.9118    0.5988 Hf  0  0  0  0  0  0  0  0  0  0  0  0
  1  2  1  0  0  0  0
  3  1  2  0  0  0  0
  3  4  1  0  0  0  0
  5 55  1  1  0  0  0
  5 54  1  0  0  0  0
  6 57  1  6  0  0  0
  6 61  1  0  0  0  0
  6 56  1  0  0  0  0
  7  9  2  0  0  0  0
  8  7  1  0  0  0  0
  9 56  1  0  0  0  0
  9 10  1  0  0  0  0
 11 54  1  0  0  0  0
 11 12  1  0  0  0  0
 12 13  1  0  0  0  0
 14 12  2  0  0  0  0
 14 15  1  0  0  0  0
 16 14  1  0  0  0  0
 17 16  1  0  0  0  0
 18 19  1  0  0  0  0
 18 16  2  0  0  0  0
 19 11  2  0  0  0  0
 20 55  1  0  0  0  0
 20 21  1  0  0  0  0
 22 20  1  0  0  0  0
 23 25  1  0  0  0  0
 23 20  1  0  0  0  0
 24 23  1  0  0  0  0
 26 23  1  0  0  0  0
 26 28  1  0  0  0  0
 27 26  1  0  0  0  0
 29 30  1  0  0  0  0
 29 26  1  0  0  0  0
 31 29  1  0  0  0  0
 32 29  1  0  0  0  0
 33 34  1  0  0  0  0
 33 57  1  0  0  0  0
 35 33  1  0  0  0  0
 36 38  1  0  0  0  0
 36 33  1  0  0  0  0
 37 36  1  0  0  0  0
 39 41  1  0  0  0  0
 39 36  1  0  0  0  0
 40 39  1  0  0  0  0
 42 45  1  0  0  0  0
 42 39  1  0  0  0  0
 43 42  1  0  0  0  0
 44 42  1  0  0  0  0
 46 48  1  0  0  0  0
 46 58  1  0  0  0  0
 46 49  1  0  0  0  0
 47 46  1  0  0  0  0
 50 52  1  0  0  0  0
 50 58  1  0  0  0  0
 50 51  1  0  0  0  0
 53 50  1  0  0  0  0
 54  1  1  0  0  0  0
 55  3  1  0  0  0  0
 56 18  1  0  0  0  0
 57  7  1  0  0  0  0
 58 61  1  0  0  0  0
 60 61  1  0  0  0  0
 61 19  1  0  0  0  0
 61  5  1  0  0  0  0
 61 59  1  0  0  0  0
M  END
$$$$
