CSD_code = EKANEK | q = 0 | S = 0 | Stoichiometry = C15H16Cl3N3Pd | MND = 4
 OpenBabel04212202033D

 38 40  0  0  1  0  0  0  0  0999 V2000
    2.5879    2.2335    9.1745 Pd  0  0  0  0  0  0  0  0  0  0  0  0
    4.1985    3.8319    8.6390 Cl  0  0  0  0  0  0  0  0  0  0  0  0
    1.6539    0.2763    9.8894 Cl  0  0  0  0  0  0  0  0  0  0  0  0
    1.7135    3.4213   10.8084 Cl  0  0  0  0  0  0  0  0  0  0  0  0
    4.9503    1.0653    9.8536 N   0  0  0  0  0  0  0  0  0  0  0  0
    4.9148    2.0146    9.3976 H   0  0  0  0  0  0  0  0  0  0  0  0
    3.3625    1.1270    7.6531 N   0  0  0  0  0  0  0  0  0  0  0  0
    4.2803    0.1489    7.8411 N   0  0  0  0  0  0  0  0  0  0  0  0
    4.7472   -0.0524    9.1288 C   0  0  0  0  0  0  0  0  0  0  0  0
    4.8806   -1.3020    9.7298 C   0  0  0  0  0  0  0  0  0  0  0  0
    4.7176   -2.1884    9.1406 H   0  0  0  0  0  0  0  0  0  0  0  0
    5.1275   -1.4093   11.0843 C   0  0  0  0  0  0  0  0  0  0  0  0
    5.1793   -0.2205   11.8727 C   0  0  0  0  0  0  0  0  0  0  0  0
    5.0692    1.0309   11.2162 C   0  0  2  0  0  3  0  0  0  0  0  0
    5.0411    2.2300   11.9372 C   0  0  0  0  0  0  0  0  0  0  0  0
    4.9093    3.1633   11.4052 H   0  0  0  0  0  0  0  0  0  0  0  0
    5.1244    2.1924   13.3085 C   0  0  0  0  0  0  0  0  0  0  0  0
    5.0736    3.1082   13.8757 H   0  0  0  0  0  0  0  0  0  0  0  0
    5.2571    0.9697   13.9735 C   0  0  0  0  0  0  0  0  0  0  0  0
    5.3227    0.9565   15.0507 H   0  0  0  0  0  0  0  0  0  0  0  0
    5.2844   -0.2129   13.2757 C   0  0  0  0  0  0  0  0  0  0  0  0
    5.3642   -1.1471   13.8074 H   0  0  0  0  0  0  0  0  0  0  0  0
    5.2508   -2.7512   11.7197 C   0  0  0  0  0  0  0  0  0  0  0  0
    5.2480   -3.5363   10.9691 H   0  0  0  0  0  0  0  0  0  0  0  0
    4.4138   -2.9192   12.3965 H   0  0  0  0  0  0  0  0  0  0  0  0
    6.1701   -2.8201   12.2992 H   0  0  0  0  0  0  0  0  0  0  0  0
    2.9366    1.0534    6.4096 C   0  0  1  0  0  3  0  0  0  0  0  0
    3.6165    0.0090    5.7522 C   0  0  0  0  0  0  0  0  0  0  0  0
    3.4995   -0.2882    4.7304 H   0  0  0  0  0  0  0  0  0  0  0  0
    4.4515   -0.5597    6.6846 C   0  0  0  0  0  0  0  0  0  0  0  0
    1.8924    1.9916    5.9250 C   0  0  0  0  0  0  0  0  0  0  0  0
    1.3859    2.4431    6.7973 H   0  0  0  0  0  0  0  0  0  0  0  0
    1.1617    1.4718    5.3096 H   0  0  0  0  0  0  0  0  0  0  0  0
    2.3437    2.7890    5.3339 H   0  0  0  0  0  0  0  0  0  0  0  0
    5.4219   -1.6731    6.5408 C   0  0  0  0  0  0  0  0  0  0  0  0
    4.9581   -2.6273    6.7925 H   0  0  0  0  0  0  0  0  0  0  0  0
    6.2847   -1.5235    7.1864 H   0  0  0  0  0  0  0  0  0  0  0  0
    5.7560   -1.7293    5.5078 H   0  0  0  0  0  0  0  0  0  0  0  0
  1  3  1  0  0  0  0
  1  4  1  0  0  0  0
  2  1  1  0  0  0  0
  5 14  1  0  0  0  0
  6  5  1  0  0  0  0
  7  8  1  0  0  0  0
  7  1  1  0  0  0  0
  8  9  1  0  0  0  0
  9 10  2  0  0  0  0
  9  5  1  0  0  0  0
 10 12  1  0  0  0  0
 11 10  1  0  0  0  0
 12 23  1  0  0  0  0
 12 13  2  0  0  0  0
 13 21  1  0  0  0  0
 14 13  1  1  0  0  0
 14 15  1  0  0  0  0
 15 17  2  0  0  0  0
 16 15  1  0  0  0  0
 17 18  1  0  0  0  0
 17 19  1  0  0  0  0
 19 20  1  0  0  0  0
 21 22  1  0  0  0  0
 21 19  2  0  0  0  0
 23 26  1  0  0  0  0
 23 25  1  0  0  0  0
 24 23  1  0  0  0  0
 27 31  1  1  0  0  0
 27  7  1  0  0  0  0
 28 27  1  0  0  0  0
 28 30  2  0  0  0  0
 29 28  1  0  0  0  0
 30  8  1  0  0  0  0
 31 32  1  0  0  0  0
 33 31  1  0  0  0  0
 34 31  1  0  0  0  0
 35 30  1  0  0  0  0
 35 36  1  0  0  0  0
 35 37  1  0  0  0  0
 38 35  1  0  0  0  0
M  END
$$$$
