CSD_code = EKEMOX | q = 0 | S = 0 | Stoichiometry = C27H26Cl2O2P2W | MND = 6
 OpenBabel04212202033D

 60 63  0  0  0  0  0  0  0  0999 V2000
    3.7075    2.2131    2.0822 W   0  0  0  0  0  0  0  0  0  0  0  0
    2.4719    4.1340    2.7690 Cl  0  0  0  0  0  0  0  0  0  0  0  0
    5.5061    2.8476    3.5996 Cl  0  0  0  0  0  0  0  0  0  0  0  0
    2.9606    1.3187    4.2257 P   0  0  0  0  0  4  0  0  0  0  0  0
    4.9761    3.8442    0.7855 P   0  0  0  0  0  4  0  0  0  0  0  0
    2.6319    1.5623    0.9744 O   0  0  0  0  0  1  0  0  0  0  0  0
    5.8889   -0.0283    1.7107 O   0  0  0  0  0  1  0  0  0  0  0  0
    3.9573   -0.0627    4.8568 C   0  0  0  0  0  0  0  0  0  0  0  0
    4.7696    0.0075    5.9802 C   0  0  0  0  0  0  0  0  0  0  0  0
    4.8113    0.9120    6.5683 H   0  0  0  0  0  0  0  0  0  0  0  0
    5.5441   -1.0845    6.3368 C   0  0  0  0  0  0  0  0  0  0  0  0
    6.1805   -1.0268    7.2077 H   0  0  0  0  0  0  0  0  0  0  0  0
    5.5098   -2.2422    5.5799 C   0  0  0  0  0  0  0  0  0  0  0  0
    6.1174   -3.0893    5.8622 H   0  0  0  0  0  0  0  0  0  0  0  0
    4.7055   -2.3127    4.4514 C   0  0  0  0  0  0  0  0  0  0  0  0
    4.6871   -3.2126    3.8550 H   0  0  0  0  0  0  0  0  0  0  0  0
    3.9392   -1.2245    4.0862 C   0  0  0  0  0  0  0  0  0  0  0  0
    3.3201   -1.2511    3.1949 H   0  0  0  0  0  0  0  0  0  0  0  0
    1.2886    0.6037    4.1765 C   0  0  0  0  0  0  0  0  0  0  0  0
    0.8151   -0.1922    5.2151 C   0  0  0  0  0  0  0  0  0  0  0  0
    1.4629   -0.4280    6.0491 H   0  0  0  0  0  0  0  0  0  0  0  0
   -0.4732   -0.6906    5.1674 C   0  0  0  0  0  0  0  0  0  0  0  0
   -0.8402   -1.3125    5.9707 H   0  0  0  0  0  0  0  0  0  0  0  0
   -1.2930   -0.3929    4.0895 C   0  0  0  0  0  0  0  0  0  0  0  0
   -2.2996   -0.7830    4.0570 H   0  0  0  0  0  0  0  0  0  0  0  0
   -0.8224    0.3967    3.0534 C   0  0  0  0  0  0  0  0  0  0  0  0
   -1.4612    0.6220    2.2126 H   0  0  0  0  0  0  0  0  0  0  0  0
    0.4691    0.8943    3.0923 C   0  0  0  0  0  0  0  0  0  0  0  0
    0.8568    1.5006    2.2768 H   0  0  0  0  0  0  0  0  0  0  0  0
    2.8122    2.4787    5.6332 C   0  0  0  0  0  0  0  0  0  0  0  0
    2.0662    3.2307    5.3700 H   0  0  0  0  0  0  0  0  0  0  0  0
    3.7690    2.9774    5.7958 H   0  0  0  0  0  0  0  0  0  0  0  0
    2.4980    1.9420    6.5289 H   0  0  0  0  0  0  0  0  0  0  0  0
    6.6356    3.2872    0.3010 C   0  0  0  0  0  0  0  0  0  0  0  0
    7.8158    3.8125    0.8089 C   0  0  0  0  0  0  0  0  0  0  0  0
    7.7911    4.6358    1.5069 H   0  0  0  0  0  0  0  0  0  0  0  0
    9.0302    3.2631    0.4311 C   0  0  0  0  0  0  0  0  0  0  0  0
    9.9479    3.6681    0.8320 H   0  0  0  0  0  0  0  0  0  0  0  0
    9.0707    2.1964   -0.4493 C   0  0  0  0  0  0  0  0  0  0  0  0
   10.0205    1.7710   -0.7375 H   0  0  0  0  0  0  0  0  0  0  0  0
    7.8924    1.6639   -0.9527 C   0  0  0  0  0  0  0  0  0  0  0  0
    7.9238    0.8247   -1.6314 H   0  0  0  0  0  0  0  0  0  0  0  0
    6.6794    2.2011   -0.5722 C   0  0  0  0  0  0  0  0  0  0  0  0
    5.7452    1.7850   -0.9364 H   0  0  0  0  0  0  0  0  0  0  0  0
    4.2186    4.2617   -0.8147 C   0  0  0  0  0  0  0  0  0  0  0  0
    2.8932    3.9088   -1.0390 C   0  0  0  0  0  0  0  0  0  0  0  0
    2.3529    3.3506   -0.2777 H   0  0  0  0  0  0  0  0  0  0  0  0
    2.2813    4.2557   -2.2316 C   0  0  0  0  0  0  0  0  0  0  0  0
    1.2514    3.9836   -2.4076 H   0  0  0  0  0  0  0  0  0  0  0  0
    2.9908    4.9472   -3.1996 C   0  0  0  0  0  0  0  0  0  0  0  0
    2.5136    5.2156   -4.1306 H   0  0  0  0  0  0  0  0  0  0  0  0
    4.3158    5.2916   -2.9804 C   0  0  0  0  0  0  0  0  0  0  0  0
    4.8691    5.8243   -3.7400 H   0  0  0  0  0  0  0  0  0  0  0  0
    4.9308    4.9533   -1.7898 C   0  0  0  0  0  0  0  0  0  0  0  0
    5.9672    5.2110   -1.6160 H   0  0  0  0  0  0  0  0  0  0  0  0
    5.2240    5.5074    1.5075 C   0  0  0  0  0  0  0  0  0  0  0  0
    5.6916    5.4119    2.4887 H   0  0  0  0  0  0  0  0  0  0  0  0
    4.2424    5.9683    1.6312 H   0  0  0  0  0  0  0  0  0  0  0  0
    5.8386    6.1159    0.8433 H   0  0  0  0  0  0  0  0  0  0  0  0
    5.0590    0.7714    1.8138 C   0  0  0  0  0  2  0  0  0  0  0  0
  1  2  1  0  0  0  0
  1  3  1  0  0  0  0
  1  4  1  0  0  0  0
  4  8  1  0  0  0  0
  4 30  1  0  0  0  0
  5 56  1  0  0  0  0
  5  1  1  0  0  0  0
  6  1  1  0  0  0  0
  7 60  1  0  0  0  0
  8  9  1  0  0  0  0
  9 11  2  0  0  0  0
  9 10  1  0  0  0  0
 11 12  1  0  0  0  0
 13 14  1  0  0  0  0
 13 11  1  0  0  0  0
 15 13  2  0  0  0  0
 16 15  1  0  0  0  0
 17 15  1  0  0  0  0
 17  8  2  0  0  0  0
 18 17  1  0  0  0  0
 19  4  1  0  0  0  0
 19 20  1  0  0  0  0
 20 21  1  0  0  0  0
 22 20  2  0  0  0  0
 22 23  1  0  0  0  0
 24 22  1  0  0  0  0
 25 24  1  0  0  0  0
 26 28  1  0  0  0  0
 26 24  2  0  0  0  0
 27 26  1  0  0  0  0
 28 19  2  0  0  0  0
 29 28  1  0  0  0  0
 30 32  1  0  0  0  0
 30 33  1  0  0  0  0
 31 30  1  0  0  0  0
 34  5  1  0  0  0  0
 34 35  1  0  0  0  0
 35 36  1  0  0  0  0
 37 35  2  0  0  0  0
 37 38  1  0  0  0  0
 39 37  1  0  0  0  0
 40 39  1  0  0  0  0
 41 43  1  0  0  0  0
 41 39  2  0  0  0  0
 42 41  1  0  0  0  0
 43 34  2  0  0  0  0
 44 43  1  0  0  0  0
 45  5  1  0  0  0  0
 46 45  1  0  0  0  0
 46 47  1  0  0  0  0
 48 46  2  0  0  0  0
 49 48  1  0  0  0  0
 50 52  2  0  0  0  0
 50 48  1  0  0  0  0
 51 50  1  0  0  0  0
 52 54  1  0  0  0  0
 53 52  1  0  0  0  0
 54 55  1  0  0  0  0
 54 45  2  0  0  0  0
 56 58  1  0  0  0  0
 56 57  1  0  0  0  0
 59 56  1  0  0  0  0
 60  1  1  0  0  0  0
M  END
$$$$
