CSD_code = EKEPOA | q = 0 | S = 0 | Stoichiometry = C28H32Cl3NP2W | MND = 6
 OpenBabel04212202033D

 67 70  0  0  0  0  0  0  0  0999 V2000
    6.0675   10.6022   11.9766 W   0  0  0  0  0  0  0  0  0  0  0  0
    4.1041   10.5031   10.5077 Cl  0  0  0  0  0  0  0  0  0  0  0  0
    6.0666    8.2918   11.9768 Cl  0  0  0  0  0  0  0  0  0  0  0  0
    7.5815   10.2882   10.1172 P   0  0  0  0  0  4  0  0  0  0  0  0
    6.0674   12.5246   11.9768 N   0  0  0  0  0  0  0  0  0  0  0  0
    6.8111    9.6392    8.6055 C   0  0  0  0  0  0  0  0  0  0  0  0
    5.9581   10.4913    7.9034 C   0  0  0  0  0  0  0  0  0  0  0  0
    5.8598   11.5213    8.2226 H   0  0  0  0  0  0  0  0  0  0  0  0
    5.2466   10.0254    6.8160 C   0  0  0  0  0  0  0  0  0  0  0  0
    4.5882   10.6911    6.2778 H   0  0  0  0  0  0  0  0  0  0  0  0
    5.3644    8.6995    6.4286 C   0  0  0  0  0  0  0  0  0  0  0  0
    4.8009    8.3317    5.5838 H   0  0  0  0  0  0  0  0  0  0  0  0
    6.1924    7.8433    7.1340 C   0  0  0  0  0  0  0  0  0  0  0  0
    6.2737    6.8065    6.8411 H   0  0  0  0  0  0  0  0  0  0  0  0
    6.9104    8.3061    8.2232 C   0  0  0  0  0  0  0  0  0  0  0  0
    7.5395    7.6257    8.7782 H   0  0  0  0  0  0  0  0  0  0  0  0
    8.4911   11.7674    9.5720 C   0  0  0  0  0  0  0  0  0  0  0  0
    8.7465   12.0862    8.2448 C   0  0  0  0  0  0  0  0  0  0  0  0
    8.3786   11.4481    7.4538 H   0  0  0  0  0  0  0  0  0  0  0  0
    9.4716   13.2253    7.9380 C   0  0  0  0  0  0  0  0  0  0  0  0
    9.6650   13.4746    6.9049 H   0  0  0  0  0  0  0  0  0  0  0  0
    9.9514   14.0413    8.9488 C   0  0  0  0  0  0  0  0  0  0  0  0
   10.5142   14.9298    8.7031 H   0  0  0  0  0  0  0  0  0  0  0  0
    9.7147   13.7145   10.2753 C   0  0  0  0  0  0  0  0  0  0  0  0
   10.0997   14.3438   11.0645 H   0  0  0  0  0  0  0  0  0  0  0  0
    8.9856   12.5822   10.5880 C   0  0  0  0  0  0  0  0  0  0  0  0
    8.7998   12.3089   11.6206 H   0  0  0  0  0  0  0  0  0  0  0  0
    8.9882    9.1584   10.4302 C   0  0  0  0  0  0  0  0  0  0  0  0
    9.5785    9.0238    9.5229 H   0  0  0  0  0  0  0  0  0  0  0  0
    8.6188    8.1997   10.7963 H   0  0  0  0  0  0  0  0  0  0  0  0
    9.6009    9.6116   11.2109 H   0  0  0  0  0  0  0  0  0  0  0  0
    5.5769   13.3682   10.9020 C   0  0  0  0  0  0  0  0  0  0  0  0
    4.9263   14.1591   11.2968 H   0  0  0  0  0  0  0  0  0  0  0  0
    5.0092   12.7698   10.1864 H   0  0  0  0  0  0  0  0  0  0  0  0
    6.4177   13.8505   10.3830 H   0  0  0  0  0  0  0  0  0  0  0  0
    8.0332   10.5037   13.4439 Cl  0  0  0  0  0  0  0  0  0  0  0  0
    4.5536   10.2880   13.8356 P   0  0  0  0  0  4  0  0  0  0  0  0
    5.3241    9.6391   15.3471 C   0  0  0  0  0  0  0  0  0  0  0  0
    6.1773   10.4910   16.0489 C   0  0  0  0  0  0  0  0  0  0  0  0
    6.2759   11.5209   15.7294 H   0  0  0  0  0  0  0  0  0  0  0  0
    6.8888   10.0251   17.1363 C   0  0  0  0  0  0  0  0  0  0  0  0
    7.5474   10.6907   17.6743 H   0  0  0  0  0  0  0  0  0  0  0  0
    6.7706    8.6993   17.5239 C   0  0  0  0  0  0  0  0  0  0  0  0
    7.3339    8.3315   18.3688 H   0  0  0  0  0  0  0  0  0  0  0  0
    5.9422    7.8433   16.8188 C   0  0  0  0  0  0  0  0  0  0  0  0
    5.8606    6.8066   17.1119 H   0  0  0  0  0  0  0  0  0  0  0  0
    5.2243    8.3060   15.7296 C   0  0  0  0  0  0  0  0  0  0  0  0
    4.5950    7.6258   15.1748 H   0  0  0  0  0  0  0  0  0  0  0  0
    3.6443   11.7675   14.3805 C   0  0  0  0  0  0  0  0  0  0  0  0
    3.3895   12.0866   15.7077 C   0  0  0  0  0  0  0  0  0  0  0  0
    3.7580   11.4487   16.4986 H   0  0  0  0  0  0  0  0  0  0  0  0
    2.6645   13.2257   16.0146 C   0  0  0  0  0  0  0  0  0  0  0  0
    2.4718   13.4752   17.0478 H   0  0  0  0  0  0  0  0  0  0  0  0
    2.1840   14.0413   15.0038 C   0  0  0  0  0  0  0  0  0  0  0  0
    1.6213   14.9298   15.2497 H   0  0  0  0  0  0  0  0  0  0  0  0
    2.4199   13.7141   13.6773 C   0  0  0  0  0  0  0  0  0  0  0  0
    2.0342   14.3431   12.8882 H   0  0  0  0  0  0  0  0  0  0  0  0
    3.1490   12.5818   13.3645 C   0  0  0  0  0  0  0  0  0  0  0  0
    3.3342   12.3082   12.3319 H   0  0  0  0  0  0  0  0  0  0  0  0
    3.1469    9.1583   13.5224 C   0  0  0  0  0  0  0  0  0  0  0  0
    2.5568    9.0241   14.4300 H   0  0  0  0  0  0  0  0  0  0  0  0
    3.5162    8.1995   13.1566 H   0  0  0  0  0  0  0  0  0  0  0  0
    2.5340    9.6115   12.7418 H   0  0  0  0  0  0  0  0  0  0  0  0
    6.5576   13.3689   13.0513 C   0  0  0  0  0  0  0  0  0  0  0  0
    7.2080   14.1598   12.6562 H   0  0  0  0  0  0  0  0  0  0  0  0
    7.1254   12.7709   13.7672 H   0  0  0  0  0  0  0  0  0  0  0  0
    5.7166   13.8510   13.5699 H   0  0  0  0  0  0  0  0  0  0  0  0
  1  3  1  0  0  0  0
  1  5  1  0  0  0  0
  1 36  1  0  0  0  0
  1 37  1  0  0  0  0
  2  1  1  0  0  0  0
  4 28  1  0  0  0  0
  4  1  1  0  0  0  0
  5 64  1  0  0  0  0
  6  4  1  0  0  0  0
  7  8  1  0  0  0  0
  7  6  2  0  0  0  0
  9  7  1  0  0  0  0
 10  9  1  0  0  0  0
 11  9  2  0  0  0  0
 11 13  1  0  0  0  0
 12 11  1  0  0  0  0
 13 15  2  0  0  0  0
 14 13  1  0  0  0  0
 15  6  1  0  0  0  0
 15 16  1  0  0  0  0
 17  4  1  0  0  0  0
 17 26  1  0  0  0  0
 18 17  2  0  0  0  0
 19 18  1  0  0  0  0
 20 18  1  0  0  0  0
 20 22  2  0  0  0  0
 21 20  1  0  0  0  0
 22 24  1  0  0  0  0
 23 22  1  0  0  0  0
 24 26  2  0  0  0  0
 24 25  1  0  0  0  0
 26 27  1  0  0  0  0
 28 30  1  0  0  0  0
 28 31  1  0  0  0  0
 29 28  1  0  0  0  0
 32 33  1  0  0  0  0
 32  5  1  0  0  0  0
 34 32  1  0  0  0  0
 35 32  1  0  0  0  0
 37 49  1  0  0  0  0
 37 38  1  0  0  0  0
 38 47  2  0  0  0  0
 38 39  1  0  0  0  0
 39 41  2  0  0  0  0
 40 39  1  0  0  0  0
 41 43  1  0  0  0  0
 41 42  1  0  0  0  0
 43 44  1  0  0  0  0
 45 46  1  0  0  0  0
 45 43  2  0  0  0  0
 47 45  1  0  0  0  0
 48 47  1  0  0  0  0
 49 50  1  0  0  0  0
 50 52  2  0  0  0  0
 50 51  1  0  0  0  0
 52 53  1  0  0  0  0
 54 55  1  0  0  0  0
 54 52  1  0  0  0  0
 56 54  2  0  0  0  0
 57 56  1  0  0  0  0
 58 56  1  0  0  0  0
 58 49  2  0  0  0  0
 59 58  1  0  0  0  0
 60 37  1  0  0  0  0
 60 61  1  0  0  0  0
 62 60  1  0  0  0  0
 63 60  1  0  0  0  0
 64 67  1  0  0  0  0
 64 66  1  0  0  0  0
 65 64  1  0  0  0  0
M  END
$$$$
