CSD_code = EKEPIU | q = -1 | S = 0 | Stoichiometry = C13H13Cl5PW(1-) | MND = 6
 OpenBabel04212202033D

 33 34  0  0  0  0  0  0  0  0999 V2000
    8.9961    9.5502   12.5493 W   0  0  0  0  0  0  0  0  0  0  0  0
   11.0043   10.8580   12.4011 Cl  0  0  0  0  0  0  0  0  0  0  0  0
    7.7892   11.3286   11.5377 Cl  0  0  0  0  0  0  0  0  0  0  0  0
    7.0289    8.2386   12.6102 Cl  0  0  0  0  0  0  0  0  0  0  0  0
   10.2592    7.8194   13.6499 Cl  0  0  0  0  0  0  0  0  0  0  0  0
    8.5062   10.4676   14.6809 Cl  0  0  0  0  0  0  0  0  0  0  0  0
    9.6855    8.6261   10.4532 P   0  0  0  0  0  4  0  0  0  0  0  0
    9.3333    9.6933    9.0290 C   0  0  0  0  0  0  0  0  0  0  0  0
    7.9822    9.9046    8.7479 C   0  0  0  0  0  0  0  0  0  0  0  0
    7.2379    9.3718    9.3286 H   0  0  0  0  0  0  0  0  0  0  0  0
    7.6089   10.7851    7.7533 C   0  0  0  0  0  0  0  0  0  0  0  0
    6.5624   10.9458    7.5385 H   0  0  0  0  0  0  0  0  0  0  0  0
    8.5783   11.4794    7.0445 C   0  0  0  0  0  0  0  0  0  0  0  0
    8.2869   12.1779    6.2726 H   0  0  0  0  0  0  0  0  0  0  0  0
    9.9182   11.2931    7.3383 C   0  0  0  0  0  0  0  0  0  0  0  0
   10.6719   11.8485    6.7973 H   0  0  0  0  0  0  0  0  0  0  0  0
   10.2995   10.4068    8.3313 C   0  0  0  0  0  0  0  0  0  0  0  0
   11.3450   10.2797    8.5693 H   0  0  0  0  0  0  0  0  0  0  0  0
    8.9868    7.0201    9.9377 C   0  0  0  0  0  0  0  0  0  0  0  0
    8.8055    6.0616   10.9309 C   0  0  0  0  0  0  0  0  0  0  0  0
    9.0624    6.3019   11.9558 H   0  0  0  0  0  0  0  0  0  0  0  0
    8.2967    4.8176   10.6062 C   0  0  0  0  0  0  0  0  0  0  0  0
    8.1523    4.0780   11.3801 H   0  0  0  0  0  0  0  0  0  0  0  0
    7.9637    4.5233    9.2937 C   0  0  0  0  0  0  0  0  0  0  0  0
    7.5564    3.5540    9.0415 H   0  0  0  0  0  0  0  0  0  0  0  0
    8.1494    5.4732    8.3030 C   0  0  0  0  0  0  0  0  0  0  0  0
    7.8908    5.2447    7.2780 H   0  0  0  0  0  0  0  0  0  0  0  0
    8.6623    6.7185    8.6206 C   0  0  0  0  0  0  0  0  0  0  0  0
    8.8038    7.4609    7.8472 H   0  0  0  0  0  0  0  0  0  0  0  0
   11.4726    8.2416   10.3344 C   0  0  0  0  0  0  0  0  0  0  0  0
   11.7267    7.8668    9.3424 H   0  0  0  0  0  0  0  0  0  0  0  0
   11.6809    7.4833   11.0916 H   0  0  0  0  0  0  0  0  0  0  0  0
   12.0391    9.1403   10.5802 H   0  0  0  0  0  0  0  0  0  0  0  0
  1  4  1  0  0  0  0
  1  5  1  0  0  0  0
  1  6  1  0  0  0  0
  2  1  1  0  0  0  0
  3  1  1  0  0  0  0
  7  1  1  0  0  0  0
  8  7  1  0  0  0  0
  9  8  1  0  0  0  0
  9 10  1  0  0  0  0
 11  9  2  0  0  0  0
 12 11  1  0  0  0  0
 13 15  2  0  0  0  0
 13 11  1  0  0  0  0
 14 13  1  0  0  0  0
 15 17  1  0  0  0  0
 16 15  1  0  0  0  0
 17 18  1  0  0  0  0
 17  8  2  0  0  0  0
 19  7  1  0  0  0  0
 19 20  1  0  0  0  0
 20 21  1  0  0  0  0
 22 20  2  0  0  0  0
 22 23  1  0  0  0  0
 24 22  1  0  0  0  0
 25 24  1  0  0  0  0
 26 28  1  0  0  0  0
 26 24  2  0  0  0  0
 27 26  1  0  0  0  0
 28 19  2  0  0  0  0
 29 28  1  0  0  0  0
 30  7  1  0  0  0  0
 30 33  1  0  0  0  0
 30 32  1  0  0  0  0
 31 30  1  0  0  0  0
M  END
$$$$
