CSD_code = EKESAP | q = 0 | S = 0 | Stoichiometry = C14H18Cl2N2Zn | MND = 4
 OpenBabel04212202033D

 37 38  0  0  1  0  0  0  0  0999 V2000
    0.9354    0.8915   29.9278 C   0  0  2  0  0  3  0  0  0  0  0  0
    0.2243    0.8492   31.1212 C   0  0  0  0  0  0  0  0  0  0  0  0
    0.2641   -0.0418   31.7297 H   0  0  0  0  0  0  0  0  0  0  0  0
   -0.5274    1.9406   31.5349 C   0  0  0  0  0  0  0  0  0  0  0  0
   -0.5435    3.0550   30.6993 C   0  0  0  0  0  0  0  0  0  0  0  0
   -1.1147    3.9319   30.9598 H   0  0  0  0  0  0  0  0  0  0  0  0
    0.1889    3.0307   29.5314 C   0  0  0  0  0  0  0  0  0  0  0  0
    0.2049    3.8770   28.8588 H   0  0  0  0  0  0  0  0  0  0  0  0
    1.7459   -0.2662   29.4624 C   0  0  0  0  0  0  0  0  0  0  0  0
    1.4272   -0.5723   28.4671 H   0  0  0  0  0  0  0  0  0  0  0  0
    1.6598   -1.1069   30.1444 H   0  0  0  0  0  0  0  0  0  0  0  0
    2.7915    0.0350   29.3883 H   0  0  0  0  0  0  0  0  0  0  0  0
   -1.2701    1.9291   32.8293 C   0  0  0  0  0  0  0  0  0  0  0  0
   -0.6390    2.3516   33.6116 H   0  0  0  0  0  0  0  0  0  0  0  0
   -1.5340    0.9153   33.1201 H   0  0  0  0  0  0  0  0  0  0  0  0
   -2.1719    2.5330   32.7646 H   0  0  0  0  0  0  0  0  0  0  0  0
    0.9148    1.9802   29.1540 N   0  0  0  0  0  0  0  0  0  0  0  0
    4.3077    1.7841   28.3776 Cl  0  0  0  0  0  0  0  0  0  0  0  0
    2.3052    2.3052   27.5780 Zn  0  0  0  0  0  0  0  0  0  0  0  0
    0.8915    0.9354   25.2282 C   0  0  2  0  0  3  0  0  0  0  0  0
    0.8492    0.2243   24.0348 C   0  0  0  0  0  0  0  0  0  0  0  0
   -0.0418    0.2641   23.4263 H   0  0  0  0  0  0  0  0  0  0  0  0
    1.9406   -0.5274   23.6211 C   0  0  0  0  0  0  0  0  0  0  0  0
    3.0550   -0.5435   24.4567 C   0  0  0  0  0  0  0  0  0  0  0  0
    3.9319   -1.1147   24.1962 H   0  0  0  0  0  0  0  0  0  0  0  0
    3.0307    0.1889   25.6246 C   0  0  0  0  0  0  0  0  0  0  0  0
    3.8770    0.2049   26.2972 H   0  0  0  0  0  0  0  0  0  0  0  0
   -0.2662    1.7459   25.6936 C   0  0  0  0  0  0  0  0  0  0  0  0
   -0.5723    1.4272   26.6889 H   0  0  0  0  0  0  0  0  0  0  0  0
   -1.1069    1.6598   25.0116 H   0  0  0  0  0  0  0  0  0  0  0  0
    0.0350    2.7915   25.7677 H   0  0  0  0  0  0  0  0  0  0  0  0
    1.9291   -1.2701   22.3267 C   0  0  0  0  0  0  0  0  0  0  0  0
    2.3516   -0.6390   21.5444 H   0  0  0  0  0  0  0  0  0  0  0  0
    0.9153   -1.5340   22.0359 H   0  0  0  0  0  0  0  0  0  0  0  0
    2.5330   -2.1719   22.3914 H   0  0  0  0  0  0  0  0  0  0  0  0
    1.9802    0.9148   26.0020 N   0  0  0  0  0  0  0  0  0  0  0  0
    1.7841    4.3077   26.7784 Cl  0  0  0  0  0  0  0  0  0  0  0  0
  1  9  1  1  0  0  0
  1  2  1  0  0  0  0
  2  4  2  0  0  0  0
  2  3  1  0  0  0  0
  4 13  1  0  0  0  0
  5  6  1  0  0  0  0
  5  4  1  0  0  0  0
  7  5  2  0  0  0  0
  8  7  1  0  0  0  0
  9 11  1  0  0  0  0
 10  9  1  0  0  0  0
 12  9  1  0  0  0  0
 13 15  1  0  0  0  0
 13 14  1  0  0  0  0
 16 13  1  0  0  0  0
 17  7  1  0  0  0  0
 17  1  1  0  0  0  0
 19 18  1  0  0  0  0
 19 17  1  0  0  0  0
 20 28  1  6  0  0  0
 20 36  1  0  0  0  0
 21 20  1  0  0  0  0
 22 21  1  0  0  0  0
 23 21  2  0  0  0  0
 23 24  1  0  0  0  0
 24 26  2  0  0  0  0
 25 24  1  0  0  0  0
 26 36  1  0  0  0  0
 26 27  1  0  0  0  0
 28 31  1  0  0  0  0
 28 29  1  0  0  0  0
 30 28  1  0  0  0  0
 32 35  1  0  0  0  0
 32 23  1  0  0  0  0
 33 32  1  0  0  0  0
 34 32  1  0  0  0  0
 36 19  1  0  0  0  0
 37 19  1  0  0  0  0
M  END
$$$$
