CSD_code = EKEVIZ | q = 0 | S = 0 | Stoichiometry = C13H23Br2N3Zn | MND = 5
 OpenBabel04212202033D

 42 44  0  0  1  0  0  0  0  0999 V2000
    4.1113    1.1594    2.3337 Zn  0  0  0  0  0  0  0  0  0  0  0  0
    2.9167    1.3095    4.3972 Br  0  0  0  0  0  0  0  0  0  0  0  0
    4.6615    3.0380    0.9465 Br  0  0  0  0  0  0  0  0  0  0  0  0
    2.3642    0.4480    0.9060 N   0  0  0  0  0  4  0  0  0  0  0  0
    4.2246   -0.9977    2.2196 N   0  0  0  0  0  0  0  0  0  0  0  0
    6.3821    0.5642    2.6460 N   0  0  0  0  0  4  0  0  0  0  0  0
    1.9445   -0.8392    1.4817 C   0  0  2  0  0  0  0  0  0  0  0  0
    1.5222   -0.6026    2.4699 H   0  0  0  0  0  0  0  0  0  0  0  0
    3.1762   -1.6723    1.7586 C   0  0  2  0  0  3  0  0  0  0  0  0
    3.2299   -3.0529    1.6169 C   0  0  0  0  0  0  0  0  0  0  0  0
    2.3849   -3.6060    1.2447 H   0  0  0  0  0  0  0  0  0  0  0  0
    4.3959   -3.7169    1.9644 C   0  0  0  0  0  0  0  0  0  0  0  0
    4.4648   -4.7881    1.8494 H   0  0  0  0  0  0  0  0  0  0  0  0
    5.4628   -2.9975    2.4716 C   0  0  0  0  0  0  0  0  0  0  0  0
    6.3768   -3.4857    2.7708 H   0  0  0  0  0  0  0  0  0  0  0  0
    5.3318   -1.6203    2.5941 C   0  0  0  0  0  0  0  0  0  0  0  0
    6.3973   -0.7751    3.2473 C   0  0  2  0  0  0  0  0  0  0  0  0
    7.3823   -1.2472    3.0818 H   0  0  0  0  0  0  0  0  0  0  0  0
    1.3086    1.4560    0.9702 C   0  0  0  0  0  0  0  0  0  0  0  0
    0.4603    1.2148    0.3201 H   0  0  0  0  0  0  0  0  0  0  0  0
    1.7160    2.4134    0.6471 H   0  0  0  0  0  0  0  0  0  0  0  0
    0.9511    1.5574    1.9940 H   0  0  0  0  0  0  0  0  0  0  0  0
    2.8141    0.3033   -0.4759 C   0  0  0  0  0  0  0  0  0  0  0  0
    1.9853    0.0846   -1.1575 H   0  0  0  0  0  0  0  0  0  0  0  0
    3.5511   -0.4970   -0.5431 H   0  0  0  0  0  0  0  0  0  0  0  0
    3.2813    1.2324   -0.7983 H   0  0  0  0  0  0  0  0  0  0  0  0
    0.8781   -1.5931    0.6836 C   0  0  0  0  0  0  0  0  0  0  0  0
    0.0632   -0.9225    0.4245 H   0  0  0  0  0  0  0  0  0  0  0  0
    0.4613   -2.3921    1.2906 H   0  0  0  0  0  0  0  0  0  0  0  0
    1.2856   -2.0178   -0.2309 H   0  0  0  0  0  0  0  0  0  0  0  0
    6.1107   -0.7900    4.7532 C   0  0  0  0  0  0  0  0  0  0  0  0
    6.9300   -0.3468    5.3116 H   0  0  0  0  0  0  0  0  0  0  0  0
    5.9938   -1.8202    5.0829 H   0  0  0  0  0  0  0  0  0  0  0  0
    5.1929   -0.2561    4.9819 H   0  0  0  0  0  0  0  0  0  0  0  0
    7.0048    0.4744    1.3257 C   0  0  0  0  0  0  0  0  0  0  0  0
    8.0608    0.1859    1.4047 H   0  0  0  0  0  0  0  0  0  0  0  0
    6.9453    1.4369    0.8229 H   0  0  0  0  0  0  0  0  0  0  0  0
    6.4860   -0.2662    0.7176 H   0  0  0  0  0  0  0  0  0  0  0  0
    7.1099    1.5546    3.4366 C   0  0  0  0  0  0  0  0  0  0  0  0
    8.1428    1.2385    3.6278 H   0  0  0  0  0  0  0  0  0  0  0  0
    6.6048    1.7333    4.3830 H   0  0  0  0  0  0  0  0  0  0  0  0
    7.1328    2.4918    2.8821 H   0  0  0  0  0  0  0  0  0  0  0  0
  1  6  1  0  0  0  0
  1  2  1  0  0  0  0
  3  1  1  0  0  0  0
  4 19  1  0  0  0  0
  4  7  1  0  0  0  0
  4  1  1  0  0  0  0
  5  1  1  0  0  0  0
  5 16  1  0  0  0  0
  6 17  1  0  0  0  0
  6 39  1  0  0  0  0
  7  9  1  0  0  0  0
  7  8  1  1  0  0  0
  9 10  1  1  0  0  0
  9  5  1  0  0  0  0
 10 12  2  0  0  0  0
 11 10  1  0  0  0  0
 12 14  1  0  0  0  0
 13 12  1  0  0  0  0
 14 16  2  0  0  0  0
 14 15  1  0  0  0  0
 16 17  1  0  0  0  0
 17 18  1  6  0  0  0
 17 31  1  0  0  0  0
 19 22  1  0  0  0  0
 20 19  1  0  0  0  0
 21 19  1  0  0  0  0
 23  4  1  0  0  0  0
 24 23  1  0  0  0  0
 25 23  1  0  0  0  0
 26 23  1  0  0  0  0
 27 29  1  0  0  0  0
 27  7  1  0  0  0  0
 28 27  1  0  0  0  0
 30 27  1  0  0  0  0
 31 34  1  0  0  0  0
 31 33  1  0  0  0  0
 31 32  1  0  0  0  0
 35 36  1  0  0  0  0
 35  6  1  0  0  0  0
 37 35  1  0  0  0  0
 38 35  1  0  0  0  0
 39 40  1  0  0  0  0
 39 41  1  0  0  0  0
 42 39  1  0  0  0  0
M  END
$$$$
