CSD_code = EKOREB | q = 0 | S = 0 | Stoichiometry = C26H24Cl3O3P2Re | MND = 6
 OpenBabel04212202033D

 59 63  0  0  0  0  0  0  0  0999 V2000
   -4.9306   10.5540   -2.0985 Re  0  0  0  0  0  0  0  0  0  0  0  0
   -3.6606    9.5442   -1.7070 O   0  0  0  0  0  1  0  0  0  0  0  0
   -3.5228   11.8719   -3.5987 P   0  0  0  0  0  4  0  0  0  0  0  0
   -4.3557   12.6521   -4.9947 C   0  0  0  0  0  0  0  0  0  0  0  0
   -4.5164   11.9346   -6.1748 C   0  0  0  0  0  0  0  0  0  0  0  0
   -4.1276   10.9299   -6.2484 H   0  0  0  0  0  0  0  0  0  0  0  0
   -5.1942   12.5080   -7.2351 C   0  0  0  0  0  0  0  0  0  0  0  0
   -5.3260   11.9508   -8.1504 H   0  0  0  0  0  0  0  0  0  0  0  0
   -5.7115   13.7882   -7.1198 C   0  0  0  0  0  0  0  0  0  0  0  0
   -6.2463   14.2302   -7.9476 H   0  0  0  0  0  0  0  0  0  0  0  0
   -5.5523   14.4999   -5.9416 C   0  0  0  0  0  0  0  0  0  0  0  0
   -5.9637   15.4944   -5.8503 H   0  0  0  0  0  0  0  0  0  0  0  0
   -4.8794   13.9341   -4.8743 C   0  0  0  0  0  0  0  0  0  0  0  0
   -4.7641   14.4736   -3.9466 H   0  0  0  0  0  0  0  0  0  0  0  0
   -2.1108   11.0057   -4.3542 C   0  0  0  0  0  0  0  0  0  0  0  0
   -1.2119   11.7431   -5.1195 C   0  0  0  0  0  0  0  0  0  0  0  0
   -1.3683   12.8060   -5.2479 H   0  0  0  0  0  0  0  0  0  0  0  0
   -0.1380   11.1084   -5.7147 C   0  0  0  0  0  0  0  0  0  0  0  0
    0.5616   11.6762   -6.3103 H   0  0  0  0  0  0  0  0  0  0  0  0
    0.0348    9.7418   -5.5531 C   0  0  0  0  0  0  0  0  0  0  0  0
    0.8713    9.2479   -6.0250 H   0  0  0  0  0  0  0  0  0  0  0  0
   -0.8617    9.0090   -4.7927 C   0  0  0  0  0  0  0  0  0  0  0  0
   -0.7263    7.9450   -4.6722 H   0  0  0  0  0  0  0  0  0  0  0  0
   -1.9359    9.6393   -4.1880 C   0  0  0  0  0  0  0  0  0  0  0  0
   -2.6449    9.0806   -3.5897 H   0  0  0  0  0  0  0  0  0  0  0  0
   -4.5527   11.7113    0.0062 P   0  0  0  0  0  4  0  0  0  0  0  0
   -3.2841   12.7135   -0.1001 O   0  0  0  0  0  0  0  0  0  0  0  0
   -2.1055   12.3189   -0.7883 C   0  0  0  0  0  0  0  0  0  0  0  0
   -2.1809   11.2807   -1.1409 H   0  0  0  0  0  0  0  0  0  0  0  0
   -1.2658   12.3994   -0.0915 H   0  0  0  0  0  0  0  0  0  0  0  0
   -1.8588   13.2409   -1.9804 C   0  0  0  0  0  0  0  0  0  0  0  0
   -1.8179   14.2805   -1.6411 H   0  0  0  0  0  0  0  0  0  0  0  0
   -0.9009   12.9670   -2.4385 H   0  0  0  0  0  0  0  0  0  0  0  0
   -2.8826   13.2146   -2.9579 O   0  0  0  0  0  0  0  0  0  0  0  0
   -4.1683   10.6686    1.4489 C   0  0  0  0  0  0  0  0  0  0  0  0
   -4.0028    9.2971    1.3195 C   0  0  0  0  0  0  0  0  0  0  0  0
   -4.1209    8.8342    0.3480 H   0  0  0  0  0  0  0  0  0  0  0  0
   -3.6964    8.5375    2.4358 C   0  0  0  0  0  0  0  0  0  0  0  0
   -3.5734    7.4694    2.3408 H   0  0  0  0  0  0  0  0  0  0  0  0
   -3.5530    9.1463    3.6716 C   0  0  0  0  0  0  0  0  0  0  0  0
   -3.3182    8.5512    4.5418 H   0  0  0  0  0  0  0  0  0  0  0  0
   -3.7107   10.5184    3.7979 C   0  0  0  0  0  0  0  0  0  0  0  0
   -3.5973   10.9898    4.7631 H   0  0  0  0  0  0  0  0  0  0  0  0
   -4.0197   11.2826    2.6887 C   0  0  0  0  0  0  0  0  0  0  0  0
   -4.1495   12.3532    2.7713 H   0  0  0  0  0  0  0  0  0  0  0  0
   -5.8169   12.8484    0.5827 C   0  0  0  0  0  0  0  0  0  0  0  0
   -5.7209   14.2198    0.3846 C   0  0  0  0  0  0  0  0  0  0  0  0
   -4.8393   14.6320   -0.0821 H   0  0  0  0  0  0  0  0  0  0  0  0
   -6.7600   15.0389    0.7879 C   0  0  0  0  0  0  0  0  0  0  0  0
   -6.6916   16.1067    0.6392 H   0  0  0  0  0  0  0  0  0  0  0  0
   -7.8929   14.4920    1.3689 C   0  0  0  0  0  0  0  0  0  0  0  0
   -8.7048   15.1359    1.6736 H   0  0  0  0  0  0  0  0  0  0  0  0
   -7.9934   13.1209    1.5493 C   0  0  0  0  0  0  0  0  0  0  0  0
   -8.8832   12.6963    1.9893 H   0  0  0  0  0  0  0  0  0  0  0  0
   -6.9581   12.2943    1.1556 C   0  0  0  0  0  0  0  0  0  0  0  0
   -7.0284   11.2209    1.2653 H   0  0  0  0  0  0  0  0  0  0  0  0
   -6.3443   12.2274   -2.5020 Cl  0  0  0  0  0  0  0  0  0  0  0  0
   -5.4901    9.5577   -4.1482 Cl  0  0  0  0  0  0  0  0  0  0  0  0
   -6.6091    9.4391   -0.9053 Cl  0  0  0  0  0  0  0  0  0  0  0  0
  1  2  1  0  0  0  0
  1 59  1  0  0  0  0
  1 26  1  0  0  0  0
  3 34  1  0  0  0  0
  3  1  1  0  0  0  0
  4 13  1  0  0  0  0
  4  3  1  0  0  0  0
  5  4  2  0  0  0  0
  6  5  1  0  0  0  0
  7  9  2  0  0  0  0
  7  5  1  0  0  0  0
  8  7  1  0  0  0  0
  9 11  1  0  0  0  0
 10  9  1  0  0  0  0
 11 12  1  0  0  0  0
 11 13  2  0  0  0  0
 13 14  1  0  0  0  0
 15 24  1  0  0  0  0
 15  3  1  0  0  0  0
 16 15  2  0  0  0  0
 17 16  1  0  0  0  0
 18 20  2  0  0  0  0
 18 16  1  0  0  0  0
 19 18  1  0  0  0  0
 20 22  1  0  0  0  0
 21 20  1  0  0  0  0
 22 23  1  0  0  0  0
 22 24  2  0  0  0  0
 24 25  1  0  0  0  0
 26 46  1  0  0  0  0
 26 35  1  0  0  0  0
 27 26  1  0  0  0  0
 28 27  1  0  0  0  0
 28 30  1  0  0  0  0
 29 28  1  0  0  0  0
 31 32  1  0  0  0  0
 31 28  1  0  0  0  0
 33 31  1  0  0  0  0
 34 31  1  0  0  0  0
 35 44  1  0  0  0  0
 36 35  2  0  0  0  0
 36 38  1  0  0  0  0
 37 36  1  0  0  0  0
 38 40  2  0  0  0  0
 39 38  1  0  0  0  0
 40 42  1  0  0  0  0
 40 41  1  0  0  0  0
 42 43  1  0  0  0  0
 44 45  1  0  0  0  0
 44 42  2  0  0  0  0
 46 55  1  0  0  0  0
 47 46  2  0  0  0  0
 47 49  1  0  0  0  0
 48 47  1  0  0  0  0
 49 51  2  0  0  0  0
 50 49  1  0  0  0  0
 51 53  1  0  0  0  0
 51 52  1  0  0  0  0
 53 54  1  0  0  0  0
 55 56  1  0  0  0  0
 55 53  2  0  0  0  0
 57  1  1  0  0  0  0
 58  1  1  0  0  0  0
M  END
$$$$
