CSD_code = EKUHEY | q = 1 | S = 0 | Stoichiometry = C10H24Cl2N2RhS2(1+) | MND = 6
 OpenBabel04212202033D

 41 43  0  0  1  0  0  0  0  0999 V2000
    1.8529    1.9961    4.2649 Rh  0  0  0  0  0  0  0  0  0  0  0  0
    0.0028    1.6883    5.6479 Cl  0  0  0  0  0  0  0  0  0  0  0  0
    2.0371    4.1503    5.1196 S   0  0  1  0  0  3  0  0  0  0  0  0
    3.2702    1.2412    5.6634 N   0  0  1  0  0  4  0  0  0  0  0  0
    4.1451    1.7189    5.4304 H   0  0  0  0  0  0  0  0  0  0  0  0
    2.1293    3.9192    6.9256 C   0  0  0  0  0  0  0  0  0  0  0  0
    2.2749    4.9172    7.3395 H   0  0  0  0  0  0  0  0  0  0  0  0
    1.1367    3.5623    7.2006 H   0  0  0  0  0  0  0  0  0  0  0  0
    3.6969    2.1668    2.8373 Cl  0  0  0  0  0  0  0  0  0  0  0  0
    0.3006    2.8497    2.7531 S   0  0  2  0  0  3  0  0  0  0  0  0
    1.6940   -0.0275    3.6691 N   0  0  1  0  0  4  0  0  0  0  0  0
    2.4088   -0.1109    2.9364 H   0  0  0  0  0  0  0  0  0  0  0  0
    3.2007    2.9703    7.4452 C   0  0  0  0  0  0  0  0  0  0  0  0
    4.1912    3.2937    7.1142 H   0  0  0  0  0  0  0  0  0  0  0  0
    3.1867    3.0480    8.5344 H   0  0  0  0  0  0  0  0  0  0  0  0
    2.9854    1.5025    7.0809 C   0  0  0  0  0  0  0  0  0  0  0  0
    3.6556    0.8946    7.7011 H   0  0  0  0  0  0  0  0  0  0  0  0
    1.9533    1.2103    7.2926 H   0  0  0  0  0  0  0  0  0  0  0  0
    3.4607   -0.1849    5.3386 C   0  0  0  0  0  0  0  0  0  0  0  0
    3.8217   -0.7382    6.2110 H   0  0  0  0  0  0  0  0  0  0  0  0
    4.2091   -0.2589    4.5437 H   0  0  0  0  0  0  0  0  0  0  0  0
    2.1506   -0.7860    4.8438 C   0  0  0  0  0  0  0  0  0  0  0  0
    2.2916   -1.8440    4.5938 H   0  0  0  0  0  0  0  0  0  0  0  0
    1.3816   -0.7030    5.6174 H   0  0  0  0  0  0  0  0  0  0  0  0
    0.4337   -0.5676    3.1508 C   0  0  0  0  0  0  0  0  0  0  0  0
   -0.3142   -0.5005    3.9458 H   0  0  0  0  0  0  0  0  0  0  0  0
    0.5775   -1.6270    2.9033 H   0  0  0  0  0  0  0  0  0  0  0  0
   -0.0631    0.1692    1.9095 C   0  0  0  0  0  0  0  0  0  0  0  0
   -0.7815   -0.4739    1.3976 H   0  0  0  0  0  0  0  0  0  0  0  0
    0.7669    0.3418    1.2201 H   0  0  0  0  0  0  0  0  0  0  0  0
   -0.7727    1.4763    2.2319 C   0  0  0  0  0  0  0  0  0  0  0  0
   -1.4735    1.3405    3.0557 H   0  0  0  0  0  0  0  0  0  0  0  0
   -1.3173    1.8466    1.3635 H   0  0  0  0  0  0  0  0  0  0  0  0
    3.6758    4.8385    4.7692 C   0  0  0  0  0  0  0  0  0  0  0  0
    3.7925    5.7426    5.3599 H   0  0  0  0  0  0  0  0  0  0  0  0
    3.6933    5.0871    3.7127 H   0  0  0  0  0  0  0  0  0  0  0  0
    4.4709    4.1320    4.9813 H   0  0  0  0  0  0  0  0  0  0  0  0
    1.1296    3.2208    1.1883 C   0  0  0  0  0  0  0  0  0  0  0  0
    1.7242    2.3828    0.8411 H   0  0  0  0  0  0  0  0  0  0  0  0
    1.7773    4.0735    1.3658 H   0  0  0  0  0  0  0  0  0  0  0  0
    0.3675    3.4854    0.4608 H   0  0  0  0  0  0  0  0  0  0  0  0
  1  3  1  0  0  0  0
  1  2  1  0  0  0  0
  1  4  1  0  0  0  0
  3 34  1  6  0  0  0
  3  6  1  0  0  0  0
  4  5  1  6  0  0  0
  4 16  1  0  0  0  0
  6  8  1  0  0  0  0
  6  7  1  0  0  0  0
  6 13  1  0  0  0  0
  9  1  1  0  0  0  0
 10 38  1  6  0  0  0
 10  1  1  0  0  0  0
 11 12  1  6  0  0  0
 11  1  1  0  0  0  0
 11 22  1  0  0  0  0
 13 15  1  0  0  0  0
 14 13  1  0  0  0  0
 16 18  1  0  0  0  0
 16 13  1  0  0  0  0
 16 17  1  0  0  0  0
 19  4  1  0  0  0  0
 19 20  1  0  0  0  0
 21 19  1  0  0  0  0
 22 19  1  0  0  0  0
 22 24  1  0  0  0  0
 23 22  1  0  0  0  0
 25 11  1  0  0  0  0
 25 26  1  0  0  0  0
 27 25  1  0  0  0  0
 28 31  1  0  0  0  0
 28 25  1  0  0  0  0
 29 28  1  0  0  0  0
 30 28  1  0  0  0  0
 31 10  1  0  0  0  0
 31 32  1  0  0  0  0
 33 31  1  0  0  0  0
 34 37  1  0  0  0  0
 34 35  1  0  0  0  0
 36 34  1  0  0  0  0
 38 40  1  0  0  0  0
 39 38  1  0  0  0  0
 41 38  1  0  0  0  0
M  END
$$$$
