CSD_code = EKUTUB | q = 0 | S = 0 | Stoichiometry = C22H32AuClN2 | MND = 2
 OpenBabel04212202033D

 58 60  0  0  1  0  0  0  0  0999 V2000
    3.6084   16.1710   13.1672 Au  0  0  0  0  0  0  0  0  0  0  0  0
    3.1943   18.1444   14.1682 Cl  0  0  0  0  0  0  0  0  0  0  0  0
    4.0324   14.3926   12.2702 C   0  0  2  0  0  3  0  0  0  0  0  0
    3.1469   13.5574   11.7562 N   0  0  1  0  0  0  0  0  0  0  0  0
    3.4834   12.3272   11.0374 C   0  0  0  0  0  0  0  0  0  0  0  0
    3.3337   12.4895    9.9578 H   0  0  0  0  0  0  0  0  0  0  0  0
    2.8002   11.5295   11.3496 H   0  0  0  0  0  0  0  0  0  0  0  0
    4.9005   11.9180   11.3002 C   0  0  0  0  0  0  0  0  0  0  0  0
    5.1901   10.9176   11.0289 H   0  0  0  0  0  0  0  0  0  0  0  0
    5.7536   12.7810   11.8306 C   0  0  0  0  0  0  0  0  0  0  0  0
    6.7910   12.5612   12.0261 H   0  0  0  0  0  0  0  0  0  0  0  0
    5.3303   14.0473   12.2233 N   0  0  0  0  0  0  0  0  0  0  0  0
    1.7249   13.8395   11.8970 C   0  0  0  0  0  0  0  0  0  0  0  0
    1.6642   14.8793   12.2412 H   0  0  0  0  0  0  0  0  0  0  0  0
    0.9546   13.7274   10.5818 C   0  0  0  0  0  0  0  0  0  0  0  0
    0.9415   12.6945   10.2282 H   0  0  0  0  0  0  0  0  0  0  0  0
    1.4322   14.3486    9.8212 H   0  0  0  0  0  0  0  0  0  0  0  0
   -0.4832   14.1899   10.8085 C   0  0  0  0  0  0  0  0  0  0  0  0
   -0.4822   15.2366   11.1181 H   0  0  0  0  0  0  0  0  0  0  0  0
   -1.0432   14.1160    9.8746 H   0  0  0  0  0  0  0  0  0  0  0  0
   -1.1521   13.3415   11.8860 C   0  0  0  0  0  0  0  0  0  0  0  0
   -2.1718   13.6921   12.0519 H   0  0  0  0  0  0  0  0  0  0  0  0
   -1.2067   12.3033   11.5490 H   0  0  0  0  0  0  0  0  0  0  0  0
   -0.3636   13.4117   13.1904 C   0  0  0  0  0  0  0  0  0  0  0  0
   -0.8351   12.7814   13.9464 H   0  0  0  0  0  0  0  0  0  0  0  0
   -0.3638   14.4382   13.5616 H   0  0  0  0  0  0  0  0  0  0  0  0
    1.0773   12.9596   12.9701 C   0  0  0  0  0  0  0  0  0  0  0  0
    1.6457   13.0470   13.8985 H   0  0  0  0  0  0  0  0  0  0  0  0
    1.0828   11.9114   12.6619 H   0  0  0  0  0  0  0  0  0  0  0  0
    6.3202   14.9509   12.7231 C   0  0  0  0  0  0  0  0  0  0  0  0
    6.8717   15.8902   11.8497 C   0  0  0  0  0  0  0  0  0  0  0  0
    7.8553   16.7392   12.3376 C   0  0  0  0  0  0  0  0  0  0  0  0
    8.2922   17.4803   11.6867 H   0  0  0  0  0  0  0  0  0  0  0  0
    8.2780   16.6519   13.6496 C   0  0  0  0  0  0  0  0  0  0  0  0
    9.0425   17.3213   14.0144 H   0  0  0  0  0  0  0  0  0  0  0  0
    7.7181   15.7185   14.4999 C   0  0  0  0  0  0  0  0  0  0  0  0
    8.0487   15.6688   15.5255 H   0  0  0  0  0  0  0  0  0  0  0  0
    6.7291   14.8522   14.0547 C   0  0  0  0  0  0  0  0  0  0  0  0
    6.4040   16.0083   10.4186 C   0  0  0  0  0  0  0  0  0  0  0  0
    5.6338   15.2530   10.2307 H   0  0  0  0  0  0  0  0  0  0  0  0
    6.1049   13.8591   15.0064 C   0  0  0  0  0  0  0  0  0  0  0  0
    5.3338   13.2890   14.4774 H   0  0  0  0  0  0  0  0  0  0  0  0
    7.5568   15.7535    9.4448 C   0  0  0  0  0  0  0  0  0  0  0  0
    7.9928   14.7713    9.6177 H   0  0  0  0  0  0  0  0  0  0  0  0
    8.3374   16.5004    9.5617 H   0  0  0  0  0  0  0  0  0  0  0  0
    7.1949   15.7951    8.4199 H   0  0  0  0  0  0  0  0  0  0  0  0
    5.7773   17.3840   10.1822 C   0  0  0  0  0  0  0  0  0  0  0  0
    4.9823   17.5640   10.9043 H   0  0  0  0  0  0  0  0  0  0  0  0
    5.3572   17.4383    9.1802 H   0  0  0  0  0  0  0  0  0  0  0  0
    6.5178   18.1721   10.2879 H   0  0  0  0  0  0  0  0  0  0  0  0
    7.1506   12.8686   15.5245 C   0  0  0  0  0  0  0  0  0  0  0  0
    6.6797   12.1368   16.1769 H   0  0  0  0  0  0  0  0  0  0  0  0
    7.9244   13.3820   16.0889 H   0  0  0  0  0  0  0  0  0  0  0  0
    7.6233   12.3401   14.6987 H   0  0  0  0  0  0  0  0  0  0  0  0
    5.4268   14.5936   16.1652 C   0  0  0  0  0  0  0  0  0  0  0  0
    4.7183   15.3271   15.7836 H   0  0  0  0  0  0  0  0  0  0  0  0
    6.1577   15.1133   16.7785 H   0  0  0  0  0  0  0  0  0  0  0  0
    4.8909   13.8863   16.7945 H   0  0  0  0  0  0  0  0  0  0  0  0
  1  2  1  0  0  0  0
  3  1  1  1  0  0  0
  4 13  1  1  0  0  0
  4  3  1  0  0  0  0
  5  8  1  0  0  0  0
  5  7  1  0  0  0  0
  5  4  1  0  0  0  0
  6  5  1  0  0  0  0
  8 10  2  0  0  0  0
  9  8  1  0  0  0  0
 10 11  1  0  0  0  0
 10 12  1  0  0  0  0
 12  3  1  0  0  0  0
 12 30  1  0  0  0  0
 13 14  1  0  0  0  0
 13 27  1  0  0  0  0
 15 18  1  0  0  0  0
 15 13  1  0  0  0  0
 16 15  1  0  0  0  0
 17 15  1  0  0  0  0
 18 19  1  0  0  0  0
 18 21  1  0  0  0  0
 20 18  1  0  0  0  0
 21 22  1  0  0  0  0
 21 24  1  0  0  0  0
 23 21  1  0  0  0  0
 24 26  1  0  0  0  0
 24 25  1  0  0  0  0
 27 24  1  0  0  0  0
 27 28  1  0  0  0  0
 29 27  1  0  0  0  0
 30 38  1  0  0  0  0
 31 32  1  0  0  0  0
 31 30  2  0  0  0  0
 32 34  2  0  0  0  0
 33 32  1  0  0  0  0
 34 35  1  0  0  0  0
 34 36  1  0  0  0  0
 36 37  1  0  0  0  0
 38 36  2  0  0  0  0
 38 41  1  0  0  0  0
 39 31  1  0  0  0  0
 40 39  1  0  0  0  0
 41 51  1  0  0  0  0
 41 55  1  0  0  0  0
 42 41  1  0  0  0  0
 43 45  1  0  0  0  0
 43 44  1  0  0  0  0
 43 39  1  0  0  0  0
 46 43  1  0  0  0  0
 47 50  1  0  0  0  0
 47 39  1  0  0  0  0
 47 48  1  0  0  0  0
 49 47  1  0  0  0  0
 51 53  1  0  0  0  0
 51 52  1  0  0  0  0
 54 51  1  0  0  0  0
 55 57  1  0  0  0  0
 55 58  1  0  0  0  0
 56 55  1  0  0  0  0
M  END
$$$$
