CSD_code = ELATUH | q = 1 | S = 0 | Stoichiometry = C24H29ClN3Ru(1+) | MND = 9
 OpenBabel04212202033D

 58 60  0  0  1  0  0  0  0  0999 V2000
   -0.0627    2.0363    3.7985 Ru  0  0  0  0  0  0  0  0  0  0  0  0
   -1.2771    1.2069    1.9961 Cl  0  0  0  0  0 15  0  0  0  0  0  0
    0.1413    3.6422    2.6854 N   0  0  0  0  0  0  0  0  0  0  0  0
    3.1980    2.7594   -0.1056 N   0  0  0  0  0  0  0  0  0  0  0  0
    1.5641    1.6291    2.8049 N   0  0  0  0  0  0  0  0  0  0  0  0
    0.8091    1.7320    5.8500 C   0  0  2  0  0  0  0  0  0  0  0  0
    0.0688    0.5195    5.6679 C   0  0  2  0  0  3  0  0  0  0  0  0
   -1.2563    0.6021    5.1910 C   0  0  0  0  0  0  0  0  0  0  0  0
   -1.9540    1.8669    5.2028 C   0  0  0  0  0  0  0  0  0  0  0  0
   -1.3017    3.0141    5.6861 C   0  0  2  0  0  3  0  0  0  0  0  0
    0.1228    2.9845    5.8351 C   0  0  1  0  0  3  0  0  0  0  0  0
    2.2560    1.7019    6.2667 C   0  0  0  0  0  0  0  0  0  0  0  0
    2.3345    1.9058    7.3355 H   0  0  0  0  0  0  0  0  0  0  0  0
    2.8304    2.4629    5.7418 H   0  0  0  0  0  0  0  0  0  0  0  0
    2.7208    0.7413    6.0683 H   0  0  0  0  0  0  0  0  0  0  0  0
    0.6470   -0.8170    6.0534 C   0  0  0  0  0  0  0  0  0  0  0  0
   -0.1221   -1.4180    6.5343 H   0  0  0  0  0  0  0  0  0  0  0  0
    1.4570   -0.6997    6.7666 H   0  0  0  0  0  0  0  0  0  0  0  0
    1.0206   -1.3752    5.1958 H   0  0  0  0  0  0  0  0  0  0  0  0
   -2.0274   -0.6314    4.8247 C   0  0  0  0  0  0  0  0  0  0  0  0
   -2.8257   -0.8088    5.5454 H   0  0  0  0  0  0  0  0  0  0  0  0
   -1.3936   -1.5102    4.7779 H   0  0  0  0  0  0  0  0  0  0  0  0
   -2.4827   -0.5028    3.8428 H   0  0  0  0  0  0  0  0  0  0  0  0
   -3.4097    1.8789    4.8343 C   0  0  0  0  0  0  0  0  0  0  0  0
   -3.9997    1.3558    5.5871 H   0  0  0  0  0  0  0  0  0  0  0  0
   -3.5519    1.3697    3.8821 H   0  0  0  0  0  0  0  0  0  0  0  0
   -3.7955    2.8874    4.7254 H   0  0  0  0  0  0  0  0  0  0  0  0
   -2.0600    4.2429    6.1049 C   0  0  0  0  0  0  0  0  0  0  0  0
   -1.6281    4.6330    7.0245 H   0  0  0  0  0  0  0  0  0  0  0  0
   -3.1011    4.0069    6.3033 H   0  0  0  0  0  0  0  0  0  0  0  0
   -2.0265    5.0380    5.3603 H   0  0  0  0  0  0  0  0  0  0  0  0
    0.8489    4.2454    6.2200 C   0  0  0  0  0  0  0  0  0  0  0  0
    0.9496    4.3016    7.3048 H   0  0  0  0  0  0  0  0  0  0  0  0
    0.3178    5.1288    5.8783 H   0  0  0  0  0  0  0  0  0  0  0  0
    1.8479    4.2750    5.7928 H   0  0  0  0  0  0  0  0  0  0  0  0
   -0.7812    4.5973    2.6028 C   0  0  0  0  0  3  0  0  0  0  0  0
   -1.6634    4.4672    3.2174 H   0  0  0  0  0  0  0  0  0  0  0  0
   -0.6550    5.6825    1.7596 C   0  0  0  0  0  0  0  0  0  0  0  0
   -1.4299    6.4306    1.7247 H   0  0  0  0  0  0  0  0  0  0  0  0
    0.4763    5.7810    0.9536 C   0  0  0  0  0  0  0  0  0  0  0  0
    0.6021    6.6186    0.2869 H   0  0  0  0  0  0  0  0  0  0  0  0
    1.4189    4.7748    1.0014 C   0  0  0  0  0  0  0  0  0  0  0  0
    2.2826    4.7754    0.3579 H   0  0  0  0  0  0  0  0  0  0  0  0
    1.2211    3.6979    1.8682 C   0  0  0  0  0  0  0  0  0  0  0  0
    2.0429    2.5099    1.9671 C   0  0  2  0  0  3  0  0  0  0  0  0
    3.2659    2.3493    1.1590 C   0  0  0  0  0  0  0  0  0  0  0  0
    4.4417    1.8356    1.7097 C   0  0  0  0  0  0  0  0  0  0  0  0
    4.4938    1.5678    2.7533 H   0  0  0  0  0  0  0  0  0  0  0  0
    5.5571    1.7172    0.8957 C   0  0  0  0  0  0  0  0  0  0  0  0
    6.4808    1.3261    1.2945 H   0  0  0  0  0  0  0  0  0  0  0  0
    5.4670    2.1082   -0.4302 C   0  0  0  0  0  0  0  0  0  0  0  0
    6.3083    2.0192   -1.0976 H   0  0  0  0  0  0  0  0  0  0  0  0
    4.2611    2.6360   -0.8744 C   0  0  0  0  0  0  0  0  0  0  0  0
    4.1368    2.9777   -1.8926 H   0  0  0  0  0  0  0  0  0  0  0  0
    2.0603    0.2818    2.8606 C   0  0  0  0  0  0  0  0  0  0  0  0
    2.6892    0.0413    2.0011 H   0  0  0  0  0  0  0  0  0  0  0  0
    1.1901   -0.3830    2.8512 H   0  0  0  0  0  0  0  0  0  0  0  0
    2.6265    0.1116    3.7785 H   0  0  0  0  0  0  0  0  0  0  0  0
  1  6  1  0  0  0  0
  3  1  1  0  0  0  0
  4 46  1  0  0  0  0
  5 55  1  0  0  0  0
  5  1  1  0  0  0  0
  6 12  1  1  0  0  0
  7  6  1  0  0  0  0
  7 16  1  1  0  0  0
  8  9  2  0  0  0  0
  8  7  1  0  0  0  0
  9 10  1  0  0  0  0
 10 11  1  0  0  0  0
 10 28  1  1  0  0  0
 11  6  1  0  0  0  0
 11 32  1  1  0  0  0
 12 13  1  0  0  0  0
 14 12  1  0  0  0  0
 15 12  1  0  0  0  0
 16 17  1  0  0  0  0
 16 18  1  0  0  0  0
 19 16  1  0  0  0  0
 20  8  1  0  0  0  0
 20 21  1  0  0  0  0
 22 20  1  0  0  0  0
 23 20  1  0  0  0  0
 24  9  1  0  0  0  0
 24 25  1  0  0  0  0
 26 24  1  0  0  0  0
 27 24  1  0  0  0  0
 28 30  1  0  0  0  0
 28 29  1  0  0  0  0
 31 28  1  0  0  0  0
 32 33  1  0  0  0  0
 34 32  1  0  0  0  0
 35 32  1  0  0  0  0
 36  3  1  0  0  0  0
 36 37  1  0  0  0  0
 38 36  1  0  0  0  0
 39 38  1  0  0  0  0
 40 42  1  0  0  0  0
 40 38  2  0  0  0  0
 41 40  1  0  0  0  0
 42 44  2  0  0  0  0
 43 42  1  0  0  0  0
 44 45  1  0  0  0  0
 44  3  1  0  0  0  0
 45 46  1  6  0  0  0
 45  5  1  0  0  0  0
 46 47  2  0  0  0  0
 47 48  1  0  0  0  0
 49 50  1  0  0  0  0
 49 47  1  0  0  0  0
 51 49  2  0  0  0  0
 52 51  1  0  0  0  0
 53 51  1  0  0  0  0
 53  4  2  0  0  0  0
 54 53  1  0  0  0  0
 55 58  1  0  0  0  0
 56 55  1  0  0  0  0
 57 55  1  0  0  0  0
M  END
$$$$
