CSD_code = ELAVUK | q = 0 | S = 0 | Stoichiometry = C19H21AuBrN3 | MND = 2
 OpenBabel04212202033D

 45 47  0  0  1  0  0  0  0  0999 V2000
   11.8680   10.0455   -0.9608 Au  0  0  0  0  0  0  0  0  0  0  0  0
   12.5470   11.6073   -2.5904 Br  0  0  0  0  0  0  0  0  0  0  0  0
    6.6529    8.7512   -4.2414 C   0  0  0  0  0  0  0  0  0  0  0  0
    5.6102    8.8404   -3.9480 H   0  0  0  0  0  0  0  0  0  0  0  0
    6.7535    7.9351   -4.9539 H   0  0  0  0  0  0  0  0  0  0  0  0
    6.9471    9.6709   -4.7468 H   0  0  0  0  0  0  0  0  0  0  0  0
   14.0827    8.4086    1.3905 C   0  0  0  0  0  0  0  0  0  0  0  0
   14.1038    7.3384    1.1950 H   0  0  0  0  0  0  0  0  0  0  0  0
   15.0060    8.6881    1.8895 H   0  0  0  0  0  0  0  0  0  0  0  0
   14.0304    8.9359    0.4405 H   0  0  0  0  0  0  0  0  0  0  0  0
   10.0602    8.0144    0.2560 N   0  0  0  0  0  0  0  0  0  0  0  0
   12.9889    8.0366    3.6135 C   0  0  0  0  0  0  0  0  0  0  0  0
   12.1371    8.2751    4.2443 H   0  0  0  0  0  0  0  0  0  0  0  0
   13.8995    8.3388    4.1224 H   0  0  0  0  0  0  0  0  0  0  0  0
   13.0094    6.9610    3.4612 H   0  0  0  0  0  0  0  0  0  0  0  0
   11.2187    8.7035    0.4089 C   0  0  2  0  0  3  0  0  0  0  0  0
   10.8426    7.4586    2.2150 N   0  0  0  0  0  0  0  0  0  0  0  0
    8.3373    6.1678    2.9619 C   0  0  0  0  0  0  0  0  0  0  0  0
    8.8542    6.6933    3.7496 H   0  0  0  0  0  0  0  0  0  0  0  0
    7.2863    5.3177    3.2449 C   0  0  0  0  0  0  0  0  0  0  0  0
    6.9715    5.1758    4.2678 H   0  0  0  0  0  0  0  0  0  0  0  0
    8.1026    5.6732    0.6159 C   0  0  0  0  0  0  0  0  0  0  0  0
    8.4303    5.7860   -0.4066 H   0  0  0  0  0  0  0  0  0  0  0  0
    7.0520    4.8239    0.9092 C   0  0  0  0  0  0  0  0  0  0  0  0
    6.5577    4.2935    0.1092 H   0  0  0  0  0  0  0  0  0  0  0  0
   12.8883    8.7673    2.2764 C   0  0  0  0  0  0  0  0  0  0  0  0
    9.8576    7.2603    1.3869 C   0  0  0  0  0  0  0  0  0  0  0  0
    9.1989    8.1594   -0.8556 C   0  0  0  0  0  0  0  0  0  0  0  0
    9.6714    7.8956   -2.1349 C   0  0  0  0  0  0  0  0  0  0  0  0
   10.6819    7.5411   -2.2727 H   0  0  0  0  0  0  0  0  0  0  0  0
    8.8381    8.0815   -3.2203 C   0  0  0  0  0  0  0  0  0  0  0  0
    9.2105    7.8839   -4.2141 H   0  0  0  0  0  0  0  0  0  0  0  0
   11.6626    8.3324    1.6105 N   0  0  0  0  0  0  0  0  0  0  0  0
    6.6370    4.6494    2.2190 C   0  0  0  0  0  0  0  0  0  0  0  0
    5.8130    3.9880    2.4405 H   0  0  0  0  0  0  0  0  0  0  0  0
    7.5312    8.5274   -3.0516 C   0  0  0  0  0  0  0  0  0  0  0  0
    8.7453    6.3614    1.6426 C   0  0  0  0  0  0  0  0  0  0  0  0
    7.8968    8.6000   -0.6677 C   0  0  0  0  0  0  0  0  0  0  0  0
    7.5372    8.8061    0.3299 H   0  0  0  0  0  0  0  0  0  0  0  0
    7.0731    8.7767   -1.7637 C   0  0  0  0  0  0  0  0  0  0  0  0
    6.0620    9.1246   -1.6131 H   0  0  0  0  0  0  0  0  0  0  0  0
   12.8152   10.2779    2.5079 C   0  0  0  0  0  0  0  0  0  0  0  0
   12.7540   10.8105    1.5614 H   0  0  0  0  0  0  0  0  0  0  0  0
   13.7045   10.6113    3.0347 H   0  0  0  0  0  0  0  0  0  0  0  0
   11.9419   10.5299    3.1060 H   0  0  0  0  0  0  0  0  0  0  0  0
  2  1  1  0  0  0  0
  3  4  1  0  0  0  0
  3 36  1  0  0  0  0
  5  3  1  0  0  0  0
  6  3  1  0  0  0  0
  7  9  1  0  0  0  0
  7 26  1  0  0  0  0
  8  7  1  0  0  0  0
 10  7  1  0  0  0  0
 11 16  1  0  0  0  0
 11 27  1  0  0  0  0
 12 14  1  0  0  0  0
 12 13  1  0  0  0  0
 15 12  1  0  0  0  0
 16  1  1  1  0  0  0
 16 33  1  0  0  0  0
 18 20  1  0  0  0  0
 18 19  1  0  0  0  0
 20 21  1  0  0  0  0
 22 24  2  0  0  0  0
 22 37  1  0  0  0  0
 23 22  1  0  0  0  0
 24 34  1  0  0  0  0
 25 24  1  0  0  0  0
 26 42  1  0  0  0  0
 26 12  1  0  0  0  0
 27 37  1  0  0  0  0
 27 17  2  0  0  0  0
 28 38  1  0  0  0  0
 28 11  1  0  0  0  0
 29 28  2  0  0  0  0
 30 29  1  0  0  0  0
 31 36  2  0  0  0  0
 31 29  1  0  0  0  0
 32 31  1  0  0  0  0
 33 17  1  0  0  0  0
 33 26  1  0  0  0  0
 34 35  1  0  0  0  0
 34 20  2  0  0  0  0
 36 40  1  0  0  0  0
 37 18  2  0  0  0  0
 38 39  1  0  0  0  0
 40 41  1  0  0  0  0
 40 38  2  0  0  0  0
 42 44  1  0  0  0  0
 42 45  1  0  0  0  0
 43 42  1  0  0  0  0
M  END
$$$$
