CSD_code = ELEKOW | q = 0 | S = 0 | Stoichiometry = C27H30Cl2N2Ni | MND = 4
 OpenBabel04212202033D

 62 66  0  0  1  0  0  0  0  0999 V2000
    8.3371    3.4828    7.5858 Ni  0  0  0  0  0  0  0  0  0  0  0  0
    8.4050    3.5250    5.5417 Cl  0  0  0  0  0  0  0  0  0  0  0  0
    8.6306    2.0959   10.2577 C   0  0  1  0  0  3  0  0  0  0  0  0
    8.0014    2.9832    9.4875 N   0  0  0  0  0  0  0  0  0  0  0  0
    6.6015    4.3782    7.8055 N   0  0  0  0  0  0  0  0  0  0  0  0
   10.3979    3.5414    7.7319 Cl  0  0  0  0  0  0  0  0  0  0  0  0
    8.3836    2.0547   11.6337 C   0  0  0  0  0  0  0  0  0  0  0  0
    8.8967    1.3301   12.2452 H   0  0  0  0  0  0  0  0  0  0  0  0
    7.4760    2.9323   12.1960 C   0  0  0  0  0  0  0  0  0  0  0  0
    7.2952    2.9244   13.2612 H   0  0  0  0  0  0  0  0  0  0  0  0
    6.7697    3.8079   11.3801 C   0  0  0  0  0  0  0  0  0  0  0  0
    7.0579    3.7783   10.0147 C   0  0  0  0  0  0  0  0  0  0  0  0
    5.7315    4.7552   11.8986 C   0  0  0  0  0  0  0  0  0  0  0  0
    5.9913    5.0684   12.9117 H   0  0  0  0  0  0  0  0  0  0  0  0
    4.7694    4.2337   11.9530 H   0  0  0  0  0  0  0  0  0  0  0  0
    5.6017    5.9666   10.9777 C   0  0  0  0  0  0  0  0  0  0  0  0
    6.5439    6.5200   10.9745 H   0  0  0  0  0  0  0  0  0  0  0  0
    4.8200    6.6332   11.3449 H   0  0  0  0  0  0  0  0  0  0  0  0
    5.2721    5.5155    9.5568 C   0  0  0  0  0  0  0  0  0  0  0  0
    4.3081    4.9939    9.5527 H   0  0  0  0  0  0  0  0  0  0  0  0
    5.1782    6.3669    8.8790 H   0  0  0  0  0  0  0  0  0  0  0  0
    6.3229    4.5746    9.0471 C   0  0  2  0  0  3  0  0  0  0  0  0
    5.9091    5.0762    6.7960 C   0  0  0  0  0  0  0  0  0  0  0  0
    6.4633    6.2432    6.2585 C   0  0  0  0  0  0  0  0  0  0  0  0
    5.7472    6.9132    5.2770 C   0  0  0  0  0  0  0  0  0  0  0  0
    6.1428    7.8253    4.8592 H   0  0  0  0  0  0  0  0  0  0  0  0
    4.5398    6.4234    4.8204 C   0  0  0  0  0  0  0  0  0  0  0  0
    3.9979    6.9549    4.0523 H   0  0  0  0  0  0  0  0  0  0  0  0
    4.0308    5.2412    5.3272 C   0  0  0  0  0  0  0  0  0  0  0  0
    3.1021    4.8588    4.9362 H   0  0  0  0  0  0  0  0  0  0  0  0
    4.6978    4.5499    6.3253 C   0  0  0  0  0  0  0  0  0  0  0  0
    9.5280    1.1433    9.5969 C   0  0  0  0  0  0  0  0  0  0  0  0
   10.6877    0.6839   10.2148 C   0  0  0  0  0  0  0  0  0  0  0  0
   10.9590    1.0521   11.1931 H   0  0  0  0  0  0  0  0  0  0  0  0
   11.5219   -0.2004    9.5567 C   0  0  0  0  0  0  0  0  0  0  0  0
   12.4285   -0.5382   10.0366 H   0  0  0  0  0  0  0  0  0  0  0  0
   11.2069   -0.6403    8.2820 C   0  0  0  0  0  0  0  0  0  0  0  0
   11.8659   -1.3242    7.7686 H   0  0  0  0  0  0  0  0  0  0  0  0
   10.0506   -0.1952    7.6614 C   0  0  0  0  0  0  0  0  0  0  0  0
    9.8052   -0.5296    6.6650 H   0  0  0  0  0  0  0  0  0  0  0  0
    9.2151    0.6910    8.3119 C   0  0  0  0  0  0  0  0  0  0  0  0
    8.2968    1.0248    7.8241 H   0  0  0  0  0  0  0  0  0  0  0  0
    7.8075    6.7578    6.7245 C   0  0  0  0  0  0  0  0  0  0  0  0
    8.3133    5.9628    7.3034 H   0  0  0  0  0  0  0  0  0  0  0  0
    7.6397    7.9802    7.6297 C   0  0  0  0  0  0  0  0  0  0  0  0
    7.0616    7.7386    8.5200 H   0  0  0  0  0  0  0  0  0  0  0  0
    7.1279    8.7792    7.0964 H   0  0  0  0  0  0  0  0  0  0  0  0
    8.6143    8.3454    7.9453 H   0  0  0  0  0  0  0  0  0  0  0  0
    8.7187    7.0849    5.5412 C   0  0  0  0  0  0  0  0  0  0  0  0
    9.7201    7.3064    5.9030 H   0  0  0  0  0  0  0  0  0  0  0  0
    8.3578    7.9456    4.9837 H   0  0  0  0  0  0  0  0  0  0  0  0
    8.7769    6.2283    4.8752 H   0  0  0  0  0  0  0  0  0  0  0  0
    4.2054    3.2224    6.8599 C   0  0  0  0  0  0  0  0  0  0  0  0
    4.4147    3.1778    7.9358 H   0  0  0  0  0  0  0  0  0  0  0  0
    4.9951    2.0973    6.1832 C   0  0  0  0  0  0  0  0  0  0  0  0
    6.0645    2.2250    6.3561 H   0  0  0  0  0  0  0  0  0  0  0  0
    4.8261    2.1133    5.1096 H   0  0  0  0  0  0  0  0  0  0  0  0
    4.6895    1.1289    6.5745 H   0  0  0  0  0  0  0  0  0  0  0  0
    2.7047    3.0055    6.6769 C   0  0  0  0  0  0  0  0  0  0  0  0
    2.1392    3.8537    7.0573 H   0  0  0  0  0  0  0  0  0  0  0  0
    2.3957    2.1146    7.2202 H   0  0  0  0  0  0  0  0  0  0  0  0
    2.4563    2.8582    5.6295 H   0  0  0  0  0  0  0  0  0  0  0  0
  1  6  1  0  0  0  0
  1  5  1  0  0  0  0
  1  4  1  0  0  0  0
  2  1  1  0  0  0  0
  3 32  1  6  0  0  0
  3  7  1  0  0  0  0
  4 12  1  0  0  0  0
  4  3  1  0  0  0  0
  5 22  1  0  0  0  0
  7  9  2  0  0  0  0
  7  8  1  0  0  0  0
  9 10  1  0  0  0  0
 11 13  1  0  0  0  0
 11  9  1  0  0  0  0
 12 11  2  0  0  0  0
 13 15  1  0  0  0  0
 13 14  1  0  0  0  0
 16 18  1  0  0  0  0
 16 13  1  0  0  0  0
 17 16  1  0  0  0  0
 19 16  1  0  0  0  0
 20 19  1  0  0  0  0
 21 19  1  0  0  0  0
 22 19  1  0  0  0  0
 22 12  1  6  0  0  0
 23  5  1  0  0  0  0
 24 43  1  0  0  0  0
 24 23  2  0  0  0  0
 25 24  1  0  0  0  0
 26 25  1  0  0  0  0
 27 25  2  0  0  0  0
 27 29  1  0  0  0  0
 28 27  1  0  0  0  0
 29 31  2  0  0  0  0
 30 29  1  0  0  0  0
 31 23  1  0  0  0  0
 31 53  1  0  0  0  0
 32 33  1  0  0  0  0
 33 34  1  0  0  0  0
 35 36  1  0  0  0  0
 35 33  2  0  0  0  0
 37 35  1  0  0  0  0
 38 37  1  0  0  0  0
 39 37  2  0  0  0  0
 39 41  1  0  0  0  0
 40 39  1  0  0  0  0
 41 32  2  0  0  0  0
 42 41  1  0  0  0  0
 43 44  1  0  0  0  0
 43 45  1  0  0  0  0
 45 48  1  0  0  0  0
 45 46  1  0  0  0  0
 47 45  1  0  0  0  0
 49 50  1  0  0  0  0
 49 43  1  0  0  0  0
 51 49  1  0  0  0  0
 52 49  1  0  0  0  0
 53 54  1  0  0  0  0
 55 56  1  0  0  0  0
 55 58  1  0  0  0  0
 55 53  1  0  0  0  0
 57 55  1  0  0  0  0
 59 53  1  0  0  0  0
 59 60  1  0  0  0  0
 59 61  1  0  0  0  0
 62 59  1  0  0  0  0
M  END
$$$$
