CSD_code = ELOCEO | q = 0 | S = 0 | Stoichiometry = C24H29Cl2N2PPd | MND = 4
 OpenBabel04212202033D

 59 62  0  0  0  0  0  0  0  0999 V2000
    6.5679    0.4726    9.0953 Pd  0  0  0  0  0  0  0  0  0  0  0  0
    5.2868    2.1011    9.9958 P   0  0  0  0  0  4  0  0  0  0  0  0
    7.2912   -1.4396    8.1040 Cl  0  0  0  0  0  0  0  0  0  0  0  0
    6.3747   -0.6263   11.0466 Cl  0  0  0  0  0  0  0  0  0  0  0  0
    7.1027    1.6139    7.3701 N   0  0  0  0  0  4  0  0  0  0  0  0
    4.6145    3.2308    8.7107 C   0  0  0  0  0  0  0  0  0  0  0  0
    8.5512    1.3907    7.3024 C   0  0  0  0  0  0  0  0  0  0  0  0
    9.0140    1.6660    8.2592 H   0  0  0  0  0  0  0  0  0  0  0  0
    9.0007    1.9917    6.5001 H   0  0  0  0  0  0  0  0  0  0  0  0
    8.7411    0.3328    7.1103 H   0  0  0  0  0  0  0  0  0  0  0  0
    5.6356    3.1403   11.4378 C   0  0  0  0  0  0  0  0  0  0  0  0
    5.4163    3.4640    7.5836 C   0  0  0  0  0  0  0  0  0  0  0  0
    2.8233    4.4417    7.6439 C   0  0  0  0  0  0  0  0  0  0  0  0
    1.8199    4.8337    7.6987 H   0  0  0  0  0  0  0  0  0  0  0  0
    6.8676    3.0545    7.5546 C   0  0  0  0  0  0  0  0  0  0  0  0
    7.3423    3.3546    8.4993 H   0  0  0  0  0  0  0  0  0  0  0  0
    7.3611    3.6030    6.7359 H   0  0  0  0  0  0  0  0  0  0  0  0
    3.3206    3.7627    8.7500 C   0  0  0  0  0  0  0  0  0  0  0  0
    1.5653    4.7957   10.1109 N   0  0  0  0  0  0  0  0  0  0  0  0
    5.9379    5.2775   12.4886 C   0  0  0  0  0  0  0  0  0  0  0  0
    5.9163    6.3565   12.4366 H   0  0  0  0  0  0  0  0  0  0  0  0
    6.0182    2.5048   12.6187 C   0  0  0  0  0  0  0  0  0  0  0  0
    6.0784    1.4239   12.6379 H   0  0  0  0  0  0  0  0  0  0  0  0
    3.8530    1.0516   10.4204 C   0  0  0  0  0  0  0  0  0  0  0  0
    2.4453    3.6485    9.9667 C   0  0  0  0  0  0  0  0  0  0  0  0
    1.8175    2.7574    9.8612 H   0  0  0  0  0  0  0  0  0  0  0  0
    3.0760    3.5150   10.8624 H   0  0  0  0  0  0  0  0  0  0  0  0
    6.4679    1.1348    6.1455 C   0  0  0  0  0  0  0  0  0  0  0  0
    5.3938    1.3247    6.1887 H   0  0  0  0  0  0  0  0  0  0  0  0
    6.6379    0.0599    6.0620 H   0  0  0  0  0  0  0  0  0  0  0  0
    6.8834    1.6388    5.2634 H   0  0  0  0  0  0  0  0  0  0  0  0
    3.4826    0.1447    9.4252 C   0  0  0  0  0  0  0  0  0  0  0  0
    4.0139    0.1442    8.4661 H   0  0  0  0  0  0  0  0  0  0  0  0
    2.2035    0.0992   11.8798 C   0  0  0  0  0  0  0  0  0  0  0  0
    1.7170    0.0688   12.8436 H   0  0  0  0  0  0  0  0  0  0  0  0
    4.8992    4.1565    6.4981 C   0  0  0  0  0  0  0  0  0  0  0  0
    5.5215    4.3345    5.6326 H   0  0  0  0  0  0  0  0  0  0  0  0
    6.2840    4.6452   13.6720 C   0  0  0  0  0  0  0  0  0  0  0  0
    6.5273    5.2332   14.5446 H   0  0  0  0  0  0  0  0  0  0  0  0
    6.3320    3.2605   13.7329 C   0  0  0  0  0  0  0  0  0  0  0  0
    6.6203    2.7695   14.6504 H   0  0  0  0  0  0  0  0  0  0  0  0
    5.6203    4.5303   11.3686 C   0  0  0  0  0  0  0  0  0  0  0  0
    5.3556    5.0211   10.4416 H   0  0  0  0  0  0  0  0  0  0  0  0
    3.2153    1.0165   11.6532 C   0  0  0  0  0  0  0  0  0  0  0  0
    3.5154    1.6928   12.4416 H   0  0  0  0  0  0  0  0  0  0  0  0
    3.5970    4.6240    6.5156 C   0  0  0  0  0  0  0  0  0  0  0  0
    3.1975    5.1452    5.6590 H   0  0  0  0  0  0  0  0  0  0  0  0
    0.4986    4.5243   11.0512 C   0  0  0  0  0  0  0  0  0  0  0  0
   -0.1586    5.3912   11.0992 H   0  0  0  0  0  0  0  0  0  0  0  0
    0.8696    4.3094   12.0655 H   0  0  0  0  0  0  0  0  0  0  0  0
   -0.0793    3.6692   10.7039 H   0  0  0  0  0  0  0  0  0  0  0  0
    1.8244   -0.7843   10.8843 C   0  0  0  0  0  0  0  0  0  0  0  0
    1.0404   -1.5031   11.0698 H   0  0  0  0  0  0  0  0  0  0  0  0
    2.4664   -0.7622    9.6552 C   0  0  0  0  0  0  0  0  0  0  0  0
    2.1864   -1.4655    8.8851 H   0  0  0  0  0  0  0  0  0  0  0  0
    2.3036    5.9825   10.4914 C   0  0  0  0  0  0  0  0  0  0  0  0
    1.6213    6.8304   10.5243 H   0  0  0  0  0  0  0  0  0  0  0  0
    3.0706    6.1844    9.7455 H   0  0  0  0  0  0  0  0  0  0  0  0
    2.7866    5.8794   11.4761 H   0  0  0  0  0  0  0  0  0  0  0  0
  1  2  1  0  0  0  0
  1  4  1  0  0  0  0
  2 24  1  0  0  0  0
  2 11  1  0  0  0  0
  3  1  1  0  0  0  0
  5 15  1  0  0  0  0
  5  1  1  0  0  0  0
  6 18  1  0  0  0  0
  6  2  1  0  0  0  0
  7  5  1  0  0  0  0
  7  8  1  0  0  0  0
  9  7  1  0  0  0  0
 10  7  1  0  0  0  0
 11 22  1  0  0  0  0
 12  6  2  0  0  0  0
 13 14  1  0  0  0  0
 13 18  2  0  0  0  0
 15 12  1  0  0  0  0
 15 16  1  0  0  0  0
 17 15  1  0  0  0  0
 18 25  1  0  0  0  0
 19 56  1  0  0  0  0
 19 48  1  0  0  0  0
 20 38  2  0  0  0  0
 21 20  1  0  0  0  0
 22 23  1  0  0  0  0
 22 40  2  0  0  0  0
 24 44  1  0  0  0  0
 25 19  1  0  0  0  0
 25 27  1  0  0  0  0
 26 25  1  0  0  0  0
 28 29  1  0  0  0  0
 28  5  1  0  0  0  0
 30 28  1  0  0  0  0
 31 28  1  0  0  0  0
 32 54  1  0  0  0  0
 32 24  2  0  0  0  0
 33 32  1  0  0  0  0
 34 35  1  0  0  0  0
 36 46  2  0  0  0  0
 36 12  1  0  0  0  0
 37 36  1  0  0  0  0
 38 40  1  0  0  0  0
 38 39  1  0  0  0  0
 40 41  1  0  0  0  0
 42 11  2  0  0  0  0
 42 20  1  0  0  0  0
 43 42  1  0  0  0  0
 44 34  2  0  0  0  0
 44 45  1  0  0  0  0
 46 13  1  0  0  0  0
 47 46  1  0  0  0  0
 48 49  1  0  0  0  0
 48 50  1  0  0  0  0
 51 48  1  0  0  0  0
 52 53  1  0  0  0  0
 52 34  1  0  0  0  0
 54 52  2  0  0  0  0
 55 54  1  0  0  0  0
 56 57  1  0  0  0  0
 56 59  1  0  0  0  0
 58 56  1  0  0  0  0
M  END
$$$$
