CSD_code = ELOJIA | q = 0 | S = 0 | Stoichiometry = C19H24Cl2N4Pd | MND = 4
 OpenBabel04212202033D

 50 52  0  0  1  0  0  0  0  0999 V2000
    6.0728    2.5275    9.1049 Pd  0  0  0  0  0  0  0  0  0  0  0  0
    4.4424    1.7093   10.3446 Cl  0  0  0  0  0  0  0  0  0  0  0  0
    6.7930    3.7725   10.7770 Cl  0  0  0  0  0  0  0  0  0  0  0  0
    5.4265    1.4028    7.4863 N   0  0  2  0  0  0  0  0  0  0  0  0
    6.2857    1.0144    6.5340 N   0  0  0  0  0  0  0  0  0  0  0  0
    7.5703    3.2818    7.8803 N   0  0  0  0  0  0  0  0  0  0  0  0
    8.0488    2.5581    6.8588 N   0  0  2  0  0  0  0  0  0  0  0  0
    4.2120    1.1164    7.0638 C   0  0  0  0  0  3  0  0  0  0  0  0
    3.3516    1.3277    7.6708 H   0  0  0  0  0  0  0  0  0  0  0  0
    4.2790    0.5120    5.7886 C   0  0  0  0  0  0  0  0  0  0  0  0
    5.6268    0.4686    5.4853 C   0  0  0  0  0  0  0  0  0  0  0  0
    6.1355    0.0896    4.6225 H   0  0  0  0  0  0  0  0  0  0  0  0
    7.6987    1.1662    6.7583 C   0  0  0  0  0  0  0  0  0  0  0  0
    7.9483    0.6782    7.7224 H   0  0  0  0  0  0  0  0  0  0  0  0
    8.2555    0.7026    5.9407 H   0  0  0  0  0  0  0  0  0  0  0  0
    8.8674    3.3049    6.0822 C   0  0  0  0  0  3  0  0  0  0  0  0
    9.3570    2.9081    5.2163 H   0  0  0  0  0  0  0  0  0  0  0  0
    8.9123    4.5686    6.6411 C   0  0  0  0  0  0  0  0  0  0  0  0
    8.0700    4.4961    7.7727 C   0  0  0  0  0  0  0  0  0  0  0  0
    7.8345    5.2564    8.4936 H   0  0  0  0  0  0  0  0  0  0  0  0
    3.2009    0.0495    5.0135 C   0  0  0  0  0  0  0  0  0  0  0  0
    2.2633   -0.3441    4.3712 C   0  0  0  0  0  0  0  0  0  0  0  0
    1.1292   -0.8268    3.5993 C   0  0  0  0  0  0  0  0  0  0  0  0
    0.5086   -2.0210    4.3351 C   0  0  0  0  0  0  0  0  0  0  0  0
    1.2354   -2.8235    4.4417 H   0  0  0  0  0  0  0  0  0  0  0  0
   -0.3465   -2.3967    3.7776 H   0  0  0  0  0  0  0  0  0  0  0  0
    0.1758   -1.7256    5.3275 H   0  0  0  0  0  0  0  0  0  0  0  0
    0.1020    0.3051    3.4733 C   0  0  0  0  0  0  0  0  0  0  0  0
   -0.2359    0.6231    4.4570 H   0  0  0  0  0  0  0  0  0  0  0  0
   -0.7587   -0.0358    2.9023 H   0  0  0  0  0  0  0  0  0  0  0  0
    0.5392    1.1627    2.9664 H   0  0  0  0  0  0  0  0  0  0  0  0
    1.6157   -1.2573    2.2105 C   0  0  0  0  0  0  0  0  0  0  0  0
    2.0706   -0.4182    1.6881 H   0  0  0  0  0  0  0  0  0  0  0  0
    0.7783   -1.6219    1.6197 H   0  0  0  0  0  0  0  0  0  0  0  0
    2.3541   -2.0520    2.2944 H   0  0  0  0  0  0  0  0  0  0  0  0
    9.6440    5.6844    6.1975 C   0  0  0  0  0  0  0  0  0  0  0  0
   10.2732    6.6446    5.8387 C   0  0  0  0  0  0  0  0  0  0  0  0
   11.0362    7.8058    5.4093 C   0  0  0  0  0  0  0  0  0  0  0  0
   12.4252    7.7481    6.0577 C   0  0  0  0  0  0  0  0  0  0  0  0
   12.3394    7.7526    7.1420 H   0  0  0  0  0  0  0  0  0  0  0  0
   13.0141    8.6097    5.7510 H   0  0  0  0  0  0  0  0  0  0  0  0
   12.9496    6.8431    5.7583 H   0  0  0  0  0  0  0  0  0  0  0  0
   10.2986    9.0734    5.8566 C   0  0  0  0  0  0  0  0  0  0  0  0
    9.3054    9.1130    5.4147 H   0  0  0  0  0  0  0  0  0  0  0  0
   10.8537    9.9560    5.5463 H   0  0  0  0  0  0  0  0  0  0  0  0
   10.1935    9.0904    6.9391 H   0  0  0  0  0  0  0  0  0  0  0  0
   11.1665    7.7805    3.8815 C   0  0  0  0  0  0  0  0  0  0  0  0
   11.6807    6.8782    3.5569 H   0  0  0  0  0  0  0  0  0  0  0  0
   11.7335    8.6447    3.5426 H   0  0  0  0  0  0  0  0  0  0  0  0
   10.1842    7.8041    3.4145 H   0  0  0  0  0  0  0  0  0  0  0  0
  1  2  1  0  0  0  0
  1  3  1  0  0  0  0
  4  8  1  6  0  0  0
  4  1  1  0  0  0  0
  5 13  1  0  0  0  0
  5  4  1  0  0  0  0
  6  1  1  0  0  0  0
  7 16  1  1  0  0  0
  7  6  1  0  0  0  0
  8  9  1  0  0  0  0
 10  8  1  0  0  0  0
 11 10  2  0  0  0  0
 11  5  1  0  0  0  0
 12 11  1  0  0  0  0
 13  7  1  0  0  0  0
 13 14  1  0  0  0  0
 15 13  1  0  0  0  0
 16 18  1  0  0  0  0
 17 16  1  0  0  0  0
 18 19  2  0  0  0  0
 19  6  1  0  0  0  0
 19 20  1  0  0  0  0
 21 10  1  0  0  0  0
 22 21  3  0  0  0  0
 23 24  1  0  0  0  0
 23 22  1  0  0  0  0
 24 25  1  0  0  0  0
 24 27  1  0  0  0  0
 26 24  1  0  0  0  0
 28 23  1  0  0  0  0
 28 29  1  0  0  0  0
 30 28  1  0  0  0  0
 31 28  1  0  0  0  0
 32 35  1  0  0  0  0
 32 23  1  0  0  0  0
 33 32  1  0  0  0  0
 34 32  1  0  0  0  0
 36 18  1  0  0  0  0
 37 36  3  0  0  0  0
 38 37  1  0  0  0  0
 38 43  1  0  0  0  0
 38 39  1  0  0  0  0
 39 40  1  0  0  0  0
 41 39  1  0  0  0  0
 42 39  1  0  0  0  0
 43 46  1  0  0  0  0
 44 43  1  0  0  0  0
 45 43  1  0  0  0  0
 47 38  1  0  0  0  0
 48 47  1  0  0  0  0
 49 47  1  0  0  0  0
 50 47  1  0  0  0  0
M  END
$$$$
