CSD_code = ELOLOG | q = 0 | S = 0 | Stoichiometry = C24H22BrNO4PRe | MND = 6
 OpenBabel04212202033D

 54 57  0  0  0  0  0  0  0  0999 V2000
   -1.6010    1.6068   15.9321 Re  0  0  0  0  0  0  0  0  0  0  0  0
   -0.2384   -0.5023   16.3675 Br  0  0  0  0  0  0  0  0  0  0  0  0
   -3.2593    0.8346   17.5695 P   0  0  0  0  0  4  0  0  0  0  0  0
   -0.3836    2.3870   17.9040 N   0  0  0  0  0  4  0  0  0  0  0  0
    0.5292    1.9844   17.6535 H   0  0  0  0  0  0  0  0  0  0  0  0
   -2.9664    4.3732   15.8285 O   0  0  0  0  0  1  0  0  0  0  0  0
    0.7527    2.4178   14.0920 O   0  0  0  0  0  1  0  0  0  0  0  0
   -5.4166    1.5113   15.9348 C   0  0  0  0  0  0  0  0  0  0  0  0
   -4.7005    2.1240   15.4011 H   0  0  0  0  0  0  0  0  0  0  0  0
   -0.8002    1.7169   19.1504 C   0  0  0  0  0  0  0  0  0  0  0  0
   -0.0298    1.8502   19.9238 H   0  0  0  0  0  0  0  0  0  0  0  0
   -0.8858    0.6415   18.9467 H   0  0  0  0  0  0  0  0  0  0  0  0
   -2.4832    3.3285   15.8485 C   0  0  0  0  0  2  0  0  0  0  0  0
   -5.0001    0.7649   17.0321 C   0  0  0  0  0  0  0  0  0  0  0  0
   -4.5047    2.4917   19.4727 C   0  0  0  0  0  0  0  0  0  0  0  0
   -5.4311    2.2587   18.9684 H   0  0  0  0  0  0  0  0  0  0  0  0
   -2.1094    2.2594   19.6585 C   0  0  0  0  0  0  0  0  0  0  0  0
   -5.9213   -0.0306   17.7109 C   0  0  0  0  0  0  0  0  0  0  0  0
   -5.6053   -0.6148   18.5647 H   0  0  0  0  0  0  0  0  0  0  0  0
   -3.3139    1.9326   19.0232 C   0  0  0  0  0  0  0  0  0  0  0  0
   -3.0824   -0.8280   18.2843 C   0  0  0  0  0  0  0  0  0  0  0  0
   -0.1219    3.8115   18.1378 C   0  0  0  0  0  0  0  0  0  0  0  0
    0.4762    3.9291   19.0520 H   0  0  0  0  0  0  0  0  0  0  0  0
   -1.0656    4.3494   18.2615 H   0  0  0  0  0  0  0  0  0  0  0  0
   -2.1340    3.1102   20.7540 C   0  0  0  0  0  0  0  0  0  0  0  0
   -1.2085    3.3557   21.2561 H   0  0  0  0  0  0  0  0  0  0  0  0
   -3.3256    3.6461   21.2106 C   0  0  0  0  0  0  0  0  0  0  0  0
   -3.3261    4.3057   22.0652 H   0  0  0  0  0  0  0  0  0  0  0  0
   -0.1320    2.1477   14.7666 C   0  0  0  0  0  2  0  0  0  0  0  0
    0.6675    4.4113   16.9773 C   0  0  0  0  0  0  0  0  0  0  0  0
    0.0597    4.3883   16.0621 H   0  0  0  0  0  0  0  0  0  0  0  0
    0.9084    5.4583   17.2086 H   0  0  0  0  0  0  0  0  0  0  0  0
    1.8424    3.6457   16.8271 O   0  0  0  0  0  0  0  0  0  0  0  0
    2.2796    3.8752   16.0013 H   0  0  0  0  0  0  0  0  0  0  0  0
   -2.9067   -1.0777   19.6393 C   0  0  0  0  0  0  0  0  0  0  0  0
   -2.8834   -0.2604   20.3485 H   0  0  0  0  0  0  0  0  0  0  0  0
   -7.6477    0.6718   16.1990 C   0  0  0  0  0  0  0  0  0  0  0  0
   -8.6764    0.6312   15.8735 H   0  0  0  0  0  0  0  0  0  0  0  0
   -3.1151   -1.8850   17.3776 C   0  0  0  0  0  0  0  0  0  0  0  0
   -3.2419   -1.6770   16.3220 H   0  0  0  0  0  0  0  0  0  0  0  0
   -2.7664   -2.3825   20.0798 C   0  0  0  0  0  0  0  0  0  0  0  0
   -2.6286   -2.5771   21.1334 H   0  0  0  0  0  0  0  0  0  0  0  0
   -6.7364    1.4648   15.5220 C   0  0  0  0  0  0  0  0  0  0  0  0
   -7.0507    2.0452   14.6676 H   0  0  0  0  0  0  0  0  0  0  0  0
   -7.2381   -0.0743   17.2933 C   0  0  0  0  0  0  0  0  0  0  0  0
   -7.9469   -0.6945   17.8224 H   0  0  0  0  0  0  0  0  0  0  0  0
   -2.7954   -3.4316   19.1769 C   0  0  0  0  0  0  0  0  0  0  0  0
   -2.6751   -4.4458   19.5272 H   0  0  0  0  0  0  0  0  0  0  0  0
   -2.5410    0.8088   14.4246 C   0  0  0  0  0  2  0  0  0  0  0  0
   -4.5107    3.3420   20.5636 C   0  0  0  0  0  0  0  0  0  0  0  0
   -5.4422    3.7656   20.9078 H   0  0  0  0  0  0  0  0  0  0  0  0
   -2.9729   -3.1831   17.8247 C   0  0  0  0  0  0  0  0  0  0  0  0
   -2.9883   -3.9999   17.1195 H   0  0  0  0  0  0  0  0  0  0  0  0
   -3.0780    0.2693   13.5669 O   0  0  0  0  0  1  0  0  0  0  0  0
  1  2  1  0  0  0  0
  1  3  1  0  0  0  0
  1  4  1  0  0  0  0
  3 21  1  0  0  0  0
  3 20  1  0  0  0  0
  4 22  1  0  0  0  0
  4 10  1  0  0  0  0
  5  4  1  0  0  0  0
  6 13  1  0  0  0  0
  7 29  1  0  0  0  0
  8 14  1  0  0  0  0
  9  8  1  0  0  0  0
 10 17  1  0  0  0  0
 10 11  1  0  0  0  0
 12 10  1  0  0  0  0
 13  1  1  0  0  0  0
 14  3  1  0  0  0  0
 14 18  2  0  0  0  0
 15 50  1  0  0  0  0
 16 15  1  0  0  0  0
 17 25  2  0  0  0  0
 18 19  1  0  0  0  0
 20 15  2  0  0  0  0
 20 17  1  0  0  0  0
 21 35  1  0  0  0  0
 22 24  1  0  0  0  0
 22 23  1  0  0  0  0
 25 27  1  0  0  0  0
 25 26  1  0  0  0  0
 27 28  1  0  0  0  0
 29  1  1  0  0  0  0
 30 32  1  0  0  0  0
 30 22  1  0  0  0  0
 31 30  1  0  0  0  0
 33 30  1  0  0  0  0
 34 33  1  0  0  0  0
 35 41  2  0  0  0  0
 35 36  1  0  0  0  0
 37 45  2  0  0  0  0
 38 37  1  0  0  0  0
 39 52  1  0  0  0  0
 39 21  2  0  0  0  0
 40 39  1  0  0  0  0
 41 42  1  0  0  0  0
 43  8  2  0  0  0  0
 43 37  1  0  0  0  0
 44 43  1  0  0  0  0
 45 18  1  0  0  0  0
 45 46  1  0  0  0  0
 47 48  1  0  0  0  0
 47 41  1  0  0  0  0
 49  1  1  0  0  0  0
 50 51  1  0  0  0  0
 50 27  2  0  0  0  0
 52 47  2  0  0  0  0
 53 52  1  0  0  0  0
 54 49  1  0  0  0  0
M  END
$$$$
