CSD_code = ELOSUT | q = 0 | S = 0 | Stoichiometry = C31H34Cl2P2Pd | MND = 4
 OpenBabel04212202033D

 70 74  0  0  0  0  0  0  0  0999 V2000
    4.1917    8.1952    1.0761 Pd  0  0  0  0  0  0  0  0  0  0  0  0
    5.7443    9.6398    1.9167 Cl  0  0  0  0  0  0  0  0  0  0  0  0
    5.7523    7.1681   -0.2081 Cl  0  0  0  0  0  0  0  0  0  0  0  0
    2.6205    9.1619    2.3439 P   0  0  0  0  0  4  0  0  0  0  0  0
    2.7360    6.9276   -0.0768 P   0  0  0  0  0  4  0  0  0  0  0  0
    1.0999    8.1538    2.6347 C   0  0  0  0  0  0  0  0  0  0  0  0
    1.4122    7.2811    3.2199 H   0  0  0  0  0  0  0  0  0  0  0  0
    0.4155    8.7362    3.2592 H   0  0  0  0  0  0  0  0  0  0  0  0
    0.4182    7.7014    1.3411 C   0  0  0  0  0  0  0  0  0  0  0  0
    0.3971    8.5280    0.6226 H   0  0  0  0  0  0  0  0  0  0  0  0
   -0.6180    7.4281    1.5642 H   0  0  0  0  0  0  0  0  0  0  0  0
    1.1084    6.4990    0.7002 C   0  0  0  0  0  0  0  0  0  0  0  0
    0.4704    6.0715   -0.0790 H   0  0  0  0  0  0  0  0  0  0  0  0
    1.2801    5.7264    1.4552 H   0  0  0  0  0  0  0  0  0  0  0  0
    3.1738    5.3965   -0.9401 C   0  0  0  0  0  0  0  0  0  0  0  0
    3.1092    4.1744   -0.2796 C   0  0  0  0  0  0  0  0  0  0  0  0
    2.7634    4.1284    0.7444 H   0  0  0  0  0  0  0  0  0  0  0  0
    3.5074    3.0107   -0.9194 C   0  0  0  0  0  0  0  0  0  0  0  0
    3.9821    3.0912   -2.2230 C   0  0  0  0  0  0  0  0  0  0  0  0
    4.2998    2.1867   -2.7231 H   0  0  0  0  0  0  0  0  0  0  0  0
    4.0773    4.3055   -2.8880 C   0  0  0  0  0  0  0  0  0  0  0  0
    3.6708    5.4605   -2.2350 C   0  0  0  0  0  0  0  0  0  0  0  0
    3.7585    6.4184   -2.7283 H   0  0  0  0  0  0  0  0  0  0  0  0
    3.4613    1.6921   -0.2080 C   0  0  0  0  0  0  0  0  0  0  0  0
    2.7053    1.6955    0.5738 H   0  0  0  0  0  0  0  0  0  0  0  0
    4.4269    1.4912    0.2564 H   0  0  0  0  0  0  0  0  0  0  0  0
    3.2487    0.8831   -0.9033 H   0  0  0  0  0  0  0  0  0  0  0  0
    4.6352    4.3874   -4.2756 C   0  0  0  0  0  0  0  0  0  0  0  0
    4.0310    5.0471   -4.8956 H   0  0  0  0  0  0  0  0  0  0  0  0
    4.6802    3.4053   -4.7398 H   0  0  0  0  0  0  0  0  0  0  0  0
    5.6438    4.7980   -4.2385 H   0  0  0  0  0  0  0  0  0  0  0  0
    2.2095    8.0666   -1.3992 C   0  0  0  0  0  0  0  0  0  0  0  0
    2.7985    9.3267   -1.4555 C   0  0  0  0  0  0  0  0  0  0  0  0
    3.6155    9.5849   -0.7648 H   0  0  0  0  0  0  0  0  0  0  0  0
    2.3905   10.2569   -2.4018 C   0  0  0  0  0  0  0  0  0  0  0  0
    1.3953    9.8981   -3.3018 C   0  0  0  0  0  0  0  0  0  0  0  0
    1.0722   10.6144   -4.0444 H   0  0  0  0  0  0  0  0  0  0  0  0
    0.8161    8.6348   -3.2828 C   0  0  0  0  0  0  0  0  0  0  0  0
    1.2265    7.7228   -2.3212 C   0  0  0  0  0  0  0  0  0  0  0  0
    0.7916    6.7325   -2.3018 H   0  0  0  0  0  0  0  0  0  0  0  0
    3.0011   11.6232   -2.4253 C   0  0  0  0  0  0  0  0  0  0  0  0
    2.9990   12.0363   -3.4310 H   0  0  0  0  0  0  0  0  0  0  0  0
    4.0219   11.5922   -2.0524 H   0  0  0  0  0  0  0  0  0  0  0  0
    2.4293   12.2912   -1.7796 H   0  0  0  0  0  0  0  0  0  0  0  0
   -0.2517    8.2681   -4.2688 C   0  0  0  0  0  0  0  0  0  0  0  0
   -0.1537    8.8503   -5.1815 H   0  0  0  0  0  0  0  0  0  0  0  0
   -1.2359    8.4689   -3.8440 H   0  0  0  0  0  0  0  0  0  0  0  0
   -0.2023    7.2102   -4.5165 H   0  0  0  0  0  0  0  0  0  0  0  0
    2.0326   10.8095    1.8544 C   0  0  0  0  0  0  0  0  0  0  0  0
    3.0275   11.7176    1.4903 C   0  0  0  0  0  0  0  0  0  0  0  0
    4.0654   11.4087    1.5479 H   0  0  0  0  0  0  0  0  0  0  0  0
    2.6884   12.9891    1.0686 C   0  0  0  0  0  0  0  0  0  0  0  0
    3.4637   13.6890    0.7941 H   0  0  0  0  0  0  0  0  0  0  0  0
    1.3554   13.3625    0.9919 C   0  0  0  0  0  0  0  0  0  0  0  0
    1.0875   14.3537    0.6561 H   0  0  0  0  0  0  0  0  0  0  0  0
    0.3647   12.4613    1.3436 C   0  0  0  0  0  0  0  0  0  0  0  0
   -0.6748   12.7500    1.2826 H   0  0  0  0  0  0  0  0  0  0  0  0
    0.6963   11.1880    1.7745 C   0  0  0  0  0  0  0  0  0  0  0  0
   -0.0923   10.5021    2.0455 H   0  0  0  0  0  0  0  0  0  0  0  0
    3.2269    9.3106    4.0450 C   0  0  0  0  0  0  0  0  0  0  0  0
    2.8632   10.3278    4.9161 C   0  0  0  0  0  0  0  0  0  0  0  0
    2.1940   11.1094    4.5830 H   0  0  0  0  0  0  0  0  0  0  0  0
    3.3807   10.3412    6.2002 C   0  0  0  0  0  0  0  0  0  0  0  0
    3.1103   11.1364    6.8795 H   0  0  0  0  0  0  0  0  0  0  0  0
    4.2500    9.3447    6.6115 C   0  0  0  0  0  0  0  0  0  0  0  0
    4.6568    9.3661    7.6118 H   0  0  0  0  0  0  0  0  0  0  0  0
    4.6132    8.3273    5.7412 C   0  0  0  0  0  0  0  0  0  0  0  0
    5.3021    7.5606    6.0633 H   0  0  0  0  0  0  0  0  0  0  0  0
    4.1054    8.3106    4.4573 C   0  0  0  0  0  0  0  0  0  0  0  0
    4.4080    7.5375    3.7414 H   0  0  0  0  0  0  0  0  0  0  0  0
  1  2  1  0  0  0  0
  1  4  1  0  0  0  0
  3  1  1  0  0  0  0
  4  6  1  0  0  0  0
  4 60  1  0  0  0  0
  5 12  1  0  0  0  0
  5  1  1  0  0  0  0
  6  7  1  0  0  0  0
  6  8  1  0  0  0  0
  9 11  1  0  0  0  0
  9  6  1  0  0  0  0
 10  9  1  0  0  0  0
 12  9  1  0  0  0  0
 12 14  1  0  0  0  0
 13 12  1  0  0  0  0
 15 16  1  0  0  0  0
 15  5  1  0  0  0  0
 16 17  1  0  0  0  0
 18 16  2  0  0  0  0
 18 24  1  0  0  0  0
 19 18  1  0  0  0  0
 20 19  1  0  0  0  0
 21 22  1  0  0  0  0
 21 19  2  0  0  0  0
 22 15  2  0  0  0  0
 23 22  1  0  0  0  0
 24 26  1  0  0  0  0
 24 25  1  0  0  0  0
 27 24  1  0  0  0  0
 28 31  1  0  0  0  0
 28 21  1  0  0  0  0
 29 28  1  0  0  0  0
 30 28  1  0  0  0  0
 32  5  1  0  0  0  0
 33 32  1  0  0  0  0
 33 34  1  0  0  0  0
 35 33  2  0  0  0  0
 36 38  2  0  0  0  0
 36 35  1  0  0  0  0
 37 36  1  0  0  0  0
 38 39  1  0  0  0  0
 39 40  1  0  0  0  0
 39 32  2  0  0  0  0
 41 35  1  0  0  0  0
 41 43  1  0  0  0  0
 41 44  1  0  0  0  0
 42 41  1  0  0  0  0
 45 47  1  0  0  0  0
 45 38  1  0  0  0  0
 46 45  1  0  0  0  0
 48 45  1  0  0  0  0
 49  4  1  0  0  0  0
 50 51  1  0  0  0  0
 50 49  2  0  0  0  0
 52 50  1  0  0  0  0
 53 52  1  0  0  0  0
 54 52  2  0  0  0  0
 54 56  1  0  0  0  0
 55 54  1  0  0  0  0
 56 58  2  0  0  0  0
 57 56  1  0  0  0  0
 58 49  1  0  0  0  0
 58 59  1  0  0  0  0
 60 69  2  0  0  0  0
 60 61  1  0  0  0  0
 61 63  2  0  0  0  0
 62 61  1  0  0  0  0
 63 65  1  0  0  0  0
 63 64  1  0  0  0  0
 65 66  1  0  0  0  0
 67 68  1  0  0  0  0
 67 65  2  0  0  0  0
 69 67  1  0  0  0  0
 70 69  1  0  0  0  0
M  END
$$$$
