CSD_code = ELOTOO | q = 0 | S = 0 | Stoichiometry = C27H20Cl2F6P2Pd | MND = 4
 OpenBabel04212202033D

 58 62  0  0  0  0  0  0  0  0999 V2000
    4.3951   14.4671    0.4330 Pd  0  0  0  0  0  0  0  0  0  0  0  0
    5.5060   13.0895   -0.8923 P   0  0  0  0  0  4  0  0  0  0  0  0
    2.8670   14.8727   -1.1302 P   0  0  0  0  0  4  0  0  0  0  0  0
    3.1495   15.7201    1.8521 Cl  0  0  0  0  0  0  0  0  0  0  0  0
    6.0492   14.0678    1.9754 Cl  0  0  0  0  0  0  0  0  0  0  0  0
    3.9553   11.7558    0.9458 F   0  0  0  0  0  0  0  0  0  0  0  0
    7.0350    8.7346    2.8160 F   0  0  0  0  0  0  0  0  0  0  0  0
    8.3818   11.5929   -0.6291 F   0  0  0  0  0  0  0  0  0  0  0  0
    6.5469   15.7797   -0.7508 F   0  0  0  0  0  0  0  0  0  0  0  0
   10.0545   15.4815   -3.8530 F   0  0  0  0  0  0  0  0  0  0  0  0
    7.2667   11.7895   -3.1173 F   0  0  0  0  0  0  0  0  0  0  0  0
    4.4074   12.2680   -2.1310 C   0  0  0  0  0  0  0  0  0  0  0  0
    4.9010   11.3968   -2.5689 H   0  0  0  0  0  0  0  0  0  0  0  0
    3.5520   11.9168   -1.5400 H   0  0  0  0  0  0  0  0  0  0  0  0
    3.8992   13.1886   -3.2478 C   0  0  0  0  0  0  0  0  0  0  0  0
    3.0049   12.7225   -3.6691 H   0  0  0  0  0  0  0  0  0  0  0  0
    4.6469   13.2327   -4.0450 H   0  0  0  0  0  0  0  0  0  0  0  0
    3.5648   14.6276   -2.8344 C   0  0  0  0  0  0  0  0  0  0  0  0
    2.8858   15.0712   -3.5693 H   0  0  0  0  0  0  0  0  0  0  0  0
    4.4781   15.2387   -2.8316 H   0  0  0  0  0  0  0  0  0  0  0  0
    2.3831   16.6146   -1.2310 C   0  0  0  0  0  0  0  0  0  0  0  0
    3.3715   17.5315   -0.8784 C   0  0  0  0  0  0  0  0  0  0  0  0
    4.3363   17.1666   -0.5272 H   0  0  0  0  0  0  0  0  0  0  0  0
    3.1011   18.8851   -0.9272 C   0  0  0  0  0  0  0  0  0  0  0  0
    3.8604   19.5991   -0.6456 H   0  0  0  0  0  0  0  0  0  0  0  0
    1.8449   19.3246   -1.3176 C   0  0  0  0  0  0  0  0  0  0  0  0
    1.6293   20.3825   -1.3442 H   0  0  0  0  0  0  0  0  0  0  0  0
    0.8590   18.4122   -1.6538 C   0  0  0  0  0  0  0  0  0  0  0  0
   -0.1232   18.7587   -1.9402 H   0  0  0  0  0  0  0  0  0  0  0  0
    1.1225   17.0536   -1.6122 C   0  0  0  0  0  0  0  0  0  0  0  0
    0.3478   16.3395   -1.8534 H   0  0  0  0  0  0  0  0  0  0  0  0
    1.3702   13.8610   -1.0529 C   0  0  0  0  0  0  0  0  0  0  0  0
    0.5066   13.6666   -2.1269 C   0  0  0  0  0  0  0  0  0  0  0  0
    0.7024   14.1409   -3.0787 H   0  0  0  0  0  0  0  0  0  0  0  0
   -0.6069   12.8607   -1.9707 C   0  0  0  0  0  0  0  0  0  0  0  0
   -1.2812   12.7094   -2.8012 H   0  0  0  0  0  0  0  0  0  0  0  0
   -0.8592   12.2482   -0.7529 C   0  0  0  0  0  0  0  0  0  0  0  0
   -1.7318   11.6221   -0.6392 H   0  0  0  0  0  0  0  0  0  0  0  0
    0.0042   12.4347    0.3152 C   0  0  0  0  0  0  0  0  0  0  0  0
   -0.1940   11.9545    1.2614 H   0  0  0  0  0  0  0  0  0  0  0  0
    1.1211   13.2369    0.1677 C   0  0  0  0  0  0  0  0  0  0  0  0
    1.8104   13.3989    0.9947 H   0  0  0  0  0  0  0  0  0  0  0  0
    6.1224   11.6667    0.0635 C   0  0  0  0  0  0  0  0  0  0  0  0
    7.4043   11.1410    0.1688 C   0  0  0  0  0  0  0  0  0  0  0  0
    7.7239   10.1484    1.0798 C   0  0  0  0  0  0  0  0  0  0  0  0
    8.7279    9.7600    1.1329 H   0  0  0  0  0  0  0  0  0  0  0  0
    6.7373    9.6951    1.9348 C   0  0  0  0  0  0  0  0  0  0  0  0
    5.4481   10.2076    1.9103 C   0  0  0  0  0  0  0  0  0  0  0  0
    4.6983    9.8776    2.6098 H   0  0  0  0  0  0  0  0  0  0  0  0
    5.1850   11.1892    0.9834 C   0  0  0  0  0  0  0  0  0  0  0  0
    6.9077   13.7373   -1.8582 C   0  0  0  0  0  0  0  0  0  0  0  0
    7.6269   13.0468   -2.8286 C   0  0  0  0  0  0  0  0  0  0  0  0
    8.6866   13.6117   -3.5105 C   0  0  0  0  0  0  0  0  0  0  0  0
    9.2350   13.0494   -4.2483 H   0  0  0  0  0  0  0  0  0  0  0  0
    9.0299   14.9191   -3.2057 C   0  0  0  0  0  0  0  0  0  0  0  0
    8.3342   15.6708   -2.2729 C   0  0  0  0  0  0  0  0  0  0  0  0
    8.6076   16.6912   -2.0599 H   0  0  0  0  0  0  0  0  0  0  0  0
    7.2807   15.0592   -1.6212 C   0  0  0  0  0  0  0  0  0  0  0  0
  1  4  1  0  0  0  0
  1  5  1  0  0  0  0
  2 43  1  0  0  0  0
  2  1  1  0  0  0  0
  3 32  1  0  0  0  0
  3  1  1  0  0  0  0
  6 50  1  0  0  0  0
  8 44  1  0  0  0  0
 10 55  1  0  0  0  0
 11 52  1  0  0  0  0
 12 14  1  0  0  0  0
 12  2  1  0  0  0  0
 13 12  1  0  0  0  0
 15 18  1  0  0  0  0
 15 12  1  0  0  0  0
 16 15  1  0  0  0  0
 17 15  1  0  0  0  0
 18 20  1  0  0  0  0
 18  3  1  0  0  0  0
 19 18  1  0  0  0  0
 21  3  1  0  0  0  0
 21 22  1  0  0  0  0
 22 23  1  0  0  0  0
 24 22  2  0  0  0  0
 24 25  1  0  0  0  0
 26 24  1  0  0  0  0
 27 26  1  0  0  0  0
 28 30  1  0  0  0  0
 28 26  2  0  0  0  0
 29 28  1  0  0  0  0
 30 21  2  0  0  0  0
 31 30  1  0  0  0  0
 32 41  1  0  0  0  0
 33 35  1  0  0  0  0
 33 32  2  0  0  0  0
 34 33  1  0  0  0  0
 35 37  2  0  0  0  0
 36 35  1  0  0  0  0
 37 38  1  0  0  0  0
 37 39  1  0  0  0  0
 39 40  1  0  0  0  0
 41 39  2  0  0  0  0
 41 42  1  0  0  0  0
 43 44  2  0  0  0  0
 43 50  1  0  0  0  0
 44 45  1  0  0  0  0
 45 46  1  0  0  0  0
 45 47  2  0  0  0  0
 47  7  1  0  0  0  0
 48 47  1  0  0  0  0
 48 49  1  0  0  0  0
 50 48  2  0  0  0  0
 51 58  1  0  0  0  0
 51  2  1  0  0  0  0
 52 51  2  0  0  0  0
 53 55  2  0  0  0  0
 53 52  1  0  0  0  0
 54 53  1  0  0  0  0
 55 56  1  0  0  0  0
 56 57  1  0  0  0  0
 56 58  2  0  0  0  0
 58  9  1  0  0  0  0
M  END
$$$$
