CSD_code = ELOTII | q = 0 | S = 0 | Stoichiometry = C31H22Cl2F12P2Pd | MND = 4
 OpenBabel04212202033D

 70 74  0  0  0  0  0  0  0  0999 V2000
   15.6437    8.7524   12.8253 Pd  0  0  0  0  0  0  0  0  0  0  0  0
   14.6095   10.1990   11.4593 P   0  0  0  0  0  4  0  0  0  0  0  0
   16.4753   10.4188   14.0755 P   0  0  0  0  0  4  0  0  0  0  0  0
   14.7839    7.1146   11.4818 Cl  0  0  0  0  0  0  0  0  0  0  0  0
   16.8632    7.2566   13.9852 Cl  0  0  0  0  0  0  0  0  0  0  0  0
   13.9985   11.8210   12.0915 C   0  0  0  0  0  0  0  0  0  0  0  0
   13.6422   12.4269   11.2530 H   0  0  0  0  0  0  0  0  0  0  0  0
   13.1383   11.6024   12.7336 H   0  0  0  0  0  0  0  0  0  0  0  0
   15.0406   12.5889   12.9084 C   0  0  0  0  0  0  0  0  0  0  0  0
   14.6326   13.5805   13.1254 H   0  0  0  0  0  0  0  0  0  0  0  0
   15.9504   12.7284   12.3184 H   0  0  0  0  0  0  0  0  0  0  0  0
   15.3954   11.9123   14.2335 C   0  0  0  0  0  0  0  0  0  0  0  0
   14.4860   11.5828   14.7496 H   0  0  0  0  0  0  0  0  0  0  0  0
   15.9059   12.6196   14.8951 H   0  0  0  0  0  0  0  0  0  0  0  0
   16.7151   10.0013   15.8182 C   0  0  0  0  0  0  0  0  0  0  0  0
   15.7383    9.1786   16.3748 C   0  0  0  0  0  0  0  0  0  0  0  0
   14.9319    8.8092   15.7389 H   0  0  0  0  0  0  0  0  0  0  0  0
   15.8274    8.8114   17.7027 C   0  0  0  0  0  0  0  0  0  0  0  0
   15.0790    8.1680   18.1399 H   0  0  0  0  0  0  0  0  0  0  0  0
   16.8940    9.2581   18.4692 C   0  0  0  0  0  0  0  0  0  0  0  0
   16.9717    8.9605   19.5041 H   0  0  0  0  0  0  0  0  0  0  0  0
   17.8684   10.0693   17.9118 C   0  0  0  0  0  0  0  0  0  0  0  0
   18.7021   10.4022   18.5118 H   0  0  0  0  0  0  0  0  0  0  0  0
   17.7842   10.4470   16.5824 C   0  0  0  0  0  0  0  0  0  0  0  0
   18.5475   11.0684   16.1348 H   0  0  0  0  0  0  0  0  0  0  0  0
   18.0498   11.0139   13.4008 C   0  0  0  0  0  0  0  0  0  0  0  0
   18.4608   12.3437   13.3925 C   0  0  0  0  0  0  0  0  0  0  0  0
   17.8578   13.1111   13.8551 H   0  0  0  0  0  0  0  0  0  0  0  0
   19.6578   12.6899   12.7900 C   0  0  0  0  0  0  0  0  0  0  0  0
   19.9672   13.7242   12.7739 H   0  0  0  0  0  0  0  0  0  0  0  0
   20.4582   11.7166   12.2143 C   0  0  0  0  0  0  0  0  0  0  0  0
   21.3927   11.9925   11.7500 H   0  0  0  0  0  0  0  0  0  0  0  0
   20.0634   10.3880   12.2400 C   0  0  0  0  0  0  0  0  0  0  0  0
   20.6971    9.6278   11.8100 H   0  0  0  0  0  0  0  0  0  0  0  0
   18.8561   10.0372   12.8151 C   0  0  0  0  0  0  0  0  0  0  0  0
   18.5314    8.9990   12.8337 H   0  0  0  0  0  0  0  0  0  0  0  0
   16.0032   10.6487   10.3526 C   0  0  0  0  0  0  0  0  0  0  0  0
   16.9760    9.6655   10.1539 C   0  0  0  0  0  0  0  0  0  0  0  0
   16.8286    8.6622   10.5688 H   0  0  0  0  0  0  0  0  0  0  0  0
   18.1231    9.9595    9.4345 C   0  0  0  0  0  0  0  0  0  0  0  0
   18.3415   11.2338    8.9261 C   0  0  0  0  0  0  0  0  0  0  0  0
   19.2498   11.4658    8.3913 H   0  0  0  0  0  0  0  0  0  0  0  0
   17.3685   12.1997    9.1225 C   0  0  0  0  0  0  0  0  0  0  0  0
   16.1980   11.9140    9.8154 C   0  0  0  0  0  0  0  0  0  0  0  0
   15.4542   12.6884    9.9268 H   0  0  0  0  0  0  0  0  0  0  0  0
   13.3102    9.6864   10.2930 C   0  0  0  0  0  0  0  0  0  0  0  0
   11.9696    9.8522   10.6138 C   0  0  0  0  0  0  0  0  0  0  0  0
   11.6750   10.3636   11.5185 H   0  0  0  0  0  0  0  0  0  0  0  0
   10.9874    9.3368    9.7777 C   0  0  0  0  0  0  0  0  0  0  0  0
   11.3228    8.6462    8.6250 C   0  0  0  0  0  0  0  0  0  0  0  0
   10.5582    8.2397    7.9805 H   0  0  0  0  0  0  0  0  0  0  0  0
   12.6684    8.4736    8.3216 C   0  0  0  0  0  0  0  0  0  0  0  0
   13.6598    8.9795    9.1442 C   0  0  0  0  0  0  0  0  0  0  0  0
   14.6990    8.8125    8.9018 H   0  0  0  0  0  0  0  0  0  0  0  0
    9.5453    9.5741   10.1436 C   0  0  0  0  0  0  0  0  0  0  0  0
    9.2021   10.8643    9.9506 F   0  0  0  0  0  0  0  0  0  0  0  0
    9.3029    9.3208   11.4382 F   0  0  0  0  0  0  0  0  0  0  0  0
    8.6892    8.8404    9.4319 F   0  0  0  0  0  0  0  0  0  0  0  0
   13.0193    7.7304    7.0571 C   0  0  0  0  0  0  0  0  0  0  0  0
   12.5554    8.3806    5.9710 F   0  0  0  0  0  0  0  0  0  0  0  0
   12.4785    6.5074    7.0190 F   0  0  0  0  0  0  0  0  0  0  0  0
   14.3352    7.5903    6.8787 F   0  0  0  0  0  0  0  0  0  0  0  0
   19.1513    8.8816    9.1892 C   0  0  0  0  0  0  0  0  0  0  0  0
   20.3931    9.3837    9.0975 F   0  0  0  0  0  0  0  0  0  0  0  0
   18.9193    8.2316    8.0398 F   0  0  0  0  0  0  0  0  0  0  0  0
   19.1757    7.9676   10.1604 F   0  0  0  0  0  0  0  0  0  0  0  0
   17.5829   13.6114    8.6419 C   0  0  0  0  0  0  0  0  0  0  0  0
   18.5782   13.7279    7.7630 F   0  0  0  0  0  0  0  0  0  0  0  0
   17.8789   14.4288    9.6734 F   0  0  0  0  0  0  0  0  0  0  0  0
   16.4842   14.1236    8.0682 F   0  0  0  0  0  0  0  0  0  0  0  0
  1  5  1  0  0  0  0
  1  3  1  0  0  0  0
  2  6  1  0  0  0  0
  2  1  1  0  0  0  0
  3 12  1  0  0  0  0
  3 15  1  0  0  0  0
  4  1  1  0  0  0  0
  6  8  1  0  0  0  0
  6  9  1  0  0  0  0
  7  6  1  0  0  0  0
  9 10  1  0  0  0  0
  9 12  1  0  0  0  0
 11  9  1  0  0  0  0
 12 13  1  0  0  0  0
 12 14  1  0  0  0  0
 15 16  2  0  0  0  0
 15 24  1  0  0  0  0
 16 18  1  0  0  0  0
 17 16  1  0  0  0  0
 18 19  1  0  0  0  0
 18 20  2  0  0  0  0
 20 21  1  0  0  0  0
 22 20  1  0  0  0  0
 22 23  1  0  0  0  0
 24 22  2  0  0  0  0
 25 24  1  0  0  0  0
 26  3  1  0  0  0  0
 27 26  1  0  0  0  0
 27 28  1  0  0  0  0
 29 27  2  0  0  0  0
 30 29  1  0  0  0  0
 31 33  2  0  0  0  0
 31 29  1  0  0  0  0
 32 31  1  0  0  0  0
 33 35  1  0  0  0  0
 34 33  1  0  0  0  0
 35 36  1  0  0  0  0
 35 26  2  0  0  0  0
 37  2  1  0  0  0  0
 38 37  1  0  0  0  0
 38 39  1  0  0  0  0
 40 38  2  0  0  0  0
 41 43  2  0  0  0  0
 41 40  1  0  0  0  0
 42 41  1  0  0  0  0
 43 44  1  0  0  0  0
 44 45  1  0  0  0  0
 44 37  2  0  0  0  0
 46 47  1  0  0  0  0
 46  2  1  0  0  0  0
 47 48  1  0  0  0  0
 49 55  1  0  0  0  0
 49 47  2  0  0  0  0
 50 49  1  0  0  0  0
 51 50  1  0  0  0  0
 52 50  2  0  0  0  0
 52 53  1  0  0  0  0
 53 46  2  0  0  0  0
 54 53  1  0  0  0  0
 55 57  1  0  0  0  0
 56 55  1  0  0  0  0
 58 55  1  0  0  0  0
 59 52  1  0  0  0  0
 60 59  1  0  0  0  0
 61 59  1  0  0  0  0
 62 59  1  0  0  0  0
 63 40  1  0  0  0  0
 63 66  1  0  0  0  0
 64 63  1  0  0  0  0
 65 63  1  0  0  0  0
 67 43  1  0  0  0  0
 67 69  1  0  0  0  0
 68 67  1  0  0  0  0
 70 67  1  0  0  0  0
M  END
$$$$
