CSD_code = ELURIM | q = 0 | S = 0 | Stoichiometry = C16H16Cl3N2ORe | MND = 6
 OpenBabel04212202033D

 39 41  0  0  0  0  0  0  0  0999 V2000
    7.3513    1.1294   19.5508 Re  0  0  0  0  0  0  0  0  0  0  0  0
    9.6316    1.5332   19.8590 Cl  0  0  0  0  0  0  0  0  0  0  0  0
    5.3114    0.3038   18.7375 Cl  0  0  0  0  0  0  0  0  0  0  0  0
    7.5503    2.1993   17.5999 Cl  0  0  0  0  0  0  0  0  0  0  0  0
    8.0419   -0.7266   18.7250 N   0  0  0  0  0  0  0  0  0  0  0  0
    7.2968   -0.2869   21.0812 N   0  0  0  0  0  0  0  0  0  0  0  0
    6.7614    2.2333   20.6446 O   0  0  0  0  0  1  0  0  0  0  0  0
    8.3557   -0.8286   17.3510 C   0  0  0  0  0  0  0  0  0  0  0  0
    9.5246   -0.2529   16.8621 C   0  0  0  0  0  0  0  0  0  0  0  0
   10.1969    0.2447   17.5449 H   0  0  0  0  0  0  0  0  0  0  0  0
    9.7996   -0.3196   15.5095 C   0  0  0  0  0  0  0  0  0  0  0  0
   10.7063    0.1265   15.1308 H   0  0  0  0  0  0  0  0  0  0  0  0
    8.9148   -0.9418   14.6435 C   0  0  0  0  0  0  0  0  0  0  0  0
    9.1297   -0.9791   13.5864 H   0  0  0  0  0  0  0  0  0  0  0  0
    7.7473   -1.5031   15.1329 C   0  0  0  0  0  0  0  0  0  0  0  0
    7.0470   -1.9751   14.4605 H   0  0  0  0  0  0  0  0  0  0  0  0
    7.4649   -1.4578   16.4855 C   0  0  0  0  0  0  0  0  0  0  0  0
    6.5422   -1.8601   16.8763 H   0  0  0  0  0  0  0  0  0  0  0  0
    6.8166    0.1095   22.3472 C   0  0  0  0  0  0  0  0  0  0  0  0
    5.6014   -0.3760   22.8215 C   0  0  0  0  0  0  0  0  0  0  0  0
    5.0272   -1.0582   22.2132 H   0  0  0  0  0  0  0  0  0  0  0  0
    5.1199    0.0652   24.0409 C   0  0  0  0  0  0  0  0  0  0  0  0
    4.1692   -0.2984   24.4001 H   0  0  0  0  0  0  0  0  0  0  0  0
    5.8481    0.9722   24.7922 C   0  0  0  0  0  0  0  0  0  0  0  0
    5.4680    1.3127   25.7432 H   0  0  0  0  0  0  0  0  0  0  0  0
    7.0570    1.4549   24.3156 C   0  0  0  0  0  0  0  0  0  0  0  0
    7.6211    2.1693   24.8948 H   0  0  0  0  0  0  0  0  0  0  0  0
    7.5421    1.0356   23.0915 C   0  0  0  0  0  0  0  0  0  0  0  0
    8.4728    1.4147   22.6971 H   0  0  0  0  0  0  0  0  0  0  0  0
    8.0274   -1.7805   19.4850 C   0  0  0  0  0  0  0  0  0  0  0  0
    7.6112   -1.5283   20.8402 C   0  0  0  0  0  0  0  0  0  0  0  0
    8.4137   -3.1524   19.0453 C   0  0  0  0  0  0  0  0  0  0  0  0
    8.7888   -3.1412   18.0254 H   0  0  0  0  0  0  0  0  0  0  0  0
    7.5522   -3.8166   19.0974 H   0  0  0  0  0  0  0  0  0  0  0  0
    9.1844   -3.5506   19.7029 H   0  0  0  0  0  0  0  0  0  0  0  0
    7.5873   -2.6257   21.8529 C   0  0  0  0  0  0  0  0  0  0  0  0
    7.3950   -2.2312   22.8465 H   0  0  0  0  0  0  0  0  0  0  0  0
    8.5425   -3.1474   21.8581 H   0  0  0  0  0  0  0  0  0  0  0  0
    6.8115   -3.3493   21.6057 H   0  0  0  0  0  0  0  0  0  0  0  0
  1  2  1  0  0  0  0
  1  7  1  0  0  0  0
  1  6  1  0  0  0  0
  3  1  1  0  0  0  0
  4  1  1  0  0  0  0
  5 30  1  0  0  0  0
  5  1  1  0  0  0  0
  6 19  1  0  0  0  0
  8  5  1  0  0  0  0
  9  8  1  0  0  0  0
  9 10  1  0  0  0  0
 11  9  2  0  0  0  0
 12 11  1  0  0  0  0
 13 15  2  0  0  0  0
 13 11  1  0  0  0  0
 14 13  1  0  0  0  0
 15 17  1  0  0  0  0
 16 15  1  0  0  0  0
 17 18  1  0  0  0  0
 17  8  2  0  0  0  0
 19 20  2  0  0  0  0
 19 28  1  0  0  0  0
 20 22  1  0  0  0  0
 21 20  1  0  0  0  0
 22 23  1  0  0  0  0
 22 24  2  0  0  0  0
 24 25  1  0  0  0  0
 26 24  1  0  0  0  0
 26 27  1  0  0  0  0
 28 26  2  0  0  0  0
 29 28  1  0  0  0  0
 30 31  2  0  0  0  0
 31  6  1  0  0  0  0
 31 36  1  0  0  0  0
 32 34  1  0  0  0  0
 32 30  1  0  0  0  0
 32 35  1  0  0  0  0
 33 32  1  0  0  0  0
 36 38  1  0  0  0  0
 36 37  1  0  0  0  0
 39 36  1  0  0  0  0
M  END
$$$$
