CSD_code = ELUREI | q = 0 | S = 0 | Stoichiometry = C16H11ClN2Pt | MND = 4
 OpenBabel04212202033D

 31 35  0  0  0  0  0  0  0  0999 V2000
   -0.3912    0.9784    8.2505 Pt  0  0  1  0  0  0  0  0  0  0  0  0
    1.5764    0.2341    7.5698 Cl  0  0  0  0  0  0  0  0  0  0  0  0
    0.2192    1.6475   10.1987 N   0  0  0  0  0  0  0  0  0  0  0  0
   -2.0508    1.6473    8.9136 N   0  0  0  0  0  0  0  0  0  0  0  0
    1.4120    1.5931   10.7710 C   0  0  0  0  0  0  0  0  0  0  0  0
    2.2023    1.1630   10.1684 H   0  0  0  0  0  0  0  0  0  0  0  0
    1.6439    2.0535   12.0557 C   0  0  0  0  0  0  0  0  0  0  0  0
    2.6296    1.9905   12.4868 H   0  0  0  0  0  0  0  0  0  0  0  0
    0.5796    2.5917   12.7664 C   0  0  0  0  0  0  0  0  0  0  0  0
    0.7198    2.9602   13.7715 H   0  0  0  0  0  0  0  0  0  0  0  0
   -0.6668    2.6506   12.1706 C   0  0  0  0  0  0  0  0  0  0  0  0
   -1.5050    3.0640   12.7072 H   0  0  0  0  0  0  0  0  0  0  0  0
   -0.8288    2.1685   10.8716 C   0  0  0  0  0  0  0  0  0  0  0  0
   -2.1036    2.1789   10.1482 C   0  0  0  0  0  0  0  0  0  0  0  0
   -3.3062    2.6817   10.6402 C   0  0  0  0  0  0  0  0  0  0  0  0
   -3.3632    3.1135   11.6253 H   0  0  0  0  0  0  0  0  0  0  0  0
   -4.4356    2.6215    9.8393 C   0  0  0  0  0  0  0  0  0  0  0  0
   -5.3751    3.0068   10.2045 H   0  0  0  0  0  0  0  0  0  0  0  0
   -4.3576    2.0659    8.5709 C   0  0  0  0  0  0  0  0  0  0  0  0
   -5.2321    2.0167    7.9436 H   0  0  0  0  0  0  0  0  0  0  0  0
   -3.1383    1.5754    8.1154 C   0  0  0  0  0  0  0  0  0  0  0  0
   -2.8466    0.9604    6.8268 C   0  0  0  0  0  0  0  0  0  0  0  0
   -3.7937    0.7592    5.8245 C   0  0  0  0  0  0  0  0  0  0  0  0
   -4.8193    1.0655    5.9719 H   0  0  0  0  0  0  0  0  0  0  0  0
   -3.4208    0.1633    4.6358 C   0  0  0  0  0  0  0  0  0  0  0  0
   -4.1543    0.0060    3.8585 H   0  0  0  0  0  0  0  0  0  0  0  0
   -2.1060   -0.2316    4.4413 C   0  0  0  0  0  0  0  0  0  0  0  0
   -1.8195   -0.6992    3.5100 H   0  0  0  0  0  0  0  0  0  0  0  0
   -1.1559   -0.0342    5.4320 C   0  0  0  0  0  3  0  0  0  0  0  0
   -0.1365   -0.3478    5.2591 H   0  0  0  0  0  0  0  0  0  0  0  0
   -1.4963    0.5607    6.6405 C   0  0  0  0  0  0  0  0  0  0  0  0
  1  2  1  6  0  0  0
  1  4  1  0  0  0  0
  1  3  1  0  0  0  0
  3  5  1  0  0  0  0
  3 13  1  0  0  0  0
  4 14  1  0  0  0  0
  5  7  2  0  0  0  0
  6  5  1  0  0  0  0
  7  8  1  0  0  0  0
  7  9  1  0  0  0  0
  9 10  1  0  0  0  0
 11 12  1  0  0  0  0
 11  9  2  0  0  0  0
 13 11  1  0  0  0  0
 14 15  1  0  0  0  0
 14 13  2  0  0  0  0
 15 16  1  0  0  0  0
 17 18  1  0  0  0  0
 17 15  2  0  0  0  0
 19 17  1  0  0  0  0
 20 19  1  0  0  0  0
 21 19  2  0  0  0  0
 21  4  1  0  0  0  0
 22 21  1  0  0  0  0
 23 24  1  0  0  0  0
 23 22  2  0  0  0  0
 25 23  1  0  0  0  0
 26 25  1  0  0  0  0
 27 25  2  0  0  0  0
 27 29  1  0  0  0  0
 28 27  1  0  0  0  0
 29 31  1  0  0  0  0
 30 29  1  0  0  0  0
 31 22  1  0  0  0  0
 31  1  2  0  0  0  0
M  END
$$$$
