CSD_code = ELUTAI | q = 0 | S = 0 | Stoichiometry = C23H33Br2N3Ni | MND = 4
 OpenBabel04212202033D

 62 64  0  0  1  0  0  0  0  0999 V2000
    6.2475   10.4249    2.1239 Br  0  0  0  0  0  0  0  0  0  0  0  0
    7.9749   11.1468    4.8519 Br  0  0  0  0  0  0  0  0  0  0  0  0
    7.7655    9.4244    3.5018 Ni  0  0  0  0  0  0  0  0  0  0  0  0
    7.6605    7.8958    2.4128 N   0  0  0  0  0  0  0  0  0  0  0  0
    6.4112    7.8989    4.9983 N   0  0  0  0  0  0  0  0  0  0  0  0
    9.9762    9.5880    2.2710 N   0  0  0  0  0  0  0  0  0  0  0  0
    9.3610    7.7336    4.5281 C   0  0  0  0  0  0  0  0  0  0  0  0
    9.2398    8.7211    4.9692 H   0  0  0  0  0  0  0  0  0  0  0  0
   10.3322    7.5329    3.5554 C   0  0  0  0  0  0  0  0  0  0  0  0
   10.5835    6.2425    3.1118 C   0  0  0  0  0  0  0  0  0  0  0  0
   11.3458    6.0676    2.3657 H   0  0  0  0  0  0  0  0  0  0  0  0
    9.8490    5.1802    3.6115 C   0  0  0  0  0  0  0  0  0  0  0  0
   10.0591    4.1760    3.2744 H   0  0  0  0  0  0  0  0  0  0  0  0
    8.8033    5.4073    4.4905 C   0  0  0  0  0  0  0  0  0  0  0  0
    8.1834    4.5836    4.8157 H   0  0  0  0  0  0  0  0  0  0  0  0
    8.5400    6.6925    4.9423 C   0  0  0  0  0  0  0  0  0  0  0  0
    7.3328    7.0330    5.7649 C   0  0  0  0  0  0  0  0  0  0  0  0
    7.6644    7.5810    6.6463 H   0  0  0  0  0  0  0  0  0  0  0  0
    6.8316    6.1078    6.0871 H   0  0  0  0  0  0  0  0  0  0  0  0
    5.8599    7.1277    3.8738 C   0  0  0  0  0  0  0  0  0  0  0  0
    4.9997    7.6741    3.4732 H   0  0  0  0  0  0  0  0  0  0  0  0
    5.5122    6.1357    4.2011 H   0  0  0  0  0  0  0  0  0  0  0  0
    6.7954    6.9312    2.7122 C   0  0  1  0  0  3  0  0  0  0  0  0
    6.6948    5.7888    1.9284 C   0  0  0  0  0  0  0  0  0  0  0  0
    5.9724    5.0283    2.1795 H   0  0  0  0  0  0  0  0  0  0  0  0
    7.5271    5.6469    0.8338 C   0  0  0  0  0  0  0  0  0  0  0  0
    7.4616    4.7736    0.2031 H   0  0  0  0  0  0  0  0  0  0  0  0
    8.4552    6.6374    0.5707 C   0  0  0  0  0  0  0  0  0  0  0  0
    9.1369    6.5535   -0.2607 H   0  0  0  0  0  0  0  0  0  0  0  0
    8.5041    7.7549    1.3939 C   0  0  0  0  0  0  0  0  0  0  0  0
    9.4687    8.8690    1.0927 C   0  0  0  0  0  0  0  0  0  0  0  0
   10.2919    8.4525    0.4918 H   0  0  0  0  0  0  0  0  0  0  0  0
    8.9175    9.5803    0.4687 H   0  0  0  0  0  0  0  0  0  0  0  0
   10.9815    8.7414    2.9484 C   0  0  0  0  0  0  0  0  0  0  0  0
   11.4352    9.3223    3.7508 H   0  0  0  0  0  0  0  0  0  0  0  0
   11.7694    8.4247    2.2484 H   0  0  0  0  0  0  0  0  0  0  0  0
    5.3097    8.4377    5.8661 C   0  0  0  0  0  0  0  0  0  0  0  0
    4.2947    7.3581    6.2774 C   0  0  0  0  0  0  0  0  0  0  0  0
    3.6959    7.0199    5.4349 H   0  0  0  0  0  0  0  0  0  0  0  0
    3.6178    7.7814    7.0147 H   0  0  0  0  0  0  0  0  0  0  0  0
    4.7810    6.4975    6.7327 H   0  0  0  0  0  0  0  0  0  0  0  0
    5.8882    9.0620    7.1438 C   0  0  0  0  0  0  0  0  0  0  0  0
    6.1658    8.3115    7.8807 H   0  0  0  0  0  0  0  0  0  0  0  0
    5.1316    9.6971    7.5965 H   0  0  0  0  0  0  0  0  0  0  0  0
    6.7452    9.6893    6.9170 H   0  0  0  0  0  0  0  0  0  0  0  0
    4.5685    9.5564    5.1267 C   0  0  0  0  0  0  0  0  0  0  0  0
    5.2476   10.3720    4.8996 H   0  0  0  0  0  0  0  0  0  0  0  0
    3.7803    9.9465    5.7652 H   0  0  0  0  0  0  0  0  0  0  0  0
    4.1027    9.2292    4.2010 H   0  0  0  0  0  0  0  0  0  0  0  0
   10.5498   10.9201    1.8803 C   0  0  0  0  0  0  0  0  0  0  0  0
    9.4233   11.8648    1.4484 C   0  0  0  0  0  0  0  0  0  0  0  0
    8.8715   11.5128    0.5809 H   0  0  0  0  0  0  0  0  0  0  0  0
    9.8469   12.8319    1.1910 H   0  0  0  0  0  0  0  0  0  0  0  0
    8.7232   12.0144    2.2640 H   0  0  0  0  0  0  0  0  0  0  0  0
   11.5725   10.8155    0.7369 C   0  0  0  0  0  0  0  0  0  0  0  0
   12.3564   10.0941    0.9591 H   0  0  0  0  0  0  0  0  0  0  0  0
   12.0454   11.7850    0.6050 H   0  0  0  0  0  0  0  0  0  0  0  0
   11.1019   10.5463   -0.2059 H   0  0  0  0  0  0  0  0  0  0  0  0
   11.2400   11.5785    3.0836 C   0  0  0  0  0  0  0  0  0  0  0  0
   10.6305   11.4894    3.9780 H   0  0  0  0  0  0  0  0  0  0  0  0
   11.3646   12.6385    2.8800 H   0  0  0  0  0  0  0  0  0  0  0  0
   12.2291   11.1654    3.2694 H   0  0  0  0  0  0  0  0  0  0  0  0
  1  3  1  0  0  0  0
  3  2  1  0  0  0  0
  4 23  1  0  0  0  0
  4  3  1  0  0  0  0
  5 17  1  0  0  0  0
  5 37  1  0  0  0  0
  6 34  1  0  0  0  0
  7 16  1  0  0  0  0
  7  8  1  0  0  0  0
  9  7  2  0  0  0  0
 10  9  1  0  0  0  0
 10 12  2  0  0  0  0
 11 10  1  0  0  0  0
 12 14  1  0  0  0  0
 13 12  1  0  0  0  0
 14 15  1  0  0  0  0
 14 16  2  0  0  0  0
 16 17  1  0  0  0  0
 17 19  1  0  0  0  0
 17 18  1  0  0  0  0
 20 22  1  0  0  0  0
 20  5  1  0  0  0  0
 21 20  1  0  0  0  0
 23 24  1  6  0  0  0
 23 20  1  0  0  0  0
 24 25  1  0  0  0  0
 26 24  2  0  0  0  0
 27 26  1  0  0  0  0
 28 26  1  0  0  0  0
 28 30  2  0  0  0  0
 29 28  1  0  0  0  0
 30  4  1  0  0  0  0
 31 30  1  0  0  0  0
 31  6  1  0  0  0  0
 32 31  1  0  0  0  0
 33 31  1  0  0  0  0
 34  9  1  0  0  0  0
 34 35  1  0  0  0  0
 36 34  1  0  0  0  0
 37 38  1  0  0  0  0
 37 42  1  0  0  0  0
 38 41  1  0  0  0  0
 38 40  1  0  0  0  0
 39 38  1  0  0  0  0
 42 44  1  0  0  0  0
 42 43  1  0  0  0  0
 45 42  1  0  0  0  0
 46 48  1  0  0  0  0
 46 37  1  0  0  0  0
 47 46  1  0  0  0  0
 49 46  1  0  0  0  0
 50  6  1  0  0  0  0
 50 59  1  0  0  0  0
 51 50  1  0  0  0  0
 51 54  1  0  0  0  0
 52 51  1  0  0  0  0
 53 51  1  0  0  0  0
 55 56  1  0  0  0  0
 55 50  1  0  0  0  0
 57 55  1  0  0  0  0
 58 55  1  0  0  0  0
 59 62  1  0  0  0  0
 59 60  1  0  0  0  0
 61 59  1  0  0  0  0
M  END
$$$$
