CSD_code = ELUTUA | q = 0 | S = 0 | Stoichiometry = C12H8ClN3O5Ru | MND = 6
 OpenBabel04212202033D

 30 33  0  0  1  0  0  0  0  0999 V2000
    8.0989    3.3900    3.2862 Ru  0  0  0  0  0  0  0  0  0  0  0  0
   10.0300    4.0656    4.3325 Cl  0  0  0  0  0  0  0  0  0  0  0  0
    8.6625    4.4534    0.7332 O   0  0  0  0  0  1  0  0  0  0  0  0
    7.0308    4.9804    3.9845 O   0  0  0  0  0  0  0  0  0  0  0  0
    4.9700    5.5656    4.5580 O   0  0  0  0  0  0  0  0  0  0  0  0
    7.6007    2.4034    4.9496 O   0  0  0  0  0  0  0  0  0  0  0  0
    7.8167    0.4810    6.0584 O   0  0  0  0  0  0  0  0  0  0  0  0
    8.4400    4.0736    1.8004 N   0  0  0  0  0  2  0  0  0  0  0  0
    6.1549    2.7335    2.8091 N   0  0  0  0  0  0  0  0  0  0  0  0
    9.1748    1.6398    3.0235 N   0  0  0  0  0  0  0  0  0  0  0  0
    5.2609    3.4834    3.4549 C   0  0  2  0  0  3  0  0  0  0  0  0
    3.9244    3.1172    3.5433 C   0  0  0  0  0  0  0  0  0  0  0  0
    3.5160    1.9334    2.9557 C   0  0  0  0  0  0  0  0  0  0  0  0
    4.4563    1.1649    2.2809 C   0  0  0  0  0  0  0  0  0  0  0  0
    5.7685    1.6004    2.2327 C   0  0  0  0  0  0  0  0  0  0  0  0
    5.7710    4.7981    4.0763 C   0  0  0  0  0  0  0  0  0  0  0  0
    9.1162    0.8368    4.0904 C   0  0  1  0  0  3  0  0  0  0  0  0
    9.9234   -0.2817    4.2291 C   0  0  0  0  0  0  0  0  0  0  0  0
   10.8427   -0.5661    3.2345 C   0  0  0  0  0  0  0  0  0  0  0  0
   10.9043    0.2755    2.1321 C   0  0  0  0  0  0  0  0  0  0  0  0
   10.0567    1.3672    2.0620 C   0  0  0  0  0  0  0  0  0  0  0  0
    8.0943    1.2452    5.1629 C   0  0  0  0  0  0  0  0  0  0  0  0
    3.2543    3.7712    4.0799 H   0  0  0  0  0  0  0  0  0  0  0  0
    2.4882    1.6102    3.0201 H   0  0  0  0  0  0  0  0  0  0  0  0
    4.1814    0.2378    1.8040 H   0  0  0  0  0  0  0  0  0  0  0  0
    6.5325    1.0317    1.7158 H   0  0  0  0  0  0  0  0  0  0  0  0
    9.8135   -0.8818    5.1190 H   0  0  0  0  0  0  0  0  0  0  0  0
   11.5014   -1.4168    3.3166 H   0  0  0  0  0  0  0  0  0  0  0  0
   11.6085    0.0983    1.3352 H   0  0  0  0  0  0  0  0  0  0  0  0
   10.0910    2.0419    1.2146 H   0  0  0  0  0  0  0  0  0  0  0  0
  1  4  1  0  0  0  0
  1  2  1  0  0  0  0
  1  6  1  0  0  0  0
  3  8  1  0  0  0  0
  4 16  1  0  0  0  0
  6 22  1  0  0  0  0
  8  1  1  0  0  0  0
  9  1  1  0  0  0  0
  9 11  1  0  0  0  0
 10  1  1  0  0  0  0
 10 17  1  0  0  0  0
 11 12  1  6  0  0  0
 11 16  1  0  0  0  0
 12 23  1  0  0  0  0
 13 24  1  0  0  0  0
 13 12  2  0  0  0  0
 14 13  1  0  0  0  0
 15 14  2  0  0  0  0
 15  9  1  0  0  0  0
 16  5  2  0  0  0  0
 17 18  1  1  0  0  0
 17 22  1  0  0  0  0
 18 27  1  0  0  0  0
 19 28  1  0  0  0  0
 19 18  2  0  0  0  0
 20 19  1  0  0  0  0
 21 20  2  0  0  0  0
 21 10  1  0  0  0  0
 22  7  2  0  0  0  0
 25 14  1  0  0  0  0
 26 15  1  0  0  0  0
 29 20  1  0  0  0  0
 30 21  1  0  0  0  0
M  END
$$$$
