CSD_code = EMATOC | q = 1 | S = 0 | Stoichiometry = C12H13ClN3Pd(1+) | MND = 4
 OpenBabel04212202033D

 30 33  0  0  1  0  0  0  0  0999 V2000
    3.3901   14.6170    6.9156 C   0  0  0  0  0  3  0  0  0  0  0  0
    3.4285   14.7787    5.8441 H   0  0  0  0  0  0  0  0  0  0  0  0
    3.9452   15.5211    7.8071 C   0  0  0  0  0  0  0  0  0  0  0  0
    4.4323   16.4084    7.4379 H   0  0  0  0  0  0  0  0  0  0  0  0
    3.8589   15.2617    9.1652 C   0  0  0  0  0  0  0  0  0  0  0  0
    4.2799   15.9430    9.8874 H   0  0  0  0  0  0  0  0  0  0  0  0
    3.2198   14.1033    9.5856 C   0  0  0  0  0  0  0  0  0  0  0  0
    3.1369   13.8710   10.6356 H   0  0  0  0  0  0  0  0  0  0  0  0
    2.6798   13.2448    8.6411 C   0  0  0  0  0  0  0  0  0  0  0  0
    1.9202   11.9916    9.0405 C   0  0  0  0  0  0  0  0  0  0  0  0
    2.2527   11.6456   10.0274 H   0  0  0  0  0  0  0  0  0  0  0  0
    0.8569   12.2596    9.1161 H   0  0  0  0  0  0  0  0  0  0  0  0
    0.9619    9.9935    7.8475 C   0  0  0  0  0  0  0  0  0  0  0  0
    0.0175   10.5102    8.0697 H   0  0  0  0  0  0  0  0  0  0  0  0
    1.0501    9.1403    8.5319 H   0  0  0  0  0  0  0  0  0  0  0  0
    0.8889    9.5080    6.4102 C   0  0  1  0  0  3  0  0  0  0  0  0
    0.4193    8.2444    6.0891 C   0  0  0  0  0  0  0  0  0  0  0  0
    0.1285    7.5619    6.8719 H   0  0  0  0  0  0  0  0  0  0  0  0
    0.3228    7.8736    4.7548 C   0  0  0  0  0  0  0  0  0  0  0  0
   -0.0451    6.8957    4.4874 H   0  0  0  0  0  0  0  0  0  0  0  0
    0.7077    8.7802    3.7806 C   0  0  0  0  0  0  0  0  0  0  0  0
    0.6473    8.5338    2.7334 H   0  0  0  0  0  0  0  0  0  0  0  0
    1.1768   10.0245    4.1707 C   0  0  0  0  0  0  0  0  0  0  0  0
    1.4868   10.7683    3.4453 H   0  0  0  0  0  0  0  0  0  0  0  0
    2.7680   13.5119    7.3232 N   0  0  0  0  0  0  0  0  0  0  0  0
    2.0628   10.9545    8.0085 N   0  0  1  0  0  4  0  0  0  0  0  0
    2.9463   10.4559    8.1337 H   0  0  0  0  0  0  0  0  0  0  0  0
    1.2592   10.3802    5.4518 N   0  0  0  0  0  0  0  0  0  0  0  0
    1.9224   13.2118    4.3350 Cl  0  0  0  0  0  0  0  0  0  0  0  0
    2.0249   12.0421    6.2180 Pd  0  0  2  0  0  0  0  0  0  0  0  0
  1 25  1  0  0  0  0
  1  3  1  0  0  0  0
  2  1  1  0  0  0  0
  3  5  2  0  0  0  0
  4  3  1  0  0  0  0
  5  7  1  0  0  0  0
  5  6  1  0  0  0  0
  7  8  1  0  0  0  0
  9 10  1  0  0  0  0
  9  7  2  0  0  0  0
 10 12  1  0  0  0  0
 10 11  1  0  0  0  0
 13 26  1  0  0  0  0
 13 14  1  0  0  0  0
 13 15  1  0  0  0  0
 16 17  1  6  0  0  0
 16 13  1  0  0  0  0
 17 18  1  0  0  0  0
 19 17  2  0  0  0  0
 20 19  1  0  0  0  0
 21 23  2  0  0  0  0
 21 19  1  0  0  0  0
 22 21  1  0  0  0  0
 23 28  1  0  0  0  0
 24 23  1  0  0  0  0
 25  9  1  0  0  0  0
 26 27  1  1  0  0  0
 26 10  1  0  0  0  0
 28 30  1  0  0  0  0
 28 16  1  0  0  0  0
 30 29  1  1  0  0  0
 30 25  1  0  0  0  0
 30 26  1  0  0  0  0
M  END
$$$$
