CSD_code = EMATAN | q = 0 | S = 0 | Stoichiometry = C12H10AuCl2N3 | MND = 4
 OpenBabel04212202033D

 28 30  0  0  1  0  0  0  0  0999 V2000
   -6.6919    3.4256    4.4908 Au  0  0  0  0  0  0  0  0  0  0  0  0
   -5.3689    2.5085    2.9184 Cl  0  0  0  0  0  0  0  0  0  0  0  0
   -8.1361    4.2138    2.9316 Cl  0  0  0  0  0  0  0  0  0  0  0  0
   -7.9323    4.1187    5.8717 N   0  0  0  0  0  0  0  0  0  0  0  0
   -8.6671    4.7275    5.5356 H   0  0  0  0  0  0  0  0  0  0  0  0
   -5.9565    2.4351    7.1386 N   0  0  0  0  0  0  0  0  0  0  0  0
   -5.5108    2.7403    6.0035 N   0  0  0  0  0  0  0  0  0  0  0  0
   -8.1444    3.5419    7.0389 C   0  0  2  0  0  3  0  0  0  0  0  0
   -9.3132    3.8076    7.7974 C   0  0  0  0  0  0  0  0  0  0  0  0
  -10.0440    4.4772    7.3680 H   0  0  0  0  0  0  0  0  0  0  0  0
   -9.5276    3.2234    9.0104 C   0  0  0  0  0  0  0  0  0  0  0  0
  -10.4394    3.4323    9.5495 H   0  0  0  0  0  0  0  0  0  0  0  0
   -8.5780    2.3481    9.5738 C   0  0  0  0  0  0  0  0  0  0  0  0
   -8.7722    1.8957   10.5330 H   0  0  0  0  0  0  0  0  0  0  0  0
   -7.4210    2.0931    8.9049 C   0  0  0  0  0  0  0  0  0  0  0  0
   -6.6639    1.4406    9.3099 H   0  0  0  0  0  0  0  0  0  0  0  0
   -7.1612    2.6699    7.6329 C   0  0  0  0  0  0  0  0  0  0  0  0
   -4.1429    2.5237    5.7922 C   0  0  0  0  0  0  0  0  0  0  0  0
   -3.5176    1.4193    6.3695 C   0  0  0  0  0  0  0  0  0  0  0  0
   -4.1071    0.7328    6.9576 H   0  0  0  0  0  0  0  0  0  0  0  0
   -2.1709    1.2060    6.1538 C   0  0  0  0  0  0  0  0  0  0  0  0
   -1.6928    0.3400    6.5859 H   0  0  0  0  0  0  0  0  0  0  0  0
   -1.4389    2.0923    5.3794 C   0  0  0  0  0  0  0  0  0  0  0  0
   -0.3880    1.9178    5.2064 H   0  0  0  0  0  0  0  0  0  0  0  0
   -2.0574    3.2022    4.8256 C   0  0  0  0  0  0  0  0  0  0  0  0
   -1.4887    3.8993    4.2299 H   0  0  0  0  0  0  0  0  0  0  0  0
   -3.4059    3.4221    5.0263 C   0  0  0  0  0  0  0  0  0  0  0  0
   -3.8901    4.2900    4.6053 H   0  0  0  0  0  0  0  0  0  0  0  0
  1  4  1  0  0  0  0
  1  7  1  0  0  0  0
  2  1  1  0  0  0  0
  3  1  1  0  0  0  0
  4  8  1  0  0  0  0
  5  4  1  0  0  0  0
  6 17  2  0  0  0  0
  7  6  1  0  0  0  0
  8 17  1  1  0  0  0
  8  9  1  0  0  0  0
  9 11  2  0  0  0  0
 10  9  1  0  0  0  0
 11 12  1  0  0  0  0
 11 13  1  0  0  0  0
 13 14  1  0  0  0  0
 15 16  1  0  0  0  0
 15 13  2  0  0  0  0
 17 15  1  0  0  0  0
 18  7  1  0  0  0  0
 18 19  1  0  0  0  0
 19 20  1  0  0  0  0
 21 19  2  0  0  0  0
 21 22  1  0  0  0  0
 23 21  1  0  0  0  0
 24 23  1  0  0  0  0
 25 27  1  0  0  0  0
 25 23  2  0  0  0  0
 26 25  1  0  0  0  0
 27 18  2  0  0  0  0
 28 27  1  0  0  0  0
M  END
$$$$
