CSD_code = EMAXAR | q = 0 | S = 0 | Stoichiometry = C15H14ClN3O2PRh | MND = 4
 OpenBabel04212202033D

 37 40  0  0  1  0  0  0  0  0999 V2000
   16.4689    1.1962    9.9572 Rh  0  0  1  0  0  0  0  0  0  0  0  0
   14.8609   -0.2092   10.5272 Cl  0  0  0  0  0  0  0  0  0  0  0  0
   18.1699    2.3728    9.1605 P   0  0  0  0  0  4  0  0  0  0  0  0
   16.4868    0.2225    8.1712 O   0  0  0  0  0  0  0  0  0  0  0  0
   18.2563    2.4367    7.4286 N   0  0  0  0  0  0  0  0  0  0  0  0
   16.5016   -0.6280    5.9721 C   0  0  0  0  0  0  0  0  0  0  0  0
   17.3842   -1.0468    5.4946 H   0  0  0  0  0  0  0  0  0  0  0  0
   15.8881   -0.1550    5.2083 H   0  0  0  0  0  0  0  0  0  0  0  0
   15.9299   -1.4213    6.4471 H   0  0  0  0  0  0  0  0  0  0  0  0
   16.2710    2.6173   12.5577 O   0  0  0  0  0  1  0  0  0  0  0  0
   19.6773    1.6657    9.5008 N   0  0  0  0  0  0  0  0  0  0  0  0
   16.8947    0.3818    7.0173 C   0  0  1  0  0  3  0  0  0  0  0  0
   18.5220    4.0023    9.4774 N   0  0  0  0  0  0  0  0  0  0  0  0
   17.7214    1.4772    6.5803 C   0  0  0  0  0  0  0  0  0  0  0  0
   18.1098    1.7972    5.2863 C   0  0  0  0  0  0  0  0  0  0  0  0
   17.8539    1.2576    4.3965 H   0  0  0  0  0  0  0  0  0  0  0  0
   18.8846    2.9592    5.3508 C   0  0  0  0  0  0  0  0  0  0  0  0
   19.3347    3.4752    4.5262 H   0  0  0  0  0  0  0  0  0  0  0  0
   18.9624    3.3212    6.6715 C   0  0  0  0  0  0  0  0  0  0  0  0
   19.4586    4.1633    7.1141 H   0  0  0  0  0  0  0  0  0  0  0  0
   20.9466    2.0112    9.0937 C   0  0  0  0  0  0  0  0  0  0  0  0
   21.1229    2.8883    8.5022 H   0  0  0  0  0  0  0  0  0  0  0  0
   21.8204    1.0843    9.5697 C   0  0  0  0  0  0  0  0  0  0  0  0
   22.8828    1.0800    9.4246 H   0  0  0  0  0  0  0  0  0  0  0  0
   21.0710    0.1227   10.2942 C   0  0  0  0  0  0  0  0  0  0  0  0
   21.4647   -0.7389   10.7951 H   0  0  0  0  0  0  0  0  0  0  0  0
   19.7676    0.5006   10.2330 C   0  0  0  0  0  0  0  0  0  0  0  0
   18.8711    0.0542   10.6453 H   0  0  0  0  0  0  0  0  0  0  0  0
   19.3653    4.5032   10.4436 C   0  0  0  0  0  0  0  0  0  0  0  0
   20.1034    3.8803   10.9100 H   0  0  0  0  0  0  0  0  0  0  0  0
   19.0903    5.8232   10.6192 C   0  0  0  0  0  0  0  0  0  0  0  0
   19.5974    6.4955   11.2821 H   0  0  0  0  0  0  0  0  0  0  0  0
   18.0099    6.1501    9.7625 C   0  0  0  0  0  0  0  0  0  0  0  0
   17.5510    7.1134    9.6606 H   0  0  0  0  0  0  0  0  0  0  0  0
   17.6685    5.0159    9.0959 C   0  0  0  0  0  0  0  0  0  0  0  0
   16.8998    4.8352    8.3674 H   0  0  0  0  0  0  0  0  0  0  0  0
   16.3377    2.0515   11.5655 C   0  0  0  0  0  2  0  0  0  0  0  0
  1  2  1  1  0  0  0
  1 37  1  0  0  0  0
  3 13  1  0  0  0  0
  3 11  1  0  0  0  0
  3  1  1  0  0  0  0
  4  1  1  0  0  0  0
  5  3  1  0  0  0  0
  6  9  1  0  0  0  0
  7  6  1  0  0  0  0
  8  6  1  0  0  0  0
 11 27  1  0  0  0  0
 12  6  1  6  0  0  0
 12  4  1  0  0  0  0
 13 29  1  0  0  0  0
 14 12  1  0  0  0  0
 14  5  1  0  0  0  0
 15 17  1  0  0  0  0
 15 14  2  0  0  0  0
 16 15  1  0  0  0  0
 17 19  2  0  0  0  0
 18 17  1  0  0  0  0
 19 20  1  0  0  0  0
 19  5  1  0  0  0  0
 21 11  1  0  0  0  0
 21 23  2  0  0  0  0
 22 21  1  0  0  0  0
 23 25  1  0  0  0  0
 24 23  1  0  0  0  0
 25 26  1  0  0  0  0
 27 25  2  0  0  0  0
 27 28  1  0  0  0  0
 29 31  2  0  0  0  0
 29 30  1  0  0  0  0
 31 32  1  0  0  0  0
 33 31  1  0  0  0  0
 34 33  1  0  0  0  0
 35 13  1  0  0  0  0
 35 33  2  0  0  0  0
 36 35  1  0  0  0  0
 37 10  1  0  0  0  0
M  END
$$$$
