CSD_code = EMAYEW | q = 0 | S = 0 | Stoichiometry = C11H16Cl2N2Pt | MND = 4
 OpenBabel04212202033D

 32 33  0  0  0  0  0  0  0  0999 V2000
    3.5624    1.8927    7.2580 Pt  0  0  0  0  0  0  0  0  0  0  0  0
    4.8045    1.6095    9.0996 Cl  0  0  0  0  0  0  0  0  0  0  0  0
    5.3960    2.4649    6.0966 Cl  0  0  0  0  0  0  0  0  0  0  0  0
    2.3604    2.0244    5.6758 N   0  0  0  0  0  0  0  0  0  0  0  0
    1.7785    1.3515    8.3056 N   0  0  0  0  0  4  0  0  0  0  0  0
    1.8698    3.8290    2.6028 C   0  0  0  0  0  0  0  0  0  0  0  0
    2.4773    4.6460    2.9622 H   0  0  0  0  0  0  0  0  0  0  0  0
    1.1306    3.9678    1.4458 C   0  0  0  0  0  0  0  0  0  0  0  0
    1.1622    4.8964    0.8960 H   0  0  0  0  0  0  0  0  0  0  0  0
    0.3605    2.9122    0.9808 C   0  0  0  0  0  0  0  0  0  0  0  0
   -0.2101    3.0173    0.0707 H   0  0  0  0  0  0  0  0  0  0  0  0
    0.3417    1.7160    1.6779 C   0  0  0  0  0  0  0  0  0  0  0  0
   -0.2354    0.8827    1.3056 H   0  0  0  0  0  0  0  0  0  0  0  0
    1.0623    1.5781    2.8503 C   0  0  0  0  0  0  0  0  0  0  0  0
    1.0721    0.6245    3.3558 H   0  0  0  0  0  0  0  0  0  0  0  0
    1.8275    2.6397    3.3385 C   0  0  0  0  0  0  0  0  0  0  0  0
    2.6374    2.5665    4.5476 C   0  0  0  0  0  3  0  0  0  0  0  0
    3.6080    3.0534    4.4962 H   0  0  0  0  0  0  0  0  0  0  0  0
    1.0725    1.4046    5.9356 C   0  0  0  0  0  0  0  0  0  0  0  0
    0.2977    1.7947    5.2649 H   0  0  0  0  0  0  0  0  0  0  0  0
    1.1589    0.3247    5.7728 H   0  0  0  0  0  0  0  0  0  0  0  0
    0.6827    1.6875    7.3889 C   0  0  0  0  0  0  0  0  0  0  0  0
    0.4781    2.7579    7.4820 H   0  0  0  0  0  0  0  0  0  0  0  0
   -0.2312    1.1358    7.6510 H   0  0  0  0  0  0  0  0  0  0  0  0
    1.6132    2.0609    9.5737 C   0  0  0  0  0  0  0  0  0  0  0  0
    1.6102    3.1366    9.4000 H   0  0  0  0  0  0  0  0  0  0  0  0
    2.4551    1.8239   10.2224 H   0  0  0  0  0  0  0  0  0  0  0  0
    0.6772    1.7704   10.0649 H   0  0  0  0  0  0  0  0  0  0  0  0
    1.8350   -0.0861    8.5675 C   0  0  0  0  0  0  0  0  0  0  0  0
    1.9759   -0.6404    7.6401 H   0  0  0  0  0  0  0  0  0  0  0  0
    0.9141   -0.4311    9.0539 H   0  0  0  0  0  0  0  0  0  0  0  0
    2.6830   -0.2896    9.2205 H   0  0  0  0  0  0  0  0  0  0  0  0
  1  5  1  0  0  0  0
  1  2  1  0  0  0  0
  3  1  1  0  0  0  0
  4 19  1  0  0  0  0
  4  1  1  0  0  0  0
  5 29  1  0  0  0  0
  5 25  1  0  0  0  0
  6  7  1  0  0  0  0
  6 16  1  0  0  0  0
  8  6  2  0  0  0  0
  9  8  1  0  0  0  0
 10  8  1  0  0  0  0
 10 12  2  0  0  0  0
 11 10  1  0  0  0  0
 12 14  1  0  0  0  0
 13 12  1  0  0  0  0
 14 16  2  0  0  0  0
 14 15  1  0  0  0  0
 16 17  1  0  0  0  0
 17  4  1  0  0  0  0
 18 17  1  0  0  0  0
 19 22  1  0  0  0  0
 20 19  1  0  0  0  0
 21 19  1  0  0  0  0
 22 23  1  0  0  0  0
 22 24  1  0  0  0  0
 22  5  1  0  0  0  0
 25 28  1  0  0  0  0
 25 27  1  0  0  0  0
 26 25  1  0  0  0  0
 29 31  1  0  0  0  0
 29 32  1  0  0  0  0
 30 29  1  0  0  0  0
M  END
$$$$
