CSD_code = EMAZEX | q = 0 | S = 0 | Stoichiometry = C16H25Cl3N4Pd | MND = 4
 OpenBabel04212202033D

 49 51  0  0  1  0  0  0  0  0999 V2000
   -1.4869    2.4666    7.6102 C   0  0  0  0  0  0  0  0  0  0  0  0
   -1.6040    2.3375    6.5302 H   0  0  0  0  0  0  0  0  0  0  0  0
   -1.6756    2.8330   11.1873 C   0  0  0  0  0  0  0  0  0  0  0  0
   -2.2183    1.9452   10.9305 H   0  0  0  0  0  0  0  0  0  0  0  0
   -1.8532    3.6869   12.2337 C   0  0  0  0  0  0  0  0  0  0  0  0
   -2.5600    3.6818   13.0368 H   0  0  0  0  0  0  0  0  0  0  0  0
   -0.7466    5.7939   12.9839 C   0  0  0  0  0  0  0  0  0  0  0  0
    0.2221    5.7596   13.4882 H   0  0  0  0  0  0  0  0  0  0  0  0
   -1.5313    5.7692   13.7372 H   0  0  0  0  0  0  0  0  0  0  0  0
   -0.8255    6.7291   12.4269 H   0  0  0  0  0  0  0  0  0  0  0  0
   -0.1893    4.3791   10.9954 C   0  0  2  0  0  3  0  0  0  0  0  0
    3.2645    2.6266    9.4497 C   0  0  0  0  0  0  0  0  0  0  0  0
    3.4509    1.7184    8.9106 H   0  0  0  0  0  0  0  0  0  0  0  0
    4.1229    3.4201   10.1511 C   0  0  0  0  0  0  0  0  0  0  0  0
    5.1719    3.3305   10.3428 H   0  0  0  0  0  0  0  0  0  0  0  0
    3.8978    5.5634   11.4118 C   0  0  0  0  0  0  0  0  0  0  0  0
    3.6987    6.5151   10.9161 H   0  0  0  0  0  0  0  0  0  0  0  0
    4.9737    5.4455   11.5238 H   0  0  0  0  0  0  0  0  0  0  0  0
    3.4430    5.5759   12.4052 H   0  0  0  0  0  0  0  0  0  0  0  0
    2.1146    4.2826   10.2054 C   0  0  1  0  0  3  0  0  0  0  0  0
    0.9534    5.1967   10.4672 C   0  0  1  0  0  0  0  0  0  0  0  0
    1.2394    5.9537   11.2031 H   0  0  0  0  0  0  0  0  0  0  0  0
    0.5222    5.8903    9.1503 C   0  0  0  0  0  0  0  0  0  0  0  0
    0.2359    5.0974    8.4240 H   0  0  0  0  0  0  0  0  0  0  0  0
   -0.3563    6.5096    9.3452 H   0  0  0  0  0  0  0  0  0  0  0  0
    1.6326    6.7317    8.5305 C   0  0  0  0  0  0  0  0  0  0  0  0
    2.5395    6.1286    8.4426 H   0  0  0  0  0  0  0  0  0  0  0  0
    1.8531    7.5950    9.1670 H   0  0  0  0  0  0  0  0  0  0  0  0
    1.2345    7.2069    7.1349 C   0  0  0  0  0  0  0  0  0  0  0  0
    1.0391    6.3311    6.5121 H   0  0  0  0  0  0  0  0  0  0  0  0
    0.3107    7.7869    7.1967 H   0  0  0  0  0  0  0  0  0  0  0  0
    2.3251    8.0553    6.4872 C   0  0  0  0  0  0  0  0  0  0  0  0
    3.2426    7.4668    6.4144 H   0  0  0  0  0  0  0  0  0  0  0  0
    2.5362    8.9237    7.1181 H   0  0  0  0  0  0  0  0  0  0  0  0
    1.9245    8.5318    5.0935 C   0  0  0  0  0  0  0  0  0  0  0  0
    1.7197    7.6633    4.4650 H   0  0  0  0  0  0  0  0  0  0  0  0
    1.0037    9.1155    5.1627 H   0  0  0  0  0  0  0  0  0  0  0  0
    3.0145    9.3794    4.4494 C   0  0  0  0  0  0  0  0  0  0  0  0
    3.2222   10.2606    5.0537 H   0  0  0  0  0  0  0  0  0  0  0  0
    2.7090    9.7075    3.4589 H   0  0  0  0  0  0  0  0  0  0  0  0
    3.9344    8.8070    4.3521 H   0  0  0  0  0  0  0  0  0  0  0  0
    1.2218    2.6311    6.5032 Cl  0  0  0  0  0  0  0  0  0  0  0  0
   -2.6128    3.7237    8.1142 Cl  0  0  0  0  0  0  0  0  0  0  0  0
   -1.8650    0.9281    8.3805 Cl  0  0  0  0  0  0  0  0  0  0  0  0
   -0.6411    3.2778   10.4306 N   0  0  0  0  0  0  0  0  0  0  0  0
    2.0255    3.1758    9.4999 N   0  0  0  0  0  0  0  0  0  0  0  0
    3.3880    4.4704   10.6308 N   0  0  0  0  0  0  0  0  0  0  0  0
   -0.9075    4.6671   12.1071 N   0  0  0  0  0  0  0  0  0  0  0  0
    0.2099    2.8332    8.4934 Pd  0  0  1  0  0  0  0  0  0  0  0  0
  1 43  1  0  0  0  0
  1 44  1  0  0  0  0
  1 49  1  0  0  0  0
  2  1  1  0  0  0  0
  3  5  2  0  0  0  0
  4  3  1  0  0  0  0
  5  6  1  0  0  0  0
  7  8  1  0  0  0  0
  7  9  1  0  0  0  0
 10  7  1  0  0  0  0
 11 45  1  6  0  0  0
 11 48  1  0  0  0  0
 12 46  1  0  0  0  0
 12 14  2  0  0  0  0
 13 12  1  0  0  0  0
 14 15  1  0  0  0  0
 14 47  1  0  0  0  0
 16 18  1  0  0  0  0
 16 19  1  0  0  0  0
 17 16  1  0  0  0  0
 20 46  1  6  0  0  0
 20 21  1  0  0  0  0
 20 47  1  0  0  0  0
 21 11  1  0  0  0  0
 21 22  1  1  0  0  0
 23 25  1  0  0  0  0
 23 21  1  0  0  0  0
 24 23  1  0  0  0  0
 26 23  1  0  0  0  0
 26 28  1  0  0  0  0
 27 26  1  0  0  0  0
 29 31  1  0  0  0  0
 29 26  1  0  0  0  0
 30 29  1  0  0  0  0
 32 34  1  0  0  0  0
 32 29  1  0  0  0  0
 33 32  1  0  0  0  0
 35 37  1  0  0  0  0
 35 32  1  0  0  0  0
 36 35  1  0  0  0  0
 38 39  1  0  0  0  0
 38 35  1  0  0  0  0
 40 38  1  0  0  0  0
 41 38  1  0  0  0  0
 45  3  1  0  0  0  0
 47 16  1  0  0  0  0
 48  5  1  0  0  0  0
 48  7  1  0  0  0  0
 49 42  1  6  0  0  0
 49 46  1  0  0  0  0
 49 45  1  0  0  0  0
M  END
$$$$
