CSD_code = EMEJUB | q = 0 | S = 0 | Stoichiometry = C20H22Cl2N2Ti | MND = 9
 OpenBabel04212202033D

 47 46  0  0  1  0  0  0  0  0999 V2000
   -3.1367    5.1647   10.1115 Ti  0  0  0  0  0  0  0  0  0  0  0  0
   -3.7109    5.2899   12.2348 Cl  0  0  0  0  0 15  0  0  0  0  0  0
   -5.1532    5.7825    9.4139 Cl  0  0  0  0  0 15  0  0  0  0  0  0
   -2.4530    6.8432    9.4644 N   0  0  0  0  0  0  0  0  0  0  0  0
   -0.7074    7.1644   11.0441 N   0  0  0  0  0  0  0  0  0  0  0  0
   -2.3549    2.9968   10.5808 C   0  0  0  0  0  0  0  0  0  0  0  0
   -3.5601    2.9256    9.7916 C   0  0  1  0  0  3  0  0  0  0  0  0
   -3.2799    3.5225    8.5222 C   0  0  0  0  0  0  0  0  0  0  0  0
   -3.9424    3.5186    7.6652 H   0  0  0  0  0  0  0  0  0  0  0  0
   -1.9295    3.9155    8.5234 C   0  0  0  0  0  0  0  0  0  0  0  0
   -1.3803    4.2825    7.6636 H   0  0  0  0  0  0  0  0  0  0  0  0
   -1.3662    3.6612    9.7933 C   0  0  0  0  0  0  0  0  0  0  0  0
   -0.3170    3.7506   10.0458 H   0  0  0  0  0  0  0  0  0  0  0  0
   -2.3249    2.4204   11.8641 C   0  0  0  0  0  0  0  0  0  0  0  0
   -1.4159    2.4478   12.4516 H   0  0  0  0  0  0  0  0  0  0  0  0
   -3.4607    1.8206   12.3449 C   0  0  0  0  0  0  0  0  0  0  0  0
   -3.4556    1.3716   13.3272 H   0  0  0  0  0  0  0  0  0  0  0  0
   -4.6460    1.7804   11.5889 C   0  0  0  0  0  0  0  0  0  0  0  0
   -5.5185    1.3070   12.0151 H   0  0  0  0  0  0  0  0  0  0  0  0
   -4.7120    2.3208   10.3290 C   0  0  0  0  0  0  0  0  0  0  0  0
   -5.6223    2.2706    9.7444 H   0  0  0  0  0  0  0  0  0  0  0  0
   -2.8304    8.0673    8.8988 C   0  0  0  0  0  0  0  0  0  0  0  0
   -3.4841    9.0291    9.6861 C   0  0  0  0  0  0  0  0  0  0  0  0
   -3.8788   10.2142    9.0839 C   0  0  0  0  0  0  0  0  0  0  0  0
   -4.3817   10.9635    9.6777 H   0  0  0  0  0  0  0  0  0  0  0  0
   -3.6524   10.4420    7.7376 C   0  0  0  0  0  0  0  0  0  0  0  0
   -3.9656   11.3724    7.2886 H   0  0  0  0  0  0  0  0  0  0  0  0
   -3.0498    9.4677    6.9613 C   0  0  0  0  0  0  0  0  0  0  0  0
   -2.9022    9.6332    5.9041 H   0  0  0  0  0  0  0  0  0  0  0  0
   -2.6440    8.2693    7.5257 C   0  0  0  0  0  0  0  0  0  0  0  0
   -1.6754    6.4945   10.4438 C   0  0  0  0  0  2  0  0  0  0  0  0
   -0.0094    6.5482   12.1511 C   0  0  0  0  0  0  0  0  0  0  0  0
    0.0215    7.2360   12.9986 H   0  0  0  0  0  0  0  0  0  0  0  0
    1.0177    6.2945   11.8712 H   0  0  0  0  0  0  0  0  0  0  0  0
   -0.5458    5.6456   12.4473 H   0  0  0  0  0  0  0  0  0  0  0  0
   -0.1978    8.4589   10.6320 C   0  0  0  0  0  0  0  0  0  0  0  0
    0.8625    8.3742   10.3793 H   0  0  0  0  0  0  0  0  0  0  0  0
   -0.3043    9.1857   11.4407 H   0  0  0  0  0  0  0  0  0  0  0  0
   -0.7448    8.8152    9.7615 H   0  0  0  0  0  0  0  0  0  0  0  0
   -3.7902    8.7435   11.1246 C   0  0  0  0  0  0  0  0  0  0  0  0
   -4.3832    9.5474   11.5531 H   0  0  0  0  0  0  0  0  0  0  0  0
   -2.8830    8.6263   11.7191 H   0  0  0  0  0  0  0  0  0  0  0  0
   -4.3562    7.8075   11.2015 H   0  0  0  0  0  0  0  0  0  0  0  0
   -2.0396    7.1685    6.7080 C   0  0  0  0  0  0  0  0  0  0  0  0
   -2.6925    6.2927    6.7564 H   0  0  0  0  0  0  0  0  0  0  0  0
   -1.0618    6.8856    7.1024 H   0  0  0  0  0  0  0  0  0  0  0  0
   -1.9281    7.4712    5.6702 H   0  0  0  0  0  0  0  0  0  0  0  0
  4  1  1  0  0  0  0
  4 31  1  0  0  0  0
  5 32  1  0  0  0  0
  6 14  1  0  0  0  0
  7  8  1  6  0  0  0
  7 20  1  0  0  0  0
  7  6  1  0  0  0  0
  8 10  2  0  0  0  0
  9  8  1  0  0  0  0
 10 12  1  0  0  0  0
 11 10  1  0  0  0  0
 12 13  1  0  0  0  0
 12  6  2  0  0  0  0
 14 16  2  0  0  0  0
 14 15  1  0  0  0  0
 16 17  1  0  0  0  0
 18 19  1  0  0  0  0
 18 16  1  0  0  0  0
 20 18  2  0  0  0  0
 21 20  1  0  0  0  0
 22  4  1  0  0  0  0
 22 23  1  0  0  0  0
 23 40  1  0  0  0  0
 24 25  1  0  0  0  0
 24 23  2  0  0  0  0
 26 24  1  0  0  0  0
 27 26  1  0  0  0  0
 28 30  1  0  0  0  0
 28 26  2  0  0  0  0
 29 28  1  0  0  0  0
 30 22  2  0  0  0  0
 31  5  1  0  0  0  0
 32 35  1  0  0  0  0
 32 33  1  0  0  0  0
 34 32  1  0  0  0  0
 36  5  1  0  0  0  0
 36 38  1  0  0  0  0
 37 36  1  0  0  0  0
 39 36  1  0  0  0  0
 40 43  1  0  0  0  0
 40 41  1  0  0  0  0
 40 42  1  0  0  0  0
 44 45  1  0  0  0  0
 44 46  1  0  0  0  0
 44 30  1  0  0  0  0
 47 44  1  0  0  0  0
M  END
$$$$
