CSD_code = EMEPOD | q = 0 | S = 0 | Stoichiometry = C23H28ClN3OPd | MND = 4
 OpenBabel04212202033D

 57 61  0  0  0  0  0  0  0  0999 V2000
    5.3407    0.2155    4.6576 Pd  0  0  1  0  0  0  0  0  0  0  0  0
    3.8914   -0.3965    6.2753 Cl  0  0  0  0  0  0  0  0  0  0  0  0
    4.0877   -0.2716    3.1631 O   0  0  0  0  0  0  0  0  0  0  0  0
    6.6673    0.9076    5.9678 N   0  0  0  0  0  0  0  0  0  0  0  0
    7.9710    0.2023    3.4003 N   0  0  0  0  0  0  0  0  0  0  0  0
    6.4629    0.5195    1.8839 N   0  0  0  0  0  0  0  0  0  0  0  0
    6.1989    1.6996    6.9377 C   0  0  0  0  0  3  0  0  0  0  0  0
    5.1225    1.6881    7.0797 H   0  0  0  0  0  0  0  0  0  0  0  0
    7.0259    2.4599    7.7448 C   0  0  0  0  0  0  0  0  0  0  0  0
    6.5988    3.0763    8.5191 H   0  0  0  0  0  0  0  0  0  0  0  0
    8.3958    2.4106    7.5416 C   0  0  0  0  0  0  0  0  0  0  0  0
    9.0722    2.9921    8.1481 H   0  0  0  0  0  0  0  0  0  0  0  0
    8.8811    1.5844    6.5380 C   0  0  0  0  0  0  0  0  0  0  0  0
    9.9422    1.5115    6.3552 H   0  0  0  0  0  0  0  0  0  0  0  0
    7.9965    0.8412    5.7738 C   0  0  0  0  0  0  0  0  0  0  0  0
    8.5102   -0.1043    4.7069 C   0  0  0  0  0  0  0  0  0  0  0  0
    9.6007   -0.0642    4.6605 H   0  0  0  0  0  0  0  0  0  0  0  0
    8.2015   -1.1285    4.9818 H   0  0  0  0  0  0  0  0  0  0  0  0
    8.6069    0.1311    2.1908 C   0  0  0  0  0  0  0  0  0  0  0  0
    9.6566   -0.0569    2.0954 H   0  0  0  0  0  0  0  0  0  0  0  0
    7.6602    0.3344    1.2395 C   0  0  0  0  0  0  0  0  0  0  0  0
    7.7548    0.3334    0.1741 H   0  0  0  0  0  0  0  0  0  0  0  0
    6.6577    0.4515    3.2100 C   0  0  0  0  0  0  0  0  0  0  0  0
    5.1964    0.7528    1.3044 C   0  0  0  0  0  0  0  0  0  0  0  0
    5.1186    1.3469    0.0508 C   0  0  0  0  0  0  0  0  0  0  0  0
    6.0367    1.5968   -0.4549 H   0  0  0  0  0  0  0  0  0  0  0  0
    3.8946    1.6328   -0.5177 C   0  0  0  0  0  0  0  0  0  0  0  0
    2.7559    1.3809    0.2532 C   0  0  0  0  0  0  0  0  0  0  0  0
    1.8022    1.6634   -0.1581 H   0  0  0  0  0  0  0  0  0  0  0  0
    2.7889    0.8200    1.5111 C   0  0  0  0  0  0  0  0  0  0  0  0
    4.0422    0.4136    2.0554 C   0  0  0  0  0  0  0  0  0  0  0  0
    3.7428    2.2421   -1.9027 C   0  0  0  0  0  0  0  0  0  0  0  0
    5.0855    2.4109   -2.6199 C   0  0  0  0  0  0  0  0  0  0  0  0
    5.5925    1.4544   -2.7266 H   0  0  0  0  0  0  0  0  0  0  0  0
    5.7326    3.1023   -2.0849 H   0  0  0  0  0  0  0  0  0  0  0  0
    4.9168    2.8149   -3.6162 H   0  0  0  0  0  0  0  0  0  0  0  0
    3.0880    3.6250   -1.7801 C   0  0  0  0  0  0  0  0  0  0  0  0
    3.6973    4.2754   -1.1559 H   0  0  0  0  0  0  0  0  0  0  0  0
    2.1003    3.5543   -1.3337 H   0  0  0  0  0  0  0  0  0  0  0  0
    2.9869    4.0825   -2.7623 H   0  0  0  0  0  0  0  0  0  0  0  0
    2.8599    1.3244   -2.7599 C   0  0  0  0  0  0  0  0  0  0  0  0
    2.7532    1.7336   -3.7626 H   0  0  0  0  0  0  0  0  0  0  0  0
    1.8687    1.2152   -2.3299 H   0  0  0  0  0  0  0  0  0  0  0  0
    3.3082    0.3359   -2.8351 H   0  0  0  0  0  0  0  0  0  0  0  0
    1.5438    0.6943    2.3802 C   0  0  0  0  0  0  0  0  0  0  0  0
    1.2928   -0.7730    2.7486 C   0  0  0  0  0  0  0  0  0  0  0  0
    2.1232   -1.1643    3.3275 H   0  0  0  0  0  0  0  0  0  0  0  0
    1.1788   -1.3737    1.8479 H   0  0  0  0  0  0  0  0  0  0  0  0
    0.3853   -0.8576    3.3426 H   0  0  0  0  0  0  0  0  0  0  0  0
    0.2843    1.2286    1.6891 C   0  0  0  0  0  0  0  0  0  0  0  0
    0.0569    0.6595    0.7901 H   0  0  0  0  0  0  0  0  0  0  0  0
    0.3878    2.2810    1.4328 H   0  0  0  0  0  0  0  0  0  0  0  0
   -0.5607    1.1320    2.3678 H   0  0  0  0  0  0  0  0  0  0  0  0
    1.7695    1.5285    3.6529 C   0  0  0  0  0  0  0  0  0  0  0  0
    0.9033    1.4526    4.3059 H   0  0  0  0  0  0  0  0  0  0  0  0
    1.9222    2.5754    3.3928 H   0  0  0  0  0  0  0  0  0  0  0  0
    2.6418    1.1771    4.2119 H   0  0  0  0  0  0  0  0  0  0  0  0
  1  4  1  0  0  0  0
  1  2  1  1  0  0  0
  3  1  1  0  0  0  0
  4  7  1  0  0  0  0
  5 16  1  0  0  0  0
  6 23  1  0  0  0  0
  7  8  1  0  0  0  0
  7  9  1  0  0  0  0
  9 10  1  0  0  0  0
 11  9  2  0  0  0  0
 11 12  1  0  0  0  0
 13 11  1  0  0  0  0
 14 13  1  0  0  0  0
 15  4  1  0  0  0  0
 15 13  2  0  0  0  0
 16 18  1  0  0  0  0
 16 15  1  0  0  0  0
 17 16  1  0  0  0  0
 19  5  1  0  0  0  0
 20 19  1  0  0  0  0
 21  6  1  0  0  0  0
 21 19  2  0  0  0  0
 22 21  1  0  0  0  0
 23  5  1  0  0  0  0
 23  1  2  0  0  0  0
 24  6  1  0  0  0  0
 24 31  1  0  0  0  0
 25 24  2  0  0  0  0
 26 25  1  0  0  0  0
 27 25  1  0  0  0  0
 27 28  2  0  0  0  0
 28 30  1  0  0  0  0
 29 28  1  0  0  0  0
 30 31  2  0  0  0  0
 30 45  1  0  0  0  0
 31  3  1  0  0  0  0
 32 37  1  0  0  0  0
 32 27  1  0  0  0  0
 33 35  1  0  0  0  0
 33 32  1  0  0  0  0
 34 33  1  0  0  0  0
 36 33  1  0  0  0  0
 37 39  1  0  0  0  0
 37 38  1  0  0  0  0
 40 37  1  0  0  0  0
 41 43  1  0  0  0  0
 41 32  1  0  0  0  0
 42 41  1  0  0  0  0
 44 41  1  0  0  0  0
 45 46  1  0  0  0  0
 45 54  1  0  0  0  0
 46 47  1  0  0  0  0
 46 49  1  0  0  0  0
 48 46  1  0  0  0  0
 50 53  1  0  0  0  0
 50 45  1  0  0  0  0
 51 50  1  0  0  0  0
 52 50  1  0  0  0  0
 54 57  1  0  0  0  0
 54 55  1  0  0  0  0
 56 54  1  0  0  0  0
M  END
$$$$
