CSD_code = EMIFOX | q = 0 | S = 0 | Stoichiometry = C15H10ClHgI2N3O | MND = 3
 OpenBabel04212202033D

 33 34  0  0  0  0  0  0  0  0999 V2000
    0.9721   -3.1793    2.7623 C   0  0  0  0  0  0  0  0  0  0  0  0
    1.4910   -4.0247    3.1911 H   0  0  0  0  0  0  0  0  0  0  0  0
    1.1409   -1.8944    3.2623 C   0  0  0  0  0  0  0  0  0  0  0  0
    1.8047   -1.6976    4.0924 H   0  0  0  0  0  0  0  0  0  0  0  0
   -0.3167   -1.1049    1.7104 C   0  0  0  0  0  0  0  0  0  0  0  0
   -0.8620   -0.2836    1.2644 H   0  0  0  0  0  0  0  0  0  0  0  0
   -0.4707   -2.3958    1.2045 C   0  0  0  0  0  0  0  0  0  0  0  0
   -1.3752   -2.6368    0.0283 C   0  0  0  0  0  0  0  0  0  0  0  0
   -2.1431   -4.5921   -1.2951 C   0  0  0  0  0  0  0  0  0  0  0  0
   -2.9347   -3.8792   -2.1686 C   0  0  0  0  0  0  0  0  0  0  0  0
   -3.0034   -2.8086   -2.0744 H   0  0  0  0  0  0  0  0  0  0  0  0
   -3.6527   -4.5258   -3.1754 C   0  0  0  0  0  0  0  0  0  0  0  0
   -4.2656   -3.9455   -3.8466 H   0  0  0  0  0  0  0  0  0  0  0  0
   -3.5795   -5.8862   -3.3086 C   0  0  0  0  0  0  0  0  0  0  0  0
   -2.7821   -6.6687   -2.4384 C   0  0  0  0  0  0  0  0  0  0  0  0
   -2.6976   -8.0706   -2.5614 C   0  0  0  0  0  0  0  0  0  0  0  0
   -3.2603   -8.5532   -3.3451 H   0  0  0  0  0  0  0  0  0  0  0  0
   -1.9231   -8.8092   -1.7123 C   0  0  0  0  0  0  0  0  0  0  0  0
   -1.8668   -9.8818   -1.8174 H   0  0  0  0  0  0  0  0  0  0  0  0
   -1.1973   -8.1713   -0.6998 C   0  0  0  0  0  0  0  0  0  0  0  0
   -0.5856   -8.7584   -0.0311 H   0  0  0  0  0  0  0  0  0  0  0  0
   -1.2583   -6.8121   -0.5540 C   0  0  0  0  0  0  0  0  0  0  0  0
   -0.6817   -6.3610    0.2411 H   0  0  0  0  0  0  0  0  0  0  0  0
   -2.0467   -6.0131   -1.4099 C   0  0  0  0  0  0  0  0  0  0  0  0
    0.1738   -3.4292    1.7407 N   0  0  0  0  0  0  0  0  0  0  0  0
    0.4899   -0.8564    2.7362 N   0  0  0  0  0  0  0  0  0  0  0  0
   -1.4263   -3.9521   -0.2877 N   0  0  0  0  0  0  0  0  0  0  0  0
   -0.8516   -4.5367    0.3099 H   0  0  0  0  0  0  0  0  0  0  0  0
   -1.9513   -1.7206   -0.5199 O   0  0  0  0  0  0  0  0  0  0  0  0
    0.8060    1.5499    3.6678 Hg  0  0  0  0  0  0  0  0  0  0  0  0
   -4.4845   -6.6498   -4.5671 Cl  0  0  0  0  0  0  0  0  0  0  0  0
   -1.3149    2.6725    2.6659 I   0  0  0  0  0  0  0  0  0  0  0  0
    3.0122    1.1120    4.9874 I   0  0  0  0  0  0  0  0  0  0  0  0
  1  2  1  0  0  0  0
  1  3  1  0  0  0  0
  3  4  1  0  0  0  0
  5 26  1  0  0  0  0
  6  5  1  0  0  0  0
  7  5  2  0  0  0  0
  7 25  1  0  0  0  0
  8  7  1  0  0  0  0
  9 27  1  0  0  0  0
 10 11  1  0  0  0  0
 10  9  2  0  0  0  0
 12 10  1  0  0  0  0
 13 12  1  0  0  0  0
 14 12  2  0  0  0  0
 14 15  1  0  0  0  0
 15 24  1  0  0  0  0
 16 15  2  0  0  0  0
 16 18  1  0  0  0  0
 17 16  1  0  0  0  0
 18 20  2  0  0  0  0
 19 18  1  0  0  0  0
 20 22  1  0  0  0  0
 20 21  1  0  0  0  0
 22 23  1  0  0  0  0
 24  9  1  0  0  0  0
 24 22  2  0  0  0  0
 25  1  2  0  0  0  0
 26  3  2  0  0  0  0
 27  8  1  0  0  0  0
 27 28  1  0  0  0  0
 29  8  2  0  0  0  0
 30 33  1  0  0  0  0
 31 14  1  0  0  0  0
 32 30  1  0  0  0  0
M  END
$$$$
