CSD_code = EMIJIV | q = 0 | S = 0 | Stoichiometry = C21H39ClNO2P2Rh | MND = 4
 OpenBabel04212202033D

 67 69  0  0  1  0  0  0  0  0999 V2000
    1.0754    6.5500    9.9813 Rh  0  0  2  0  0  0  0  0  0  0  0  0
    2.1273    6.0881   11.9237 Cl  0  0  0  0  0  0  0  0  0  0  0  0
    0.1761    6.9442    8.3306 N   0  0  0  0  0  0  0  0  0  0  0  0
    0.3651    8.1219    7.7053 C   0  0  2  0  0  3  0  0  0  0  0  0
   -0.2688    8.4417    6.5156 C   0  0  0  0  0  0  0  0  0  0  0  0
   -0.0771    9.4002    6.0635 H   0  0  0  0  0  0  0  0  0  0  0  0
   -1.1303    7.5183    5.9448 C   0  0  0  0  0  0  0  0  0  0  0  0
   -1.6369    7.7409    5.0203 H   0  0  0  0  0  0  0  0  0  0  0  0
   -1.3298    6.3040    6.5823 C   0  0  0  0  0  0  0  0  0  0  0  0
   -1.9876    5.5503    6.1836 H   0  0  0  0  0  0  0  0  0  0  0  0
   -0.6621    6.0517    7.7697 C   0  0  0  0  0  0  0  0  0  0  0  0
   -0.8590    4.8762    8.3890 O   0  0  0  0  0  0  0  0  0  0  0  0
    1.2029    9.0158    8.2557 O   0  0  0  0  0  0  0  0  0  0  0  0
    0.0211    4.5992    9.7809 P   0  0  0  0  0  4  0  0  0  0  0  0
    1.0023    3.0973    9.2156 C   0  0  0  0  0  0  0  0  0  0  0  0
    1.9087    2.6631   10.3645 C   0  0  0  0  0  0  0  0  0  0  0  0
    1.3568    2.1202   11.1264 H   0  0  0  0  0  0  0  0  0  0  0  0
    2.3672    3.5349   10.8312 H   0  0  0  0  0  0  0  0  0  0  0  0
    2.7007    2.0133    9.9944 H   0  0  0  0  0  0  0  0  0  0  0  0
    0.1588    1.9426    8.6904 C   0  0  0  0  0  0  0  0  0  0  0  0
   -0.6072    2.3052    8.0074 H   0  0  0  0  0  0  0  0  0  0  0  0
   -0.3193    1.4036    9.5045 H   0  0  0  0  0  0  0  0  0  0  0  0
    0.7939    1.2390    8.1524 H   0  0  0  0  0  0  0  0  0  0  0  0
    1.8755    3.6661    8.0911 C   0  0  0  0  0  0  0  0  0  0  0  0
    2.6250    2.9384    7.7837 H   0  0  0  0  0  0  0  0  0  0  0  0
    2.3934    4.5660    8.4430 H   0  0  0  0  0  0  0  0  0  0  0  0
    1.2745    3.9266    7.2200 H   0  0  0  0  0  0  0  0  0  0  0  0
   -1.4045    4.1868   10.9334 C   0  0  0  0  0  0  0  0  0  0  0  0
   -1.9734    5.5750   11.2514 C   0  0  0  0  0  0  0  0  0  0  0  0
   -2.7730    5.5049   11.9874 H   0  0  0  0  0  0  0  0  0  0  0  0
   -2.3761    6.0441   10.3523 H   0  0  0  0  0  0  0  0  0  0  0  0
   -1.1826    6.2123   11.6611 H   0  0  0  0  0  0  0  0  0  0  0  0
   -0.8357    3.5794   12.2116 C   0  0  0  0  0  0  0  0  0  0  0  0
   -1.5732    3.6279   13.0119 H   0  0  0  0  0  0  0  0  0  0  0  0
    0.0498    4.1317   12.5259 H   0  0  0  0  0  0  0  0  0  0  0  0
   -0.5663    2.5359   12.0668 H   0  0  0  0  0  0  0  0  0  0  0  0
   -2.4945    3.3111   10.3257 C   0  0  0  0  0  0  0  0  0  0  0  0
   -2.1676    2.2813   10.2170 H   0  0  0  0  0  0  0  0  0  0  0  0
   -2.7918    3.6867    9.3489 H   0  0  0  0  0  0  0  0  0  0  0  0
   -3.3691    3.3189   10.9758 H   0  0  0  0  0  0  0  0  0  0  0  0
    1.8831    8.6085    9.7255 P   0  0  0  0  0  4  0  0  0  0  0  0
    3.6903    8.8480    9.2709 C   0  0  0  0  0  0  0  0  0  0  0  0
    4.5197    8.8306   10.5509 C   0  0  0  0  0  0  0  0  0  0  0  0
    5.5664    8.6386   10.3182 H   0  0  0  0  0  0  0  0  0  0  0  0
    4.1652    8.0431   11.2156 H   0  0  0  0  0  0  0  0  0  0  0  0
    4.4616    9.7830   11.0722 H   0  0  0  0  0  0  0  0  0  0  0  0
    3.9848   10.0787    8.4208 C   0  0  0  0  0  0  0  0  0  0  0  0
    3.9186   10.9929    9.0029 H   0  0  0  0  0  0  0  0  0  0  0  0
    3.2906   10.1465    7.5860 H   0  0  0  0  0  0  0  0  0  0  0  0
    4.9958   10.0084    8.0202 H   0  0  0  0  0  0  0  0  0  0  0  0
    3.9909    7.5781    8.4654 C   0  0  0  0  0  0  0  0  0  0  0  0
    3.4021    7.5525    7.5472 H   0  0  0  0  0  0  0  0  0  0  0  0
    3.7504    6.6949    9.0668 H   0  0  0  0  0  0  0  0  0  0  0  0
    5.0452    7.5328    8.1963 H   0  0  0  0  0  0  0  0  0  0  0  0
    1.1688    9.9970   10.7740 C   0  0  0  0  0  0  0  0  0  0  0  0
    1.4315   11.4002   10.2418 C   0  0  0  0  0  0  0  0  0  0  0  0
    1.2385   11.4485    9.1718 H   0  0  0  0  0  0  0  0  0  0  0  0
    2.4574   11.7061   10.4301 H   0  0  0  0  0  0  0  0  0  0  0  0
    0.7745   12.1115   10.7419 H   0  0  0  0  0  0  0  0  0  0  0  0
    1.6794    9.8252   12.2021 C   0  0  0  0  0  0  0  0  0  0  0  0
    2.7063   10.1648   12.3034 H   0  0  0  0  0  0  0  0  0  0  0  0
    1.6362    8.7757   12.4928 H   0  0  0  0  0  0  0  0  0  0  0  0
    1.0644   10.4004   12.8932 H   0  0  0  0  0  0  0  0  0  0  0  0
   -0.3348    9.6979   10.7515 C   0  0  0  0  0  0  0  0  0  0  0  0
   -0.8613   10.3301   11.4648 H   0  0  0  0  0  0  0  0  0  0  0  0
   -0.5088    8.6507   11.0258 H   0  0  0  0  0  0  0  0  0  0  0  0
   -0.7560    9.8749    9.7620 H   0  0  0  0  0  0  0  0  0  0  0  0
  1  2  1  1  0  0  0
  3  1  1  0  0  0  0
  4  5  1  6  0  0  0
  4 13  1  0  0  0  0
  4  3  1  0  0  0  0
  6  5  1  0  0  0  0
  7  5  2  0  0  0  0
  7  9  1  0  0  0  0
  8  7  1  0  0  0  0
  9 11  2  0  0  0  0
 10  9  1  0  0  0  0
 11  3  1  0  0  0  0
 11 12  1  0  0  0  0
 12 14  1  0  0  0  0
 13 41  1  0  0  0  0
 14  1  1  0  0  0  0
 14 28  1  0  0  0  0
 15 14  1  0  0  0  0
 15 16  1  0  0  0  0
 16 18  1  0  0  0  0
 16 17  1  0  0  0  0
 19 16  1  0  0  0  0
 20 15  1  0  0  0  0
 20 22  1  0  0  0  0
 21 20  1  0  0  0  0
 23 20  1  0  0  0  0
 24 26  1  0  0  0  0
 24 15  1  0  0  0  0
 25 24  1  0  0  0  0
 27 24  1  0  0  0  0
 28 29  1  0  0  0  0
 28 33  1  0  0  0  0
 29 32  1  0  0  0  0
 29 30  1  0  0  0  0
 31 29  1  0  0  0  0
 33 35  1  0  0  0  0
 33 34  1  0  0  0  0
 36 33  1  0  0  0  0
 37 28  1  0  0  0  0
 37 40  1  0  0  0  0
 38 37  1  0  0  0  0
 39 37  1  0  0  0  0
 41  1  1  0  0  0  0
 41 55  1  0  0  0  0
 42 41  1  0  0  0  0
 42 43  1  0  0  0  0
 43 46  1  0  0  0  0
 43 45  1  0  0  0  0
 44 43  1  0  0  0  0
 47 48  1  0  0  0  0
 47 42  1  0  0  0  0
 49 47  1  0  0  0  0
 50 47  1  0  0  0  0
 51 53  1  0  0  0  0
 51 42  1  0  0  0  0
 52 51  1  0  0  0  0
 54 51  1  0  0  0  0
 55 60  1  0  0  0  0
 56 58  1  0  0  0  0
 56 59  1  0  0  0  0
 56 55  1  0  0  0  0
 57 56  1  0  0  0  0
 60 61  1  0  0  0  0
 60 62  1  0  0  0  0
 60 63  1  0  0  0  0
 64 55  1  0  0  0  0
 64 66  1  0  0  0  0
 64 65  1  0  0  0  0
 67 64  1  0  0  0  0
M  END
$$$$
