CSD_code = EMINUL | q = 0 | S = 0 | Stoichiometry = C15H10Br3HgN3O | MND = 3
 OpenBabel04212202033D

 33 34  0  0  0  0  0  0  0  0999 V2000
    4.5077    4.9948    4.9179 Hg  0  0  0  0  0  0  0  0  0  0  0  0
    3.0208    4.9939    2.9994 Br  0  0  0  0  0  0  0  0  0  0  0  0
    5.4857    4.9957    7.1518 Br  0  0  0  0  0  0  0  0  0  0  0  0
   11.3466    4.9945   -6.0288 Br  0  0  0  0  0  0  0  0  0  0  0  0
    7.0390    4.9942   -0.4933 O   0  0  0  0  0  0  0  0  0  0  0  0
    9.1684    4.9941    2.3363 N   0  0  0  0  0  0  0  0  0  0  0  0
    6.7314    4.9941    3.6634 N   0  0  0  0  0  0  0  0  0  0  0  0
    9.3332    4.9943   -0.2890 N   0  0  0  0  0  0  0  0  0  0  0  0
   10.0271    4.9942    0.4512 H   0  0  0  0  0  0  0  0  0  0  0  0
    9.1033    4.9940    3.6548 C   0  0  0  0  0  0  0  0  0  0  0  0
   10.0437    4.9940    4.1869 H   0  0  0  0  0  0  0  0  0  0  0  0
    7.8880    4.9940    4.3285 C   0  0  0  0  0  0  0  0  0  0  0  0
    7.8412    4.9940    5.4086 H   0  0  0  0  0  0  0  0  0  0  0  0
    6.7918    4.9941    2.3352 C   0  0  0  0  0  0  0  0  0  0  0  0
    5.8675    4.9941    1.7718 H   0  0  0  0  0  0  0  0  0  0  0  0
    8.0174    4.9941    1.6685 C   0  0  0  0  0  0  0  0  0  0  0  0
    8.0569    4.9942    0.1649 C   0  0  0  0  0  0  0  0  0  0  0  0
    9.8046    4.9943   -1.5982 C   0  0  0  0  0  0  0  0  0  0  0  0
    8.9349    4.9943   -2.6668 C   0  0  0  0  0  0  0  0  0  0  0  0
    7.8723    4.9943   -2.4932 H   0  0  0  0  0  0  0  0  0  0  0  0
    9.4144    4.9944   -3.9769 C   0  0  0  0  0  0  0  0  0  0  0  0
    8.7142    4.9944   -4.7976 H   0  0  0  0  0  0  0  0  0  0  0  0
   10.7611    4.9944   -4.2153 C   0  0  0  0  0  0  0  0  0  0  0  0
   11.7032    4.9944   -3.1598 C   0  0  0  0  0  0  0  0  0  0  0  0
   13.0940    4.9944   -3.3863 C   0  0  0  0  0  0  0  0  0  0  0  0
   13.4561    4.9944   -4.4029 H   0  0  0  0  0  0  0  0  0  0  0  0
   13.9813    4.9943   -2.3474 C   0  0  0  0  0  0  0  0  0  0  0  0
   15.0432    4.9944   -2.5384 H   0  0  0  0  0  0  0  0  0  0  0  0
   13.5104    4.9943   -1.0299 C   0  0  0  0  0  0  0  0  0  0  0  0
   14.2141    4.9943   -0.2111 H   0  0  0  0  0  0  0  0  0  0  0  0
   12.1661    4.9943   -0.7756 C   0  0  0  0  0  0  0  0  0  0  0  0
   11.8454    4.9943    0.2563 H   0  0  0  0  0  0  0  0  0  0  0  0
   11.2167    4.9943   -1.8199 C   0  0  0  0  0  0  0  0  0  0  0  0
  1  3  1  0  0  0  0
  2  1  1  0  0  0  0
  4 23  1  0  0  0  0
  5 17  2  0  0  0  0
  6 10  1  0  0  0  0
  7 12  1  0  0  0  0
  8 17  1  0  0  0  0
  8  9  1  0  0  0  0
 10 11  1  0  0  0  0
 10 12  2  0  0  0  0
 12 13  1  0  0  0  0
 14  7  2  0  0  0  0
 15 14  1  0  0  0  0
 16 14  1  0  0  0  0
 16  6  2  0  0  0  0
 17 16  1  0  0  0  0
 18  8  1  0  0  0  0
 19 20  1  0  0  0  0
 19 18  2  0  0  0  0
 21 19  1  0  0  0  0
 22 21  1  0  0  0  0
 23 21  2  0  0  0  0
 23 24  1  0  0  0  0
 24 33  1  0  0  0  0
 25 24  2  0  0  0  0
 25 27  1  0  0  0  0
 26 25  1  0  0  0  0
 27 29  2  0  0  0  0
 28 27  1  0  0  0  0
 29 31  1  0  0  0  0
 29 30  1  0  0  0  0
 31 32  1  0  0  0  0
 33 18  1  0  0  0  0
 33 31  2  0  0  0  0
M  END
$$$$
