CSD_code = EMOQUS | q = 0 | S = 0 | Stoichiometry = C29H23ClIrN3 | MND = 6
 OpenBabel04212202033D

 57 63  0  0  1  0  0  0  0  0999 V2000
    5.3399    7.7779    2.0146 Ir  0  0  0  0  0  0  0  0  0  0  0  0
    7.6651    8.5667    2.1821 Cl  0  0  0  0  0  0  0  0  0  0  0  0
    6.1708    5.9880    1.7013 N   0  0  0  0  0  0  0  0  0  0  0  0
    4.4897    9.5493    2.4006 N   0  0  0  0  0  0  0  0  0  0  0  0
    5.2693    8.4675   -0.1552 N   0  0  0  0  0  0  0  0  0  0  0  0
    5.4028    7.1208    3.9137 C   0  0  0  0  0  0  0  0  0  0  0  0
    4.9696    7.7623    5.0682 C   0  0  0  0  0  0  0  0  0  0  0  0
    5.1470    7.1870    6.3150 C   0  0  0  0  0  0  0  0  0  0  0  0
    5.7639    5.9509    6.4384 C   0  0  0  0  0  0  0  0  0  0  0  0
    6.2091    5.2920    5.3118 C   0  0  0  0  0  0  0  0  0  0  0  0
    6.0340    5.8672    4.0530 C   0  0  0  0  0  0  0  0  0  0  0  0
    6.4856    5.2694    2.8074 C   0  0  2  0  0  3  0  0  0  0  0  0
    7.2028    4.0778    2.7024 C   0  0  0  0  0  0  0  0  0  0  0  0
    7.6003    3.6166    1.4642 C   0  0  0  0  0  0  0  0  0  0  0  0
    7.2684    4.3624    0.3407 C   0  0  0  0  0  0  0  0  0  0  0  0
    6.5584    5.5339    0.5105 C   0  0  0  0  0  0  0  0  0  0  0  0
    3.4015    7.2314    1.9408 C   0  0  0  0  0  0  0  0  0  0  0  0
    2.8555    5.9746    1.6992 C   0  0  0  0  0  0  0  0  0  0  0  0
    1.4865    5.7881    1.6023 C   0  0  0  0  0  0  0  0  0  0  0  0
    0.6208    6.8622    1.7470 C   0  0  0  0  0  0  0  0  0  0  0  0
    1.1273    8.1214    1.9957 C   0  0  0  0  0  0  0  0  0  0  0  0
    2.5051    8.3115    2.0956 C   0  0  0  0  0  0  0  0  0  0  0  0
    3.1360    9.5968    2.3586 C   0  0  1  0  0  3  0  0  0  0  0  0
    2.4635   10.8004    2.5634 C   0  0  0  0  0  0  0  0  0  0  0  0
    3.1781   11.9554    2.8153 C   0  0  0  0  0  0  0  0  0  0  0  0
    4.5639   11.8860    2.8593 C   0  0  0  0  0  0  0  0  0  0  0  0
    5.1738   10.6644    2.6476 C   0  0  0  0  0  0  0  0  0  0  0  0
    4.2578    8.1925   -0.9762 C   0  0  0  0  0  3  0  0  0  0  0  0
    4.1380    8.7475   -2.2335 C   0  0  0  0  0  0  0  0  0  0  0  0
    5.1054    9.6463   -2.6935 C   0  0  0  0  0  0  0  0  0  0  0  0
    6.1682    9.9114   -1.8283 C   0  0  0  0  0  0  0  0  0  0  0  0
    6.2065    9.3077   -0.5866 C   0  0  0  0  0  0  0  0  0  0  0  0
    4.9669   10.2400   -4.0164 C   0  0  0  0  0  0  0  0  0  0  0  0
    5.7222   11.2091   -4.5195 C   0  0  0  0  0  0  0  0  0  0  0  0
    4.4861    8.7278    5.0055 H   0  0  0  0  0  0  0  0  0  0  0  0
    4.8030    7.7055    7.1991 H   0  0  0  0  0  0  0  0  0  0  0  0
    5.8996    5.5077    7.4142 H   0  0  0  0  0  0  0  0  0  0  0  0
    6.6941    4.3323    5.4142 H   0  0  0  0  0  0  0  0  0  0  0  0
    7.4544    3.5266    3.5937 H   0  0  0  0  0  0  0  0  0  0  0  0
    8.1617    2.6992    1.3716 H   0  0  0  0  0  0  0  0  0  0  0  0
    7.5606    4.0460   -0.6479 H   0  0  0  0  0  0  0  0  0  0  0  0
    6.2932    6.1374   -0.3473 H   0  0  0  0  0  0  0  0  0  0  0  0
    3.5069    5.1181    1.5836 H   0  0  0  0  0  0  0  0  0  0  0  0
    1.0891    4.8005    1.4133 H   0  0  0  0  0  0  0  0  0  0  0  0
   -0.4463    6.7130    1.6689 H   0  0  0  0  0  0  0  0  0  0  0  0
    0.4474    8.9532    2.1102 H   0  0  0  0  0  0  0  0  0  0  0  0
    1.3863   10.8258    2.5280 H   0  0  0  0  0  0  0  0  0  0  0  0
    2.6664   12.8923    2.9778 H   0  0  0  0  0  0  0  0  0  0  0  0
    5.1622   12.7607    3.0571 H   0  0  0  0  0  0  0  0  0  0  0  0
    6.2508   10.5608    2.6784 H   0  0  0  0  0  0  0  0  0  0  0  0
    3.5153    7.4981   -0.6073 H   0  0  0  0  0  0  0  0  0  0  0  0
    3.2942    8.4882   -2.8553 H   0  0  0  0  0  0  0  0  0  0  0  0
    6.9670   10.5758   -2.1147 H   0  0  0  0  0  0  0  0  0  0  0  0
    7.0266    9.4821    0.0994 H   0  0  0  0  0  0  0  0  0  0  0  0
    4.1543    9.8371   -4.6085 H   0  0  0  0  0  0  0  0  0  0  0  0
    6.5335   11.6580   -3.9725 H   0  0  0  0  0  0  0  0  0  0  0  0
    5.5480   11.5972   -5.5082 H   0  0  0  0  0  0  0  0  0  0  0  0
  1  2  1  0  0  0  0
  1  4  1  0  0  0  0
  1  6  1  0  0  0  0
  3  1  1  0  0  0  0
  3 12  1  0  0  0  0
  4 27  1  0  0  0  0
  5  1  1  0  0  0  0
  6 11  2  0  0  0  0
  6  7  1  0  0  0  0
  7  8  2  0  0  0  0
  8  9  1  0  0  0  0
  8 36  1  0  0  0  0
  9 37  1  0  0  0  0
 10 38  1  0  0  0  0
 10  9  2  0  0  0  0
 11 10  1  0  0  0  0
 12 13  1  1  0  0  0
 12 11  1  0  0  0  0
 13 39  1  0  0  0  0
 14 13  2  0  0  0  0
 15 16  2  0  0  0  0
 15 14  1  0  0  0  0
 16  3  1  0  0  0  0
 17  1  1  0  0  0  0
 17 22  1  0  0  0  0
 18 17  2  0  0  0  0
 19 18  1  0  0  0  0
 19 20  2  0  0  0  0
 20 21  1  0  0  0  0
 21 22  2  0  0  0  0
 21 46  1  0  0  0  0
 23 22  1  1  0  0  0
 23  4  1  0  0  0  0
 23 24  1  0  0  0  0
 24 25  2  0  0  0  0
 25 26  1  0  0  0  0
 25 48  1  0  0  0  0
 26 49  1  0  0  0  0
 27 50  1  0  0  0  0
 27 26  2  0  0  0  0
 28 51  1  0  0  0  0
 28  5  1  0  0  0  0
 29 28  1  0  0  0  0
 30 29  2  0  0  0  0
 30 31  1  0  0  0  0
 31 32  2  0  0  0  0
 32  5  1  0  0  0  0
 32 54  1  0  0  0  0
 33 30  1  0  0  0  0
 34 33  2  0  0  0  0
 34 56  1  0  0  0  0
 35  7  1  0  0  0  0
 40 14  1  0  0  0  0
 41 15  1  0  0  0  0
 42 16  1  0  0  0  0
 43 18  1  0  0  0  0
 44 19  1  0  0  0  0
 45 20  1  0  0  0  0
 47 24  1  0  0  0  0
 52 29  1  0  0  0  0
 53 31  1  0  0  0  0
 55 33  1  0  0  0  0
 57 34  1  0  0  0  0
M  END
$$$$
