CSD_code = EMOZIQ | q = 0 | S = 0 | Stoichiometry = C15H25I2N5O2Pt | MND = 4
 OpenBabel04212202033D

 50 52  0  0  0  0  0  0  0  0999 V2000
    3.1587    0.2155    1.9663 Pt  0  0  0  0  0  0  0  0  0  0  0  0
    2.7375   -0.1042   -0.6045 I   0  0  0  0  0  0  0  0  0  0  0  0
    3.3952    0.5215    4.5659 I   0  0  0  0  0  0  0  0  0  0  0  0
   -1.4745    6.2483    1.9048 O   0  0  0  0  0  0  0  0  0  0  0  0
    3.0255    6.1766    1.2789 O   0  0  0  0  0  0  0  0  0  0  0  0
    0.7620    6.1827    1.5948 N   0  0  0  0  0  0  0  0  0  0  0  0
   -0.4900    4.2078    2.0002 N   0  0  0  0  0  0  0  0  0  0  0  0
    0.9332    2.1755    2.0336 N   0  0  0  0  0  0  0  0  0  0  0  0
    2.8476    3.1501    1.6532 N   0  0  0  0  0  0  0  0  0  0  0  0
    4.1154   -1.7050    2.0831 N   0  0  0  0  0  4  0  0  0  0  0  0
    4.2241   -1.9512    3.0725 H   0  0  0  0  0  0  0  0  0  0  0  0
    3.5352   -2.4332    1.6563 H   0  0  0  0  0  0  0  0  0  0  0  0
   -0.4606    5.5932    1.8360 C   0  0  0  0  0  0  0  0  0  0  0  0
    0.6769    3.5117    1.9153 C   0  0  0  0  0  0  0  0  0  0  0  0
    2.2714    1.9683    1.8715 C   0  0  0  0  0  0  0  0  0  0  0  0
    1.8835    4.1358    1.6735 C   0  0  0  0  0  0  0  0  0  0  0  0
    2.0054    5.5551    1.4929 C   0  0  0  0  0  0  0  0  0  0  0  0
    0.7243    7.6281    1.4331 C   0  0  0  0  0  0  0  0  0  0  0  0
    0.2981    8.0867    2.3244 H   0  0  0  0  0  0  0  0  0  0  0  0
    0.1043    7.8877    0.5758 H   0  0  0  0  0  0  0  0  0  0  0  0
    1.7457    7.9677    1.2799 H   0  0  0  0  0  0  0  0  0  0  0  0
   -1.7803    3.5985    2.2567 C   0  0  0  0  0  0  0  0  0  0  0  0
   -2.5081    4.4089    2.2852 H   0  0  0  0  0  0  0  0  0  0  0  0
   -1.7817    3.0859    3.2171 H   0  0  0  0  0  0  0  0  0  0  0  0
   -2.0490    2.9095    1.4574 H   0  0  0  0  0  0  0  0  0  0  0  0
    0.0323    1.0763    2.2874 C   0  0  0  0  0  0  0  0  0  0  0  0
   -0.4432    1.1734    3.2626 H   0  0  0  0  0  0  0  0  0  0  0  0
    0.6354    0.1595    2.2856 H   0  0  0  0  0  0  0  0  0  0  0  0
   -0.7207    0.9950    1.5051 H   0  0  0  0  0  0  0  0  0  0  0  0
    4.2573    3.3485    1.4319 C   0  0  0  0  0  0  0  0  0  0  0  0
    4.8211    2.9830    2.2938 H   0  0  0  0  0  0  0  0  0  0  0  0
    4.4440    4.4114    1.2988 H   0  0  0  0  0  0  0  0  0  0  0  0
    4.5706    2.8076    0.5355 H   0  0  0  0  0  0  0  0  0  0  0  0
    5.4478   -1.7197    1.4541 C   0  0  0  0  0  0  0  0  0  0  0  0
    5.3059   -1.6560    0.3683 H   0  0  0  0  0  0  0  0  0  0  0  0
    6.2411   -0.4977    1.9180 C   0  0  0  0  0  0  0  0  0  0  0  0
    6.3719   -0.5370    3.0027 H   0  0  0  0  0  0  0  0  0  0  0  0
    5.6766    0.4150    1.6705 H   0  0  0  0  0  0  0  0  0  0  0  0
    7.6053   -0.4640    1.2399 C   0  0  0  0  0  0  0  0  0  0  0  0
    7.4719   -0.3713    0.1597 H   0  0  0  0  0  0  0  0  0  0  0  0
    8.1672    0.4057    1.5848 H   0  0  0  0  0  0  0  0  0  0  0  0
    8.3793   -1.7423    1.5493 C   0  0  0  0  0  0  0  0  0  0  0  0
    9.3453   -1.7222    1.0425 H   0  0  0  0  0  0  0  0  0  0  0  0
    8.5666   -1.8017    2.6240 H   0  0  0  0  0  0  0  0  0  0  0  0
    7.5882   -2.9689    1.1034 C   0  0  0  0  0  0  0  0  0  0  0  0
    8.1390   -3.8786    1.3491 H   0  0  0  0  0  0  0  0  0  0  0  0
    7.4548   -2.9407    0.0196 H   0  0  0  0  0  0  0  0  0  0  0  0
    6.2189   -2.9995    1.7780 C   0  0  0  0  0  0  0  0  0  0  0  0
    6.3499   -3.0811    2.8613 H   0  0  0  0  0  0  0  0  0  0  0  0
    5.6567   -3.8735    1.4373 H   0  0  0  0  0  0  0  0  0  0  0  0
  1 10  1  0  0  0  0
  1  3  1  0  0  0  0
  2  1  1  0  0  0  0
  5 17  2  0  0  0  0
  6 13  1  0  0  0  0
  7 22  1  0  0  0  0
  8 26  1  0  0  0  0
  9 16  1  0  0  0  0
  9 15  1  0  0  0  0
 10 11  1  0  0  0  0
 12 10  1  0  0  0  0
 13  4  2  0  0  0  0
 13  7  1  0  0  0  0
 14  7  1  0  0  0  0
 14  8  1  0  0  0  0
 15  1  2  0  0  0  0
 15  8  1  0  0  0  0
 16 14  2  0  0  0  0
 17  6  1  0  0  0  0
 17 16  1  0  0  0  0
 18  6  1  0  0  0  0
 18 19  1  0  0  0  0
 20 18  1  0  0  0  0
 21 18  1  0  0  0  0
 22 23  1  0  0  0  0
 22 24  1  0  0  0  0
 25 22  1  0  0  0  0
 26 27  1  0  0  0  0
 28 26  1  0  0  0  0
 29 26  1  0  0  0  0
 30  9  1  0  0  0  0
 30 31  1  0  0  0  0
 32 30  1  0  0  0  0
 33 30  1  0  0  0  0
 34 48  1  0  0  0  0
 34 36  1  0  0  0  0
 34 10  1  0  0  0  0
 35 34  1  0  0  0  0
 36 37  1  0  0  0  0
 38 36  1  0  0  0  0
 39 42  1  0  0  0  0
 39 41  1  0  0  0  0
 39 36  1  0  0  0  0
 40 39  1  0  0  0  0
 42 44  1  0  0  0  0
 43 42  1  0  0  0  0
 45 46  1  0  0  0  0
 45 42  1  0  0  0  0
 45 48  1  0  0  0  0
 47 45  1  0  0  0  0
 48 49  1  0  0  0  0
 50 48  1  0  0  0  0
M  END
$$$$
