CSD_code = EMUKOM | q = 0 | S = 0 | Stoichiometry = C7H11AuClN | MND = 2
 OpenBabel04212202033D

 21 21  0  0  0  0  0  0  0  0999 V2000
    0.2855   21.3230    1.6458 Au  0  0  0  0  0  0  0  0  0  0  0  0
   -1.5049   20.0541    1.4123 Cl  0  0  0  0  0  0  0  0  0  0  0  0
    2.7468   23.0567    1.9769 N   0  0  0  0  0  2  0  0  0  0  0  0
    1.8003   22.4012    1.8452 C   0  0  0  0  0  0  0  0  0  0  0  0
    3.8437   23.9126    2.1089 C   0  0  0  0  0  0  0  0  0  0  0  0
    4.6767   23.3133    2.4982 H   0  0  0  0  0  0  0  0  0  0  0  0
    4.2208   24.4914    0.7403 C   0  0  0  0  0  0  0  0  0  0  0  0
    3.3653   25.0385    0.3385 H   0  0  0  0  0  0  0  0  0  0  0  0
    4.4588   23.6805    0.0494 H   0  0  0  0  0  0  0  0  0  0  0  0
    5.4135   25.4311    0.8903 C   0  0  0  0  0  0  0  0  0  0  0  0
    6.2796   24.8677    1.2451 H   0  0  0  0  0  0  0  0  0  0  0  0
    5.6658   25.8519   -0.0840 H   0  0  0  0  0  0  0  0  0  0  0  0
    5.0946   26.5509    1.8764 C   0  0  0  0  0  0  0  0  0  0  0  0
    5.9612   27.2040    1.9868 H   0  0  0  0  0  0  0  0  0  0  0  0
    4.2698   27.1525    1.4887 H   0  0  0  0  0  0  0  0  0  0  0  0
    4.7071   25.9726    3.2342 C   0  0  0  0  0  0  0  0  0  0  0  0
    4.4572   26.7782    3.9259 H   0  0  0  0  0  0  0  0  0  0  0  0
    5.5540   25.4239    3.6525 H   0  0  0  0  0  0  0  0  0  0  0  0
    3.5105   25.0359    3.0975 C   0  0  0  0  0  0  0  0  0  0  0  0
    3.2482   24.6083    4.0669 H   0  0  0  0  0  0  0  0  0  0  0  0
    2.6456   25.5900    2.7265 H   0  0  0  0  0  0  0  0  0  0  0  0
  1  4  3  0  0  0  0
  2  1  1  0  0  0  0
  3  5  1  0  0  0  0
  4  3  1  0  0  0  0
  5  6  1  0  0  0  0
  5 19  1  0  0  0  0
  7 10  1  0  0  0  0
  7  5  1  0  0  0  0
  8  7  1  0  0  0  0
  9  7  1  0  0  0  0
 10 11  1  0  0  0  0
 10 13  1  0  0  0  0
 12 10  1  0  0  0  0
 13 14  1  0  0  0  0
 13 16  1  0  0  0  0
 15 13  1  0  0  0  0
 16 18  1  0  0  0  0
 16 17  1  0  0  0  0
 19 16  1  0  0  0  0
 19 20  1  0  0  0  0
 21 19  1  0  0  0  0
M  END
$$$$
