CSD_code = EMUPUZ | q = 0 | S = 0 | Stoichiometry = C24H39HgINPSe | MND = 3
 OpenBabel04212202033D

 68 71  0  0  0  0  0  0  0  0999 V2000
    0.3435    1.3770    4.2667 I   0  0  0  0  0  0  0  0  0  0  0  0
    1.9020    5.8778    3.2834 Se  0  0  0  0  0  0  0  0  0  0  0  0
   -2.4387    4.2280    3.0349 P   0  0  0  0  0  4  0  0  0  0  0  0
   -3.5198    4.3216    4.5464 C   0  0  0  0  0  0  0  0  0  0  0  0
   -4.5547    4.5065    4.2360 H   0  0  0  0  0  0  0  0  0  0  0  0
   -4.4245    6.1320    2.1335 C   0  0  0  0  0  0  0  0  0  0  0  0
   -4.4481    6.6255    3.1066 H   0  0  0  0  0  0  0  0  0  0  0  0
   -5.1738    5.3376    2.1322 H   0  0  0  0  0  0  0  0  0  0  0  0
   -3.0320    5.5631    1.8676 C   0  0  0  0  0  0  0  0  0  0  0  0
   -3.0333    5.0849    0.8786 H   0  0  0  0  0  0  0  0  0  0  0  0
   -2.9140    2.6412    2.1954 C   0  0  0  0  0  0  0  0  0  0  0  0
   -2.6605    1.8596    2.9249 H   0  0  0  0  0  0  0  0  0  0  0  0
   -4.7721    7.1613    1.0582 C   0  0  0  0  0  0  0  0  0  0  0  0
   -4.7951    6.6743    0.0801 H   0  0  0  0  0  0  0  0  0  0  0  0
   -5.7676    7.5662    1.2522 H   0  0  0  0  0  0  0  0  0  0  0  0
   -1.9970    6.6897    1.8424 C   0  0  0  0  0  0  0  0  0  0  0  0
   -1.9555    7.1758    2.8201 H   0  0  0  0  0  0  0  0  0  0  0  0
   -1.0052    6.2718    1.6357 H   0  0  0  0  0  0  0  0  0  0  0  0
   -3.7437    8.2881    1.0390 C   0  0  0  0  0  0  0  0  0  0  0  0
   -3.7503    8.8060    2.0009 H   0  0  0  0  0  0  0  0  0  0  0  0
   -4.0028    9.0133    0.2654 H   0  0  0  0  0  0  0  0  0  0  0  0
   -2.3499    7.7255    0.7820 C   0  0  0  0  0  0  0  0  0  0  0  0
   -1.6114    8.5282    0.8005 H   0  0  0  0  0  0  0  0  0  0  0  0
   -2.3197    7.2611   -0.2068 H   0  0  0  0  0  0  0  0  0  0  0  0
   -3.4549    3.0271    5.3582 C   0  0  0  0  0  0  0  0  0  0  0  0
   -3.8382    2.1869    4.7777 H   0  0  0  0  0  0  0  0  0  0  0  0
   -2.4135    2.8104    5.6152 H   0  0  0  0  0  0  0  0  0  0  0  0
   -3.0182    5.4872    5.4020 C   0  0  0  0  0  0  0  0  0  0  0  0
   -1.9717    5.2937    5.6696 H   0  0  0  0  0  0  0  0  0  0  0  0
   -3.0426    6.4215    4.8356 H   0  0  0  0  0  0  0  0  0  0  0  0
   -4.6320    1.1093    1.2450 C   0  0  0  0  0  0  0  0  0  0  0  0
   -4.4154    0.3635    2.0130 H   0  0  0  0  0  0  0  0  0  0  0  0
   -5.6825    1.0071    0.9643 H   0  0  0  0  0  0  0  0  0  0  0  0
   -4.2749    3.1615    6.6393 C   0  0  0  0  0  0  0  0  0  0  0  0
   -5.3254    3.3196    6.3810 H   0  0  0  0  0  0  0  0  0  0  0  0
   -4.2065    2.2341    7.2102 H   0  0  0  0  0  0  0  0  0  0  0  0
   -3.7415    0.8571    0.0317 C   0  0  0  0  0  0  0  0  0  0  0  0
   -3.9133   -0.1509   -0.3491 H   0  0  0  0  0  0  0  0  0  0  0  0
   -4.0017    1.5624   -0.7617 H   0  0  0  0  0  0  0  0  0  0  0  0
   -3.8410    5.6240    6.6781 C   0  0  0  0  0  0  0  0  0  0  0  0
   -4.8794    5.8454    6.4186 H   0  0  0  0  0  0  0  0  0  0  0  0
   -3.4605    6.4559    7.2744 H   0  0  0  0  0  0  0  0  0  0  0  0
   -4.3863    2.5062    1.8141 C   0  0  0  0  0  0  0  0  0  0  0  0
   -5.0272    2.6656    2.6839 H   0  0  0  0  0  0  0  0  0  0  0  0
   -4.6453    3.2503    1.0575 H   0  0  0  0  0  0  0  0  0  0  0  0
   -2.0266    2.4216    0.9680 C   0  0  0  0  0  0  0  0  0  0  0  0
   -2.2466    3.1673    0.1996 H   0  0  0  0  0  0  0  0  0  0  0  0
   -0.9701    2.5328    1.2446 H   0  0  0  0  0  0  0  0  0  0  0  0
   -2.2702    1.0272    0.3997 C   0  0  0  0  0  0  0  0  0  0  0  0
   -1.6446    0.8732   -0.4812 H   0  0  0  0  0  0  0  0  0  0  0  0
   -1.9884    0.2814    1.1456 H   0  0  0  0  0  0  0  0  0  0  0  0
   -3.7807    4.3307    7.4839 C   0  0  0  0  0  0  0  0  0  0  0  0
   -2.7498    4.1433    7.7925 H   0  0  0  0  0  0  0  0  0  0  0  0
   -4.3885    4.4231    8.3858 H   0  0  0  0  0  0  0  0  0  0  0  0
    0.7995    7.4154    3.6546 C   0  0  0  0  0  0  0  0  0  0  0  0
   -0.0022    9.5771    2.9990 C   0  0  0  0  0  0  0  0  0  0  0  0
   -0.0115   10.3998    2.2977 H   0  0  0  0  0  0  0  0  0  0  0  0
    0.7862    8.4726    2.7549 C   0  0  0  0  0  0  0  0  0  0  0  0
    1.3944    8.4221    1.8631 H   0  0  0  0  0  0  0  0  0  0  0  0
    0.0434    7.4902    4.8160 C   0  0  0  0  0  0  0  0  0  0  0  0
    0.0872    6.6873    5.5442 H   0  0  0  0  0  0  0  0  0  0  0  0
   -0.7555    8.5892    5.0540 C   0  0  0  0  0  0  0  0  0  0  0  0
   -1.3515    8.6381    5.9551 H   0  0  0  0  0  0  0  0  0  0  0  0
   -1.6668   10.7039    4.3349 N   0  0  0  0  0  0  0  0  0  0  0  0
   -0.7980    9.6469    4.1439 C   0  0  0  0  0  0  0  0  0  0  0  0
    0.3039    3.9926    3.7224 Hg  0  0  0  0  0  0  0  0  0  0  0  0
   -1.9681   10.8633    5.2833 H   0  0  0  0  0  0  0  0  0  0  0  0
   -1.4523   11.5466    3.8256 H   0  0  0  0  0  0  0  0  0  0  0  0
  2 55  1  0  0  0  0
  2 66  1  0  0  0  0
  3 66  1  0  0  0  0
  3  4  1  0  0  0  0
  4 25  1  0  0  0  0
  4 28  1  0  0  0  0
  5  4  1  0  0  0  0
  6  7  1  0  0  0  0
  8  6  1  0  0  0  0
  9  6  1  0  0  0  0
  9  3  1  0  0  0  0
 10  9  1  0  0  0  0
 11 12  1  0  0  0  0
 11  3  1  0  0  0  0
 13 15  1  0  0  0  0
 13  6  1  0  0  0  0
 14 13  1  0  0  0  0
 16  9  1  0  0  0  0
 16 17  1  0  0  0  0
 18 16  1  0  0  0  0
 19 13  1  0  0  0  0
 19 20  1  0  0  0  0
 21 19  1  0  0  0  0
 22 23  1  0  0  0  0
 22 19  1  0  0  0  0
 22 16  1  0  0  0  0
 24 22  1  0  0  0  0
 25 27  1  0  0  0  0
 25 34  1  0  0  0  0
 26 25  1  0  0  0  0
 28 29  1  0  0  0  0
 28 40  1  0  0  0  0
 30 28  1  0  0  0  0
 31 43  1  0  0  0  0
 31 32  1  0  0  0  0
 33 31  1  0  0  0  0
 34 36  1  0  0  0  0
 34 52  1  0  0  0  0
 35 34  1  0  0  0  0
 37 49  1  0  0  0  0
 37 31  1  0  0  0  0
 38 37  1  0  0  0  0
 39 37  1  0  0  0  0
 40 42  1  0  0  0  0
 40 52  1  0  0  0  0
 41 40  1  0  0  0  0
 43 11  1  0  0  0  0
 43 44  1  0  0  0  0
 45 43  1  0  0  0  0
 46 48  1  0  0  0  0
 46 11  1  0  0  0  0
 47 46  1  0  0  0  0
 49 46  1  0  0  0  0
 49 51  1  0  0  0  0
 50 49  1  0  0  0  0
 52 53  1  0  0  0  0
 52 54  1  0  0  0  0
 55 60  1  0  0  0  0
 56 65  2  0  0  0  0
 57 56  1  0  0  0  0
 58 56  1  0  0  0  0
 58 55  2  0  0  0  0
 59 58  1  0  0  0  0
 60 62  2  0  0  0  0
 60 61  1  0  0  0  0
 62 63  1  0  0  0  0
 64 67  1  0  0  0  0
 65 64  1  0  0  0  0
 65 62  1  0  0  0  0
 66  1  1  0  0  0  0
 68 64  1  0  0  0  0
M  END
$$$$
