CSD_code = EMUPOT | q = 0 | S = 0 | Stoichiometry = C24H39BrHgNPSe | MND = 3
 OpenBabel04212202033D

 68 70  0  0  0  0  0  0  0  0999 V2000
    4.9579    7.6427    3.8070 Hg  0  0  0  0  0  0  0  0  0  0  0  0
    6.6534    5.7869    3.5047 Se  0  0  0  0  0  0  0  0  0  0  0  0
    2.2176    7.3682    3.0880 P   0  0  0  0  0  0  0  0  0  0  0  0
    4.7956   10.1125    4.2363 Br  0  0  0  0  0  0  0  0  0  0  0  0
    1.7276    8.9468    2.2434 C   0  0  0  0  0  0  0  0  0  0  0  0
    1.9738    9.7337    2.9691 H   0  0  0  0  0  0  0  0  0  0  0  0
    1.1521    7.2718    4.6109 C   0  0  0  0  0  0  0  0  0  0  0  0
    0.1169    7.0645    4.3167 H   0  0  0  0  0  0  0  0  0  0  0  0
    1.6312    6.0226    1.9280 C   0  0  0  0  0  0  0  0  0  0  0  0
    1.5970    6.5016    0.9403 H   0  0  0  0  0  0  0  0  0  0  0  0
    5.5249    4.2406    3.7475 C   0  0  0  0  0  0  0  0  0  0  0  0
    0.2541    9.0586    1.8590 C   0  0  0  0  0  0  0  0  0  0  0  0
    0.0047    8.3024    1.1112 H   0  0  0  0  0  0  0  0  0  0  0  0
   -0.3852    8.9006    2.7303 H   0  0  0  0  0  0  0  0  0  0  0  0
    4.7228    4.1120    4.8728 C   0  0  0  0  0  0  0  0  0  0  0  0
    4.7417    4.8768    5.6404 H   0  0  0  0  0  0  0  0  0  0  0  0
    0.2596    5.4185    2.2216 C   0  0  0  0  0  0  0  0  0  0  0  0
   -0.5090    6.1941    2.2352 H   0  0  0  0  0  0  0  0  0  0  0  0
    0.2685    4.9254    3.1951 H   0  0  0  0  0  0  0  0  0  0  0  0
    0.4195    8.4441    6.7063 C   0  0  0  0  0  0  0  0  0  0  0  0
    0.4837    9.3798    7.2639 H   0  0  0  0  0  0  0  0  0  0  0  0
   -0.6335    8.2633    6.4745 H   0  0  0  0  0  0  0  0  0  0  0  0
   -0.0093   10.4453    1.2732 C   0  0  0  0  0  0  0  0  0  0  0  0
    0.1971   11.2025    2.0325 H   0  0  0  0  0  0  0  0  0  0  0  0
   -1.0606   10.5308    0.9898 H   0  0  0  0  0  0  0  0  0  0  0  0
    1.2075    8.5775    5.4051 C   0  0  0  0  0  0  0  0  0  0  0  0
    2.2499    8.8207    5.6334 H   0  0  0  0  0  0  0  0  0  0  0  0
    0.7933    9.4011    4.8224 H   0  0  0  0  0  0  0  0  0  0  0  0
    4.7412    2.1195    2.9515 C   0  0  0  0  0  0  0  0  0  0  0  0
    4.7583    1.3325    2.2105 H   0  0  0  0  0  0  0  0  0  0  0  0
    2.3527   10.5511    0.4325 C   0  0  0  0  0  0  0  0  0  0  0  0
    2.6205   11.3085    1.1716 H   0  0  0  0  0  0  0  0  0  0  0  0
    2.9785   10.7053   -0.4483 H   0  0  0  0  0  0  0  0  0  0  0  0
    0.8801   10.6944    0.0585 C   0  0  0  0  0  0  0  0  0  0  0  0
    0.6324    9.9747   -0.7260 H   0  0  0  0  0  0  0  0  0  0  0  0
    0.6942   11.6945   -0.3363 H   0  0  0  0  0  0  0  0  0  0  0  0
    1.6885    6.1252    5.4710 C   0  0  0  0  0  0  0  0  0  0  0  0
    2.7376    6.3398    5.7135 H   0  0  0  0  0  0  0  0  0  0  0  0
    1.6682    5.1839    4.9162 H   0  0  0  0  0  0  0  0  0  0  0  0
    0.8967    5.9908    6.7668 C   0  0  0  0  0  0  0  0  0  0  0  0
   -0.1435    5.7489    6.5342 H   0  0  0  0  0  0  0  0  0  0  0  0
    1.3049    5.1731    7.3645 H   0  0  0  0  0  0  0  0  0  0  0  0
   -0.0840    4.3806    1.1532 C   0  0  0  0  0  0  0  0  0  0  0  0
   -1.0634    3.9484    1.3690 H   0  0  0  0  0  0  0  0  0  0  0  0
   -0.1424    4.8676    0.1767 H   0  0  0  0  0  0  0  0  0  0  0  0
    0.9539    7.2953    7.5543 C   0  0  0  0  0  0  0  0  0  0  0  0
    1.9885    7.5042    7.8351 H   0  0  0  0  0  0  0  0  0  0  0  0
    0.3694    7.2045    8.4717 H   0  0  0  0  0  0  0  0  0  0  0  0
    2.6170    9.1676    1.0178 C   0  0  0  0  0  0  0  0  0  0  0  0
    3.6729    9.0809    1.3049 H   0  0  0  0  0  0  0  0  0  0  0  0
    2.4165    8.4088    0.2568 H   0  0  0  0  0  0  0  0  0  0  0  0
    3.8973    1.9986    4.0570 C   0  0  0  0  0  0  0  0  0  0  0  0
    2.6936    4.9229    1.8798 C   0  0  0  0  0  0  0  0  0  0  0  0
    3.6710    5.3664    1.6597 H   0  0  0  0  0  0  0  0  0  0  0  0
    2.7638    4.4358    2.8550 H   0  0  0  0  0  0  0  0  0  0  0  0
    3.9092    3.0080    5.0216 C   0  0  0  0  0  0  0  0  0  0  0  0
    3.2770    2.9169    5.8942 H   0  0  0  0  0  0  0  0  0  0  0  0
    0.9738    3.2820    1.1084 C   0  0  0  0  0  0  0  0  0  0  0  0
    1.0033    2.7620    2.0687 H   0  0  0  0  0  0  0  0  0  0  0  0
    0.7170    2.5519    0.3387 H   0  0  0  0  0  0  0  0  0  0  0  0
    2.3460    3.8823    0.8223 C   0  0  0  0  0  0  0  0  0  0  0  0
    2.3417    4.3514   -0.1647 H   0  0  0  0  0  0  0  0  0  0  0  0
    3.1056    3.0996    0.8209 H   0  0  0  0  0  0  0  0  0  0  0  0
    5.5439    3.2299    2.7960 C   0  0  0  0  0  0  0  0  0  0  0  0
    6.1890    3.3206    1.9341 H   0  0  0  0  0  0  0  0  0  0  0  0
    3.0126    0.9425    4.1562 N   0  0  0  0  0  0  0  0  0  0  0  0
    2.6716    0.7355    5.0816 H   0  0  0  0  0  0  0  0  0  0  0  0
    3.2383    0.1263    3.6099 H   0  0  0  0  0  0  0  0  0  0  0  0
  1  4  1  0  0  0  0
  2 11  1  0  0  0  0
  2  1  1  0  0  0  0
  3  7  1  0  0  0  0
  5  6  1  0  0  0  0
  5  3  1  0  0  0  0
  7 26  1  0  0  0  0
  7 37  1  0  0  0  0
  8  7  1  0  0  0  0
  9 17  1  0  0  0  0
  9  3  1  0  0  0  0
 10  9  1  0  0  0  0
 11 15  1  0  0  0  0
 12  5  1  0  0  0  0
 12 14  1  0  0  0  0
 13 12  1  0  0  0  0
 15 56  2  0  0  0  0
 15 16  1  0  0  0  0
 17 18  1  0  0  0  0
 17 19  1  0  0  0  0
 20 21  1  0  0  0  0
 20 46  1  0  0  0  0
 22 20  1  0  0  0  0
 23 12  1  0  0  0  0
 23 24  1  0  0  0  0
 25 23  1  0  0  0  0
 26 27  1  0  0  0  0
 26 20  1  0  0  0  0
 28 26  1  0  0  0  0
 29 52  2  0  0  0  0
 30 29  1  0  0  0  0
 31 49  1  0  0  0  0
 31 32  1  0  0  0  0
 33 31  1  0  0  0  0
 34 31  1  0  0  0  0
 34 23  1  0  0  0  0
 35 34  1  0  0  0  0
 36 34  1  0  0  0  0
 37 38  1  0  0  0  0
 37 40  1  0  0  0  0
 39 37  1  0  0  0  0
 40 42  1  0  0  0  0
 40 46  1  0  0  0  0
 41 40  1  0  0  0  0
 43 44  1  0  0  0  0
 43 17  1  0  0  0  0
 45 43  1  0  0  0  0
 46 47  1  0  0  0  0
 46 48  1  0  0  0  0
 49 50  1  0  0  0  0
 49  5  1  0  0  0  0
 51 49  1  0  0  0  0
 52 66  1  0  0  0  0
 52 56  1  0  0  0  0
 53  9  1  0  0  0  0
 53 55  1  0  0  0  0
 54 53  1  0  0  0  0
 56 57  1  0  0  0  0
 58 43  1  0  0  0  0
 58 59  1  0  0  0  0
 60 58  1  0  0  0  0
 61 58  1  0  0  0  0
 61 53  1  0  0  0  0
 62 61  1  0  0  0  0
 63 61  1  0  0  0  0
 64 29  1  0  0  0  0
 64 11  2  0  0  0  0
 65 64  1  0  0  0  0
 66 67  1  0  0  0  0
 68 66  1  0  0  0  0
M  END
$$$$
