CSD_code = ENEGAF | q = 0 | S = 0 | Stoichiometry = C30H33ClNPPd | MND = 4
 OpenBabel04212202033D

 67 71  0  0  1  0  0  0  0  0999 V2000
    5.5849   -0.9755    3.8393 Pd  0  0  2  0  0  0  0  0  0  0  0  0
    4.5898   -1.6628    1.9398 Cl  0  0  0  0  0  0  0  0  0  0  0  0
    6.5233   -1.0021    5.8950 P   0  0  0  0  0  4  0  0  0  0  0  0
    3.7841   -1.3780    5.1620 N   0  0  0  0  0  0  0  0  0  0  0  0
    7.1948   -0.4533    2.6751 C   0  0  0  0  0  0  0  0  0  0  0  0
    7.3128   -1.1617    1.8518 H   0  0  0  0  0  0  0  0  0  0  0  0
    8.1358   -0.3985    3.2350 H   0  0  0  0  0  0  0  0  0  0  0  0
    6.9577    0.5306    2.2474 H   0  0  0  0  0  0  0  0  0  0  0  0
    4.0275   -1.9764    6.3298 C   0  0  2  0  0  3  0  0  0  0  0  0
    3.0251   -2.1846    7.2664 C   0  0  0  0  0  0  0  0  0  0  0  0
    3.2445   -2.6868    8.1968 H   0  0  0  0  0  0  0  0  0  0  0  0
    1.7449   -1.7311    6.9876 C   0  0  0  0  0  0  0  0  0  0  0  0
    0.9484   -1.8701    7.7039 H   0  0  0  0  0  0  0  0  0  0  0  0
    1.5123   -1.0848    5.7896 C   0  0  0  0  0  0  0  0  0  0  0  0
    0.5395   -0.6841    5.5498 H   0  0  0  0  0  0  0  0  0  0  0  0
    2.5615   -0.9305    4.8822 C   0  0  0  0  0  0  0  0  0  0  0  0
    5.4507   -2.3650    6.5771 C   0  0  0  0  0  0  0  0  0  0  0  0
    5.6948   -3.2486    5.9742 H   0  0  0  0  0  0  0  0  0  0  0  0
    5.6546   -2.5969    7.6260 H   0  0  0  0  0  0  0  0  0  0  0  0
    2.3391   -0.2255    3.6006 C   0  0  0  0  0  0  0  0  0  0  0  0
    2.9232    1.0250    3.3790 C   0  0  0  0  0  0  0  0  0  0  0  0
    2.6681    1.6857    2.1859 C   0  0  0  0  0  0  0  0  0  0  0  0
    3.1253    2.6502    2.0129 H   0  0  0  0  0  0  0  0  0  0  0  0
    1.8591    1.1293    1.2089 C   0  0  0  0  0  0  0  0  0  0  0  0
    1.3008   -0.1198    1.4417 C   0  0  0  0  0  0  0  0  0  0  0  0
    0.6913   -0.5768    0.6751 H   0  0  0  0  0  0  0  0  0  0  0  0
    1.5287   -0.8089    2.6199 C   0  0  0  0  0  0  0  0  0  0  0  0
    1.6218    1.8373   -0.0896 C   0  0  0  0  0  0  0  0  0  0  0  0
    1.7932    2.9066    0.0109 H   0  0  0  0  0  0  0  0  0  0  0  0
    0.6059    1.6714   -0.4424 H   0  0  0  0  0  0  0  0  0  0  0  0
    2.3068    1.4522   -0.8452 H   0  0  0  0  0  0  0  0  0  0  0  0
    1.0053   -2.2037    2.7858 C   0  0  0  0  0  0  0  0  0  0  0  0
    0.5123   -2.3492    3.7452 H   0  0  0  0  0  0  0  0  0  0  0  0
    1.8443   -2.8980    2.7270 H   0  0  0  0  0  0  0  0  0  0  0  0
    0.3056   -2.4467    1.9902 H   0  0  0  0  0  0  0  0  0  0  0  0
    3.8354    1.6589    4.3937 C   0  0  0  0  0  0  0  0  0  0  0  0
    3.8811    2.7360    4.2475 H   0  0  0  0  0  0  0  0  0  0  0  0
    4.8576    1.2524    4.2565 H   0  0  0  0  0  0  0  0  0  0  0  0
    3.5153    1.4556    5.4166 H   0  0  0  0  0  0  0  0  0  0  0  0
    8.1697   -1.7010    6.2573 C   0  0  0  0  0  0  0  0  0  0  0  0
    8.9321   -1.1598    7.2912 C   0  0  0  0  0  0  0  0  0  0  0  0
    8.5246   -0.3531    7.8844 H   0  0  0  0  0  0  0  0  0  0  0  0
   10.1954   -1.6416    7.5720 C   0  0  0  0  0  0  0  0  0  0  0  0
   10.7703   -1.2119    8.3788 H   0  0  0  0  0  0  0  0  0  0  0  0
   10.7171   -2.6735    6.8098 C   0  0  0  0  0  0  0  0  0  0  0  0
   11.7067   -3.0540    7.0148 H   0  0  0  0  0  0  0  0  0  0  0  0
    9.9655   -3.2170    5.7856 C   0  0  0  0  0  0  0  0  0  0  0  0
   10.3746   -4.0248    5.1954 H   0  0  0  0  0  0  0  0  0  0  0  0
    8.6874   -2.7530    5.4887 C   0  0  0  0  0  0  0  0  0  0  0  0
    7.9286   -3.4302    4.3869 C   0  0  0  0  0  0  0  0  0  0  0  0
    7.1085   -2.8123    3.9839 H   0  0  0  0  0  0  0  0  0  0  0  0
    7.5103   -4.3706    4.7514 H   0  0  0  0  0  0  0  0  0  0  0  0
    8.6038   -3.6726    3.5679 H   0  0  0  0  0  0  0  0  0  0  0  0
    6.3234    0.3659    7.0821 C   0  0  0  0  0  0  0  0  0  0  0  0
    5.4981    0.2744    8.1993 C   0  0  0  0  0  0  0  0  0  0  0  0
    5.0083   -0.6552    8.4429 H   0  0  0  0  0  0  0  0  0  0  0  0
    5.2915    1.3691    9.0193 C   0  0  0  0  0  0  0  0  0  0  0  0
    4.6519    1.2775    9.8848 H   0  0  0  0  0  0  0  0  0  0  0  0
    5.9028    2.5751    8.7273 C   0  0  0  0  0  0  0  0  0  0  0  0
    5.7441    3.4330    9.3636 H   0  0  0  0  0  0  0  0  0  0  0  0
    6.7161    2.6798    7.6122 C   0  0  0  0  0  0  0  0  0  0  0  0
    7.1884    3.6241    7.3822 H   0  0  0  0  0  0  0  0  0  0  0  0
    6.9335    1.5938    6.7775 C   0  0  0  0  0  0  0  0  0  0  0  0
    7.8042    1.7233    5.5708 C   0  0  0  0  0  0  0  0  0  0  0  0
    8.6769    1.0741    5.6547 H   0  0  0  0  0  0  0  0  0  0  0  0
    8.1445    2.7478    5.4422 H   0  0  0  0  0  0  0  0  0  0  0  0
    7.2527    1.4183    4.6769 H   0  0  0  0  0  0  0  0  0  0  0  0
  1  2  1  6  0  0  0
  1  4  1  0  0  0  0
  1  3  1  0  0  0  0
  3 40  1  0  0  0  0
  3 17  1  0  0  0  0
  3 54  1  0  0  0  0
  4  9  1  0  0  0  0
  5  7  1  0  0  0  0
  5  1  1  0  0  0  0
  6  5  1  0  0  0  0
  8  5  1  0  0  0  0
  9 17  1  0  0  0  0
  9 10  1  1  0  0  0
 10 11  1  0  0  0  0
 12 10  2  0  0  0  0
 12 13  1  0  0  0  0
 14 12  1  0  0  0  0
 15 14  1  0  0  0  0
 16  4  1  0  0  0  0
 16 14  2  0  0  0  0
 17 19  1  0  0  0  0
 18 17  1  0  0  0  0
 20 16  1  0  0  0  0
 21 20  1  0  0  0  0
 21 36  1  0  0  0  0
 22 21  2  0  0  0  0
 23 22  1  0  0  0  0
 24 25  2  0  0  0  0
 24 22  1  0  0  0  0
 25 27  1  0  0  0  0
 26 25  1  0  0  0  0
 27 32  1  0  0  0  0
 27 20  2  0  0  0  0
 28 29  1  0  0  0  0
 28 24  1  0  0  0  0
 30 28  1  0  0  0  0
 31 28  1  0  0  0  0
 32 33  1  0  0  0  0
 34 32  1  0  0  0  0
 35 32  1  0  0  0  0
 36 39  1  0  0  0  0
 37 36  1  0  0  0  0
 38 36  1  0  0  0  0
 40 41  1  0  0  0  0
 41 43  2  0  0  0  0
 41 42  1  0  0  0  0
 43 44  1  0  0  0  0
 45 46  1  0  0  0  0
 45 43  1  0  0  0  0
 47 45  2  0  0  0  0
 48 47  1  0  0  0  0
 49 47  1  0  0  0  0
 49 40  2  0  0  0  0
 50 52  1  0  0  0  0
 50 49  1  0  0  0  0
 51 50  1  0  0  0  0
 53 50  1  0  0  0  0
 54 55  1  0  0  0  0
 55 56  1  0  0  0  0
 55 57  2  0  0  0  0
 57 58  1  0  0  0  0
 59 57  1  0  0  0  0
 59 60  1  0  0  0  0
 61 59  2  0  0  0  0
 62 61  1  0  0  0  0
 63 54  2  0  0  0  0
 63 61  1  0  0  0  0
 64 65  1  0  0  0  0
 64 63  1  0  0  0  0
 66 64  1  0  0  0  0
 67 64  1  0  0  0  0
M  END
$$$$
