CSD_code = ENOHAS | q = 0 | S = 0 | Stoichiometry = C30H24ClN2OPPdS | MND = 4
 OpenBabel04212202033D

 61 66  0  0  0  0  0  0  0  0999 V2000
    8.8963    3.9525    9.7168 Pd  0  0  2  0  0  0  0  0  0  0  0  0
    8.1117    2.4722    8.2116 P   0  0  0  0  0  4  0  0  0  0  0  0
   11.8262    6.7198   12.7981 S   0  0  0  0  0  0  0  0  0  0  0  0
    6.8348    4.3031   10.5181 Cl  0  0  0  0  0  0  0  0  0  0  0  0
   10.8304    3.6956    9.1426 O   0  0  0  0  0  0  0  0  0  0  0  0
   11.1736    5.1368   10.8854 N   0  0  0  0  0  0  0  0  0  0  0  0
    9.8295    5.1200   11.0547 N   0  0  0  0  0  0  0  0  0  0  0  0
   10.0966    6.6267   12.9126 C   0  0  0  0  0  0  0  0  0  0  0  0
    6.8148    2.7500    6.9673 C   0  0  0  0  0  0  0  0  0  0  0  0
    6.5343    0.1796    8.8089 C   0  0  0  0  0  0  0  0  0  0  0  0
    6.0587    0.3014    7.8462 H   0  0  0  0  0  0  0  0  0  0  0  0
   11.5993    4.3881    9.8902 C   0  0  0  0  0  0  0  0  0  0  0  0
    7.5243    1.0678    9.2102 C   0  0  0  0  0  0  0  0  0  0  0  0
    8.1208    0.9229   10.4637 C   0  0  0  0  0  0  0  0  0  0  0  0
    8.8913    1.6412   10.7807 H   0  0  0  0  0  0  0  0  0  0  0  0
   13.0487    4.3345    9.6155 C   0  0  0  0  0  0  0  0  0  0  0  0
    5.8921    3.7705    7.1724 C   0  0  0  0  0  0  0  0  0  0  0  0
    5.9684    4.3836    8.0608 H   0  0  0  0  0  0  0  0  0  0  0  0
   11.8777    7.7949   14.1353 C   0  0  0  0  0  0  0  0  0  0  0  0
   12.8214    8.1708   14.4788 H   0  0  0  0  0  0  0  0  0  0  0  0
    9.6213    7.4037   13.9482 C   0  0  0  0  0  0  0  0  0  0  0  0
    8.5753    7.4816   14.1852 H   0  0  0  0  0  0  0  0  0  0  0  0
    9.9220    0.4677    7.3225 C   0  0  0  0  0  0  0  0  0  0  0  0
    9.4204   -0.2278    7.9816 H   0  0  0  0  0  0  0  0  0  0  0  0
    9.4717    1.7770    7.2210 C   0  0  0  0  0  0  0  0  0  0  0  0
    9.3330    5.8322   12.0210 C   0  0  0  0  0  3  0  0  0  0  0  0
    6.1520   -0.8500    9.6520 C   0  0  0  0  0  0  0  0  0  0  0  0
    5.3790   -1.5376    9.3419 H   0  0  0  0  0  0  0  0  0  0  0  0
    6.7518   -0.9962   10.8916 C   0  0  0  0  0  0  0  0  0  0  0  0
    6.4462   -1.7982   11.5469 H   0  0  0  0  0  0  0  0  0  0  0  0
    4.8005    3.1896    5.1163 C   0  0  0  0  0  0  0  0  0  0  0  0
    4.0159    3.3591    4.3937 H   0  0  0  0  0  0  0  0  0  0  0  0
   11.0189    0.0601    6.5812 C   0  0  0  0  0  0  0  0  0  0  0  0
   11.3714   -0.9579    6.6618 H   0  0  0  0  0  0  0  0  0  0  0  0
   10.6409    8.0681   14.6418 C   0  0  0  0  0  0  0  0  0  0  0  0
   10.4673    8.7203   15.4793 H   0  0  0  0  0  0  0  0  0  0  0  0
    7.7368   -0.1089   11.2990 C   0  0  0  0  0  0  0  0  0  0  0  0
    8.1958   -0.2197   12.2702 H   0  0  0  0  0  0  0  0  0  0  0  0
    6.7319    1.9551    5.8267 C   0  0  0  0  0  0  0  0  0  0  0  0
    7.4596    1.1720    5.6619 H   0  0  0  0  0  0  0  0  0  0  0  0
    4.8861    3.9856    6.2469 C   0  0  0  0  0  0  0  0  0  0  0  0
    4.1689    4.7766    6.4070 H   0  0  0  0  0  0  0  0  0  0  0  0
   13.5056    3.4714    8.6209 C   0  0  0  0  0  0  0  0  0  0  0  0
   12.7890    2.8651    8.0858 H   0  0  0  0  0  0  0  0  0  0  0  0
   10.1309    2.6750    6.3846 C   0  0  0  0  0  0  0  0  0  0  0  0
    9.7819    3.7011    6.3384 H   0  0  0  0  0  0  0  0  0  0  0  0
   11.2239    2.2641    5.6479 C   0  0  0  0  0  0  0  0  0  0  0  0
   11.7395    2.9634    5.0060 H   0  0  0  0  0  0  0  0  0  0  0  0
    5.7239    2.1770    4.9067 C   0  0  0  0  0  0  0  0  0  0  0  0
    5.6583    1.5595    4.0226 H   0  0  0  0  0  0  0  0  0  0  0  0
   11.6689    0.9537    5.7471 C   0  0  0  0  0  0  0  0  0  0  0  0
   12.5298    0.6326    5.1792 H   0  0  0  0  0  0  0  0  0  0  0  0
   15.3060    5.0457   10.0170 C   0  0  0  0  0  0  0  0  0  0  0  0
   16.0105    5.6594   10.5588 H   0  0  0  0  0  0  0  0  0  0  0  0
   13.9584    5.1239   10.3132 C   0  0  0  0  0  0  0  0  0  0  0  0
   13.5966    5.7907   11.0780 H   0  0  0  0  0  0  0  0  0  0  0  0
   15.7569    4.1853    9.0280 C   0  0  0  0  0  0  0  0  0  0  0  0
   16.8115    4.1283    8.8006 H   0  0  0  0  0  0  0  0  0  0  0  0
   14.8541    3.3987    8.3308 C   0  0  0  0  0  0  0  0  0  0  0  0
   15.2030    2.7272    7.5596 H   0  0  0  0  0  0  0  0  0  0  0  0
    8.2553    5.8105   12.1443 H   0  0  0  0  0  0  0  0  0  0  0  0
  1  4  1  6  0  0  0
  1  7  1  0  0  0  0
  2 13  1  0  0  0  0
  2  1  1  0  0  0  0
  3  8  1  0  0  0  0
  3 19  1  0  0  0  0
  5  1  1  0  0  0  0
  5 12  1  0  0  0  0
  6  7  1  0  0  0  0
  7 26  1  0  0  0  0
  8 21  2  0  0  0  0
  9 17  1  0  0  0  0
  9  2  1  0  0  0  0
 10 13  2  0  0  0  0
 10 27  1  0  0  0  0
 11 10  1  0  0  0  0
 12  6  2  0  0  0  0
 13 14  1  0  0  0  0
 14 15  1  0  0  0  0
 14 37  2  0  0  0  0
 16 12  1  0  0  0  0
 16 55  1  0  0  0  0
 17 18  1  0  0  0  0
 19 20  1  0  0  0  0
 19 35  2  0  0  0  0
 21 22  1  0  0  0  0
 21 35  1  0  0  0  0
 23 24  1  0  0  0  0
 25 23  1  0  0  0  0
 25  2  1  0  0  0  0
 26 61  1  0  0  0  0
 26  8  1  0  0  0  0
 27 29  2  0  0  0  0
 28 27  1  0  0  0  0
 29 37  1  0  0  0  0
 29 30  1  0  0  0  0
 31 41  1  0  0  0  0
 32 31  1  0  0  0  0
 33 34  1  0  0  0  0
 33 23  2  0  0  0  0
 35 36  1  0  0  0  0
 37 38  1  0  0  0  0
 39  9  2  0  0  0  0
 40 39  1  0  0  0  0
 41 42  1  0  0  0  0
 41 17  2  0  0  0  0
 43 16  2  0  0  0  0
 44 43  1  0  0  0  0
 45 25  2  0  0  0  0
 46 45  1  0  0  0  0
 47 51  2  0  0  0  0
 47 45  1  0  0  0  0
 48 47  1  0  0  0  0
 49 31  2  0  0  0  0
 49 39  1  0  0  0  0
 50 49  1  0  0  0  0
 51 33  1  0  0  0  0
 52 51  1  0  0  0  0
 53 55  2  0  0  0  0
 53 54  1  0  0  0  0
 55 56  1  0  0  0  0
 57 53  1  0  0  0  0
 58 57  1  0  0  0  0
 59 43  1  0  0  0  0
 59 57  2  0  0  0  0
 60 59  1  0  0  0  0
M  END
$$$$
