CSD_code = ENOREF | q = 0 | S = 0 | Stoichiometry = C4H10Cl2HgO2 | MND = 4
 OpenBabel04212202033D

 19 17  0  0  0  0  0  0  0  0999 V2000
    6.4384    0.5641    6.1357 Hg  0  0  0  0  0  0  0  0  0  0  0  0
    5.0959    0.3530    4.2944 Cl  0  0  0  0  0  0  0  0  0  0  0  0
    5.1179    2.8440    6.7650 O   0  0  0  0  0  0  0  0  0  0  0  0
    3.7064    2.8130    6.6547 C   0  0  0  0  0  0  0  0  0  0  0  0
    3.2797    3.7583    7.0077 H   0  0  0  0  0  0  0  0  0  0  0  0
    3.3583    1.9974    7.2849 H   0  0  0  0  0  0  0  0  0  0  0  0
    3.3955    2.6372    5.6203 H   0  0  0  0  0  0  0  0  0  0  0  0
    5.6844    3.9185    6.0370 C   0  0  0  0  0  0  0  0  0  0  0  0
    5.2664    4.8666    6.4048 H   0  0  0  0  0  0  0  0  0  0  0  0
    5.4560    3.8132    4.9672 H   0  0  0  0  0  0  0  0  0  0  0  0
    7.7809    0.3530    7.9770 Cl  0  0  0  0  0  0  0  0  0  0  0  0
    7.7589    2.8440    5.5064 O   0  0  0  0  0  0  0  0  0  0  0  0
    9.1704    2.8130    5.6167 C   0  0  0  0  0  0  0  0  0  0  0  0
    9.5971    3.7583    5.2636 H   0  0  0  0  0  0  0  0  0  0  0  0
    9.5185    1.9974    4.9865 H   0  0  0  0  0  0  0  0  0  0  0  0
    9.4813    2.6372    6.6511 H   0  0  0  0  0  0  0  0  0  0  0  0
    7.1924    3.9185    6.2343 C   0  0  0  0  0  0  0  0  0  0  0  0
    7.6104    4.8666    5.8665 H   0  0  0  0  0  0  0  0  0  0  0  0
    7.4207    3.8132    7.3042 H   0  0  0  0  0  0  0  0  0  0  0  0
  1 11  1  0  0  0  0
  2  1  1  0  0  0  0
  4  3  1  0  0  0  0
  4  5  1  0  0  0  0
  4  6  1  0  0  0  0
  7  4  1  0  0  0  0
  8 17  1  0  0  0  0
  8  9  1  0  0  0  0
  8  3  1  0  0  0  0
 10  8  1  0  0  0  0
 12 13  1  0  0  0  0
 12 17  1  0  0  0  0
 13 16  1  0  0  0  0
 14 13  1  0  0  0  0
 15 13  1  0  0  0  0
 17 19  1  0  0  0  0
 18 17  1  0  0  0  0
M  END
$$$$
