CSD_code = ENSOCO | q = 0 | S = 0 | Stoichiometry = C4H16ClCoN4O3S | MND = 6
 OpenBabel04212202033D

 30 31  0  0  0  0  0  0  0  0999 V2000
    0.4591   10.6227    3.3038 O   0  0  0  0  0  1  0  0  0  0  0  0
    0.2561    8.1834    3.6000 O   0  0  0  0  0  1  0  0  0  0  0  0
    1.0301    9.0870    1.4616 O   0  0  0  0  0  1  0  0  0  0  0  0
    3.1223   11.0462    2.8098 N   0  0  0  0  0  4  0  0  0  0  0  0
    2.9582    9.2824    3.6425 Co  0  0  0  0  0  0  0  0  0  0  0  0
    5.1684    9.5465    4.5545 Cl  0  0  0  0  0  0  0  0  0  0  0  0
    0.9162    9.2891    2.9060 S   0  0  0  0  0  0  0  0  0  0  0  0
    3.8887   11.5303    3.2827 H   0  0  0  0  0  0  0  0  0  0  0  0
    2.2479   11.5641    2.9272 H   0  0  0  0  0  0  0  0  0  0  0  0
    3.4373   10.9089    1.3825 C   0  0  0  0  0  0  0  0  0  0  0  0
    3.9120   11.8086    0.9784 H   0  0  0  0  0  0  0  0  0  0  0  0
    2.5053   10.7116    0.8473 H   0  0  0  0  0  0  0  0  0  0  0  0
    4.3447    9.6919    1.2614 C   0  0  0  0  0  0  0  0  0  0  0  0
    5.2779    9.8667    1.8042 H   0  0  0  0  0  0  0  0  0  0  0  0
    4.5654    9.4593    0.2141 H   0  0  0  0  0  0  0  0  0  0  0  0
    3.6248    8.5974    1.9265 N   0  0  0  0  0  4  0  0  0  0  0  0
    4.2018    7.7582    1.9162 H   0  0  0  0  0  0  0  0  0  0  0  0
    2.7508    8.4281    1.4052 H   0  0  0  0  0  0  0  0  0  0  0  0
    2.7027    7.5222    4.4748 N   0  0  0  0  0  4  0  0  0  0  0  0
    3.3554    6.7710    4.2579 H   0  0  0  0  0  0  0  0  0  0  0  0
    1.7552    7.2658    4.1575 H   0  0  0  0  0  0  0  0  0  0  0  0
    2.6554    7.7217    5.9297 C   0  0  0  0  0  0  0  0  0  0  0  0
    3.6610    7.9816    6.2718 H   0  0  0  0  0  0  0  0  0  0  0  0
    2.3076    6.8254    6.4543 H   0  0  0  0  0  0  0  0  0  0  0  0
    1.7120    8.8969    6.1490 C   0  0  0  0  0  0  0  0  0  0  0  0
    1.6588    9.1806    7.2048 H   0  0  0  0  0  0  0  0  0  0  0  0
    0.7166    8.6251    5.7897 H   0  0  0  0  0  0  0  0  0  0  0  0
    2.2160    9.9908    5.3096 N   0  0  0  0  0  4  0  0  0  0  0  0
    2.9762   10.4712    5.7962 H   0  0  0  0  0  0  0  0  0  0  0  0
    1.4596   10.6458    5.0964 H   0  0  0  0  0  0  0  0  0  0  0  0
  3  7  1  0  0  0  0
  4  9  1  0  0  0  0
  4  8  1  0  0  0  0
  4  5  1  0  0  0  0
  5 19  1  0  0  0  0
  5  6  1  0  0  0  0
  5 28  1  0  0  0  0
  7  1  1  0  0  0  0
  7  2  1  0  0  0  0
  7  5  1  0  0  0  0
 10  4  1  0  0  0  0
 11 10  1  0  0  0  0
 12 10  1  0  0  0  0
 13 10  1  0  0  0  0
 13 14  1  0  0  0  0
 13 16  1  0  0  0  0
 15 13  1  0  0  0  0
 16  5  1  0  0  0  0
 17 16  1  0  0  0  0
 18 16  1  0  0  0  0
 19 22  1  0  0  0  0
 20 19  1  0  0  0  0
 21 19  1  0  0  0  0
 22 25  1  0  0  0  0
 22 23  1  0  0  0  0
 22 24  1  0  0  0  0
 25 26  1  0  0  0  0
 27 25  1  0  0  0  0
 28 29  1  0  0  0  0
 28 25  1  0  0  0  0
 30 28  1  0  0  0  0
M  END
$$$$
