CSD_code = ENUVIT | q = 0 | S = 0 | Stoichiometry = C22H26I2N6Pd | MND = 4
 OpenBabel04212202033D

 57 60  0  0  0  0  0  0  0  0999 V2000
    7.7167    1.3442    5.3534 I   0  0  0  0  0  0  0  0  0  0  0  0
    5.1449    3.6232    7.3448 I   0  0  0  0  0  0  0  0  0  0  0  0
    7.3487    3.9062    5.9119 Pd  0  0  0  0  0  0  0  0  0  0  0  0
    6.7572    6.8350    6.6196 N   0  0  0  0  0  0  0  0  0  0  0  0
    7.0670    7.7473    7.5182 N   0  0  0  0  0  2  0  0  0  0  0  0
    8.0355    7.2287    8.2285 N   0  0  0  0  0  0  0  0  0  0  0  0
    9.9070    4.0204    4.2136 N   0  0  0  0  0  0  0  0  0  0  0  0
   10.2835    4.2085    2.9641 N   0  0  0  0  0  2  0  0  0  0  0  0
    9.2111    4.6092    2.3306 N   0  0  0  0  0  0  0  0  0  0  0  0
    7.5064    5.7202    6.7102 C   0  0  0  0  0  0  0  0  0  0  0  0
    8.3596    5.9873    7.7922 C   0  0  0  0  0  0  0  0  0  0  0  0
    9.3917    5.1146    8.3381 C   0  0  0  0  0  0  0  0  0  0  0  0
    9.1559    3.7346    8.3953 C   0  0  0  0  0  0  0  0  0  0  0  0
   10.1410    2.8785    8.8561 C   0  0  0  0  0  0  0  0  0  0  0  0
   11.3677    3.3793    9.2613 C   0  0  0  0  0  0  0  0  0  0  0  0
   11.6071    4.7424    9.2086 C   0  0  0  0  0  0  0  0  0  0  0  0
   10.6307    5.6065    8.7478 C   0  0  0  0  0  0  0  0  0  0  0  0
    8.5409    7.9565    9.3570 C   0  0  0  0  0  0  0  0  0  0  0  0
    5.6765    7.0696    5.6948 C   0  0  0  0  0  0  0  0  0  0  0  0
    4.4124    7.4990    6.4246 C   0  0  0  0  0  0  0  0  0  0  0  0
    8.6071    4.2926    4.4268 C   0  0  0  0  0  0  0  0  0  0  0  0
    8.1441    4.6798    3.1607 C   0  0  0  0  0  0  0  0  0  0  0  0
    6.7844    5.0724    2.8079 C   0  0  0  0  0  0  0  0  0  0  0  0
    5.7102    4.3564    3.3535 C   0  0  0  0  0  0  0  0  0  0  0  0
    4.4089    4.7489    3.0896 C   0  0  0  0  0  0  0  0  0  0  0  0
    4.1621    5.8559    2.2936 C   0  0  0  0  0  0  0  0  0  0  0  0
    5.2201    6.5659    1.7501 C   0  0  0  0  0  0  0  0  0  0  0  0
    6.5241    6.1803    2.0035 C   0  0  0  0  0  0  0  0  0  0  0  0
    9.2681    4.8424    0.9167 C   0  0  0  0  0  0  0  0  0  0  0  0
   10.8514    3.5242    5.1804 C   0  0  0  0  0  0  0  0  0  0  0  0
   11.8924    4.5815    5.5212 C   0  0  0  0  0  0  0  0  0  0  0  0
    8.1755    3.3225    8.1357 H   0  0  0  0  0  0  0  0  0  0  0  0
    9.9456    1.8174    8.8966 H   0  0  0  0  0  0  0  0  0  0  0  0
   12.1342    2.7091    9.6201 H   0  0  0  0  0  0  0  0  0  0  0  0
   12.5621    5.1382    9.5221 H   0  0  0  0  0  0  0  0  0  0  0  0
   10.8474    6.6629    8.6786 H   0  0  0  0  0  0  0  0  0  0  0  0
    9.3877    8.5816    9.0667 H   0  0  0  0  0  0  0  0  0  0  0  0
    7.7438    8.5986    9.7289 H   0  0  0  0  0  0  0  0  0  0  0  0
    8.8517    7.2576   10.1321 H   0  0  0  0  0  0  0  0  0  0  0  0
    5.5076    6.1267    5.1604 H   0  0  0  0  0  0  0  0  0  0  0  0
    5.9871    7.8377    4.9778 H   0  0  0  0  0  0  0  0  0  0  0  0
    4.5901    8.4122    6.9865 H   0  0  0  0  0  0  0  0  0  0  0  0
    4.0924    6.7163    7.1081 H   0  0  0  0  0  0  0  0  0  0  0  0
    3.6213    7.6719    5.7011 H   0  0  0  0  0  0  0  0  0  0  0  0
    5.8827    3.4501    3.9407 H   0  0  0  0  0  0  0  0  0  0  0  0
    3.5890    4.1891    3.5139 H   0  0  0  0  0  0  0  0  0  0  0  0
    3.1466    6.1629    2.0944 H   0  0  0  0  0  0  0  0  0  0  0  0
    5.0315    7.4287    1.1283 H   0  0  0  0  0  0  0  0  0  0  0  0
    7.3409    6.7612    1.5989 H   0  0  0  0  0  0  0  0  0  0  0  0
    9.5194    5.8843    0.7079 H   0  0  0  0  0  0  0  0  0  0  0  0
   10.0437    4.2039    0.4967 H   0  0  0  0  0  0  0  0  0  0  0  0
    8.3034    4.6049    0.4706 H   0  0  0  0  0  0  0  0  0  0  0  0
   11.3314    2.6370    4.7594 H   0  0  0  0  0  0  0  0  0  0  0  0
   10.2809    3.2369    6.0723 H   0  0  0  0  0  0  0  0  0  0  0  0
   11.4138    5.4651    5.9396 H   0  0  0  0  0  0  0  0  0  0  0  0
   12.4455    4.8662    4.6290 H   0  0  0  0  0  0  0  0  0  0  0  0
   12.5856    4.1849    6.2568 H   0  0  0  0  0  0  0  0  0  0  0  0
  1  3  1  0  0  0  0
  3 10  1  0  0  0  0
  3  2  1  0  0  0  0
  4 10  1  0  0  0  0
  4  5  1  0  0  0  0
  5  6  1  0  0  0  0
  6 18  1  0  0  0  0
  7 21  1  0  0  0  0
  7 30  1  0  0  0  0
  8  7  1  0  0  0  0
  9  8  1  0  0  0  0
  9 22  1  0  0  0  0
 10 11  2  0  0  0  0
 11  6  1  0  0  0  0
 11 12  1  0  0  0  0
 12 13  2  0  0  0  0
 12 17  1  0  0  0  0
 13 14  1  0  0  0  0
 14 33  1  0  0  0  0
 14 15  2  0  0  0  0
 15 34  1  0  0  0  0
 16 15  1  0  0  0  0
 16 35  1  0  0  0  0
 17 16  2  0  0  0  0
 18 38  1  0  0  0  0
 18 39  1  0  0  0  0
 19 20  1  0  0  0  0
 19  4  1  0  0  0  0
 20 42  1  0  0  0  0
 20 43  1  0  0  0  0
 21  3  1  0  0  0  0
 22 21  2  0  0  0  0
 23 22  1  0  0  0  0
 23 24  1  0  0  0  0
 24 45  1  0  0  0  0
 25 24  2  0  0  0  0
 25 46  1  0  0  0  0
 26 25  1  0  0  0  0
 27 28  1  0  0  0  0
 27 26  2  0  0  0  0
 28 23  2  0  0  0  0
 29  9  1  0  0  0  0
 30 31  1  0  0  0  0
 30 54  1  0  0  0  0
 31 55  1  0  0  0  0
 31 57  1  0  0  0  0
 32 13  1  0  0  0  0
 36 17  1  0  0  0  0
 37 18  1  0  0  0  0
 40 19  1  0  0  0  0
 41 19  1  0  0  0  0
 44 20  1  0  0  0  0
 47 26  1  0  0  0  0
 48 27  1  0  0  0  0
 49 28  1  0  0  0  0
 50 29  1  0  0  0  0
 51 29  1  0  0  0  0
 52 29  1  0  0  0  0
 53 30  1  0  0  0  0
 56 31  1  0  0  0  0
M  END
$$$$
