CSD_code = EPABED | q = 0 | S = 0 | Stoichiometry = C26H25ClNO5PPdS | MND = 4
 OpenBabel04212202033D

 61 65  0  0  0  0  0  0  0  0999 V2000
    1.4018    1.4510    7.2919 C   0  0  0  0  0  0  0  0  0  0  0  0
    0.9202    0.1632    7.1051 C   0  0  0  0  0  0  0  0  0  0  0  0
    1.0885   -0.3259    6.1464 H   0  0  0  0  0  0  0  0  0  0  0  0
    0.2267   -0.4741    8.1190 C   0  0  0  0  0  0  0  0  0  0  0  0
   -0.1466   -1.4762    7.9767 H   0  0  0  0  0  0  0  0  0  0  0  0
    0.0061    0.1855    9.3154 C   0  0  0  0  0  0  0  0  0  0  0  0
   -0.5419   -0.3013   10.1087 H   0  0  0  0  0  0  0  0  0  0  0  0
    0.4761    1.4738    9.5154 C   0  0  0  0  0  0  0  0  0  0  0  0
    0.2871    1.9670   10.4564 H   0  0  0  0  0  0  0  0  0  0  0  0
    1.1797    2.1148    8.5039 C   0  0  0  0  0  0  0  0  0  0  0  0
    1.4686    4.1371    9.7322 C   0  0  0  0  0  0  0  0  0  0  0  0
    0.3977    4.2847    9.9013 H   0  0  0  0  0  0  0  0  0  0  0  0
    1.9378    5.1013    9.5432 H   0  0  0  0  0  0  0  0  0  0  0  0
    1.9191    3.6829   10.6210 H   0  0  0  0  0  0  0  0  0  0  0  0
    4.0079    2.4229    6.4650 C   0  0  0  0  0  0  0  0  0  0  0  0
    4.5479    2.1138    7.7001 C   0  0  0  0  0  0  0  0  0  0  0  0
    3.8991    1.8043    8.5047 H   0  0  0  0  0  0  0  0  0  0  0  0
    5.9190    2.1893    7.8915 C   0  0  0  0  0  0  0  0  0  0  0  0
    6.3422    1.9556    8.8566 H   0  0  0  0  0  0  0  0  0  0  0  0
    6.7475    2.5401    6.8411 C   0  0  0  0  0  0  0  0  0  0  0  0
    7.8162    2.5837    6.9900 H   0  0  0  0  0  0  0  0  0  0  0  0
    6.2280    2.8227    5.5859 C   0  0  0  0  0  0  0  0  0  0  0  0
    6.8939    3.0689    4.7735 H   0  0  0  0  0  0  0  0  0  0  0  0
    4.8566    2.7685    5.4001 C   0  0  0  0  0  0  0  0  0  0  0  0
    4.9081    3.0614    3.0218 C   0  0  0  0  0  0  0  0  0  0  0  0
    5.5700    3.9333    2.9794 H   0  0  0  0  0  0  0  0  0  0  0  0
    4.1458    3.1425    2.2434 H   0  0  0  0  0  0  0  0  0  0  0  0
    5.4910    2.1434    2.8878 H   0  0  0  0  0  0  0  0  0  0  0  0
    1.7376    3.9665    5.7563 C   0  0  0  0  0  0  0  0  0  0  0  0
    0.6729    4.2366    4.9135 C   0  0  0  0  0  0  0  0  0  0  0  0
    0.2340    5.5298    4.7141 C   0  0  0  0  0  0  0  0  0  0  0  0
   -0.5978    5.6893    4.0456 H   0  0  0  0  0  0  0  0  0  0  0  0
    0.8646    6.5735    5.3677 C   0  0  0  0  0  0  0  0  0  0  0  0
    0.5205    7.5879    5.2255 H   0  0  0  0  0  0  0  0  0  0  0  0
    1.9578    6.3311    6.1977 C   0  0  0  0  0  0  0  0  0  0  0  0
    2.3934    5.0266    6.3780 C   0  0  0  0  0  0  0  0  0  0  0  0
    3.2444    4.8215    7.0121 H   0  0  0  0  0  0  0  0  0  0  0  0
    2.6440    7.4732    6.8867 C   0  0  0  0  0  0  0  0  0  0  0  0
    3.5298    7.1328    7.4165 H   0  0  0  0  0  0  0  0  0  0  0  0
    1.9684    7.9417    7.6018 H   0  0  0  0  0  0  0  0  0  0  0  0
    2.9379    8.2326    6.1642 H   0  0  0  0  0  0  0  0  0  0  0  0
    2.2939    0.2753    1.1579 C   0  0  0  0  0  3  0  0  0  0  0  0
    3.2644    0.7629    1.1723 H   0  0  0  0  0  0  0  0  0  0  0  0
    1.6746   -0.0702   -0.0316 C   0  0  0  0  0  0  0  0  0  0  0  0
    2.1481    0.1569   -0.9739 H   0  0  0  0  0  0  0  0  0  0  0  0
    0.4419   -0.7024    0.0146 C   0  0  0  0  0  0  0  0  0  0  0  0
   -0.0707   -0.9778   -0.8945 H   0  0  0  0  0  0  0  0  0  0  0  0
   -0.1206   -0.9725    1.2537 C   0  0  0  0  0  0  0  0  0  0  0  0
   -1.0782   -1.4621    1.3337 H   0  0  0  0  0  0  0  0  0  0  0  0
    0.5640   -0.5954    2.3958 C   0  0  0  0  0  0  0  0  0  0  0  0
    0.1562   -0.7832    3.3906 H   0  0  0  0  0  0  0  0  0  0  0  0
    3.5856   -0.4297    4.7895 Cl  0  0  0  0  0  0  0  0  0  0  0  0
    1.7467    0.0180    2.3421 N   0  0  0  0  0  0  0  0  0  0  0  0
    1.7077    3.3656    8.5807 O   0  0  0  0  0  0  0  0  0  0  0  0
    4.1889    3.0240    4.2392 O   0  0  0  0  0  0  0  0  0  0  0  0
   -1.2133    3.3205    3.3380 O   0  0  0  0  0  1  0  0  0  0  0  0
   -0.1694    1.7688    4.9154 O   0  0  0  0  0  1  0  0  0  0  0  0
    1.0679    2.5830    2.9902 O   0  0  0  0  0  0  0  0  0  0  0  0
    2.2838    2.2401    5.9183 P   0  0  0  0  0  4  0  0  0  0  0  0
    2.1410    1.0724    4.0206 Pd  0  0  2  0  0  0  0  0  0  0  0  0
   -0.0021    2.8749    3.9725 S   0  0  0  0  0  0  0  0  0  0  0  0
  1 10  1  0  0  0  0
  2  1  2  0  0  0  0
  2  4  1  0  0  0  0
  3  2  1  0  0  0  0
  4  6  2  0  0  0  0
  5  4  1  0  0  0  0
  6  8  1  0  0  0  0
  6  7  1  0  0  0  0
  8  9  1  0  0  0  0
 10 54  1  0  0  0  0
 10  8  2  0  0  0  0
 11 12  1  0  0  0  0
 11 14  1  0  0  0  0
 13 11  1  0  0  0  0
 15 16  1  0  0  0  0
 16 18  2  0  0  0  0
 16 17  1  0  0  0  0
 18 19  1  0  0  0  0
 20 21  1  0  0  0  0
 20 18  1  0  0  0  0
 22 20  2  0  0  0  0
 23 22  1  0  0  0  0
 24 22  1  0  0  0  0
 24 15  2  0  0  0  0
 25 55  1  0  0  0  0
 26 25  1  0  0  0  0
 27 25  1  0  0  0  0
 28 25  1  0  0  0  0
 29 59  1  0  0  0  0
 29 36  1  0  0  0  0
 30 29  2  0  0  0  0
 31 30  1  0  0  0  0
 31 33  2  0  0  0  0
 32 31  1  0  0  0  0
 33 35  1  0  0  0  0
 34 33  1  0  0  0  0
 35 36  2  0  0  0  0
 35 38  1  0  0  0  0
 36 37  1  0  0  0  0
 38 39  1  0  0  0  0
 38 40  1  0  0  0  0
 41 38  1  0  0  0  0
 42 43  1  0  0  0  0
 42 53  1  0  0  0  0
 44 46  2  0  0  0  0
 44 42  1  0  0  0  0
 45 44  1  0  0  0  0
 46 48  1  0  0  0  0
 47 46  1  0  0  0  0
 48 49  1  0  0  0  0
 48 50  2  0  0  0  0
 50 51  1  0  0  0  0
 53 50  1  0  0  0  0
 53 60  1  0  0  0  0
 54 11  1  0  0  0  0
 55 24  1  0  0  0  0
 56 61  1  0  0  0  0
 58 61  1  0  0  0  0
 58 60  1  0  0  0  0
 59 15  1  0  0  0  0
 59  1  1  0  0  0  0
 60 52  1  6  0  0  0
 60 59  1  0  0  0  0
 61 30  1  0  0  0  0
 61 57  1  0  0  0  0
M  END
$$$$
