CSD_code = EPAWOI | q = 0 | S = 0 | Stoichiometry = C24H16Cl2N6Zn | MND = 4
 OpenBabel04212202033D

 49 55  0  0  1  0  0  0  0  0999 V2000
    4.6522    8.5055    8.6177 Zn  0  0  0  0  0  0  0  0  0  0  0  0
    6.6805    7.6728    8.2826 Cl  0  0  0  0  0  0  0  0  0  0  0  0
    5.1051    9.5162   10.3945 N   0  0  0  0  0  0  0  0  0  0  0  0
    6.6425   10.5938   11.5660 N   0  0  0  0  0  0  0  0  0  0  0  0
    7.3802   11.2451   11.7779 H   0  0  0  0  0  0  0  0  0  0  0  0
    5.5463   12.1937    7.1635 N   0  0  0  0  0  0  0  0  0  0  0  0
    5.3448   11.6616    8.3592 C   0  0  0  0  0  0  0  0  0  0  0  0
    6.3881   11.1413    9.1410 C   0  0  0  0  0  0  0  0  0  0  0  0
    7.6860   11.2336    8.6509 C   0  0  0  0  0  0  0  0  0  0  0  0
    8.5107   10.8200    9.2123 H   0  0  0  0  0  0  0  0  0  0  0  0
    7.8878   11.8096    7.4087 C   0  0  0  0  0  0  0  0  0  0  0  0
    8.8777   11.8878    6.9887 H   0  0  0  0  0  0  0  0  0  0  0  0
    6.7815   12.2520    6.6986 C   0  0  0  0  0  0  0  0  0  0  0  0
    6.8817   12.6783    5.7093 H   0  0  0  0  0  0  0  0  0  0  0  0
    6.0519   10.4269   10.3599 C   0  0  1  0  0  3  0  0  0  0  0  0
    5.0550    9.0526   11.6857 C   0  0  0  0  0  0  0  0  0  0  0  0
    4.2393    8.0902   12.2691 C   0  0  0  0  0  0  0  0  0  0  0  0
    3.4988    7.5721   11.6810 H   0  0  0  0  0  0  0  0  0  0  0  0
    4.4262    7.8407   13.6122 C   0  0  0  0  0  0  0  0  0  0  0  0
    3.8145    7.0991   14.1028 H   0  0  0  0  0  0  0  0  0  0  0  0
    5.3903    8.5206   14.3616 C   0  0  0  0  0  0  0  0  0  0  0  0
    5.4996    8.2870   15.4099 H   0  0  0  0  0  0  0  0  0  0  0  0
    6.2070    9.4799   13.7966 C   0  0  0  0  0  0  0  0  0  0  0  0
    6.9522   10.0027   14.3762 H   0  0  0  0  0  0  0  0  0  0  0  0
    6.0261    9.7365   12.4469 C   0  0  0  0  0  0  0  0  0  0  0  0
    2.6235    7.6736    8.9531 Cl  0  0  0  0  0  0  0  0  0  0  0  0
    4.1995    9.5160    6.8408 N   0  0  0  0  0  0  0  0  0  0  0  0
    2.6625   10.5939    5.6691 N   0  0  0  0  0  0  0  0  0  0  0  0
    1.9250   11.2454    5.4571 H   0  0  0  0  0  0  0  0  0  0  0  0
    3.7584   12.1937   10.0717 N   0  0  0  0  0  0  0  0  0  0  0  0
    3.9599   11.6616    8.8760 C   0  0  0  0  0  0  0  0  0  0  0  0
    2.9166   11.1413    8.0942 C   0  0  0  0  0  0  0  0  0  0  0  0
    1.6186   11.2335    8.5843 C   0  0  0  0  0  0  0  0  0  0  0  0
    0.7940   10.8199    8.0228 H   0  0  0  0  0  0  0  0  0  0  0  0
    1.4169   11.8095    9.8265 C   0  0  0  0  0  0  0  0  0  0  0  0
    0.4270   11.8876   10.2465 H   0  0  0  0  0  0  0  0  0  0  0  0
    2.5231   12.2519   10.5366 C   0  0  0  0  0  0  0  0  0  0  0  0
    2.4229   12.6783   11.5258 H   0  0  0  0  0  0  0  0  0  0  0  0
    3.2529   10.4268    6.8753 C   0  0  1  0  0  3  0  0  0  0  0  0
    4.2498    9.0525    5.5496 C   0  0  0  0  0  0  0  0  0  0  0  0
    5.0655    8.0900    4.9663 C   0  0  0  0  0  0  0  0  0  0  0  0
    5.8057    7.5718    5.5544 H   0  0  0  0  0  0  0  0  0  0  0  0
    4.8787    7.8406    3.6231 C   0  0  0  0  0  0  0  0  0  0  0  0
    5.4904    7.0989    3.1326 H   0  0  0  0  0  0  0  0  0  0  0  0
    3.9149    8.5207    2.8736 C   0  0  0  0  0  0  0  0  0  0  0  0
    3.8058    8.2872    1.8253 H   0  0  0  0  0  0  0  0  0  0  0  0
    3.0983    9.4801    3.4385 C   0  0  0  0  0  0  0  0  0  0  0  0
    2.3532   10.0031    2.8588 H   0  0  0  0  0  0  0  0  0  0  0  0
    3.2789    9.7366    4.7883 C   0  0  0  0  0  0  0  0  0  0  0  0
  1 26  1  0  0  0  0
  1  3  1  0  0  0  0
  2  1  1  0  0  0  0
  3 16  1  0  0  0  0
  4  5  1  0  0  0  0
  4 25  1  0  0  0  0
  6  7  1  0  0  0  0
  7 31  1  0  0  0  0
  7  8  2  0  0  0  0
  9  8  1  0  0  0  0
  9 10  1  0  0  0  0
 11  9  2  0  0  0  0
 12 11  1  0  0  0  0
 13  6  2  0  0  0  0
 13 11  1  0  0  0  0
 14 13  1  0  0  0  0
 15  8  1  6  0  0  0
 15  3  1  0  0  0  0
 15  4  1  0  0  0  0
 16 17  2  0  0  0  0
 16 25  1  0  0  0  0
 17 19  1  0  0  0  0
 18 17  1  0  0  0  0
 19 20  1  0  0  0  0
 19 21  2  0  0  0  0
 21 22  1  0  0  0  0
 23 21  1  0  0  0  0
 23 24  1  0  0  0  0
 25 23  2  0  0  0  0
 27 39  1  0  0  0  0
 27  1  1  0  0  0  0
 28 39  1  0  0  0  0
 29 28  1  0  0  0  0
 30 37  1  0  0  0  0
 31 30  2  0  0  0  0
 32 33  2  0  0  0  0
 32 31  1  0  0  0  0
 33 35  1  0  0  0  0
 34 33  1  0  0  0  0
 35 36  1  0  0  0  0
 35 37  2  0  0  0  0
 37 38  1  0  0  0  0
 39 32  1  1  0  0  0
 40 27  1  0  0  0  0
 41 40  1  0  0  0  0
 41 42  1  0  0  0  0
 43 41  2  0  0  0  0
 44 43  1  0  0  0  0
 45 47  2  0  0  0  0
 45 43  1  0  0  0  0
 46 45  1  0  0  0  0
 47 49  1  0  0  0  0
 48 47  1  0  0  0  0
 49 40  2  0  0  0  0
 49 28  1  0  0  0  0
M  END
$$$$
