CSD_code = EPEBIL | q = 0 | S = 0 | Stoichiometry = C5H14Cl2N2Pt | MND = 4
 OpenBabel04212202033D

 24 24  0  0  0  0  0  0  0  0999 V2000
    3.5662    5.5879    2.9356 Pt  0  0  0  0  0  0  0  0  0  0  0  0
    5.5422    6.4102    3.6167 Cl  0  0  0  0  0  0  0  0  0  0  0  0
    4.0694    6.0778    0.7954 Cl  0  0  0  0  0  0  0  0  0  0  0  0
    1.7103    4.9668    2.0966 N   0  0  0  0  0  4  0  0  0  0  0  0
    1.3466    5.8754    1.8021 H   0  0  0  0  0  0  0  0  0  0  0  0
    1.9885    4.4840    1.2405 H   0  0  0  0  0  0  0  0  0  0  0  0
    3.0310    5.1017    4.9769 N   0  0  0  0  0  4  0  0  0  0  0  0
    0.7014    4.2261    2.8472 C   0  0  0  0  0  0  0  0  0  0  0  0
    0.9803    3.1693    2.8623 H   0  0  0  0  0  0  0  0  0  0  0  0
   -0.2826    4.3085    2.3671 H   0  0  0  0  0  0  0  0  0  0  0  0
    0.6091    4.7471    4.2815 C   0  0  0  0  0  0  0  0  0  0  0  0
   -0.2981    4.3477    4.7377 H   0  0  0  0  0  0  0  0  0  0  0  0
    0.5194    5.8342    4.2631 H   0  0  0  0  0  0  0  0  0  0  0  0
    1.7991    4.3154    5.1416 C   0  0  0  0  0  0  0  0  0  0  0  0
    1.5022    4.3536    6.2002 H   0  0  0  0  0  0  0  0  0  0  0  0
    2.0289    3.2739    4.9011 H   0  0  0  0  0  0  0  0  0  0  0  0
    2.9075    6.3851    5.6743 C   0  0  0  0  0  0  0  0  0  0  0  0
    2.7061    6.2291    6.7411 H   0  0  0  0  0  0  0  0  0  0  0  0
    2.1000    6.9779    5.2473 H   0  0  0  0  0  0  0  0  0  0  0  0
    3.8394    6.9380    5.5624 H   0  0  0  0  0  0  0  0  0  0  0  0
    4.1278    4.3441    5.5916 C   0  0  0  0  0  0  0  0  0  0  0  0
    3.9011    4.1170    6.6398 H   0  0  0  0  0  0  0  0  0  0  0  0
    5.0424    4.9319    5.5365 H   0  0  0  0  0  0  0  0  0  0  0  0
    4.2845    3.4127    5.0482 H   0  0  0  0  0  0  0  0  0  0  0  0
  1  2  1  0  0  0  0
  1  7  1  0  0  0  0
  3  1  1  0  0  0  0
  4  8  1  0  0  0  0
  4  1  1  0  0  0  0
  5  4  1  0  0  0  0
  6  4  1  0  0  0  0
  7 14  1  0  0  0  0
  7 21  1  0  0  0  0
  7 17  1  0  0  0  0
  8  9  1  0  0  0  0
  8 11  1  0  0  0  0
 10  8  1  0  0  0  0
 11 12  1  0  0  0  0
 11 14  1  0  0  0  0
 13 11  1  0  0  0  0
 14 15  1  0  0  0  0
 16 14  1  0  0  0  0
 17 18  1  0  0  0  0
 19 17  1  0  0  0  0
 20 17  1  0  0  0  0
 21 22  1  0  0  0  0
 23 21  1  0  0  0  0
 24 21  1  0  0  0  0
M  END
$$$$
