CSD_code = EPIKIY | q = 1 | S = 0 | Stoichiometry = C18H29BrN7NiS6(1+) | MND = 6
 OpenBabel04212202033D

 62 65  0  0  1  0  0  0  0  0999 V2000
    2.9407    3.3400   13.9295 C   0  0  0  0  0  0  0  0  0  0  0  0
    2.6999    5.0227   16.0802 C   0  0  0  0  0  0  0  0  0  0  0  0
    2.4441    5.8363   15.4069 H   0  0  0  0  0  0  0  0  0  0  0  0
    3.1897    5.4025   16.9711 H   0  0  0  0  0  0  0  0  0  0  0  0
    1.8108    4.4574   16.3458 H   0  0  0  0  0  0  0  0  0  0  0  0
    4.8789    1.9404   13.4297 C   0  0  0  0  0  0  0  0  0  0  0  0
    5.5560    2.7950   13.5096 H   0  0  0  0  0  0  0  0  0  0  0  0
    5.2196    1.3183   12.6058 H   0  0  0  0  0  0  0  0  0  0  0  0
    4.9128    1.3824   14.3659 H   0  0  0  0  0  0  0  0  0  0  0  0
    2.7894    0.9889   11.4804 C   0  0  2  0  0  3  0  0  0  0  0  0
    3.0260   -0.2657   12.2485 C   0  0  0  0  0  0  0  0  0  0  0  0
    3.9187   -0.7754   11.8857 H   0  0  0  0  0  0  0  0  0  0  0  0
    2.1858   -0.9447   12.1251 H   0  0  0  0  0  0  0  0  0  0  0  0
    3.1419   -0.0560   13.3083 H   0  0  0  0  0  0  0  0  0  0  0  0
    2.3579    0.9187   10.0798 C   0  0  2  0  0  3  0  0  0  0  0  0
    1.7358   -0.1977    9.5233 C   0  0  0  0  0  0  0  0  0  0  0  0
    1.4839   -1.0479   10.1341 H   0  0  0  0  0  0  0  0  0  0  0  0
    1.4404   -0.2013    8.1715 C   0  0  0  0  0  0  0  0  0  0  0  0
    0.9512   -1.0519    7.7240 H   0  0  0  0  0  0  0  0  0  0  0  0
    1.8040    0.8837    7.3935 C   0  0  0  0  0  0  0  0  0  0  0  0
    1.6063    0.8811    6.3351 H   0  0  0  0  0  0  0  0  0  0  0  0
    2.4235    1.9760    7.9983 C   0  0  0  0  0  0  0  0  0  0  0  0
    2.9205    3.1377    7.2526 C   0  0  2  0  0  3  0  0  0  0  0  0
    3.2302    3.0133    5.8006 C   0  0  0  0  0  0  0  0  0  0  0  0
    2.4012    2.5394    5.2805 H   0  0  0  0  0  0  0  0  0  0  0  0
    4.1138    2.3934    5.6480 H   0  0  0  0  0  0  0  0  0  0  0  0
    3.3988    3.9897    5.3547 H   0  0  0  0  0  0  0  0  0  0  0  0
    5.0741    5.2327    6.9938 C   0  0  0  0  0  0  0  0  0  0  0  0
    5.1730    5.6766    6.0028 H   0  0  0  0  0  0  0  0  0  0  0  0
    5.3893    4.1923    6.9754 H   0  0  0  0  0  0  0  0  0  0  0  0
    5.7293    5.7714    7.6836 H   0  0  0  0  0  0  0  0  0  0  0  0
    3.1224    6.4966    7.7434 C   0  0  0  0  0  0  0  0  0  0  0  0
    2.9487    9.2274    7.9087 C   0  0  0  0  0  0  0  0  0  0  0  0
    2.0949    9.1491    7.2413 H   0  0  0  0  0  0  0  0  0  0  0  0
    3.4738   10.1632    7.7467 H   0  0  0  0  0  0  0  0  0  0  0  0
    2.6291    9.1407    8.9437 H   0  0  0  0  0  0  0  0  0  0  0  0
    2.9144    6.2058   11.4163 C   0  0  1  0  0  3  0  0  0  0  0  0
    4.9149    7.9374   12.2119 C   0  0  0  0  0  0  0  0  0  0  0  0
    5.3273    7.1541   12.8410 H   0  0  0  0  0  0  0  0  0  0  0  0
    5.1027    8.9124   12.6517 H   0  0  0  0  0  0  0  0  0  0  0  0
    5.3343    7.8876   11.2112 H   0  0  0  0  0  0  0  0  0  0  0  0
    0.4690    6.4589   11.5187 C   0  0  0  0  0  0  0  0  0  0  0  0
    0.6862    7.3841   12.0448 H   0  0  0  0  0  0  0  0  0  0  0  0
   -0.1510    5.8271   12.1584 H   0  0  0  0  0  0  0  0  0  0  0  0
   -0.0709    6.6921   10.5981 H   0  0  0  0  0  0  0  0  0  0  0  0
    3.5344    2.4092   13.1583 N   0  0  0  0  0  0  0  0  0  0  0  0
    2.9691    2.1877   11.9269 N   0  0  0  0  0  0  0  0  0  0  0  0
    2.6562    1.9857    9.3210 N   0  0  0  0  0  0  0  0  0  0  0  0
    3.0859    4.2003    7.9680 N   0  0  0  0  0  0  0  0  0  0  0  0
    3.7037    5.3155    7.4586 N   0  0  0  0  0  0  0  0  0  0  0  0
    1.6872    5.7595   11.2006 N   0  0  0  0  0  0  0  0  0  0  0  0
    1.5325    4.5100   10.5819 N   0  0  0  0  0  4  0  0  0  0  0  0
    1.0089    4.6503    9.7063 H   0  0  0  0  0  0  0  0  0  0  0  0
    0.9889    3.9054   11.2152 H   0  0  0  0  0  0  0  0  0  0  0  0
    1.3855    3.8205   13.6355 S   0  0  0  0  0  0  0  0  0  0  0  0
    3.8895    3.9240   15.2802 S   0  0  0  0  0  0  0  0  0  0  0  0
    1.5346    6.5680    8.2007 S   0  0  0  0  0  0  0  0  0  0  0  0
    4.1278    7.9138    7.5253 S   0  0  0  0  0  0  0  0  0  0  0  0
    4.2660    5.2895   11.0149 S   0  0  0  0  0  0  0  0  0  0  0  0
    3.1150    7.7797   12.1320 S   0  0  0  0  0  0  0  0  0  0  0  0
    3.3797    3.5413   10.1319 Ni  0  0  0  0  0  0  0  0  0  0  0  0
    5.4881    2.7643    9.8049 Br  0  0  0  0  0  0  0  0  0  0  0  0
  1 56  1  0  0  0  0
  2  5  1  0  0  0  0
  2  4  1  0  0  0  0
  3  2  1  0  0  0  0
  6  7  1  0  0  0  0
  6  9  1  0  0  0  0
  8  6  1  0  0  0  0
 10 47  1  0  0  0  0
 10 11  1  6  0  0  0
 11 14  1  0  0  0  0
 12 11  1  0  0  0  0
 13 11  1  0  0  0  0
 15 16  1  6  0  0  0
 15 10  1  0  0  0  0
 16 17  1  0  0  0  0
 18 16  2  0  0  0  0
 19 18  1  0  0  0  0
 20 22  2  0  0  0  0
 20 18  1  0  0  0  0
 21 20  1  0  0  0  0
 22 48  1  0  0  0  0
 23 24  1  1  0  0  0
 23 49  1  0  0  0  0
 23 22  1  0  0  0  0
 25 24  1  0  0  0  0
 26 24  1  0  0  0  0
 27 24  1  0  0  0  0
 28 50  1  0  0  0  0
 28 31  1  0  0  0  0
 29 28  1  0  0  0  0
 30 28  1  0  0  0  0
 32 57  2  0  0  0  0
 33 36  1  0  0  0  0
 34 33  1  0  0  0  0
 35 33  1  0  0  0  0
 37 60  1  6  0  0  0
 38 40  1  0  0  0  0
 38 39  1  0  0  0  0
 41 38  1  0  0  0  0
 42 43  1  0  0  0  0
 42 44  1  0  0  0  0
 45 42  1  0  0  0  0
 46  6  1  0  0  0  0
 46  1  1  0  0  0  0
 47 46  1  0  0  0  0
 48 15  1  0  0  0  0
 48 61  1  0  0  0  0
 49 61  1  0  0  0  0
 50 32  1  0  0  0  0
 50 49  1  0  0  0  0
 51 37  1  0  0  0  0
 51 42  1  0  0  0  0
 52 51  1  0  0  0  0
 52 54  1  0  0  0  0
 53 52  1  0  0  0  0
 55  1  2  0  0  0  0
 56  2  1  0  0  0  0
 58 32  1  0  0  0  0
 58 33  1  0  0  0  0
 59 37  1  0  0  0  0
 60 38  1  0  0  0  0
 61 52  1  0  0  0  0
 61 59  1  0  0  0  0
 61 47  1  0  0  0  0
 62 61  1  0  0  0  0
M  END
$$$$
