CSD_code = EPOLOL | q = 0 | S = 0 | Stoichiometry = C28H34IN3O2Pd | MND = 4
 OpenBabel04212202033D

 69 72  0  0  0  0  0  0  0  0999 V2000
    3.2602    7.2931    2.0197 Pd  0  0  2  0  0  0  0  0  0  0  0  0
    1.7297    5.4883    2.9682 I   0  0  0  0  0  0  0  0  0  0  0  0
    8.3737    5.4196    2.2444 N   0  0  0  0  0  0  0  0  0  0  0  0
    8.1810    4.4312    2.2739 H   0  0  0  0  0  0  0  0  0  0  0  0
    5.4489    5.7650    2.1461 O   0  0  0  0  0  0  0  0  0  0  0  0
    7.8111    7.4389    3.0762 O   0  0  0  0  0  0  0  0  0  0  0  0
    4.7708    6.4597    2.8574 C   0  0  0  0  0  0  0  0  0  0  0  0
    5.0166    6.8501    4.2601 C   0  0  0  0  0  0  0  0  0  0  0  0
    6.1156    6.3591    4.9801 C   0  0  0  0  0  0  0  0  0  0  0  0
    6.2732    6.7504    6.3020 C   0  0  0  0  0  0  0  0  0  0  0  0
    7.1153    6.3753    6.8662 H   0  0  0  0  0  0  0  0  0  0  0  0
    5.3746    7.6115    6.9059 C   0  0  0  0  0  0  0  0  0  0  0  0
    5.5158    7.8970    7.9378 H   0  0  0  0  0  0  0  0  0  0  0  0
    4.3004    8.1156    6.1879 C   0  0  0  0  0  0  0  0  0  0  0  0
    3.6053    8.7960    6.6564 H   0  0  0  0  0  0  0  0  0  0  0  0
    4.1231    7.7350    4.8742 C   0  0  0  0  0  0  0  0  0  0  0  0
    3.2674    8.1239    4.2991 H   0  0  0  0  0  0  0  0  0  0  0  0
    7.1226    5.4771    4.3096 C   0  0  0  0  0  0  0  0  0  0  0  0
    6.6437    4.5708    3.9333 H   0  0  0  0  0  0  0  0  0  0  0  0
    7.9088    5.1963    5.0147 H   0  0  0  0  0  0  0  0  0  0  0  0
    7.7722    6.2254    3.1420 C   0  0  0  0  0  0  0  0  0  0  0  0
    8.9655    5.9320    1.0327 C   0  0  0  0  0  0  0  0  0  0  0  0
    8.3341    5.7191    0.1669 H   0  0  0  0  0  0  0  0  0  0  0  0
    9.9509    5.4896    0.8796 H   0  0  0  0  0  0  0  0  0  0  0  0
    9.0627    7.0105    1.1462 H   0  0  0  0  0  0  0  0  0  0  0  0
    4.4471    8.8988    1.1928 N   0  0  0  0  0  0  0  0  0  0  0  0
    3.8241    9.6702    0.2847 C   0  0  0  0  0  0  0  0  0  0  0  0
    4.3847   10.8627   -0.1565 C   0  0  0  0  0  0  0  0  0  0  0  0
    3.8297   11.4747   -0.8489 H   0  0  0  0  0  0  0  0  0  0  0  0
    5.6314   11.2789    0.3016 C   0  0  0  0  0  0  0  0  0  0  0  0
    6.2638   10.4413    1.2148 C   0  0  0  0  0  0  0  0  0  0  0  0
    7.2353   10.6654    1.6189 H   0  0  0  0  0  0  0  0  0  0  0  0
    5.6383    9.2799    1.6374 C   0  0  0  0  0  0  0  0  0  0  0  0
    6.1437    8.6334    2.3465 H   0  0  0  0  0  0  0  0  0  0  0  0
    6.2245   12.5839   -0.1940 C   0  0  0  0  0  0  0  0  0  0  0  0
    6.3532   12.5255   -1.7229 C   0  0  0  0  0  0  0  0  0  0  0  0
    6.8050   13.4432   -2.0921 H   0  0  0  0  0  0  0  0  0  0  0  0
    5.3848   12.4100   -2.2024 H   0  0  0  0  0  0  0  0  0  0  0  0
    6.9838   11.6889   -2.0172 H   0  0  0  0  0  0  0  0  0  0  0  0
    7.6094   12.8531    0.3984 C   0  0  0  0  0  0  0  0  0  0  0  0
    8.3093   12.0646    0.1321 H   0  0  0  0  0  0  0  0  0  0  0  0
    7.5626   12.9372    1.4816 H   0  0  0  0  0  0  0  0  0  0  0  0
    7.9946   13.7913    0.0052 H   0  0  0  0  0  0  0  0  0  0  0  0
    5.2894   13.7330    0.2094 C   0  0  0  0  0  0  0  0  0  0  0  0
    5.7030   14.6821   -0.1231 H   0  0  0  0  0  0  0  0  0  0  0  0
    5.1777   13.7661    1.2912 H   0  0  0  0  0  0  0  0  0  0  0  0
    4.3026   13.6196   -0.2320 H   0  0  0  0  0  0  0  0  0  0  0  0
    1.8618    8.3365    0.5864 N   0  0  0  0  0  0  0  0  0  0  0  0
    2.5196    9.1912   -0.2116 C   0  0  0  0  0  0  0  0  0  0  0  0
    2.0020    9.5789   -1.4423 C   0  0  0  0  0  0  0  0  0  0  0  0
    2.5799   10.2354   -2.0728 H   0  0  0  0  0  0  0  0  0  0  0  0
    0.7666    9.1028   -1.8743 C   0  0  0  0  0  0  0  0  0  0  0  0
    0.1037    8.2281   -1.0191 C   0  0  0  0  0  0  0  0  0  0  0  0
   -0.8557    7.8092   -1.2683 H   0  0  0  0  0  0  0  0  0  0  0  0
    0.6888    7.8711    0.1846 C   0  0  0  0  0  0  0  0  0  0  0  0
    0.1870    7.1865    0.8591 H   0  0  0  0  0  0  0  0  0  0  0  0
    0.2105    9.5447   -3.2150 C   0  0  0  0  0  0  0  0  0  0  0  0
    1.1891    9.1314   -4.3233 C   0  0  0  0  0  0  0  0  0  0  0  0
    0.7936    9.4220   -5.2937 H   0  0  0  0  0  0  0  0  0  0  0  0
    1.3313    8.0527   -4.3185 H   0  0  0  0  0  0  0  0  0  0  0  0
    2.1599    9.6042   -4.1982 H   0  0  0  0  0  0  0  0  0  0  0  0
   -1.1526    8.9163   -3.5137 C   0  0  0  0  0  0  0  0  0  0  0  0
   -1.8873    9.1973   -2.7625 H   0  0  0  0  0  0  0  0  0  0  0  0
   -1.0826    7.8318   -3.5576 H   0  0  0  0  0  0  0  0  0  0  0  0
   -1.5094    9.2685   -4.4791 H   0  0  0  0  0  0  0  0  0  0  0  0
    0.0484   11.0717   -3.2022 C   0  0  0  0  0  0  0  0  0  0  0  0
    1.0022   11.5737   -3.0614 H   0  0  0  0  0  0  0  0  0  0  0  0
   -0.6201   11.3743   -2.3984 H   0  0  0  0  0  0  0  0  0  0  0  0
   -0.3747   11.4076   -4.1460 H   0  0  0  0  0  0  0  0  0  0  0  0
  1  7  1  0  0  0  0
  1  2  1  1  0  0  0
  3  4  1  0  0  0  0
  3 21  1  0  0  0  0
  5  7  2  0  0  0  0
  6 21  2  0  0  0  0
  7  8  1  0  0  0  0
  8 16  2  0  0  0  0
  8  9  1  0  0  0  0
  9 10  2  0  0  0  0
 10 11  1  0  0  0  0
 10 12  1  0  0  0  0
 12 13  1  0  0  0  0
 14 15  1  0  0  0  0
 14 12  2  0  0  0  0
 16 14  1  0  0  0  0
 17 16  1  0  0  0  0
 18  9  1  0  0  0  0
 18 20  1  0  0  0  0
 19 18  1  0  0  0  0
 21 18  1  0  0  0  0
 22 25  1  0  0  0  0
 22  3  1  0  0  0  0
 23 22  1  0  0  0  0
 24 22  1  0  0  0  0
 26 33  1  0  0  0  0
 26  1  1  0  0  0  0
 27 26  1  0  0  0  0
 28 27  1  0  0  0  0
 28 30  2  0  0  0  0
 29 28  1  0  0  0  0
 30 31  1  0  0  0  0
 31 32  1  0  0  0  0
 31 33  2  0  0  0  0
 33 34  1  0  0  0  0
 35 44  1  0  0  0  0
 35 30  1  0  0  0  0
 35 40  1  0  0  0  0
 36 35  1  0  0  0  0
 37 36  1  0  0  0  0
 38 36  1  0  0  0  0
 39 36  1  0  0  0  0
 40 42  1  0  0  0  0
 41 40  1  0  0  0  0
 43 40  1  0  0  0  0
 44 46  1  0  0  0  0
 45 44  1  0  0  0  0
 47 44  1  0  0  0  0
 48  1  1  0  0  0  0
 49 27  2  0  0  0  0
 49 48  1  0  0  0  0
 50 49  1  0  0  0  0
 51 50  1  0  0  0  0
 52 50  2  0  0  0  0
 52 53  1  0  0  0  0
 53 55  2  0  0  0  0
 54 53  1  0  0  0  0
 55 48  1  0  0  0  0
 55 56  1  0  0  0  0
 57 66  1  0  0  0  0
 57 52  1  0  0  0  0
 58 60  1  0  0  0  0
 58 61  1  0  0  0  0
 58 57  1  0  0  0  0
 59 58  1  0  0  0  0
 62 57  1  0  0  0  0
 62 63  1  0  0  0  0
 64 62  1  0  0  0  0
 65 62  1  0  0  0  0
 66 67  1  0  0  0  0
 66 68  1  0  0  0  0
 69 66  1  0  0  0  0
M  END
$$$$
