CSD_code = EPUKIK | q = 0 | S = 0 | Stoichiometry = C26H32Cl2N4O2P2Pd | MND = 4
 OpenBabel04212202033D

 69 72  0  0  0  0  0  0  0  0999 V2000
    9.5411   12.8129    8.6568 Pd  0  0  0  0  0  0  0  0  0  0  0  0
    7.7455   11.5040    8.4788 Cl  0  0  0  0  0  0  0  0  0  0  0  0
   10.1667   11.9896   10.8481 Cl  0  0  0  0  0  0  0  0  0  0  0  0
    9.1882   13.6905    6.6320 P   0  0  2  0  0  0  0  0  0  0  0  0
   11.7124   13.1089   10.3095 P   0  0  1  0  0  4  0  0  0  0  0  0
    9.9357   14.9585    6.4922 O   0  0  0  0  0  0  0  0  0  0  0  0
   12.0542   15.7963   11.1271 N   0  0  0  0  0  0  0  0  0  0  0  0
   11.6889   13.3894    8.8594 O   0  0  0  0  0  0  0  0  0  0  0  0
   11.2400   14.4001   12.6406 N   0  0  0  0  0  0  0  0  0  0  0  0
    6.5392   13.7236    5.5720 N   0  0  0  0  0  0  0  0  0  0  0  0
    7.4139   14.0338    6.4933 C   0  0  0  0  0  0  0  0  0  0  0  0
    6.8456   14.7712    7.4900 N   0  0  0  0  0  0  0  0  0  0  0  0
   11.4551   15.5970   13.2227 C   0  0  0  0  0  0  0  0  0  0  0  0
   11.2344   15.7567   14.2588 H   0  0  0  0  0  0  0  0  0  0  0  0
   11.5848   14.5446   11.3769 C   0  0  0  0  0  0  0  0  0  0  0  0
    8.0490   16.5959    8.5258 C   0  0  0  0  0  0  0  0  0  0  0  0
    7.9425   17.1548    7.6087 H   0  0  0  0  0  0  0  0  0  0  0  0
   11.9678   16.4744   12.3025 C   0  0  0  0  0  0  0  0  0  0  0  0
   12.2524   17.5034   12.3831 H   0  0  0  0  0  0  0  0  0  0  0  0
   12.5411   16.3051    9.9035 C   0  0  0  0  0  0  0  0  0  0  0  0
    8.5914   11.3781    5.1333 C   0  0  0  0  0  0  0  0  0  0  0  0
    8.9345   10.6208    4.4293 H   0  0  0  0  0  0  0  0  0  0  0  0
    7.7163   11.8776    4.7260 H   0  0  0  0  0  0  0  0  0  0  0  0
    8.3011   10.8877    6.0595 H   0  0  0  0  0  0  0  0  0  0  0  0
   13.7909   16.9137    9.8776 C   0  0  0  0  0  0  0  0  0  0  0  0
   14.3746   16.9825   10.7849 H   0  0  0  0  0  0  0  0  0  0  0  0
   14.2811   17.4105    8.6840 C   0  0  0  0  0  0  0  0  0  0  0  0
   15.2540   17.8783    8.6616 H   0  0  0  0  0  0  0  0  0  0  0  0
    9.7005   12.3857    5.3881 C   0  0  0  0  0  0  0  0  0  0  0  0
   13.5306   17.2993    7.5241 C   0  0  0  0  0  0  0  0  0  0  0  0
   13.9219   17.6816    6.5936 H   0  0  0  0  0  0  0  0  0  0  0  0
    8.8305   16.4160   10.7892 C   0  0  0  0  0  0  0  0  0  0  0  0
    9.3172   16.8559   11.6478 H   0  0  0  0  0  0  0  0  0  0  0  0
    7.6673   14.5616    9.7806 C   0  0  0  0  0  0  0  0  0  0  0  0
    7.1462   13.6112    9.8813 H   0  0  0  0  0  0  0  0  0  0  0  0
    8.3256   15.1265   10.8698 C   0  0  0  0  0  0  0  0  0  0  0  0
    8.4059   14.5729   11.7966 H   0  0  0  0  0  0  0  0  0  0  0  0
   11.7787   16.2095    8.7495 C   0  0  0  0  0  0  0  0  0  0  0  0
   10.7996   15.7546    8.7643 H   0  0  0  0  0  0  0  0  0  0  0  0
   10.0758   13.1246    4.1099 C   0  0  0  0  0  0  0  0  0  0  0  0
   10.4524   12.4281    3.3618 H   0  0  0  0  0  0  0  0  0  0  0  0
   10.8391   13.8720    4.3173 H   0  0  0  0  0  0  0  0  0  0  0  0
    9.1985   13.6309    3.7115 H   0  0  0  0  0  0  0  0  0  0  0  0
   13.0898   11.6659   12.2542 C   0  0  0  0  0  0  0  0  0  0  0  0
   14.0412   11.2611   12.5945 H   0  0  0  0  0  0  0  0  0  0  0  0
   12.3361   10.8862   12.3392 H   0  0  0  0  0  0  0  0  0  0  0  0
   12.8044   12.4868   12.9103 H   0  0  0  0  0  0  0  0  0  0  0  0
    7.5290   15.3096    8.6033 C   0  0  0  0  0  0  0  0  0  0  0  0
   12.2824   16.7016    7.5591 C   0  0  0  0  0  0  0  0  0  0  0  0
   11.6831   16.5962    6.6697 H   0  0  0  0  0  0  0  0  0  0  0  0
   13.2173   12.1451   10.8159 C   0  0  0  0  0  0  0  0  0  0  0  0
    8.6921   17.1475    9.6212 C   0  0  0  0  0  0  0  0  0  0  0  0
    9.0847   18.1516    9.5612 H   0  0  0  0  0  0  0  0  0  0  0  0
   10.9182   11.7128    6.0292 C   0  0  0  0  0  0  0  0  0  0  0  0
   11.3820   11.0097    5.3379 H   0  0  0  0  0  0  0  0  0  0  0  0
   10.6071   11.1590    6.9351 H   0  0  0  0  0  0  0  0  0  0  0  0
   11.6536   12.4735    6.3082 H   0  0  0  0  0  0  0  0  0  0  0  0
   14.3896   13.1070   10.6490 C   0  0  0  0  0  0  0  0  0  0  0  0
   15.3339   12.5770   10.7606 H   0  0  0  0  0  0  0  0  0  0  0  0
   14.3501   13.8949   11.4005 H   0  0  0  0  0  0  0  0  0  0  0  0
   14.3660   13.5671    9.6606 H   0  0  0  0  0  0  0  0  0  0  0  0
    5.3652   14.2677    5.9739 C   0  0  0  0  0  0  0  0  0  0  0  0
    4.4769   14.1537    5.3852 H   0  0  0  0  0  0  0  0  0  0  0  0
    5.5312   14.9243    7.1605 C   0  0  0  0  0  0  0  0  0  0  0  0
    4.8494   15.4673    7.7829 H   0  0  0  0  0  0  0  0  0  0  0  0
   13.3187   10.9827    9.8345 C   0  0  0  0  0  0  0  0  0  0  0  0
   14.1969   10.3774   10.0518 H   0  0  0  0  0  0  0  0  0  0  0  0
   13.3986   11.3571    8.8143 H   0  0  0  0  0  0  0  0  0  0  0  0
   12.4375   10.3430    9.8997 H   0  0  0  0  0  0  0  0  0  0  0  0
  1  8  1  0  0  0  0
  2  1  1  0  0  0  0
  4  6  2  6  0  0  0
  4  1  1  0  0  0  0
  5 51  1  0  0  0  0
  5  3  1  1  0  0  0
  5 15  1  0  0  0  0
  7 15  1  0  0  0  0
  7 18  1  0  0  0  0
  8  5  1  0  0  0  0
  9 13  1  0  0  0  0
 10 62  1  0  0  0  0
 10 11  2  0  0  0  0
 11  4  1  0  0  0  0
 11 12  1  0  0  0  0
 12 48  1  0  0  0  0
 13 14  1  0  0  0  0
 15  9  2  0  0  0  0
 16 48  2  0  0  0  0
 16 52  1  0  0  0  0
 17 16  1  0  0  0  0
 18 19  1  0  0  0  0
 18 13  2  0  0  0  0
 20  7  1  0  0  0  0
 21 29  1  0  0  0  0
 21 24  1  0  0  0  0
 22 21  1  0  0  0  0
 23 21  1  0  0  0  0
 25 20  1  0  0  0  0
 25 26  1  0  0  0  0
 27 25  2  0  0  0  0
 28 27  1  0  0  0  0
 29 54  1  0  0  0  0
 29  4  1  0  0  0  0
 30 49  2  0  0  0  0
 30 27  1  0  0  0  0
 31 30  1  0  0  0  0
 32 36  1  0  0  0  0
 32 33  1  0  0  0  0
 34 35  1  0  0  0  0
 34 36  2  0  0  0  0
 36 37  1  0  0  0  0
 38 39  1  0  0  0  0
 38 20  2  0  0  0  0
 40 42  1  0  0  0  0
 40 29  1  0  0  0  0
 41 40  1  0  0  0  0
 43 40  1  0  0  0  0
 44 46  1  0  0  0  0
 44 45  1  0  0  0  0
 44 47  1  0  0  0  0
 48 34  1  0  0  0  0
 49 38  1  0  0  0  0
 50 49  1  0  0  0  0
 51 44  1  0  0  0  0
 52 32  2  0  0  0  0
 53 52  1  0  0  0  0
 54 57  1  0  0  0  0
 54 56  1  0  0  0  0
 55 54  1  0  0  0  0
 58 59  1  0  0  0  0
 58 51  1  0  0  0  0
 58 60  1  0  0  0  0
 61 58  1  0  0  0  0
 62 64  2  0  0  0  0
 63 62  1  0  0  0  0
 64 12  1  0  0  0  0
 64 65  1  0  0  0  0
 66 69  1  0  0  0  0
 66 67  1  0  0  0  0
 66 51  1  0  0  0  0
 68 66  1  0  0  0  0
M  END
$$$$
