CSD_code = EPUPOV | q = 1 | S = 0 | Stoichiometry = C21H27ClN3Os(1+) | MND = 9
 OpenBabel04212202033D

 53 55  0  0  1  0  0  0  0  0999 V2000
   10.2910    4.9797    3.7636 Os  0  0  0  0  0  0  0  0  0  0  0  0
    9.3627    6.8242    2.7070 Cl  0  0  0  0  0 15  0  0  0  0  0  0
    7.4621    3.8325    3.6320 N   0  0  0  0  0  0  0  0  0  0  0  0
    8.9550    2.3672    3.1167 N   0  0  0  0  0  0  0  0  0  0  0  0
   11.0624    4.6515    1.8183 N   0  0  0  0  0  4  0  0  0  0  0  0
   10.7565    5.4670    1.2657 H   0  0  0  0  0  0  0  0  0  0  0  0
   12.0839    4.7031    1.8855 H   0  0  0  0  0  0  0  0  0  0  0  0
    8.7857    3.6845    3.4269 C   0  0  2  0  0  3  0  0  0  0  0  0
    6.8138    2.6393    3.4565 C   0  0  0  0  0  0  0  0  0  0  0  0
    5.7533    2.5432    3.5650 H   0  0  0  0  0  0  0  0  0  0  0  0
    7.7470    1.7140    3.1430 C   0  0  0  0  0  0  0  0  0  0  0  0
    7.6537    0.6729    2.9147 H   0  0  0  0  0  0  0  0  0  0  0  0
    6.7731    5.0446    3.9889 C   0  0  0  0  0  0  0  0  0  0  0  0
    7.4825    5.8692    4.0029 H   0  0  0  0  0  0  0  0  0  0  0  0
    6.3072    4.9381    4.9689 H   0  0  0  0  0  0  0  0  0  0  0  0
    5.9989    5.2607    3.2533 H   0  0  0  0  0  0  0  0  0  0  0  0
   10.1851    1.7237    2.8608 C   0  0  0  0  0  0  0  0  0  0  0  0
   10.4959    0.5678    3.5695 C   0  0  0  0  0  0  0  0  0  0  0  0
    9.7966    0.1902    4.2999 H   0  0  0  0  0  0  0  0  0  0  0  0
   11.6923   -0.0871    3.3441 C   0  0  0  0  0  0  0  0  0  0  0  0
   11.9276   -0.9815    3.8990 H   0  0  0  0  0  0  0  0  0  0  0  0
   12.5838    0.4068    2.4058 C   0  0  0  0  0  0  0  0  0  0  0  0
   13.5193   -0.0993    2.2282 H   0  0  0  0  0  0  0  0  0  0  0  0
   12.2640    1.5419    1.6826 C   0  0  0  0  0  0  0  0  0  0  0  0
   12.9482    1.9056    0.9304 H   0  0  0  0  0  0  0  0  0  0  0  0
   11.0626    2.2100    1.8877 C   0  0  0  0  0  0  0  0  0  0  0  0
   10.7166    3.4242    1.0697 C   0  0  0  0  0  0  0  0  0  0  0  0
   11.2578    3.3908    0.1182 H   0  0  0  0  0  0  0  0  0  0  0  0
    9.6434    3.4548    0.8603 H   0  0  0  0  0  0  0  0  0  0  0  0
   11.0376    3.7691    5.9780 C   0  0  0  0  0  0  0  0  0  0  0  0
   12.2702    4.0800    5.4110 C   0  0  0  0  0  0  0  0  0  0  0  0
   13.0166    3.3047    5.3031 H   0  0  0  0  0  0  0  0  0  0  0  0
   12.6126    5.4080    5.0926 C   0  0  0  0  0  0  0  0  0  0  0  0
   13.6186    5.6115    4.7533 H   0  0  0  0  0  0  0  0  0  0  0  0
   11.7289    6.4611    5.3094 C   0  0  0  0  0  0  0  0  0  0  0  0
   10.4146    6.1339    5.7285 C   0  0  2  0  0  0  0  0  0  0  0  0
    9.7216    6.9370    5.9573 H   0  0  0  0  0  0  0  0  0  0  0  0
   10.0713    4.8063    6.0634 C   0  0  0  0  0  3  0  0  0  0  0  0
    9.1313    4.6080    6.5692 H   0  0  0  0  0  0  0  0  0  0  0  0
   10.7484    2.4090    6.5283 C   0  0  0  0  0  0  0  0  0  0  0  0
   10.9625    2.4043    7.5979 H   0  0  0  0  0  0  0  0  0  0  0  0
   11.3722    1.6535    6.0570 H   0  0  0  0  0  0  0  0  0  0  0  0
    9.7012    2.1444    6.3993 H   0  0  0  0  0  0  0  0  0  0  0  0
   12.1467    7.8997    5.1394 C   0  0  0  0  0  0  0  0  0  0  0  0
   11.2633    8.5308    5.2807 H   0  0  0  0  0  0  0  0  0  0  0  0
   13.1777    8.2632    6.2125 C   0  0  0  0  0  0  0  0  0  0  0  0
   12.7791    8.0779    7.2076 H   0  0  0  0  0  0  0  0  0  0  0  0
   13.4324    9.3165    6.1355 H   0  0  0  0  0  0  0  0  0  0  0  0
   14.0882    7.6807    6.0915 H   0  0  0  0  0  0  0  0  0  0  0  0
   12.6962    8.1697    3.7367 C   0  0  0  0  0  0  0  0  0  0  0  0
   12.9314    9.2253    3.6339 H   0  0  0  0  0  0  0  0  0  0  0  0
   11.9518    7.9144    2.9840 H   0  0  0  0  0  0  0  0  0  0  0  0
   13.6055    7.6028    3.5487 H   0  0  0  0  0  0  0  0  0  0  0  0
  1 36  1  0  0  0  0
  3 13  1  0  0  0  0
  4 11  1  0  0  0  0
  5  7  1  0  0  0  0
  5  1  1  0  0  0  0
  6  5  1  0  0  0  0
  8  4  1  1  0  0  0
  8  3  1  0  0  0  0
  8  1  1  0  0  0  0
  9 10  1  0  0  0  0
  9  3  1  0  0  0  0
 11  9  2  0  0  0  0
 12 11  1  0  0  0  0
 13 14  1  0  0  0  0
 13 15  1  0  0  0  0
 16 13  1  0  0  0  0
 17  4  1  0  0  0  0
 17 18  1  0  0  0  0
 18 19  1  0  0  0  0
 20 18  2  0  0  0  0
 20 21  1  0  0  0  0
 22 20  1  0  0  0  0
 23 22  1  0  0  0  0
 24 26  1  0  0  0  0
 24 22  2  0  0  0  0
 25 24  1  0  0  0  0
 26 17  2  0  0  0  0
 27  5  1  0  0  0  0
 27 26  1  0  0  0  0
 28 27  1  0  0  0  0
 29 27  1  0  0  0  0
 30 38  1  0  0  0  0
 30 40  1  0  0  0  0
 31 30  2  0  0  0  0
 32 31  1  0  0  0  0
 33 35  2  0  0  0  0
 33 31  1  0  0  0  0
 34 33  1  0  0  0  0
 35 36  1  0  0  0  0
 36 37  1  1  0  0  0
 36 38  1  0  0  0  0
 38 39  1  0  0  0  0
 40 41  1  0  0  0  0
 42 40  1  0  0  0  0
 43 40  1  0  0  0  0
 44 45  1  0  0  0  0
 44 35  1  0  0  0  0
 44 46  1  0  0  0  0
 46 47  1  0  0  0  0
 48 46  1  0  0  0  0
 49 46  1  0  0  0  0
 50 44  1  0  0  0  0
 51 50  1  0  0  0  0
 52 50  1  0  0  0  0
 53 50  1  0  0  0  0
M  END
$$$$
