CSD_code = EQAFEI | q = 0 | S = 0 | Stoichiometry = C20H14Cl2F12O4P2Pt | MND = 4
 OpenBabel04212202033D

 55 58  0  0  0  0  0  0  0  0999 V2000
    2.0946    0.1815    1.1030 Pt  0  0  0  0  0  0  0  0  0  0  0  0
    0.7577   -0.8006    2.6354 P   0  0  0  0  0  4  0  0  0  0  0  0
    3.7284    0.8595    2.5094 P   0  0  0  0  0  4  0  0  0  0  0  0
    0.5481   -0.5212   -0.4147 Cl  0  0  0  0  0  0  0  0  0  0  0  0
    3.2780    1.3074   -0.4886 Cl  0  0  0  0  0  0  0  0  0  0  0  0
    4.8229   -0.1185    3.1980 O   0  0  0  0  0  0  0  0  0  0  0  0
   -0.0011    0.0547    3.7851 O   0  0  0  0  0  0  0  0  0  0  0  0
    2.0328    2.9840    2.1942 F   0  0  0  0  0  0  0  0  0  0  0  0
    2.9977    4.0466    3.8090 F   0  0  0  0  0  0  0  0  0  0  0  0
    2.5044    5.0663    1.9969 F   0  0  0  0  0  0  0  0  0  0  0  0
    1.4970   -1.7842    3.6934 O   0  0  0  0  0  0  0  0  0  0  0  0
    6.7780    3.0384    0.7462 C   0  0  0  0  0  0  0  0  0  0  0  0
    7.7174    2.8165    0.2635 H   0  0  0  0  0  0  0  0  0  0  0  0
    3.1601    1.4082    3.9303 O   0  0  0  0  0  0  0  0  0  0  0  0
    4.7778    2.2446    1.8684 C   0  0  0  0  0  0  0  0  0  0  0  0
   -0.6406   -1.7933    1.9377 C   0  0  0  0  0  0  0  0  0  0  0  0
    4.8036   -0.1041    4.6128 C   0  0  0  0  0  0  0  0  0  0  0  0
    5.8364   -0.1272    4.9651 H   0  0  0  0  0  0  0  0  0  0  0  0
    4.2677   -0.9892    4.9683 H   0  0  0  0  0  0  0  0  0  0  0  0
    4.3258    3.5654    1.9066 C   0  0  0  0  0  0  0  0  0  0  0  0
    4.0748    1.1870    4.9916 C   0  0  0  0  0  0  0  0  0  0  0  0
    3.5057    1.1066    5.9184 H   0  0  0  0  0  0  0  0  0  0  0  0
    4.7739    2.0267    5.0634 H   0  0  0  0  0  0  0  0  0  0  0  0
    2.9682    3.9032    2.4662 C   0  0  0  0  0  0  0  0  0  0  0  0
    6.0028    2.0009    1.2448 C   0  0  0  0  0  0  0  0  0  0  0  0
   -1.8851   -1.2098    1.6943 C   0  0  0  0  0  0  0  0  0  0  0  0
    6.5033    0.5917    1.0570 C   0  0  0  0  0  0  0  0  0  0  0  0
   -0.4673   -3.1252    1.5596 C   0  0  0  0  0  0  0  0  0  0  0  0
    7.2101    0.1629    2.1254 F   0  0  0  0  0  0  0  0  0  0  0  0
    5.5277   -0.2943    0.8484 F   0  0  0  0  0  0  0  0  0  0  0  0
    1.0174   -4.8184    0.8463 F   0  0  0  0  0  0  0  0  0  0  0  0
   -1.0255    1.0078    1.7518 F   0  0  0  0  0  0  0  0  0  0  0  0
    1.0881   -4.2896    2.9162 F   0  0  0  0  0  0  0  0  0  0  0  0
    1.9002   -2.9510    1.4274 F   0  0  0  0  0  0  0  0  0  0  0  0
    7.3416    0.4932    0.0183 F   0  0  0  0  0  0  0  0  0  0  0  0
   -2.5321    0.4917    3.2126 F   0  0  0  0  0  0  0  0  0  0  0  0
   -2.1128    0.2581    1.9510 C   0  0  0  0  0  0  0  0  0  0  0  0
    0.8819   -3.7826    1.6811 C   0  0  0  0  0  0  0  0  0  0  0  0
    0.9022   -1.7477    4.9802 C   0  0  0  0  0  0  0  0  0  0  0  0
    1.6790   -1.9602    5.7157 H   0  0  0  0  0  0  0  0  0  0  0  0
    0.1168   -2.5076    5.0482 H   0  0  0  0  0  0  0  0  0  0  0  0
    0.3189   -0.3375    5.1054 C   0  0  0  0  0  0  0  0  0  0  0  0
   -0.5979   -0.3104    5.6972 H   0  0  0  0  0  0  0  0  0  0  0  0
    1.0476    0.3674    5.5156 H   0  0  0  0  0  0  0  0  0  0  0  0
   -2.7558   -3.2844    0.8555 C   0  0  0  0  0  0  0  0  0  0  0  0
   -3.5712   -3.8585    0.4461 H   0  0  0  0  0  0  0  0  0  0  0  0
   -1.5154   -3.8686    1.0325 C   0  0  0  0  0  0  0  0  0  0  0  0
   -1.3491   -4.8957    0.7462 H   0  0  0  0  0  0  0  0  0  0  0  0
    6.3342    4.3447    0.8458 C   0  0  0  0  0  0  0  0  0  0  0  0
    6.9344    5.1519    0.4582 H   0  0  0  0  0  0  0  0  0  0  0  0
    5.0997    4.6066    1.4099 C   0  0  0  0  0  0  0  0  0  0  0  0
    4.7225    5.6169    1.4513 H   0  0  0  0  0  0  0  0  0  0  0  0
   -2.9351   -1.9484    1.1670 C   0  0  0  0  0  0  0  0  0  0  0  0
   -3.8837   -1.4679    0.9830 H   0  0  0  0  0  0  0  0  0  0  0  0
   -3.0726    0.7578    1.1631 F   0  0  0  0  0  0  0  0  0  0  0  0
  1  3  1  0  0  0  0
  1  2  1  0  0  0  0
  2 11  1  0  0  0  0
  2  7  1  0  0  0  0
  3  6  1  0  0  0  0
  3 14  1  0  0  0  0
  4  1  1  0  0  0  0
  5  1  1  0  0  0  0
  6 17  1  0  0  0  0
  7 42  1  0  0  0  0
  8 24  1  0  0  0  0
 10 24  1  0  0  0  0
 11 39  1  0  0  0  0
 12 49  2  0  0  0  0
 12 25  1  0  0  0  0
 13 12  1  0  0  0  0
 14 21  1  0  0  0  0
 15 20  1  0  0  0  0
 15  3  1  0  0  0  0
 16  2  1  0  0  0  0
 17 18  1  0  0  0  0
 17 19  1  0  0  0  0
 17 21  1  0  0  0  0
 20 24  1  0  0  0  0
 21 23  1  0  0  0  0
 21 22  1  0  0  0  0
 24  9  1  0  0  0  0
 25 15  2  0  0  0  0
 26 16  1  0  0  0  0
 26 37  1  0  0  0  0
 27 25  1  0  0  0  0
 27 29  1  0  0  0  0
 28 38  1  0  0  0  0
 28 16  2  0  0  0  0
 30 27  1  0  0  0  0
 31 38  1  0  0  0  0
 32 37  1  0  0  0  0
 34 38  1  0  0  0  0
 35 27  1  0  0  0  0
 37 36  1  0  0  0  0
 38 33  1  0  0  0  0
 39 41  1  0  0  0  0
 39 42  1  0  0  0  0
 39 40  1  0  0  0  0
 42 44  1  0  0  0  0
 42 43  1  0  0  0  0
 45 47  2  0  0  0  0
 45 53  1  0  0  0  0
 46 45  1  0  0  0  0
 47 28  1  0  0  0  0
 48 47  1  0  0  0  0
 49 51  1  0  0  0  0
 50 49  1  0  0  0  0
 51 52  1  0  0  0  0
 51 20  2  0  0  0  0
 53 26  2  0  0  0  0
 54 53  1  0  0  0  0
 55 37  1  0  0  0  0
M  END
$$$$
