CSD_code = EQAGIO | q = 0 | S = 0 | Stoichiometry = C16H15AgClN3 | MND = 2
 OpenBabel04212202033D

 36 38  0  0  0  0  0  0  0  0999 V2000
    2.3635    8.6730    7.0156 Ag  0  0  0  0  0  0  0  0  0  0  0  0
    2.9937   10.2413    8.4753 Cl  0  0  0  0  0  0  0  0  0  0  0  0
    2.4571    6.8584    4.5036 N   0  0  0  0  0  0  0  0  0  0  0  0
    1.8022    5.8453    3.8470 N   0  0  0  0  0  0  0  0  0  0  0  0
    0.7190    5.5319    4.4997 N   0  0  0  0  0  2  0  0  0  0  0  0
    1.7889    7.1924    5.6089 C   0  0  0  0  0  0  0  0  0  0  0  0
    0.6671    6.2998    5.5793 C   0  0  0  0  0  0  0  0  0  0  0  0
   -0.4232    6.1710    6.5313 C   0  0  0  0  0  0  0  0  0  0  0  0
   -0.5654    7.0390    7.6124 C   0  0  0  0  0  0  0  0  0  0  0  0
   -1.6138    6.8890    8.4965 C   0  0  0  0  0  0  0  0  0  0  0  0
   -2.5515    5.8744    8.3325 C   0  0  0  0  0  0  0  0  0  0  0  0
   -2.4081    5.0093    7.2531 C   0  0  0  0  0  0  0  0  0  0  0  0
   -1.3628    5.1520    6.3645 C   0  0  0  0  0  0  0  0  0  0  0  0
   -3.6726    5.7075    9.3101 C   0  0  0  0  0  0  0  0  0  0  0  0
    2.1360    5.2446    2.6288 C   0  0  0  0  0  0  0  0  0  0  0  0
    1.0980    4.9521    1.7465 C   0  0  0  0  0  0  0  0  0  0  0  0
    1.3773    4.3401    0.5406 C   0  0  0  0  0  0  0  0  0  0  0  0
    2.6840    4.0195    0.2069 C   0  0  0  0  0  0  0  0  0  0  0  0
    3.7106    4.2924    1.0952 C   0  0  0  0  0  0  0  0  0  0  0  0
    3.4452    4.8968    2.3110 C   0  0  0  0  0  0  0  0  0  0  0  0
    3.6263    7.4912    3.9687 C   0  0  0  0  0  0  0  0  0  0  0  0
    0.1528    7.8466    7.7594 H   0  0  0  0  0  0  0  0  0  0  0  0
   -1.7090    7.5718    9.3279 H   0  0  0  0  0  0  0  0  0  0  0  0
   -3.1264    4.2145    7.1094 H   0  0  0  0  0  0  0  0  0  0  0  0
   -1.2557    4.4766    5.5296 H   0  0  0  0  0  0  0  0  0  0  0  0
   -3.3366    5.1131   10.1605 H   0  0  0  0  0  0  0  0  0  0  0  0
   -4.5162    5.1959    8.8529 H   0  0  0  0  0  0  0  0  0  0  0  0
   -4.0036    6.6722    9.6877 H   0  0  0  0  0  0  0  0  0  0  0  0
    0.0878    5.2057    2.0263 H   0  0  0  0  0  0  0  0  0  0  0  0
    0.5730    4.1162   -0.1430 H   0  0  0  0  0  0  0  0  0  0  0  0
    2.9006    3.5478   -0.7390 H   0  0  0  0  0  0  0  0  0  0  0  0
    4.7263    4.0244    0.8481 H   0  0  0  0  0  0  0  0  0  0  0  0
    4.2477    5.0657    3.0110 H   0  0  0  0  0  0  0  0  0  0  0  0
    3.6704    8.5107    4.3577 H   0  0  0  0  0  0  0  0  0  0  0  0
    3.5716    7.5192    2.8799 H   0  0  0  0  0  0  0  0  0  0  0  0
    4.5344    6.9688    4.2767 H   0  0  0  0  0  0  0  0  0  0  0  0
  1  2  1  0  0  0  0
  3  6  1  0  0  0  0
  4  5  1  0  0  0  0
  4  3  1  0  0  0  0
  5  7  1  0  0  0  0
  6  1  1  0  0  0  0
  7  6  2  0  0  0  0
  7  8  1  0  0  0  0
  8  9  1  0  0  0  0
  9 22  1  0  0  0  0
  9 10  2  0  0  0  0
 10 23  1  0  0  0  0
 11 10  1  0  0  0  0
 11 14  1  0  0  0  0
 12 11  2  0  0  0  0
 13  8  2  0  0  0  0
 13 12  1  0  0  0  0
 14 28  1  0  0  0  0
 14 26  1  0  0  0  0
 15  4  1  0  0  0  0
 16 29  1  0  0  0  0
 16 15  2  0  0  0  0
 17 16  1  0  0  0  0
 18 17  2  0  0  0  0
 18 19  1  0  0  0  0
 19 20  2  0  0  0  0
 20 15  1  0  0  0  0
 20 33  1  0  0  0  0
 21 36  1  0  0  0  0
 21 34  1  0  0  0  0
 21  3  1  0  0  0  0
 24 12  1  0  0  0  0
 25 13  1  0  0  0  0
 27 14  1  0  0  0  0
 30 17  1  0  0  0  0
 31 18  1  0  0  0  0
 32 19  1  0  0  0  0
 35 21  1  0  0  0  0
M  END
$$$$
