CSD_code = EQAXUR | q = 0 | S = 0 | Stoichiometry = C6H8Cl2N2Zn | MND = 4
 OpenBabel04212202033D

 19 20  0  0  0  0  0  0  0  0999 V2000
    0.9042    5.6394    5.2671 Zn  0  0  0  0  0  0  0  0  0  0  0  0
    3.0768    5.6424    4.9111 N   0  0  0  0  0  4  0  0  0  0  0  0
    3.3446    4.8247    4.3650 H   0  0  0  0  0  0  0  0  0  0  0  0
    1.6403    5.6424    7.3416 N   0  0  0  0  0  4  0  0  0  0  0  0
    1.2910    4.8244    7.8391 H   0  0  0  0  0  0  0  0  0  0  0  0
    0.2716    3.5783    4.8957 Cl  0  0  0  0  0  0  0  0  0  0  0  0
    3.7859    5.6413    6.1616 C   0  0  0  0  0  0  0  0  0  0  0  0
    3.0777    5.6413    7.3599 C   0  0  0  0  0  0  0  0  0  0  0  0
    3.7733    5.6401    8.5644 C   0  0  0  0  0  0  0  0  0  0  0  0
    3.2196    5.6400    9.4926 H   0  0  0  0  0  0  0  0  0  0  0  0
    5.1548    5.6389    8.5834 C   0  0  0  0  0  0  0  0  0  0  0  0
    5.6803    5.6379    9.5255 H   0  0  0  0  0  0  0  0  0  0  0  0
    5.8595    5.6389    7.3910 C   0  0  0  0  0  0  0  0  0  0  0  0
    6.9383    5.6380    7.3969 H   0  0  0  0  0  0  0  0  0  0  0  0
    5.1766    5.6401    6.1899 C   0  0  0  0  0  0  0  0  0  0  0  0
    5.7226    5.6401    5.2572 H   0  0  0  0  0  0  0  0  0  0  0  0
    3.3429    6.4620    4.3671 H   0  0  0  0  0  0  0  0  0  0  0  0
    1.2920    6.4616    7.8375 H   0  0  0  0  0  0  0  0  0  0  0  0
    0.2636    7.6968    4.8894 Cl  0  0  0  0  0  0  0  0  0  0  0  0
  1  4  1  0  0  0  0
  2  1  1  0  0  0  0
  2  7  1  0  0  0  0
  3  2  1  0  0  0  0
  4  8  1  0  0  0  0
  4 18  1  0  0  0  0
  4  5  1  0  0  0  0
  6  1  1  0  0  0  0
  7 15  2  0  0  0  0
  7  8  1  0  0  0  0
  8  9  2  0  0  0  0
  9 11  1  0  0  0  0
  9 10  1  0  0  0  0
 11 12  1  0  0  0  0
 13 14  1  0  0  0  0
 13 11  2  0  0  0  0
 15 13  1  0  0  0  0
 16 15  1  0  0  0  0
 17  2  1  0  0  0  0
 19  1  1  0  0  0  0
M  END
$$$$
