CSD_code = EQEBOT | q = 0 | S = 0 | Stoichiometry = C38H27AuClP | MND = 2
 OpenBabel04212202033D

 68 74  0  0  0  0  0  0  0  0999 V2000
    0.0970    3.7513    9.9201 Au  0  0  0  0  0  0  0  0  0  0  0  0
    2.3359    4.1317    9.8954 Cl  0  0  0  0  0  0  0  0  0  0  0  0
   -2.1275    3.4256    9.9944 P   0  0  0  0  0  4  0  0  0  0  0  0
   -3.1947    3.0195    8.5772 C   0  0  0  0  0  0  0  0  0  0  0  0
   -4.3367    2.2058    8.7378 C   0  0  0  0  0  0  0  0  0  0  0  0
   -4.5055    1.7097    9.6838 H   0  0  0  0  0  0  0  0  0  0  0  0
   -5.2095    2.0330    7.7043 C   0  0  0  0  0  0  0  0  0  0  0  0
   -6.0764    1.3986    7.8226 H   0  0  0  0  0  0  0  0  0  0  0  0
   -5.0125    2.6916    6.4719 C   0  0  0  0  0  0  0  0  0  0  0  0
   -5.9255    2.5685    5.4044 C   0  0  0  0  0  0  0  0  0  0  0  0
   -6.7967    1.9434    5.5380 H   0  0  0  0  0  0  0  0  0  0  0  0
   -5.7166    3.2303    4.2268 C   0  0  0  0  0  0  0  0  0  0  0  0
   -6.4213    3.1325    3.4143 H   0  0  0  0  0  0  0  0  0  0  0  0
   -4.5867    4.0472    4.0634 C   0  0  0  0  0  0  0  0  0  0  0  0
   -4.4414    4.5707    3.1301 H   0  0  0  0  0  0  0  0  0  0  0  0
   -3.6769    4.1795    5.0745 C   0  0  0  0  0  0  0  0  0  0  0  0
   -2.8063    4.8084    4.9554 H   0  0  0  0  0  0  0  0  0  0  0  0
   -3.8615    3.5030    6.3005 C   0  0  0  0  0  0  0  0  0  0  0  0
   -2.9341    3.6245    7.3643 C   0  0  0  0  0  0  0  0  0  0  0  0
   -1.6691    4.3714    7.1897 C   0  0  0  0  0  0  0  0  0  0  0  0
   -1.6204    5.7557    7.4912 C   0  0  0  0  0  0  0  0  0  0  0  0
   -2.7707    6.4793    7.8731 C   0  0  0  0  0  0  0  0  0  0  0  0
   -3.7248    5.9711    7.9021 H   0  0  0  0  0  0  0  0  0  0  0  0
   -2.6839    7.8023    8.2025 C   0  0  0  0  0  0  0  0  0  0  0  0
   -3.5694    8.3454    8.4992 H   0  0  0  0  0  0  0  0  0  0  0  0
   -1.4476    8.4650    8.1613 C   0  0  0  0  0  0  0  0  0  0  0  0
   -1.3971    9.5094    8.4321 H   0  0  0  0  0  0  0  0  0  0  0  0
   -0.3204    7.7965    7.7739 C   0  0  0  0  0  0  0  0  0  0  0  0
    0.6341    8.3009    7.7328 H   0  0  0  0  0  0  0  0  0  0  0  0
   -0.3739    6.4316    7.4247 C   0  0  0  0  0  0  0  0  0  0  0  0
    0.7733    5.7162    7.0230 C   0  0  0  0  0  0  0  0  0  0  0  0
    1.7204    6.2317    6.9775 H   0  0  0  0  0  0  0  0  0  0  0  0
    0.6980    4.3866    6.7246 C   0  0  0  0  0  0  0  0  0  0  0  0
    1.5816    3.8400    6.4321 H   0  0  0  0  0  0  0  0  0  0  0  0
   -0.5253    3.6910    6.8137 C   0  0  0  0  0  0  0  0  0  0  0  0
   -0.5426    2.2300    6.5951 C   0  0  0  0  0  0  0  0  0  0  0  0
    0.2825    1.4218    7.3738 C   0  0  0  0  0  0  0  0  0  0  0  0
    0.9425    1.8790    8.0983 H   0  0  0  0  0  0  0  0  0  0  0  0
    0.2528    0.0463    7.2366 C   0  0  0  0  0  0  0  0  0  0  0  0
    0.8908   -0.5664    7.8569 H   0  0  0  0  0  0  0  0  0  0  0  0
   -0.5880   -0.5419    6.3066 C   0  0  0  0  0  0  0  0  0  0  0  0
   -0.6132   -1.6165    6.2001 H   0  0  0  0  0  0  0  0  0  0  0  0
   -1.3851    0.2559    5.5035 C   0  0  0  0  0  0  0  0  0  0  0  0
   -2.0278   -0.1940    4.7606 H   0  0  0  0  0  0  0  0  0  0  0  0
   -1.3634    1.6317    5.6446 C   0  0  0  0  0  0  0  0  0  0  0  0
   -1.9737    2.2439    4.9981 H   0  0  0  0  0  0  0  0  0  0  0  0
   -2.4816    2.0770   11.1494 C   0  0  0  0  0  0  0  0  0  0  0  0
   -2.1124    0.7989   10.7293 C   0  0  0  0  0  0  0  0  0  0  0  0
   -1.7150    0.6662    9.7295 H   0  0  0  0  0  0  0  0  0  0  0  0
   -2.2603   -0.2763   11.5820 C   0  0  0  0  0  0  0  0  0  0  0  0
   -1.9805   -1.2667   11.2553 H   0  0  0  0  0  0  0  0  0  0  0  0
   -2.7607   -0.0802   12.8612 C   0  0  0  0  0  0  0  0  0  0  0  0
   -2.8717   -0.9206   13.5300 H   0  0  0  0  0  0  0  0  0  0  0  0
   -3.1084    1.1908   13.2862 C   0  0  0  0  0  0  0  0  0  0  0  0
   -3.4885    1.3417   14.2858 H   0  0  0  0  0  0  0  0  0  0  0  0
   -2.9658    2.2745   12.4362 C   0  0  0  0  0  0  0  0  0  0  0  0
   -3.2297    3.2696   12.7676 H   0  0  0  0  0  0  0  0  0  0  0  0
   -2.9911    4.8698   10.6784 C   0  0  0  0  0  0  0  0  0  0  0  0
   -4.3802    4.9204   10.7640 C   0  0  0  0  0  0  0  0  0  0  0  0
   -4.9734    4.0783   10.4347 H   0  0  0  0  0  0  0  0  0  0  0  0
   -4.9963    6.0506   11.2666 C   0  0  0  0  0  0  0  0  0  0  0  0
   -6.0739    6.0890   11.3332 H   0  0  0  0  0  0  0  0  0  0  0  0
   -4.2364    7.1332   11.6817 C   0  0  0  0  0  0  0  0  0  0  0  0
   -4.7240    8.0153   12.0694 H   0  0  0  0  0  0  0  0  0  0  0  0
   -2.8551    7.0854   11.5979 C   0  0  0  0  0  0  0  0  0  0  0  0
   -2.2612    7.9287   11.9168 H   0  0  0  0  0  0  0  0  0  0  0  0
   -2.2327    5.9576   11.0951 C   0  0  0  0  0  0  0  0  0  0  0  0
   -1.1536    5.9128   11.0126 H   0  0  0  0  0  0  0  0  0  0  0  0
  1  3  1  0  0  0  0
  2  1  1  0  0  0  0
  3 58  1  0  0  0  0
  3 47  1  0  0  0  0
  4  5  1  0  0  0  0
  4  3  1  0  0  0  0
  5  6  1  0  0  0  0
  7  8  1  0  0  0  0
  7  5  2  0  0  0  0
  9  7  1  0  0  0  0
 10 11  1  0  0  0  0
 10  9  2  0  0  0  0
 12 10  1  0  0  0  0
 13 12  1  0  0  0  0
 14 12  2  0  0  0  0
 14 16  1  0  0  0  0
 15 14  1  0  0  0  0
 16 18  2  0  0  0  0
 17 16  1  0  0  0  0
 18  9  1  0  0  0  0
 18 19  1  0  0  0  0
 19  4  2  0  0  0  0
 20 19  1  0  0  0  0
 20 21  1  0  0  0  0
 21 22  1  0  0  0  0
 22 23  1  0  0  0  0
 22 24  2  0  0  0  0
 24 25  1  0  0  0  0
 26 24  1  0  0  0  0
 26 27  1  0  0  0  0
 28 26  2  0  0  0  0
 29 28  1  0  0  0  0
 30 21  2  0  0  0  0
 30 28  1  0  0  0  0
 31 30  1  0  0  0  0
 32 31  1  0  0  0  0
 33 35  1  0  0  0  0
 33 31  2  0  0  0  0
 34 33  1  0  0  0  0
 35 20  2  0  0  0  0
 36 35  1  0  0  0  0
 36 37  1  0  0  0  0
 37 38  1  0  0  0  0
 39 37  2  0  0  0  0
 39 40  1  0  0  0  0
 41 39  1  0  0  0  0
 42 41  1  0  0  0  0
 43 45  1  0  0  0  0
 43 41  2  0  0  0  0
 44 43  1  0  0  0  0
 45 36  2  0  0  0  0
 46 45  1  0  0  0  0
 47 56  1  0  0  0  0
 48 47  2  0  0  0  0
 48 50  1  0  0  0  0
 49 48  1  0  0  0  0
 50 52  2  0  0  0  0
 51 50  1  0  0  0  0
 52 54  1  0  0  0  0
 52 53  1  0  0  0  0
 54 55  1  0  0  0  0
 56 57  1  0  0  0  0
 56 54  2  0  0  0  0
 58 59  2  0  0  0  0
 58 67  1  0  0  0  0
 59 61  1  0  0  0  0
 60 59  1  0  0  0  0
 61 62  1  0  0  0  0
 61 63  2  0  0  0  0
 63 64  1  0  0  0  0
 65 63  1  0  0  0  0
 65 66  1  0  0  0  0
 67 65  2  0  0  0  0
 68 67  1  0  0  0  0
M  END
$$$$
