CSD_code = EQECAG | q = 0 | S = 0 | Stoichiometry = C32H23AuClOP | MND = 2
 OpenBabel04212202033D

 59 64  0  0  0  0  0  0  0  0999 V2000
    4.9725   10.0649   19.6655 Au  0  0  0  0  0  0  0  0  0  0  0  0
    4.7857    8.6886   21.4980 Cl  0  0  0  0  0  0  0  0  0  0  0  0
    4.9347   11.7120   18.1399 P   0  0  0  0  0  4  0  0  0  0  0  0
    4.7364   11.8821   21.7102 O   0  0  0  0  0  0  0  0  0  0  0  0
    4.6944   11.0782   22.2573 H   0  0  0  0  0  0  0  0  0  0  0  0
    5.3721   13.3544   18.7873 C   0  0  0  0  0  0  0  0  0  0  0  0
    6.5056   14.0541   18.3252 C   0  0  0  0  0  0  0  0  0  0  0  0
    7.1055   13.6294   17.5327 H   0  0  0  0  0  0  0  0  0  0  0  0
    6.8387   15.2620   18.8643 C   0  0  0  0  0  0  0  0  0  0  0  0
    7.7048   15.7991   18.5046 H   0  0  0  0  0  0  0  0  0  0  0  0
    6.0669   15.8310   19.8985 C   0  0  0  0  0  0  0  0  0  0  0  0
    6.3995   17.0733   20.4770 C   0  0  0  0  0  0  0  0  0  0  0  0
    7.2732   17.5953   20.1135 H   0  0  0  0  0  0  0  0  0  0  0  0
    5.6356   17.6045   21.4777 C   0  0  0  0  0  0  0  0  0  0  0  0
    5.8970   18.5558   21.9173 H   0  0  0  0  0  0  0  0  0  0  0  0
    4.5049   16.9161   21.9445 C   0  0  0  0  0  0  0  0  0  0  0  0
    3.9126   17.3475   22.7379 H   0  0  0  0  0  0  0  0  0  0  0  0
    4.1542   15.7112   21.4042 C   0  0  0  0  0  0  0  0  0  0  0  0
    3.2854   15.1808   21.7642 H   0  0  0  0  0  0  0  0  0  0  0  0
    4.9221   15.1352   20.3684 C   0  0  0  0  0  0  0  0  0  0  0  0
    4.5839   13.8845   19.7938 C   0  0  0  0  0  0  0  0  0  0  0  0
    3.3790   13.1632   20.2665 C   0  0  0  0  0  0  0  0  0  0  0  0
    2.0929   13.5303   19.7939 C   0  0  0  0  0  0  0  0  0  0  0  0
    1.9047   14.5966   18.8897 C   0  0  0  0  0  0  0  0  0  0  0  0
    2.7654   15.1616   18.5620 H   0  0  0  0  0  0  0  0  0  0  0  0
    0.6554   14.9226   18.4422 C   0  0  0  0  0  0  0  0  0  0  0  0
    0.5246   15.7463   17.7558 H   0  0  0  0  0  0  0  0  0  0  0  0
   -0.4657   14.1950   18.8659 C   0  0  0  0  0  0  0  0  0  0  0  0
   -1.4447   14.4631   18.4970 H   0  0  0  0  0  0  0  0  0  0  0  0
   -0.3167   13.1603   19.7460 C   0  0  0  0  0  0  0  0  0  0  0  0
   -1.1750   12.5985   20.0860 H   0  0  0  0  0  0  0  0  0  0  0  0
    0.9556   12.8071   20.2378 C   0  0  0  0  0  0  0  0  0  0  0  0
    1.1307   11.7587   21.1655 C   0  0  0  0  0  0  0  0  0  0  0  0
    0.2650   11.2015   21.4922 H   0  0  0  0  0  0  0  0  0  0  0  0
    2.3665   11.4571   21.6560 C   0  0  0  0  0  0  0  0  0  0  0  0
    2.5062   10.6552   22.3670 H   0  0  0  0  0  0  0  0  0  0  0  0
    3.5005   12.1704   21.2219 C   0  0  0  0  0  0  0  0  0  0  0  0
    6.1253   11.4089   16.8062 C   0  0  0  0  0  0  0  0  0  0  0  0
    7.4289   11.1235   17.2149 C   0  0  0  0  0  0  0  0  0  0  0  0
    7.6651   11.1472   18.2724 H   0  0  0  0  0  0  0  0  0  0  0  0
    8.3987   10.8147   16.2824 C   0  0  0  0  0  0  0  0  0  0  0  0
    9.4081   10.6031   16.6023 H   0  0  0  0  0  0  0  0  0  0  0  0
    8.0695   10.7652   14.9357 C   0  0  0  0  0  0  0  0  0  0  0  0
    8.8249   10.5175   14.2051 H   0  0  0  0  0  0  0  0  0  0  0  0
    6.7708   11.0191   14.5292 C   0  0  0  0  0  0  0  0  0  0  0  0
    6.5122   10.9654   13.4819 H   0  0  0  0  0  0  0  0  0  0  0  0
    5.7947   11.3375   15.4587 C   0  0  0  0  0  0  0  0  0  0  0  0
    4.7803   11.5248   15.1363 H   0  0  0  0  0  0  0  0  0  0  0  0
    3.3571   12.0044   17.3017 C   0  0  0  0  0  0  0  0  0  0  0  0
    3.2013   13.0876   16.4403 C   0  0  0  0  0  0  0  0  0  0  0  0
    4.0319   13.7607   16.2715 H   0  0  0  0  0  0  0  0  0  0  0  0
    1.9878   13.2936   15.8131 C   0  0  0  0  0  0  0  0  0  0  0  0
    1.8653   14.1295   15.1402 H   0  0  0  0  0  0  0  0  0  0  0  0
    0.9264   12.4352   16.0543 C   0  0  0  0  0  0  0  0  0  0  0  0
   -0.0229   12.6056   15.5691 H   0  0  0  0  0  0  0  0  0  0  0  0
    1.0770   11.3648   16.9197 C   0  0  0  0  0  0  0  0  0  0  0  0
    0.2466   10.7024   17.1120 H   0  0  0  0  0  0  0  0  0  0  0  0
    2.2925   11.1451   17.5414 C   0  0  0  0  0  0  0  0  0  0  0  0
    2.4259   10.3148   18.2237 H   0  0  0  0  0  0  0  0  0  0  0  0
  1  2  1  0  0  0  0
  3  6  1  0  0  0  0
  3  1  1  0  0  0  0
  4  5  1  0  0  0  0
  6 21  1  0  0  0  0
  7  6  2  0  0  0  0
  7  9  1  0  0  0  0
  8  7  1  0  0  0  0
  9 11  2  0  0  0  0
 10  9  1  0  0  0  0
 11 20  1  0  0  0  0
 11 12  1  0  0  0  0
 12 14  2  0  0  0  0
 13 12  1  0  0  0  0
 14 15  1  0  0  0  0
 14 16  1  0  0  0  0
 16 17  1  0  0  0  0
 18 19  1  0  0  0  0
 18 16  2  0  0  0  0
 20 18  1  0  0  0  0
 21 22  1  0  0  0  0
 21 20  2  0  0  0  0
 22 37  1  0  0  0  0
 23 32  1  0  0  0  0
 23 22  2  0  0  0  0
 24 23  1  0  0  0  0
 25 24  1  0  0  0  0
 26 28  1  0  0  0  0
 26 24  2  0  0  0  0
 27 26  1  0  0  0  0
 28 30  2  0  0  0  0
 29 28  1  0  0  0  0
 30 31  1  0  0  0  0
 30 32  1  0  0  0  0
 32 33  2  0  0  0  0
 33 34  1  0  0  0  0
 33 35  1  0  0  0  0
 35 36  1  0  0  0  0
 37 35  2  0  0  0  0
 37  4  1  0  0  0  0
 38 39  1  0  0  0  0
 38  3  1  0  0  0  0
 39 40  1  0  0  0  0
 41 42  1  0  0  0  0
 41 39  2  0  0  0  0
 43 41  1  0  0  0  0
 44 43  1  0  0  0  0
 45 43  2  0  0  0  0
 45 47  1  0  0  0  0
 46 45  1  0  0  0  0
 47 38  2  0  0  0  0
 48 47  1  0  0  0  0
 49 58  1  0  0  0  0
 49  3  1  0  0  0  0
 50 49  2  0  0  0  0
 51 50  1  0  0  0  0
 52 54  2  0  0  0  0
 52 50  1  0  0  0  0
 53 52  1  0  0  0  0
 54 56  1  0  0  0  0
 55 54  1  0  0  0  0
 56 57  1  0  0  0  0
 56 58  2  0  0  0  0
 58 59  1  0  0  0  0
M  END
$$$$
