CSD_code = EQEMUJ | q = 0 | S = 0 | Stoichiometry = C16H21I2N3Pd | MND = 4
 OpenBabel04212202033D

 43 45  0  0  0  0  0  0  0  0999 V2000
   10.8316    2.5459    2.7084 Pd  0  0  0  0  0  0  0  0  0  0  0  0
    8.3486    2.5459    1.8848 I   0  0  0  0  0  0  0  0  0  0  0  0
   13.3811    2.5458    3.2772 I   0  0  0  0  0  0  0  0  0  0  0  0
   11.5683    1.4575    0.0517 N   0  0  0  0  0  0  0  0  0  0  0  0
    9.8322    2.5462    5.6299 N   0  0  0  0  0  2  0  0  0  0  0  0
   11.3601    2.5458    0.8107 C   0  0  0  0  0  0  0  0  0  0  0  0
   11.9191    1.8426   -1.2249 C   0  0  0  0  0  0  0  0  0  0  0  0
   12.2309    1.1226   -2.3663 C   0  0  0  0  0  0  0  0  0  0  0  0
   12.2318    0.0442   -2.3698 H   0  0  0  0  0  0  0  0  0  0  0  0
   12.5406    1.8492   -3.5008 C   0  0  0  0  0  0  0  0  0  0  0  0
   12.7888    1.3251   -4.4106 H   0  0  0  0  0  0  0  0  0  0  0  0
   11.4395    0.1095    0.5408 C   0  0  0  0  0  0  0  0  0  0  0  0
   11.1462    0.1499    1.6058 H   0  0  0  0  0  0  0  0  0  0  0  0
   12.3909   -0.4201    0.4554 H   0  0  0  0  0  0  0  0  0  0  0  0
   10.6714   -0.4287   -0.0189 H   0  0  0  0  0  0  0  0  0  0  0  0
   10.2653    2.5460    4.5540 C   0  0  0  0  0  2  0  0  0  0  0  0
    9.1651    2.5462    6.8587 C   0  0  0  0  0  0  0  0  0  0  0  0
    9.9342    2.5462    7.6428 H   0  0  0  0  0  0  0  0  0  0  0  0
    8.3007    1.2825    6.9685 C   0  0  0  0  0  0  0  0  0  0  0  0
    8.9284    0.3973    6.8410 H   0  0  0  0  0  0  0  0  0  0  0  0
    7.8752    1.2552    7.9737 H   0  0  0  0  0  0  0  0  0  0  0  0
    7.1818    1.2936    5.9304 C   0  0  0  0  0  0  0  0  0  0  0  0
    6.5672    0.4003    6.0509 H   0  0  0  0  0  0  0  0  0  0  0  0
    7.6087    1.2659    4.9253 H   0  0  0  0  0  0  0  0  0  0  0  0
    6.3229    2.5460    6.0765 C   0  0  0  0  0  0  0  0  0  0  0  0
    5.5446    2.5459    5.3128 H   0  0  0  0  0  0  0  0  0  0  0  0
    5.8390    2.5459    7.0566 H   0  0  0  0  0  0  0  0  0  0  0  0
   11.5683    3.6342    0.0518 N   0  0  0  0  0  0  0  0  0  0  0  0
   11.9192    3.2493   -1.2248 C   0  0  0  0  0  0  0  0  0  0  0  0
   12.2310    3.9694   -2.3661 C   0  0  0  0  0  0  0  0  0  0  0  0
   12.2319    5.0478   -2.3694 H   0  0  0  0  0  0  0  0  0  0  0  0
   12.5407    3.2429   -3.5006 C   0  0  0  0  0  0  0  0  0  0  0  0
   12.7890    3.7672   -4.4104 H   0  0  0  0  0  0  0  0  0  0  0  0
   11.4394    4.9821    0.5411 C   0  0  0  0  0  0  0  0  0  0  0  0
   11.1461    4.9417    1.6061 H   0  0  0  0  0  0  0  0  0  0  0  0
   12.3908    5.5119    0.4558 H   0  0  0  0  0  0  0  0  0  0  0  0
   10.6713    5.5203   -0.0186 H   0  0  0  0  0  0  0  0  0  0  0  0
    8.3005    3.8097    6.9686 C   0  0  0  0  0  0  0  0  0  0  0  0
    8.9281    4.6950    6.8411 H   0  0  0  0  0  0  0  0  0  0  0  0
    7.8750    3.8369    7.9737 H   0  0  0  0  0  0  0  0  0  0  0  0
    7.1816    3.7985    5.9304 C   0  0  0  0  0  0  0  0  0  0  0  0
    6.5668    4.6917    6.0511 H   0  0  0  0  0  0  0  0  0  0  0  0
    7.6085    3.8263    4.9254 H   0  0  0  0  0  0  0  0  0  0  0  0
  1  3  1  0  0  0  0
  1 16  1  0  0  0  0
  2  1  1  0  0  0  0
  4 12  1  0  0  0  0
  4  6  1  0  0  0  0
  5 17  1  0  0  0  0
  6  1  2  0  0  0  0
  7 29  1  0  0  0  0
  7  4  1  0  0  0  0
  8  7  2  0  0  0  0
  9  8  1  0  0  0  0
 10 32  2  0  0  0  0
 10  8  1  0  0  0  0
 11 10  1  0  0  0  0
 12 13  1  0  0  0  0
 14 12  1  0  0  0  0
 15 12  1  0  0  0  0
 16  5  1  0  0  0  0
 17 19  1  0  0  0  0
 17 38  1  0  0  0  0
 17 18  1  0  0  0  0
 19 21  1  0  0  0  0
 20 19  1  0  0  0  0
 22 23  1  0  0  0  0
 22 25  1  0  0  0  0
 22 19  1  0  0  0  0
 24 22  1  0  0  0  0
 25 27  1  0  0  0  0
 26 25  1  0  0  0  0
 28 34  1  0  0  0  0
 28  6  1  0  0  0  0
 29 28  1  0  0  0  0
 30 29  2  0  0  0  0
 31 30  1  0  0  0  0
 32 30  1  0  0  0  0
 33 32  1  0  0  0  0
 34 35  1  0  0  0  0
 36 34  1  0  0  0  0
 37 34  1  0  0  0  0
 38 40  1  0  0  0  0
 39 38  1  0  0  0  0
 41 42  1  0  0  0  0
 41 25  1  0  0  0  0
 41 38  1  0  0  0  0
 43 41  1  0  0  0  0
M  END
$$$$
