CSD_code = EQENAQ | q = 0 | S = 0 | Stoichiometry = C18H19I2N3Pd | MND = 4
 OpenBabel04212202033D

 43 45  0  0  0  0  0  0  0  0999 V2000
    2.3253    3.3766    6.0669 Pd  0  0  0  0  0  0  0  0  0  0  0  0
    2.7885    5.0255    4.0945 I   0  0  0  0  0  0  0  0  0  0  0  0
    1.8211    2.0615    8.2705 I   0  0  0  0  0  0  0  0  0  0  0  0
    0.2591    5.2505    6.9949 N   0  0  0  0  0  0  0  0  0  0  0  0
   -1.0683    5.6160    6.9304 N   0  0  0  0  0  0  0  0  0  0  0  0
    5.0797    2.0288    5.7190 N   0  0  0  0  0  2  0  0  0  0  0  0
    0.5360    4.2019    6.2354 C   0  0  0  0  0  0  0  0  0  0  0  0
   -0.6947    3.8470    5.6117 C   0  0  0  0  0  0  0  0  0  0  0  0
   -1.0219    2.8365    4.7054 C   0  0  0  0  0  3  0  0  0  0  0  0
   -0.2555    2.1494    4.3632 H   0  0  0  0  0  0  0  0  0  0  0  0
   -2.3241    2.7556    4.2764 C   0  0  0  0  0  0  0  0  0  0  0  0
   -2.6163    1.9891    3.5755 H   0  0  0  0  0  0  0  0  0  0  0  0
   -3.2906    3.6597    4.7356 C   0  0  0  0  0  0  0  0  0  0  0  0
   -4.3036    3.5638    4.3744 H   0  0  0  0  0  0  0  0  0  0  0  0
   -2.9931    4.6650    5.6285 C   0  0  0  0  0  0  0  0  0  0  0  0
   -3.7543    5.3513    5.9667 H   0  0  0  0  0  0  0  0  0  0  0  0
   -1.6762    4.7575    6.0706 C   0  0  0  0  0  0  0  0  0  0  0  0
    1.1971    5.9554    7.8226 C   0  0  0  0  0  0  0  0  0  0  0  0
    2.1911    5.5055    7.6592 H   0  0  0  0  0  0  0  0  0  0  0  0
    0.9378    5.8556    8.8795 H   0  0  0  0  0  0  0  0  0  0  0  0
    1.2412    7.0121    7.5508 H   0  0  0  0  0  0  0  0  0  0  0  0
   -1.6080    6.7255    7.6531 C   0  0  0  0  0  0  0  0  0  0  0  0
   -2.6780    6.7675    7.4644 H   0  0  0  0  0  0  0  0  0  0  0  0
   -1.1585    7.6672    7.3253 H   0  0  0  0  0  0  0  0  0  0  0  0
   -1.4478    6.6070    8.7276 H   0  0  0  0  0  0  0  0  0  0  0  0
    4.0445    2.5440    5.8646 C   0  0  0  0  0  2  0  0  0  0  0  0
    6.2911    1.4466    5.5461 C   0  0  0  0  0  0  0  0  0  0  0  0
    6.8517    0.7349    6.6139 C   0  0  0  0  0  0  0  0  0  0  0  0
    8.0911    0.1493    6.4119 C   0  0  0  0  0  0  0  0  0  0  0  0
    8.5489   -0.4059    7.2168 H   0  0  0  0  0  0  0  0  0  0  0  0
    8.7415    0.2693    5.1953 C   0  0  0  0  0  0  0  0  0  0  0  0
    9.7064   -0.1949    5.0570 H   0  0  0  0  0  0  0  0  0  0  0  0
    8.1664    0.9785    4.1542 C   0  0  0  0  0  0  0  0  0  0  0  0
    8.6826    1.0658    3.2099 H   0  0  0  0  0  0  0  0  0  0  0  0
    6.9290    1.5830    4.3068 C   0  0  0  0  0  0  0  0  0  0  0  0
    6.1175    0.6320    7.9123 C   0  0  0  0  0  0  0  0  0  0  0  0
    5.1482    0.1525    7.7720 H   0  0  0  0  0  0  0  0  0  0  0  0
    5.9289    1.6229    8.3270 H   0  0  0  0  0  0  0  0  0  0  0  0
    6.6883    0.0560    8.6347 H   0  0  0  0  0  0  0  0  0  0  0  0
    6.2724    2.3555    3.2081 C   0  0  0  0  0  0  0  0  0  0  0  0
    5.3049    1.9189    2.9568 H   0  0  0  0  0  0  0  0  0  0  0  0
    6.8922    2.3626    2.3161 H   0  0  0  0  0  0  0  0  0  0  0  0
    6.0908    3.3863    3.5146 H   0  0  0  0  0  0  0  0  0  0  0  0
  1  7  1  0  0  0  0
  1  3  1  0  0  0  0
  2  1  1  0  0  0  0
  4 18  1  0  0  0  0
  5  4  1  0  0  0  0
  5 22  1  0  0  0  0
  6 26  1  0  0  0  0
  7  4  1  0  0  0  0
  8 17  1  0  0  0  0
  8  7  2  0  0  0  0
  9  8  1  0  0  0  0
 10  9  1  0  0  0  0
 11  9  1  0  0  0  0
 11 13  2  0  0  0  0
 12 11  1  0  0  0  0
 13 15  1  0  0  0  0
 14 13  1  0  0  0  0
 15 16  1  0  0  0  0
 15 17  2  0  0  0  0
 17  5  1  0  0  0  0
 18 20  1  0  0  0  0
 19 18  1  0  0  0  0
 21 18  1  0  0  0  0
 22 25  1  0  0  0  0
 23 22  1  0  0  0  0
 24 22  1  0  0  0  0
 26  1  1  0  0  0  0
 27  6  1  0  0  0  0
 27 28  1  0  0  0  0
 28 36  1  0  0  0  0
 29 28  2  0  0  0  0
 29 30  1  0  0  0  0
 31 29  1  0  0  0  0
 32 31  1  0  0  0  0
 33 35  1  0  0  0  0
 33 31  2  0  0  0  0
 34 33  1  0  0  0  0
 35 27  2  0  0  0  0
 36 38  1  0  0  0  0
 36 39  1  0  0  0  0
 37 36  1  0  0  0  0
 40 43  1  0  0  0  0
 40 35  1  0  0  0  0
 41 40  1  0  0  0  0
 42 40  1  0  0  0  0
M  END
$$$$
