CSD_code = EQICAJ | q = 1 | S = 0 | Stoichiometry = C16H14AuCl2N6(1+) | MND = 4
 OpenBabel04212202033D

 39 43  0  0  0  0  0  0  0  0999 V2000
    1.7277    2.1943    9.1671 Au  0  0  0  0  0  0  0  0  0  0  0  0
    3.6808    1.1737    9.4634 Cl  0  0  0  0  0  0  0  0  0  0  0  0
    1.5575    1.3151    7.1320 Cl  0  0  0  0  0  0  0  0  0  0  0  0
   -0.0550    3.1168    8.9278 N   0  0  0  0  0  0  0  0  0  0  0  0
   -1.1412    2.8977    9.6737 C   0  0  0  0  0  0  0  0  0  0  0  0
   -2.2029    3.4890    9.0928 N   0  0  0  0  0  0  0  0  0  0  0  0
   -1.7684    4.1036    7.9610 C   0  0  0  0  0  0  0  0  0  0  0  0
   -2.4233    4.6549    7.3179 H   0  0  0  0  0  0  0  0  0  0  0  0
   -0.4317    3.8615    7.8572 C   0  0  0  0  0  0  0  0  0  0  0  0
    0.2670    4.1499    7.1001 H   0  0  0  0  0  0  0  0  0  0  0  0
   -3.5695    3.4797    9.5375 C   0  0  0  0  0  0  0  0  0  0  0  0
   -4.0983    4.3126    9.0778 H   0  0  0  0  0  0  0  0  0  0  0  0
   -3.6194    3.5696   10.6212 H   0  0  0  0  0  0  0  0  0  0  0  0
   -4.0493    2.5433    9.2511 H   0  0  0  0  0  0  0  0  0  0  0  0
   -1.2268    2.0728   10.8748 C   0  0  0  0  0  0  0  0  0  0  0  0
    1.8493    2.9896   11.0210 N   0  0  0  0  0  0  0  0  0  0  0  0
    0.9861    2.7611   12.0143 C   0  0  0  0  0  0  0  0  0  0  0  0
    1.4913    3.2547   13.1612 N   0  0  0  0  0  0  0  0  0  0  0  0
    2.9192    3.6408   11.5443 C   0  0  0  0  0  0  0  0  0  0  0  0
    3.7590    3.9160   10.9412 H   0  0  0  0  0  0  0  0  0  0  0  0
    2.6959    3.8163   12.8768 C   0  0  0  0  0  0  0  0  0  0  0  0
    3.3013    4.2881   13.6233 H   0  0  0  0  0  0  0  0  0  0  0  0
    0.9102    3.2006   14.4745 C   0  0  0  0  0  0  0  0  0  0  0  0
    1.3628    3.9715   15.0953 H   0  0  0  0  0  0  0  0  0  0  0  0
    1.0895    2.2227   14.9227 H   0  0  0  0  0  0  0  0  0  0  0  0
   -0.1656    3.3590   14.4233 H   0  0  0  0  0  0  0  0  0  0  0  0
   -0.2635    2.0106   11.9339 C   0  0  0  0  0  0  0  0  0  0  0  0
   -0.4970    1.2693   12.9967 N   0  0  0  0  0  0  0  0  0  0  0  0
   -2.3492    1.3897   10.9617 N   0  0  0  0  0  0  0  0  0  0  0  0
   -1.6072    0.5219   13.0656 C   0  0  0  0  0  0  0  0  0  0  0  0
   -1.8448   -0.3101   14.1770 C   0  0  0  0  0  0  0  0  0  0  0  0
   -1.1065   -0.3509   14.9616 H   0  0  0  0  0  0  0  0  0  0  0  0
   -2.9930   -1.0528   14.2208 C   0  0  0  0  0  0  0  0  0  0  0  0
   -3.1828   -1.7018   15.0618 H   0  0  0  0  0  0  0  0  0  0  0  0
   -3.9412   -0.9902   13.1802 C   0  0  0  0  0  0  0  0  0  0  0  0
   -4.8336   -1.5929   13.2501 H   0  0  0  0  0  0  0  0  0  0  0  0
   -3.7446   -0.1851   12.0917 C   0  0  0  0  0  0  0  0  0  0  0  0
   -4.4570   -0.1304   11.2843 H   0  0  0  0  0  0  0  0  0  0  0  0
   -2.5679    0.5849   12.0107 C   0  0  0  0  0  0  0  0  0  0  0  0
  1  2  1  0  0  0  0
  1 16  1  0  0  0  0
  3  1  1  0  0  0  0
  4  1  1  0  0  0  0
  4  5  1  0  0  0  0
  5 15  2  0  0  0  0
  6 11  1  0  0  0  0
  6  5  1  0  0  0  0
  7  6  1  0  0  0  0
  8  7  1  0  0  0  0
  9  7  2  0  0  0  0
  9  4  1  0  0  0  0
 10  9  1  0  0  0  0
 11 13  1  0  0  0  0
 12 11  1  0  0  0  0
 14 11  1  0  0  0  0
 15 29  1  0  0  0  0
 15 27  1  0  0  0  0
 16 19  1  0  0  0  0
 16 17  1  0  0  0  0
 17 18  1  0  0  0  0
 18 23  1  0  0  0  0
 19 21  2  0  0  0  0
 20 19  1  0  0  0  0
 21 18  1  0  0  0  0
 21 22  1  0  0  0  0
 23 25  1  0  0  0  0
 23 24  1  0  0  0  0
 26 23  1  0  0  0  0
 27 17  2  0  0  0  0
 27 28  1  0  0  0  0
 28 30  2  0  0  0  0
 29 39  2  0  0  0  0
 30 31  1  0  0  0  0
 31 33  2  0  0  0  0
 31 32  1  0  0  0  0
 33 34  1  0  0  0  0
 35 36  1  0  0  0  0
 35 33  1  0  0  0  0
 37 35  2  0  0  0  0
 38 37  1  0  0  0  0
 39 37  1  0  0  0  0
 39 30  1  0  0  0  0
M  END
$$$$
