CSD_code = EQIGOC | q = 0 | S = 0 | Stoichiometry = C18H22Cl2N2O4Zn | MND = 4
 OpenBabel04212202033D

 49 50  0  0  1  0  0  0  0  0999 V2000
    8.4530   11.1304    2.2677 Zn  0  0  0  0  0  0  0  0  0  0  0  0
    8.4455   10.1504    0.3271 Cl  0  0  0  0  0  0  0  0  0  0  0  0
    8.4705   13.2132    3.0392 Cl  0  0  0  0  0  0  0  0  0  0  0  0
    6.8540   10.2688    3.1952 O   0  0  0  0  0  0  0  0  0  0  0  0
    3.6393    5.3495    0.3385 O   0  0  0  0  0  0  0  0  0  0  0  0
    4.6354    9.8899    3.3833 N   0  0  0  0  0  0  0  0  0  0  0  0
    3.7864   10.1979    3.8397 H   0  0  0  0  0  0  0  0  0  0  0  0
    4.4658    8.7395    2.5862 C   0  0  0  0  0  0  0  0  0  0  0  0
    5.4456    8.2414    1.7388 C   0  0  0  0  0  0  0  0  0  0  0  0
    6.4029    8.7263    1.6577 H   0  0  0  0  0  0  0  0  0  0  0  0
    5.2018    7.1145    0.9737 C   0  0  0  0  0  0  0  0  0  0  0  0
    5.9860    6.7655    0.3224 H   0  0  0  0  0  0  0  0  0  0  0  0
    3.9757    6.4626    1.0428 C   0  0  0  0  0  0  0  0  0  0  0  0
    2.9904    6.9681    1.8945 C   0  0  0  0  0  0  0  0  0  0  0  0
    2.0398    6.4613    1.9407 H   0  0  0  0  0  0  0  0  0  0  0  0
    3.2326    8.0911    2.6523 C   0  0  0  0  0  0  0  0  0  0  0  0
    2.4575    8.4725    3.3025 H   0  0  0  0  0  0  0  0  0  0  0  0
    5.5647   11.7883    4.5335 C   0  0  0  0  0  0  0  0  0  0  0  0
    5.7150   11.4808    5.5678 H   0  0  0  0  0  0  0  0  0  0  0  0
    4.5754   12.2259    4.4326 H   0  0  0  0  0  0  0  0  0  0  0  0
    6.3246   12.5313    4.2949 H   0  0  0  0  0  0  0  0  0  0  0  0
    5.7507   10.5960    3.6369 C   0  0  1  0  0  3  0  0  0  0  0  0
    4.5867    4.8084   -0.5519 C   0  0  0  0  0  0  0  0  0  0  0  0
    4.8543    5.5233   -1.3361 H   0  0  0  0  0  0  0  0  0  0  0  0
    4.1052    3.9418   -1.0024 H   0  0  0  0  0  0  0  0  0  0  0  0
    5.4925    4.4875   -0.0278 H   0  0  0  0  0  0  0  0  0  0  0  0
   10.0323   10.2412    3.2014 O   0  0  0  0  0  0  0  0  0  0  0  0
   13.2732    5.3790    0.2763 O   0  0  0  0  0  0  0  0  0  0  0  0
   12.2464    9.8492    3.4137 N   0  0  0  0  0  0  0  0  0  0  0  0
   13.0901   10.1438    3.8885 H   0  0  0  0  0  0  0  0  0  0  0  0
   12.4240    8.7175    2.5920 C   0  0  0  0  0  0  0  0  0  0  0  0
   11.4523    8.2379    1.7247 C   0  0  0  0  0  0  0  0  0  0  0  0
   10.4951    8.7234    1.6463 H   0  0  0  0  0  0  0  0  0  0  0  0
   11.7040    7.1288    0.9367 C   0  0  0  0  0  0  0  0  0  0  0  0
   10.9260    6.7944    0.2703 H   0  0  0  0  0  0  0  0  0  0  0  0
   12.9298    6.4761    1.0022 C   0  0  0  0  0  0  0  0  0  0  0  0
   13.9071    6.9629    1.8739 C   0  0  0  0  0  0  0  0  0  0  0  0
   14.8576    6.4559    1.9172 H   0  0  0  0  0  0  0  0  0  0  0  0
   13.6571    8.0685    2.6545 C   0  0  0  0  0  0  0  0  0  0  0  0
   14.4260    8.4355    3.3202 H   0  0  0  0  0  0  0  0  0  0  0  0
   11.3059   11.7249    4.5930 C   0  0  0  0  0  0  0  0  0  0  0  0
   11.1114   11.4006    5.6147 H   0  0  0  0  0  0  0  0  0  0  0  0
   12.3057   12.1463    4.5370 H   0  0  0  0  0  0  0  0  0  0  0  0
   10.5681   12.4861    4.3421 H   0  0  0  0  0  0  0  0  0  0  0  0
   11.1302   10.5539    3.6670 C   0  0  2  0  0  3  0  0  0  0  0  0
   12.3331    4.8561   -0.6325 C   0  0  0  0  0  0  0  0  0  0  0  0
   12.0731    5.5861   -1.4052 H   0  0  0  0  0  0  0  0  0  0  0  0
   12.8176    3.9977   -1.0951 H   0  0  0  0  0  0  0  0  0  0  0  0
   11.4225    4.5264   -0.1224 H   0  0  0  0  0  0  0  0  0  0  0  0
  1  3  1  0  0  0  0
  1  4  1  0  0  0  0
  1 27  1  0  0  0  0
  2  1  1  0  0  0  0
  5 13  1  0  0  0  0
  6 22  1  0  0  0  0
  6  7  1  0  0  0  0
  8 16  1  0  0  0  0
  8  6  1  0  0  0  0
  9  8  2  0  0  0  0
 10  9  1  0  0  0  0
 11 13  2  0  0  0  0
 11  9  1  0  0  0  0
 12 11  1  0  0  0  0
 13 14  1  0  0  0  0
 14 15  1  0  0  0  0
 14 16  2  0  0  0  0
 16 17  1  0  0  0  0
 18 19  1  0  0  0  0
 20 18  1  0  0  0  0
 21 18  1  0  0  0  0
 22  4  1  1  0  0  0
 22 18  1  0  0  0  0
 23 26  1  0  0  0  0
 23  5  1  0  0  0  0
 24 23  1  0  0  0  0
 25 23  1  0  0  0  0
 28 36  1  0  0  0  0
 29 45  1  0  0  0  0
 29 30  1  0  0  0  0
 31 39  1  0  0  0  0
 31 29  1  0  0  0  0
 32 31  2  0  0  0  0
 33 32  1  0  0  0  0
 34 36  2  0  0  0  0
 34 32  1  0  0  0  0
 35 34  1  0  0  0  0
 36 37  1  0  0  0  0
 37 38  1  0  0  0  0
 37 39  2  0  0  0  0
 39 40  1  0  0  0  0
 41 42  1  0  0  0  0
 43 41  1  0  0  0  0
 44 41  1  0  0  0  0
 45 27  1  1  0  0  0
 45 41  1  0  0  0  0
 46 49  1  0  0  0  0
 46 28  1  0  0  0  0
 47 46  1  0  0  0  0
 48 46  1  0  0  0  0
M  END
$$$$
