CSD_code = EQOFAT | q = 1 | S = 0 | Stoichiometry = C27H30BrN6Pd(1+) | MND = 4
 OpenBabel04212202033D

 65 70  0  0  0  0  0  0  0  0999 V2000
   13.4266    0.3045    3.2931 Pd  0  0  2  0  0  0  0  0  0  0  0  0
   14.1365    1.7657    4.9811 Br  0  0  0  0  0  0  0  0  0  0  0  0
   15.5936    1.4135    1.6350 N   0  0  0  0  0  0  0  0  0  0  0  0
   13.2040   -1.4899    0.8306 N   0  0  0  0  0  2  0  0  0  0  0  0
   11.4477    0.0514    4.0042 N   0  0  0  0  0  0  0  0  0  0  0  0
   16.9389    1.2573    1.3523 C   0  0  0  0  0  0  0  0  0  0  0  0
   18.7008   -0.2652    2.0629 C   0  0  0  0  0  0  0  0  0  0  0  0
   19.0585   -1.0995    2.6422 H   0  0  0  0  0  0  0  0  0  0  0  0
   16.2009   -1.3587    3.8139 C   0  0  0  0  0  0  0  0  0  0  0  0
   15.1380   -1.3718    4.1543 H   0  0  0  0  0  0  0  0  0  0  0  0
   11.9549    0.0668   -4.1191 C   0  0  0  0  0  0  0  0  0  0  0  0
   11.8353    0.8034   -4.8981 H   0  0  0  0  0  0  0  0  0  0  0  0
   12.2306   -2.1740    0.2600 N   0  0  0  0  0  0  0  0  0  0  0  0
   16.2776   -0.2902    2.8239 N   0  0  0  0  0  0  0  0  0  0  0  0
   19.1245    1.5112    0.4754 C   0  0  0  0  0  0  0  0  0  0  0  0
   19.8280    2.0264   -0.1591 H   0  0  0  0  0  0  0  0  0  0  0  0
   17.8141    1.9426    0.5201 C   0  0  0  0  0  0  0  0  0  0  0  0
   17.4989    2.7852   -0.0720 H   0  0  0  0  0  0  0  0  0  0  0  0
   12.4365   -2.8371   -1.0053 C   0  0  0  0  0  0  0  0  0  0  0  0
   11.7189   -3.6539   -1.0942 H   0  0  0  0  0  0  0  0  0  0  0  0
   13.4538   -3.2352   -1.0046 H   0  0  0  0  0  0  0  0  0  0  0  0
    9.3669   -1.0038    3.4563 C   0  0  0  0  0  0  0  0  0  0  0  0
    8.8031   -1.6282    2.7823 H   0  0  0  0  0  0  0  0  0  0  0  0
   14.6795    2.4514    1.1712 C   0  0  0  0  0  0  0  0  0  0  0  0
   13.7036    2.2321    1.6665 H   0  0  0  0  0  0  0  0  0  0  0  0
   19.5602    0.4267    1.2336 C   0  0  0  0  0  0  0  0  0  0  0  0
   20.5929    0.1224    1.1721 H   0  0  0  0  0  0  0  0  0  0  0  0
   14.4824    2.3640   -0.3395 C   0  0  0  0  0  0  0  0  0  0  0  0
   15.4036    2.5848   -0.8701 H   0  0  0  0  0  0  0  0  0  0  0  0
   13.7278    3.0809   -0.6505 H   0  0  0  0  0  0  0  0  0  0  0  0
   14.1481    1.3667   -0.6188 H   0  0  0  0  0  0  0  0  0  0  0  0
   12.7280   -0.9355    1.8890 N   0  0  0  0  0  0  0  0  0  0  0  0
   13.2620   -0.8943   -2.3537 C   0  0  0  0  0  0  0  0  0  0  0  0
   14.1601   -0.9157   -1.7526 H   0  0  0  0  0  0  0  0  0  0  0  0
   15.2247    0.4733    2.5130 C   0  0  0  0  0  0  0  0  0  0  0  0
   10.7032   -0.7259    3.1918 C   0  0  0  0  0  0  0  0  0  0  0  0
    8.7861   -0.4659    4.5929 C   0  0  0  0  0  0  0  0  0  0  0  0
    7.7513   -0.6655    4.8227 H   0  0  0  0  0  0  0  0  0  0  0  0
   13.1062    0.0540   -3.3485 C   0  0  0  0  0  0  0  0  0  0  0  0
   13.8852    0.7794   -3.5264 H   0  0  0  0  0  0  0  0  0  0  0  0
   17.3798    0.1589    2.1189 C   0  0  0  0  0  0  0  0  0  0  0  0
   16.5205   -2.7077    3.1765 C   0  0  0  0  0  0  0  0  0  0  0  0
   15.8914   -2.8684    2.3028 H   0  0  0  0  0  0  0  0  0  0  0  0
   16.3328   -3.5030    3.8922 H   0  0  0  0  0  0  0  0  0  0  0  0
   17.5606   -2.7631    2.8700 H   0  0  0  0  0  0  0  0  0  0  0  0
   10.8846    0.5636    5.0930 C   0  0  0  0  0  3  0  0  0  0  0  0
   11.5125    1.1831    5.7228 H   0  0  0  0  0  0  0  0  0  0  0  0
   15.1538    3.8240    1.6394 C   0  0  0  0  0  0  0  0  0  0  0  0
   15.2650    3.8297    2.7217 H   0  0  0  0  0  0  0  0  0  0  0  0
   14.4206    4.5770    1.3655 H   0  0  0  0  0  0  0  0  0  0  0  0
   16.1058    4.0886    1.1898 H   0  0  0  0  0  0  0  0  0  0  0  0
   11.0893   -2.0575    0.9622 C   0  0  0  0  0  0  0  0  0  0  0  0
   10.1760   -2.5306    0.6716 H   0  0  0  0  0  0  0  0  0  0  0  0
   12.2652   -1.8344   -2.1247 C   0  0  0  0  0  0  0  0  0  0  0  0
   11.4142   -1.2475    2.0374 C   0  0  0  0  0  0  0  0  0  0  0  0
   10.9596   -0.8682   -3.8923 C   0  0  0  0  0  0  0  0  0  0  0  0
   10.0636   -0.8630   -4.4932 H   0  0  0  0  0  0  0  0  0  0  0  0
   11.1102   -1.8143   -2.8923 C   0  0  0  0  0  0  0  0  0  0  0  0
   10.3328   -2.5448   -2.7210 H   0  0  0  0  0  0  0  0  0  0  0  0
    9.5584    0.3293    5.4251 C   0  0  0  0  0  0  0  0  0  0  0  0
    9.1466    0.7658    6.3199 H   0  0  0  0  0  0  0  0  0  0  0  0
   17.0835   -1.0345    5.0153 C   0  0  0  0  0  0  0  0  0  0  0  0
   18.1324   -0.9985    4.7373 H   0  0  0  0  0  0  0  0  0  0  0  0
   16.9543   -1.7953    5.7795 H   0  0  0  0  0  0  0  0  0  0  0  0
   16.8004   -0.0719    5.4360 H   0  0  0  0  0  0  0  0  0  0  0  0
  1  5  1  0  0  0  0
  1  2  1  1  0  0  0
  3 35  1  0  0  0  0
  4 32  1  0  0  0  0
  5 46  1  0  0  0  0
  6  3  1  0  0  0  0
  6 41  1  0  0  0  0
  7 41  2  0  0  0  0
  7  8  1  0  0  0  0
  9 10  1  0  0  0  0
  9 62  1  0  0  0  0
 11 56  2  0  0  0  0
 11 39  1  0  0  0  0
 12 11  1  0  0  0  0
 13  4  1  0  0  0  0
 13 52  1  0  0  0  0
 14  9  1  0  0  0  0
 15 17  1  0  0  0  0
 15 26  2  0  0  0  0
 16 15  1  0  0  0  0
 17  6  2  0  0  0  0
 18 17  1  0  0  0  0
 19 21  1  0  0  0  0
 19 13  1  0  0  0  0
 20 19  1  0  0  0  0
 22 37  1  0  0  0  0
 23 22  1  0  0  0  0
 24  3  1  0  0  0  0
 24 48  1  0  0  0  0
 24 25  1  0  0  0  0
 26  7  1  0  0  0  0
 27 26  1  0  0  0  0
 28 24  1  0  0  0  0
 29 28  1  0  0  0  0
 30 28  1  0  0  0  0
 31 28  1  0  0  0  0
 32 55  1  0  0  0  0
 32  1  1  0  0  0  0
 33 54  1  0  0  0  0
 33 34  1  0  0  0  0
 35 14  1  0  0  0  0
 35  1  2  0  0  0  0
 36 22  2  0  0  0  0
 36  5  1  0  0  0  0
 37 38  1  0  0  0  0
 37 60  2  0  0  0  0
 39 33  2  0  0  0  0
 40 39  1  0  0  0  0
 41 14  1  0  0  0  0
 42  9  1  0  0  0  0
 42 44  1  0  0  0  0
 43 42  1  0  0  0  0
 45 42  1  0  0  0  0
 46 60  1  0  0  0  0
 46 47  1  0  0  0  0
 48 49  1  0  0  0  0
 50 48  1  0  0  0  0
 51 48  1  0  0  0  0
 52 55  2  0  0  0  0
 53 52  1  0  0  0  0
 54 19  1  0  0  0  0
 55 36  1  0  0  0  0
 56 58  1  0  0  0  0
 57 56  1  0  0  0  0
 58 59  1  0  0  0  0
 58 54  2  0  0  0  0
 60 61  1  0  0  0  0
 62 65  1  0  0  0  0
 62 64  1  0  0  0  0
 63 62  1  0  0  0  0
M  END
$$$$
