CSD_code = EQOTAF | q = 0 | S = 0 | Stoichiometry = C17H16AuClN2 | MND = 2
 OpenBabel04212202033D

 37 39  0  0  1  0  0  0  0  0999 V2000
    3.0961   -1.2118    8.7259 Au  0  0  0  0  0  0  0  0  0  0  0  0
    3.4302   -3.2541    7.8554 Cl  0  0  0  0  0  0  0  0  0  0  0  0
    2.6092    0.8878   10.8166 N   0  0  0  0  0  0  0  0  0  0  0  0
    2.6714    1.7781    8.8679 N   0  0  0  0  0  0  0  0  0  0  0  0
    2.7772    0.6035    9.5130 C   0  0  2  0  0  3  0  0  0  0  0  0
    2.3973    2.2280   10.9904 C   0  0  0  0  0  0  0  0  0  0  0  0
    2.4359    2.7903    9.7591 C   0  0  0  0  0  0  0  0  0  0  0  0
    2.7786    1.9599    7.4484 C   0  0  0  0  0  0  0  0  0  0  0  0
    2.6624   -0.0904   11.8831 C   0  0  0  0  0  0  0  0  0  0  0  0
    3.9829   -0.0848   12.6243 C   0  0  0  0  0  0  0  0  0  0  0  0
    4.2152   -1.1098   13.5355 C   0  0  0  0  0  0  0  0  0  0  0  0
    5.3983   -1.1616   14.2468 C   0  0  0  0  0  0  0  0  0  0  0  0
    6.3677   -0.1908   14.0533 C   0  0  0  0  0  0  0  0  0  0  0  0
    6.1445    0.8280   13.1456 C   0  0  0  0  0  0  0  0  0  0  0  0
    4.9571    0.8830   12.4337 C   0  0  0  0  0  0  0  0  0  0  0  0
    1.4779    0.1226   12.8060 C   0  0  0  0  0  0  0  0  0  0  0  0
    1.5963    0.8480   13.9839 C   0  0  0  0  0  0  0  0  0  0  0  0
    0.4885    1.0569   14.7873 C   0  0  0  0  0  0  0  0  0  0  0  0
   -0.7448    0.5484   14.4181 C   0  0  0  0  0  0  0  0  0  0  0  0
   -0.8691   -0.1714   13.2416 C   0  0  0  0  0  0  0  0  0  0  0  0
    0.2371   -0.3825   12.4384 C   0  0  0  0  0  0  0  0  0  0  0  0
    2.2303    2.6630   11.9537 H   0  0  0  0  0  0  0  0  0  0  0  0
    2.3161    3.8089    9.4531 H   0  0  0  0  0  0  0  0  0  0  0  0
    1.8514    2.3713    7.0473 H   0  0  0  0  0  0  0  0  0  0  0  0
    2.9717    0.9922    6.9877 H   0  0  0  0  0  0  0  0  0  0  0  0
    3.5982    2.6405    7.2138 H   0  0  0  0  0  0  0  0  0  0  0  0
    2.5596   -1.0686   11.3915 H   0  0  0  0  0  0  0  0  0  0  0  0
    3.4587   -1.8667   13.6833 H   0  0  0  0  0  0  0  0  0  0  0  0
    5.5666   -1.9632   14.9501 H   0  0  0  0  0  0  0  0  0  0  0  0
    7.2944   -0.2315   14.6056 H   0  0  0  0  0  0  0  0  0  0  0  0
    6.8969    1.5861   12.9853 H   0  0  0  0  0  0  0  0  0  0  0  0
    4.8052    1.6853   11.7260 H   0  0  0  0  0  0  0  0  0  0  0  0
    2.5590    1.2408   14.2791 H   0  0  0  0  0  0  0  0  0  0  0  0
    0.5910    1.6180   15.7042 H   0  0  0  0  0  0  0  0  0  0  0  0
   -1.6071    0.7104   15.0473 H   0  0  0  0  0  0  0  0  0  0  0  0
   -1.8283   -0.5723   12.9501 H   0  0  0  0  0  0  0  0  0  0  0  0
    0.1419   -0.9469   11.5216 H   0  0  0  0  0  0  0  0  0  0  0  0
  2  1  1  0  0  0  0
  3  6  1  0  0  0  0
  3  9  1  0  0  0  0
  4  5  1  0  0  0  0
  4  7  1  0  0  0  0
  5  1  1  6  0  0  0
  5  3  1  0  0  0  0
  6 22  1  0  0  0  0
  7  6  2  0  0  0  0
  8  4  1  0  0  0  0
  9 10  1  0  0  0  0
  9 16  1  0  0  0  0
 10 11  1  0  0  0  0
 11 28  1  0  0  0  0
 11 12  2  0  0  0  0
 12 29  1  0  0  0  0
 13 12  1  0  0  0  0
 13 30  1  0  0  0  0
 14 13  2  0  0  0  0
 15 10  2  0  0  0  0
 15 14  1  0  0  0  0
 16 17  1  0  0  0  0
 17 33  1  0  0  0  0
 17 18  2  0  0  0  0
 18 34  1  0  0  0  0
 19 18  1  0  0  0  0
 19 35  1  0  0  0  0
 20 19  2  0  0  0  0
 21 16  2  0  0  0  0
 21 20  1  0  0  0  0
 23  7  1  0  0  0  0
 24  8  1  0  0  0  0
 25  8  1  0  0  0  0
 26  8  1  0  0  0  0
 27  9  1  0  0  0  0
 31 14  1  0  0  0  0
 32 15  1  0  0  0  0
 36 20  1  0  0  0  0
 37 21  1  0  0  0  0
M  END
$$$$
