CSD_code = EQULIM | q = 0 | S = 0 | Stoichiometry = C30H28Cl4N2Ti | MND = 6
 OpenBabel04212202033D

 65 70  0  0  0  0  0  0  0  0999 V2000
    3.8534   13.5102    3.0968 Ti  0  0  0  0  0  0  0  0  0  0  0  0
    5.0063   15.2780    3.6312 Cl  0  0  0  0  0  0  0  0  0  0  0  0
    2.1539   14.6121    2.3010 Cl  0  0  0  0  0  0  0  0  0  0  0  0
    2.9572   13.3235    5.1613 Cl  0  0  0  0  0  0  0  0  0  0  0  0
    4.8737   13.1027    1.1475 Cl  0  0  0  0  0  0  0  0  0  0  0  0
    5.3363   12.1146    3.8912 N   0  0  0  0  0  0  0  0  0  0  0  0
    2.8790   11.5835    2.7376 N   0  0  0  0  0  0  0  0  0  0  0  0
    4.9815   10.9007    3.6646 C   0  0  0  0  0  0  0  0  0  0  0  0
    5.6402    9.6174    3.9005 C   0  0  0  0  0  0  0  0  0  0  0  0
    6.8674    9.2288    4.3857 C   0  0  0  0  0  0  0  0  0  0  0  0
    7.1785    7.8568    4.3962 C   0  0  0  0  0  0  0  0  0  0  0  0
    6.3126    6.8932    3.9375 C   0  0  0  0  0  0  0  0  0  0  0  0
    5.0509    7.2574    3.4154 C   0  0  0  0  0  0  0  0  0  0  0  0
    4.0585    6.4065    2.8787 C   0  0  0  0  0  0  0  0  0  0  0  0
    2.8898    6.9304    2.3804 C   0  0  0  0  0  0  0  0  0  0  0  0
    2.6120    8.3096    2.3797 C   0  0  0  0  0  0  0  0  0  0  0  0
    3.5491    9.1653    2.9105 C   0  0  0  0  0  0  0  0  0  0  0  0
    3.6673   10.6170    3.0416 C   0  0  0  0  0  0  0  0  0  0  0  0
    4.7547    8.6243    3.4175 C   0  0  0  0  0  0  0  0  0  0  0  0
    6.4302   12.4097    4.7197 C   0  0  0  0  0  0  0  0  0  0  0  0
    6.3832   12.0562    6.0823 C   0  0  0  0  0  0  0  0  0  0  0  0
    7.4168   12.4701    6.9085 C   0  0  0  0  0  0  0  0  0  0  0  0
    8.5067   13.1823    6.4312 C   0  0  0  0  0  0  0  0  0  0  0  0
    8.5605   13.4636    5.0735 C   0  0  0  0  0  0  0  0  0  0  0  0
    7.5447   13.0946    4.2078 C   0  0  0  0  0  0  0  0  0  0  0  0
    5.2468   11.2787    6.6762 C   0  0  0  0  0  0  0  0  0  0  0  0
    5.1990   11.4591    7.7470 H   0  0  0  0  0  0  0  0  0  0  0  0
    5.3877   10.2077    6.5204 H   0  0  0  0  0  0  0  0  0  0  0  0
    4.2939   11.5725    6.2389 H   0  0  0  0  0  0  0  0  0  0  0  0
    9.5917   13.6412    7.3540 C   0  0  0  0  0  0  0  0  0  0  0  0
    9.3883   14.6620    7.6782 H   0  0  0  0  0  0  0  0  0  0  0  0
   10.5569   13.6361    6.8528 H   0  0  0  0  0  0  0  0  0  0  0  0
    9.6453   13.0110    8.2384 H   0  0  0  0  0  0  0  0  0  0  0  0
    7.6803   13.3694    2.7445 C   0  0  0  0  0  0  0  0  0  0  0  0
    7.3599   12.5160    2.1476 H   0  0  0  0  0  0  0  0  0  0  0  0
    8.7122   13.6085    2.4986 H   0  0  0  0  0  0  0  0  0  0  0  0
    7.0570   14.2218    2.4660 H   0  0  0  0  0  0  0  0  0  0  0  0
    1.5399   11.3417    2.3815 C   0  0  0  0  0  0  0  0  0  0  0  0
    1.0858   11.6324    1.0859 C   0  0  0  0  0  0  0  0  0  0  0  0
   -0.2572   11.4604    0.7926 C   0  0  0  0  0  0  0  0  0  0  0  0
   -1.1655   11.0168    1.7424 C   0  0  0  0  0  0  0  0  0  0  0  0
   -0.6890   10.7045    3.0069 C   0  0  0  0  0  0  0  0  0  0  0  0
    0.6483   10.8376    3.3465 C   0  0  0  0  0  0  0  0  0  0  0  0
    2.0306   12.0661    0.0115 C   0  0  0  0  0  0  0  0  0  0  0  0
    2.2952   13.1164    0.1514 H   0  0  0  0  0  0  0  0  0  0  0  0
    1.5674   11.9589   -0.9663 H   0  0  0  0  0  0  0  0  0  0  0  0
    2.9532   11.4865    0.0341 H   0  0  0  0  0  0  0  0  0  0  0  0
   -2.6194   10.8870    1.4114 C   0  0  0  0  0  0  0  0  0  0  0  0
   -3.1087   10.1758    2.0724 H   0  0  0  0  0  0  0  0  0  0  0  0
   -2.7562   10.5682    0.3806 H   0  0  0  0  0  0  0  0  0  0  0  0
   -3.1100   11.8531    1.5307 H   0  0  0  0  0  0  0  0  0  0  0  0
    1.0928   10.4728    4.7314 C   0  0  0  0  0  0  0  0  0  0  0  0
    1.6227    9.5193    4.7345 H   0  0  0  0  0  0  0  0  0  0  0  0
    0.2285   10.3795    5.3834 H   0  0  0  0  0  0  0  0  0  0  0  0
    1.7518   11.2368    5.1418 H   0  0  0  0  0  0  0  0  0  0  0  0
    7.5863    9.9462    4.7503 H   0  0  0  0  0  0  0  0  0  0  0  0
    8.1420    7.5577    4.7815 H   0  0  0  0  0  0  0  0  0  0  0  0
    6.5938    5.8510    3.9659 H   0  0  0  0  0  0  0  0  0  0  0  0
    4.2295    5.3404    2.8570 H   0  0  0  0  0  0  0  0  0  0  0  0
    2.1483    6.2632    1.9669 H   0  0  0  0  0  0  0  0  0  0  0  0
    1.6823    8.6708    1.9678 H   0  0  0  0  0  0  0  0  0  0  0  0
    7.3653   12.2257    7.9598 H   0  0  0  0  0  0  0  0  0  0  0  0
    9.4164   13.9881    4.6744 H   0  0  0  0  0  0  0  0  0  0  0  0
   -0.6016   11.6828   -0.2069 H   0  0  0  0  0  0  0  0  0  0  0  0
   -1.3786   10.3448    3.7570 H   0  0  0  0  0  0  0  0  0  0  0  0
  1  2  1  0  0  0  0
  1  6  1  0  0  0  0
  1  4  1  0  0  0  0
  3  1  1  0  0  0  0
  5  1  1  0  0  0  0
  6 20  1  0  0  0  0
  7 18  1  0  0  0  0
  7  1  1  0  0  0  0
  8  6  1  0  0  0  0
  8  9  1  0  0  0  0
  9 10  1  0  0  0  0
 10 11  2  0  0  0  0
 10 56  1  0  0  0  0
 11 57  1  0  0  0  0
 12 58  1  0  0  0  0
 12 11  1  0  0  0  0
 13 19  1  0  0  0  0
 13 12  2  0  0  0  0
 14 13  1  0  0  0  0
 15 14  2  0  0  0  0
 16 15  1  0  0  0  0
 16 17  2  0  0  0  0
 17 18  1  0  0  0  0
 17 19  1  0  0  0  0
 18  8  2  0  0  0  0
 19  9  2  0  0  0  0
 20 21  1  0  0  0  0
 21 26  1  0  0  0  0
 21 22  2  0  0  0  0
 22 62  1  0  0  0  0
 23 22  1  0  0  0  0
 23 30  1  0  0  0  0
 24 23  2  0  0  0  0
 25 20  2  0  0  0  0
 25 24  1  0  0  0  0
 26 27  1  0  0  0  0
 28 26  1  0  0  0  0
 29 26  1  0  0  0  0
 30 31  1  0  0  0  0
 30 33  1  0  0  0  0
 32 30  1  0  0  0  0
 34 25  1  0  0  0  0
 35 34  1  0  0  0  0
 36 34  1  0  0  0  0
 37 34  1  0  0  0  0
 38  7  1  0  0  0  0
 38 43  1  0  0  0  0
 39 38  2  0  0  0  0
 40 39  1  0  0  0  0
 40 41  2  0  0  0  0
 41 42  1  0  0  0  0
 42 43  2  0  0  0  0
 42 65  1  0  0  0  0
 43 52  1  0  0  0  0
 44 47  1  0  0  0  0
 44 45  1  0  0  0  0
 44 39  1  0  0  0  0
 46 44  1  0  0  0  0
 48 51  1  0  0  0  0
 48 41  1  0  0  0  0
 48 49  1  0  0  0  0
 50 48  1  0  0  0  0
 52 53  1  0  0  0  0
 52 55  1  0  0  0  0
 52 54  1  0  0  0  0
 59 14  1  0  0  0  0
 60 15  1  0  0  0  0
 61 16  1  0  0  0  0
 63 24  1  0  0  0  0
 64 40  1  0  0  0  0
M  END
$$$$
