CSD_code = EQUTUH | q = 0 | S = 0 | Stoichiometry = C18H37BrMnNO2P2 | MND = 6
 OpenBabel04212202033D

 62 63  0  0  0  0  0  0  0  0999 V2000
    5.8291   10.3226    5.3215 Br  0  0  0  0  0  0  0  0  0  0  0  0
    7.7932   12.9697    3.0578 C   0  0  0  0  0  0  0  0  0  0  0  0
    8.0254   13.8554    2.4643 H   0  0  0  0  0  0  0  0  0  0  0  0
    7.7825   13.2468    4.1184 H   0  0  0  0  0  0  0  0  0  0  0  0
    8.8354   11.8786    2.8279 C   0  0  0  0  0  0  0  0  0  0  0  0
    8.9240   11.6525    1.7587 H   0  0  0  0  0  0  0  0  0  0  0  0
    9.8230   12.2144    3.1863 H   0  0  0  0  0  0  0  0  0  0  0  0
    9.3715    9.5825    3.5280 C   0  0  0  0  0  0  0  0  0  0  0  0
   10.3309    9.9031    3.9675 H   0  0  0  0  0  0  0  0  0  0  0  0
    9.5604    9.2790    2.4913 H   0  0  0  0  0  0  0  0  0  0  0  0
    8.7788    8.4247    4.3269 C   0  0  0  0  0  0  0  0  0  0  0  0
    8.5886    8.7525    5.3540 H   0  0  0  0  0  0  0  0  0  0  0  0
    9.4472    7.5635    4.3529 H   0  0  0  0  0  0  0  0  0  0  0  0
    5.0246   13.3314    3.7614 C   0  0  0  0  0  0  0  0  0  0  0  0
    5.3066   12.9544    4.7557 H   0  0  0  0  0  0  0  0  0  0  0  0
    3.5639   12.9562    3.5246 C   0  0  0  0  0  0  0  0  0  0  0  0
    2.9492   13.2926    4.3572 H   0  0  0  0  0  0  0  0  0  0  0  0
    3.4611   11.8727    3.4394 H   0  0  0  0  0  0  0  0  0  0  0  0
    3.1839   13.4128    2.6131 H   0  0  0  0  0  0  0  0  0  0  0  0
    5.2245   14.8437    3.7702 C   0  0  0  0  0  0  0  0  0  0  0  0
    4.7627   15.3156    2.9089 H   0  0  0  0  0  0  0  0  0  0  0  0
    6.2764   15.1190    3.7982 H   0  0  0  0  0  0  0  0  0  0  0  0
    4.7500   15.2493    4.6629 H   0  0  0  0  0  0  0  0  0  0  0  0
    5.9186   12.8637    0.8705 C   0  0  0  0  0  0  0  0  0  0  0  0
    6.8250   12.4422    0.4076 H   0  0  0  0  0  0  0  0  0  0  0  0
    4.7069   12.1991    0.2201 C   0  0  0  0  0  0  0  0  0  0  0  0
    3.7806   12.6431    0.5759 H   0  0  0  0  0  0  0  0  0  0  0  0
    4.6820   11.1326    0.4455 H   0  0  0  0  0  0  0  0  0  0  0  0
    4.7500   12.3205   -0.8609 H   0  0  0  0  0  0  0  0  0  0  0  0
    5.8990   14.3652    0.6039 C   0  0  0  0  0  0  0  0  0  0  0  0
    6.0837   14.5409   -0.4553 H   0  0  0  0  0  0  0  0  0  0  0  0
    6.6584   14.9010    1.1687 H   0  0  0  0  0  0  0  0  0  0  0  0
    4.9255   14.7850    0.8415 H   0  0  0  0  0  0  0  0  0  0  0  0
    6.3780    6.7616    4.7339 C   0  0  0  0  0  0  0  0  0  0  0  0
    6.6691    5.7755    4.3497 H   0  0  0  0  0  0  0  0  0  0  0  0
    6.8471    6.8759    6.1810 C   0  0  0  0  0  0  0  0  0  0  0  0
    6.6313    7.8623    6.5850 H   0  0  0  0  0  0  0  0  0  0  0  0
    7.9113    6.6690    6.2770 H   0  0  0  0  0  0  0  0  0  0  0  0
    6.3082    6.1463    6.7837 H   0  0  0  0  0  0  0  0  0  0  0  0
    4.8561    6.8806    4.6519 C   0  0  0  0  0  0  0  0  0  0  0  0
    4.3852    6.0392    5.1577 H   0  0  0  0  0  0  0  0  0  0  0  0
    4.5176    6.8962    3.6162 H   0  0  0  0  0  0  0  0  0  0  0  0
    4.5199    7.7949    5.1353 H   0  0  0  0  0  0  0  0  0  0  0  0
    7.6761    6.9051    2.1350 C   0  0  0  0  0  0  0  0  0  0  0  0
    8.1704    7.5916    1.4340 H   0  0  0  0  0  0  0  0  0  0  0  0
    8.6524    5.7769    2.4569 C   0  0  0  0  0  0  0  0  0  0  0  0
    8.2927    5.1417    3.2637 H   0  0  0  0  0  0  0  0  0  0  0  0
    9.6352    6.1572    2.7273 H   0  0  0  0  0  0  0  0  0  0  0  0
    8.7737    5.1524    1.5730 H   0  0  0  0  0  0  0  0  0  0  0  0
    6.4191    6.3692    1.4514 C   0  0  0  0  0  0  0  0  0  0  0  0
    6.6664    5.9409    0.4816 H   0  0  0  0  0  0  0  0  0  0  0  0
    5.7027    7.1787    1.2948 H   0  0  0  0  0  0  0  0  0  0  0  0
    5.9468    5.5961    2.0543 H   0  0  0  0  0  0  0  0  0  0  0  0
    4.6704    9.5334    2.5253 C   0  0  0  0  0  2  0  0  0  0  0  0
    6.7837    9.8187    1.3017 C   0  0  0  0  0  2  0  0  0  0  0  0
    6.3035   10.0364    2.9683 Mn  0  0  0  0  0  0  0  0  0  0  0  0
    8.4027   10.6745    3.5280 N   0  0  0  0  0  4  0  0  0  0  0  0
    3.6187    9.1865    2.1784 O   0  0  0  0  0  1  0  0  0  0  0  0
    7.0853    9.6645    0.1909 O   0  0  0  0  0  1  0  0  0  0  0  0
    6.1050   12.2988    2.6443 P   0  0  0  0  0  4  0  0  0  0  0  0
    7.1431    7.9999    3.5583 P   0  0  0  0  0  4  0  0  0  0  0  0
    8.2578   10.9375    4.5112 H   0  0  0  0  0  0  0  0  0  0  0  0
  2  4  1  0  0  0  0
  3  2  1  0  0  0  0
  5  2  1  0  0  0  0
  5  7  1  0  0  0  0
  5 57  1  0  0  0  0
  6  5  1  0  0  0  0
  8 57  1  0  0  0  0
  8  9  1  0  0  0  0
  8 11  1  0  0  0  0
 10  8  1  0  0  0  0
 11 13  1  0  0  0  0
 11 12  1  0  0  0  0
 14 20  1  0  0  0  0
 14 15  1  0  0  0  0
 16 14  1  0  0  0  0
 16 17  1  0  0  0  0
 18 16  1  0  0  0  0
 19 16  1  0  0  0  0
 20 22  1  0  0  0  0
 20 23  1  0  0  0  0
 21 20  1  0  0  0  0
 24 60  1  0  0  0  0
 25 24  1  0  0  0  0
 26 28  1  0  0  0  0
 26 27  1  0  0  0  0
 26 24  1  0  0  0  0
 29 26  1  0  0  0  0
 30 33  1  0  0  0  0
 30 24  1  0  0  0  0
 30 32  1  0  0  0  0
 31 30  1  0  0  0  0
 34 36  1  0  0  0  0
 35 34  1  0  0  0  0
 36 38  1  0  0  0  0
 36 37  1  0  0  0  0
 36 39  1  0  0  0  0
 40 34  1  0  0  0  0
 40 43  1  0  0  0  0
 40 41  1  0  0  0  0
 42 40  1  0  0  0  0
 44 46  1  0  0  0  0
 44 61  1  0  0  0  0
 45 44  1  0  0  0  0
 46 48  1  0  0  0  0
 46 47  1  0  0  0  0
 49 46  1  0  0  0  0
 50 53  1  0  0  0  0
 50 44  1  0  0  0  0
 51 50  1  0  0  0  0
 52 50  1  0  0  0  0
 54 56  1  0  0  0  0
 55 56  1  0  0  0  0
 56 57  1  0  0  0  0
 56 61  1  0  0  0  0
 56  1  1  0  0  0  0
 57 62  1  0  0  0  0
 58 54  1  0  0  0  0
 59 55  1  0  0  0  0
 60 56  1  0  0  0  0
 60  2  1  0  0  0  0
 60 14  1  0  0  0  0
 61 11  1  0  0  0  0
 61 34  1  0  0  0  0
M  END
$$$$
