CSD_code = ERADIL | q = 0 | S = 0 | Stoichiometry = C18H26Cl2FeN4 | MND = 6
 OpenBabel04212202033D

 51 55  0  0  1  0  0  0  0  0999 V2000
   13.1255    3.5848   10.6789 Fe  0  0  0  0  0  0  0  0  0  0  0  0
   14.9199    2.4592   10.0606 Cl  0  0  0  0  0  0  0  0  0  0  0  0
   13.8165    5.0395    9.1311 N   0  0  0  0  0  0  0  0  0  0  0  0
   14.8144    6.8021   10.5140 C   0  0  0  0  0  0  0  0  0  0  0  0
   14.6870    6.0773   11.3134 H   0  0  0  0  0  0  0  0  0  0  0  0
   14.1732    7.6637   10.6988 H   0  0  0  0  0  0  0  0  0  0  0  0
   15.8448    7.1495   10.5104 H   0  0  0  0  0  0  0  0  0  0  0  0
   13.3841    0.0974   11.6994 C   0  0  0  0  0  0  0  0  0  0  0  0
   14.0427    0.7476   11.1298 H   0  0  0  0  0  0  0  0  0  0  0  0
   12.8814   -0.5916   11.0211 H   0  0  0  0  0  0  0  0  0  0  0  0
   13.9778   -0.4927   12.3933 H   0  0  0  0  0  0  0  0  0  0  0  0
   14.1246    4.3204   12.5046 Cl  0  0  0  0  0  0  0  0  0  0  0  0
   12.0450    2.9364    8.9921 N   0  0  1  0  0  4  0  0  0  0  0  0
   14.4888    6.1934    9.1942 C   0  0  2  0  0  3  0  0  0  0  0  0
   11.3477    4.6176   11.1404 N   0  0  2  0  0  4  0  0  0  0  0  0
   14.9036    6.8664    8.0441 C   0  0  0  0  0  0  0  0  0  0  0  0
   15.4475    7.7922    8.1494 H   0  0  0  0  0  0  0  0  0  0  0  0
   12.1432    2.1694   12.1173 N   0  0  0  0  0  0  0  0  0  0  0  0
   14.6251    6.3477    6.7970 C   0  0  0  0  0  0  0  0  0  0  0  0
   14.9352    6.8553    5.8961 H   0  0  0  0  0  0  0  0  0  0  0  0
   13.9433    5.1441    6.7378 C   0  0  0  0  0  0  0  0  0  0  0  0
   13.7137    4.6792    5.7917 H   0  0  0  0  0  0  0  0  0  0  0  0
   13.5729    4.5203    7.9192 C   0  0  0  0  0  0  0  0  0  0  0  0
   12.9306    3.1680    7.8568 C   0  0  0  0  0  0  0  0  0  0  0  0
   12.4055    3.0286    6.9002 H   0  0  0  0  0  0  0  0  0  0  0  0
   13.7441    2.4376    7.9332 H   0  0  0  0  0  0  0  0  0  0  0  0
   11.6814    1.5279    9.0311 C   0  0  0  0  0  0  0  0  0  0  0  0
   11.1812    1.2170    8.1044 H   0  0  0  0  0  0  0  0  0  0  0  0
   11.0207    1.3335    9.8717 H   0  0  0  0  0  0  0  0  0  0  0  0
   12.5909    0.9483    9.1635 H   0  0  0  0  0  0  0  0  0  0  0  0
   10.8615    3.7922    8.8946 C   0  0  0  0  0  0  0  0  0  0  0  0
   10.0941    3.3370    8.2522 H   0  0  0  0  0  0  0  0  0  0  0  0
   11.1607    4.7411    8.4453 H   0  0  0  0  0  0  0  0  0  0  0  0
   10.3018    4.0531   10.2859 C   0  0  0  0  0  0  0  0  0  0  0  0
    9.4312    4.7222   10.2294 H   0  0  0  0  0  0  0  0  0  0  0  0
    9.9756    3.1076   10.7233 H   0  0  0  0  0  0  0  0  0  0  0  0
   11.4446    6.0607   10.9799 C   0  0  0  0  0  0  0  0  0  0  0  0
   10.5204    6.5623   11.2962 H   0  0  0  0  0  0  0  0  0  0  0  0
   11.6445    6.3113    9.9415 H   0  0  0  0  0  0  0  0  0  0  0  0
   12.2738    6.4133   11.5871 H   0  0  0  0  0  0  0  0  0  0  0  0
   11.0743    4.3129   12.5400 C   0  0  0  0  0  0  0  0  0  0  0  0
   10.0731    4.6571   12.8394 H   0  0  0  0  0  0  0  0  0  0  0  0
   11.8302    4.8386   13.1343 H   0  0  0  0  0  0  0  0  0  0  0  0
   11.2462    2.8546   12.8397 C   0  0  2  0  0  3  0  0  0  0  0  0
   10.5268    2.2950   13.8846 C   0  0  0  0  0  0  0  0  0  0  0  0
    9.8130    2.8959   14.4261 H   0  0  0  0  0  0  0  0  0  0  0  0
   10.7586    0.9744   14.2296 C   0  0  0  0  0  0  0  0  0  0  0  0
   10.2229    0.5111   15.0444 H   0  0  0  0  0  0  0  0  0  0  0  0
   11.7036    0.2779   13.5058 C   0  0  0  0  0  0  0  0  0  0  0  0
   11.9356   -0.7487   13.7428 H   0  0  0  0  0  0  0  0  0  0  0  0
   12.3803    0.8977   12.4543 C   0  0  0  0  0  0  0  0  0  0  0  0
  1 15  1  0  0  0  0
  1 18  1  0  0  0  0
  1 12  1  0  0  0  0
  2  1  1  0  0  0  0
  3 14  1  0  0  0  0
  3  1  1  0  0  0  0
  4  6  1  0  0  0  0
  4  5  1  0  0  0  0
  7  4  1  0  0  0  0
  8 11  1  0  0  0  0
  8 51  1  0  0  0  0
  9  8  1  0  0  0  0
 10  8  1  0  0  0  0
 13 27  1  1  0  0  0
 13  1  1  0  0  0  0
 14  4  1  6  0  0  0
 15 37  1  6  0  0  0
 15 41  1  0  0  0  0
 16 17  1  0  0  0  0
 16 14  1  0  0  0  0
 18 51  1  0  0  0  0
 18 44  1  0  0  0  0
 19 16  2  0  0  0  0
 20 19  1  0  0  0  0
 21 19  1  0  0  0  0
 21 23  2  0  0  0  0
 22 21  1  0  0  0  0
 23  3  1  0  0  0  0
 24 23  1  0  0  0  0
 24 26  1  0  0  0  0
 24 13  1  0  0  0  0
 25 24  1  0  0  0  0
 27 30  1  0  0  0  0
 27 29  1  0  0  0  0
 28 27  1  0  0  0  0
 31 13  1  0  0  0  0
 31 34  1  0  0  0  0
 32 31  1  0  0  0  0
 33 31  1  0  0  0  0
 34 36  1  0  0  0  0
 34 15  1  0  0  0  0
 35 34  1  0  0  0  0
 37 38  1  0  0  0  0
 37 40  1  0  0  0  0
 39 37  1  0  0  0  0
 41 42  1  0  0  0  0
 41 44  1  0  0  0  0
 41 43  1  0  0  0  0
 44 45  1  1  0  0  0
 45 47  2  0  0  0  0
 45 46  1  0  0  0  0
 47 48  1  0  0  0  0
 49 50  1  0  0  0  0
 49 47  1  0  0  0  0
 51 49  2  0  0  0  0
M  END
$$$$
