CSD_code = ERAQAP | q = 0 | S = 0 | Stoichiometry = C11H9Cl3N2O2Pt | MND = 6
 OpenBabel04212202033D

 28 31  0  0  1  0  0  0  0  0999 V2000
    1.2686    4.8640    6.4893 Pt  0  0  0  0  0  0  0  0  0  0  0  0
   -0.7374    5.9509    6.6346 Cl  0  0  0  0  0  0  0  0  0  0  0  0
    2.1784    6.4444    5.1105 Cl  0  0  0  0  0  0  0  0  0  0  0  0
    2.0341    6.0281    8.3319 Cl  0  0  0  0  0  0  0  0  0  0  0  0
    0.6969    3.5529    4.9712 O   0  0  0  0  0  0  0  0  0  0  0  0
    0.9036    1.3179    4.6413 O   0  0  0  0  0  0  0  0  0  0  0  0
    2.9988    3.7119    6.2858 N   0  0  0  0  0  0  0  0  0  0  0  0
    0.4767    3.2853    7.6041 N   0  0  0  0  0  0  0  0  0  0  0  0
    1.1650    2.3953    5.4911 C   0  0  1  0  0  0  0  0  0  0  0  0
    2.6761    2.5383    5.7517 C   0  0  1  0  0  3  0  0  0  0  0  0
    4.2644    4.0392    6.4992 C   0  0  0  0  0  0  0  0  0  0  0  0
    5.2866    3.1612    6.1809 C   0  0  0  0  0  0  0  0  0  0  0  0
    4.9676    1.9280    5.6293 C   0  0  0  0  0  0  0  0  0  0  0  0
    3.6375    1.6043    5.4093 C   0  0  0  0  0  0  0  0  0  0  0  0
    0.5266    2.1747    6.8755 C   0  0  2  0  0  3  0  0  0  0  0  0
   -0.1154    3.2976    8.7889 C   0  0  0  0  0  0  0  0  0  0  0  0
   -0.6902    2.1488    9.3056 C   0  0  0  0  0  0  0  0  0  0  0  0
   -0.6413    0.9780    8.5614 C   0  0  0  0  0  0  0  0  0  0  0  0
   -0.0206    0.9850    7.3217 C   0  0  0  0  0  0  0  0  0  0  0  0
    0.4308    1.6854    3.8819 H   0  0  0  0  0  0  0  0  0  0  0  0
    4.4420    5.0165    6.9271 H   0  0  0  0  0  0  0  0  0  0  0  0
    6.3116    3.4453    6.3560 H   0  0  0  0  0  0  0  0  0  0  0  0
    5.7463    1.2289    5.3636 H   0  0  0  0  0  0  0  0  0  0  0  0
    3.3307    0.6706    4.9667 H   0  0  0  0  0  0  0  0  0  0  0  0
   -0.1212    4.2437    9.3130 H   0  0  0  0  0  0  0  0  0  0  0  0
   -1.1732    2.1774   10.2687 H   0  0  0  0  0  0  0  0  0  0  0  0
   -1.0901    0.0711    8.9373 H   0  0  0  0  0  0  0  0  0  0  0  0
    0.0316    0.1119    6.6915 H   0  0  0  0  0  0  0  0  0  0  0  0
  1  2  1  0  0  0  0
  1  8  1  0  0  0  0
  1  4  1  0  0  0  0
  3  1  1  0  0  0  0
  5  9  1  0  0  0  0
  5  1  1  0  0  0  0
  7  1  1  0  0  0  0
  7 11  1  0  0  0  0
  8 16  1  0  0  0  0
  9  6  1  6  0  0  0
  9 10  1  0  0  0  0
  9 15  1  0  0  0  0
 10 14  1  6  0  0  0
 10  7  1  0  0  0  0
 11 21  1  0  0  0  0
 12 22  1  0  0  0  0
 12 11  2  0  0  0  0
 13 12  1  0  0  0  0
 14 13  2  0  0  0  0
 15 19  1  6  0  0  0
 15  8  1  0  0  0  0
 16 17  2  0  0  0  0
 16 25  1  0  0  0  0
 17 26  1  0  0  0  0
 18 27  1  0  0  0  0
 18 17  1  0  0  0  0
 19 18  2  0  0  0  0
 20  6  1  0  0  0  0
 23 13  1  0  0  0  0
 24 14  1  0  0  0  0
 28 19  1  0  0  0  0
M  END
$$$$
