CSD_code = ERAZUU | q = 0 | S = 0 | Stoichiometry = C20H44ClN2O2Sc | MND = 5
 OpenBabel04212202033D

 70 69  0  0  0  0  0  0  0  0999 V2000
    6.0524   14.8059    2.2290 Sc  0  0  0  0  0  0  0  0  0  0  0  0
    6.0420   12.4661    1.9919 Cl  0  0  0  0  0  0  0  0  0  0  0  0
    4.6441   14.3042    4.0843 O   0  0  0  0  0  0  0  0  0  0  0  0
    7.2599   14.7575    0.1370 O   0  0  0  0  0  0  0  0  0  0  0  0
    4.4647   15.5867    1.2039 N   0  0  0  0  0  0  0  0  0  0  0  0
    7.5330   15.6969    3.3596 N   0  0  0  0  0  0  0  0  0  0  0  0
    4.0063   16.9661    1.2770 C   0  0  0  0  0  0  0  0  0  0  0  0
    3.1071   17.1129    0.6619 H   0  0  0  0  0  0  0  0  0  0  0  0
    5.0812   17.9429    0.7625 C   0  0  0  0  0  0  0  0  0  0  0  0
    5.2540   17.7862   -0.2997 H   0  0  0  0  0  0  0  0  0  0  0  0
    6.0163   17.7634    1.2961 H   0  0  0  0  0  0  0  0  0  0  0  0
    4.7745   18.9762    0.9155 H   0  0  0  0  0  0  0  0  0  0  0  0
    3.6347   17.3311    2.7241 C   0  0  0  0  0  0  0  0  0  0  0  0
    4.5030   17.1806    3.3691 H   0  0  0  0  0  0  0  0  0  0  0  0
    2.8270   16.6888    3.0687 H   0  0  0  0  0  0  0  0  0  0  0  0
    3.3130   18.3690    2.7957 H   0  0  0  0  0  0  0  0  0  0  0  0
    3.7409   14.7771    0.2299 C   0  0  0  0  0  0  0  0  0  0  0  0
    4.1925   13.7710    0.2567 H   0  0  0  0  0  0  0  0  0  0  0  0
    2.2440   14.6027    0.5693 C   0  0  0  0  0  0  0  0  0  0  0  0
    1.6902   15.5261    0.4147 H   0  0  0  0  0  0  0  0  0  0  0  0
    2.1334   14.3034    1.6095 H   0  0  0  0  0  0  0  0  0  0  0  0
    1.8074   13.8331   -0.0634 H   0  0  0  0  0  0  0  0  0  0  0  0
    3.8713   15.2875   -1.2209 C   0  0  0  0  0  0  0  0  0  0  0  0
    4.9201   15.4494   -1.4610 H   0  0  0  0  0  0  0  0  0  0  0  0
    3.3357   16.2240   -1.3601 H   0  0  0  0  0  0  0  0  0  0  0  0
    3.4623   14.5532   -1.9118 H   0  0  0  0  0  0  0  0  0  0  0  0
    7.6646   17.0869    3.7684 C   0  0  0  0  0  0  0  0  0  0  0  0
    6.7505   17.6020    3.4349 H   0  0  0  0  0  0  0  0  0  0  0  0
    8.8497   17.8196    3.1004 C   0  0  0  0  0  0  0  0  0  0  0  0
    8.7624   17.7627    2.0165 H   0  0  0  0  0  0  0  0  0  0  0  0
    9.7994   17.3790    3.3927 H   0  0  0  0  0  0  0  0  0  0  0  0
    8.8521   18.8679    3.3914 H   0  0  0  0  0  0  0  0  0  0  0  0
    7.7516   17.3008    5.2963 C   0  0  0  0  0  0  0  0  0  0  0  0
    8.7157   16.9899    5.6899 H   0  0  0  0  0  0  0  0  0  0  0  0
    6.9747   16.7311    5.8013 H   0  0  0  0  0  0  0  0  0  0  0  0
    7.6150   18.3553    5.5275 H   0  0  0  0  0  0  0  0  0  0  0  0
    8.6340   14.8571    3.8357 C   0  0  0  0  0  0  0  0  0  0  0  0
    9.3872   15.4676    4.3543 H   0  0  0  0  0  0  0  0  0  0  0  0
    8.1322   13.7932    4.8304 C   0  0  0  0  0  0  0  0  0  0  0  0
    7.3693   13.1743    4.3504 H   0  0  0  0  0  0  0  0  0  0  0  0
    7.7020   14.2715    5.7087 H   0  0  0  0  0  0  0  0  0  0  0  0
    8.9514   13.1513    5.1504 H   0  0  0  0  0  0  0  0  0  0  0  0
    9.3438   14.1502    2.6672 C   0  0  0  0  0  0  0  0  0  0  0  0
    8.6411   13.4846    2.1591 H   0  0  0  0  0  0  0  0  0  0  0  0
   10.1816   13.5578    3.0328 H   0  0  0  0  0  0  0  0  0  0  0  0
    9.7202   14.8873    1.9591 H   0  0  0  0  0  0  0  0  0  0  0  0
    3.6906   13.2448    4.0484 C   0  0  0  0  0  0  0  0  0  0  0  0
    4.1038   12.3664    4.5636 H   0  0  0  0  0  0  0  0  0  0  0  0
    3.5035   12.9885    3.0054 H   0  0  0  0  0  0  0  0  0  0  0  0
    2.4617   13.7819    4.7903 C   0  0  0  0  0  0  0  0  0  0  0  0
    1.9241   12.9847    5.2985 H   0  0  0  0  0  0  0  0  0  0  0  0
    1.7792   14.2666    4.0930 H   0  0  0  0  0  0  0  0  0  0  0  0
    3.0596   14.8080    5.7669 C   0  0  0  0  0  0  0  0  0  0  0  0
    2.6233   15.7936    5.6143 H   0  0  0  0  0  0  0  0  0  0  0  0
    2.9078   14.5238    6.8062 H   0  0  0  0  0  0  0  0  0  0  0  0
    4.5546   14.8126    5.4079 C   0  0  0  0  0  0  0  0  0  0  0  0
    5.0003   15.8076    5.4187 H   0  0  0  0  0  0  0  0  0  0  0  0
    5.1118   14.1536    6.0899 H   0  0  0  0  0  0  0  0  0  0  0  0
    7.4028   13.6545   -0.7570 C   0  0  0  0  0  0  0  0  0  0  0  0
    6.7501   13.8032   -1.6292 H   0  0  0  0  0  0  0  0  0  0  0  0
    7.1071   12.7474   -0.2300 H   0  0  0  0  0  0  0  0  0  0  0  0
    8.8740   13.6785   -1.1757 C   0  0  0  0  0  0  0  0  0  0  0  0
    9.0227   13.2290   -2.1546 H   0  0  0  0  0  0  0  0  0  0  0  0
    9.4758   13.1369   -0.4474 H   0  0  0  0  0  0  0  0  0  0  0  0
    9.2128   15.1772   -1.1529 C   0  0  0  0  0  0  0  0  0  0  0  0
   10.1208   15.3669   -0.5836 H   0  0  0  0  0  0  0  0  0  0  0  0
    9.3512   15.5774   -2.1559 H   0  0  0  0  0  0  0  0  0  0  0  0
    7.9856   15.8154   -0.4752 C   0  0  0  0  0  0  0  0  0  0  0  0
    8.2437   16.5349    0.3032 H   0  0  0  0  0  0  0  0  0  0  0  0
    7.3502   16.3097   -1.2245 H   0  0  0  0  0  0  0  0  0  0  0  0
  1  6  1  0  0  0  0
  2  1  1  0  0  0  0
  3 56  1  0  0  0  0
  5  7  1  0  0  0  0
  5  1  1  0  0  0  0
  6 27  1  0  0  0  0
  6 37  1  0  0  0  0
  7 13  1  0  0  0  0
  8  7  1  0  0  0  0
  9 12  1  0  0  0  0
  9  7  1  0  0  0  0
  9 11  1  0  0  0  0
 10  9  1  0  0  0  0
 13 16  1  0  0  0  0
 13 15  1  0  0  0  0
 13 14  1  0  0  0  0
 17 18  1  0  0  0  0
 17 19  1  0  0  0  0
 17  5  1  0  0  0  0
 19 21  1  0  0  0  0
 20 19  1  0  0  0  0
 22 19  1  0  0  0  0
 23 17  1  0  0  0  0
 24 23  1  0  0  0  0
 25 23  1  0  0  0  0
 26 23  1  0  0  0  0
 27 33  1  0  0  0  0
 28 27  1  0  0  0  0
 29 32  1  0  0  0  0
 29 31  1  0  0  0  0
 29 27  1  0  0  0  0
 30 29  1  0  0  0  0
 33 36  1  0  0  0  0
 33 34  1  0  0  0  0
 33 35  1  0  0  0  0
 37 38  1  0  0  0  0
 37 39  1  0  0  0  0
 39 42  1  0  0  0  0
 39 41  1  0  0  0  0
 40 39  1  0  0  0  0
 43 45  1  0  0  0  0
 43 37  1  0  0  0  0
 44 43  1  0  0  0  0
 46 43  1  0  0  0  0
 47  3  1  0  0  0  0
 47 48  1  0  0  0  0
 47 50  1  0  0  0  0
 49 47  1  0  0  0  0
 50 51  1  0  0  0  0
 50 53  1  0  0  0  0
 52 50  1  0  0  0  0
 53 55  1  0  0  0  0
 54 53  1  0  0  0  0
 56 57  1  0  0  0  0
 56 53  1  0  0  0  0
 56 58  1  0  0  0  0
 59 61  1  0  0  0  0
 59  4  1  0  0  0  0
 60 59  1  0  0  0  0
 62 65  1  0  0  0  0
 62 59  1  0  0  0  0
 62 64  1  0  0  0  0
 63 62  1  0  0  0  0
 65 66  1  0  0  0  0
 65 68  1  0  0  0  0
 67 65  1  0  0  0  0
 68  4  1  0  0  0  0
 68 69  1  0  0  0  0
 70 68  1  0  0  0  0
M  END
$$$$
