CSD_code = EREHOZ | q = 0 | S = 0 | Stoichiometry = C26H20Cl2N4Zn | MND = 4
 OpenBabel04212202033D

 53 58  0  0  0  0  0  0  0  0999 V2000
    4.6832    4.3426   11.2256 C   0  0  0  0  0  0  0  0  0  0  0  0
    3.6225    3.5820   11.7027 C   0  0  0  0  0  0  0  0  0  0  0  0
    2.9248    4.0060   12.4065 H   0  0  0  0  0  0  0  0  0  0  0  0
    3.5009    2.2980   11.2163 C   0  0  0  0  0  0  0  0  0  0  0  0
    2.6867    1.6759   11.5553 H   0  0  0  0  0  0  0  0  0  0  0  0
    4.4111    1.7739   10.2945 C   0  0  0  0  0  0  0  0  0  0  0  0
    4.2849    0.7573    9.9536 H   0  0  0  0  0  0  0  0  0  0  0  0
    5.4637    2.5201    9.8046 C   0  0  0  0  0  0  0  0  0  0  0  0
    6.1673    2.1039    9.1004 H   0  0  0  0  0  0  0  0  0  0  0  0
    5.5797    3.8232   10.2683 C   0  0  0  0  0  0  0  0  0  0  0  0
    7.5637    4.8312    9.1168 C   0  0  0  0  0  0  0  0  0  0  0  0
    7.4017    4.2996    7.8430 C   0  0  0  0  0  0  0  0  0  0  0  0
    6.4427    3.9065    7.5427 H   0  0  0  0  0  0  0  0  0  0  0  0
    8.4659    4.3062    6.9593 C   0  0  0  0  0  0  0  0  0  0  0  0
    8.3390    3.8949    5.9694 H   0  0  0  0  0  0  0  0  0  0  0  0
    9.6838    4.8469    7.3362 C   0  0  0  0  0  0  0  0  0  0  0  0
   10.5103    4.8519    6.6424 H   0  0  0  0  0  0  0  0  0  0  0  0
    9.8382    5.3874    8.6022 C   0  0  0  0  0  0  0  0  0  0  0  0
   10.7843    5.8149    8.8970 H   0  0  0  0  0  0  0  0  0  0  0  0
    8.7834    5.3800    9.4965 C   0  0  0  0  0  0  0  0  0  0  0  0
    8.9006    5.7908   10.4878 H   0  0  0  0  0  0  0  0  0  0  0  0
    6.1256    5.8734   10.8083 C   0  0  0  0  0  3  0  0  0  0  0  0
    6.6342    6.8191   10.8141 H   0  0  0  0  0  0  0  0  0  0  0  0
    5.9357    6.7537   15.3652 C   0  0  0  0  0  0  0  0  0  0  0  0
    7.1378    7.3213   14.9600 C   0  0  0  0  0  0  0  0  0  0  0  0
    7.2447    7.7079   13.9595 H   0  0  0  0  0  0  0  0  0  0  0  0
    8.1492    7.3854   15.8944 C   0  0  0  0  0  0  0  0  0  0  0  0
    9.0966    7.8254   15.6229 H   0  0  0  0  0  0  0  0  0  0  0  0
    7.9831    6.8893   17.1902 C   0  0  0  0  0  0  0  0  0  0  0  0
    8.8086    6.9481   17.8836 H   0  0  0  0  0  0  0  0  0  0  0  0
    6.7927    6.3307   17.6097 C   0  0  0  0  0  0  0  0  0  0  0  0
    6.6764    5.9415   18.6092 H   0  0  0  0  0  0  0  0  0  0  0  0
    5.7599    6.2841   16.6837 C   0  0  0  0  0  0  0  0  0  0  0  0
    3.7937    5.2502   17.8417 C   0  0  0  0  0  0  0  0  0  0  0  0
    3.9012    5.8493   19.0910 C   0  0  0  0  0  0  0  0  0  0  0  0
    4.4886    6.7471   19.2075 H   0  0  0  0  0  0  0  0  0  0  0  0
    3.2287    5.3048   20.1702 C   0  0  0  0  0  0  0  0  0  0  0  0
    3.3100    5.7720   21.1398 H   0  0  0  0  0  0  0  0  0  0  0  0
    2.4459    4.1741   20.0072 C   0  0  0  0  0  0  0  0  0  0  0  0
    1.9208    3.7546   20.8516 H   0  0  0  0  0  0  0  0  0  0  0  0
    2.3320    3.5859   18.7583 C   0  0  0  0  0  0  0  0  0  0  0  0
    1.7189    2.7074   18.6272 H   0  0  0  0  0  0  0  0  0  0  0  0
    3.0047    4.1179   17.6735 C   0  0  0  0  0  0  0  0  0  0  0  0
    2.9274    3.6587   16.6997 H   0  0  0  0  0  0  0  0  0  0  0  0
    3.9410    5.9793   15.5041 C   0  0  0  0  0  3  0  0  0  0  0  0
    2.9310    5.7205   15.2473 H   0  0  0  0  0  0  0  0  0  0  0  0
    5.0665    5.6259   11.5321 N   0  0  0  0  0  0  0  0  0  0  0  0
    6.4872    4.8360   10.0233 N   0  0  0  0  0  0  0  0  0  0  0  0
    4.7719    6.5406   14.6667 N   0  0  0  0  0  0  0  0  0  0  0  0
    4.4672    5.7990   16.7344 N   0  0  0  0  0  0  0  0  0  0  0  0
    5.4116    8.8216   12.1291 Cl  0  0  0  0  0  0  0  0  0  0  0  0
    2.0332    6.6380   12.8831 Cl  0  0  0  0  0  0  0  0  0  0  0  0
    4.1993    7.0735   12.7425 Zn  0  0  0  0  0  0  0  0  0  0  0  0
  1 47  1  0  0  0  0
  1  2  1  0  0  0  0
  2  3  1  0  0  0  0
  4  5  1  0  0  0  0
  4  2  2  0  0  0  0
  6  4  1  0  0  0  0
  7  6  1  0  0  0  0
  8 10  1  0  0  0  0
  8  6  2  0  0  0  0
  9  8  1  0  0  0  0
 10  1  2  0  0  0  0
 11 20  1  0  0  0  0
 11 48  1  0  0  0  0
 12 11  2  0  0  0  0
 13 12  1  0  0  0  0
 14 16  2  0  0  0  0
 14 12  1  0  0  0  0
 15 14  1  0  0  0  0
 16 18  1  0  0  0  0
 17 16  1  0  0  0  0
 18 19  1  0  0  0  0
 18 20  2  0  0  0  0
 20 21  1  0  0  0  0
 22 23  1  0  0  0  0
 22 47  1  0  0  0  0
 24 33  1  0  0  0  0
 25 24  2  0  0  0  0
 25 27  1  0  0  0  0
 26 25  1  0  0  0  0
 27 29  2  0  0  0  0
 28 27  1  0  0  0  0
 29 31  1  0  0  0  0
 29 30  1  0  0  0  0
 31 32  1  0  0  0  0
 33 50  1  0  0  0  0
 33 31  2  0  0  0  0
 34 35  1  0  0  0  0
 35 36  1  0  0  0  0
 35 37  2  0  0  0  0
 37 38  1  0  0  0  0
 39 37  1  0  0  0  0
 39 40  1  0  0  0  0
 41 39  2  0  0  0  0
 42 41  1  0  0  0  0
 43 34  2  0  0  0  0
 43 41  1  0  0  0  0
 44 43  1  0  0  0  0
 45 50  1  0  0  0  0
 46 45  1  0  0  0  0
 47 53  1  0  0  0  0
 48 10  1  0  0  0  0
 48 22  1  0  0  0  0
 49 24  1  0  0  0  0
 49 45  1  0  0  0  0
 50 34  1  0  0  0  0
 51 53  1  0  0  0  0
 53 52  1  0  0  0  0
 53 49  1  0  0  0  0
M  END
$$$$
