CSD_code = EREPIC | q = 0 | S = 0 | Stoichiometry = C13H8BrMnN2O5 | MND = 6
 OpenBabel04212202033D

 30 32  0  0  1  0  0  0  0  0999 V2000
    3.1568    6.0606    4.5264 Br  0  0  0  0  0  0  0  0  0  0  0  0
    2.3932    6.9729    2.3531 Mn  0  0  0  0  0  0  0  0  0  0  0  0
    1.3036    9.2470    3.8454 O   0  0  0  0  0  1  0  0  0  0  0  0
    1.7768    8.3952    3.2381 C   0  0  0  0  0  2  0  0  0  0  0  0
    1.4103    8.0760   -0.1687 O   0  0  0  0  0  1  0  0  0  0  0  0
    1.8254    7.6341    0.8091 C   0  0  0  0  0  2  0  0  0  0  0  0
   -0.2433    5.8597    2.9812 O   0  0  0  0  0  1  0  0  0  0  0  0
    0.7962    6.2500    2.6899 C   0  0  0  0  0  2  0  0  0  0  0  0
    3.8435    9.7716    2.4510 O   0  0  0  0  0  0  0  0  0  0  0  0
    4.2092   10.6259    2.7161 H   0  0  0  0  0  0  0  0  0  0  0  0
    4.3395    7.5994    2.1171 N   0  0  0  0  0  0  0  0  0  0  0  0
    4.7927    8.8300    2.3504 C   0  0  1  0  0  3  0  0  0  0  0  0
    6.1502    9.1227    2.4669 C   0  0  0  0  0  0  0  0  0  0  0  0
    6.4673   10.1322    2.6799 H   0  0  0  0  0  0  0  0  0  0  0  0
    7.0637    8.0966    2.3149 C   0  0  0  0  0  0  0  0  0  0  0  0
    8.1205    8.2877    2.4141 H   0  0  0  0  0  0  0  0  0  0  0  0
    6.6025    6.8249    2.0253 C   0  0  0  0  0  0  0  0  0  0  0  0
    7.2988    6.0154    1.8924 H   0  0  0  0  0  0  0  0  0  0  0  0
    5.2317    6.6054    1.9290 C   0  0  0  0  0  0  0  0  0  0  0  0
    1.3336    4.3150    1.0293 O   0  0  0  0  0  0  0  0  0  0  0  0
    0.9163    3.4656    0.8337 H   0  0  0  0  0  0  0  0  0  0  0  0
    3.2901    5.3173    1.5226 N   0  0  0  0  0  0  0  0  0  0  0  0
    2.6651    4.2046    1.1412 C   0  0  2  0  0  3  0  0  0  0  0  0
    3.3418    3.0181    0.8651 C   0  0  0  0  0  0  0  0  0  0  0  0
    2.7885    2.1356    0.5822 H   0  0  0  0  0  0  0  0  0  0  0  0
    4.7198    3.0021    0.9719 C   0  0  0  0  0  0  0  0  0  0  0  0
    5.2717    2.0960    0.7781 H   0  0  0  0  0  0  0  0  0  0  0  0
    5.3794    4.1669    1.3212 C   0  0  0  0  0  0  0  0  0  0  0  0
    6.4527    4.1774    1.3975 H   0  0  0  0  0  0  0  0  0  0  0  0
    4.6372    5.3131    1.5897 C   0  0  0  0  0  0  0  0  0  0  0  0
  2  8  1  0  0  0  0
  2  4  1  0  0  0  0
  2  1  1  0  0  0  0
  4  3  1  0  0  0  0
  5  6  1  0  0  0  0
  6  2  1  0  0  0  0
  8  7  1  0  0  0  0
  9 10  1  0  0  0  0
 11 12  1  0  0  0  0
 11  2  1  0  0  0  0
 12  9  1  6  0  0  0
 12 13  1  0  0  0  0
 13 14  1  0  0  0  0
 15 16  1  0  0  0  0
 15 13  2  0  0  0  0
 17 15  1  0  0  0  0
 18 17  1  0  0  0  0
 19 17  2  0  0  0  0
 19 11  1  0  0  0  0
 21 20  1  0  0  0  0
 22 30  1  0  0  0  0
 22  2  1  0  0  0  0
 23 20  1  6  0  0  0
 23 22  1  0  0  0  0
 24 26  2  0  0  0  0
 24 23  1  0  0  0  0
 25 24  1  0  0  0  0
 26 28  1  0  0  0  0
 27 26  1  0  0  0  0
 28 29  1  0  0  0  0
 28 30  2  0  0  0  0
 30 19  1  0  0  0  0
M  END
$$$$
