CSD_code = EREQUO | q = 0 | S = 0 | Stoichiometry = C29H28Br2MoN4O2 | MND = 6
 OpenBabel04212202033D

 66 70  0  0  1  0  0  0  0  0999 V2000
    7.6281    3.3928    2.4478 Mo  0  0  0  0  0  0  0  0  0  0  0  0
    8.8727    3.2484    0.1581 Br  0  0  0  0  0  0  0  0  0  0  0  0
    7.0220    3.1014    4.9370 Br  0  0  0  0  0  0  0  0  0  0  0  0
    9.5328    3.3880    3.1543 O   0  0  0  0  0  0  0  0  0  0  0  0
    7.8875    1.4366    2.4700 O   0  0  0  0  0  0  0  0  0  0  0  0
    7.8669    5.2762    2.5202 N   0  0  0  0  0  0  0  0  0  0  0  0
    7.2291    6.4162    2.1183 N   0  0  0  0  0  0  0  0  0  0  0  0
    6.0438    3.3167    1.7356 N   0  0  0  0  0  2  0  0  0  0  0  0
    4.9124    3.0496    1.1631 N   0  0  0  0  0  0  0  0  0  0  0  0
    5.8297    6.4664    2.1079 C   0  0  0  0  0  0  0  0  0  0  0  0
    5.1649    7.1757    1.1072 C   0  0  0  0  0  0  0  0  0  0  0  0
    3.7860    7.2481    1.1105 C   0  0  0  0  0  0  0  0  0  0  0  0
    3.0517    6.5968    2.0875 C   0  0  0  0  0  0  0  0  0  0  0  0
    3.7090    5.8943    3.0841 C   0  0  0  0  0  0  0  0  0  0  0  0
    5.0896    5.8373    3.1091 C   0  0  0  0  0  0  0  0  0  0  0  0
    8.0105    7.5006    1.7008 C   0  0  0  0  0  0  0  0  0  0  0  0
    7.6007    8.8116    1.9489 C   0  0  0  0  0  0  0  0  0  0  0  0
    8.4059    9.8664    1.5691 C   0  0  0  0  0  0  0  0  0  0  0  0
    9.6267    9.6352    0.9528 C   0  0  0  0  0  0  0  0  0  0  0  0
   10.0373    8.3356    0.7102 C   0  0  0  0  0  0  0  0  0  0  0  0
    9.2379    7.2693    1.0780 C   0  0  0  0  0  0  0  0  0  0  0  0
    4.3832    3.9059    0.1781 C   0  0  0  0  0  0  0  0  0  0  0  0
    3.0035    4.0271    0.0305 C   0  0  0  0  0  0  0  0  0  0  0  0
    2.4910    4.8514   -0.9518 C   0  0  0  0  0  0  0  0  0  0  0  0
    3.3402    5.5632   -1.7843 C   0  0  0  0  0  0  0  0  0  0  0  0
    4.7112    5.4570   -1.6222 C   0  0  0  0  0  0  0  0  0  0  0  0
    5.2371    4.6367   -0.6424 C   0  0  0  0  0  0  0  0  0  0  0  0
    4.3521    1.7731    1.3869 C   0  0  0  0  0  0  0  0  0  0  0  0
    4.4869    1.1798    2.6397 C   0  0  0  0  0  0  0  0  0  0  0  0
    3.9912   -0.0922    2.8562 C   0  0  0  0  0  0  0  0  0  0  0  0
    3.3576   -0.7801    1.8344 C   0  0  0  0  0  0  0  0  0  0  0  0
    3.2248   -0.1886    0.5882 C   0  0  0  0  0  0  0  0  0  0  0  0
    3.7231    1.0791    0.3555 C   0  0  0  0  0  0  0  0  0  0  0  0
   11.8179    2.9033    3.5903 C   0  0  0  0  0  0  0  0  0  0  0  0
   10.4146    2.4881    3.2362 C   0  0  0  0  0  0  0  0  0  0  0  0
   10.1444    1.1296    3.0102 C   0  0  0  0  0  0  0  0  0  0  0  0
    8.8772    0.6637    2.6641 C   0  0  2  0  0  3  0  0  0  0  0  0
    8.6418   -0.8144    2.4998 C   0  0  0  0  0  0  0  0  0  0  0  0
    8.7763    5.5715    2.9059 H   0  0  0  0  0  0  0  0  0  0  0  0
    5.7338    7.6647    0.3311 H   0  0  0  0  0  0  0  0  0  0  0  0
    3.2823    7.8042    0.3347 H   0  0  0  0  0  0  0  0  0  0  0  0
    1.9738    6.6441    2.0764 H   0  0  0  0  0  0  0  0  0  0  0  0
    3.1472    5.3988    3.8613 H   0  0  0  0  0  0  0  0  0  0  0  0
    5.5912    5.3328    3.9222 H   0  0  0  0  0  0  0  0  0  0  0  0
    6.6586    8.9905    2.4444 H   0  0  0  0  0  0  0  0  0  0  0  0
    8.0832   10.8778    1.7657 H   0  0  0  0  0  0  0  0  0  0  0  0
   10.2519   10.4651    0.6615 H   0  0  0  0  0  0  0  0  0  0  0  0
   10.9808    8.1458    0.2215 H   0  0  0  0  0  0  0  0  0  0  0  0
    9.5493    6.2587    0.8475 H   0  0  0  0  0  0  0  0  0  0  0  0
    2.3445    3.4747    0.6833 H   0  0  0  0  0  0  0  0  0  0  0  0
    1.4209    4.9402   -1.0666 H   0  0  0  0  0  0  0  0  0  0  0  0
    2.9332    6.1985   -2.5563 H   0  0  0  0  0  0  0  0  0  0  0  0
    5.3790    6.0064   -2.2682 H   0  0  0  0  0  0  0  0  0  0  0  0
    6.3072    4.5411   -0.5236 H   0  0  0  0  0  0  0  0  0  0  0  0
    4.9628    1.7226    3.4437 H   0  0  0  0  0  0  0  0  0  0  0  0
    4.0971   -0.5428    3.8316 H   0  0  0  0  0  0  0  0  0  0  0  0
    2.9711   -1.7732    2.0065 H   0  0  0  0  0  0  0  0  0  0  0  0
    2.7402   -0.7232   -0.2152 H   0  0  0  0  0  0  0  0  0  0  0  0
    3.6394    1.5259   -0.6237 H   0  0  0  0  0  0  0  0  0  0  0  0
   12.4135    2.9388    2.6778 H   0  0  0  0  0  0  0  0  0  0  0  0
   12.2734    2.1883    4.2697 H   0  0  0  0  0  0  0  0  0  0  0  0
   11.8128    3.8937    4.0416 H   0  0  0  0  0  0  0  0  0  0  0  0
   10.9429    0.4171    3.1347 H   0  0  0  0  0  0  0  0  0  0  0  0
    7.5718   -1.0092    2.4489 H   0  0  0  0  0  0  0  0  0  0  0  0
    9.0834   -1.3687    3.3239 H   0  0  0  0  0  0  0  0  0  0  0  0
    9.1056   -1.1492    1.5724 H   0  0  0  0  0  0  0  0  0  0  0  0
  1  5  1  0  0  0  0
  1  6  1  0  0  0  0
  1  4  1  0  0  0  0
  1  3  1  0  0  0  0
  2  1  1  0  0  0  0
  4 35  1  0  0  0  0
  5 37  1  0  0  0  0
  6 39  1  0  0  0  0
  7  6  1  0  0  0  0
  8  1  1  0  0  0  0
  9 28  1  0  0  0  0
  9  8  1  0  0  0  0
 10  7  1  0  0  0  0
 10 15  1  0  0  0  0
 11 12  1  0  0  0  0
 11 10  2  0  0  0  0
 12 13  2  0  0  0  0
 13 14  1  0  0  0  0
 14 15  2  0  0  0  0
 14 43  1  0  0  0  0
 15 44  1  0  0  0  0
 16 17  1  0  0  0  0
 16  7  1  0  0  0  0
 17 45  1  0  0  0  0
 18 46  1  0  0  0  0
 18 17  2  0  0  0  0
 19 18  1  0  0  0  0
 20 19  2  0  0  0  0
 20 21  1  0  0  0  0
 21 16  2  0  0  0  0
 22  9  1  0  0  0  0
 23 22  1  0  0  0  0
 23 50  1  0  0  0  0
 24 23  2  0  0  0  0
 25 26  2  0  0  0  0
 25 24  1  0  0  0  0
 26 27  1  0  0  0  0
 27 54  1  0  0  0  0
 27 22  2  0  0  0  0
 28 29  1  0  0  0  0
 29 30  2  0  0  0  0
 29 55  1  0  0  0  0
 30 56  1  0  0  0  0
 31 57  1  0  0  0  0
 31 30  1  0  0  0  0
 32 31  2  0  0  0  0
 33 32  1  0  0  0  0
 33 28  2  0  0  0  0
 34 62  1  0  0  0  0
 34 61  1  0  0  0  0
 35 34  1  0  0  0  0
 36 63  1  0  0  0  0
 36 35  2  0  0  0  0
 37 38  1  6  0  0  0
 37 36  1  0  0  0  0
 38 65  1  0  0  0  0
 40 11  1  0  0  0  0
 41 12  1  0  0  0  0
 42 13  1  0  0  0  0
 47 19  1  0  0  0  0
 48 20  1  0  0  0  0
 49 21  1  0  0  0  0
 51 24  1  0  0  0  0
 52 25  1  0  0  0  0
 53 26  1  0  0  0  0
 58 32  1  0  0  0  0
 59 33  1  0  0  0  0
 60 34  1  0  0  0  0
 64 38  1  0  0  0  0
 66 38  1  0  0  0  0
M  END
$$$$
