CSD_code = EREXOP | q = 0 | S = 0 | Stoichiometry = C10H10I2N2O2Pt | MND = 4
 OpenBabel04212202033D

 27 28  0  0  0  0  0  0  0  0999 V2000
    4.3504    5.2051    5.9570 Pt  0  0  0  0  0  0  0  0  0  0  0  0
    5.3112    7.1317    7.4335 I   0  0  0  0  0  0  0  0  0  0  0  0
    5.3626    3.9024    6.9982 N   0  0  0  0  0  0  0  0  0  0  0  0
    4.9523    2.0202   10.0152 O   0  0  0  0  0  0  0  0  0  0  0  0
    5.5181    1.3830   10.4697 H   0  0  0  0  0  0  0  0  0  0  0  0
    4.8564    3.4050    8.1191 C   0  0  0  0  0  3  0  0  0  0  0  0
    3.8753    3.7477    8.4324 H   0  0  0  0  0  0  0  0  0  0  0  0
    5.5424    2.4711    8.8933 C   0  0  0  0  0  0  0  0  0  0  0  0
    6.5659    3.5073    6.5846 C   0  0  0  0  0  0  0  0  0  0  0  0
    6.9319    3.9439    5.6606 H   0  0  0  0  0  0  0  0  0  0  0  0
    6.8014    2.0553    8.4644 C   0  0  0  0  0  0  0  0  0  0  0  0
    7.3639    1.3327    9.0386 H   0  0  0  0  0  0  0  0  0  0  0  0
    7.3128    2.5861    7.2927 C   0  0  0  0  0  0  0  0  0  0  0  0
    8.2829    2.2865    6.9309 H   0  0  0  0  0  0  0  0  0  0  0  0
    3.3903    3.2776    4.4806 I   0  0  0  0  0  0  0  0  0  0  0  0
    3.3386    6.5083    4.9160 N   0  0  0  0  0  0  0  0  0  0  0  0
    3.7492    8.3898    1.8986 O   0  0  0  0  0  0  0  0  0  0  0  0
    3.1835    9.0269    1.4440 H   0  0  0  0  0  0  0  0  0  0  0  0
    3.8450    7.0055    3.7951 C   0  0  0  0  0  3  0  0  0  0  0  0
    4.8261    6.6627    3.4819 H   0  0  0  0  0  0  0  0  0  0  0  0
    3.1590    7.9391    3.0206 C   0  0  0  0  0  0  0  0  0  0  0  0
    2.1353    6.9033    5.3294 C   0  0  0  0  0  0  0  0  0  0  0  0
    1.7692    6.4669    6.2533 H   0  0  0  0  0  0  0  0  0  0  0  0
    1.9000    8.3550    3.4492 C   0  0  0  0  0  0  0  0  0  0  0  0
    1.3375    9.0774    2.8749 H   0  0  0  0  0  0  0  0  0  0  0  0
    1.3884    7.8244    4.6210 C   0  0  0  0  0  0  0  0  0  0  0  0
    0.4183    8.1240    4.9826 H   0  0  0  0  0  0  0  0  0  0  0  0
  1  3  1  0  0  0  0
  1  2  1  0  0  0  0
  3  6  1  0  0  0  0
  4  5  1  0  0  0  0
  6  7  1  0  0  0  0
  6  8  1  0  0  0  0
  8  4  1  0  0  0  0
  9  3  1  0  0  0  0
  9 13  2  0  0  0  0
 10  9  1  0  0  0  0
 11  8  2  0  0  0  0
 11 12  1  0  0  0  0
 13 11  1  0  0  0  0
 14 13  1  0  0  0  0
 15  1  1  0  0  0  0
 16 22  1  0  0  0  0
 16  1  1  0  0  0  0
 17 21  1  0  0  0  0
 18 17  1  0  0  0  0
 19 16  1  0  0  0  0
 20 19  1  0  0  0  0
 21 24  2  0  0  0  0
 21 19  1  0  0  0  0
 22 23  1  0  0  0  0
 24 26  1  0  0  0  0
 25 24  1  0  0  0  0
 26 27  1  0  0  0  0
 26 22  2  0  0  0  0
M  END
$$$$
