CSD_code = ERIFIV | q = 1 | S = 0 | Stoichiometry = C21H16ClN4Pd(1+) | MND = 4
 OpenBabel04212202033D

 43 48  0  0  0  0  0  0  0  0999 V2000
    6.1214    8.0281   -1.5882 Pd  0  0  2  0  0  0  0  0  0  0  0  0
    4.4284    8.3899   -2.9511 Cl  0  0  0  0  0  0  0  0  0  0  0  0
    6.5349    9.9451   -1.1204 N   0  0  0  0  0  0  0  0  0  0  0  0
    7.5808    7.7164   -0.4159 N   0  0  0  0  0  0  0  0  0  0  0  0
    6.1569    6.0152   -1.6942 N   0  0  0  0  0  0  0  0  0  0  0  0
   14.0259    6.3497    4.7503 N   0  0  0  0  0  0  0  0  0  0  0  0
   14.7611    7.0265    4.8431 H   0  0  0  0  0  0  0  0  0  0  0  0
   14.0635    5.5199    5.3136 H   0  0  0  0  0  0  0  0  0  0  0  0
    5.9201   11.0448   -1.5458 C   0  0  0  0  0  3  0  0  0  0  0  0
    5.0950   10.8972   -2.2348 H   0  0  0  0  0  0  0  0  0  0  0  0
    6.3042   12.3134   -1.1378 C   0  0  0  0  0  0  0  0  0  0  0  0
    5.7785   13.1785   -1.5068 H   0  0  0  0  0  0  0  0  0  0  0  0
    7.3659   12.4398   -0.2552 C   0  0  0  0  0  0  0  0  0  0  0  0
    7.6893   13.4119    0.0828 H   0  0  0  0  0  0  0  0  0  0  0  0
    8.0095   11.2959    0.1895 C   0  0  0  0  0  0  0  0  0  0  0  0
    8.8368   11.3682    0.8764 H   0  0  0  0  0  0  0  0  0  0  0  0
    7.5802   10.0497   -0.2547 C   0  0  0  0  0  0  0  0  0  0  0  0
    8.1897    8.7713    0.1495 C   0  0  0  0  0  0  0  0  0  0  0  0
    9.2583    8.5719    1.0064 C   0  0  0  0  0  0  0  0  0  0  0  0
    9.7381    9.4079    1.4863 H   0  0  0  0  0  0  0  0  0  0  0  0
    9.7021    7.2648    1.2809 C   0  0  0  0  0  0  0  0  0  0  0  0
    9.0284    6.1956    0.6614 C   0  0  0  0  0  0  0  0  0  0  0  0
    9.3625    5.1863    0.8323 H   0  0  0  0  0  0  0  0  0  0  0  0
    7.9648    6.4501   -0.1871 C   0  0  0  0  0  0  0  0  0  0  0  0
    7.1439    5.4764   -0.9270 C   0  0  0  0  0  0  0  0  0  0  0  0
    5.3601    5.2163   -2.3979 C   0  0  0  0  0  0  0  0  0  0  0  0
    4.5926    5.7045   -2.9897 H   0  0  0  0  0  0  0  0  0  0  0  0
    5.4944    3.8362   -2.3835 C   0  0  0  0  0  0  0  0  0  0  0  0
    4.8273    3.2252   -2.9689 H   0  0  0  0  0  0  0  0  0  0  0  0
    6.4945    3.2690   -1.6085 C   0  0  0  0  0  0  0  0  0  0  0  0
    6.6263    2.1989   -1.5752 H   0  0  0  0  0  0  0  0  0  0  0  0
    7.3263    4.0986   -0.8733 C   0  0  0  0  0  0  0  0  0  0  0  0
    8.1112    3.6815   -0.2638 H   0  0  0  0  0  0  0  0  0  0  0  0
   10.8186    7.0278    2.1748 C   0  0  0  0  0  0  0  0  0  0  0  0
   10.8956    5.8586    2.9460 C   0  0  0  0  0  0  0  0  0  0  0  0
   10.0951    5.1355    2.9060 H   0  0  0  0  0  0  0  0  0  0  0  0
   11.9430    5.6381    3.8037 C   0  0  0  0  0  0  0  0  0  0  0  0
   11.9713    4.7417    4.4046 H   0  0  0  0  0  0  0  0  0  0  0  0
   12.9866    6.5704    3.9181 C   0  0  0  0  0  0  0  0  0  0  0  0
   12.9207    7.7361    3.1383 C   0  0  0  0  0  0  0  0  0  0  0  0
   13.7215    8.4573    3.2031 H   0  0  0  0  0  0  0  0  0  0  0  0
   11.8588    7.9605    2.2998 C   0  0  0  0  0  0  0  0  0  0  0  0
   11.8552    8.8531    1.6926 H   0  0  0  0  0  0  0  0  0  0  0  0
  1  2  1  6  0  0  0
  1  3  1  0  0  0  0
  1  4  1  0  0  0  0
  3 17  1  0  0  0  0
  4 24  1  0  0  0  0
  4 18  1  0  0  0  0
  5  1  1  0  0  0  0
  5 25  1  0  0  0  0
  6  7  1  0  0  0  0
  6  8  1  0  0  0  0
  9 11  1  0  0  0  0
  9  3  1  0  0  0  0
 10  9  1  0  0  0  0
 11 13  2  0  0  0  0
 12 11  1  0  0  0  0
 13 14  1  0  0  0  0
 13 15  1  0  0  0  0
 15 16  1  0  0  0  0
 17 18  1  0  0  0  0
 17 15  2  0  0  0  0
 18 19  2  0  0  0  0
 19 21  1  0  0  0  0
 19 20  1  0  0  0  0
 21 34  1  0  0  0  0
 22 23  1  0  0  0  0
 22 21  2  0  0  0  0
 24 22  1  0  0  0  0
 25 32  1  0  0  0  0
 25 24  2  0  0  0  0
 26 28  2  0  0  0  0
 26  5  1  0  0  0  0
 27 26  1  0  0  0  0
 28 30  1  0  0  0  0
 29 28  1  0  0  0  0
 30 31  1  0  0  0  0
 30 32  2  0  0  0  0
 32 33  1  0  0  0  0
 34 42  2  0  0  0  0
 34 35  1  0  0  0  0
 35 37  2  0  0  0  0
 36 35  1  0  0  0  0
 37 39  1  0  0  0  0
 37 38  1  0  0  0  0
 39  6  1  0  0  0  0
 40 41  1  0  0  0  0
 40 39  2  0  0  0  0
 42 40  1  0  0  0  0
 43 42  1  0  0  0  0
M  END
$$$$
