CSD_code = EROGAT | q = 0 | S = 0 | Stoichiometry = C29H33F5N2Zr | MND = 13
 OpenBabel04212202033D

 70 76  0  0  1  0  0  0  0  0999 V2000
   -0.6008    1.7902   20.2884 Zr  0  0  0  0  0  0  0  0  0  0  0  0
   -1.7807    0.5995   21.1831 F   0  0  0  0  0  0  0  0  0  0  0  0
    2.0853    2.6274   24.3026 F   0  0  0  0  0  0  0  0  0  0  0  0
    3.5237    4.7870   23.7513 F   0  0  0  0  0  0  0  0  0  0  0  0
    3.5482    5.8600   21.1984 F   0  0  0  0  0  0  0  0  0  0  0  0
    1.8949    4.6555   19.3346 F   0  0  0  0  0  0  0  0  0  0  0  0
    0.8021    1.1985   21.9264 N   0  0  0  0  0  0  0  0  0  0  0  0
    1.3928    2.9918   20.7518 N   0  0  0  0  0  0  0  0  0  0  0  0
    1.4508    2.3373   21.9673 C   0  0  1  0  0  3  0  0  0  0  0  0
    2.1660    3.0210   23.0128 C   0  0  0  0  0  0  0  0  0  0  0  0
    2.8667    4.1751   22.7633 C   0  0  0  0  0  0  0  0  0  0  0  0
    2.8602    4.7390   21.4770 C   0  0  0  0  0  0  0  0  0  0  0  0
    2.0582    4.1102   20.5484 C   0  0  0  0  0  0  0  0  0  0  0  0
    0.8622    0.1392   22.9427 C   0  0  0  0  0  0  0  0  0  0  0  0
    2.2946   -0.1097   23.4504 C   0  0  0  0  0  0  0  0  0  0  0  0
   -0.1089    0.4502   24.0887 C   0  0  0  0  0  0  0  0  0  0  0  0
    0.4036   -1.1548   22.2508 C   0  0  0  0  0  0  0  0  0  0  0  0
   -1.1240    4.1370   19.6865 C   0  0  2  0  0  0  0  0  0  0  0  0
   -1.1022    4.1256   21.1066 C   0  0  0  0  0  0  0  0  0  0  0  0
   -2.2078    3.3673   21.5504 C   0  0  0  0  0  0  0  0  0  0  0  0
   -2.7051    3.2001   22.9596 C   0  0  0  0  0  0  0  0  0  0  0  0
   -3.8351    2.1681   22.9975 C   0  0  0  0  0  0  0  0  0  0  0  0
   -4.8505    2.4500   21.8908 C   0  0  0  0  0  0  0  0  0  0  0  0
   -4.2300    2.1854   20.5157 C   0  0  0  0  0  0  0  0  0  0  0  0
   -2.9239    2.9266   20.4126 C   0  0  0  0  0  0  0  0  0  0  0  0
   -2.2557    3.3981   19.2589 C   0  0  0  0  0  0  0  0  0  0  0  0
   -1.3888    0.4284   18.3888 C   0  0  2  0  0  0  0  0  0  0  0  0
   -0.3796   -0.3547   18.9999 C   0  0  0  0  0  0  0  0  0  0  0  0
    0.8553    0.3088   18.8248 C   0  0  0  0  0  0  0  0  0  0  0  0
    2.2422   -0.1892   19.1354 C   0  0  0  0  0  0  0  0  0  0  0  0
    3.2138    0.3442   18.0789 C   0  0  0  0  0  0  0  0  0  0  0  0
    3.0860    1.8616   17.9651 C   0  0  0  0  0  0  0  0  0  0  0  0
    1.7220    2.2509   17.3911 C   0  0  0  0  0  0  0  0  0  0  0  0
    0.6163    1.4954   18.0822 C   0  0  1  0  0  3  0  0  0  0  0  0
   -0.7734    1.5641   17.8043 C   0  0  1  0  0  3  0  0  0  0  0  0
   -2.6639    3.1967   17.8233 C   0  0  0  0  0  0  0  0  0  0  0  0
   -1.4840    2.6268   17.0096 C   0  0  0  0  0  0  0  0  0  0  0  0
    2.3714   -1.1295   23.8191 H   0  0  0  0  0  0  0  0  0  0  0  0
    3.0064    0.0100   22.6345 H   0  0  0  0  0  0  0  0  0  0  0  0
    2.5759    0.5480   24.2635 H   0  0  0  0  0  0  0  0  0  0  0  0
    0.1710    1.3587   24.6145 H   0  0  0  0  0  0  0  0  0  0  0  0
   -1.1115    0.5682   23.6792 H   0  0  0  0  0  0  0  0  0  0  0  0
   -0.1134   -0.3693   24.8025 H   0  0  0  0  0  0  0  0  0  0  0  0
   -0.5983   -1.0406   21.8505 H   0  0  0  0  0  0  0  0  0  0  0  0
    1.0899   -1.4118   21.4472 H   0  0  0  0  0  0  0  0  0  0  0  0
    0.3931   -1.9674   22.9737 H   0  0  0  0  0  0  0  0  0  0  0  0
   -0.5114    4.7594   19.0475 H   0  0  0  0  0  0  0  0  0  0  0  0
   -0.4710    4.7379   21.7430 H   0  0  0  0  0  0  0  0  0  0  0  0
   -1.8920    2.9039   23.6318 H   0  0  0  0  0  0  0  0  0  0  0  0
   -3.0877    4.1644   23.3183 H   0  0  0  0  0  0  0  0  0  0  0  0
   -3.4236    1.1684   22.8495 H   0  0  0  0  0  0  0  0  0  0  0  0
   -4.3250    2.1954   23.9731 H   0  0  0  0  0  0  0  0  0  0  0  0
   -5.7318    1.8197   22.0241 H   0  0  0  0  0  0  0  0  0  0  0  0
   -5.1676    3.4938   21.9500 H   0  0  0  0  0  0  0  0  0  0  0  0
   -4.0715    1.1066   20.3967 H   0  0  0  0  0  0  0  0  0  0  0  0
   -4.9166    2.5147   19.7304 H   0  0  0  0  0  0  0  0  0  0  0  0
   -2.4292    0.1412   18.2864 H   0  0  0  0  0  0  0  0  0  0  0  0
   -0.5248   -1.3404   19.4218 H   0  0  0  0  0  0  0  0  0  0  0  0
    2.5695    0.1560   20.1250 H   0  0  0  0  0  0  0  0  0  0  0  0
    2.2575   -1.2830   19.1389 H   0  0  0  0  0  0  0  0  0  0  0  0
    4.2376    0.0734   18.3450 H   0  0  0  0  0  0  0  0  0  0  0  0
    2.9828   -0.1104   17.1133 H   0  0  0  0  0  0  0  0  0  0  0  0
    3.2134    2.3000   18.9576 H   0  0  0  0  0  0  0  0  0  0  0  0
    3.8748    2.2564   17.3215 H   0  0  0  0  0  0  0  0  0  0  0  0
    1.5855    3.3323   17.4467 H   0  0  0  0  0  0  0  0  0  0  0  0
    1.7022    1.9821   16.3270 H   0  0  0  0  0  0  0  0  0  0  0  0
   -3.5082    2.5043   17.7791 H   0  0  0  0  0  0  0  0  0  0  0  0
   -2.9871    4.1445   17.3797 H   0  0  0  0  0  0  0  0  0  0  0  0
   -0.7826    3.4285   16.7656 H   0  0  0  0  0  0  0  0  0  0  0  0
   -1.8570    2.2159   16.0654 H   0  0  0  0  0  0  0  0  0  0  0  0
  1  8  1  0  0  0  0
  1  2  1  0  0  0  0
  1  7  1  0  0  0  0
  5 12  1  0  0  0  0
  6 13  1  0  0  0  0
  7  9  1  0  0  0  0
  7 14  1  0  0  0  0
  8  9  1  0  0  0  0
  9 10  1  1  0  0  0
 10  3  1  0  0  0  0
 11 10  2  0  0  0  0
 11  4  1  0  0  0  0
 12 11  1  0  0  0  0
 13  8  1  0  0  0  0
 13 12  2  0  0  0  0
 14 15  1  0  0  0  0
 14 16  1  0  0  0  0
 15 38  1  0  0  0  0
 15 40  1  0  0  0  0
 16 41  1  0  0  0  0
 16 43  1  0  0  0  0
 17 14  1  0  0  0  0
 17 46  1  0  0  0  0
 18 47  1  6  0  0  0
 18  1  1  0  0  0  0
 18 19  1  0  0  0  0
 19 20  2  0  0  0  0
 19 48  1  0  0  0  0
 20 21  1  0  0  0  0
 21 22  1  0  0  0  0
 21 50  1  0  0  0  0
 21 49  1  0  0  0  0
 22 52  1  0  0  0  0
 23 54  1  0  0  0  0
 23 53  1  0  0  0  0
 23 22  1  0  0  0  0
 24 23  1  0  0  0  0
 25 24  1  0  0  0  0
 25 20  1  0  0  0  0
 26 18  1  0  0  0  0
 26 25  2  0  0  0  0
 27 57  1  6  0  0  0
 27 28  1  0  0  0  0
 27  1  1  0  0  0  0
 28 58  1  0  0  0  0
 29 28  2  0  0  0  0
 29 30  1  0  0  0  0
 30 60  1  0  0  0  0
 30 59  1  0  0  0  0
 31 61  1  0  0  0  0
 31 30  1  0  0  0  0
 32 31  1  0  0  0  0
 32 63  1  0  0  0  0
 33 65  1  0  0  0  0
 33 32  1  0  0  0  0
 33 34  1  0  0  0  0
 34 29  1  6  0  0  0
 35 37  1  6  0  0  0
 35 34  1  0  0  0  0
 35 27  1  0  0  0  0
 36 26  1  0  0  0  0
 37 36  1  0  0  0  0
 39 15  1  0  0  0  0
 42 16  1  0  0  0  0
 44 17  1  0  0  0  0
 45 17  1  0  0  0  0
 51 22  1  0  0  0  0
 55 24  1  0  0  0  0
 56 24  1  0  0  0  0
 62 31  1  0  0  0  0
 64 32  1  0  0  0  0
 66 33  1  0  0  0  0
 67 36  1  0  0  0  0
 68 36  1  0  0  0  0
 69 37  1  0  0  0  0
 70 37  1  0  0  0  0
M  END
$$$$
