CSD_code = EROROU | q = -1 | S = 0 | Stoichiometry = C33H24ClP2PtS2(1-) | MND = 4
 OpenBabel04212202033D

 63 70  0  0  0  0  0  0  0  0999 V2000
   -0.1542    5.3711    2.1213 C   0  0  0  0  0  0  0  0  0  0  0  0
    0.6503    5.3949    3.2848 C   0  0  0  0  0  0  0  0  0  0  0  0
    1.2571    4.1222    3.3758 C   0  0  0  0  0  0  0  0  0  0  0  0
    0.8750    3.3249    2.2539 C   0  0  0  0  0  0  0  0  0  0  0  0
    1.1937    2.0300    1.8684 C   0  0  0  0  0  0  0  0  0  0  0  0
    1.8539    1.4272    2.4815 H   0  0  0  0  0  0  0  0  0  0  0  0
    0.6677    1.5353    0.6912 C   0  0  0  0  0  0  0  0  0  0  0  0
    0.9115    0.5289    0.3748 H   0  0  0  0  0  0  0  0  0  0  0  0
   -0.1707    2.3162   -0.1038 C   0  0  0  0  0  0  0  0  0  0  0  0
   -0.5605    1.9034   -1.0259 H   0  0  0  0  0  0  0  0  0  0  0  0
   -0.5071    3.6043    0.2637 C   0  0  0  0  0  0  0  0  0  0  0  0
   -1.1518    4.2075   -0.3646 H   0  0  0  0  0  0  0  0  0  0  0  0
    0.0040    4.1223    1.4471 C   0  0  0  0  0  0  0  0  0  0  0  0
   -2.3105    7.0422    0.8525 C   0  0  0  0  0  0  0  0  0  0  0  0
   -3.1491    5.9357    0.8750 C   0  0  0  0  0  0  0  0  0  0  0  0
   -2.8224    5.0406    1.3860 H   0  0  0  0  0  0  0  0  0  0  0  0
   -4.3790    5.9919    0.2449 C   0  0  0  0  0  0  0  0  0  0  0  0
   -5.0304    5.1293    0.2530 H   0  0  0  0  0  0  0  0  0  0  0  0
   -4.7771    7.1554   -0.3937 C   0  0  0  0  0  0  0  0  0  0  0  0
   -5.7386    7.1987   -0.8863 H   0  0  0  0  0  0  0  0  0  0  0  0
   -3.9503    8.2685   -0.3939 C   0  0  0  0  0  0  0  0  0  0  0  0
   -4.2707    9.1789   -0.8811 H   0  0  0  0  0  0  0  0  0  0  0  0
   -2.7189    8.2167    0.2321 C   0  0  0  0  0  0  0  0  0  0  0  0
   -2.0671    9.0798    0.2491 H   0  0  0  0  0  0  0  0  0  0  0  0
    0.4940    7.8269    0.7451 C   0  0  0  0  0  0  0  0  0  0  0  0
    0.4233    7.8286   -0.6433 C   0  0  0  0  0  0  0  0  0  0  0  0
   -0.4361    7.3962   -1.1388 H   0  0  0  0  0  0  0  0  0  0  0  0
    1.4519    8.3850   -1.3816 C   0  0  0  0  0  0  0  0  0  0  0  0
    1.3937    8.3939   -2.4618 H   0  0  0  0  0  0  0  0  0  0  0  0
    2.5565    8.9247   -0.7423 C   0  0  0  0  0  0  0  0  0  0  0  0
    3.3568    9.3595   -1.3250 H   0  0  0  0  0  0  0  0  0  0  0  0
    2.6402    8.8988    0.6416 C   0  0  0  0  0  0  0  0  0  0  0  0
    3.5052    9.3087    1.1423 H   0  0  0  0  0  0  0  0  0  0  0  0
    1.6143    8.3473    1.3839 C   0  0  0  0  0  0  0  0  0  0  0  0
    1.6748    8.3163    2.4779 H   0  0  0  0  0  0  0  0  0  0  0  0
    1.9367    2.7874    5.9641 C   0  0  0  0  0  0  0  0  0  0  0  0
    2.7398    2.6346    7.0891 C   0  0  0  0  0  0  0  0  0  0  0  0
    3.6721    3.1809    7.1480 H   0  0  0  0  0  0  0  0  0  0  0  0
    2.3343    1.8005    8.1128 C   0  0  0  0  0  0  0  0  0  0  0  0
    2.9550    1.6783    8.9896 H   0  0  0  0  0  0  0  0  0  0  0  0
    1.1262    1.1252    8.0191 C   0  0  0  0  0  0  0  0  0  0  0  0
    0.8096    0.4754    8.8232 H   0  0  0  0  0  0  0  0  0  0  0  0
    0.3203    1.2885    6.9043 C   0  0  0  0  0  0  0  0  0  0  0  0
   -0.6243    0.7672    6.8384 H   0  0  0  0  0  0  0  0  0  0  0  0
    0.7213    2.1238    5.8766 C   0  0  0  0  0  0  0  0  0  0  0  0
    0.1048    2.2708    5.0001 H   0  0  0  0  0  0  0  0  0  0  0  0
    4.0041    3.2891    4.0299 C   0  0  0  0  0  0  0  0  0  0  0  0
    4.3943    1.9710    4.2227 C   0  0  0  0  0  0  0  0  0  0  0  0
    3.7828    1.3103    4.8226 H   0  0  0  0  0  0  0  0  0  0  0  0
    5.5662    1.5120    3.6479 C   0  0  0  0  0  0  0  0  0  0  0  0
    5.8739    0.4864    3.8002 H   0  0  0  0  0  0  0  0  0  0  0  0
    6.3433    2.3607    2.8772 C   0  0  0  0  0  0  0  0  0  0  0  0
    7.2584    1.9967    2.4311 H   0  0  0  0  0  0  0  0  0  0  0  0
    5.9476    3.6744    2.6746 C   0  0  0  0  0  0  0  0  0  0  0  0
    6.5525    4.3342    2.0693 H   0  0  0  0  0  0  0  0  0  0  0  0
    4.7786    4.1368    3.2464 C   0  0  0  0  0  0  0  0  0  0  0  0
    4.4495    5.1584    3.1055 H   0  0  0  0  0  0  0  0  0  0  0  0
   -0.7531    6.9800    1.7800 P   0  0  0  0  0  4  0  0  0  0  0  0
    2.4293    3.9636    4.6563 P   0  0  0  0  0  4  0  0  0  0  0  0
   -1.0291    7.9809    3.4900 S   0  0  0  0  0  0  0  0  0  0  0  0
    2.7339    5.7691    5.4793 S   0  0  0  0  0  0  0  0  0  0  0  0
    1.4396    8.8992    5.6701 Cl  0  0  0  0  0  0  0  0  0  0  0  0
    0.9575    6.9849    4.4252 Pt  0  0  1  0  0  0  0  0  0  0  0  0
  1  2  1  0  0  0  0
  2  3  1  0  0  0  0
  2 63  2  0  0  0  0
  3 59  1  0  0  0  0
  4  3  2  0  0  0  0
  5  4  1  0  0  0  0
  5  6  1  0  0  0  0
  7  5  2  0  0  0  0
  8  7  1  0  0  0  0
  9 11  2  0  0  0  0
  9  7  1  0  0  0  0
 10  9  1  0  0  0  0
 11 13  1  0  0  0  0
 12 11  1  0  0  0  0
 13  1  2  0  0  0  0
 13  4  1  0  0  0  0
 14 15  1  0  0  0  0
 14 58  1  0  0  0  0
 15 16  1  0  0  0  0
 17 18  1  0  0  0  0
 17 15  2  0  0  0  0
 19 17  1  0  0  0  0
 20 19  1  0  0  0  0
 21 19  2  0  0  0  0
 21 23  1  0  0  0  0
 22 21  1  0  0  0  0
 23 24  1  0  0  0  0
 23 14  2  0  0  0  0
 25 34  1  0  0  0  0
 25 58  1  0  0  0  0
 26 25  2  0  0  0  0
 27 26  1  0  0  0  0
 28 30  2  0  0  0  0
 28 26  1  0  0  0  0
 29 28  1  0  0  0  0
 30 32  1  0  0  0  0
 31 30  1  0  0  0  0
 32 33  1  0  0  0  0
 32 34  2  0  0  0  0
 34 35  1  0  0  0  0
 36 37  1  0  0  0  0
 37 38  1  0  0  0  0
 37 39  2  0  0  0  0
 39 40  1  0  0  0  0
 41 39  1  0  0  0  0
 41 42  1  0  0  0  0
 43 41  2  0  0  0  0
 44 43  1  0  0  0  0
 45 36  2  0  0  0  0
 45 43  1  0  0  0  0
 46 45  1  0  0  0  0
 47 48  1  0  0  0  0
 47 59  1  0  0  0  0
 48 49  1  0  0  0  0
 50 51  1  0  0  0  0
 50 48  2  0  0  0  0
 52 50  1  0  0  0  0
 53 52  1  0  0  0  0
 54 52  2  0  0  0  0
 54 56  1  0  0  0  0
 55 54  1  0  0  0  0
 56 47  2  0  0  0  0
 57 56  1  0  0  0  0
 58  1  1  0  0  0  0
 58 60  1  0  0  0  0
 59 61  1  0  0  0  0
 59 36  1  0  0  0  0
 60 63  1  0  0  0  0
 63 61  1  0  0  0  0
 63 62  1  6  0  0  0
M  END
$$$$
