CSD_code = EROTIO | q = 0 | S = 0 | Stoichiometry = C18H25Cl2NTi | MND = 8
 OpenBabel04212202033D

 47 49  0  0  1  0  0  0  0  0999 V2000
    2.5373   -9.4423  -11.1377 Ti  0  0  0  0  0  0  0  0  0  0  0  0
    1.0801   -8.0063  -10.3730 Cl  0  0  0  0  0  0  0  0  0  0  0  0
    1.2685  -11.2000  -10.7366 Cl  0  0  0  0  0  0  0  0  0  0  0  0
    3.7038   -9.4373   -9.8161 N   0  0  0  0  0  2  0  0  0  0  0  0
    3.9567   -9.2331   -8.6045 C   0  0  0  0  0  3  0  0  0  0  0  0
    4.5127  -10.4034   -6.3261 C   0  0  0  0  0  0  0  0  0  0  0  0
    4.2351  -11.2898   -5.7578 H   0  0  0  0  0  0  0  0  0  0  0  0
    4.2867   -9.5393   -5.7097 H   0  0  0  0  0  0  0  0  0  0  0  0
    5.5826  -10.4477   -6.5094 H   0  0  0  0  0  0  0  0  0  0  0  0
    2.6421  -10.3431  -13.2794 C   0  0  0  0  0  0  0  0  0  0  0  0
    2.1689  -11.2544  -13.6227 H   0  0  0  0  0  0  0  0  0  0  0  0
    4.4073   -7.8231   -8.1840 C   0  0  0  0  0  0  0  0  0  0  0  0
    4.2595   -8.8648  -12.5750 C   0  0  2  0  0  0  0  0  0  0  0  0
    5.2403   -8.4648  -12.3516 H   0  0  0  0  0  0  0  0  0  0  0  0
    3.7281  -10.4074   -7.6378 C   0  0  0  0  0  0  0  0  0  0  0  0
    2.0926   -9.0309  -13.3755 C   0  0  2  0  0  0  0  0  0  0  0  0
    3.1108   -8.0999  -12.9450 C   0  0  2  0  0  3  0  0  0  0  0  0
    3.9668  -10.2269  -12.8224 C   0  0  0  0  0  0  0  0  0  0  0  0
    4.6780  -11.0431  -12.7442 H   0  0  0  0  0  0  0  0  0  0  0  0
    5.8081   -7.8265   -7.5559 C   0  0  0  0  0  0  0  0  0  0  0  0
    6.4839   -8.4493   -8.1376 H   0  0  0  0  0  0  0  0  0  0  0  0
    5.8008   -8.1775   -6.5312 H   0  0  0  0  0  0  0  0  0  0  0  0
    6.2001   -6.8114   -7.5544 H   0  0  0  0  0  0  0  0  0  0  0  0
    2.2191  -10.4004   -7.3288 C   0  0  0  0  0  0  0  0  0  0  0  0
    1.6420  -10.3224   -8.2529 H   0  0  0  0  0  0  0  0  0  0  0  0
    1.9522   -9.5674   -6.6843 H   0  0  0  0  0  0  0  0  0  0  0  0
    1.9481  -11.3262   -6.8259 H   0  0  0  0  0  0  0  0  0  0  0  0
    4.4647   -6.9341   -9.4368 C   0  0  0  0  0  0  0  0  0  0  0  0
    5.2150   -7.3087  -10.1313 H   0  0  0  0  0  0  0  0  0  0  0  0
    4.7321   -5.9190   -9.1511 H   0  0  0  0  0  0  0  0  0  0  0  0
    3.4940   -6.9118   -9.9375 H   0  0  0  0  0  0  0  0  0  0  0  0
    4.0739  -11.7061   -8.3861 C   0  0  0  0  0  0  0  0  0  0  0  0
    3.4664  -11.8037   -9.2879 H   0  0  0  0  0  0  0  0  0  0  0  0
    3.8860  -12.5637   -7.7448 H   0  0  0  0  0  0  0  0  0  0  0  0
    5.1248  -11.7087   -8.6714 H   0  0  0  0  0  0  0  0  0  0  0  0
    3.3724   -7.2149   -7.2312 C   0  0  0  0  0  0  0  0  0  0  0  0
    3.6387   -6.1804   -7.0238 H   0  0  0  0  0  0  0  0  0  0  0  0
    3.3247   -7.7441   -6.2847 H   0  0  0  0  0  0  0  0  0  0  0  0
    2.3893   -7.2324   -7.6991 H   0  0  0  0  0  0  0  0  0  0  0  0
    2.8494   -6.7159  -12.9789 C   0  0  0  0  0  0  0  0  0  0  0  0
    3.6146   -6.0108  -12.6795 H   0  0  0  0  0  0  0  0  0  0  0  0
    0.8426   -8.5483  -13.8073 C   0  0  0  0  0  0  0  0  0  0  0  0
    0.0775   -9.2402  -14.1369 H   0  0  0  0  0  0  0  0  0  0  0  0
    1.6226   -6.2858  -13.4178 C   0  0  0  0  0  0  0  0  0  0  0  0
    1.4068   -5.2282  -13.4547 H   0  0  0  0  0  0  0  0  0  0  0  0
    0.6273   -7.1929  -13.8246 C   0  0  0  0  0  0  0  0  0  0  0  0
   -0.3243   -6.8059  -14.1579 H   0  0  0  0  0  0  0  0  0  0  0  0
  1  3  1  0  0  0  0
  1  2  1  0  0  0  0
  1  4  1  0  0  0  0
  4  5  1  0  0  0  0
  5 12  1  0  0  0  0
  5 15  1  0  0  0  0
  6  7  1  0  0  0  0
  6  8  1  0  0  0  0
  9  6  1  0  0  0  0
 10 18  2  0  0  0  0
 11 10  1  0  0  0  0
 12 20  1  0  0  0  0
 12 36  1  0  0  0  0
 13 14  1  1  0  0  0
 13  1  1  0  0  0  0
 15 24  1  0  0  0  0
 15  6  1  0  0  0  0
 16 42  1  6  0  0  0
 16 10  1  0  0  0  0
 16 17  1  0  0  0  0
 16  1  1  0  0  0  0
 17 40  1  6  0  0  0
 17 13  1  0  0  0  0
 18 19  1  0  0  0  0
 18 13  1  0  0  0  0
 20 23  1  0  0  0  0
 20 22  1  0  0  0  0
 21 20  1  0  0  0  0
 24 27  1  0  0  0  0
 24 26  1  0  0  0  0
 25 24  1  0  0  0  0
 28 30  1  0  0  0  0
 28 12  1  0  0  0  0
 29 28  1  0  0  0  0
 31 28  1  0  0  0  0
 32 34  1  0  0  0  0
 32 15  1  0  0  0  0
 33 32  1  0  0  0  0
 35 32  1  0  0  0  0
 36 37  1  0  0  0  0
 36 38  1  0  0  0  0
 39 36  1  0  0  0  0
 40 41  1  0  0  0  0
 43 42  1  0  0  0  0
 44 40  2  0  0  0  0
 45 44  1  0  0  0  0
 46 42  2  0  0  0  0
 46 44  1  0  0  0  0
 47 46  1  0  0  0  0
M  END
$$$$
