CSD_code = ERUMEK | q = 0 | S = 0 | Stoichiometry = C22H18Cl2Zr | MND = 12
 OpenBabel04212202033D

 43 46  0  0  1  0  0  0  0  0999 V2000
    0.5292   13.9471   12.3182 Zr  0  0  0  0  0  0  0  0  0  0  0  0
   -0.2794   15.0860   10.4465 Cl  0  0  0  0  0  0  0  0  0  0  0  0
    0.3388   15.8782   13.6050 Cl  0  0  0  0  0  0  0  0  0  0  0  0
   -1.5108   12.6288   11.9229 C   0  0  0  0  0  0  0  0  0  0  0  0
   -0.5100   11.7198   12.3764 C   0  0  0  0  0  0  0  0  0  0  0  0
   -0.2093   10.8180   11.8586 H   0  0  0  0  0  0  0  0  0  0  0  0
   -0.2490   12.0093   13.7499 C   0  0  0  0  0  0  0  0  0  0  0  0
    0.5355   11.3713   14.7325 C   0  0  0  0  0  0  0  0  0  0  0  0
    1.0815   10.4674   14.4938 H   0  0  0  0  0  0  0  0  0  0  0  0
    0.5596   11.8871   16.0040 C   0  0  0  0  0  0  0  0  0  0  0  0
    1.1464   11.3997   16.7687 H   0  0  0  0  0  0  0  0  0  0  0  0
   -0.1815   13.0325   16.3460 C   0  0  0  0  0  0  0  0  0  0  0  0
   -0.1292   13.4012   17.3589 H   0  0  0  0  0  0  0  0  0  0  0  0
   -0.9839   13.6647   15.4305 C   0  0  0  0  0  0  0  0  0  0  0  0
   -1.5786   14.5236   15.7089 H   0  0  0  0  0  0  0  0  0  0  0  0
   -1.0461   13.1608   14.1160 C   0  0  0  0  0  0  0  0  0  0  0  0
   -1.8041   13.5431   12.9705 C   0  0  1  0  0  0  0  0  0  0  0  0
   -2.5598   14.3208   12.9390 H   0  0  0  0  0  0  0  0  0  0  0  0
   -2.1537   12.6332   10.6158 C   0  0  0  0  0  0  0  0  0  0  0  0
   -3.0498   13.2385   10.5413 H   0  0  0  0  0  0  0  0  0  0  0  0
   -1.7192   11.9591    9.5558 C   0  0  0  0  0  0  0  0  0  0  0  0
   -0.8176   11.3679    9.5834 H   0  0  0  0  0  0  0  0  0  0  0  0
   -2.2437   11.9925    8.6173 H   0  0  0  0  0  0  0  0  0  0  0  0
    2.3357   12.9583   10.9780 C   0  0  0  0  0  0  0  0  0  0  0  0
    2.6124   14.3505   10.9461 C   0  0  0  0  0  0  0  0  0  0  0  0
    2.6686   14.9595   10.0523 H   0  0  0  0  0  0  0  0  0  0  0  0
    2.9450   14.7703   12.2595 C   0  0  0  0  0  0  0  0  0  0  0  0
    3.3483   16.0128   12.7887 C   0  0  0  0  0  0  0  0  0  0  0  0
    3.4503   16.8700   12.1371 H   0  0  0  0  0  0  0  0  0  0  0  0
    3.5996   16.1083   14.1326 C   0  0  0  0  0  0  0  0  0  0  0  0
    3.9043   17.0532   14.5558 H   0  0  0  0  0  0  0  0  0  0  0  0
    3.4639   14.9972   14.9870 C   0  0  0  0  0  0  0  0  0  0  0  0
    3.6669   15.1255   16.0395 H   0  0  0  0  0  0  0  0  0  0  0  0
    3.0934   13.7648   14.5131 C   0  0  0  0  0  0  0  0  0  0  0  0
    3.0268   12.9108   15.1748 H   0  0  0  0  0  0  0  0  0  0  0  0
    2.8336   13.6165   13.1328 C   0  0  0  0  0  0  0  0  0  0  0  0
    2.4631   12.4994   12.3277 C   0  0  1  0  0  0  0  0  0  0  0  0
    2.4979   11.4649   12.6426 H   0  0  0  0  0  0  0  0  0  0  0  0
    1.9915   12.1714    9.8048 C   0  0  0  0  0  0  0  0  0  0  0  0
    1.8333   12.7472    8.8984 H   0  0  0  0  0  0  0  0  0  0  0  0
    1.8869   10.8443    9.7671 C   0  0  0  0  0  0  0  0  0  0  0  0
    2.0643   10.2274   10.6330 H   0  0  0  0  0  0  0  0  0  0  0  0
    1.6443   10.3247    8.8565 H   0  0  0  0  0  0  0  0  0  0  0  0
  1 37  1  0  0  0  0
  1 17  1  0  0  0  0
  1  3  1  0  0  0  0
  2  1  1  0  0  0  0
  4  5  2  0  0  0  0
  4 17  1  0  0  0  0
  5  7  1  0  0  0  0
  6  5  1  0  0  0  0
  7 16  2  0  0  0  0
  7  8  1  0  0  0  0
  8 10  2  0  0  0  0
  9  8  1  0  0  0  0
 10 12  1  0  0  0  0
 10 11  1  0  0  0  0
 12 13  1  0  0  0  0
 14 15  1  0  0  0  0
 14 12  2  0  0  0  0
 16 14  1  0  0  0  0
 17 18  1  6  0  0  0
 17 16  1  0  0  0  0
 19  4  1  0  0  0  0
 20 19  1  0  0  0  0
 21 22  1  0  0  0  0
 21 19  2  0  0  0  0
 23 21  1  0  0  0  0
 24 37  1  0  0  0  0
 25 24  2  0  0  0  0
 25 27  1  0  0  0  0
 26 25  1  0  0  0  0
 27 28  2  0  0  0  0
 27 36  1  0  0  0  0
 28 30  1  0  0  0  0
 29 28  1  0  0  0  0
 30 31  1  0  0  0  0
 30 32  2  0  0  0  0
 32 33  1  0  0  0  0
 34 32  1  0  0  0  0
 34 35  1  0  0  0  0
 36 34  2  0  0  0  0
 37 38  1  1  0  0  0
 37 36  1  0  0  0  0
 39 24  1  0  0  0  0
 40 39  1  0  0  0  0
 41 39  2  0  0  0  0
 41 42  1  0  0  0  0
 43 41  1  0  0  0  0
M  END
$$$$
