CSD_code = ERUQOZ | q = 0 | S = 0 | Stoichiometry = C18H13Cl2N4O2V | MND = 6
 OpenBabel04212202033D

 40 44  0  0  0  0  0  0  0  0999 V2000
    2.3742    6.8351    4.4477 V   0  0  0  0  0  0  0  0  0  0  0  0
    4.2554    6.0212    5.3207 Cl  0  0  0  0  0  0  0  0  0  0  0  0
    0.3643    6.7766    3.5306 Cl  0  0  0  0  0  0  0  0  0  0  0  0
    1.7787    7.4335    6.0212 O   0  0  0  0  0  0  0  0  0  0  0  0
    2.9433    8.0585    3.7637 O   0  0  0  0  0  1  0  0  0  0  0  0
   -0.2929    7.8852   10.5452 N   0  0  0  0  0  0  0  0  0  0  0  0
    1.1388    5.3175    6.4679 N   0  0  0  0  0  0  0  0  0  0  0  0
    1.6897    5.1743    5.2681 N   0  0  0  0  0  0  0  0  0  0  0  0
    2.7624    5.4822    3.0646 N   0  0  0  0  0  0  0  0  0  0  0  0
   -0.4182    6.6236   10.1685 C   0  0  0  0  0  0  0  0  0  0  0  0
    0.0548    6.1353    8.9614 C   0  0  0  0  0  0  0  0  0  0  0  0
    0.6965    7.0286    8.1043 C   0  0  0  0  0  0  0  0  0  0  0  0
    0.8304    8.3599    8.4971 C   0  0  0  0  0  0  0  0  0  0  0  0
    0.3154    8.7291    9.7298 C   0  0  0  0  0  0  0  0  0  0  0  0
    1.2310    6.5922    6.8063 C   0  0  0  0  0  0  0  0  0  0  0  0
    1.7231    4.0549    4.6139 C   0  0  0  0  0  0  0  0  0  0  0  0
    2.3995    4.2135    3.3365 C   0  0  0  0  0  0  0  0  0  0  0  0
    2.7145    3.1658    2.4678 C   0  0  0  0  0  0  0  0  0  0  0  0
    3.3779    3.4482    1.2900 C   0  0  0  0  0  0  0  0  0  0  0  0
    3.7171    4.7662    1.0107 C   0  0  0  0  0  0  0  0  0  0  0  0
    3.3977    5.7501    1.9322 C   0  0  0  0  0  0  0  0  0  0  0  0
    1.1485    2.7925    5.0883 C   0  0  0  0  0  0  0  0  0  0  0  0
    1.3785    2.3758    6.3992 C   0  0  0  0  0  0  0  0  0  0  0  0
    0.8181    1.1997    6.8604 C   0  0  0  0  0  0  0  0  0  0  0  0
    0.0135    0.4370    6.0290 C   0  0  0  0  0  0  0  0  0  0  0  0
   -0.2341    0.8561    4.7316 C   0  0  0  0  0  0  0  0  0  0  0  0
    0.3304    2.0256    4.2579 C   0  0  0  0  0  0  0  0  0  0  0  0
   -0.9241    5.9762   10.8726 H   0  0  0  0  0  0  0  0  0  0  0  0
   -0.0627    5.1028    8.6755 H   0  0  0  0  0  0  0  0  0  0  0  0
    1.3237    9.0706    7.8499 H   0  0  0  0  0  0  0  0  0  0  0  0
    0.3916    9.7484   10.0841 H   0  0  0  0  0  0  0  0  0  0  0  0
    2.4507    2.1543    2.7334 H   0  0  0  0  0  0  0  0  0  0  0  0
    3.6322    2.6562    0.6020 H   0  0  0  0  0  0  0  0  0  0  0  0
    4.2313    5.0274    0.0998 H   0  0  0  0  0  0  0  0  0  0  0  0
    3.6590    6.7905    1.7711 H   0  0  0  0  0  0  0  0  0  0  0  0
    2.0097    2.9715    7.0404 H   0  0  0  0  0  0  0  0  0  0  0  0
    1.0073    0.8776    7.8733 H   0  0  0  0  0  0  0  0  0  0  0  0
   -0.4267   -0.4791    6.3934 H   0  0  0  0  0  0  0  0  0  0  0  0
   -0.8738    0.2715    4.0873 H   0  0  0  0  0  0  0  0  0  0  0  0
    0.1074    2.3712    3.2590 H   0  0  0  0  0  0  0  0  0  0  0  0
  1  8  1  0  0  0  0
  1  2  1  0  0  0  0
  1  4  1  0  0  0  0
  3  1  1  0  0  0  0
  4 15  1  0  0  0  0
  5  1  1  0  0  0  0
  7 15  2  0  0  0  0
  8  7  1  0  0  0  0
  9 17  1  0  0  0  0
  9  1  1  0  0  0  0
 10  6  1  0  0  0  0
 10 28  1  0  0  0  0
 11 10  2  0  0  0  0
 12 13  2  0  0  0  0
 12 11  1  0  0  0  0
 13 14  1  0  0  0  0
 14 31  1  0  0  0  0
 14  6  2  0  0  0  0
 15 12  1  0  0  0  0
 16 22  1  0  0  0  0
 16  8  1  0  0  0  0
 17 16  2  0  0  0  0
 18 32  1  0  0  0  0
 18 17  1  0  0  0  0
 19 18  2  0  0  0  0
 20 19  1  0  0  0  0
 20 21  2  0  0  0  0
 21  9  1  0  0  0  0
 22 23  1  0  0  0  0
 23 24  2  0  0  0  0
 23 36  1  0  0  0  0
 24 37  1  0  0  0  0
 25 38  1  0  0  0  0
 25 24  1  0  0  0  0
 26 25  2  0  0  0  0
 27 26  1  0  0  0  0
 27 22  2  0  0  0  0
 29 11  1  0  0  0  0
 30 13  1  0  0  0  0
 33 19  1  0  0  0  0
 34 20  1  0  0  0  0
 35 21  1  0  0  0  0
 39 26  1  0  0  0  0
 40 27  1  0  0  0  0
M  END
$$$$
