CSD_code = ESANES | q = 0 | S = 0 | Stoichiometry = C22H21Br2Cl2N5ORuS | MND = 6
 OpenBabel04212202033D

 55 60  0  0  1  0  0  0  0  0999 V2000
   11.4757    6.8007    0.4471 Ru  0  0  0  0  0  0  0  0  0  0  0  0
   11.1494    2.2311   -2.9008 Br  0  0  0  0  0  0  0  0  0  0  0  0
    7.6708    6.3339    4.5962 Br  0  0  0  0  0  0  0  0  0  0  0  0
   12.0291    4.9451    1.7842 Cl  0  0  0  0  0  0  0  0  0  0  0  0
    9.2745    6.1833   -0.2524 Cl  0  0  0  0  0  0  0  0  0  0  0  0
   10.9696    8.5826   -0.9319 S   0  0  0  0  0  0  0  0  0  0  0  0
   12.0906    9.4844   -1.1765 O   0  0  0  0  0  1  0  0  0  0  0  0
   13.1745    7.7455    0.7962 N   0  0  0  0  0  0  0  0  0  0  0  0
   12.3378    9.3180    2.4104 N   0  0  0  0  0  2  0  0  0  0  0  0
   14.4800    6.7792   -0.9250 N   0  0  0  0  0  0  0  0  0  0  0  0
   15.4058    6.8157   -1.3314 H   0  0  0  0  0  0  0  0  0  0  0  0
   12.3784    5.6927   -1.0525 N   0  0  0  0  0  0  0  0  0  0  0  0
   10.7003    7.5941    2.1303 N   0  0  0  0  0  0  0  0  0  0  0  0
   13.1898    8.9183    1.5359 C   0  0  0  0  0  0  0  0  0  0  0  0
   14.3989    9.6553    1.1981 C   0  0  0  0  0  0  0  0  0  0  0  0
   14.9195   10.8532    1.6374 C   0  0  0  0  0  0  0  0  0  0  0  0
   14.3960   11.4303    2.3830 H   0  0  0  0  0  0  0  0  0  0  0  0
   16.1229   11.3016    1.0991 C   0  0  0  0  0  0  0  0  0  0  0  0
   16.7899   10.5426    0.1233 C   0  0  0  0  0  0  0  0  0  0  0  0
   16.2579    9.3350   -0.3182 C   0  0  0  0  0  0  0  0  0  0  0  0
   16.7815    8.7656   -1.0737 H   0  0  0  0  0  0  0  0  0  0  0  0
   15.0635    8.8933    0.2214 C   0  0  0  0  0  0  0  0  0  0  0  0
   14.2226    7.7373    0.0010 C   0  0  0  0  0  0  0  0  0  0  0  0
   16.7017   12.6012    1.5634 C   0  0  0  0  0  0  0  0  0  0  0  0
   17.6933   12.4510    1.9891 H   0  0  0  0  0  0  0  0  0  0  0  0
   16.0662   13.0554    2.3181 H   0  0  0  0  0  0  0  0  0  0  0  0
   16.8028   13.2963    0.7307 H   0  0  0  0  0  0  0  0  0  0  0  0
   18.0816   11.0341   -0.4517 C   0  0  0  0  0  0  0  0  0  0  0  0
   17.9424   12.0014   -0.9328 H   0  0  0  0  0  0  0  0  0  0  0  0
   18.4707   10.3354   -1.1875 H   0  0  0  0  0  0  0  0  0  0  0  0
   18.8265   11.1613    0.3329 H   0  0  0  0  0  0  0  0  0  0  0  0
   13.6880    5.7473   -1.3591 C   0  0  1  0  0  3  0  0  0  0  0  0
   14.3054    4.7743   -2.1648 C   0  0  0  0  0  0  0  0  0  0  0  0
   15.3576    4.8646   -2.3874 H   0  0  0  0  0  0  0  0  0  0  0  0
   13.5815    3.7097   -2.6390 C   0  0  0  0  0  0  0  0  0  0  0  0
   14.0330    2.9427   -3.2476 H   0  0  0  0  0  0  0  0  0  0  0  0
   12.2332    3.6531   -2.2919 C   0  0  0  0  0  0  0  0  0  0  0  0
   11.6825    4.6445   -1.5080 C   0  0  0  0  0  0  0  0  0  0  0  0
   10.6333    4.6012   -1.2374 H   0  0  0  0  0  0  0  0  0  0  0  0
    9.6817    6.9394    2.6938 C   0  0  0  0  0  3  0  0  0  0  0  0
    9.3003    6.0703    2.1709 H   0  0  0  0  0  0  0  0  0  0  0  0
    9.1148    7.3252    3.8916 C   0  0  0  0  0  0  0  0  0  0  0  0
    9.5984    8.4422    4.5695 C   0  0  0  0  0  0  0  0  0  0  0  0
    9.1551    8.7627    5.4992 H   0  0  0  0  0  0  0  0  0  0  0  0
   10.6682    9.0949    4.0122 C   0  0  0  0  0  0  0  0  0  0  0  0
   11.1287    9.9458    4.4860 H   0  0  0  0  0  0  0  0  0  0  0  0
   11.2355    8.6383    2.8075 C   0  0  0  0  0  0  0  0  0  0  0  0
    9.5744    9.6042   -0.3647 C   0  0  0  0  0  0  0  0  0  0  0  0
    9.8651   10.0584    0.5781 H   0  0  0  0  0  0  0  0  0  0  0  0
    8.7249    8.9432   -0.2298 H   0  0  0  0  0  0  0  0  0  0  0  0
    9.3731   10.3708   -1.1035 H   0  0  0  0  0  0  0  0  0  0  0  0
   10.3086    8.1574   -2.5746 C   0  0  0  0  0  0  0  0  0  0  0  0
   10.1303    9.0795   -3.1152 H   0  0  0  0  0  0  0  0  0  0  0  0
    9.4002    7.5822   -2.4362 H   0  0  0  0  0  0  0  0  0  0  0  0
   11.0612    7.5625   -3.0838 H   0  0  0  0  0  0  0  0  0  0  0  0
  1  8  1  0  0  0  0
  1  4  1  0  0  0  0
  1 13  1  0  0  0  0
  2 37  1  0  0  0  0
  5  1  1  0  0  0  0
  6 48  1  0  0  0  0
  6  1  1  0  0  0  0
  7  6  1  0  0  0  0
  8 14  1  0  0  0  0
  9 47  1  0  0  0  0
 10 23  1  0  0  0  0
 11 10  1  0  0  0  0
 12  1  1  0  0  0  0
 13 40  1  0  0  0  0
 13 47  1  0  0  0  0
 14  9  1  0  0  0  0
 15 14  2  0  0  0  0
 15 16  1  0  0  0  0
 16 17  1  0  0  0  0
 18 24  1  0  0  0  0
 18 16  2  0  0  0  0
 19 18  1  0  0  0  0
 20 19  2  0  0  0  0
 20 22  1  0  0  0  0
 21 20  1  0  0  0  0
 22 15  1  0  0  0  0
 23 22  2  0  0  0  0
 23  8  1  0  0  0  0
 24 25  1  0  0  0  0
 24 26  1  0  0  0  0
 27 24  1  0  0  0  0
 28 19  1  0  0  0  0
 28 31  1  0  0  0  0
 29 28  1  0  0  0  0
 30 28  1  0  0  0  0
 32 33  1  6  0  0  0
 32 12  1  0  0  0  0
 32 10  1  0  0  0  0
 34 33  1  0  0  0  0
 35 37  1  0  0  0  0
 35 33  2  0  0  0  0
 36 35  1  0  0  0  0
 37 38  2  0  0  0  0
 38 39  1  0  0  0  0
 38 12  1  0  0  0  0
 40 42  1  0  0  0  0
 41 40  1  0  0  0  0
 42 43  2  0  0  0  0
 42  3  1  0  0  0  0
 43 44  1  0  0  0  0
 45 46  1  0  0  0  0
 45 43  1  0  0  0  0
 47 45  2  0  0  0  0
 48 50  1  0  0  0  0
 48 49  1  0  0  0  0
 51 48  1  0  0  0  0
 52 54  1  0  0  0  0
 52  6  1  0  0  0  0
 53 52  1  0  0  0  0
 55 52  1  0  0  0  0
M  END
$$$$
