CSD_code = ESARAS | q = 1 | S = 0 | Stoichiometry = C20H26ClN2OPd(1+) | MND = 4
 OpenBabel04212202033D

 51 53  0  0  0  0  0  0  0  0999 V2000
   12.4918    8.5675    3.3696 Pd  0  0  0  0  0  0  0  0  0  0  0  0
   13.2438   10.4352    2.4959 Cl  0  0  0  0  0  0  0  0  0  0  0  0
   11.8492    9.4004    5.4194 O   0  0  0  0  0  0  0  0  0  0  0  0
   11.6770   10.3342    5.6126 H   0  0  0  0  0  0  0  0  0  0  0  0
   11.7294    7.0447    4.2661 N   0  0  0  0  0  0  0  0  0  0  0  0
   13.0190    7.1967    2.1338 N   0  0  0  0  0  0  0  0  0  0  0  0
   10.8372    4.7983    5.5197 C   0  0  0  0  0  0  0  0  0  0  0  0
   10.4898    3.9150    6.0315 H   0  0  0  0  0  0  0  0  0  0  0  0
   10.6645    8.6327    5.7150 C   0  0  0  0  0  0  0  0  0  0  0  0
   11.5654    4.6786    4.3482 C   0  0  0  0  0  0  0  0  0  0  0  0
   11.7838    3.7109    3.9278 H   0  0  0  0  0  0  0  0  0  0  0  0
   13.1653    4.7794    1.6889 C   0  0  0  0  0  0  0  0  0  0  0  0
   13.7200    5.0771    0.8029 H   0  0  0  0  0  0  0  0  0  0  0  0
   12.2850    4.2137    1.3848 H   0  0  0  0  0  0  0  0  0  0  0  0
   13.7827    4.1139    2.2912 H   0  0  0  0  0  0  0  0  0  0  0  0
   13.7418    7.5694    0.9891 C   0  0  0  0  0  0  0  0  0  0  0  0
   10.5346    6.0566    6.0362 C   0  0  0  0  0  0  0  0  0  0  0  0
    9.9516    6.1461    6.9369 H   0  0  0  0  0  0  0  0  0  0  0  0
   15.1622    8.2872   -1.2573 C   0  0  0  0  0  0  0  0  0  0  0  0
   15.7208    8.5414   -2.1440 H   0  0  0  0  0  0  0  0  0  0  0  0
   10.9961    7.1814    5.3694 C   0  0  0  0  0  0  0  0  0  0  0  0
   12.0117    5.8437    3.7260 C   0  0  0  0  0  0  0  0  0  0  0  0
   12.7624    5.9744    2.4845 C   0  0  0  0  0  0  0  0  0  0  0  0
   10.8455    6.6626   -0.4622 C   0  0  0  0  0  0  0  0  0  0  0  0
    9.7762    6.8202   -0.5760 H   0  0  0  0  0  0  0  0  0  0  0  0
   10.9999    5.9462    0.3403 H   0  0  0  0  0  0  0  0  0  0  0  0
   11.2280    6.2373   -1.3866 H   0  0  0  0  0  0  0  0  0  0  0  0
   13.0431    7.9070   -0.1769 C   0  0  0  0  0  0  0  0  0  0  0  0
   11.5408    7.9918   -0.1663 C   0  0  0  0  0  0  0  0  0  0  0  0
   11.2107    8.3764    0.8187 H   0  0  0  0  0  0  0  0  0  0  0  0
   11.2396    8.7173   -0.9229 H   0  0  0  0  0  0  0  0  0  0  0  0
    9.5400    9.0767    4.7604 C   0  0  0  0  0  0  0  0  0  0  0  0
    9.9069    9.0565    3.7175 H   0  0  0  0  0  0  0  0  0  0  0  0
    9.2261   10.0915    4.9984 H   0  0  0  0  0  0  0  0  0  0  0  0
    8.6777    8.4201    4.8452 H   0  0  0  0  0  0  0  0  0  0  0  0
   10.2771    8.8373    7.1759 C   0  0  0  0  0  0  0  0  0  0  0  0
   11.0570    8.4600    7.8329 H   0  0  0  0  0  0  0  0  0  0  0  0
    9.3420    8.3348    7.4023 H   0  0  0  0  0  0  0  0  0  0  0  0
   10.1428    9.8985    7.3760 H   0  0  0  0  0  0  0  0  0  0  0  0
   13.7794    8.2412   -1.3031 C   0  0  0  0  0  0  0  0  0  0  0  0
   13.2607    8.4923   -2.2154 H   0  0  0  0  0  0  0  0  0  0  0  0
   15.1290    7.7428    1.0907 C   0  0  0  0  0  0  0  0  0  0  0  0
   15.8224    7.6600    2.4251 C   0  0  0  0  0  0  0  0  0  0  0  0
   16.6705    8.3460    2.3999 H   0  0  0  0  0  0  0  0  0  0  0  0
   15.1356    8.0086    3.2264 H   0  0  0  0  0  0  0  0  0  0  0  0
   15.8253    8.0817   -0.0598 C   0  0  0  0  0  0  0  0  0  0  0  0
   16.8954    8.2104   -0.0071 H   0  0  0  0  0  0  0  0  0  0  0  0
   16.3416    6.2616    2.7622 C   0  0  0  0  0  0  0  0  0  0  0  0
   16.9497    6.2991    3.6621 H   0  0  0  0  0  0  0  0  0  0  0  0
   16.9571    5.8840    1.9494 H   0  0  0  0  0  0  0  0  0  0  0  0
   15.5258    5.5645    2.9325 H   0  0  0  0  0  0  0  0  0  0  0  0
  1  5  1  0  0  0  0
  2  1  1  0  0  0  0
  3  4  1  0  0  0  0
  3  9  1  0  0  0  0
  5 21  1  0  0  0  0
  6 23  1  0  0  0  0
  6  1  1  0  0  0  0
  7  8  1  0  0  0  0
  7 17  1  0  0  0  0
  9 36  1  0  0  0  0
 10  7  2  0  0  0  0
 11 10  1  0  0  0  0
 12 15  1  0  0  0  0
 12 23  1  0  0  0  0
 13 12  1  0  0  0  0
 14 12  1  0  0  0  0
 16 42  1  0  0  0  0
 16  6  1  0  0  0  0
 17 18  1  0  0  0  0
 19 46  1  0  0  0  0
 20 19  1  0  0  0  0
 21  9  1  0  0  0  0
 21 17  2  0  0  0  0
 22  5  1  0  0  0  0
 22 10  1  0  0  0  0
 23 22  2  0  0  0  0
 24 29  1  0  0  0  0
 24 26  1  0  0  0  0
 25 24  1  0  0  0  0
 27 24  1  0  0  0  0
 28 29  1  0  0  0  0
 28 16  2  0  0  0  0
 29 30  1  0  0  0  0
 31 29  1  0  0  0  0
 32 35  1  0  0  0  0
 32 34  1  0  0  0  0
 32  9  1  0  0  0  0
 33 32  1  0  0  0  0
 36 39  1  0  0  0  0
 36 38  1  0  0  0  0
 36 37  1  0  0  0  0
 40 19  2  0  0  0  0
 40 28  1  0  0  0  0
 41 40  1  0  0  0  0
 42 43  1  0  0  0  0
 43 48  1  0  0  0  0
 43 45  1  0  0  0  0
 44 43  1  0  0  0  0
 46 47  1  0  0  0  0
 46 42  2  0  0  0  0
 48 51  1  0  0  0  0
 48 49  1  0  0  0  0
 50 48  1  0  0  0  0
M  END
$$$$
