CSD_code = ESEHIT | q = 0 | S = 0 | Stoichiometry = C10H16Cl2N4O2Pd | MND = 4
 OpenBabel04212202033D

 35 36  0  0  0  0  0  0  0  0999 V2000
   -0.3832    0.0002    5.3715 Pd  0  0  0  0  0  0  0  0  0  0  0  0
   -1.0576    1.0431    7.3124 Cl  0  0  0  0  0  0  0  0  0  0  0  0
    0.8001    3.3401    6.2088 O   0  0  0  0  0  0  0  0  0  0  0  0
    1.4630    0.1031    6.0324 N   0  0  0  0  0  0  0  0  0  0  0  0
    2.2966    1.0707    5.6623 N   0  0  0  0  0  0  0  0  0  0  0  0
    2.0243   -0.5432    7.0429 C   0  0  0  0  0  3  0  0  0  0  0  0
    3.2652    0.0258    7.3300 C   0  0  0  0  0  0  0  0  0  0  0  0
    3.4005    1.0561    6.4262 C   0  0  0  0  0  0  0  0  0  0  0  0
    2.0020    1.9650    4.5717 C   0  0  0  0  0  0  0  0  0  0  0  0
    0.7866    2.8873    4.8876 C   0  0  0  0  0  0  0  0  0  0  0  0
    0.2746    2.7284    6.7623 H   0  0  0  0  0  0  0  0  0  0  0  0
    1.5305   -1.3712    7.5212 H   0  0  0  0  0  0  0  0  0  0  0  0
    3.9573   -0.2738    8.0885 H   0  0  0  0  0  0  0  0  0  0  0  0
    4.1937    1.7619    6.2876 H   0  0  0  0  0  0  0  0  0  0  0  0
    1.7875    1.3783    3.6683 H   0  0  0  0  0  0  0  0  0  0  0  0
    2.8924    2.5747    4.4108 H   0  0  0  0  0  0  0  0  0  0  0  0
    0.8553    3.7643    4.2351 H   0  0  0  0  0  0  0  0  0  0  0  0
   -0.1618    2.3495    4.6506 H   0  0  0  0  0  0  0  0  0  0  0  0
    0.2914   -1.0431    3.4308 Cl  0  0  0  0  0  0  0  0  0  0  0  0
   -2.2294   -0.1029    4.7105 N   0  0  0  0  0  0  0  0  0  0  0  0
   -3.0630   -1.0707    5.0803 N   0  0  0  0  0  0  0  0  0  0  0  0
   -4.1665   -1.0563    4.3158 C   0  0  0  0  0  3  0  0  0  0  0  0
   -4.0309   -0.0262    3.4119 C   0  0  0  0  0  0  0  0  0  0  0  0
   -2.7903    0.5431    3.6996 C   0  0  0  0  0  0  0  0  0  0  0  0
   -2.2964    1.3711    3.2215 H   0  0  0  0  0  0  0  0  0  0  0  0
   -4.7226    0.2732    2.6530 H   0  0  0  0  0  0  0  0  0  0  0  0
   -4.9597   -1.7622    4.4541 H   0  0  0  0  0  0  0  0  0  0  0  0
   -2.7688   -1.9649    6.1711 C   0  0  0  0  0  0  0  0  0  0  0  0
   -1.5532   -2.8871    5.8556 C   0  0  0  0  0  0  0  0  0  0  0  0
   -1.5663   -3.3400    4.5344 O   0  0  0  0  0  0  0  0  0  0  0  0
   -1.0406   -2.7283    3.9811 H   0  0  0  0  0  0  0  0  0  0  0  0
   -1.6220   -3.7641    6.5081 H   0  0  0  0  0  0  0  0  0  0  0  0
   -0.6048   -2.3494    6.0929 H   0  0  0  0  0  0  0  0  0  0  0  0
   -2.5545   -1.3781    7.0745 H   0  0  0  0  0  0  0  0  0  0  0  0
   -3.6592   -2.5746    6.3318 H   0  0  0  0  0  0  0  0  0  0  0  0
  1  4  1  0  0  0  0
  1  2  1  0  0  0  0
  3 11  1  0  0  0  0
  4  6  1  0  0  0  0
  5  4  1  0  0  0  0
  5  8  1  0  0  0  0
  6  7  1  0  0  0  0
  6 12  1  0  0  0  0
  7 13  1  0  0  0  0
  8  7  2  0  0  0  0
  9 10  1  0  0  0  0
  9  5  1  0  0  0  0
 10  3  1  0  0  0  0
 14  8  1  0  0  0  0
 15  9  1  0  0  0  0
 16  9  1  0  0  0  0
 17 10  1  0  0  0  0
 18 10  1  0  0  0  0
 19  1  1  0  0  0  0
 20 21  1  0  0  0  0
 20  1  1  0  0  0  0
 21 28  1  0  0  0  0
 22 27  1  0  0  0  0
 22 21  1  0  0  0  0
 23 24  2  0  0  0  0
 23 22  1  0  0  0  0
 24 20  1  0  0  0  0
 25 24  1  0  0  0  0
 26 23  1  0  0  0  0
 28 35  1  0  0  0  0
 28 34  1  0  0  0  0
 29 33  1  0  0  0  0
 29 28  1  0  0  0  0
 29 32  1  0  0  0  0
 30 29  1  0  0  0  0
 31 30  1  0  0  0  0
M  END
$$$$
