CSD_code = ESEVII | q = 0 | S = 0 | Stoichiometry = C18H32Cl2N4Ni | MND = 4
 OpenBabel04212202033D

 57 58  0  0  1  0  0  0  0  0999 V2000
   13.2168    4.3846    7.7860 Ni  0  0  0  0  0  0  0  0  0  0  0  0
   12.6328    5.4415    6.0405 Cl  0  0  0  0  0  0  0  0  0  0  0  0
   10.8292    2.7689    7.4653 N   0  0  0  0  0  0  0  0  0  0  0  0
   12.4966    1.9328    6.3999 N   0  0  0  0  0  0  0  0  0  0  0  0
   12.1390    2.9364    7.2181 C   0  0  1  0  0  3  0  0  0  0  0  0
   10.3619    1.6736    6.7925 C   0  0  0  0  0  0  0  0  0  0  0  0
    9.3421    1.3529    6.8386 H   0  0  0  0  0  0  0  0  0  0  0  0
   11.4122    1.1470    6.1211 C   0  0  0  0  0  0  0  0  0  0  0  0
   11.4629    0.2900    5.4826 H   0  0  0  0  0  0  0  0  0  0  0  0
   10.0513    3.6705    8.2907 C   0  0  0  0  0  0  0  0  0  0  0  0
   10.7922    4.3153    8.7924 H   0  0  0  0  0  0  0  0  0  0  0  0
    9.2690    2.9012    9.3490 C   0  0  0  0  0  0  0  0  0  0  0  0
    8.4946    2.2871    8.8949 H   0  0  0  0  0  0  0  0  0  0  0  0
    8.7943    3.5997   10.0328 H   0  0  0  0  0  0  0  0  0  0  0  0
    9.9395    2.2616    9.9185 H   0  0  0  0  0  0  0  0  0  0  0  0
    9.1544    4.5340    7.4073 C   0  0  0  0  0  0  0  0  0  0  0  0
    9.7633    5.0681    6.6805 H   0  0  0  0  0  0  0  0  0  0  0  0
    8.6174    5.2581    8.0139 H   0  0  0  0  0  0  0  0  0  0  0  0
    8.4316    3.9184    6.8757 H   0  0  0  0  0  0  0  0  0  0  0  0
   13.8358    1.7732    5.8701 C   0  0  0  0  0  0  0  0  0  0  0  0
   14.4651    2.4581    6.4621 H   0  0  0  0  0  0  0  0  0  0  0  0
   14.3347    0.3466    6.0698 C   0  0  0  0  0  0  0  0  0  0  0  0
   14.2386    0.0586    7.1142 H   0  0  0  0  0  0  0  0  0  0  0  0
   15.3827    0.2835    5.7893 H   0  0  0  0  0  0  0  0  0  0  0  0
   13.7740   -0.3546    5.4559 H   0  0  0  0  0  0  0  0  0  0  0  0
   13.8652    2.2066    4.4065 C   0  0  0  0  0  0  0  0  0  0  0  0
   13.2255    1.5654    3.8035 H   0  0  0  0  0  0  0  0  0  0  0  0
   14.8794    2.1513    4.0202 H   0  0  0  0  0  0  0  0  0  0  0  0
   13.5132    3.2330    4.3225 H   0  0  0  0  0  0  0  0  0  0  0  0
   13.8013    3.3272    9.5310 Cl  0  0  0  0  0  0  0  0  0  0  0  0
   15.6052    5.9995    8.1069 N   0  0  0  0  0  0  0  0  0  0  0  0
   13.9383    6.8350    9.1737 N   0  0  0  0  0  0  0  0  0  0  0  0
   14.2956    5.8315    8.3551 C   0  0  0  0  0  0  0  0  0  0  0  0
   16.0727    7.0946    8.7798 C   0  0  0  0  0  0  0  0  0  0  0  0
   17.0924    7.4156    8.7330 H   0  0  0  0  0  0  0  0  0  0  0  0
   15.0227    7.6208    9.4521 C   0  0  0  0  0  0  0  0  0  0  0  0
   14.9724    8.4777   10.0908 H   0  0  0  0  0  0  0  0  0  0  0  0
   16.3825    5.0985    7.2804 C   0  0  0  0  0  0  0  0  0  0  0  0
   15.6415    4.4538    6.7789 H   0  0  0  0  0  0  0  0  0  0  0  0
   17.1641    5.8684    6.2220 C   0  0  0  0  0  0  0  0  0  0  0  0
   17.9387    6.4824    6.6760 H   0  0  0  0  0  0  0  0  0  0  0  0
   17.6385    5.1703    5.5376 H   0  0  0  0  0  0  0  0  0  0  0  0
   16.4932    6.5082    5.6532 H   0  0  0  0  0  0  0  0  0  0  0  0
   17.2801    4.2347    8.1629 C   0  0  0  0  0  0  0  0  0  0  0  0
   16.6717    3.7003    8.8898 H   0  0  0  0  0  0  0  0  0  0  0  0
   17.8168    3.5109    7.5556 H   0  0  0  0  0  0  0  0  0  0  0  0
   18.0032    4.8501    8.6942 H   0  0  0  0  0  0  0  0  0  0  0  0
   12.5994    6.9943    9.7042 C   0  0  0  0  0  0  0  0  0  0  0  0
   11.9699    6.3092    9.1125 H   0  0  0  0  0  0  0  0  0  0  0  0
   12.1000    8.4208    9.5051 C   0  0  0  0  0  0  0  0  0  0  0  0
   12.1954    8.7090    8.4606 H   0  0  0  0  0  0  0  0  0  0  0  0
   11.0522    8.4836    9.7862 H   0  0  0  0  0  0  0  0  0  0  0  0
   12.6610    9.1220   10.1187 H   0  0  0  0  0  0  0  0  0  0  0  0
   12.5709    6.5605   11.1678 C   0  0  0  0  0  0  0  0  0  0  0  0
   13.2108    7.2017   11.7705 H   0  0  0  0  0  0  0  0  0  0  0  0
   11.5569    6.6156   11.5547 H   0  0  0  0  0  0  0  0  0  0  0  0
   12.9231    5.5342   11.2513 H   0  0  0  0  0  0  0  0  0  0  0  0
  1 33  2  0  0  0  0
  1 30  1  0  0  0  0
  2  1  1  0  0  0  0
  3 10  1  0  0  0  0
  4  5  1  0  0  0  0
  5  3  1  0  0  0  0
  5  1  1  6  0  0  0
  6  7  1  0  0  0  0
  6  3  1  0  0  0  0
  8  4  1  0  0  0  0
  8  6  2  0  0  0  0
  9  8  1  0  0  0  0
 10 11  1  0  0  0  0
 10 12  1  0  0  0  0
 12 15  1  0  0  0  0
 12 14  1  0  0  0  0
 13 12  1  0  0  0  0
 16 18  1  0  0  0  0
 16 10  1  0  0  0  0
 17 16  1  0  0  0  0
 19 16  1  0  0  0  0
 20 22  1  0  0  0  0
 20  4  1  0  0  0  0
 20 21  1  0  0  0  0
 22 23  1  0  0  0  0
 24 22  1  0  0  0  0
 25 22  1  0  0  0  0
 26 20  1  0  0  0  0
 27 26  1  0  0  0  0
 28 26  1  0  0  0  0
 29 26  1  0  0  0  0
 31 33  1  0  0  0  0
 31 34  1  0  0  0  0
 32 36  1  0  0  0  0
 32 48  1  0  0  0  0
 33 32  1  0  0  0  0
 34 36  2  0  0  0  0
 35 34  1  0  0  0  0
 36 37  1  0  0  0  0
 38 31  1  0  0  0  0
 38 44  1  0  0  0  0
 39 38  1  0  0  0  0
 40 41  1  0  0  0  0
 40 38  1  0  0  0  0
 42 40  1  0  0  0  0
 43 40  1  0  0  0  0
 44 47  1  0  0  0  0
 44 45  1  0  0  0  0
 46 44  1  0  0  0  0
 48 54  1  0  0  0  0
 49 48  1  0  0  0  0
 50 48  1  0  0  0  0
 50 52  1  0  0  0  0
 50 53  1  0  0  0  0
 51 50  1  0  0  0  0
 54 57  1  0  0  0  0
 54 56  1  0  0  0  0
 54 55  1  0  0  0  0
M  END
$$$$
