CSD_code = ESEXAC | q = 0 | S = 0 | Stoichiometry = C23H35Cl2NZr | MND = 8
 OpenBabel04212202033D

 62 63  0  0  1  0  0  0  0  0999 V2000
    7.4816    6.4118   20.6310 Zr  0  0  0  0  0  0  0  0  0  0  0  0
    7.8631    8.3930   21.7970 Cl  0  0  0  0  0  0  0  0  0  0  0  0
    5.5371    5.8517   21.8062 Cl  0  0  0  0  0  0  0  0  0  0  0  0
    6.4917    7.0388   19.0419 N   0  0  0  0  0  0  0  0  0  0  0  0
    9.1539    4.9561   19.7007 C   0  0  1  0  0  0  0  0  0  0  0  0
    9.8220    5.7220   20.7071 C   0  0  1  0  0  3  0  0  0  0  0  0
    9.2752    5.3656   21.9719 C   0  0  0  0  0  0  0  0  0  0  0  0
    8.2911    4.3678   21.7651 C   0  0  0  0  0  0  0  0  0  0  0  0
    8.2005    4.1223   20.3662 C   0  0  2  0  0  3  0  0  0  0  0  0
    9.5343    4.8477   18.2462 C   0  0  0  0  0  0  0  0  0  0  0  0
   10.1408    3.9529   18.0828 H   0  0  0  0  0  0  0  0  0  0  0  0
   10.1178    5.7080   17.9244 H   0  0  0  0  0  0  0  0  0  0  0  0
    8.6557    4.7829   17.6023 H   0  0  0  0  0  0  0  0  0  0  0  0
   10.9996    6.6458   20.5492 C   0  0  0  0  0  0  0  0  0  0  0  0
   10.7674    7.6496   20.9173 H   0  0  0  0  0  0  0  0  0  0  0  0
   11.3147    6.7152   19.5110 H   0  0  0  0  0  0  0  0  0  0  0  0
   11.8439    6.2699   21.1307 H   0  0  0  0  0  0  0  0  0  0  0  0
    9.7490    5.9020   23.2940 C   0  0  0  0  0  0  0  0  0  0  0  0
   10.6991    5.4418   23.5771 H   0  0  0  0  0  0  0  0  0  0  0  0
    9.0248    5.6909   24.0802 H   0  0  0  0  0  0  0  0  0  0  0  0
    9.8996    6.9824   23.2452 H   0  0  0  0  0  0  0  0  0  0  0  0
    7.5547    3.6100   22.8339 C   0  0  0  0  0  0  0  0  0  0  0  0
    8.1746    2.7926   23.2116 H   0  0  0  0  0  0  0  0  0  0  0  0
    6.6302    3.1880   22.4429 H   0  0  0  0  0  0  0  0  0  0  0  0
    7.3001    4.2576   23.6736 H   0  0  0  0  0  0  0  0  0  0  0  0
    7.3015    3.0915   19.7381 C   0  0  0  0  0  0  0  0  0  0  0  0
    7.4816    3.0235   18.6678 H   0  0  0  0  0  0  0  0  0  0  0  0
    6.2473    3.3384   19.9036 H   0  0  0  0  0  0  0  0  0  0  0  0
    7.4880    2.1084   20.1742 H   0  0  0  0  0  0  0  0  0  0  0  0
    5.2060    7.6995   19.2729 C   0  0  0  0  0  0  0  0  0  0  0  0
    4.9329    8.3188   18.4093 H   0  0  0  0  0  0  0  0  0  0  0  0
    5.2819    8.3523   20.1577 H   0  0  0  0  0  0  0  0  0  0  0  0
    4.3890    6.9862   19.4609 H   0  0  0  0  0  0  0  0  0  0  0  0
    6.9152    6.9595   17.7057 C   0  0  0  0  0  0  0  0  0  0  0  0
    6.2345    6.1610   16.7669 C   0  0  0  0  0  0  0  0  0  0  0  0
    6.6247    6.1983   15.4351 C   0  0  0  0  0  0  0  0  0  0  0  0
    6.0919    5.6077   14.7057 H   0  0  0  0  0  0  0  0  0  0  0  0
    7.6872    6.9801   15.0279 C   0  0  0  0  0  0  0  0  0  0  0  0
    7.9706    7.0099   13.9865 H   0  0  0  0  0  0  0  0  0  0  0  0
    8.4006    7.7152   15.9598 C   0  0  0  0  0  0  0  0  0  0  0  0
    9.2375    8.3069   15.6247 H   0  0  0  0  0  0  0  0  0  0  0  0
    8.0384    7.7142   17.2968 C   0  0  0  0  0  0  0  0  0  0  0  0
    5.1266    5.2325   17.2134 C   0  0  0  0  0  0  0  0  0  0  0  0
    5.1696    5.1692   18.3114 H   0  0  0  0  0  0  0  0  0  0  0  0
    3.7527    5.7549   16.7839 C   0  0  0  0  0  0  0  0  0  0  0  0
    3.5670    6.7497   17.1782 H   0  0  0  0  0  0  0  0  0  0  0  0
    2.9699    5.0895   17.1412 H   0  0  0  0  0  0  0  0  0  0  0  0
    3.6944    5.8042   15.6984 H   0  0  0  0  0  0  0  0  0  0  0  0
    5.3275    3.8209   16.6516 C   0  0  0  0  0  0  0  0  0  0  0  0
    5.0883    3.7842   15.5918 H   0  0  0  0  0  0  0  0  0  0  0  0
    4.6751    3.1196   17.1668 H   0  0  0  0  0  0  0  0  0  0  0  0
    6.3566    3.4936   16.7782 H   0  0  0  0  0  0  0  0  0  0  0  0
    8.7886    8.5281   18.3338 C   0  0  0  0  0  0  0  0  0  0  0  0
    8.8318    7.9206   19.2665 H   0  0  0  0  0  0  0  0  0  0  0  0
    8.0180    9.8149   18.6564 C   0  0  0  0  0  0  0  0  0  0  0  0
    7.8971   10.4155   17.7563 H   0  0  0  0  0  0  0  0  0  0  0  0
    8.5617   10.3963   19.3979 H   0  0  0  0  0  0  0  0  0  0  0  0
    7.0363    9.5841   19.0614 H   0  0  0  0  0  0  0  0  0  0  0  0
   10.2126    8.8927   17.9115 C   0  0  0  0  0  0  0  0  0  0  0  0
   10.7564    8.0254   17.5433 H   0  0  0  0  0  0  0  0  0  0  0  0
   10.7517    9.3060   18.7607 H   0  0  0  0  0  0  0  0  0  0  0  0
   10.1988    9.6477   17.1286 H   0  0  0  0  0  0  0  0  0  0  0  0
  1  2  1  0  0  0  0
  1  3  1  0  0  0  0
  4 30  1  0  0  0  0
  4  1  1  0  0  0  0
  5 10  1  6  0  0  0
  5  9  1  0  0  0  0
  5  1  1  0  0  0  0
  5  6  1  0  0  0  0
  6 14  1  1  0  0  0
  6  7  1  0  0  0  0
  7 18  1  0  0  0  0
  8  7  2  0  0  0  0
  8 22  1  0  0  0  0
  9 26  1  1  0  0  0
  9  8  1  0  0  0  0
 11 10  1  0  0  0  0
 12 10  1  0  0  0  0
 13 10  1  0  0  0  0
 14 15  1  0  0  0  0
 14 17  1  0  0  0  0
 16 14  1  0  0  0  0
 18 19  1  0  0  0  0
 18 20  1  0  0  0  0
 21 18  1  0  0  0  0
 22 23  1  0  0  0  0
 22 25  1  0  0  0  0
 24 22  1  0  0  0  0
 26 28  1  0  0  0  0
 26 29  1  0  0  0  0
 27 26  1  0  0  0  0
 30 33  1  0  0  0  0
 30 32  1  0  0  0  0
 31 30  1  0  0  0  0
 34  4  1  0  0  0  0
 35 43  1  0  0  0  0
 35 34  2  0  0  0  0
 36 35  1  0  0  0  0
 37 36  1  0  0  0  0
 38 36  2  0  0  0  0
 38 40  1  0  0  0  0
 39 38  1  0  0  0  0
 40 42  2  0  0  0  0
 41 40  1  0  0  0  0
 42 34  1  0  0  0  0
 42 53  1  0  0  0  0
 43 44  1  0  0  0  0
 45 47  1  0  0  0  0
 45 46  1  0  0  0  0
 45 43  1  0  0  0  0
 48 45  1  0  0  0  0
 49 52  1  0  0  0  0
 49 51  1  0  0  0  0
 49 43  1  0  0  0  0
 50 49  1  0  0  0  0
 53 55  1  0  0  0  0
 53 54  1  0  0  0  0
 55 58  1  0  0  0  0
 55 57  1  0  0  0  0
 56 55  1  0  0  0  0
 59 53  1  0  0  0  0
 59 61  1  0  0  0  0
 60 59  1  0  0  0  0
 62 59  1  0  0  0  0
M  END
$$$$
