CSD_code = ESIKAS | q = 1 | S = 0 | Stoichiometry = C14H24IN2OPt(1+) | MND = 4
 OpenBabel04212202033D

 43 45  0  0  1  0  0  0  0  0999 V2000
   -2.2255    4.6404    6.8544 Pt  0  0  2  0  0  0  0  0  0  0  0  0
   -2.1355    6.2941    8.8304 I   0  0  0  0  0  0  0  0  0  0  0  0
   -2.5390    4.6178    1.6487 O   0  0  0  0  0  0  0  0  0  0  0  0
   -0.1189    4.5576    6.6474 N   0  0  0  0  0  4  0  0  0  0  0  0
   -4.3405    4.5907    6.8107 N   0  0  0  0  0  4  0  0  0  0  0  0
   -2.2895    2.9857    5.4729 C   0  0  1  0  0  0  0  0  0  0  0  0
   -3.5155    3.4385    4.9046 C   0  0  2  0  0  3  0  0  0  0  0  0
   -3.5544    4.0039    3.6505 C   0  0  0  0  0  0  0  0  0  0  0  0
   -2.3819    4.1781    2.8966 C   0  0  0  0  0  0  0  0  0  0  0  0
   -1.1572    3.9867    3.5464 C   0  0  0  0  0  0  0  0  0  0  0  0
   -1.1121    3.4250    4.8095 C   0  0  0  0  0  0  0  0  0  0  0  0
   -2.2567    1.8631    6.5004 C   0  0  0  0  0  0  0  0  0  0  0  0
    0.1312    3.4780    5.6510 C   0  0  0  0  0  0  0  0  0  0  0  0
    0.2810    5.8503    6.0789 C   0  0  0  0  0  0  0  0  0  0  0  0
    0.6565    4.2886    7.8630 C   0  0  0  0  0  0  0  0  0  0  0  0
   -4.6850    3.5100    5.8441 C   0  0  0  0  0  0  0  0  0  0  0  0
   -5.0231    4.3400    8.0844 C   0  0  0  0  0  0  0  0  0  0  0  0
   -4.7646    5.8862    6.2662 C   0  0  0  0  0  0  0  0  0  0  0  0
   -1.4058    4.8187    0.8259 C   0  0  0  0  0  0  0  0  0  0  0  0
   -4.4881    4.3268    3.2173 H   0  0  0  0  0  0  0  0  0  0  0  0
   -0.2346    4.2896    3.0759 H   0  0  0  0  0  0  0  0  0  0  0  0
   -3.1384    1.2362    6.3835 H   0  0  0  0  0  0  0  0  0  0  0  0
   -2.2206    2.1964    7.5478 H   0  0  0  0  0  0  0  0  0  0  0  0
   -1.3890    1.2303    6.3251 H   0  0  0  0  0  0  0  0  0  0  0  0
    1.0238    3.7036    5.0600 H   0  0  0  0  0  0  0  0  0  0  0  0
    0.2992    2.5373    6.1788 H   0  0  0  0  0  0  0  0  0  0  0  0
    0.1192    6.6464    6.8049 H   0  0  0  0  0  0  0  0  0  0  0  0
   -0.3084    6.0672    5.1845 H   0  0  0  0  0  0  0  0  0  0  0  0
    1.3415    5.8420    5.8091 H   0  0  0  0  0  0  0  0  0  0  0  0
    1.7084    4.1241    7.6141 H   0  0  0  0  0  0  0  0  0  0  0  0
    0.2689    3.4030    8.3685 H   0  0  0  0  0  0  0  0  0  0  0  0
    0.5923    5.1305    8.5491 H   0  0  0  0  0  0  0  0  0  0  0  0
   -4.8220    2.5738    6.3886 H   0  0  0  0  0  0  0  0  0  0  0  0
   -5.6174    3.7458    5.3234 H   0  0  0  0  0  0  0  0  0  0  0  0
   -4.6084    3.4530    8.5659 H   0  0  0  0  0  0  0  0  0  0  0  0
   -6.0926    4.1866    7.9181 H   0  0  0  0  0  0  0  0  0  0  0  0
   -4.8971    5.1858    8.7570 H   0  0  0  0  0  0  0  0  0  0  0  0
   -4.2535    6.0834    5.3205 H   0  0  0  0  0  0  0  0  0  0  0  0
   -4.5267    6.6853    6.9676 H   0  0  0  0  0  0  0  0  0  0  0  0
   -5.8442    5.8947    6.0891 H   0  0  0  0  0  0  0  0  0  0  0  0
   -0.7872    5.6410    1.1959 H   0  0  0  0  0  0  0  0  0  0  0  0
   -1.7998    5.0800   -0.1538 H   0  0  0  0  0  0  0  0  0  0  0  0
   -0.8064    3.9084    0.7464 H   0  0  0  0  0  0  0  0  0  0  0  0
  1  2  1  1  0  0  0
  3  9  1  0  0  0  0
  4  1  1  0  0  0  0
  4 15  1  0  0  0  0
  5  1  1  0  0  0  0
  5 17  1  0  0  0  0
  6 12  1  1  0  0  0
  6  1  1  0  0  0  0
  7  8  1  1  0  0  0
  7  6  1  0  0  0  0
  7 16  1  0  0  0  0
  9 10  1  0  0  0  0
  9  8  2  0  0  0  0
 10 11  2  0  0  0  0
 11  6  1  0  0  0  0
 11 13  1  0  0  0  0
 12 23  1  0  0  0  0
 13 26  1  0  0  0  0
 13  4  1  0  0  0  0
 14  4  1  0  0  0  0
 14 27  1  0  0  0  0
 15 31  1  0  0  0  0
 15 32  1  0  0  0  0
 16 33  1  0  0  0  0
 16  5  1  0  0  0  0
 17 35  1  0  0  0  0
 17 37  1  0  0  0  0
 18  5  1  0  0  0  0
 18 39  1  0  0  0  0
 19 41  1  0  0  0  0
 19  3  1  0  0  0  0
 20  8  1  0  0  0  0
 21 10  1  0  0  0  0
 22 12  1  0  0  0  0
 24 12  1  0  0  0  0
 25 13  1  0  0  0  0
 28 14  1  0  0  0  0
 29 14  1  0  0  0  0
 30 15  1  0  0  0  0
 34 16  1  0  0  0  0
 36 17  1  0  0  0  0
 38 18  1  0  0  0  0
 40 18  1  0  0  0  0
 42 19  1  0  0  0  0
 43 19  1  0  0  0  0
M  END
$$$$
