CSD_code = ESILOH | q = 0 | S = 0 | Stoichiometry = C20H16Cl2N4Ru | MND = 6
 OpenBabel04212202033D

 43 48  0  0  1  0  0  0  0  0999 V2000
    4.5030    3.8539   11.0874 Ru  0  0  0  0  0  0  0  0  0  0  0  0
    3.1379    2.0794   10.3283 Cl  0  0  0  0  0  0  0  0  0  0  0  0
    6.4810    2.8326   10.2909 Cl  0  0  0  0  0  0  0  0  0  0  0  0
    4.4391    2.8567   12.7921 N   0  0  0  0  0  0  0  0  0  0  0  0
    2.8406    4.5966   11.8206 N   0  0  0  0  0  0  0  0  0  0  0  0
    5.6769    5.3432   11.5967 N   0  0  0  0  0  0  0  0  0  0  0  0
    4.5756    4.8025    9.3559 N   0  0  0  0  0  0  0  0  0  0  0  0
    5.3545    1.9893   13.2178 C   0  0  0  0  0  3  0  0  0  0  0  0
    6.2899    1.9862   12.6702 H   0  0  0  0  0  0  0  0  0  0  0  0
    5.1283    1.1212   14.2680 C   0  0  0  0  0  0  0  0  0  0  0  0
    5.8965    0.4263   14.5660 H   0  0  0  0  0  0  0  0  0  0  0  0
    3.8958    1.1491   14.9111 C   0  0  0  0  0  0  0  0  0  0  0  0
    3.6820    0.4742   15.7254 H   0  0  0  0  0  0  0  0  0  0  0  0
    2.9436    2.0515   14.4805 C   0  0  0  0  0  0  0  0  0  0  0  0
    1.9741    2.0862   14.9501 H   0  0  0  0  0  0  0  0  0  0  0  0
    3.2360    2.9008   13.4129 C   0  0  0  0  0  0  0  0  0  0  0  0
    2.3352    3.9085   12.8755 C   0  0  1  0  0  3  0  0  0  0  0  0
    1.0729    4.2032   13.3913 C   0  0  0  0  0  0  0  0  0  0  0  0
    0.6857    3.6354   14.2213 H   0  0  0  0  0  0  0  0  0  0  0  0
    0.3205    5.2124   12.8272 C   0  0  0  0  0  0  0  0  0  0  0  0
   -0.6624    5.4451   13.2054 H   0  0  0  0  0  0  0  0  0  0  0  0
    0.8591    5.9232   11.7574 C   0  0  0  0  0  0  0  0  0  0  0  0
    0.3084    6.7218   11.2870 H   0  0  0  0  0  0  0  0  0  0  0  0
    2.1098    5.5804   11.2927 C   0  0  0  0  0  0  0  0  0  0  0  0
    2.5511    6.1046   10.4529 H   0  0  0  0  0  0  0  0  0  0  0  0
    6.1402    5.6052   12.8203 C   0  0  0  0  0  3  0  0  0  0  0  0
    5.7193    5.0151   13.6263 H   0  0  0  0  0  0  0  0  0  0  0  0
    7.1065    6.5539   13.0734 C   0  0  0  0  0  0  0  0  0  0  0  0
    7.4517    6.7175   14.0815 H   0  0  0  0  0  0  0  0  0  0  0  0
    7.6332    7.2793   12.0073 C   0  0  0  0  0  0  0  0  0  0  0  0
    8.4004    8.0198   12.1690 H   0  0  0  0  0  0  0  0  0  0  0  0
    7.1520    7.0274   10.7394 C   0  0  0  0  0  0  0  0  0  0  0  0
    7.5375    7.5725    9.8934 H   0  0  0  0  0  0  0  0  0  0  0  0
    6.1712    6.0532   10.5511 C   0  0  0  0  0  0  0  0  0  0  0  0
    5.5616    5.7272    9.2714 C   0  0  2  0  0  3  0  0  0  0  0  0
    5.9108    6.2995    8.0478 C   0  0  0  0  0  0  0  0  0  0  0  0
    6.7114    7.0193    7.9959 H   0  0  0  0  0  0  0  0  0  0  0  0
    5.2418    5.9157    6.9026 C   0  0  0  0  0  0  0  0  0  0  0  0
    5.5090    6.3358    5.9453 H   0  0  0  0  0  0  0  0  0  0  0  0
    4.2271    4.9707    7.0073 C   0  0  0  0  0  0  0  0  0  0  0  0
    3.6856    4.6359    6.1375 H   0  0  0  0  0  0  0  0  0  0  0  0
    3.9296    4.4436    8.2487 C   0  0  0  0  0  0  0  0  0  0  0  0
    3.1641    3.6868    8.3752 H   0  0  0  0  0  0  0  0  0  0  0  0
  1  6  1  0  0  0  0
  1  5  1  0  0  0  0
  1  4  1  0  0  0  0
  2  1  1  0  0  0  0
  3  1  1  0  0  0  0
  4  8  1  0  0  0  0
  4 16  1  0  0  0  0
  5 17  1  0  0  0  0
  6 26  1  0  0  0  0
  7  1  1  0  0  0  0
  8 10  1  0  0  0  0
  9  8  1  0  0  0  0
 10 11  1  0  0  0  0
 10 12  2  0  0  0  0
 12 13  1  0  0  0  0
 14 12  1  0  0  0  0
 14 15  1  0  0  0  0
 16 14  2  0  0  0  0
 17 18  1  1  0  0  0
 17 16  1  0  0  0  0
 18 19  1  0  0  0  0
 20 21  1  0  0  0  0
 20 18  2  0  0  0  0
 22 20  1  0  0  0  0
 23 22  1  0  0  0  0
 24 22  2  0  0  0  0
 24  5  1  0  0  0  0
 25 24  1  0  0  0  0
 26 28  1  0  0  0  0
 26 27  1  0  0  0  0
 28 29  1  0  0  0  0
 30 31  1  0  0  0  0
 30 28  2  0  0  0  0
 32 30  1  0  0  0  0
 33 32  1  0  0  0  0
 34 32  2  0  0  0  0
 34  6  1  0  0  0  0
 35 36  1  1  0  0  0
 35  7  1  0  0  0  0
 35 34  1  0  0  0  0
 37 36  1  0  0  0  0
 38 40  1  0  0  0  0
 38 36  2  0  0  0  0
 39 38  1  0  0  0  0
 40 42  2  0  0  0  0
 41 40  1  0  0  0  0
 42 43  1  0  0  0  0
 42  7  1  0  0  0  0
M  END
$$$$
