CSD_code = ESIQON | q = 0 | S = 0 | Stoichiometry = C19H14BrClN3O3Re | MND = 6
 OpenBabel04212202033D

 42 45  0  0  1  0  0  0  0  0999 V2000
   -1.3833    2.4236    6.5756 Re  0  0  0  0  0  0  0  0  0  0  0  0
    2.3066    8.0923   10.9911 Br  0  0  0  0  0  0  0  0  0  0  0  0
   -3.1639    1.8462    5.1134 Cl  0  0  0  0  0  0  0  0  0  0  0  0
    0.4199    0.4327    5.0553 O   0  0  0  0  0  1  0  0  0  0  0  0
   -0.6348    4.5856    4.5033 O   0  0  0  0  0  1  0  0  0  0  0  0
    0.7130    3.1845    8.7174 O   0  0  0  0  0  1  0  0  0  0  0  0
   -2.3475    0.8600    7.7729 N   0  0  0  0  0  0  0  0  0  0  0  0
   -3.0068    3.4328    7.6038 N   0  0  1  0  0  0  0  0  0  0  0  0
   -3.5169    4.6513    7.6667 N   0  0  0  0  0  0  0  0  0  0  0  0
   -0.1946    1.2032    5.6363 C   0  0  0  0  0  2  0  0  0  0  0  0
   -0.8631    3.8123    5.3200 C   0  0  0  0  0  2  0  0  0  0  0  0
   -0.0638    2.8987    7.9153 C   0  0  0  0  0  2  0  0  0  0  0  0
   -1.9855   -0.4172    7.8123 C   0  0  0  0  0  3  0  0  0  0  0  0
   -1.0095   -0.6542    7.4091 H   0  0  0  0  0  0  0  0  0  0  0  0
   -2.7916   -1.4145    8.3322 C   0  0  0  0  0  0  0  0  0  0  0  0
   -2.4507   -2.4371    8.3301 H   0  0  0  0  0  0  0  0  0  0  0  0
   -4.0368   -1.0729    8.8397 C   0  0  0  0  0  0  0  0  0  0  0  0
   -4.6961   -1.8265    9.2426 H   0  0  0  0  0  0  0  0  0  0  0  0
   -4.4178    0.2545    8.8153 C   0  0  0  0  0  0  0  0  0  0  0  0
   -5.3774    0.5674    9.1943 H   0  0  0  0  0  0  0  0  0  0  0  0
   -3.5496    1.1979    8.2710 C   0  0  0  0  0  0  0  0  0  0  0  0
   -3.8746    2.6080    8.1971 C   0  0  1  0  0  3  0  0  0  0  0  0
   -4.9793    3.3435    8.6570 C   0  0  0  0  0  0  0  0  0  0  0  0
   -5.8462    2.9791    9.1671 H   0  0  0  0  0  0  0  0  0  0  0  0
   -4.7048    4.6420    8.2997 C   0  0  0  0  0  0  0  0  0  0  0  0
   -5.2727    5.5385    8.4479 H   0  0  0  0  0  0  0  0  0  0  0  0
   -2.7883    5.8014    7.1981 C   0  0  0  0  0  0  0  0  0  0  0  0
   -3.4294    6.6791    7.3262 H   0  0  0  0  0  0  0  0  0  0  0  0
   -2.5697    5.6792    6.1328 H   0  0  0  0  0  0  0  0  0  0  0  0
   -1.4981    5.9654    7.9701 C   0  0  0  0  0  0  0  0  0  0  0  0
   -0.3282    6.3351    7.3217 C   0  0  0  0  0  0  0  0  0  0  0  0
   -0.3377    6.5325    6.2614 H   0  0  0  0  0  0  0  0  0  0  0  0
    0.8532    6.4558    8.0282 C   0  0  0  0  0  0  0  0  0  0  0  0
    1.7576    6.7392    7.5108 H   0  0  0  0  0  0  0  0  0  0  0  0
    0.8886    6.1984    9.3925 C   0  0  0  0  0  0  0  0  0  0  0  0
   -0.2896    5.8581   10.0462 C   0  0  0  0  0  0  0  0  0  0  0  0
   -0.2798    5.6780   11.1114 H   0  0  0  0  0  0  0  0  0  0  0  0
   -1.4713    5.7434    9.3419 C   0  0  0  0  0  0  0  0  0  0  0  0
   -2.3766    5.4735    9.8679 H   0  0  0  0  0  0  0  0  0  0  0  0
    2.1634    6.3110   10.1529 C   0  0  0  0  0  0  0  0  0  0  0  0
    3.0363    6.2184    9.5102 H   0  0  0  0  0  0  0  0  0  0  0  0
    2.2170    5.5994   10.9746 H   0  0  0  0  0  0  0  0  0  0  0  0
  1  8  1  0  0  0  0
  1  7  1  0  0  0  0
  1 12  1  0  0  0  0
  3  1  1  0  0  0  0
  4 10  1  0  0  0  0
  5 11  1  0  0  0  0
  7 13  1  0  0  0  0
  7 21  1  0  0  0  0
  8  9  1  6  0  0  0
  8 22  1  0  0  0  0
  9 25  1  0  0  0  0
 10  1  1  0  0  0  0
 11  1  1  0  0  0  0
 12  6  1  0  0  0  0
 13 15  1  0  0  0  0
 14 13  1  0  0  0  0
 15 17  2  0  0  0  0
 16 15  1  0  0  0  0
 17 18  1  0  0  0  0
 19 17  1  0  0  0  0
 19 20  1  0  0  0  0
 21 19  2  0  0  0  0
 22 21  1  1  0  0  0
 22 23  1  0  0  0  0
 23 24  1  0  0  0  0
 25 26  1  0  0  0  0
 25 23  2  0  0  0  0
 27 28  1  0  0  0  0
 27  9  1  0  0  0  0
 27 30  1  0  0  0  0
 29 27  1  0  0  0  0
 30 38  1  0  0  0  0
 31 30  2  0  0  0  0
 31 33  1  0  0  0  0
 32 31  1  0  0  0  0
 33 35  2  0  0  0  0
 34 33  1  0  0  0  0
 35 36  1  0  0  0  0
 35 40  1  0  0  0  0
 36 37  1  0  0  0  0
 38 39  1  0  0  0  0
 38 36  2  0  0  0  0
 40 42  1  0  0  0  0
 40  2  1  0  0  0  0
 41 40  1  0  0  0  0
M  END
$$$$
