CSD_code = ESIREE | q = 0 | S = 0 | Stoichiometry = C17H16Cl2N4Zn | MND = 4
 OpenBabel04212202033D

 40 43  0  0  0  0  0  0  0  0999 V2000
    2.0434    6.0213    3.1760 Zn  0  0  0  0  0  0  0  0  0  0  0  0
    2.5540    8.0686    2.4582 Cl  0  0  0  0  0  0  0  0  0  0  0  0
    3.7356    4.5759    3.2078 Cl  0  0  0  0  0  0  0  0  0  0  0  0
    1.7715    6.4167    5.2788 N   0  0  0  0  0  0  0  0  0  0  0  0
    2.0115    7.6274    5.7673 C   0  0  0  0  0  3  0  0  0  0  0  0
    2.0777    7.8809    7.1258 C   0  0  0  0  0  0  0  0  0  0  0  0
    1.8862    6.8262    8.0053 C   0  0  0  0  0  0  0  0  0  0  0  0
    1.6316    5.5670    7.4903 C   0  0  0  0  0  0  0  0  0  0  0  0
    1.5833    5.3962    6.1109 C   0  0  0  0  0  0  0  0  0  0  0  0
    1.3724    4.0351    5.5103 C   0  0  0  0  0  0  0  0  0  0  0  0
    2.3738    3.6326    5.3278 H   0  0  0  0  0  0  0  0  0  0  0  0
    0.8498    3.3860    6.2297 H   0  0  0  0  0  0  0  0  0  0  0  0
    0.1176    5.8913    2.2491 N   0  0  0  0  0  0  0  0  0  0  0  0
   -0.0785    6.4584    1.0644 C   0  0  0  0  0  3  0  0  0  0  0  0
   -1.3092    6.4657    0.4374 C   0  0  0  0  0  0  0  0  0  0  0  0
   -2.3833    5.8659    1.0816 C   0  0  0  0  0  0  0  0  0  0  0  0
   -2.1770    5.2794    2.3144 C   0  0  0  0  0  0  0  0  0  0  0  0
   -0.8971    5.2877    2.8635 C   0  0  0  0  0  0  0  0  0  0  0  0
    0.6892    4.0863    4.2383 N   0  0  0  0  0  0  0  0  0  0  0  0
   -0.6185    4.7180    4.2271 C   0  0  0  0  0  0  0  0  0  0  0  0
    0.7880    3.0227    3.3491 C   0  0  0  0  0  0  0  0  0  0  0  0
   -0.1797    2.9933    2.4355 N   0  0  0  0  0  0  0  0  0  0  0  0
   -0.1525    2.0768    1.4831 C   0  0  0  0  0  0  0  0  0  0  0  0
    0.8317    1.1136    1.3913 C   0  0  0  0  0  0  0  0  0  0  0  0
    1.8298    1.1211    2.3590 C   0  0  0  0  0  0  0  0  0  0  0  0
    1.8143    2.0719    3.3582 C   0  0  0  0  0  0  0  0  0  0  0  0
    2.1570    8.4055    5.0307 H   0  0  0  0  0  0  0  0  0  0  0  0
   -3.3643    5.8623    0.6301 H   0  0  0  0  0  0  0  0  0  0  0  0
   -1.4094    4.0024    4.4904 H   0  0  0  0  0  0  0  0  0  0  0  0
   -0.9683    2.1305    0.7733 H   0  0  0  0  0  0  0  0  0  0  0  0
   -0.6184    5.5329    4.9557 H   0  0  0  0  0  0  0  0  0  0  0  0
    0.8237    0.3840    0.5979 H   0  0  0  0  0  0  0  0  0  0  0  0
   -2.9848    4.8023    2.8465 H   0  0  0  0  0  0  0  0  0  0  0  0
    2.2780    8.8779    7.4829 H   0  0  0  0  0  0  0  0  0  0  0  0
    2.6009    2.0874    4.0911 H   0  0  0  0  0  0  0  0  0  0  0  0
    1.4781    4.7215    8.1431 H   0  0  0  0  0  0  0  0  0  0  0  0
    2.6204    0.3860    2.3328 H   0  0  0  0  0  0  0  0  0  0  0  0
   -1.4256    6.9358   -0.5255 H   0  0  0  0  0  0  0  0  0  0  0  0
    0.7818    6.9419    0.6246 H   0  0  0  0  0  0  0  0  0  0  0  0
    1.9329    6.9807    9.0729 H   0  0  0  0  0  0  0  0  0  0  0  0
  1  3  1  0  0  0  0
  1  4  1  0  0  0  0
  2  1  1  0  0  0  0
  4  5  1  0  0  0  0
  4  9  1  0  0  0  0
  5  6  1  0  0  0  0
  6 34  1  0  0  0  0
  6  7  2  0  0  0  0
  7 40  1  0  0  0  0
  8  7  1  0  0  0  0
  8 36  1  0  0  0  0
  9  8  2  0  0  0  0
 10  9  1  0  0  0  0
 10 12  1  0  0  0  0
 11 10  1  0  0  0  0
 13 18  1  0  0  0  0
 13  1  1  0  0  0  0
 14 13  1  0  0  0  0
 15 14  1  0  0  0  0
 15 16  2  0  0  0  0
 16 17  1  0  0  0  0
 17 33  1  0  0  0  0
 17 18  2  0  0  0  0
 18 20  1  0  0  0  0
 19 10  1  0  0  0  0
 20 19  1  0  0  0  0
 20 29  1  0  0  0  0
 20 31  1  0  0  0  0
 21 26  1  0  0  0  0
 21 19  1  0  0  0  0
 22 21  2  0  0  0  0
 23 22  1  0  0  0  0
 24 23  2  0  0  0  0
 24 25  1  0  0  0  0
 25 26  2  0  0  0  0
 26 35  1  0  0  0  0
 27  5  1  0  0  0  0
 28 16  1  0  0  0  0
 30 23  1  0  0  0  0
 32 24  1  0  0  0  0
 37 25  1  0  0  0  0
 38 15  1  0  0  0  0
 39 14  1  0  0  0  0
M  END
$$$$
