CSD_code = ESIYOW | q = 0 | S = 0 | Stoichiometry = C14H21ClN6OZn | MND = 4
 OpenBabel04212202033D

 44 46  0  0  0  0  0  0  0  0999 V2000
    8.0793    6.6307    2.3841 Zn  0  0  2  0  0  0  0  0  0  0  0  0
    6.2370    5.9946    1.2428 Cl  0  0  0  0  0  0  0  0  0  0  0  0
    9.8938    5.8275    2.0091 N   0  0  0  0  0  0  0  0  0  0  0  0
    8.0533    3.5067    2.7445 N   0  0  0  0  0  0  0  0  0  0  0  0
    5.3320    2.7794    2.4225 N   0  0  0  0  0  4  0  0  0  0  0  0
    5.2674    1.8148    2.7680 H   0  0  0  0  0  0  0  0  0  0  0  0
    4.4121    3.1009    2.1121 H   0  0  0  0  0  0  0  0  0  0  0  0
    7.6299    6.5621    4.1987 N   0  0  0  0  0  0  0  0  0  0  0  0
    6.7790    6.2520    4.9344 N   0  0  0  0  0  4  0  0  0  0  0  0
    6.0051    5.9041    5.6897 N   0  0  0  0  0  2  0  0  0  0  0  0
    8.5054    8.3412    1.8309 O   0  0  0  0  0  0  0  0  0  0  0  0
   10.8717    8.0600    2.0425 C   0  0  0  0  0  0  0  0  0  0  0  0
    9.6777    8.8389    1.9391 C   0  0  0  0  0  0  0  0  0  0  0  0
    9.8333   10.2526    1.9217 C   0  0  0  0  0  0  0  0  0  0  0  0
    8.9317   10.8413    1.8413 H   0  0  0  0  0  0  0  0  0  0  0  0
   11.0578   10.8467    2.0117 C   0  0  0  0  0  0  0  0  0  0  0  0
   11.1348   11.9256    2.0013 H   0  0  0  0  0  0  0  0  0  0  0  0
   12.2357   10.0840    2.1169 C   0  0  0  0  0  0  0  0  0  0  0  0
   12.1185    8.7206    2.1253 C   0  0  0  0  0  0  0  0  0  0  0  0
   13.0097    8.1097    2.2021 H   0  0  0  0  0  0  0  0  0  0  0  0
   10.8920    6.6452    2.0341 C   0  0  0  0  0  3  0  0  0  0  0  0
   11.9009    6.2077    2.0206 H   0  0  0  0  0  0  0  0  0  0  0  0
   10.1903    4.4214    1.9197 C   0  0  0  0  0  0  0  0  0  0  0  0
   11.2729    4.2465    2.0122 H   0  0  0  0  0  0  0  0  0  0  0  0
    9.8734    4.0737    0.9304 H   0  0  0  0  0  0  0  0  0  0  0  0
    9.4741    3.6041    3.0006 C   0  0  0  0  0  0  0  0  0  0  0  0
    9.9471    2.6082    3.0663 H   0  0  0  0  0  0  0  0  0  0  0  0
    9.6102    4.1150    3.9549 H   0  0  0  0  0  0  0  0  0  0  0  0
    7.2158    3.2957    3.9025 C   0  0  0  0  0  0  0  0  0  0  0  0
    7.5367    3.9412    4.7169 H   0  0  0  0  0  0  0  0  0  0  0  0
    7.2551    2.2457    4.2592 H   0  0  0  0  0  0  0  0  0  0  0  0
    5.7934    3.6709    3.5190 C   0  0  0  0  0  0  0  0  0  0  0  0
    5.1202    3.6104    4.3731 H   0  0  0  0  0  0  0  0  0  0  0  0
    5.7963    4.6847    3.1059 H   0  0  0  0  0  0  0  0  0  0  0  0
    6.2653    2.8515    1.2672 C   0  0  0  0  0  0  0  0  0  0  0  0
    6.2348    3.9006    0.9178 H   0  0  0  0  0  0  0  0  0  0  0  0
    5.9391    2.1563    0.4938 H   0  0  0  0  0  0  0  0  0  0  0  0
    7.6834    2.5478    1.7280 C   0  0  0  0  0  0  0  0  0  0  0  0
    7.7612    1.5059    2.1059 H   0  0  0  0  0  0  0  0  0  0  0  0
    8.3454    2.6433    0.8683 H   0  0  0  0  0  0  0  0  0  0  0  0
   13.5649   10.7723    2.2147 C   0  0  0  0  0  0  0  0  0  0  0  0
   14.3750   10.0484    2.2599 H   0  0  0  0  0  0  0  0  0  0  0  0
   13.6058   11.3944    3.1086 H   0  0  0  0  0  0  0  0  0  0  0  0
   13.7239   11.4188    1.3520 H   0  0  0  0  0  0  0  0  0  0  0  0
  1  2  1  6  0  0  0
  1  8  1  0  0  0  0
  3 21  1  0  0  0  0
  3  1  1  0  0  0  0
  4 26  1  0  0  0  0
  4 29  1  0  0  0  0
  5  6  1  0  0  0  0
  5 32  1  0  0  0  0
  7  5  1  0  0  0  0
  8  9  2  0  0  0  0
  9 10  2  0  0  0  0
 11 13  1  0  0  0  0
 11  1  1  0  0  0  0
 12 19  1  0  0  0  0
 13 12  2  0  0  0  0
 14 13  1  0  0  0  0
 14 16  2  0  0  0  0
 15 14  1  0  0  0  0
 16 18  1  0  0  0  0
 17 16  1  0  0  0  0
 18 19  2  0  0  0  0
 18 41  1  0  0  0  0
 19 20  1  0  0  0  0
 21 12  1  0  0  0  0
 22 21  1  0  0  0  0
 23  3  1  0  0  0  0
 23 24  1  0  0  0  0
 23 26  1  0  0  0  0
 25 23  1  0  0  0  0
 26 27  1  0  0  0  0
 26 28  1  0  0  0  0
 29 31  1  0  0  0  0
 29 30  1  0  0  0  0
 32 29  1  0  0  0  0
 32 33  1  0  0  0  0
 34 32  1  0  0  0  0
 35 38  1  0  0  0  0
 35  5  1  0  0  0  0
 36 35  1  0  0  0  0
 37 35  1  0  0  0  0
 38 39  1  0  0  0  0
 38  4  1  0  0  0  0
 40 38  1  0  0  0  0
 41 42  1  0  0  0  0
 41 43  1  0  0  0  0
 44 41  1  0  0  0  0
M  END
$$$$
