CSD_code = ESIZOW | q = 0 | S = 0 | Stoichiometry = C18H24Cl2N4O2RuS2 | MND = 6
 OpenBabel04212202033D

 53 56  0  0  1  0  0  0  0  0999 V2000
    2.3108    2.2670    2.7608 Ru  0  0  0  0  0  0  0  0  0  0  0  0
    1.0280    2.6357    4.6869 Cl  0  0  0  0  0  0  0  0  0  0  0  0
    3.6884    2.0921    0.8320 Cl  0  0  0  0  0  0  0  0  0  0  0  0
    3.8342    3.7444    3.5750 S   0  0  0  0  0  0  0  0  0  0  0  0
    1.2544    3.9944    1.6494 S   0  0  0  0  0  0  0  0  0  0  0  0
    3.7341    5.0923    3.0245 O   0  0  0  0  0  1  0  0  0  0  0  0
    0.0870    3.5246    0.9075 O   0  0  0  0  0  1  0  0  0  0  0  0
    0.9021    0.8776    2.1748 N   0  0  0  0  0  0  0  0  0  0  0  0
    3.2476    0.7636    3.5966 N   0  0  1  0  0  0  0  0  0  0  0  0
    3.2892   -0.4530    3.0668 N   0  0  0  0  0  0  0  0  0  0  0  0
    3.9074    0.7869    4.6938 N   0  0  0  0  0  2  0  0  0  0  0  0
   -0.3901    1.1955    2.2625 C   0  0  0  0  0  3  0  0  0  0  0  0
   -0.6283    2.1826    2.6303 H   0  0  0  0  0  0  0  0  0  0  0  0
   -1.4039    0.3192    1.9166 C   0  0  0  0  0  0  0  0  0  0  0  0
   -2.4297    0.6389    1.9954 H   0  0  0  0  0  0  0  0  0  0  0  0
   -1.0779   -0.9508    1.4748 C   0  0  0  0  0  0  0  0  0  0  0  0
   -1.8398   -1.6560    1.1817 H   0  0  0  0  0  0  0  0  0  0  0  0
    0.2623   -1.3029    1.4412 C   0  0  0  0  0  0  0  0  0  0  0  0
    0.5661   -2.2914    1.1335 H   0  0  0  0  0  0  0  0  0  0  0  0
    1.2218   -0.3704    1.8010 C   0  0  0  0  0  0  0  0  0  0  0  0
    2.6850   -0.7389    1.7908 C   0  0  0  0  0  0  0  0  0  0  0  0
    2.8205   -1.7973    1.5677 H   0  0  0  0  0  0  0  0  0  0  0  0
    3.1948   -0.1187    1.0323 H   0  0  0  0  0  0  0  0  0  0  0  0
    4.0133   -1.2558    3.8727 C   0  0  0  0  0  0  0  0  0  0  0  0
    4.1801   -2.2890    3.6559 H   0  0  0  0  0  0  0  0  0  0  0  0
    4.4114   -0.4503    4.9252 C   0  0  0  0  0  0  0  0  0  0  0  0
    5.2138   -0.7584    6.0966 C   0  0  0  0  0  0  0  0  0  0  0  0
    5.8902   -1.9718    6.2082 C   0  0  0  0  0  0  0  0  0  0  0  0
    5.8283   -2.6990    5.4128 H   0  0  0  0  0  0  0  0  0  0  0  0
    6.6474   -2.2444    7.3317 C   0  0  0  0  0  0  0  0  0  0  0  0
    7.1689   -3.1869    7.4105 H   0  0  0  0  0  0  0  0  0  0  0  0
    6.7409   -1.3141    8.3539 C   0  0  0  0  0  0  0  0  0  0  0  0
    7.3341   -1.5312    9.2295 H   0  0  0  0  0  0  0  0  0  0  0  0
    6.0711   -0.1058    8.2495 C   0  0  0  0  0  0  0  0  0  0  0  0
    6.1396    0.6206    9.0456 H   0  0  0  0  0  0  0  0  0  0  0  0
    5.3119    0.1722    7.1298 C   0  0  0  0  0  0  0  0  0  0  0  0
    4.7751    1.1037    7.0441 H   0  0  0  0  0  0  0  0  0  0  0  0
    5.5695    3.2374    3.3644 C   0  0  0  0  0  0  0  0  0  0  0  0
    5.7122    2.9906    2.3165 H   0  0  0  0  0  0  0  0  0  0  0  0
    5.7427    2.3683    3.9881 H   0  0  0  0  0  0  0  0  0  0  0  0
    6.2032    4.0691    3.6484 H   0  0  0  0  0  0  0  0  0  0  0  0
    3.8648    3.9392    5.3765 C   0  0  0  0  0  0  0  0  0  0  0  0
    4.6895    4.5904    5.6406 H   0  0  0  0  0  0  0  0  0  0  0  0
    3.9650    2.9475    5.8001 H   0  0  0  0  0  0  0  0  0  0  0  0
    2.9161    4.3738    5.6725 H   0  0  0  0  0  0  0  0  0  0  0  0
    0.6717    5.3581    2.6987 C   0  0  0  0  0  0  0  0  0  0  0  0
    0.0087    5.9804    2.1094 H   0  0  0  0  0  0  0  0  0  0  0  0
    1.5438    5.9017    3.0413 H   0  0  0  0  0  0  0  0  0  0  0  0
    0.1428    4.9192    3.5397 H   0  0  0  0  0  0  0  0  0  0  0  0
    2.1984    4.9806    0.4517 C   0  0  0  0  0  0  0  0  0  0  0  0
    2.5601    4.3040   -0.3157 H   0  0  0  0  0  0  0  0  0  0  0  0
    3.0232    5.4516    0.9722 H   0  0  0  0  0  0  0  0  0  0  0  0
    1.5158    5.7051    0.0240 H   0  0  0  0  0  0  0  0  0  0  0  0
  1  4  1  0  0  0  0
  1  9  1  0  0  0  0
  1  2  1  0  0  0  0
  3  1  1  0  0  0  0
  4 42  1  0  0  0  0
  5 46  1  0  0  0  0
  5  1  1  0  0  0  0
  6  4  1  0  0  0  0
  7  5  1  0  0  0  0
  8 12  1  0  0  0  0
  8  1  1  0  0  0  0
  9 11  1  6  0  0  0
 10  9  1  0  0  0  0
 10 24  1  0  0  0  0
 11 26  1  0  0  0  0
 12 13  1  0  0  0  0
 14 15  1  0  0  0  0
 14 12  1  0  0  0  0
 16 14  2  0  0  0  0
 17 16  1  0  0  0  0
 18 16  1  0  0  0  0
 18 20  2  0  0  0  0
 19 18  1  0  0  0  0
 20  8  1  0  0  0  0
 21 20  1  0  0  0  0
 21 10  1  0  0  0  0
 22 21  1  0  0  0  0
 23 21  1  0  0  0  0
 24 26  2  0  0  0  0
 25 24  1  0  0  0  0
 26 27  1  0  0  0  0
 27 28  2  0  0  0  0
 27 36  1  0  0  0  0
 28 30  1  0  0  0  0
 29 28  1  0  0  0  0
 30 31  1  0  0  0  0
 30 32  2  0  0  0  0
 32 33  1  0  0  0  0
 34 32  1  0  0  0  0
 34 35  1  0  0  0  0
 36 34  2  0  0  0  0
 37 36  1  0  0  0  0
 38  4  1  0  0  0  0
 38 41  1  0  0  0  0
 38 40  1  0  0  0  0
 39 38  1  0  0  0  0
 42 43  1  0  0  0  0
 42 45  1  0  0  0  0
 42 44  1  0  0  0  0
 46 48  1  0  0  0  0
 46 49  1  0  0  0  0
 47 46  1  0  0  0  0
 50 52  1  0  0  0  0
 50  5  1  0  0  0  0
 51 50  1  0  0  0  0
 53 50  1  0  0  0  0
M  END
$$$$
