CSD_code = ESOLEE | q = -1 | S = 0 | Stoichiometry = C6H8Cl3N2Zn(1-) | MND = 4
 OpenBabel04212202033D

 20 20  0  0  0  0  0  0  0  0999 V2000
    3.0283   10.7581    2.7416 Zn  0  0  0  0  0  0  0  0  0  0  0  0
    5.0714    9.7678    2.9344 Cl  0  0  0  0  0  0  0  0  0  0  0  0
    1.3217    9.1882    2.9868 Cl  0  0  0  0  0  0  0  0  0  0  0  0
    2.7640   12.5054    1.3186 Cl  0  0  0  0  0  0  0  0  0  0  0  0
    3.1036   11.6966    4.6856 N   0  0  0  0  0  0  0  0  0  0  0  0
    2.5884    9.7442    5.7673 N   0  0  0  0  0  0  0  0  0  0  0  0
    2.1837    9.4534    4.8742 H   0  0  0  0  0  0  0  0  0  0  0  0
    3.5893   12.9332    4.6993 C   0  0  0  0  0  3  0  0  0  0  0  0
    3.5042   13.4703    3.7649 H   0  0  0  0  0  0  0  0  0  0  0  0
    4.1694   13.5103    5.8078 C   0  0  0  0  0  0  0  0  0  0  0  0
    4.5472   14.5190    5.7670 H   0  0  0  0  0  0  0  0  0  0  0  0
    4.2740   12.7418    6.9654 C   0  0  0  0  0  0  0  0  0  0  0  0
    4.7456   13.1470    7.8509 H   0  0  0  0  0  0  0  0  0  0  0  0
    3.7731   11.4651    6.9738 C   0  0  0  0  0  0  0  0  0  0  0  0
    3.8443   10.8490    7.8555 H   0  0  0  0  0  0  0  0  0  0  0  0
    3.1625   10.9510    5.8064 C   0  0  0  0  0  0  0  0  0  0  0  0
    2.6791    8.7598    6.8084 C   0  0  0  0  0  0  0  0  0  0  0  0
    3.7194    8.4882    7.0166 H   0  0  0  0  0  0  0  0  0  0  0  0
    2.1478    7.8709    6.4794 H   0  0  0  0  0  0  0  0  0  0  0  0
    2.2180    9.1195    7.7349 H   0  0  0  0  0  0  0  0  0  0  0  0
  1  2  1  0  0  0  0
  1  3  1  0  0  0  0
  1  5  1  0  0  0  0
  4  1  1  0  0  0  0
  5  8  1  0  0  0  0
  5 16  1  0  0  0  0
  6 16  1  0  0  0  0
  6 17  1  0  0  0  0
  7  6  1  0  0  0  0
  8 10  1  0  0  0  0
  9  8  1  0  0  0  0
 10 12  2  0  0  0  0
 11 10  1  0  0  0  0
 12 14  1  0  0  0  0
 12 13  1  0  0  0  0
 14 15  1  0  0  0  0
 16 14  2  0  0  0  0
 17 18  1  0  0  0  0
 17 20  1  0  0  0  0
 19 17  1  0  0  0  0
M  END
$$$$
