CSD_code = ESUMIP | q = 0 | S = 0 | Stoichiometry = C22H20ClMnN2O5 | MND = 6
 OpenBabel04212202033D

 51 55  0  0  0  0  0  0  0  0999 V2000
    6.5857    8.2697    7.1273 Mn  0  0  0  0  0  0  0  0  0  0  0  0
    4.9647    6.8072    7.4860 Cl  0  0  0  0  0  0  0  0  0  0  0  0
    6.7691    8.6655    8.7997 O   0  0  0  0  0  0  0  0  0  0  0  0
    7.7450    7.0649    6.6849 O   0  0  0  0  0  0  0  0  0  0  0  0
    7.6393    8.2736   11.2760 O   0  0  0  0  0  0  0  0  0  0  0  0
    9.5329    5.1649    7.1694 O   0  0  0  0  0  0  0  0  0  0  0  0
    8.3972    9.7387    6.8507 O   0  0  0  0  0  0  0  0  0  0  0  0
    8.6013   10.0437    7.7423 H   0  0  0  0  0  0  0  0  0  0  0  0
    9.1297    9.1747    6.5770 H   0  0  0  0  0  0  0  0  0  0  0  0
    5.1905    9.7720    7.0648 N   0  0  0  0  0  0  0  0  0  0  0  0
    6.0780    8.3143    5.1393 N   0  0  0  0  0  0  0  0  0  0  0  0
    6.0879    9.1646    9.7587 C   0  0  0  0  0  0  0  0  0  0  0  0
    6.4890    8.9932   11.1238 C   0  0  0  0  0  0  0  0  0  0  0  0
    5.7287    9.5249   12.1319 C   0  0  0  0  0  0  0  0  0  0  0  0
    6.0037    9.3817   13.1648 H   0  0  0  0  0  0  0  0  0  0  0  0
    4.5703   10.2691   11.8395 C   0  0  0  0  0  0  0  0  0  0  0  0
    3.9970   10.6738   12.6592 H   0  0  0  0  0  0  0  0  0  0  0  0
    4.1801   10.4806   10.5519 C   0  0  0  0  0  0  0  0  0  0  0  0
    3.2970   11.0612   10.3320 H   0  0  0  0  0  0  0  0  0  0  0  0
    4.9217    9.9458    9.4718 C   0  0  0  0  0  0  0  0  0  0  0  0
    4.5459   10.1876    8.1403 C   0  0  0  0  0  3  0  0  0  0  0  0
    3.6422   10.7766    8.0019 H   0  0  0  0  0  0  0  0  0  0  0  0
    4.7719   10.1599    5.8067 C   0  0  0  0  0  0  0  0  0  0  0  0
    3.9619   11.2602    5.5127 C   0  0  0  0  0  0  0  0  0  0  0  0
    3.6175   11.9105    6.3020 H   0  0  0  0  0  0  0  0  0  0  0  0
    3.6322   11.5542    4.2069 C   0  0  0  0  0  0  0  0  0  0  0  0
    3.0141   12.4124    3.9914 H   0  0  0  0  0  0  0  0  0  0  0  0
    4.1121   10.7670    3.1666 C   0  0  0  0  0  0  0  0  0  0  0  0
    3.8658   11.0159    2.1457 H   0  0  0  0  0  0  0  0  0  0  0  0
    4.9229    9.6835    3.4294 C   0  0  0  0  0  0  0  0  0  0  0  0
    5.3228    9.1130    2.6053 H   0  0  0  0  0  0  0  0  0  0  0  0
    5.2613    9.3566    4.7453 C   0  0  0  0  0  0  0  0  0  0  0  0
    6.3041    7.2989    4.3256 C   0  0  0  0  0  3  0  0  0  0  0  0
    5.7747    7.2738    3.3759 H   0  0  0  0  0  0  0  0  0  0  0  0
    7.1824    6.2293    4.5660 C   0  0  0  0  0  0  0  0  0  0  0  0
    7.3821    5.2135    3.6011 C   0  0  0  0  0  0  0  0  0  0  0  0
    6.8219    5.2620    2.6797 H   0  0  0  0  0  0  0  0  0  0  0  0
    8.2608    4.1979    3.8280 C   0  0  0  0  0  0  0  0  0  0  0  0
    8.4039    3.4225    3.0915 H   0  0  0  0  0  0  0  0  0  0  0  0
    9.0050    4.1376    5.0212 C   0  0  0  0  0  0  0  0  0  0  0  0
    9.6915    3.3179    5.1610 H   0  0  0  0  0  0  0  0  0  0  0  0
    8.8575    5.1007    5.9846 C   0  0  0  0  0  0  0  0  0  0  0  0
    7.9144    6.1630    5.7956 C   0  0  0  0  0  0  0  0  0  0  0  0
    8.0265    7.9170   12.5787 C   0  0  0  0  0  0  0  0  0  0  0  0
    8.9141    7.2968   12.4645 H   0  0  0  0  0  0  0  0  0  0  0  0
    7.2449    7.3421   13.0849 H   0  0  0  0  0  0  0  0  0  0  0  0
    8.2754    8.7989   13.1794 H   0  0  0  0  0  0  0  0  0  0  0  0
   10.3635    4.0855    7.5142 C   0  0  0  0  0  0  0  0  0  0  0  0
   10.7390    4.3077    8.5119 H   0  0  0  0  0  0  0  0  0  0  0  0
   11.2077    3.9911    6.8220 H   0  0  0  0  0  0  0  0  0  0  0  0
    9.8066    3.1437    7.5377 H   0  0  0  0  0  0  0  0  0  0  0  0
  1  2  1  0  0  0  0
  1  3  1  0  0  0  0
  3 12  1  0  0  0  0
  4  1  1  0  0  0  0
  5 44  1  0  0  0  0
  6 48  1  0  0  0  0
  7  8  1  0  0  0  0
  9  7  1  0  0  0  0
 10  1  1  0  0  0  0
 10 21  1  0  0  0  0
 11  1  1  0  0  0  0
 12 13  1  0  0  0  0
 13  5  1  0  0  0  0
 13 14  2  0  0  0  0
 14 15  1  0  0  0  0
 16 14  1  0  0  0  0
 16 17  1  0  0  0  0
 18 16  2  0  0  0  0
 19 18  1  0  0  0  0
 20 12  2  0  0  0  0
 20 18  1  0  0  0  0
 21 20  1  0  0  0  0
 22 21  1  0  0  0  0
 23 10  1  0  0  0  0
 24 23  1  0  0  0  0
 24 25  1  0  0  0  0
 26 24  2  0  0  0  0
 27 26  1  0  0  0  0
 28 30  2  0  0  0  0
 28 26  1  0  0  0  0
 29 28  1  0  0  0  0
 30 32  1  0  0  0  0
 31 30  1  0  0  0  0
 32 11  1  0  0  0  0
 32 23  2  0  0  0  0
 33 35  1  0  0  0  0
 33 11  1  0  0  0  0
 34 33  1  0  0  0  0
 35 43  1  0  0  0  0
 36 38  1  0  0  0  0
 36 35  2  0  0  0  0
 37 36  1  0  0  0  0
 38 40  2  0  0  0  0
 39 38  1  0  0  0  0
 40 41  1  0  0  0  0
 40 42  1  0  0  0  0
 42  6  1  0  0  0  0
 43 42  2  0  0  0  0
 43  4  1  0  0  0  0
 44 46  1  0  0  0  0
 44 47  1  0  0  0  0
 45 44  1  0  0  0  0
 48 51  1  0  0  0  0
 48 49  1  0  0  0  0
 50 48  1  0  0  0  0
M  END
$$$$
