CSD_code = ESUNOV | q = 0 | S = 0 | Stoichiometry = C16H32Cl2MoN4 | MND = 6
 OpenBabel04212202033D

 55 56  0  0  0  0  0  0  0  0999 V2000
    2.7276    0.7713   16.3785 Mo  0  0  0  0  0  0  0  0  0  0  0  0
    3.0069    1.8004   14.2811 Cl  0  0  0  0  0  0  0  0  0  0  0  0
    0.5292    1.4570   16.8703 Cl  0  0  0  0  0  0  0  0  0  0  0  0
    1.9948   -0.8184   15.4446 N   0  0  0  0  0  0  0  0  0  0  0  0
    4.3523   -0.2815   16.0113 N   0  0  0  0  0  0  0  0  0  0  0  0
    3.3939    2.4266   17.2508 N   0  0  0  0  0  0  0  0  0  0  0  0
    2.9363    0.2033   18.2531 N   0  0  0  0  0  0  0  0  0  0  0  0
    2.9185   -1.6175   14.8721 C   0  0  0  0  0  0  0  0  0  0  0  0
    2.6461   -2.4334   14.2177 H   0  0  0  0  0  0  0  0  0  0  0  0
    4.2131   -1.3277   15.1830 C   0  0  0  0  0  0  0  0  0  0  0  0
    5.0542   -1.9011   14.8199 H   0  0  0  0  0  0  0  0  0  0  0  0
    5.6847    0.0461   16.4857 C   0  0  0  0  0  0  0  0  0  0  0  0
    5.5382    0.6696   17.3798 H   0  0  0  0  0  0  0  0  0  0  0  0
    6.4048    0.8809   15.4215 C   0  0  0  0  0  0  0  0  0  0  0  0
    6.5844    0.2794   14.5325 H   0  0  0  0  0  0  0  0  0  0  0  0
    7.3575    1.2425   15.8003 H   0  0  0  0  0  0  0  0  0  0  0  0
    5.7826    1.7308   15.1401 H   0  0  0  0  0  0  0  0  0  0  0  0
    6.5193   -1.1764   16.8854 C   0  0  0  0  0  0  0  0  0  0  0  0
    5.9159   -1.8710   17.4661 H   0  0  0  0  0  0  0  0  0  0  0  0
    7.3637   -0.8563   17.4908 H   0  0  0  0  0  0  0  0  0  0  0  0
    6.9100   -1.6958   16.0142 H   0  0  0  0  0  0  0  0  0  0  0  0
    0.6162   -1.1468   15.0883 C   0  0  0  0  0  0  0  0  0  0  0  0
   -0.0309   -0.5269   15.7180 H   0  0  0  0  0  0  0  0  0  0  0  0
    0.3486   -0.7700   13.6275 C   0  0  0  0  0  0  0  0  0  0  0  0
    0.6156    0.2742   13.4661 H   0  0  0  0  0  0  0  0  0  0  0  0
   -0.7059   -0.8992   13.3981 H   0  0  0  0  0  0  0  0  0  0  0  0
    0.9343   -1.3865   12.9485 H   0  0  0  0  0  0  0  0  0  0  0  0
    0.2618   -2.6123   15.3667 C   0  0  0  0  0  0  0  0  0  0  0  0
    0.7057   -3.2869   14.6388 H   0  0  0  0  0  0  0  0  0  0  0  0
   -0.8175   -2.7328   15.3225 H   0  0  0  0  0  0  0  0  0  0  0  0
    0.6023   -2.8959   16.3610 H   0  0  0  0  0  0  0  0  0  0  0  0
    3.4602    2.3813   18.5966 C   0  0  0  0  0  0  0  0  0  0  0  0
    3.6927    3.2535   19.1909 H   0  0  0  0  0  0  0  0  0  0  0  0
    3.2110    1.1616   19.1509 C   0  0  0  0  0  0  0  0  0  0  0  0
    3.2482    0.9731   20.2143 H   0  0  0  0  0  0  0  0  0  0  0  0
    2.7301   -1.1509   18.7357 C   0  0  0  0  0  0  0  0  0  0  0  0
    2.8810   -1.8046   17.8641 H   0  0  0  0  0  0  0  0  0  0  0  0
    1.2808   -1.2974   19.2110 C   0  0  0  0  0  0  0  0  0  0  0  0
    1.1098   -0.6730   20.0858 H   0  0  0  0  0  0  0  0  0  0  0  0
    1.0663   -2.3315   19.4690 H   0  0  0  0  0  0  0  0  0  0  0  0
    0.6015   -0.9750   18.4217 H   0  0  0  0  0  0  0  0  0  0  0  0
    3.7143   -1.5786   19.8306 C   0  0  0  0  0  0  0  0  0  0  0  0
    4.7240   -1.2654   19.5736 H   0  0  0  0  0  0  0  0  0  0  0  0
    3.6988   -2.6613   19.9279 H   0  0  0  0  0  0  0  0  0  0  0  0
    3.4497   -1.1526   20.7949 H   0  0  0  0  0  0  0  0  0  0  0  0
    3.6199    3.7558   16.6867 C   0  0  0  0  0  0  0  0  0  0  0  0
    3.6747    3.6347   15.5996 H   0  0  0  0  0  0  0  0  0  0  0  0
    4.9411    4.3830   17.1474 C   0  0  0  0  0  0  0  0  0  0  0  0
    4.8922    4.7337   18.1756 H   0  0  0  0  0  0  0  0  0  0  0  0
    5.1717    5.2345   16.5122 H   0  0  0  0  0  0  0  0  0  0  0  0
    5.7484    3.6575   17.0622 H   0  0  0  0  0  0  0  0  0  0  0  0
    2.4276    4.6667   16.9974 C   0  0  0  0  0  0  0  0  0  0  0  0
    1.5066    4.1891   16.6643 H   0  0  0  0  0  0  0  0  0  0  0  0
    2.5377    5.6132   16.4746 H   0  0  0  0  0  0  0  0  0  0  0  0
    2.3498    4.8617   18.0652 H   0  0  0  0  0  0  0  0  0  0  0  0
  1  3  1  0  0  0  0
  1  6  1  0  0  0  0
  1  7  1  0  0  0  0
  2  1  1  0  0  0  0
  4  1  1  0  0  0  0
  5  1  1  0  0  0  0
  5 12  1  0  0  0  0
  6 32  1  0  0  0  0
  7 36  1  0  0  0  0
  7 34  1  0  0  0  0
  8 10  2  0  0  0  0
  8  4  1  0  0  0  0
  9  8  1  0  0  0  0
 10  5  1  0  0  0  0
 11 10  1  0  0  0  0
 12 18  1  0  0  0  0
 12 13  1  0  0  0  0
 14 16  1  0  0  0  0
 14 12  1  0  0  0  0
 15 14  1  0  0  0  0
 17 14  1  0  0  0  0
 18 19  1  0  0  0  0
 18 20  1  0  0  0  0
 21 18  1  0  0  0  0
 22 28  1  0  0  0  0
 22  4  1  0  0  0  0
 22 23  1  0  0  0  0
 24 22  1  0  0  0  0
 25 24  1  0  0  0  0
 26 24  1  0  0  0  0
 27 24  1  0  0  0  0
 28 31  1  0  0  0  0
 29 28  1  0  0  0  0
 30 28  1  0  0  0  0
 32 34  2  0  0  0  0
 32 33  1  0  0  0  0
 34 35  1  0  0  0  0
 36 38  1  0  0  0  0
 36 42  1  0  0  0  0
 37 36  1  0  0  0  0
 38 40  1  0  0  0  0
 38 39  1  0  0  0  0
 41 38  1  0  0  0  0
 42 44  1  0  0  0  0
 42 45  1  0  0  0  0
 43 42  1  0  0  0  0
 46 52  1  0  0  0  0
 46 48  1  0  0  0  0
 46  6  1  0  0  0  0
 47 46  1  0  0  0  0
 48 49  1  0  0  0  0
 50 48  1  0  0  0  0
 51 48  1  0  0  0  0
 52 55  1  0  0  0  0
 53 52  1  0  0  0  0
 54 52  1  0  0  0  0
M  END
$$$$
