CSD_code = ESUPIR | q = 0 | S = 0 | Stoichiometry = C28H33ClNOPPd | MND = 4
 OpenBabel04212202033D

 66 71  0  0  1  0  0  0  0  0999 V2000
    7.9962   10.1935   16.0781 Pd  0  0  1  0  0  0  0  0  0  0  0  0
    6.9565   11.2980   17.7697 Cl  0  0  0  0  0  0  0  0  0  0  0  0
    8.6906    8.6324   19.1885 C   0  0  0  0  0  0  0  0  0  0  0  0
    7.4144    8.5332   19.7367 C   0  0  0  0  0  0  0  0  0  0  0  0
    6.5643    8.4310   19.0736 H   0  0  0  0  0  0  0  0  0  0  0  0
    7.2430    8.5861   21.1056 C   0  0  0  0  0  0  0  0  0  0  0  0
    6.2524    8.5153   21.5298 H   0  0  0  0  0  0  0  0  0  0  0  0
    8.3439    8.7416   21.9344 C   0  0  0  0  0  0  0  0  0  0  0  0
    8.2101    8.7883   23.0052 H   0  0  0  0  0  0  0  0  0  0  0  0
    9.6133    8.8465   21.3916 C   0  0  0  0  0  0  0  0  0  0  0  0
   10.4694    8.9736   22.0384 H   0  0  0  0  0  0  0  0  0  0  0  0
    9.7912    8.7964   20.0195 C   0  0  0  0  0  0  0  0  0  0  0  0
   10.7816    8.8853   19.5941 H   0  0  0  0  0  0  0  0  0  0  0  0
    8.1194    6.9565   16.9904 C   0  0  0  0  0  0  0  0  0  0  0  0
    7.1682    6.8904   15.9772 C   0  0  0  0  0  0  0  0  0  0  0  0
    6.9030    7.8095   15.4501 H   0  0  0  0  0  0  0  0  0  0  0  0
    6.5904    5.6762   15.6521 C   0  0  0  0  0  0  0  0  0  0  0  0
    5.8544    5.6181   14.8637 H   0  0  0  0  0  0  0  0  0  0  0  0
    6.9552    4.5312   16.3425 C   0  0  0  0  0  0  0  0  0  0  0  0
    6.5069    3.5819   16.0881 H   0  0  0  0  0  0  0  0  0  0  0  0
    7.8870    4.5993   17.3669 C   0  0  0  0  0  0  0  0  0  0  0  0
    8.1570    3.7056   17.9107 H   0  0  0  0  0  0  0  0  0  0  0  0
    8.4660    5.8106   17.6995 C   0  0  0  0  0  0  0  0  0  0  0  0
    9.1736    5.8750   18.5154 H   0  0  0  0  0  0  0  0  0  0  0  0
   10.5809    8.5963   17.0292 C   0  0  0  0  0  0  0  0  0  0  0  0
   11.1293    9.8724   16.8933 C   0  0  0  0  0  0  0  0  0  0  0  0
   10.4747   10.7425   17.0207 H   0  0  0  0  0  0  0  0  0  0  0  0
   12.4703   10.0241   16.6003 C   0  0  0  0  0  0  0  0  0  0  0  0
   12.8984   11.0109   16.4963 H   0  0  0  0  0  0  0  0  0  0  0  0
   13.2682    8.9016   16.4290 C   0  0  0  0  0  0  0  0  0  0  0  0
   14.3154    9.0175   16.1908 H   0  0  0  0  0  0  0  0  0  0  0  0
   12.7227    7.6353   16.5496 C   0  0  0  0  0  0  0  0  0  0  0  0
   13.3450    6.7644   16.4029 H   0  0  0  0  0  0  0  0  0  0  0  0
   11.3792    7.4770   16.8504 C   0  0  0  0  0  0  0  0  0  0  0  0
   10.9516    6.4881   16.9268 H   0  0  0  0  0  0  0  0  0  0  0  0
    8.8864    9.2332   14.5281 O   0  0  0  0  0  0  0  0  0  0  0  0
    7.5192   11.6695   14.6760 N   0  0  1  0  0  4  0  0  0  0  0  0
    7.8359   11.0565   13.3688 C   0  0  1  0  0  0  0  0  0  0  0  0
    6.9973   10.3833   13.1405 H   0  0  0  0  0  0  0  0  0  0  0  0
    7.9540   12.1494   12.2988 C   0  0  0  0  0  0  0  0  0  0  0  0
    7.4398   11.8496   11.3857 H   0  0  0  0  0  0  0  0  0  0  0  0
    9.0036   12.3179   12.0443 H   0  0  0  0  0  0  0  0  0  0  0  0
    7.3572   13.4399   12.8662 C   0  0  1  0  0  0  0  0  0  0  0  0
    7.2856   14.1984   12.0807 H   0  0  0  0  0  0  0  0  0  0  0  0
    5.9683   13.1845   13.4737 C   0  0  2  0  0  0  0  0  0  0  0  0
    5.6011   14.1373   13.8712 H   0  0  0  0  0  0  0  0  0  0  0  0
    6.1491   12.1860   14.6395 C   0  0  0  0  0  0  0  0  0  0  0  0
    5.9422   12.6569   15.6044 H   0  0  0  0  0  0  0  0  0  0  0  0
    5.4688   11.3324   14.5323 H   0  0  0  0  0  0  0  0  0  0  0  0
    8.4386   12.7721   14.9944 C   0  0  0  0  0  0  0  0  0  0  0  0
    9.4659   12.3832   14.9784 H   0  0  0  0  0  0  0  0  0  0  0  0
    8.2115   13.1083   16.0141 H   0  0  0  0  0  0  0  0  0  0  0  0
    8.2771   13.9267   13.9873 C   0  0  0  0  0  0  0  0  0  0  0  0
    7.8425   14.8039   14.4694 H   0  0  0  0  0  0  0  0  0  0  0  0
    9.2452   14.2186   13.5769 H   0  0  0  0  0  0  0  0  0  0  0  0
    9.0722   10.1476   13.5258 C   0  0  0  0  0  0  0  0  0  0  0  0
    9.2283    9.6055   12.5739 H   0  0  0  0  0  0  0  0  0  0  0  0
    9.9799   10.7698   13.6841 H   0  0  0  0  0  0  0  0  0  0  0  0
    4.9488   12.7036   12.4361 C   0  0  0  0  0  0  0  0  0  0  0  0
    5.0366   13.3242   11.5405 H   0  0  0  0  0  0  0  0  0  0  0  0
    5.1632   11.6732   12.1466 H   0  0  0  0  0  0  0  0  0  0  0  0
    3.5193   12.7913   12.9592 C   0  0  0  0  0  0  0  0  0  0  0  0
    3.3948   12.1914   13.8574 H   0  0  0  0  0  0  0  0  0  0  0  0
    2.8186   12.4328   12.2087 H   0  0  0  0  0  0  0  0  0  0  0  0
    3.2645   13.8208   13.2010 H   0  0  0  0  0  0  0  0  0  0  0  0
    8.7981    8.5931   17.3748 P   0  0  0  0  0  4  0  0  0  0  0  0
  1 66  1  0  0  0  0
  1  2  1  6  0  0  0
  3  4  2  0  0  0  0
  3 12  1  0  0  0  0
  4  6  1  0  0  0  0
  5  4  1  0  0  0  0
  6  7  1  0  0  0  0
  6  8  2  0  0  0  0
  8  9  1  0  0  0  0
 10  8  1  0  0  0  0
 10 11  1  0  0  0  0
 12 10  2  0  0  0  0
 13 12  1  0  0  0  0
 14 66  1  0  0  0  0
 14 23  1  0  0  0  0
 15 14  2  0  0  0  0
 16 15  1  0  0  0  0
 17 15  1  0  0  0  0
 17 19  2  0  0  0  0
 18 17  1  0  0  0  0
 19 21  1  0  0  0  0
 20 19  1  0  0  0  0
 21 23  2  0  0  0  0
 21 22  1  0  0  0  0
 23 24  1  0  0  0  0
 25 66  1  0  0  0  0
 26 27  1  0  0  0  0
 26 25  1  0  0  0  0
 28 26  2  0  0  0  0
 29 28  1  0  0  0  0
 30 32  2  0  0  0  0
 30 28  1  0  0  0  0
 31 30  1  0  0  0  0
 32 34  1  0  0  0  0
 33 32  1  0  0  0  0
 34 35  1  0  0  0  0
 34 25  2  0  0  0  0
 36  1  1  0  0  0  0
 37 47  1  1  0  0  0
 37 50  1  0  0  0  0
 37  1  1  0  0  0  0
 38 39  1  6  0  0  0
 38 56  1  0  0  0  0
 38 37  1  0  0  0  0
 40 43  1  0  0  0  0
 40 38  1  0  0  0  0
 41 40  1  0  0  0  0
 42 40  1  0  0  0  0
 43 44  1  6  0  0  0
 43 45  1  0  0  0  0
 43 53  1  0  0  0  0
 45 46  1  1  0  0  0
 45 47  1  0  0  0  0
 47 48  1  0  0  0  0
 49 47  1  0  0  0  0
 50 52  1  0  0  0  0
 51 50  1  0  0  0  0
 53 54  1  0  0  0  0
 53 50  1  0  0  0  0
 55 53  1  0  0  0  0
 56 58  1  0  0  0  0
 56 36  1  0  0  0  0
 57 56  1  0  0  0  0
 59 62  1  0  0  0  0
 59 45  1  0  0  0  0
 60 59  1  0  0  0  0
 61 59  1  0  0  0  0
 62 65  1  0  0  0  0
 62 63  1  0  0  0  0
 64 62  1  0  0  0  0
 66  3  1  0  0  0  0
M  END
$$$$
