CSD_code = ETACEH | q = 0 | S = 0 | Stoichiometry = C21H39BrNiP2 | MND = 4
 OpenBabel04212202033D

 64 65  0  0  0  0  0  0  0  0999 V2000
   -2.1909    0.6683   16.4254 Br  0  0  0  0  0  0  0  0  0  0  0  0
   -3.3888   -0.2651   18.1587 Ni  0  0  0  0  0  0  0  0  0  0  0  0
   -4.8151   -1.8061   18.9144 P   0  0  0  0  0  4  0  0  0  0  0  0
   -5.1532    0.9536   17.6076 P   0  0  0  0  0  4  0  0  0  0  0  0
   -1.7622   -1.0705   18.9422 C   0  0  0  0  0  0  0  0  0  0  0  0
   -1.8778   -2.1020   19.2909 H   0  0  0  0  0  0  0  0  0  0  0  0
   -0.9185   -1.0063   18.2521 H   0  0  0  0  0  0  0  0  0  0  0  0
   -1.6680   -0.1094   20.0492 C   0  0  0  0  0  0  0  0  0  0  0  0
   -1.9628   -0.4921   21.3662 C   0  0  0  0  0  0  0  0  0  0  0  0
   -2.2073   -1.5252   21.5692 H   0  0  0  0  0  0  0  0  0  0  0  0
   -1.9065    0.4150   22.4050 C   0  0  0  0  0  0  0  0  0  0  0  0
   -2.1381    0.0929   23.4110 H   0  0  0  0  0  0  0  0  0  0  0  0
   -1.5464    1.7319   22.1650 C   0  0  0  0  0  0  0  0  0  0  0  0
   -1.5112    2.4421   22.9782 H   0  0  0  0  0  0  0  0  0  0  0  0
   -1.2066    2.1220   20.8788 C   0  0  0  0  0  0  0  0  0  0  0  0
   -0.8951    3.1391   20.6886 H   0  0  0  0  0  0  0  0  0  0  0  0
   -1.2574    1.2188   19.8355 C   0  0  0  0  0  0  0  0  0  0  0  0
   -0.9590    1.5306   18.8442 H   0  0  0  0  0  0  0  0  0  0  0  0
   -4.7818   -2.7784   20.5137 C   0  0  0  0  0  0  0  0  0  0  0  0
   -3.7487   -3.1489   20.5692 H   0  0  0  0  0  0  0  0  0  0  0  0
   -5.0255   -1.8464   21.7018 C   0  0  0  0  0  0  0  0  0  0  0  0
   -4.6478   -2.2971   22.6184 H   0  0  0  0  0  0  0  0  0  0  0  0
   -6.0905   -1.6674   21.8394 H   0  0  0  0  0  0  0  0  0  0  0  0
   -4.5249   -0.8892   21.5647 H   0  0  0  0  0  0  0  0  0  0  0  0
   -5.7162   -3.9810   20.5995 C   0  0  0  0  0  0  0  0  0  0  0  0
   -5.6090   -4.4437   21.5803 H   0  0  0  0  0  0  0  0  0  0  0  0
   -5.4796   -4.7331   19.8516 H   0  0  0  0  0  0  0  0  0  0  0  0
   -6.7560   -3.6802   20.4880 H   0  0  0  0  0  0  0  0  0  0  0  0
   -4.8495   -3.1519   17.6059 C   0  0  0  0  0  0  0  0  0  0  0  0
   -4.2382   -3.9598   18.0313 H   0  0  0  0  0  0  0  0  0  0  0  0
   -4.1445   -2.6342   16.3522 C   0  0  0  0  0  0  0  0  0  0  0  0
   -3.9512   -3.4463   15.6535 H   0  0  0  0  0  0  0  0  0  0  0  0
   -3.1826   -2.1737   16.6085 H   0  0  0  0  0  0  0  0  0  0  0  0
   -4.7632   -1.8931   15.8477 H   0  0  0  0  0  0  0  0  0  0  0  0
   -6.2232   -3.6979   17.2290 C   0  0  0  0  0  0  0  0  0  0  0  0
   -6.0962   -4.5207   16.5263 H   0  0  0  0  0  0  0  0  0  0  0  0
   -6.8191   -2.9332   16.7343 H   0  0  0  0  0  0  0  0  0  0  0  0
   -6.7767   -4.0731   18.0853 H   0  0  0  0  0  0  0  0  0  0  0  0
   -6.5303   -1.0911   18.9566 C   0  0  0  0  0  0  0  0  0  0  0  0
   -7.2796   -1.8785   18.8463 H   0  0  0  0  0  0  0  0  0  0  0  0
   -6.6448   -0.6639   19.9551 H   0  0  0  0  0  0  0  0  0  0  0  0
   -6.7248    0.0024   17.9102 C   0  0  0  0  0  0  0  0  0  0  0  0
   -7.5330    0.6790   18.2021 H   0  0  0  0  0  0  0  0  0  0  0  0
   -6.9936   -0.4511   16.9517 H   0  0  0  0  0  0  0  0  0  0  0  0
   -5.4902    1.7522   15.9557 C   0  0  0  0  0  0  0  0  0  0  0  0
   -4.6334    2.4181   15.7951 H   0  0  0  0  0  0  0  0  0  0  0  0
   -6.7824    2.5620   15.9006 C   0  0  0  0  0  0  0  0  0  0  0  0
   -6.8727    3.0220   14.9176 H   0  0  0  0  0  0  0  0  0  0  0  0
   -6.7979    3.3576   16.6410 H   0  0  0  0  0  0  0  0  0  0  0  0
   -7.6530    1.9264   16.0512 H   0  0  0  0  0  0  0  0  0  0  0  0
   -5.4605    0.7137   14.8359 C   0  0  0  0  0  0  0  0  0  0  0  0
   -5.5430    1.2122   13.8721 H   0  0  0  0  0  0  0  0  0  0  0  0
   -6.2870    0.0082   14.9167 H   0  0  0  0  0  0  0  0  0  0  0  0
   -4.5174    0.1717   14.8465 H   0  0  0  0  0  0  0  0  0  0  0  0
   -5.2840    2.3914   18.7909 C   0  0  0  0  0  0  0  0  0  0  0  0
   -6.2878    2.8280   18.7206 H   0  0  0  0  0  0  0  0  0  0  0  0
   -4.2259    3.4323   18.4337 C   0  0  0  0  0  0  0  0  0  0  0  0
   -4.1862    4.2064   19.1989 H   0  0  0  0  0  0  0  0  0  0  0  0
   -4.4346    3.9092   17.4791 H   0  0  0  0  0  0  0  0  0  0  0  0
   -3.2434    2.9635   18.3765 H   0  0  0  0  0  0  0  0  0  0  0  0
   -5.0519    1.8866   20.2128 C   0  0  0  0  0  0  0  0  0  0  0  0
   -4.9563    2.7227   20.9045 H   0  0  0  0  0  0  0  0  0  0  0  0
   -4.1235    1.3117   20.2606 H   0  0  0  0  0  0  0  0  0  0  0  0
   -5.8735    1.2609   20.5555 H   0  0  0  0  0  0  0  0  0  0  0  0
  1  2  1  0  0  0  0
  2  3  1  0  0  0  0
  2  5  1  0  0  0  0
  3 39  1  0  0  0  0
  3 19  1  0  0  0  0
  4 42  1  0  0  0  0
  4  2  1  0  0  0  0
  4 55  1  0  0  0  0
  5  6  1  0  0  0  0
  5  8  1  0  0  0  0
  7  5  1  0  0  0  0
  8  9  1  0  0  0  0
  9 10  1  0  0  0  0
  9 11  2  0  0  0  0
 11 12  1  0  0  0  0
 13 11  1  0  0  0  0
 13 14  1  0  0  0  0
 15 13  2  0  0  0  0
 16 15  1  0  0  0  0
 17  8  2  0  0  0  0
 17 15  1  0  0  0  0
 18 17  1  0  0  0  0
 19 20  1  0  0  0  0
 19 25  1  0  0  0  0
 19 21  1  0  0  0  0
 21 23  1  0  0  0  0
 21 22  1  0  0  0  0
 24 21  1  0  0  0  0
 25 26  1  0  0  0  0
 27 25  1  0  0  0  0
 28 25  1  0  0  0  0
 29 30  1  0  0  0  0
 29  3  1  0  0  0  0
 31 33  1  0  0  0  0
 31 29  1  0  0  0  0
 32 31  1  0  0  0  0
 34 31  1  0  0  0  0
 35 29  1  0  0  0  0
 35 38  1  0  0  0  0
 36 35  1  0  0  0  0
 37 35  1  0  0  0  0
 39 41  1  0  0  0  0
 40 39  1  0  0  0  0
 42 43  1  0  0  0  0
 42 39  1  0  0  0  0
 44 42  1  0  0  0  0
 45  4  1  0  0  0  0
 46 45  1  0  0  0  0
 47 45  1  0  0  0  0
 47 50  1  0  0  0  0
 47 49  1  0  0  0  0
 48 47  1  0  0  0  0
 51 54  1  0  0  0  0
 51 53  1  0  0  0  0
 51 45  1  0  0  0  0
 52 51  1  0  0  0  0
 55 61  1  0  0  0  0
 56 55  1  0  0  0  0
 57 55  1  0  0  0  0
 57 58  1  0  0  0  0
 59 57  1  0  0  0  0
 60 57  1  0  0  0  0
 61 63  1  0  0  0  0
 61 64  1  0  0  0  0
 61 62  1  0  0  0  0
M  END
$$$$
