CSD_code = ETAFEL | q = 0 | S = 0 | Stoichiometry = C17H25Cl2NOPt | MND = 5
 OpenBabel04212202033D

 47 46  0  0  1  0  0  0  0  0999 V2000
    0.5641    6.5333   16.6623 Pt  0  0  0  0  0  0  0  0  0  0  0  0
    1.2848    4.3284   16.9407 Cl  0  0  0  0  0 15  0  0  0  0  0  0
   -0.3038    8.6466   16.1275 Cl  0  0  0  0  0 15  0  0  0  0  0  0
    3.6602    6.4783   20.7184 O   0  0  0  0  0  0  0  0  0  0  0  0
   -0.1082    5.9452   14.8716 N   0  0  0  0  0  0  0  0  0  0  0  0
    2.6991    7.1731   20.9406 C   0  0  0  0  0  0  0  0  0  0  0  0
    2.6623    8.6297   20.5156 C   0  0  0  0  0  0  0  0  0  0  0  0
    3.4288    8.8433   19.2066 C   0  0  0  0  0  0  0  0  0  0  0  0
    2.5921    8.4755   17.9674 C   0  0  0  0  0  0  0  0  0  0  0  0
    1.9167    7.1554   18.2184 C   0  0  0  0  0  3  0  0  0  0  0  0
    0.6306    7.1063   18.7332 C   0  0  2  0  0  0  0  0  0  0  0  0
    0.1349    6.0618   19.6949 C   0  0  0  0  0  0  0  0  0  0  0  0
    0.1548    6.6590   21.1114 C   0  0  0  0  0  0  0  0  0  0  0  0
    1.5419    6.6411   21.7639 C   0  0  0  0  0  0  0  0  0  0  0  0
    0.6848    6.0731   13.8036 C   0  0  1  0  0  3  0  0  0  0  0  0
    0.2526    5.6677   12.5525 C   0  0  0  0  0  0  0  0  0  0  0  0
   -1.0166    5.1196   12.3951 C   0  0  0  0  0  0  0  0  0  0  0  0
   -1.8108    5.0036   13.5283 C   0  0  0  0  0  0  0  0  0  0  0  0
   -1.3318    5.4251   14.7594 C   0  0  0  0  0  0  0  0  0  0  0  0
    2.0330    6.6717   14.0357 C   0  0  0  0  0  0  0  0  0  0  0  0
   -1.4950    4.6799   11.0509 C   0  0  0  0  0  0  0  0  0  0  0  0
   -2.1350    5.3200   16.0135 C   0  0  0  0  0  0  0  0  0  0  0  0
    3.1647    9.1836   21.3148 H   0  0  0  0  0  0  0  0  0  0  0  0
    1.6411    8.9991   20.4453 H   0  0  0  0  0  0  0  0  0  0  0  0
    3.7413    9.8847   19.1207 H   0  0  0  0  0  0  0  0  0  0  0  0
    4.3228    8.2180   19.2401 H   0  0  0  0  0  0  0  0  0  0  0  0
    1.8433    9.2492   17.7857 H   0  0  0  0  0  0  0  0  0  0  0  0
    3.2559    8.4260   17.1014 H   0  0  0  0  0  0  0  0  0  0  0  0
    2.5937    6.3213   18.4055 H   0  0  0  0  0  0  0  0  0  0  0  0
    0.0845    8.0505   18.8048 H   0  0  0  0  0  0  0  0  0  0  0  0
    0.7559    5.1662   19.6523 H   0  0  0  0  0  0  0  0  0  0  0  0
   -0.8944    5.7837   19.4509 H   0  0  0  0  0  0  0  0  0  0  0  0
   -0.2337    7.6791   21.0750 H   0  0  0  0  0  0  0  0  0  0  0  0
   -0.5135    6.0804   21.7522 H   0  0  0  0  0  0  0  0  0  0  0  0
    1.5000    7.2300   22.6846 H   0  0  0  0  0  0  0  0  0  0  0  0
    1.7970    5.6126   22.0291 H   0  0  0  0  0  0  0  0  0  0  0  0
    0.9054    5.7784   11.7007 H   0  0  0  0  0  0  0  0  0  0  0  0
   -2.8026    4.5847   13.4599 H   0  0  0  0  0  0  0  0  0  0  0  0
    1.9164    7.6940   14.4048 H   0  0  0  0  0  0  0  0  0  0  0  0
    2.6204    6.6890   13.1219 H   0  0  0  0  0  0  0  0  0  0  0  0
    2.5663    6.0911   14.7942 H   0  0  0  0  0  0  0  0  0  0  0  0
   -1.5399    5.5322   10.3741 H   0  0  0  0  0  0  0  0  0  0  0  0
   -2.4822    4.2307   11.1138 H   0  0  0  0  0  0  0  0  0  0  0  0
   -0.8035    3.9551   10.6244 H   0  0  0  0  0  0  0  0  0  0  0  0
   -1.6272    4.6480   16.7101 H   0  0  0  0  0  0  0  0  0  0  0  0
   -3.1326    4.9388   15.8141 H   0  0  0  0  0  0  0  0  0  0  0  0
   -2.2134    6.3055   16.4813 H   0  0  0  0  0  0  0  0  0  0  0  0
  1 11  1  0  0  0  0
  4  6  2  0  0  0  0
  5  1  1  0  0  0  0
  6 14  1  0  0  0  0
  7  6  1  0  0  0  0
  7 23  1  0  0  0  0
  8 26  1  0  0  0  0
  8  7  1  0  0  0  0
  9 10  1  0  0  0  0
  9  8  1  0  0  0  0
 10 29  1  0  0  0  0
 10 11  1  0  0  0  0
 11 30  1  1  0  0  0
 11 12  1  0  0  0  0
 12 13  1  0  0  0  0
 13 34  1  0  0  0  0
 13 14  1  0  0  0  0
 14 36  1  0  0  0  0
 14 35  1  0  0  0  0
 15 20  1  6  0  0  0
 15  5  1  0  0  0  0
 16 15  1  0  0  0  0
 17 16  2  0  0  0  0
 17 18  1  0  0  0  0
 18 19  2  0  0  0  0
 19  5  1  0  0  0  0
 19 22  1  0  0  0  0
 20 39  1  0  0  0  0
 20 41  1  0  0  0  0
 21 43  1  0  0  0  0
 21 17  1  0  0  0  0
 22 47  1  0  0  0  0
 22 45  1  0  0  0  0
 24  7  1  0  0  0  0
 25  8  1  0  0  0  0
 27  9  1  0  0  0  0
 28  9  1  0  0  0  0
 31 12  1  0  0  0  0
 32 12  1  0  0  0  0
 33 13  1  0  0  0  0
 37 16  1  0  0  0  0
 38 18  1  0  0  0  0
 40 20  1  0  0  0  0
 42 21  1  0  0  0  0
 44 21  1  0  0  0  0
 46 22  1  0  0  0  0
M  END
$$$$
