CSD_code = ETESON | q = 0 | S = 0 | Stoichiometry = C13H17ClO3PtS3 | MND = 4
 OpenBabel04212202033D

 38 39  0  0  1  0  0  0  0  0999 V2000
    6.7914    8.7588    6.7089 Pt  0  0  2  0  0  0  0  0  0  0  0  0
    6.6425   11.0142    6.3580 Cl  0  0  0  0  0  0  0  0  0  0  0  0
    6.9697    6.5132    7.1783 S   0  0  0  0  0  0  0  0  0  0  0  0
    6.5443    8.5003    4.7237 O   0  0  0  0  0  0  0  0  0  0  0  0
    6.9279    5.6585    5.7134 C   0  0  1  0  0  3  0  0  0  0  0  0
    7.1214    3.9130    5.7983 S   0  0  0  0  0  0  0  0  0  0  0  0
    6.0372    8.6660   -1.4715 O   0  0  0  0  0  0  0  0  0  0  0  0
    6.7566    6.1319    4.4230 C   0  0  0  0  0  0  0  0  0  0  0  0
    6.7992    5.3756    3.6529 H   0  0  0  0  0  0  0  0  0  0  0  0
    7.0411    9.2723    8.8619 S   0  0  0  0  0  0  0  0  0  0  0  0
    7.2066    8.1686    9.7901 O   0  0  0  0  0  1  0  0  0  0  0  0
    6.5643    7.4535    4.0002 C   0  0  0  0  0  0  0  0  0  0  0  0
    6.3960    7.7036    2.5519 C   0  0  0  0  0  0  0  0  0  0  0  0
    5.8661    6.7647    1.6719 C   0  0  0  0  0  0  0  0  0  0  0  0
    5.5264    5.8063    2.0333 H   0  0  0  0  0  0  0  0  0  0  0  0
    5.7262    7.0497    0.3268 C   0  0  0  0  0  0  0  0  0  0  0  0
    5.3040    6.2991   -0.3227 H   0  0  0  0  0  0  0  0  0  0  0  0
    6.1178    8.2898   -0.1722 C   0  0  0  0  0  0  0  0  0  0  0  0
    6.6309    9.2446    0.7116 C   0  0  0  0  0  0  0  0  0  0  0  0
    6.9191   10.2054    0.3162 H   0  0  0  0  0  0  0  0  0  0  0  0
    6.7590    8.9576    2.0487 C   0  0  0  0  0  0  0  0  0  0  0  0
    7.1498    9.6965    2.7308 H   0  0  0  0  0  0  0  0  0  0  0  0
    5.5489    7.7442   -2.4176 C   0  0  0  0  0  0  0  0  0  0  0  0
    5.5911    8.2575   -3.3769 H   0  0  0  0  0  0  0  0  0  0  0  0
    4.5132    7.4601   -2.2051 H   0  0  0  0  0  0  0  0  0  0  0  0
    6.1725    6.8454   -2.4603 H   0  0  0  0  0  0  0  0  0  0  0  0
    7.3349    3.5881    7.5667 C   0  0  0  0  0  0  0  0  0  0  0  0
    7.4702    2.5153    7.6605 H   0  0  0  0  0  0  0  0  0  0  0  0
    6.4488    3.9104    8.1048 H   0  0  0  0  0  0  0  0  0  0  0  0
    8.2104    4.1178    7.9297 H   0  0  0  0  0  0  0  0  0  0  0  0
    5.6848   10.3070    9.4826 C   0  0  0  0  0  0  0  0  0  0  0  0
    5.9017   10.5775   10.5095 H   0  0  0  0  0  0  0  0  0  0  0  0
    4.7725    9.7215    9.4362 H   0  0  0  0  0  0  0  0  0  0  0  0
    5.6141   11.1757    8.8381 H   0  0  0  0  0  0  0  0  0  0  0  0
    8.4219   10.4206    9.1293 C   0  0  0  0  0  0  0  0  0  0  0  0
    8.4482   10.6881   10.1793 H   0  0  0  0  0  0  0  0  0  0  0  0
    8.2579   11.2825    8.4925 H   0  0  0  0  0  0  0  0  0  0  0  0
    9.3378    9.9090    8.8518 H   0  0  0  0  0  0  0  0  0  0  0  0
  1  2  1  6  0  0  0
  1  3  1  0  0  0  0
  1 10  1  0  0  0  0
  4  1  1  0  0  0  0
  5  6  1  1  0  0  0
  5  3  1  0  0  0  0
  6 27  1  0  0  0  0
  7 18  1  0  0  0  0
  8  5  1  0  0  0  0
  9  8  1  0  0  0  0
 10 35  1  0  0  0  0
 10 31  1  0  0  0  0
 10 11  1  0  0  0  0
 12  8  2  0  0  0  0
 12  4  1  0  0  0  0
 13 12  1  0  0  0  0
 14 15  1  0  0  0  0
 14 13  2  0  0  0  0
 16 14  1  0  0  0  0
 17 16  1  0  0  0  0
 18 16  2  0  0  0  0
 18 19  1  0  0  0  0
 19 21  2  0  0  0  0
 20 19  1  0  0  0  0
 21 13  1  0  0  0  0
 21 22  1  0  0  0  0
 23 25  1  0  0  0  0
 23  7  1  0  0  0  0
 24 23  1  0  0  0  0
 26 23  1  0  0  0  0
 27 28  1  0  0  0  0
 27 30  1  0  0  0  0
 27 29  1  0  0  0  0
 31 32  1  0  0  0  0
 33 31  1  0  0  0  0
 34 31  1  0  0  0  0
 35 36  1  0  0  0  0
 37 35  1  0  0  0  0
 38 35  1  0  0  0  0
M  END
$$$$
