CSD_code = ETESED | q = 0 | S = 0 | Stoichiometry = C13H17ClO3PtS3 | MND = 4
 OpenBabel04212202033D

 38 39  0  0  1  0  0  0  0  0999 V2000
    1.1178    4.2408    4.3907 Pt  0  0  2  0  0  0  0  0  0  0  0  0
   -1.0041    5.0513    4.0872 Cl  0  0  0  0  0  0  0  0  0  0  0  0
    3.2145    3.3316    4.6839 S   0  0  0  0  0  0  0  0  0  0  0  0
    5.9636    3.9369    4.9179 S   0  0  0  0  0  0  0  0  0  0  0  0
    0.1981    2.2220    4.1835 S   0  0  0  0  0  0  0  0  0  0  0  0
    1.7500    6.1493    4.5657 O   0  0  0  0  0  0  0  0  0  0  0  0
    4.6941    8.2475    6.2503 O   0  0  0  0  0  0  0  0  0  0  0  0
    1.0728    1.0702    4.2747 O   0  0  0  0  0  1  0  0  0  0  0  0
    4.3441    4.6007    4.7710 C   0  0  1  0  0  3  0  0  0  0  0  0
    4.1378    5.9654    4.7347 C   0  0  0  0  0  0  0  0  0  0  0  0
    5.0072    6.5988    4.7574 H   0  0  0  0  0  0  0  0  0  0  0  0
    2.9143    6.6434    4.6682 C   0  0  0  0  0  0  0  0  0  0  0  0
    2.9448    8.1291    4.6528 C   0  0  0  0  0  0  0  0  0  0  0  0
    2.0042    8.7715    3.8514 C   0  0  0  0  0  0  0  0  0  0  0  0
    1.3162    8.1586    3.2896 H   0  0  0  0  0  0  0  0  0  0  0  0
    1.9488   10.1485    3.7694 C   0  0  0  0  0  0  0  0  0  0  0  0
    1.2187   10.6260    3.1352 H   0  0  0  0  0  0  0  0  0  0  0  0
    2.8361   10.9054    4.5128 C   0  0  0  0  0  0  0  0  0  0  0  0
    2.8099   11.9836    4.4616 H   0  0  0  0  0  0  0  0  0  0  0  0
    3.7600   10.2910    5.3401 C   0  0  0  0  0  0  0  0  0  0  0  0
    4.4292   10.9063    5.9202 H   0  0  0  0  0  0  0  0  0  0  0  0
    3.8284    8.9042    5.4273 C   0  0  0  0  0  0  0  0  0  0  0  0
    5.4545    8.9932    7.1723 C   0  0  0  0  0  0  0  0  0  0  0  0
    5.9739    8.2579    7.7856 H   0  0  0  0  0  0  0  0  0  0  0  0
    4.8182    9.6099    7.8132 H   0  0  0  0  0  0  0  0  0  0  0  0
    6.1920    9.6267    6.6689 H   0  0  0  0  0  0  0  0  0  0  0  0
    7.0522    5.3563    5.2587 C   0  0  0  0  0  0  0  0  0  0  0  0
    6.6675    5.9203    6.1019 H   0  0  0  0  0  0  0  0  0  0  0  0
    7.1503    5.9806    4.3758 H   0  0  0  0  0  0  0  0  0  0  0  0
    8.0148    4.9211    5.5086 H   0  0  0  0  0  0  0  0  0  0  0  0
   -0.7498    2.0649    2.6417 C   0  0  0  0  0  0  0  0  0  0  0  0
   -1.4669    2.8774    2.6128 H   0  0  0  0  0  0  0  0  0  0  0  0
   -0.0513    2.1418    1.8151 H   0  0  0  0  0  0  0  0  0  0  0  0
   -1.2320    1.0944    2.6323 H   0  0  0  0  0  0  0  0  0  0  0  0
   -1.1516    1.9766    5.3745 C   0  0  0  0  0  0  0  0  0  0  0  0
   -1.8551    2.7914    5.2471 H   0  0  0  0  0  0  0  0  0  0  0  0
   -1.6066    1.0116    5.1841 H   0  0  0  0  0  0  0  0  0  0  0  0
   -0.7208    1.9953    6.3702 H   0  0  0  0  0  0  0  0  0  0  0  0
  1  2  1  6  0  0  0
  1  6  1  0  0  0  0
  1  3  1  0  0  0  0
  3  9  1  0  0  0  0
  4 27  1  0  0  0  0
  5  8  1  0  0  0  0
  5  1  1  0  0  0  0
  5 35  1  0  0  0  0
  6 12  1  0  0  0  0
  7 23  1  0  0  0  0
  9  4  1  6  0  0  0
 10 11  1  0  0  0  0
 10  9  1  0  0  0  0
 12 10  2  0  0  0  0
 13 12  1  0  0  0  0
 13 22  1  0  0  0  0
 14 13  2  0  0  0  0
 15 14  1  0  0  0  0
 16 14  1  0  0  0  0
 16 18  2  0  0  0  0
 17 16  1  0  0  0  0
 18 20  1  0  0  0  0
 19 18  1  0  0  0  0
 20 22  2  0  0  0  0
 20 21  1  0  0  0  0
 22  7  1  0  0  0  0
 23 24  1  0  0  0  0
 23 25  1  0  0  0  0
 26 23  1  0  0  0  0
 27 30  1  0  0  0  0
 27 28  1  0  0  0  0
 29 27  1  0  0  0  0
 31  5  1  0  0  0  0
 32 31  1  0  0  0  0
 33 31  1  0  0  0  0
 34 31  1  0  0  0  0
 35 38  1  0  0  0  0
 36 35  1  0  0  0  0
 37 35  1  0  0  0  0
M  END
$$$$
