CSD_code = ETESUR | q = 0 | S = 0 | Stoichiometry = C10H14ClNOPd | MND = 5
 OpenBabel04212202033D

 28 27  0  0  1  0  0  0  0  0999 V2000
    1.7863    7.0146    4.4328 Pd  0  0  0  0  0  0  0  0  0  0  0  0
    0.9244    6.7655    6.5188 Cl  0  0  0  0  0 15  0  0  0  0  0  0
    1.0327    8.9327    4.5254 N   0  0  0  0  0  0  0  0  0  0  0  0
    1.5943    9.8020    5.3652 C   0  0  0  0  0  3  0  0  0  0  0  0
    2.6340    9.6169    5.6265 H   0  0  0  0  0  0  0  0  0  0  0  0
    0.9024   10.8790    5.8912 C   0  0  0  0  0  0  0  0  0  0  0  0
    1.3931   11.5563    6.5719 H   0  0  0  0  0  0  0  0  0  0  0  0
   -0.4267   11.0570    5.5399 C   0  0  0  0  0  0  0  0  0  0  0  0
   -0.9976   11.8809    5.9404 H   0  0  0  0  0  0  0  0  0  0  0  0
   -1.0101   10.1488    4.6697 C   0  0  0  0  0  0  0  0  0  0  0  0
   -2.0437   10.2448    4.3772 H   0  0  0  0  0  0  0  0  0  0  0  0
   -0.2457    9.1012    4.1864 C   0  0  0  0  0  0  0  0  0  0  0  0
   -0.6667    8.3629    3.5056 H   0  0  0  0  0  0  0  0  0  0  0  0
    2.5186    6.7831    2.4434 C   0  0  0  0  0  3  0  0  0  0  0  0
    1.6207    6.4170    1.9401 H   0  0  0  0  0  0  0  0  0  0  0  0
    3.0826    7.5244    1.8888 H   0  0  0  0  0  0  0  0  0  0  0  0
    3.1954    5.9374    3.3310 C   0  0  0  0  0  3  0  0  0  0  0  0
    4.2473    6.1079    3.5603 H   0  0  0  0  0  0  0  0  0  0  0  0
    2.4316    5.0645    4.1480 C   0  0  1  0  0  0  0  0  0  0  0  0
    1.5752    4.5460    3.6962 H   0  0  0  0  0  0  0  0  0  0  0  0
    3.1118    4.2737    5.2378 C   0  0  0  0  0  0  0  0  0  0  0  0
    3.9093    4.8715    5.7147 H   0  0  0  0  0  0  0  0  0  0  0  0
    2.3819    3.9958    6.0139 H   0  0  0  0  0  0  0  0  0  0  0  0
    3.6662    3.1028    4.6565 O   0  0  0  0  0  0  0  0  0  0  0  0
    4.2513    2.2503    5.6039 C   0  0  0  0  0  0  0  0  0  0  0  0
    5.0769    2.7459    6.1310 H   0  0  0  0  0  0  0  0  0  0  0  0
    4.6343    1.3919    5.0555 H   0  0  0  0  0  0  0  0  0  0  0  0
    3.5159    1.9137    6.3454 H   0  0  0  0  0  0  0  0  0  0  0  0
  1  3  1  0  0  0  0
  3  4  1  0  0  0  0
  4  5  1  0  0  0  0
  4  6  1  0  0  0  0
  6  7  1  0  0  0  0
  8  6  2  0  0  0  0
  8  9  1  0  0  0  0
 10  8  1  0  0  0  0
 11 10  1  0  0  0  0
 12  3  1  0  0  0  0
 12 10  2  0  0  0  0
 13 12  1  0  0  0  0
 14 17  1  0  0  0  0
 15 14  1  0  0  0  0
 16 14  1  0  0  0  0
 17 18  1  0  0  0  0
 17 19  1  0  0  0  0
 19 20  1  6  0  0  0
 19  1  1  0  0  0  0
 19 21  1  0  0  0  0
 21 22  1  0  0  0  0
 21 23  1  0  0  0  0
 24 21  1  0  0  0  0
 24 25  1  0  0  0  0
 25 26  1  0  0  0  0
 25 28  1  0  0  0  0
 27 25  1  0  0  0  0
M  END
$$$$
