CSD_code = ETESIH | q = 0 | S = 0 | Stoichiometry = C13H17ClO3PtS3 | MND = 4
 OpenBabel04212202033D

 38 39  0  0  1  0  0  0  0  0999 V2000
   10.2392   24.2173    3.9588 Pt  0  0  1  0  0  0  0  0  0  0  0  0
   11.2462   22.1666    4.0282 Cl  0  0  0  0  0  0  0  0  0  0  0  0
    9.1112   26.2220    3.8742 S   0  0  0  0  0  0  0  0  0  0  0  0
    9.6316   29.1207    3.7798 S   0  0  0  0  0  0  0  0  0  0  0  0
    8.3272   23.0828    3.8221 S   0  0  0  0  0  0  0  0  0  0  0  0
   12.0699   25.0562    4.0953 O   0  0  0  0  0  0  0  0  0  0  0  0
   16.8328   24.6416    3.1091 O   0  0  0  0  0  0  0  0  0  0  0  0
   10.2482   27.4794    3.8911 C   0  0  1  0  0  3  0  0  0  0  0  0
    7.1040   23.8592    3.7319 O   0  0  0  0  0  1  0  0  0  0  0  0
   11.6302   27.4113    3.9840 C   0  0  0  0  0  0  0  0  0  0  0  0
   12.1390   28.3638    3.9480 H   0  0  0  0  0  0  0  0  0  0  0  0
   12.4360   26.2730    4.0903 C   0  0  0  0  0  0  0  0  0  0  0  0
   13.9045   26.4779    4.1827 C   0  0  0  0  0  0  0  0  0  0  0  0
   14.4659   27.5819    4.8252 C   0  0  0  0  0  0  0  0  0  0  0  0
   13.8386   28.3223    5.2950 H   0  0  0  0  0  0  0  0  0  0  0  0
   15.8390   27.7012    4.8925 C   0  0  0  0  0  0  0  0  0  0  0  0
   16.2778   28.5504    5.3952 H   0  0  0  0  0  0  0  0  0  0  0  0
   16.6723   26.7484    4.3273 C   0  0  0  0  0  0  0  0  0  0  0  0
   17.7408   26.8787    4.3943 H   0  0  0  0  0  0  0  0  0  0  0  0
   16.1209   25.6387    3.6938 C   0  0  0  0  0  0  0  0  0  0  0  0
   14.7340   25.5092    3.6359 C   0  0  0  0  0  0  0  0  0  0  0  0
   14.3100   24.6428    3.1539 H   0  0  0  0  0  0  0  0  0  0  0  0
   18.2381   24.6977    3.1536 C   0  0  0  0  0  0  0  0  0  0  0  0
   18.5841   23.8032    2.6383 H   0  0  0  0  0  0  0  0  0  0  0  0
   18.6088   24.6869    4.1836 H   0  0  0  0  0  0  0  0  0  0  0  0
   18.6225   25.5833    2.6369 H   0  0  0  0  0  0  0  0  0  0  0  0
    7.8388   28.8979    3.6598 C   0  0  0  0  0  0  0  0  0  0  0  0
    7.4165   29.8945    3.5811 H   0  0  0  0  0  0  0  0  0  0  0  0
    7.4745   28.3974    4.5516 H   0  0  0  0  0  0  0  0  0  0  0  0
    7.6047   28.3119    2.7764 H   0  0  0  0  0  0  0  0  0  0  0  0
    8.1289   21.9103    5.1938 C   0  0  0  0  0  0  0  0  0  0  0  0
    7.2221   21.3400    5.0300 H   0  0  0  0  0  0  0  0  0  0  0  0
    8.0483   22.4833    6.1116 H   0  0  0  0  0  0  0  0  0  0  0  0
    9.0098   21.2790    5.2136 H   0  0  0  0  0  0  0  0  0  0  0  0
    8.3307   21.9084    2.4379 C   0  0  0  0  0  0  0  0  0  0  0  0
    7.4042   21.3467    2.4614 H   0  0  0  0  0  0  0  0  0  0  0  0
    9.1989   21.2698    2.5540 H   0  0  0  0  0  0  0  0  0  0  0  0
    8.3973   22.4796    1.5177 H   0  0  0  0  0  0  0  0  0  0  0  0
  1  2  1  6  0  0  0
  1  6  1  0  0  0  0
  3  8  1  0  0  0  0
  3  1  1  0  0  0  0
  5  1  1  0  0  0  0
  5 31  1  0  0  0  0
  7 23  1  0  0  0  0
  7 20  1  0  0  0  0
  8  4  1  1  0  0  0
  8 10  1  0  0  0  0
  9  5  1  0  0  0  0
 10 12  2  0  0  0  0
 11 10  1  0  0  0  0
 12  6  1  0  0  0  0
 12 13  1  0  0  0  0
 13 14  1  0  0  0  0
 14 16  2  0  0  0  0
 14 15  1  0  0  0  0
 16 17  1  0  0  0  0
 18 19  1  0  0  0  0
 18 16  1  0  0  0  0
 20 18  2  0  0  0  0
 21 20  1  0  0  0  0
 21 13  2  0  0  0  0
 22 21  1  0  0  0  0
 23 25  1  0  0  0  0
 24 23  1  0  0  0  0
 26 23  1  0  0  0  0
 27  4  1  0  0  0  0
 27 29  1  0  0  0  0
 28 27  1  0  0  0  0
 30 27  1  0  0  0  0
 31 34  1  0  0  0  0
 31 33  1  0  0  0  0
 32 31  1  0  0  0  0
 35 36  1  0  0  0  0
 35 37  1  0  0  0  0
 35  5  1  0  0  0  0
 38 35  1  0  0  0  0
M  END
$$$$
