CSD_code = ETINUS | q = 0 | S = 0 | Stoichiometry = C17H10BrF3N2Ni | MND = 4
 OpenBabel04212202033D

 34 38  0  0  0  0  0  0  0  0999 V2000
    5.0110    8.0301    4.0314 Br  0  0  0  0  0  0  0  0  0  0  0  0
    4.1413    6.6173    5.4074 Ni  0  0  1  0  0  0  0  0  0  0  0  0
    5.7141    4.4918   10.0781 F   0  0  0  0  0  0  0  0  0  0  0  0
    3.7681    4.5441   11.0101 F   0  0  0  0  0  0  0  0  0  0  0  0
    4.5894    2.6870   10.3299 F   0  0  0  0  0  0  0  0  0  0  0  0
    3.5409    5.3080    6.6099 N   0  0  0  0  0  0  0  0  0  0  0  0
    5.0258    7.3035    7.1285 N   0  0  0  0  0  0  0  0  0  0  0  0
    2.8565    4.2774    6.0875 C   0  0  0  0  0  0  0  0  0  0  0  0
    3.0718    5.6918    4.1374 C   0  0  0  0  0  0  0  0  0  0  0  0
    5.9007    8.9917    8.5620 C   0  0  0  0  0  0  0  0  0  0  0  0
    6.4211    9.9310    8.6534 H   0  0  0  0  0  0  0  0  0  0  0  0
    3.9972    5.3120    7.8657 C   0  0  0  0  0  0  0  0  0  0  0  0
    3.8359    4.1678    8.6593 C   0  0  0  0  0  0  0  0  0  0  0  0
    2.5177    4.5068    4.6974 C   0  0  0  0  0  0  0  0  0  0  0  0
    1.7088    3.6603    3.9412 C   0  0  0  0  0  0  0  0  0  0  0  0
    1.2985    2.7673    4.3895 H   0  0  0  0  0  0  0  0  0  0  0  0
    1.9499    5.1241    2.0698 C   0  0  0  0  0  0  0  0  0  0  0  0
    1.7295    5.3736    1.0423 H   0  0  0  0  0  0  0  0  0  0  0  0
    4.4739    3.9816   10.0055 C   0  0  0  0  0  0  0  0  0  0  0  0
    5.4422    8.3080    9.6740 C   0  0  0  0  0  0  0  0  0  0  0  0
    5.5721    8.7090   10.6674 H   0  0  0  0  0  0  0  0  0  0  0  0
    5.6474    8.4608    7.3062 C   0  0  0  0  0  0  0  0  0  0  0  0
    5.9525    8.9879    6.4107 H   0  0  0  0  0  0  0  0  0  0  0  0
    3.0950    3.1001    8.1473 C   0  0  0  0  0  0  0  0  0  0  0  0
    2.9472    2.2193    8.7530 H   0  0  0  0  0  0  0  0  0  0  0  0
    1.4255    3.9694    2.6273 C   0  0  0  0  0  0  0  0  0  0  0  0
    0.7973    3.3166    2.0399 H   0  0  0  0  0  0  0  0  0  0  0  0
    2.7626    5.9737    2.8087 C   0  0  0  0  0  3  0  0  0  0  0  0
    3.1497    6.8575    2.3235 H   0  0  0  0  0  0  0  0  0  0  0  0
    4.6500    6.5873    8.2102 C   0  0  0  0  0  0  0  0  0  0  0  0
    2.5770    3.1576    6.8709 C   0  0  0  0  0  0  0  0  0  0  0  0
    2.0044    2.3358    6.4754 H   0  0  0  0  0  0  0  0  0  0  0  0
    4.8045    7.0907    9.4970 C   0  0  0  0  0  0  0  0  0  0  0  0
    4.4130    6.5711   10.3526 H   0  0  0  0  0  0  0  0  0  0  0  0
  2  1  1  6  0  0  0
  2  6  1  0  0  0  0
  2  7  1  0  0  0  0
  6 12  1  0  0  0  0
  7 22  1  0  0  0  0
  7 30  1  0  0  0  0
  8  6  1  0  0  0  0
  8 31  2  0  0  0  0
  9 14  1  0  0  0  0
  9  2  2  0  0  0  0
 10 11  1  0  0  0  0
 10 20  1  0  0  0  0
 12 30  2  0  0  0  0
 12 13  1  0  0  0  0
 13 19  1  0  0  0  0
 14  8  1  0  0  0  0
 15 16  1  0  0  0  0
 15 14  2  0  0  0  0
 17 26  2  0  0  0  0
 17 28  1  0  0  0  0
 18 17  1  0  0  0  0
 19  3  1  0  0  0  0
 19  5  1  0  0  0  0
 19  4  1  0  0  0  0
 20 21  1  0  0  0  0
 22 10  2  0  0  0  0
 23 22  1  0  0  0  0
 24 13  2  0  0  0  0
 24 25  1  0  0  0  0
 26 15  1  0  0  0  0
 27 26  1  0  0  0  0
 28  9  1  0  0  0  0
 29 28  1  0  0  0  0
 30 33  1  0  0  0  0
 31 24  1  0  0  0  0
 32 31  1  0  0  0  0
 33 20  2  0  0  0  0
 33 34  1  0  0  0  0
M  END
$$$$
