CSD_code = ETOGAW | q = 1 | S = 0 | Stoichiometry = C24H29BrFeN5(1+) | MND = 6
 OpenBabel04212202033D

 60 67  0  0  1  0  0  0  0  0999 V2000
    3.6554    9.5313    2.4710 C   0  0  0  0  0  3  0  0  0  0  0  0
    4.3210    9.7072    3.2997 H   0  0  0  0  0  0  0  0  0  0  0  0
    3.9513    8.5494    1.5474 C   0  0  0  0  0  0  0  0  0  0  0  0
    4.8441    7.9575    1.6582 H   0  0  0  0  0  0  0  0  0  0  0  0
    3.0958    8.3801    0.4726 C   0  0  0  0  0  0  0  0  0  0  0  0
    3.3048    7.6588   -0.3009 H   0  0  0  0  0  0  0  0  0  0  0  0
    1.9491    9.1545    0.4199 C   0  0  0  0  0  0  0  0  0  0  0  0
    1.2598    9.0234   -0.3952 H   0  0  0  0  0  0  0  0  0  0  0  0
    1.7037   10.0969    1.4103 C   0  0  0  0  0  0  0  0  0  0  0  0
    0.4128   10.8946    1.4664 C   0  0  1  0  0  0  0  0  0  0  0  0
   -0.6400   10.3605    0.4896 C   0  0  0  0  0  0  0  0  0  0  0  0
   -0.3312   10.5168   -0.5400 H   0  0  0  0  0  0  0  0  0  0  0  0
   -1.5817   10.8859    0.6343 H   0  0  0  0  0  0  0  0  0  0  0  0
   -0.8188    9.3008    0.6519 H   0  0  0  0  0  0  0  0  0  0  0  0
    4.5865   11.1925    5.4129 C   0  0  0  0  0  3  0  0  0  0  0  0
    5.1970   11.7162    4.6960 H   0  0  0  0  0  0  0  0  0  0  0  0
    5.1508   10.7595    6.5966 C   0  0  0  0  0  0  0  0  0  0  0  0
    6.1940   10.9451    6.7902 H   0  0  0  0  0  0  0  0  0  0  0  0
    4.3505   10.0925    7.5092 C   0  0  0  0  0  0  0  0  0  0  0  0
    4.7425    9.7376    8.4488 H   0  0  0  0  0  0  0  0  0  0  0  0
    3.0224    9.8948    7.1738 C   0  0  0  0  0  0  0  0  0  0  0  0
    2.3620    9.3781    7.8524 H   0  0  0  0  0  0  0  0  0  0  0  0
    2.5277   10.3544    5.9584 C   0  0  0  0  0  0  0  0  0  0  0  0
    1.0864   10.0790    5.6299 C   0  0  0  0  0  0  0  0  0  0  0  0
    0.6149    9.6253    6.5012 H   0  0  0  0  0  0  0  0  0  0  0  0
    1.0649    9.3430    4.8240 H   0  0  0  0  0  0  0  0  0  0  0  0
    0.2747   11.3113    5.2148 C   0  0  0  0  0  0  0  0  0  0  0  0
   -0.7944   11.1127    5.3709 H   0  0  0  0  0  0  0  0  0  0  0  0
    0.5571   12.1650    5.8335 H   0  0  0  0  0  0  0  0  0  0  0  0
   -0.1376   10.7471    2.8985 C   0  0  0  0  0  0  0  0  0  0  0  0
   -1.2119   10.9818    2.9082 H   0  0  0  0  0  0  0  0  0  0  0  0
   -0.0241    9.7071    3.2046 H   0  0  0  0  0  0  0  0  0  0  0  0
    2.8534   13.8023    5.8958 C   0  0  0  0  0  3  0  0  0  0  0  0
    2.7299   12.8415    6.3672 H   0  0  0  0  0  0  0  0  0  0  0  0
    3.1064   14.9073    6.6823 C   0  0  0  0  0  0  0  0  0  0  0  0
    3.1925   14.7991    7.7509 H   0  0  0  0  0  0  0  0  0  0  0  0
    3.2467   16.1393    6.0624 C   0  0  0  0  0  0  0  0  0  0  0  0
    3.4585   17.0305    6.6313 H   0  0  0  0  0  0  0  0  0  0  0  0
    3.0912   16.1902    4.6918 C   0  0  0  0  0  0  0  0  0  0  0  0
    3.1755   17.1289    4.1682 H   0  0  0  0  0  0  0  0  0  0  0  0
    2.8310   15.0283    3.9661 C   0  0  0  0  0  0  0  0  0  0  0  0
    2.6866   15.1361    2.4826 C   0  0  0  0  0  0  0  0  0  0  0  0
    3.5398   14.6302    2.0268 H   0  0  0  0  0  0  0  0  0  0  0  0
    2.7319   16.1861    2.1949 H   0  0  0  0  0  0  0  0  0  0  0  0
    1.4068   14.5454    1.8894 C   0  0  0  0  0  0  0  0  0  0  0  0
    0.5376   15.1381    2.2018 H   0  0  0  0  0  0  0  0  0  0  0  0
    1.4912   14.6275    0.8041 H   0  0  0  0  0  0  0  0  0  0  0  0
    0.6814   12.3734    1.1177 C   0  0  0  0  0  0  0  0  0  0  0  0
    1.4146   12.4140    0.3090 H   0  0  0  0  0  0  0  0  0  0  0  0
   -0.2558   12.8265    0.7613 H   0  0  0  0  0  0  0  0  0  0  0  0
    0.2762   12.9849    3.3724 C   0  0  0  0  0  0  0  0  0  0  0  0
    0.5083   13.7063    4.1548 H   0  0  0  0  0  0  0  0  0  0  0  0
   -0.7795   13.1249    3.0635 H   0  0  0  0  0  0  0  0  0  0  0  0
    2.5752   10.3122    2.4014 N   0  0  0  0  0  0  0  0  0  0  0  0
    3.3042   11.0053    5.0784 N   0  0  0  0  0  0  0  0  0  0  0  0
    0.5510   11.6346    3.8285 N   0  0  1  0  0  4  0  0  0  0  0  0
    2.7388   13.8327    4.5667 N   0  0  0  0  0  0  0  0  0  0  0  0
    1.1951   13.1407    2.2472 N   0  0  2  0  0  4  0  0  0  0  0  0
    2.5801   11.9614    3.4811 Fe  0  0  0  0  0  0  0  0  0  0  0  0
    4.5953   12.4464    2.3611 Br  0  0  0  0  0  0  0  0  0  0  0  0
  1  2  1  0  0  0  0
  3  4  1  0  0  0  0
  3  1  1  0  0  0  0
  5  3  2  0  0  0  0
  6  5  1  0  0  0  0
  7  5  1  0  0  0  0
  7  9  2  0  0  0  0
  8  7  1  0  0  0  0
  9 10  1  0  0  0  0
  9 54  1  0  0  0  0
 10 11  1  6  0  0  0
 10 30  1  0  0  0  0
 11 13  1  0  0  0  0
 11 14  1  0  0  0  0
 12 11  1  0  0  0  0
 15 17  1  0  0  0  0
 16 15  1  0  0  0  0
 17 18  1  0  0  0  0
 17 19  2  0  0  0  0
 19 20  1  0  0  0  0
 21 19  1  0  0  0  0
 21 22  1  0  0  0  0
 23 21  2  0  0  0  0
 24 23  1  0  0  0  0
 24 25  1  0  0  0  0
 26 24  1  0  0  0  0
 27 28  1  0  0  0  0
 27 24  1  0  0  0  0
 27 29  1  0  0  0  0
 30 31  1  0  0  0  0
 30 32  1  0  0  0  0
 33 34  1  0  0  0  0
 33 35  1  0  0  0  0
 35 36  1  0  0  0  0
 37 38  1  0  0  0  0
 37 35  2  0  0  0  0
 39 37  1  0  0  0  0
 40 39  1  0  0  0  0
 41 57  1  0  0  0  0
 41 39  2  0  0  0  0
 42 41  1  0  0  0  0
 43 42  1  0  0  0  0
 44 42  1  0  0  0  0
 45 46  1  0  0  0  0
 45 58  1  0  0  0  0
 45 42  1  0  0  0  0
 47 45  1  0  0  0  0
 48 10  1  0  0  0  0
 49 48  1  0  0  0  0
 50 48  1  0  0  0  0
 51 56  1  0  0  0  0
 51 52  1  0  0  0  0
 53 51  1  0  0  0  0
 54  1  1  0  0  0  0
 54 59  1  0  0  0  0
 55 15  1  0  0  0  0
 55 23  1  0  0  0  0
 56 30  1  6  0  0  0
 56 27  1  0  0  0  0
 57 33  1  0  0  0  0
 58 48  1  6  0  0  0
 58 51  1  0  0  0  0
 58 59  1  0  0  0  0
 59 56  1  0  0  0  0
 59 57  1  0  0  0  0
 59 55  1  0  0  0  0
 60 59  1  0  0  0  0
M  END
$$$$
