CSD_code = ETOGEA | q = 1 | S = 0 | Stoichiometry = C24H29ClFeN5(1+) | MND = 6
 OpenBabel04212202033D

 60 67  0  0  1  0  0  0  0  0999 V2000
    5.2060    2.9617    2.2076 C   0  0  0  0  0  3  0  0  0  0  0  0
    5.7228    3.1003    3.1420 H   0  0  0  0  0  0  0  0  0  0  0  0
    5.7920    2.2322    1.1922 C   0  0  0  0  0  0  0  0  0  0  0  0
    6.7690    1.8015    1.3335 H   0  0  0  0  0  0  0  0  0  0  0  0
    5.1070    2.0987   -0.0028 C   0  0  0  0  0  0  0  0  0  0  0  0
    5.5377    1.5719   -0.8391 H   0  0  0  0  0  0  0  0  0  0  0  0
    3.8377    2.6458   -0.0952 C   0  0  0  0  0  0  0  0  0  0  0  0
    3.2775    2.5297   -1.0061 H   0  0  0  0  0  0  0  0  0  0  0  0
    3.3049    3.3424    0.9812 C   0  0  0  0  0  0  0  0  0  0  0  0
    1.8870    3.8883    0.9685 C   0  0  1  0  0  0  0  0  0  0  0  0
    1.0502    3.2900   -0.1678 C   0  0  0  0  0  0  0  0  0  0  0  0
    1.4108    3.6245   -1.1362 H   0  0  0  0  0  0  0  0  0  0  0  0
    0.0142    3.6092   -0.0757 H   0  0  0  0  0  0  0  0  0  0  0  0
    1.0725    2.2039   -0.1355 H   0  0  0  0  0  0  0  0  0  0  0  0
    1.2269    3.5016    2.3068 C   0  0  0  0  0  0  0  0  0  0  0  0
    0.1333    3.5585    2.2053 H   0  0  0  0  0  0  0  0  0  0  0  0
    1.4868    2.4669    2.5289 H   0  0  0  0  0  0  0  0  0  0  0  0
    1.9208    5.4200    0.7885 C   0  0  0  0  0  0  0  0  0  0  0  0
    2.6943    5.6686    0.0590 H   0  0  0  0  0  0  0  0  0  0  0  0
    0.9480    5.7543    0.3958 H   0  0  0  0  0  0  0  0  0  0  0  0
    1.2208    5.7159    3.0297 C   0  0  0  0  0  0  0  0  0  0  0  0
    1.2664    6.3758    3.8953 H   0  0  0  0  0  0  0  0  0  0  0  0
    0.1917    5.7362    2.6169 H   0  0  0  0  0  0  0  0  0  0  0  0
    1.2384    3.8770    4.6958 C   0  0  0  0  0  0  0  0  0  0  0  0
    0.1966    3.5291    4.6767 H   0  0  0  0  0  0  0  0  0  0  0  0
    1.3127    4.6925    5.4169 H   0  0  0  0  0  0  0  0  0  0  0  0
    2.1484    2.7228    5.1278 C   0  0  0  0  0  0  0  0  0  0  0  0
    1.6402    2.1489    5.9026 H   0  0  0  0  0  0  0  0  0  0  0  0
    2.3145    2.0549    4.2808 H   0  0  0  0  0  0  0  0  0  0  0  0
    3.4954    3.1410    5.6507 C   0  0  1  0  0  3  0  0  0  0  0  0
    3.9157    2.6283    6.8730 C   0  0  0  0  0  0  0  0  0  0  0  0
    3.2639    1.9684    7.4238 H   0  0  0  0  0  0  0  0  0  0  0  0
    5.1621    2.9570    7.3769 C   0  0  0  0  0  0  0  0  0  0  0  0
    5.4969    2.5633    8.3232 H   0  0  0  0  0  0  0  0  0  0  0  0
    5.9580    3.8051    6.6243 C   0  0  0  0  0  0  0  0  0  0  0  0
    6.9401    4.0980    6.9561 H   0  0  0  0  0  0  0  0  0  0  0  0
    5.4692    4.2805    5.4233 C   0  0  0  0  0  0  0  0  0  0  0  0
    6.0650    4.9458    4.8176 H   0  0  0  0  0  0  0  0  0  0  0  0
    2.3248    7.5611    1.8632 C   0  0  0  0  0  0  0  0  0  0  0  0
    1.4177    8.0533    2.2343 H   0  0  0  0  0  0  0  0  0  0  0  0
    2.4160    7.7918    0.8001 H   0  0  0  0  0  0  0  0  0  0  0  0
    3.5614    8.1234    2.5646 C   0  0  0  0  0  0  0  0  0  0  0  0
    4.4401    7.6076    2.1679 H   0  0  0  0  0  0  0  0  0  0  0  0
    3.6444    9.1831    2.3276 H   0  0  0  0  0  0  0  0  0  0  0  0
    3.5676    7.9428    4.0482 C   0  0  2  0  0  3  0  0  0  0  0  0
    3.7114    9.0639    4.8633 C   0  0  0  0  0  0  0  0  0  0  0  0
    3.8242   10.0346    4.4078 H   0  0  0  0  0  0  0  0  0  0  0  0
    3.7176    8.9321    6.2379 C   0  0  0  0  0  0  0  0  0  0  0  0
    3.8419    9.7910    6.8779 H   0  0  0  0  0  0  0  0  0  0  0  0
    3.5414    7.6627    6.7666 C   0  0  0  0  0  0  0  0  0  0  0  0
    3.5097    7.4938    7.8303 H   0  0  0  0  0  0  0  0  0  0  0  0
    3.4084    6.6016    5.8943 C   0  0  0  0  0  0  0  0  0  0  0  0
    3.2554    5.6104    6.2904 H   0  0  0  0  0  0  0  0  0  0  0  0
    5.5744    5.7551    2.7061 Cl  0  0  0  0  0  0  0  0  0  0  0  0
    3.6210    4.9871    3.3432 Fe  0  0  0  0  0  0  0  0  0  0  0  0
    4.0053    3.5368    2.1051 N   0  0  0  0  0  0  0  0  0  0  0  0
    1.6469    4.3766    3.3967 N   0  0  1  0  0  4  0  0  0  0  0  0
    2.2141    6.1115    2.0358 N   0  0  2  0  0  4  0  0  0  0  0  0
    4.2664    3.9672    4.9282 N   0  0  0  0  0  0  0  0  0  0  0  0
    3.4457    6.7118    4.5650 N   0  0  0  0  0  0  0  0  0  0  0  0
  1  2  1  0  0  0  0
  3  4  1  0  0  0  0
  3  1  1  0  0  0  0
  5  3  2  0  0  0  0
  6  5  1  0  0  0  0
  7  5  1  0  0  0  0
  7  9  2  0  0  0  0
  8  7  1  0  0  0  0
  9 56  1  0  0  0  0
 10 11  1  6  0  0  0
 10  9  1  0  0  0  0
 10 15  1  0  0  0  0
 11 14  1  0  0  0  0
 11 13  1  0  0  0  0
 12 11  1  0  0  0  0
 15 17  1  0  0  0  0
 16 15  1  0  0  0  0
 18 10  1  0  0  0  0
 19 18  1  0  0  0  0
 20 18  1  0  0  0  0
 21 57  1  0  0  0  0
 21 22  1  0  0  0  0
 23 21  1  0  0  0  0
 24 27  1  0  0  0  0
 24 26  1  0  0  0  0
 25 24  1  0  0  0  0
 27 30  1  0  0  0  0
 27 28  1  0  0  0  0
 29 27  1  0  0  0  0
 30 31  1  6  0  0  0
 31 33  2  0  0  0  0
 31 32  1  0  0  0  0
 33 34  1  0  0  0  0
 35 36  1  0  0  0  0
 35 33  1  0  0  0  0
 37 35  2  0  0  0  0
 38 37  1  0  0  0  0
 39 58  1  0  0  0  0
 39 40  1  0  0  0  0
 39 42  1  0  0  0  0
 41 39  1  0  0  0  0
 42 45  1  0  0  0  0
 43 42  1  0  0  0  0
 44 42  1  0  0  0  0
 45 60  1  0  0  0  0
 45 46  1  6  0  0  0
 46 48  2  0  0  0  0
 47 46  1  0  0  0  0
 48 50  1  0  0  0  0
 48 49  1  0  0  0  0
 50 51  1  0  0  0  0
 52 53  1  0  0  0  0
 52 50  2  0  0  0  0
 54 55  1  0  0  0  0
 55 57  1  0  0  0  0
 55 60  1  0  0  0  0
 55 59  1  0  0  0  0
 56  1  1  0  0  0  0
 56 55  1  0  0  0  0
 57 15  1  6  0  0  0
 57 24  1  0  0  0  0
 58 18  1  6  0  0  0
 58 21  1  0  0  0  0
 58 55  1  0  0  0  0
 59 37  1  0  0  0  0
 59 30  1  0  0  0  0
 60 52  1  0  0  0  0
M  END
$$$$
