CSD_code = ETOQUB | q = 0 | S = 0 | Stoichiometry = C12H9ClCrN2O3 | MND = 8
 OpenBabel04212202033D

 28 29  0  0  1  0  0  0  0  0999 V2000
    4.8855    5.5375   21.2957 Cr  0  0  0  0  0  0  0  0  0  0  0  0
    5.9255    4.3159   19.7315 Cl  0  0  0  0  0  0  0  0  0  0  0  0
    4.0176    6.5161   20.2761 N   0  0  0  0  0  2  0  0  0  0  0  0
    3.5200    4.6028   21.4446 N   0  0  0  0  0  2  0  0  0  0  0  0
    5.2868    5.7019   23.5135 C   0  0  0  0  0  0  0  0  0  0  0  0
    5.2774    7.0207   22.9927 C   0  0  0  0  0  0  0  0  0  0  0  0
    4.6242    7.8190   23.3135 H   0  0  0  0  0  0  0  0  0  0  0  0
    6.3841    7.1494   22.1193 C   0  0  0  0  0  0  0  0  0  0  0  0
    6.7134    8.0675   21.6540 H   0  0  0  0  0  0  0  0  0  0  0  0
    7.0602    5.9190   22.0873 C   0  0  0  0  0  0  0  0  0  0  0  0
    7.9953    5.7237   21.5830 H   0  0  0  0  0  0  0  0  0  0  0  0
    6.3689    5.0065   22.9132 C   0  0  2  0  0  0  0  0  0  0  0  0
    6.7148    4.0249   23.2052 H   0  0  0  0  0  0  0  0  0  0  0  0
    4.3366    5.0814   24.4623 C   0  0  0  0  0  0  0  0  0  0  0  0
    3.9677    5.8603   25.6633 C   0  0  0  0  0  0  0  0  0  0  0  0
    2.7938    5.5245   26.3383 C   0  0  0  0  0  0  0  0  0  0  0  0
    2.1929    4.7141   25.9539 H   0  0  0  0  0  0  0  0  0  0  0  0
    2.4154    6.2258   27.4661 C   0  0  0  0  0  0  0  0  0  0  0  0
    1.5024    5.9679   27.9812 H   0  0  0  0  0  0  0  0  0  0  0  0
    3.2116    7.2580   27.9382 C   0  0  0  0  0  0  0  0  0  0  0  0
    2.9185    7.8049   28.8220 H   0  0  0  0  0  0  0  0  0  0  0  0
    4.3885    7.5855   27.2827 C   0  0  0  0  0  0  0  0  0  0  0  0
    5.0128    8.3815   27.6605 H   0  0  0  0  0  0  0  0  0  0  0  0
    4.7682    6.8943   26.1474 C   0  0  0  0  0  0  0  0  0  0  0  0
    5.6961    7.1390   25.6512 H   0  0  0  0  0  0  0  0  0  0  0  0
    3.3310    7.2138   19.6495 O   0  0  0  0  0  1  0  0  0  0  0  0
    2.5043    4.0609   21.5315 O   0  0  0  0  0  1  0  0  0  0  0  0
    3.8967    3.9684   24.2361 O   0  0  0  0  0  0  0  0  0  0  0  0
  1  4  1  0  0  0  0
  1 12  1  0  0  0  0
  2  1  1  0  0  0  0
  3  1  1  0  0  0  0
  4 27  1  0  0  0  0
  5 14  1  0  0  0  0
  6  7  1  0  0  0  0
  6  5  2  0  0  0  0
  8  6  1  0  0  0  0
  9  8  1  0  0  0  0
 10  8  2  0  0  0  0
 10 12  1  0  0  0  0
 11 10  1  0  0  0  0
 12 13  1  1  0  0  0
 12  5  1  0  0  0  0
 14 15  1  0  0  0  0
 15 24  2  0  0  0  0
 15 16  1  0  0  0  0
 16 18  2  0  0  0  0
 17 16  1  0  0  0  0
 18 20  1  0  0  0  0
 18 19  1  0  0  0  0
 20 21  1  0  0  0  0
 22 23  1  0  0  0  0
 22 20  2  0  0  0  0
 24 22  1  0  0  0  0
 25 24  1  0  0  0  0
 26  3  1  0  0  0  0
 28 14  2  0  0  0  0
M  END
$$$$
