CSD_code = ETORAH | q = 0 | S = 0 | Stoichiometry = C28H29Cl2N5O2Ru | MND = 6
 OpenBabel04212202033D

 67 72  0  0  1  0  0  0  0  0999 V2000
    5.6312    7.4421    1.2747 Ru  0  0  0  0  0  0  0  0  0  0  0  0
    4.1952    6.3578    2.8471 Cl  0  0  0  0  0  0  0  0  0  0  0  0
    6.8730    8.5810   -0.4197 Cl  0  0  0  0  0  0  0  0  0  0  0  0
    7.1642    7.0054    2.2356 C   0  0  0  0  0  2  0  0  0  0  0  0
    8.1043    6.7375    2.8259 O   0  0  0  0  0  1  0  0  0  0  0  0
    5.5314    5.8340    0.1038 N   0  0  0  0  0  0  0  0  0  0  0  0
    4.0652    7.8872    0.2951 N   0  0  0  0  0  0  0  0  0  0  0  0
    5.2197    9.1930    2.1285 N   0  0  0  0  0  0  0  0  0  0  0  0
    6.3304    4.7688    0.0404 C   0  0  0  0  0  3  0  0  0  0  0  0
    7.1767    4.7436    0.7149 H   0  0  0  0  0  0  0  0  0  0  0  0
    6.0862    3.7365   -0.8526 C   0  0  0  0  0  0  0  0  0  0  0  0
    6.7331    2.8732   -0.9020 H   0  0  0  0  0  0  0  0  0  0  0  0
    5.0553    3.7516   -1.6863 N   0  0  0  0  0  0  0  0  0  0  0  0
    4.2609    4.8020   -1.6301 C   0  0  0  0  0  0  0  0  0  0  0  0
    3.4249    4.8040   -2.3146 H   0  0  0  0  0  0  0  0  0  0  0  0
    4.4707    5.8602   -0.7457 C   0  0  0  0  0  0  0  0  0  0  0  0
    3.6200    7.0430   -0.6383 C   0  0  1  0  0  3  0  0  0  0  0  0
    2.4768    7.3361   -1.3704 C   0  0  0  0  0  0  0  0  0  0  0  0
    2.1295    6.6647   -2.1381 H   0  0  0  0  0  0  0  0  0  0  0  0
    1.7909    8.5289   -1.1197 C   0  0  0  0  0  0  0  0  0  0  0  0
    2.2876    9.3893   -0.1355 C   0  0  0  0  0  0  0  0  0  0  0  0
    1.7684   10.3051    0.0937 H   0  0  0  0  0  0  0  0  0  0  0  0
    3.4370    9.0352    0.5593 C   0  0  0  0  0  0  0  0  0  0  0  0
    4.1074    9.7850    1.6187 C   0  0  2  0  0  3  0  0  0  0  0  0
    3.6878   11.0200    2.1128 C   0  0  0  0  0  0  0  0  0  0  0  0
    2.8062   11.5072    1.7216 H   0  0  0  0  0  0  0  0  0  0  0  0
    4.3278   11.6596    3.0714 N   0  0  0  0  0  0  0  0  0  0  0  0
    5.4110   11.0724    3.5615 C   0  0  0  0  0  0  0  0  0  0  0  0
    5.9315   11.6002    4.3469 H   0  0  0  0  0  0  0  0  0  0  0  0
    5.8612    9.8458    3.0980 C   0  0  0  0  0  0  0  0  0  0  0  0
    6.7475    9.3782    3.5075 H   0  0  0  0  0  0  0  0  0  0  0  0
    0.5792    8.8653   -1.8686 C   0  0  0  0  0  0  0  0  0  0  0  0
   -0.3376    7.8738   -2.2279 C   0  0  0  0  0  0  0  0  0  0  0  0
   -0.1678    6.8512   -1.9262 H   0  0  0  0  0  0  0  0  0  0  0  0
   -1.4786    8.1896   -2.9260 C   0  0  0  0  0  0  0  0  0  0  0  0
   -2.1952    7.4301   -3.1952 H   0  0  0  0  0  0  0  0  0  0  0  0
   -1.7419    9.5105   -3.3049 C   0  0  0  0  0  0  0  0  0  0  0  0
   -2.8854    9.7080   -3.9951 O   0  0  0  0  0  0  0  0  0  0  0  0
   -0.8301   10.5039   -2.9542 C   0  0  0  0  0  0  0  0  0  0  0  0
   -0.9962   11.5320   -3.2342 H   0  0  0  0  0  0  0  0  0  0  0  0
    0.3080   10.1790   -2.2413 C   0  0  0  0  0  0  0  0  0  0  0  0
    1.0134   10.9608   -2.0010 H   0  0  0  0  0  0  0  0  0  0  0  0
   -3.2323   11.0163   -4.4093 C   0  0  0  0  0  0  0  0  0  0  0  0
   -2.4468   11.4295   -5.0569 H   0  0  0  0  0  0  0  0  0  0  0  0
   -3.3474   11.6713   -3.5346 H   0  0  0  0  0  0  0  0  0  0  0  0
   -4.5473   10.9239   -5.1752 C   0  0  0  0  0  0  0  0  0  0  0  0
   -4.4066   10.2552   -6.0261 H   0  0  0  0  0  0  0  0  0  0  0  0
   -5.2996   10.4773   -4.5230 H   0  0  0  0  0  0  0  0  0  0  0  0
   -5.0209   12.2919   -5.6577 C   0  0  0  0  0  0  0  0  0  0  0  0
   -4.2508   12.7408   -6.2897 H   0  0  0  0  0  0  0  0  0  0  0  0
   -5.1665   12.9439   -4.7949 H   0  0  0  0  0  0  0  0  0  0  0  0
   -6.3218   12.1829   -6.4508 C   0  0  0  0  0  0  0  0  0  0  0  0
   -6.1690   11.4805   -7.2736 H   0  0  0  0  0  0  0  0  0  0  0  0
   -7.1032   11.7719   -5.8079 H   0  0  0  0  0  0  0  0  0  0  0  0
   -6.7935   13.5178   -7.0281 C   0  0  0  0  0  0  0  0  0  0  0  0
   -5.9821   13.9692   -7.6039 H   0  0  0  0  0  0  0  0  0  0  0  0
   -7.6179   13.3250   -7.7189 H   0  0  0  0  0  0  0  0  0  0  0  0
   -7.2714   14.5054   -5.9659 C   0  0  0  0  0  0  0  0  0  0  0  0
   -6.4431   14.7723   -5.3072 H   0  0  0  0  0  0  0  0  0  0  0  0
   -8.0436   14.0312   -5.3555 H   0  0  0  0  0  0  0  0  0  0  0  0
   -7.8366   15.7798   -6.5890 C   0  0  0  0  0  0  0  0  0  0  0  0
   -7.0661   16.2538   -7.2015 H   0  0  0  0  0  0  0  0  0  0  0  0
   -8.6686   15.5212   -7.2478 H   0  0  0  0  0  0  0  0  0  0  0  0
   -8.3184   16.7637   -5.5301 C   0  0  0  0  0  0  0  0  0  0  0  0
   -9.1014   16.3161   -4.9218 H   0  0  0  0  0  0  0  0  0  0  0  0
   -8.7168   17.6625   -5.9950 H   0  0  0  0  0  0  0  0  0  0  0  0
   -7.4989   17.0511   -4.8747 H   0  0  0  0  0  0  0  0  0  0  0  0
  1  8  1  0  0  0  0
  1  4  1  0  0  0  0
  1  2  1  0  0  0  0
  3  1  1  0  0  0  0
  4  5  1  0  0  0  0
  6  1  1  0  0  0  0
  7 23  1  0  0  0  0
  7  1  1  0  0  0  0
  8 30  1  0  0  0  0
  9  6  1  0  0  0  0
  9 10  1  0  0  0  0
 11  9  1  0  0  0  0
 12 11  1  0  0  0  0
 13 14  1  0  0  0  0
 13 11  2  0  0  0  0
 14 16  2  0  0  0  0
 15 14  1  0  0  0  0
 16 17  1  0  0  0  0
 16  6  1  0  0  0  0
 17 18  1  1  0  0  0
 17  7  1  0  0  0  0
 18 20  2  0  0  0  0
 19 18  1  0  0  0  0
 20 21  1  0  0  0  0
 21 22  1  0  0  0  0
 21 23  2  0  0  0  0
 24 23  1  6  0  0  0
 24 25  1  0  0  0  0
 24  8  1  0  0  0  0
 25 27  2  0  0  0  0
 26 25  1  0  0  0  0
 27 28  1  0  0  0  0
 28 29  1  0  0  0  0
 30 31  1  0  0  0  0
 30 28  2  0  0  0  0
 32 20  1  0  0  0  0
 33 34  1  0  0  0  0
 33 32  1  0  0  0  0
 35 33  2  0  0  0  0
 36 35  1  0  0  0  0
 37 39  2  0  0  0  0
 37 35  1  0  0  0  0
 38 37  1  0  0  0  0
 39 41  1  0  0  0  0
 40 39  1  0  0  0  0
 41 42  1  0  0  0  0
 41 32  2  0  0  0  0
 43 38  1  0  0  0  0
 43 45  1  0  0  0  0
 44 43  1  0  0  0  0
 46 48  1  0  0  0  0
 46 43  1  0  0  0  0
 47 46  1  0  0  0  0
 49 46  1  0  0  0  0
 49 51  1  0  0  0  0
 50 49  1  0  0  0  0
 52 54  1  0  0  0  0
 52 49  1  0  0  0  0
 53 52  1  0  0  0  0
 55 52  1  0  0  0  0
 55 58  1  0  0  0  0
 56 55  1  0  0  0  0
 57 55  1  0  0  0  0
 58 60  1  0  0  0  0
 58 59  1  0  0  0  0
 61 58  1  0  0  0  0
 61 64  1  0  0  0  0
 62 61  1  0  0  0  0
 63 61  1  0  0  0  0
 64 65  1  0  0  0  0
 64 67  1  0  0  0  0
 66 64  1  0  0  0  0
M  END
$$$$
