CSD_code = ETURHG | q = 0 | S = 0 | Stoichiometry = C6H12Cl2HgN4O2 | MND = 4
 OpenBabel04212202033D

 27 28  0  0  0  0  0  0  0  0999 V2000
   -6.2115    1.0923    1.6641 Cl  0  0  0  0  0  0  0  0  0  0  0  0
   -2.8087    2.2127   -1.1028 C   0  0  0  0  0  3  0  0  0  0  0  0
   -1.2033    2.0599   -2.7613 C   0  0  0  0  0  0  0  0  0  0  0  0
   -1.1826    3.4837   -2.1693 C   0  0  0  0  0  0  0  0  0  0  0  0
   -5.0979    0.0001   -0.0000 Hg  0  0  0  0  0  0  0  0  0  0  0  0
   -0.2666    3.6669   -1.5945 H   0  0  0  0  0  0  0  0  0  0  0  0
   -1.2739    4.2552   -2.9374 H   0  0  0  0  0  0  0  0  0  0  0  0
   -0.2178    1.5892   -2.7486 H   0  0  0  0  0  0  0  0  0  0  0  0
   -1.5787    2.0582   -3.7911 H   0  0  0  0  0  0  0  0  0  0  0  0
   -2.4513    0.4199   -2.0419 H   0  0  0  0  0  0  0  0  0  0  0  0
   -2.5585    4.2233   -0.6770 H   0  0  0  0  0  0  0  0  0  0  0  0
   -2.3468    3.4736   -1.3113 N   0  0  0  0  0  0  0  0  0  0  0  0
   -2.1128    1.3656   -1.8789 N   0  0  0  0  0  0  0  0  0  0  0  0
   -3.7152    1.9311   -0.3168 O   0  0  0  0  0  0  0  0  0  0  0  0
   -3.9847   -1.0926   -1.6642 Cl  0  0  0  0  0  0  0  0  0  0  0  0
   -6.4807   -1.9310    0.3169 O   0  0  0  0  0  0  0  0  0  0  0  0
   -7.3872   -2.2126    1.1028 C   0  0  0  0  0  3  0  0  0  0  0  0
   -7.8492   -3.4735    1.3114 N   0  0  0  0  0  0  0  0  0  0  0  0
   -8.0832   -1.3655    1.8789 N   0  0  0  0  0  0  0  0  0  0  0  0
   -9.0133   -3.4837    2.1693 C   0  0  0  0  0  0  0  0  0  0  0  0
   -7.6374   -4.2232    0.6770 H   0  0  0  0  0  0  0  0  0  0  0  0
   -8.9928   -2.0599    2.7613 C   0  0  0  0  0  0  0  0  0  0  0  0
   -7.7447   -0.4199    2.0419 H   0  0  0  0  0  0  0  0  0  0  0  0
   -9.9294   -3.6669    1.5944 H   0  0  0  0  0  0  0  0  0  0  0  0
   -8.9220   -4.2552    2.9374 H   0  0  0  0  0  0  0  0  0  0  0  0
   -9.9783   -1.5892    2.7485 H   0  0  0  0  0  0  0  0  0  0  0  0
   -8.6174   -2.0583    3.7911 H   0  0  0  0  0  0  0  0  0  0  0  0
  2 14  1  0  0  0  0
  3  8  1  0  0  0  0
  3  4  1  0  0  0  0
  3 13  1  0  0  0  0
  4  6  1  0  0  0  0
  4 12  1  0  0  0  0
  5 16  1  0  0  0  0
  5  1  1  0  0  0  0
  7  4  1  0  0  0  0
  9  3  1  0  0  0  0
 10 13  1  0  0  0  0
 12  2  1  0  0  0  0
 12 11  1  0  0  0  0
 13  2  1  0  0  0  0
 14  5  1  0  0  0  0
 15  5  1  0  0  0  0
 16 17  1  0  0  0  0
 17 18  1  0  0  0  0
 17 19  1  0  0  0  0
 18 20  1  0  0  0  0
 19 23  1  0  0  0  0
 19 22  1  0  0  0  0
 20 22  1  0  0  0  0
 20 25  1  0  0  0  0
 21 18  1  0  0  0  0
 22 27  1  0  0  0  0
 24 20  1  0  0  0  0
 26 22  1  0  0  0  0
M  END
$$$$
