CSD_code = ETUVOE | q = 0 | S = 0 | Stoichiometry = C18H18I2N2O2Zn | MND = 4
 OpenBabel04212202033D

 43 46  0  0  1  0  0  0  0  0999 V2000
    0.3148    3.7356    3.1575 Zn  0  0  0  0  0  0  0  0  0  0  0  0
    0.1131    6.1444    2.4350 I   0  0  0  0  0  0  0  0  0  0  0  0
   -0.7592    1.7814    1.9704 I   0  0  0  0  0  0  0  0  0  0  0  0
    4.5134    2.8453    4.0225 O   0  0  0  0  0  0  0  0  0  0  0  0
   -0.2547    3.2256    7.4333 O   0  0  0  0  0  0  0  0  0  0  0  0
    2.4436    3.3157    3.3554 N   0  0  0  0  0  0  0  0  0  0  0  0
   -0.2804    3.5900    5.2383 N   0  0  0  0  0  0  0  0  0  0  0  0
    1.5783    0.9793    5.0572 C   0  0  0  0  0  0  0  0  0  0  0  0
    0.9442    1.1122    4.1989 H   0  0  0  0  0  0  0  0  0  0  0  0
    1.2155    0.0881    6.0496 C   0  0  0  0  0  0  0  0  0  0  0  0
    0.2793   -0.4447    5.9711 H   0  0  0  0  0  0  0  0  0  0  0  0
    2.0563   -0.1356    7.1273 C   0  0  0  0  0  0  0  0  0  0  0  0
    1.7684   -0.8295    7.9029 H   0  0  0  0  0  0  0  0  0  0  0  0
    3.2769    0.5177    7.1989 C   0  0  0  0  0  0  0  0  0  0  0  0
    3.9429    0.3302    8.0276 H   0  0  0  0  0  0  0  0  0  0  0  0
    3.6459    1.4105    6.2118 C   0  0  0  0  0  0  0  0  0  0  0  0
    4.5926    1.9254    6.2615 H   0  0  0  0  0  0  0  0  0  0  0  0
    2.7871    1.6640    5.1414 C   0  0  0  0  0  0  0  0  0  0  0  0
    3.1985    2.6334    4.1334 C   0  0  2  0  0  3  0  0  0  0  0  0
    4.7171    3.8152    2.9984 C   0  0  0  0  0  0  0  0  0  0  0  0
    5.3451    3.3719    2.2220 H   0  0  0  0  0  0  0  0  0  0  0  0
    5.2312    4.6753    3.4347 H   0  0  0  0  0  0  0  0  0  0  0  0
    3.2948    4.1436    2.5154 C   0  0  0  0  0  0  0  0  0  0  0  0
    3.0444    5.1971    2.6501 H   0  0  0  0  0  0  0  0  0  0  0  0
    3.1317    3.8837    1.4659 H   0  0  0  0  0  0  0  0  0  0  0  0
    2.4635    3.8715    7.5788 C   0  0  0  0  0  0  0  0  0  0  0  0
    2.1018    3.0827    8.2201 H   0  0  0  0  0  0  0  0  0  0  0  0
    3.7219    4.4107    7.7631 C   0  0  0  0  0  0  0  0  0  0  0  0
    4.3506    4.0421    8.5593 H   0  0  0  0  0  0  0  0  0  0  0  0
    4.1759    5.4218    6.9307 C   0  0  0  0  0  0  0  0  0  0  0  0
    5.1627    5.8364    7.0734 H   0  0  0  0  0  0  0  0  0  0  0  0
    3.3552    5.9145    5.9294 C   0  0  0  0  0  0  0  0  0  0  0  0
    3.6905    6.7263    5.3010 H   0  0  0  0  0  0  0  0  0  0  0  0
    2.0949    5.3798    5.7377 C   0  0  0  0  0  0  0  0  0  0  0  0
    1.4418    5.7973    4.9913 H   0  0  0  0  0  0  0  0  0  0  0  0
    1.6513    4.3366    6.5452 C   0  0  0  0  0  0  0  0  0  0  0  0
    0.3451    3.7203    6.3477 C   0  0  2  0  0  3  0  0  0  0  0  0
   -1.5017    2.6664    7.0256 C   0  0  0  0  0  0  0  0  0  0  0  0
   -2.3008    3.1614    7.5811 H   0  0  0  0  0  0  0  0  0  0  0  0
   -1.4969    1.6008    7.2676 H   0  0  0  0  0  0  0  0  0  0  0  0
   -1.5524    2.9408    5.5127 C   0  0  0  0  0  0  0  0  0  0  0  0
   -1.6465    2.0257    4.9260 H   0  0  0  0  0  0  0  0  0  0  0  0
   -2.3666    3.6135    5.2297 H   0  0  0  0  0  0  0  0  0  0  0  0
  1  6  1  0  0  0  0
  1  7  1  0  0  0  0
  2  1  1  0  0  0  0
  3  1  1  0  0  0  0
  4 19  1  0  0  0  0
  6 19  1  0  0  0  0
  7 41  1  0  0  0  0
  7 37  1  0  0  0  0
  8 18  2  0  0  0  0
  8 10  1  0  0  0  0
  9  8  1  0  0  0  0
 10 12  2  0  0  0  0
 11 10  1  0  0  0  0
 12 14  1  0  0  0  0
 12 13  1  0  0  0  0
 14 15  1  0  0  0  0
 16 17  1  0  0  0  0
 16 14  2  0  0  0  0
 18 16  1  0  0  0  0
 19 18  1  1  0  0  0
 20 22  1  0  0  0  0
 20  4  1  0  0  0  0
 21 20  1  0  0  0  0
 23 24  1  0  0  0  0
 23 20  1  0  0  0  0
 23  6  1  0  0  0  0
 25 23  1  0  0  0  0
 26 28  1  0  0  0  0
 26 27  1  0  0  0  0
 28 29  1  0  0  0  0
 30 31  1  0  0  0  0
 30 28  2  0  0  0  0
 32 30  1  0  0  0  0
 33 32  1  0  0  0  0
 34 32  2  0  0  0  0
 34 36  1  0  0  0  0
 35 34  1  0  0  0  0
 36 26  2  0  0  0  0
 37 36  1  6  0  0  0
 37  5  1  0  0  0  0
 38 40  1  0  0  0  0
 38  5  1  0  0  0  0
 38 39  1  0  0  0  0
 41 38  1  0  0  0  0
 42 41  1  0  0  0  0
 43 41  1  0  0  0  0
M  END
$$$$
