CSD_code = ETUVAQ | q = 0 | S = 0 | Stoichiometry = C8H14I2N2O2Zn | MND = 4
 OpenBabel04212202033D

 29 30  0  0  1  0  0  0  0  0999 V2000
   11.5029    4.2134    9.1259 C   0  0  2  0  0  3  0  0  0  0  0  0
   10.5066    4.0515    8.0439 C   0  0  0  0  0  0  0  0  0  0  0  0
   10.5204    4.9152    7.3806 H   0  0  0  0  0  0  0  0  0  0  0  0
    9.5040    3.9738    8.4602 H   0  0  0  0  0  0  0  0  0  0  0  0
   10.7386    3.1552    7.4761 H   0  0  0  0  0  0  0  0  0  0  0  0
   13.3468    3.6671   10.2604 C   0  0  0  0  0  0  0  0  0  0  0  0
   14.3538    3.8898    9.9000 H   0  0  0  0  0  0  0  0  0  0  0  0
   13.3807    2.7944   10.9164 H   0  0  0  0  0  0  0  0  0  0  0  0
   12.6467    4.8799   10.9039 C   0  0  0  0  0  0  0  0  0  0  0  0
   12.3179    4.6804   11.9258 H   0  0  0  0  0  0  0  0  0  0  0  0
   13.2708    5.7771   10.9100 H   0  0  0  0  0  0  0  0  0  0  0  0
   12.1449    8.7669   10.4089 C   0  0  2  0  0  3  0  0  0  0  0  0
   12.3744    8.5008    8.9717 C   0  0  0  0  0  0  0  0  0  0  0  0
   12.3049    7.4373    8.7617 H   0  0  0  0  0  0  0  0  0  0  0  0
   13.3480    8.8862    8.6811 H   0  0  0  0  0  0  0  0  0  0  0  0
   11.6097    9.0122    8.3859 H   0  0  0  0  0  0  0  0  0  0  0  0
   12.4091    9.8894   12.3195 C   0  0  0  0  0  0  0  0  0  0  0  0
   13.3037    9.8095   12.9412 H   0  0  0  0  0  0  0  0  0  0  0  0
   11.9439   10.8650   12.4779 H   0  0  0  0  0  0  0  0  0  0  0  0
   11.4298    8.7143   12.5061 C   0  0  0  0  0  0  0  0  0  0  0  0
   10.4310    9.0398   12.8053 H   0  0  0  0  0  0  0  0  0  0  0  0
   11.7796    7.9781   13.2336 H   0  0  0  0  0  0  0  0  0  0  0  0
    8.7925    7.3529    8.6684 I   0  0  0  0  0  0  0  0  0  0  0  0
    9.3777    5.5978   12.9653 I   0  0  0  0  0  0  0  0  0  0  0  0
   11.4901    5.0958   10.0495 N   0  0  0  0  0  0  0  0  0  0  0  0
   11.3753    8.1091   11.1844 N   0  0  0  0  0  0  0  0  0  0  0  0
   12.5227    3.3560    9.1376 O   0  0  0  0  0  0  0  0  0  0  0  0
   12.8017    9.7935   10.9490 O   0  0  0  0  0  0  0  0  0  0  0  0
   10.0032    6.5202   10.7127 Zn  0  0  0  0  0  0  0  0  0  0  0  0
  1  2  1  6  0  0  0
  1 27  1  0  0  0  0
  1 25  1  0  0  0  0
  2  4  1  0  0  0  0
  3  2  1  0  0  0  0
  5  2  1  0  0  0  0
  6  9  1  0  0  0  0
  6  8  1  0  0  0  0
  7  6  1  0  0  0  0
  9 11  1  0  0  0  0
  9 10  1  0  0  0  0
 12 13  1  6  0  0  0
 12 28  1  0  0  0  0
 12 26  1  0  0  0  0
 14 13  1  0  0  0  0
 15 13  1  0  0  0  0
 16 13  1  0  0  0  0
 17 19  1  0  0  0  0
 17 20  1  0  0  0  0
 17 18  1  0  0  0  0
 20 21  1  0  0  0  0
 20 22  1  0  0  0  0
 23 29  1  0  0  0  0
 25 29  1  0  0  0  0
 25  9  1  0  0  0  0
 26 20  1  0  0  0  0
 27  6  1  0  0  0  0
 28 17  1  0  0  0  0
 29 26  1  0  0  0  0
 29 24  1  0  0  0  0
M  END
$$$$
