CSD_code = EVACIN | q = 0 | S = 0 | Stoichiometry = C20H24Cl2NNiO2P | MND = 4
 OpenBabel04212202033D

 51 54  0  0  1  0  0  0  0  0999 V2000
    6.4675    1.5121   13.3748 P   0  0  0  0  0  4  0  0  0  0  0  0
    6.8527    1.6607   11.3218 Ni  0  0  0  0  0  0  0  0  0  0  0  0
    9.0402    1.0713   11.7990 N   0  0  2  0  0  0  0  0  0  0  0  0
    7.2489    3.6758   11.4786 Cl  0  0  0  0  0  0  0  0  0  0  0  0
    6.1441   -0.1959   10.8888 Cl  0  0  0  0  0  0  0  0  0  0  0  0
    7.7781    1.3507   14.2814 O   0  0  0  0  0  0  0  0  0  0  0  0
   10.9972    1.7344   12.6331 O   0  0  0  0  0  0  0  0  0  0  0  0
    5.6071    0.0380   13.9965 C   0  0  0  0  0  0  0  0  0  0  0  0
    4.2515    0.0728   14.2929 C   0  0  0  0  0  0  0  0  0  0  0  0
    3.7013    0.9983   14.1965 H   0  0  0  0  0  0  0  0  0  0  0  0
    3.6084   -1.0800   14.7101 C   0  0  0  0  0  0  0  0  0  0  0  0
    2.5540   -1.0513   14.9427 H   0  0  0  0  0  0  0  0  0  0  0  0
    4.3120   -2.2673   14.8218 C   0  0  0  0  0  0  0  0  0  0  0  0
    3.8060   -3.1663   15.1418 H   0  0  0  0  0  0  0  0  0  0  0  0
    5.6625   -2.3056   14.5106 C   0  0  0  0  0  0  0  0  0  0  0  0
    6.2075   -3.2353   14.5833 H   0  0  0  0  0  0  0  0  0  0  0  0
    6.3080   -1.1583   14.0913 C   0  0  0  0  0  0  0  0  0  0  0  0
    7.3526   -1.1774   13.8184 H   0  0  0  0  0  0  0  0  0  0  0  0
    5.5048    2.8696   14.1154 C   0  0  0  0  0  0  0  0  0  0  0  0
    5.6673    3.2094   15.4511 C   0  0  0  0  0  0  0  0  0  0  0  0
    6.3941    2.6798   16.0495 H   0  0  0  0  0  0  0  0  0  0  0  0
    4.8972    4.2201   15.9986 C   0  0  0  0  0  0  0  0  0  0  0  0
    5.0273    4.4948   17.0353 H   0  0  0  0  0  0  0  0  0  0  0  0
    3.9585    4.8781   15.2200 C   0  0  0  0  0  0  0  0  0  0  0  0
    3.3606    5.6676   15.6509 H   0  0  0  0  0  0  0  0  0  0  0  0
    3.7848    4.5269   13.8906 C   0  0  0  0  0  0  0  0  0  0  0  0
    3.0509    5.0389   13.2864 H   0  0  0  0  0  0  0  0  0  0  0  0
    4.5602    3.5247   13.3372 C   0  0  0  0  0  0  0  0  0  0  0  0
    4.4511    3.2474   12.2947 H   0  0  0  0  0  0  0  0  0  0  0  0
    9.0993    1.8724   14.1363 C   0  0  0  0  0  0  0  0  0  0  0  0
    9.9254    1.1612   15.2131 C   0  0  0  0  0  0  0  0  0  0  0  0
    9.8612    0.0844   15.0775 H   0  0  0  0  0  0  0  0  0  0  0  0
    9.5331    1.4127   16.1946 H   0  0  0  0  0  0  0  0  0  0  0  0
   10.9633    1.4720   15.1438 H   0  0  0  0  0  0  0  0  0  0  0  0
    9.1283    3.3875   14.3316 C   0  0  0  0  0  0  0  0  0  0  0  0
    8.7511    3.6360   15.3203 H   0  0  0  0  0  0  0  0  0  0  0  0
    8.5040    3.8671   13.5798 H   0  0  0  0  0  0  0  0  0  0  0  0
   10.1488    3.7470   14.2328 H   0  0  0  0  0  0  0  0  0  0  0  0
    9.6776    1.5369   12.7876 C   0  0  2  0  0  3  0  0  0  0  0  0
   11.3119    1.3646   11.2894 C   0  0  0  0  0  0  0  0  0  0  0  0
   12.0829    0.5910   11.3155 H   0  0  0  0  0  0  0  0  0  0  0  0
   11.6957    2.2453   10.7681 H   0  0  0  0  0  0  0  0  0  0  0  0
    9.9700    0.8551   10.6958 C   0  0  0  0  0  0  0  0  0  0  0  0
    9.4887    1.6685    9.4964 C   0  0  0  0  0  0  0  0  0  0  0  0
    8.4391    1.4157    9.3074 H   0  0  0  0  0  0  0  0  0  0  0  0
   10.0691    1.4339    8.6078 H   0  0  0  0  0  0  0  0  0  0  0  0
    9.5559    2.7352    9.7033 H   0  0  0  0  0  0  0  0  0  0  0  0
    9.9895   -0.6370   10.3686 C   0  0  0  0  0  0  0  0  0  0  0  0
    8.9783   -0.9597   10.1313 H   0  0  0  0  0  0  0  0  0  0  0  0
   10.3399   -1.2097   11.2247 H   0  0  0  0  0  0  0  0  0  0  0  0
   10.6396   -0.8289    9.5187 H   0  0  0  0  0  0  0  0  0  0  0  0
  1  8  1  0  0  0  0
  1 19  1  0  0  0  0
  1  6  1  0  0  0  0
  2  4  1  0  0  0  0
  2  3  1  0  0  0  0
  2  1  1  0  0  0  0
  3 43  1  6  0  0  0
  3 39  1  0  0  0  0
  5  2  1  0  0  0  0
  8 17  2  0  0  0  0
  8  9  1  0  0  0  0
  9 11  2  0  0  0  0
 10  9  1  0  0  0  0
 11 13  1  0  0  0  0
 11 12  1  0  0  0  0
 13 14  1  0  0  0  0
 15 16  1  0  0  0  0
 15 13  2  0  0  0  0
 17 15  1  0  0  0  0
 18 17  1  0  0  0  0
 19 20  1  0  0  0  0
 20 22  2  0  0  0  0
 20 21  1  0  0  0  0
 22 23  1  0  0  0  0
 24 25  1  0  0  0  0
 24 22  1  0  0  0  0
 26 24  2  0  0  0  0
 27 26  1  0  0  0  0
 28 26  1  0  0  0  0
 28 19  2  0  0  0  0
 29 28  1  0  0  0  0
 30  6  1  0  0  0  0
 30 35  1  0  0  0  0
 30 31  1  0  0  0  0
 31 33  1  0  0  0  0
 32 31  1  0  0  0  0
 34 31  1  0  0  0  0
 35 36  1  0  0  0  0
 37 35  1  0  0  0  0
 38 35  1  0  0  0  0
 39  7  1  1  0  0  0
 39 30  1  0  0  0  0
 40 41  1  0  0  0  0
 40  7  1  0  0  0  0
 42 40  1  0  0  0  0
 43 40  1  0  0  0  0
 44 47  1  0  0  0  0
 44 43  1  0  0  0  0
 45 44  1  0  0  0  0
 46 44  1  0  0  0  0
 48 43  1  0  0  0  0
 48 50  1  0  0  0  0
 49 48  1  0  0  0  0
 51 48  1  0  0  0  0
M  END
$$$$
