CSD_code = EVACUZ | q = 0 | S = 0 | Stoichiometry = C21H22Cl2NNiOP | MND = 4
 OpenBabel04212202033D

 49 52  0  0  1  0  0  0  0  0999 V2000
    7.2983    3.1752    4.0273 Ni  0  0  0  0  0  0  0  0  0  0  0  0
    8.9255    2.7475    2.7100 P   0  0  0  0  0  4  0  0  0  0  0  0
    6.1697    1.5979    3.3340 Cl  0  0  0  0  0  0  0  0  0  0  0  0
    5.6845    4.0507    5.0809 Cl  0  0  0  0  0  0  0  0  0  0  0  0
    8.5588    4.5189    4.7774 N   0  0  0  0  0  0  0  0  0  0  0  0
    9.4702    4.1567    2.1448 O   0  0  0  0  0  0  0  0  0  0  0  0
    8.9126    5.4220    2.5475 C   0  0  0  0  0  0  0  0  0  0  0  0
    8.7341    4.4730    6.0980 C   0  0  1  0  0  3  0  0  0  0  0  0
    8.8708    1.7589    1.1895 C   0  0  0  0  0  0  0  0  0  0  0  0
    8.2931    3.2490    6.8298 C   0  0  0  0  0  0  0  0  0  0  0  0
    7.8922    2.5035    6.1259 H   0  0  0  0  0  0  0  0  0  0  0  0
    7.5008    3.5050    7.5317 H   0  0  0  0  0  0  0  0  0  0  0  0
    9.1266    2.8174    7.3827 H   0  0  0  0  0  0  0  0  0  0  0  0
   10.4039    2.0511    3.5184 C   0  0  0  0  0  0  0  0  0  0  0  0
    9.0574    2.3179   -0.0670 C   0  0  0  0  0  0  0  0  0  0  0  0
    9.2609    3.3743   -0.1608 H   0  0  0  0  0  0  0  0  0  0  0  0
    8.7163    0.1642   -1.0675 C   0  0  0  0  0  0  0  0  0  0  0  0
    8.6529   -0.4563   -1.9493 H   0  0  0  0  0  0  0  0  0  0  0  0
    9.7248    6.6470    6.0643 C   0  0  0  0  0  0  0  0  0  0  0  0
   10.1574    7.4979    6.5683 H   0  0  0  0  0  0  0  0  0  0  0  0
    9.0142    5.5515    4.0633 C   0  0  0  0  0  0  0  0  0  0  0  0
    9.7623    6.4533    1.8042 C   0  0  0  0  0  0  0  0  0  0  0  0
    9.7488    6.2100    0.7445 H   0  0  0  0  0  0  0  0  0  0  0  0
   10.7931    6.4204    2.1485 H   0  0  0  0  0  0  0  0  0  0  0  0
    9.3602    7.4535    1.9327 H   0  0  0  0  0  0  0  0  0  0  0  0
    9.3234    5.5348    6.7762 C   0  0  0  0  0  0  0  0  0  0  0  0
    9.4450    5.4806    7.8463 H   0  0  0  0  0  0  0  0  0  0  0  0
   10.2258    1.0686    4.4845 C   0  0  0  0  0  0  0  0  0  0  0  0
    9.2215    0.7489    4.7351 H   0  0  0  0  0  0  0  0  0  0  0  0
    8.9841    1.5170   -1.1928 C   0  0  0  0  0  0  0  0  0  0  0  0
    9.1304    1.9512   -2.1714 H   0  0  0  0  0  0  0  0  0  0  0  0
   12.5985    0.9439    4.7917 C   0  0  0  0  0  0  0  0  0  0  0  0
   13.4561    0.5139    5.2879 H   0  0  0  0  0  0  0  0  0  0  0  0
    8.5961    0.4015    1.3150 C   0  0  0  0  0  0  0  0  0  0  0  0
    8.4231   -0.0177    2.2952 H   0  0  0  0  0  0  0  0  0  0  0  0
   11.3225    0.5129    5.1175 C   0  0  0  0  0  0  0  0  0  0  0  0
   11.1843   -0.2524    5.8671 H   0  0  0  0  0  0  0  0  0  0  0  0
    8.5212   -0.3925    0.1869 C   0  0  0  0  0  0  0  0  0  0  0  0
    8.3025   -1.4455    0.2834 H   0  0  0  0  0  0  0  0  0  0  0  0
    9.5885    6.6496    4.6842 C   0  0  0  0  0  0  0  0  0  0  0  0
    9.9245    7.4969    4.1124 H   0  0  0  0  0  0  0  0  0  0  0  0
    7.4521    5.5328    2.1050 C   0  0  0  0  0  0  0  0  0  0  0  0
    7.3819    5.4063    1.0270 H   0  0  0  0  0  0  0  0  0  0  0  0
    7.0464    6.5012    2.3871 H   0  0  0  0  0  0  0  0  0  0  0  0
    6.8395    4.7507    2.5860 H   0  0  0  0  0  0  0  0  0  0  0  0
   11.6829    2.4800    3.1915 C   0  0  0  0  0  0  0  0  0  0  0  0
   11.8103    3.2447    2.4390 H   0  0  0  0  0  0  0  0  0  0  0  0
   12.7773    1.9270    3.8314 C   0  0  0  0  0  0  0  0  0  0  0  0
   13.7737    2.2603    3.5794 H   0  0  0  0  0  0  0  0  0  0  0  0
  1  5  1  0  0  0  0
  1  4  1  0  0  0  0
  2 14  1  0  0  0  0
  2  1  1  0  0  0  0
  3  1  1  0  0  0  0
  5  8  1  0  0  0  0
  6  7  1  0  0  0  0
  6  2  1  0  0  0  0
  7 21  1  0  0  0  0
  8 26  1  0  0  0  0
  8 10  1  6  0  0  0
  9 34  1  0  0  0  0
  9  2  1  0  0  0  0
 10 13  1  0  0  0  0
 10 12  1  0  0  0  0
 11 10  1  0  0  0  0
 14 28  1  0  0  0  0
 15  9  2  0  0  0  0
 16 15  1  0  0  0  0
 17 38  1  0  0  0  0
 18 17  1  0  0  0  0
 19 20  1  0  0  0  0
 19 26  2  0  0  0  0
 21 40  2  0  0  0  0
 21  5  1  0  0  0  0
 22 25  1  0  0  0  0
 22 24  1  0  0  0  0
 22  7  1  0  0  0  0
 23 22  1  0  0  0  0
 26 27  1  0  0  0  0
 28 29  1  0  0  0  0
 28 36  2  0  0  0  0
 30 17  2  0  0  0  0
 30 15  1  0  0  0  0
 31 30  1  0  0  0  0
 32 36  1  0  0  0  0
 32 33  1  0  0  0  0
 34 35  1  0  0  0  0
 36 37  1  0  0  0  0
 38 39  1  0  0  0  0
 38 34  2  0  0  0  0
 40 19  1  0  0  0  0
 41 40  1  0  0  0  0
 42 44  1  0  0  0  0
 42  7  1  0  0  0  0
 42 45  1  0  0  0  0
 43 42  1  0  0  0  0
 46 14  2  0  0  0  0
 46 48  1  0  0  0  0
 47 46  1  0  0  0  0
 48 32  2  0  0  0  0
 49 48  1  0  0  0  0
M  END
$$$$
