CSD_code = EVAGEN | q = 0 | S = 0 | Stoichiometry = C20H31ClO2PRh | MND = 4
 OpenBabel04212202033D

 56 56  0  0  0  0  0  0  0  0999 V2000
   -0.7631    2.9966    7.6875 C   0  0  0  0  0  2  0  0  0  0  0  0
   -1.6717    0.4895    7.3141 C   0  0  0  0  0  2  0  0  0  0  0  0
    2.4759    2.3998    5.1504 C   0  0  0  0  0  0  0  0  0  0  0  0
    2.6504    2.2852    6.6690 C   0  0  0  0  0  0  0  0  0  0  0  0
    3.6350    1.8832    6.9051 H   0  0  0  0  0  0  0  0  0  0  0  0
    1.8928    1.5988    7.0781 H   0  0  0  0  0  0  0  0  0  0  0  0
    2.5515    3.2468    7.1650 H   0  0  0  0  0  0  0  0  0  0  0  0
    3.5421    3.3202    4.5606 C   0  0  0  0  0  0  0  0  0  0  0  0
    4.5217    2.8686    4.7165 H   0  0  0  0  0  0  0  0  0  0  0  0
    3.5539    4.2968    5.0352 H   0  0  0  0  0  0  0  0  0  0  0  0
    3.4069    3.4457    3.4885 H   0  0  0  0  0  0  0  0  0  0  0  0
    2.6775    1.0006    4.5573 C   0  0  0  0  0  0  0  0  0  0  0  0
    2.7653    1.0308    3.4742 H   0  0  0  0  0  0  0  0  0  0  0  0
    1.8587    0.3362    4.8272 H   0  0  0  0  0  0  0  0  0  0  0  0
    3.5987    0.5726    4.9511 H   0  0  0  0  0  0  0  0  0  0  0  0
    0.4910    4.8114    4.9410 C   0  0  0  0  0  0  0  0  0  0  0  0
   -1.0176    5.0781    5.0260 C   0  0  0  0  0  0  0  0  0  0  0  0
   -1.4594    4.5419    5.8683 H   0  0  0  0  0  0  0  0  0  0  0  0
   -1.5355    4.7659    4.1239 H   0  0  0  0  0  0  0  0  0  0  0  0
   -1.2003    6.1426    5.1681 H   0  0  0  0  0  0  0  0  0  0  0  0
    1.0619    5.5559    3.7354 C   0  0  0  0  0  0  0  0  0  0  0  0
    0.9286    6.6270    3.8862 H   0  0  0  0  0  0  0  0  0  0  0  0
    0.5474    5.2874    2.8194 H   0  0  0  0  0  0  0  0  0  0  0  0
    2.1234    5.3701    3.6072 H   0  0  0  0  0  0  0  0  0  0  0  0
    1.1319    5.3597    6.2167 C   0  0  0  0  0  0  0  0  0  0  0  0
    2.2167    5.3579    6.1593 H   0  0  0  0  0  0  0  0  0  0  0  0
    0.8254    4.7847    7.0866 H   0  0  0  0  0  0  0  0  0  0  0  0
    0.8127    6.3901    6.3697 H   0  0  0  0  0  0  0  0  0  0  0  0
    0.4840    2.5116    3.0556 C   0  0  0  0  0  0  0  0  0  0  0  0
    1.2974    2.9904    2.5054 H   0  0  0  0  0  0  0  0  0  0  0  0
    0.6248    1.4294    3.0047 H   0  0  0  0  0  0  0  0  0  0  0  0
   -0.8719    2.8201    2.4067 C   0  0  0  0  0  0  0  0  0  0  0  0
   -1.6583    2.3939    3.0326 H   0  0  0  0  0  0  0  0  0  0  0  0
   -1.0358    3.8953    2.3411 H   0  0  0  0  0  0  0  0  0  0  0  0
   -0.9319    2.2381    1.0132 C   0  0  0  0  0  0  0  0  0  0  0  0
   -1.5376    0.9970    0.7864 C   0  0  0  0  0  0  0  0  0  0  0  0
   -1.5419    0.4624   -0.4957 C   0  0  0  0  0  0  0  0  0  0  0  0
   -2.0067   -0.4981   -0.6648 H   0  0  0  0  0  0  0  0  0  0  0  0
   -0.9655    1.1382   -1.5524 C   0  0  0  0  0  0  0  0  0  0  0  0
   -0.9715    0.7092   -2.5435 H   0  0  0  0  0  0  0  0  0  0  0  0
   -0.3935    2.3754   -1.3330 C   0  0  0  0  0  0  0  0  0  0  0  0
    0.0431    2.9182   -2.1594 H   0  0  0  0  0  0  0  0  0  0  0  0
   -0.3723    2.9366   -0.0629 C   0  0  0  0  0  0  0  0  0  0  0  0
    0.2385    4.3006    0.0959 C   0  0  0  0  0  0  0  0  0  0  0  0
    0.5350    4.6917   -0.8744 H   0  0  0  0  0  0  0  0  0  0  0  0
    1.1247    4.2726    0.7279 H   0  0  0  0  0  0  0  0  0  0  0  0
   -0.4740    4.9997    0.5338 H   0  0  0  0  0  0  0  0  0  0  0  0
   -2.2105    0.2308    1.8832 C   0  0  0  0  0  0  0  0  0  0  0  0
   -1.5258    0.0167    2.7005 H   0  0  0  0  0  0  0  0  0  0  0  0
   -2.5922   -0.7134    1.5034 H   0  0  0  0  0  0  0  0  0  0  0  0
   -3.0511    0.7949    2.2881 H   0  0  0  0  0  0  0  0  0  0  0  0
   -0.6486   -0.0355    4.9915 Cl  0  0  0  0  0  0  0  0  0  0  0  0
   -0.9330    3.6537    8.6150 O   0  0  0  0  0  1  0  0  0  0  0  0
   -2.2861   -0.3696    7.7406 O   0  0  0  0  0  1  0  0  0  0  0  0
    0.6659    2.9184    4.8527 P   0  0  0  0  0  4  0  0  0  0  0  0
   -0.6363    1.7215    6.3647 Rh  0  0  0  0  0  0  0  0  0  0  0  0
  1 53  1  0  0  0  0
  2 54  1  0  0  0  0
  3  4  1  0  0  0  0
  4  5  1  0  0  0  0
  4  6  1  0  0  0  0
  4  7  1  0  0  0  0
  8  9  1  0  0  0  0
  8 10  1  0  0  0  0
  8  3  1  0  0  0  0
 11  8  1  0  0  0  0
 12 14  1  0  0  0  0
 12 15  1  0  0  0  0
 12  3  1  0  0  0  0
 13 12  1  0  0  0  0
 16 17  1  0  0  0  0
 16 25  1  0  0  0  0
 17 20  1  0  0  0  0
 17 18  1  0  0  0  0
 19 17  1  0  0  0  0
 21 22  1  0  0  0  0
 21 16  1  0  0  0  0
 23 21  1  0  0  0  0
 24 21  1  0  0  0  0
 25 28  1  0  0  0  0
 25 27  1  0  0  0  0
 26 25  1  0  0  0  0
 29 55  1  0  0  0  0
 30 29  1  0  0  0  0
 31 29  1  0  0  0  0
 32 33  1  0  0  0  0
 32 29  1  0  0  0  0
 34 32  1  0  0  0  0
 35 32  1  0  0  0  0
 36 35  1  0  0  0  0
 36 48  1  0  0  0  0
 37 36  2  0  0  0  0
 38 37  1  0  0  0  0
 39 41  2  0  0  0  0
 39 37  1  0  0  0  0
 40 39  1  0  0  0  0
 41 43  1  0  0  0  0
 42 41  1  0  0  0  0
 43 44  1  0  0  0  0
 43 35  2  0  0  0  0
 44 47  1  0  0  0  0
 44 46  1  0  0  0  0
 45 44  1  0  0  0  0
 48 51  1  0  0  0  0
 48 49  1  0  0  0  0
 50 48  1  0  0  0  0
 52 56  1  0  0  0  0
 55 16  1  0  0  0  0
 55  3  1  0  0  0  0
 55 56  1  0  0  0  0
 56  2  1  0  0  0  0
 56  1  1  0  0  0  0
M  END
$$$$
