CSD_code = EVEZUC | q = 0 | S = 0 | Stoichiometry = C36H28Cl3CuP2 | MND = 3
 OpenBabel04212202033D

 70 75  0  0  0  0  0  0  0  0999 V2000
   12.3278    7.0220    1.2293 Cu  0  0  0  0  0  0  0  0  0  0  0  0
   12.7153    8.7560   -0.0388 Cl  0  0  0  0  0  0  0  0  0  0  0  0
   15.2520    5.8350    2.0166 Cl  0  0  0  0  0  0  0  0  0  0  0  0
    9.0683    6.8861    1.5110 Cl  0  0  0  0  0  0  0  0  0  0  0  0
   12.7657    4.9029    0.7253 P   0  0  0  0  0  4  0  0  0  0  0  0
   11.4157    7.5635    3.2071 P   0  0  0  0  0  4  0  0  0  0  0  0
   13.5208    3.8088    1.9731 C   0  0  0  0  0  0  0  0  0  0  0  0
   14.6796    4.3044    2.5738 C   0  0  0  0  0  0  0  0  0  0  0  0
   15.3326    3.6063    3.5721 C   0  0  0  0  0  0  0  0  0  0  0  0
   16.2241    4.0137    4.0219 H   0  0  0  0  0  0  0  0  0  0  0  0
   14.8219    2.3839    3.9793 C   0  0  0  0  0  0  0  0  0  0  0  0
   15.3237    1.8300    4.7581 H   0  0  0  0  0  0  0  0  0  0  0  0
   13.6766    1.8732    3.3900 C   0  0  0  0  0  0  0  0  0  0  0  0
   13.2876    0.9168    3.7066 H   0  0  0  0  0  0  0  0  0  0  0  0
   13.0253    2.5805    2.3946 C   0  0  0  0  0  0  0  0  0  0  0  0
   12.1309    2.1795    1.9409 H   0  0  0  0  0  0  0  0  0  0  0  0
   13.8571    4.6064   -0.6976 C   0  0  0  0  0  0  0  0  0  0  0  0
   14.2000    5.6964   -1.4903 C   0  0  0  0  0  0  0  0  0  0  0  0
   13.8241    6.6809   -1.2380 H   0  0  0  0  0  0  0  0  0  0  0  0
   15.0235    5.5130   -2.5874 C   0  0  0  0  0  0  0  0  0  0  0  0
   15.2921    6.3579   -3.2037 H   0  0  0  0  0  0  0  0  0  0  0  0
   15.5040    4.2495   -2.8891 C   0  0  0  0  0  0  0  0  0  0  0  0
   16.1490    4.1071   -3.7439 H   0  0  0  0  0  0  0  0  0  0  0  0
   15.1637    3.1638   -2.0956 C   0  0  0  0  0  0  0  0  0  0  0  0
   15.5422    2.1802   -2.3338 H   0  0  0  0  0  0  0  0  0  0  0  0
   14.3419    3.3363   -0.9981 C   0  0  0  0  0  0  0  0  0  0  0  0
   14.0726    2.4945   -0.3739 H   0  0  0  0  0  0  0  0  0  0  0  0
   11.2392    4.0155    0.3008 C   0  0  0  0  0  0  0  0  0  0  0  0
   10.2914    3.8757    1.3154 C   0  0  0  0  0  0  0  0  0  0  0  0
   10.5321    4.2154    2.3157 H   0  0  0  0  0  0  0  0  0  0  0  0
    9.0604    3.3126    1.0446 C   0  0  0  0  0  0  0  0  0  0  0  0
    8.3332    3.2039    1.8361 H   0  0  0  0  0  0  0  0  0  0  0  0
    8.7567    2.9027   -0.2451 C   0  0  0  0  0  0  0  0  0  0  0  0
    7.7915    2.4684   -0.4595 H   0  0  0  0  0  0  0  0  0  0  0  0
    9.6849    3.0625   -1.2603 C   0  0  0  0  0  0  0  0  0  0  0  0
    9.4423    2.7548   -2.2669 H   0  0  0  0  0  0  0  0  0  0  0  0
   10.9224    3.6230   -0.9943 C   0  0  0  0  0  0  0  0  0  0  0  0
   11.6417    3.7586   -1.7899 H   0  0  0  0  0  0  0  0  0  0  0  0
   10.0795    8.7850    3.0836 C   0  0  0  0  0  0  0  0  0  0  0  0
    9.0259    8.4537    2.2306 C   0  0  0  0  0  0  0  0  0  0  0  0
    7.9988    9.3398    1.9719 C   0  0  0  0  0  0  0  0  0  0  0  0
    7.1968    9.0610    1.3066 H   0  0  0  0  0  0  0  0  0  0  0  0
    8.0285   10.5898    2.5704 C   0  0  0  0  0  0  0  0  0  0  0  0
    7.2349   11.2934    2.3701 H   0  0  0  0  0  0  0  0  0  0  0  0
    9.0724   10.9412    3.4109 C   0  0  0  0  0  0  0  0  0  0  0  0
    9.0914   11.9199    3.8661 H   0  0  0  0  0  0  0  0  0  0  0  0
   10.0987   10.0482    3.6638 C   0  0  0  0  0  0  0  0  0  0  0  0
   10.9203   10.3269    4.3079 H   0  0  0  0  0  0  0  0  0  0  0  0
   12.6266    8.4154    4.2606 C   0  0  0  0  0  0  0  0  0  0  0  0
   13.5358    9.2347    3.5936 C   0  0  0  0  0  0  0  0  0  0  0  0
   13.4766    9.3249    2.5153 H   0  0  0  0  0  0  0  0  0  0  0  0
   14.4995    9.9216    4.3078 C   0  0  0  0  0  0  0  0  0  0  0  0
   15.2011   10.5589    3.7904 H   0  0  0  0  0  0  0  0  0  0  0  0
   14.5676    9.7839    5.6854 C   0  0  0  0  0  0  0  0  0  0  0  0
   15.3234   10.3160    6.2444 H   0  0  0  0  0  0  0  0  0  0  0  0
   13.6706    8.9616    6.3486 C   0  0  0  0  0  0  0  0  0  0  0  0
   13.7273    8.8551    7.4224 H   0  0  0  0  0  0  0  0  0  0  0  0
   12.6990    8.2753    5.6422 C   0  0  0  0  0  0  0  0  0  0  0  0
   11.9985    7.6345    6.1599 H   0  0  0  0  0  0  0  0  0  0  0  0
   10.7502    6.2827    4.3135 C   0  0  0  0  0  0  0  0  0  0  0  0
   11.6222    5.2318    4.5951 C   0  0  0  0  0  0  0  0  0  0  0  0
   12.6328    5.2692    4.2061 H   0  0  0  0  0  0  0  0  0  0  0  0
   11.2024    4.1601    5.3578 C   0  0  0  0  0  0  0  0  0  0  0  0
   11.8849    3.3496    5.5685 H   0  0  0  0  0  0  0  0  0  0  0  0
    9.9016    4.1261    5.8376 C   0  0  0  0  0  0  0  0  0  0  0  0
    9.5659    3.2860    6.4273 H   0  0  0  0  0  0  0  0  0  0  0  0
    9.0324    5.1687    5.5608 C   0  0  0  0  0  0  0  0  0  0  0  0
    8.0207    5.1419    5.9388 H   0  0  0  0  0  0  0  0  0  0  0  0
    9.4493    6.2471    4.7998 C   0  0  0  0  0  0  0  0  0  0  0  0
    8.7672    7.0581    4.5875 H   0  0  0  0  0  0  0  0  0  0  0  0
  1  6  1  0  0  0  0
  2  1  1  0  0  0  0
  3  8  1  0  0  0  0
  4 40  1  0  0  0  0
  5  1  1  0  0  0  0
  5  7  1  0  0  0  0
  6 49  1  0  0  0  0
  6 60  1  0  0  0  0
  7 15  2  0  0  0  0
  7  8  1  0  0  0  0
  8  9  2  0  0  0  0
  9 11  1  0  0  0  0
  9 10  1  0  0  0  0
 11 12  1  0  0  0  0
 13 14  1  0  0  0  0
 13 11  2  0  0  0  0
 15 13  1  0  0  0  0
 16 15  1  0  0  0  0
 17  5  1  0  0  0  0
 18 19  1  0  0  0  0
 18 17  2  0  0  0  0
 20 18  1  0  0  0  0
 21 20  1  0  0  0  0
 22 20  2  0  0  0  0
 22 24  1  0  0  0  0
 23 22  1  0  0  0  0
 24 26  2  0  0  0  0
 25 24  1  0  0  0  0
 26 17  1  0  0  0  0
 26 27  1  0  0  0  0
 28  5  1  0  0  0  0
 28 29  1  0  0  0  0
 29 30  1  0  0  0  0
 31 29  2  0  0  0  0
 31 32  1  0  0  0  0
 33 31  1  0  0  0  0
 34 33  1  0  0  0  0
 35 37  1  0  0  0  0
 35 33  2  0  0  0  0
 36 35  1  0  0  0  0
 37 28  2  0  0  0  0
 38 37  1  0  0  0  0
 39  6  1  0  0  0  0
 39 47  1  0  0  0  0
 40 39  2  0  0  0  0
 41 40  1  0  0  0  0
 41 43  2  0  0  0  0
 42 41  1  0  0  0  0
 43 45  1  0  0  0  0
 44 43  1  0  0  0  0
 45 47  2  0  0  0  0
 45 46  1  0  0  0  0
 47 48  1  0  0  0  0
 49 58  1  0  0  0  0
 50 49  2  0  0  0  0
 50 52  1  0  0  0  0
 51 50  1  0  0  0  0
 52 54  2  0  0  0  0
 53 52  1  0  0  0  0
 54 55  1  0  0  0  0
 54 56  1  0  0  0  0
 56 57  1  0  0  0  0
 58 59  1  0  0  0  0
 58 56  2  0  0  0  0
 60 61  2  0  0  0  0
 60 69  1  0  0  0  0
 61 63  1  0  0  0  0
 62 61  1  0  0  0  0
 63 64  1  0  0  0  0
 63 65  2  0  0  0  0
 65 66  1  0  0  0  0
 67 65  1  0  0  0  0
 67 68  1  0  0  0  0
 69 67  2  0  0  0  0
 70 69  1  0  0  0  0
M  END
$$$$
