CSD_code = EVIBIW | q = 0 | S = 0 | Stoichiometry = C36H28Br2ClCuP2 | MND = 3
 OpenBabel04212202033D

 70 75  0  0  0  0  0  0  0  0999 V2000
   16.2411    1.5574    8.1111 Br  0  0  0  0  0  0  0  0  0  0  0  0
   12.4963    2.7129    8.0143 Br  0  0  0  0  0  0  0  0  0  0  0  0
   13.7940    1.1093   10.8752 Cu  0  0  0  0  0  0  0  0  0  0  0  0
   13.4221    2.6702   12.3648 Cl  0  0  0  0  0  0  0  0  0  0  0  0
   15.6236   -0.1115   10.6852 P   0  0  0  0  0  4  0  0  0  0  0  0
   11.7875    0.4774   10.0785 P   0  0  0  0  0  4  0  0  0  0  0  0
   16.0316   -1.0646    9.1856 C   0  0  0  0  0  0  0  0  0  0  0  0
   16.2486   -0.3435    8.0114 C   0  0  0  0  0  0  0  0  0  0  0  0
   16.4693   -0.9746    6.8019 C   0  0  0  0  0  0  0  0  0  0  0  0
   16.6328   -0.3881    5.9116 H   0  0  0  0  0  0  0  0  0  0  0  0
   16.4682   -2.3591    6.7544 C   0  0  0  0  0  0  0  0  0  0  0  0
   16.6343   -2.8603    5.8131 H   0  0  0  0  0  0  0  0  0  0  0  0
   16.2560   -3.0954    7.9093 C   0  0  0  0  0  0  0  0  0  0  0  0
   16.2604   -4.1745    7.8712 H   0  0  0  0  0  0  0  0  0  0  0  0
   16.0356   -2.4548    9.1157 C   0  0  0  0  0  0  0  0  0  0  0  0
   15.8666   -3.0319   10.0136 H   0  0  0  0  0  0  0  0  0  0  0  0
   17.2256    0.5880   11.1733 C   0  0  0  0  0  0  0  0  0  0  0  0
   17.1836    1.7701   11.9067 C   0  0  0  0  0  0  0  0  0  0  0  0
   16.2240    2.2163   12.1394 H   0  0  0  0  0  0  0  0  0  0  0  0
   18.3626    2.3620   12.3210 C   0  0  0  0  0  0  0  0  0  0  0  0
   18.3333    3.2793   12.8895 H   0  0  0  0  0  0  0  0  0  0  0  0
   19.5782    1.7817   11.9958 C   0  0  0  0  0  0  0  0  0  0  0  0
   20.4999    2.2476   12.3121 H   0  0  0  0  0  0  0  0  0  0  0  0
   19.6188    0.6075   11.2598 C   0  0  0  0  0  0  0  0  0  0  0  0
   20.5692    0.1607   11.0060 H   0  0  0  0  0  0  0  0  0  0  0  0
   18.4454    0.0046   10.8454 C   0  0  0  0  0  0  0  0  0  0  0  0
   18.4726   -0.9118   10.2705 H   0  0  0  0  0  0  0  0  0  0  0  0
   15.3306   -1.4185   11.9156 C   0  0  0  0  0  0  0  0  0  0  0  0
   14.1267   -2.1144   11.8044 C   0  0  0  0  0  0  0  0  0  0  0  0
   13.4691   -1.9052   10.9670 H   0  0  0  0  0  0  0  0  0  0  0  0
   13.7698   -3.0520   12.7520 C   0  0  0  0  0  0  0  0  0  0  0  0
   12.8336   -3.5826   12.6586 H   0  0  0  0  0  0  0  0  0  0  0  0
   14.6091   -3.2941   13.8292 C   0  0  0  0  0  0  0  0  0  0  0  0
   14.3288   -4.0201   14.5778 H   0  0  0  0  0  0  0  0  0  0  0  0
   15.7999   -2.5980   13.9516 C   0  0  0  0  0  0  0  0  0  0  0  0
   16.4481   -2.7819   14.7959 H   0  0  0  0  0  0  0  0  0  0  0  0
   16.1627   -1.6581   13.0021 C   0  0  0  0  0  0  0  0  0  0  0  0
   17.0863   -1.1065   13.1072 H   0  0  0  0  0  0  0  0  0  0  0  0
   10.6651    1.9039   10.0252 C   0  0  0  0  0  0  0  0  0  0  0  0
   11.0058    2.9474    9.1668 C   0  0  0  0  0  0  0  0  0  0  0  0
   10.2880    4.1258    9.1318 C   0  0  0  0  0  0  0  0  0  0  0  0
   10.5796    4.9173    8.4586 H   0  0  0  0  0  0  0  0  0  0  0  0
    9.2070    4.2776    9.9848 C   0  0  0  0  0  0  0  0  0  0  0  0
    8.6476    5.2006    9.9754 H   0  0  0  0  0  0  0  0  0  0  0  0
    8.8537    3.2559   10.8509 C   0  0  0  0  0  0  0  0  0  0  0  0
    8.0142    3.3798   11.5183 H   0  0  0  0  0  0  0  0  0  0  0  0
    9.5792    2.0781   10.8765 C   0  0  0  0  0  0  0  0  0  0  0  0
    9.3101    1.2888   11.5639 H   0  0  0  0  0  0  0  0  0  0  0  0
   11.4425   -0.3705    8.5015 C   0  0  0  0  0  0  0  0  0  0  0  0
   12.4773   -1.1259    7.9609 C   0  0  0  0  0  0  0  0  0  0  0  0
   13.4226   -1.1780    8.4882 H   0  0  0  0  0  0  0  0  0  0  0  0
   12.3043   -1.7883    6.7607 C   0  0  0  0  0  0  0  0  0  0  0  0
   13.1140   -2.3705    6.3453 H   0  0  0  0  0  0  0  0  0  0  0  0
   11.0950   -1.6909    6.0917 C   0  0  0  0  0  0  0  0  0  0  0  0
   10.9572   -2.2002    5.1496 H   0  0  0  0  0  0  0  0  0  0  0  0
   10.0628   -0.9345    6.6244 C   0  0  0  0  0  0  0  0  0  0  0  0
    9.1227   -0.8580    6.0978 H   0  0  0  0  0  0  0  0  0  0  0  0
   10.2307   -0.2726    7.8269 C   0  0  0  0  0  0  0  0  0  0  0  0
    9.4267    0.3199    8.2434 H   0  0  0  0  0  0  0  0  0  0  0  0
   11.0046   -0.6081   11.3086 C   0  0  0  0  0  0  0  0  0  0  0  0
   11.2055   -0.2554   12.6436 C   0  0  0  0  0  0  0  0  0  0  0  0
   11.7562    0.6486   12.8758 H   0  0  0  0  0  0  0  0  0  0  0  0
   10.7068   -1.0560   13.6525 C   0  0  0  0  0  0  0  0  0  0  0  0
   10.8587   -0.7779   14.6847 H   0  0  0  0  0  0  0  0  0  0  0  0
   10.0211   -2.2195   13.3376 C   0  0  0  0  0  0  0  0  0  0  0  0
    9.6348   -2.8489   14.1261 H   0  0  0  0  0  0  0  0  0  0  0  0
    9.8365   -2.5810   12.0132 C   0  0  0  0  0  0  0  0  0  0  0  0
    9.3075   -3.4912   11.7692 H   0  0  0  0  0  0  0  0  0  0  0  0
   10.3288   -1.7819   10.9957 C   0  0  0  0  0  0  0  0  0  0  0  0
   10.1888   -2.0699    9.9628 H   0  0  0  0  0  0  0  0  0  0  0  0
  2 40  1  0  0  0  0
  3  4  1  0  0  0  0
  5  3  1  0  0  0  0
  5 17  1  0  0  0  0
  5 28  1  0  0  0  0
  6  3  1  0  0  0  0
  6 60  1  0  0  0  0
  7  5  1  0  0  0  0
  8  1  1  0  0  0  0
  8  7  2  0  0  0  0
  9  8  1  0  0  0  0
 10  9  1  0  0  0  0
 11  9  2  0  0  0  0
 11 13  1  0  0  0  0
 12 11  1  0  0  0  0
 13 15  2  0  0  0  0
 14 13  1  0  0  0  0
 15  7  1  0  0  0  0
 15 16  1  0  0  0  0
 17 18  1  0  0  0  0
 18 19  1  0  0  0  0
 18 20  2  0  0  0  0
 20 21  1  0  0  0  0
 22 23  1  0  0  0  0
 22 20  1  0  0  0  0
 24 22  2  0  0  0  0
 25 24  1  0  0  0  0
 26 17  2  0  0  0  0
 26 24  1  0  0  0  0
 27 26  1  0  0  0  0
 28 37  1  0  0  0  0
 29 28  2  0  0  0  0
 29 31  1  0  0  0  0
 30 29  1  0  0  0  0
 31 33  2  0  0  0  0
 32 31  1  0  0  0  0
 33 35  1  0  0  0  0
 33 34  1  0  0  0  0
 35 36  1  0  0  0  0
 37 38  1  0  0  0  0
 37 35  2  0  0  0  0
 39  6  1  0  0  0  0
 39 47  1  0  0  0  0
 40 39  2  0  0  0  0
 41 40  1  0  0  0  0
 41 43  2  0  0  0  0
 42 41  1  0  0  0  0
 43 45  1  0  0  0  0
 44 43  1  0  0  0  0
 45 47  2  0  0  0  0
 45 46  1  0  0  0  0
 47 48  1  0  0  0  0
 49  6  1  0  0  0  0
 50 51  1  0  0  0  0
 50 49  1  0  0  0  0
 52 50  2  0  0  0  0
 53 52  1  0  0  0  0
 54 56  2  0  0  0  0
 54 52  1  0  0  0  0
 55 54  1  0  0  0  0
 56 58  1  0  0  0  0
 57 56  1  0  0  0  0
 58 59  1  0  0  0  0
 58 49  2  0  0  0  0
 60 61  1  0  0  0  0
 61 62  1  0  0  0  0
 61 63  2  0  0  0  0
 63 64  1  0  0  0  0
 65 63  1  0  0  0  0
 65 66  1  0  0  0  0
 67 65  2  0  0  0  0
 68 67  1  0  0  0  0
 69 60  2  0  0  0  0
 69 67  1  0  0  0  0
 70 69  1  0  0  0  0
M  END
$$$$
