CSD_code = EVOBAU | q = 0 | S = 0 | Stoichiometry = C14H24Cl2N8O4Pt | MND = 4
 OpenBabel04212202033D

 53 54  0  0  0  0  0  0  0  0999 V2000
    3.2990    3.1746    8.6191 Pt  0  0  0  0  0  0  0  0  0  0  0  0
    5.5180    2.6244    9.0912 Cl  0  0  0  0  0  0  0  0  0  0  0  0
    2.5318    2.3143    4.0799 O   0  0  0  0  0  0  0  0  0  0  0  0
    2.7037    1.3608    4.0233 H   0  0  0  0  0  0  0  0  0  0  0  0
    3.6072    2.1302    6.0193 O   0  0  0  0  0  0  0  0  0  0  0  0
    4.3783    6.0032    5.8967 N   0  0  0  0  0  0  0  0  0  0  0  0
    5.0571    6.2815    6.9855 N   0  0  0  0  0  0  0  0  0  0  0  0
    4.7892    5.4812    7.9700 N   0  0  0  0  0  2  0  0  0  0  0  0
    3.9029    4.6446    7.5359 N   0  0  0  0  0  0  0  0  0  0  0  0
    6.0536    7.3317    7.0486 C   0  0  0  0  0  0  0  0  0  0  0  0
    7.2752    6.8364    6.2715 C   0  0  0  0  0  0  0  0  0  0  0  0
    7.6648    5.9270    6.7235 H   0  0  0  0  0  0  0  0  0  0  0  0
    8.0544    7.5932    6.2842 H   0  0  0  0  0  0  0  0  0  0  0  0
    7.0043    6.6276    5.2392 H   0  0  0  0  0  0  0  0  0  0  0  0
    6.3929    7.5673    8.5150 C   0  0  0  0  0  0  0  0  0  0  0  0
    5.5085    7.8771    9.0655 H   0  0  0  0  0  0  0  0  0  0  0  0
    7.1477    8.3444    8.5950 H   0  0  0  0  0  0  0  0  0  0  0  0
    6.7715    6.6549    8.9667 H   0  0  0  0  0  0  0  0  0  0  0  0
    5.4576    8.5778    6.3978 C   0  0  0  0  0  0  0  0  0  0  0  0
    5.1626    8.3610    5.3747 H   0  0  0  0  0  0  0  0  0  0  0  0
    6.1923    9.3777    6.3930 H   0  0  0  0  0  0  0  0  0  0  0  0
    4.5815    8.9124    6.9484 H   0  0  0  0  0  0  0  0  0  0  0  0
    3.6405    4.9686    6.2477 C   0  0  0  0  0  0  0  0  0  0  0  0
    2.6651    4.2671    5.3858 C   0  0  0  0  0  0  0  0  0  0  0  0
    2.5814    4.7521    4.4156 H   0  0  0  0  0  0  0  0  0  0  0  0
    1.6922    4.2760    5.9053 H   0  0  0  0  0  0  0  0  0  0  0  0
    3.0065    2.8036    5.2275 C   0  0  0  0  0  0  0  0  0  0  0  0
    1.0798    3.7246    8.1472 Cl  0  0  0  0  0  0  0  0  0  0  0  0
    4.0617    4.0352   13.1598 O   0  0  0  0  0  0  0  0  0  0  0  0
    3.8891    4.9887   13.2162 H   0  0  0  0  0  0  0  0  0  0  0  0
    2.9899    4.2195   11.2185 O   0  0  0  0  0  0  0  0  0  0  0  0
    2.2180    0.3469   11.3417 N   0  0  0  0  0  0  0  0  0  0  0  0
    1.5395    0.0687   10.2527 N   0  0  0  0  0  0  0  0  0  0  0  0
    1.8083    0.8685    9.2680 N   0  0  0  0  0  2  0  0  0  0  0  0
    2.6948    1.7048    9.7023 N   0  0  0  0  0  0  0  0  0  0  0  0
    0.5426   -0.9811   10.1896 C   0  0  0  0  0  0  0  0  0  0  0  0
   -0.6789   -0.4852   10.9666 C   0  0  0  0  0  0  0  0  0  0  0  0
   -1.0679    0.4244   10.5146 H   0  0  0  0  0  0  0  0  0  0  0  0
   -1.4584   -1.2416   10.9537 H   0  0  0  0  0  0  0  0  0  0  0  0
   -0.4079   -0.2766   11.9989 H   0  0  0  0  0  0  0  0  0  0  0  0
    0.2033   -1.2165    8.7232 C   0  0  0  0  0  0  0  0  0  0  0  0
    1.0875   -1.5270    8.1728 H   0  0  0  0  0  0  0  0  0  0  0  0
   -0.5521   -1.9931    8.6432 H   0  0  0  0  0  0  0  0  0  0  0  0
   -0.1747   -0.3039    8.2714 H   0  0  0  0  0  0  0  0  0  0  0  0
    1.1382   -2.2272   10.8406 C   0  0  0  0  0  0  0  0  0  0  0  0
    1.4332   -2.0104   11.8637 H   0  0  0  0  0  0  0  0  0  0  0  0
    0.4032   -3.0270   10.8454 H   0  0  0  0  0  0  0  0  0  0  0  0
    2.0141   -2.5623   10.2900 H   0  0  0  0  0  0  0  0  0  0  0  0
    2.9565    1.3811   10.9906 C   0  0  0  0  0  0  0  0  0  0  0  0
    3.9313    2.0826   11.8531 C   0  0  0  0  0  0  0  0  0  0  0  0
    4.0142    1.5976   12.8234 H   0  0  0  0  0  0  0  0  0  0  0  0
    4.9047    2.0737   11.3345 H   0  0  0  0  0  0  0  0  0  0  0  0
    3.5893    3.5460   12.0112 C   0  0  0  0  0  0  0  0  0  0  0  0
  1  2  1  0  0  0  0
  1 35  1  0  0  0  0
  3 27  1  0  0  0  0
  4  3  1  0  0  0  0
  6 23  2  0  0  0  0
  6  7  1  0  0  0  0
  7 10  1  0  0  0  0
  7  8  1  0  0  0  0
  9  8  1  0  0  0  0
  9  1  1  0  0  0  0
 10 15  1  0  0  0  0
 11 13  1  0  0  0  0
 11 12  1  0  0  0  0
 11 10  1  0  0  0  0
 14 11  1  0  0  0  0
 15 17  1  0  0  0  0
 15 18  1  0  0  0  0
 15 16  1  0  0  0  0
 19 22  1  0  0  0  0
 19 10  1  0  0  0  0
 20 19  1  0  0  0  0
 21 19  1  0  0  0  0
 23  9  1  0  0  0  0
 24 26  1  0  0  0  0
 24 23  1  0  0  0  0
 25 24  1  0  0  0  0
 27 24  1  0  0  0  0
 27  5  2  0  0  0  0
 28  1  1  0  0  0  0
 29 30  1  0  0  0  0
 31 53  2  0  0  0  0
 33 32  1  0  0  0  0
 34 35  1  0  0  0  0
 34 33  1  0  0  0  0
 35 49  1  0  0  0  0
 36 33  1  0  0  0  0
 36 45  1  0  0  0  0
 36 37  1  0  0  0  0
 37 40  1  0  0  0  0
 38 37  1  0  0  0  0
 39 37  1  0  0  0  0
 41 36  1  0  0  0  0
 42 41  1  0  0  0  0
 43 41  1  0  0  0  0
 44 41  1  0  0  0  0
 45 47  1  0  0  0  0
 45 46  1  0  0  0  0
 48 45  1  0  0  0  0
 49 32  2  0  0  0  0
 49 50  1  0  0  0  0
 50 53  1  0  0  0  0
 50 51  1  0  0  0  0
 52 50  1  0  0  0  0
 53 29  1  0  0  0  0
M  END
$$$$
