CSD_code = EVUSAR | q = 1 | S = 0 | Stoichiometry = C32H25ClN5RuS(1+) | MND = 6
 OpenBabel04212202033D

 65 73  0  0  1  0  0  0  0  0999 V2000
    9.3481   20.5125    3.2979 Ru  0  0  0  0  0  0  0  0  0  0  0  0
    9.5760   21.3288    5.4894 Cl  0  0  0  0  0  0  0  0  0  0  0  0
   12.9025   11.7036    8.1315 S   0  0  0  0  0  0  0  0  0  0  0  0
    8.6680   22.2295    2.5281 N   0  0  0  0  0  0  0  0  0  0  0  0
    9.9909   18.8935    4.0308 N   0  0  0  0  0  0  0  0  0  0  0  0
    7.5841   19.7093    3.8638 N   0  0  0  0  0  0  0  0  0  0  0  0
   11.3272   20.8301    3.0592 N   0  0  0  0  0  0  0  0  0  0  0  0
   10.8087   14.9417    7.1440 C   0  0  0  0  0  0  0  0  0  0  0  0
    9.9580   15.4563    7.5643 H   0  0  0  0  0  0  0  0  0  0  0  0
    9.0966   19.9738    1.3920 N   0  0  0  0  0  0  0  0  0  0  0  0
    9.1204   18.0566    4.6189 C   0  0  0  0  0  0  0  0  0  0  0  0
    7.7377   18.5268    4.5111 C   0  0  0  0  0  0  0  0  0  0  0  0
    6.3629   20.2270    3.7623 C   0  0  0  0  0  0  0  0  0  0  0  0
    6.2843   21.1784    3.2484 H   0  0  0  0  0  0  0  0  0  0  0  0
    5.2374   19.6154    4.2827 C   0  0  0  0  0  0  0  0  0  0  0  0
    4.2726   20.0841    4.1798 H   0  0  0  0  0  0  0  0  0  0  0  0
    5.3803   18.4018    4.9420 C   0  0  0  0  0  0  0  0  0  0  0  0
    4.5252   17.8989    5.3649 H   0  0  0  0  0  0  0  0  0  0  0  0
    6.6444   17.8542    5.0529 C   0  0  0  0  0  0  0  0  0  0  0  0
    6.7895   16.9169    5.5643 H   0  0  0  0  0  0  0  0  0  0  0  0
    9.5697   16.9204    5.2756 C   0  0  0  0  0  0  0  0  0  0  0  0
    8.8720   16.2364    5.7287 H   0  0  0  0  0  0  0  0  0  0  0  0
   10.9429   16.6562    5.3450 C   0  0  0  0  0  0  0  0  0  0  0  0
   11.8224   17.5886    4.7813 C   0  0  0  0  0  0  0  0  0  0  0  0
   12.8852   17.4483    4.8861 H   0  0  0  0  0  0  0  0  0  0  0  0
   11.3172   18.7105    4.1406 C   0  0  0  0  0  0  0  0  0  0  0  0
   12.0796   19.8270    3.5778 C   0  0  2  0  0  3  0  0  0  0  0  0
   11.9436   21.9011    2.5666 C   0  0  0  0  0  0  0  0  0  0  0  0
   11.3066   22.6847    2.1723 H   0  0  0  0  0  0  0  0  0  0  0  0
   13.3189   22.0418    2.5533 C   0  0  0  0  0  0  0  0  0  0  0  0
   13.7658   22.9356    2.1500 H   0  0  0  0  0  0  0  0  0  0  0  0
   14.1005   21.0202    3.0763 C   0  0  0  0  0  0  0  0  0  0  0  0
   15.1759   21.0991    3.0889 H   0  0  0  0  0  0  0  0  0  0  0  0
   13.4708   19.9024    3.5903 C   0  0  0  0  0  0  0  0  0  0  0  0
   14.0489   19.0968    4.0119 H   0  0  0  0  0  0  0  0  0  0  0  0
   11.4444   15.4563    6.0091 C   0  0  0  0  0  0  0  0  0  0  0  0
   11.2843   13.8112    7.7638 C   0  0  0  0  0  0  0  0  0  0  0  0
   10.8002   13.4261    8.6477 H   0  0  0  0  0  0  0  0  0  0  0  0
   12.4045   13.1424    7.2628 C   0  0  0  0  0  0  0  0  0  0  0  0
   13.0419   13.6441    6.1321 C   0  0  0  0  0  0  0  0  0  0  0  0
   13.9045   13.1494    5.7164 H   0  0  0  0  0  0  0  0  0  0  0  0
   12.5694   14.7889    5.5240 C   0  0  0  0  0  0  0  0  0  0  0  0
   13.0651   15.1491    4.6341 H   0  0  0  0  0  0  0  0  0  0  0  0
    9.3491   18.7610    0.8940 C   0  0  0  0  0  3  0  0  0  0  0  0
    9.7203   18.0209    1.5930 H   0  0  0  0  0  0  0  0  0  0  0  0
    9.1576   18.4367   -0.4333 C   0  0  0  0  0  0  0  0  0  0  0  0
    9.3770   17.4410   -0.7820 H   0  0  0  0  0  0  0  0  0  0  0  0
    8.6801   19.4131   -1.3009 C   0  0  0  0  0  0  0  0  0  0  0  0
    8.5194   19.1936   -2.3439 H   0  0  0  0  0  0  0  0  0  0  0  0
    8.4154   20.6716   -0.7965 C   0  0  0  0  0  0  0  0  0  0  0  0
    8.0446   21.4472   -1.4455 H   0  0  0  0  0  0  0  0  0  0  0  0
    8.6301   20.9330    0.5564 C   0  0  0  0  0  0  0  0  0  0  0  0
    8.3858   22.2187    1.2024 C   0  0  1  0  0  3  0  0  0  0  0  0
    8.4782   23.3591    3.2130 C   0  0  0  0  0  0  0  0  0  0  0  0
    8.7193   23.3131    4.2687 H   0  0  0  0  0  0  0  0  0  0  0  0
    8.0060   24.5191    2.6288 C   0  0  0  0  0  0  0  0  0  0  0  0
    7.8704   25.4046    3.2277 H   0  0  0  0  0  0  0  0  0  0  0  0
    7.7130   24.5199    1.2701 C   0  0  0  0  0  0  0  0  0  0  0  0
    7.3427   25.4083    0.7841 H   0  0  0  0  0  0  0  0  0  0  0  0
    7.9061   23.3550    0.5514 C   0  0  0  0  0  0  0  0  0  0  0  0
    7.6872   23.3266   -0.5031 H   0  0  0  0  0  0  0  0  0  0  0  0
   14.3589   11.1115    7.2253 C   0  0  0  0  0  0  0  0  0  0  0  0
   14.6857   10.2216    7.7544 H   0  0  0  0  0  0  0  0  0  0  0  0
   14.0851   10.8524    6.2069 H   0  0  0  0  0  0  0  0  0  0  0  0
   15.1441   11.8611    7.2498 H   0  0  0  0  0  0  0  0  0  0  0  0
  1  6  1  0  0  0  0
  1  5  1  0  0  0  0
  1  2  1  0  0  0  0
  4 54  1  0  0  0  0
  4  1  1  0  0  0  0
  5 26  1  0  0  0  0
  5 11  1  0  0  0  0
  6 12  1  0  0  0  0
  7  1  1  0  0  0  0
  7 27  1  0  0  0  0
  8  9  1  0  0  0  0
  8 37  1  0  0  0  0
 10  1  1  0  0  0  0
 11 21  1  0  0  0  0
 12 11  2  0  0  0  0
 12 19  1  0  0  0  0
 13  6  1  0  0  0  0
 13 15  2  0  0  0  0
 14 13  1  0  0  0  0
 15 17  1  0  0  0  0
 16 15  1  0  0  0  0
 17 19  2  0  0  0  0
 17 18  1  0  0  0  0
 19 20  1  0  0  0  0
 21 23  2  0  0  0  0
 21 22  1  0  0  0  0
 23 36  1  0  0  0  0
 24 25  1  0  0  0  0
 24 23  1  0  0  0  0
 26 24  2  0  0  0  0
 27 34  1  1  0  0  0
 27 26  1  0  0  0  0
 28  7  1  0  0  0  0
 29 28  1  0  0  0  0
 30 28  2  0  0  0  0
 30 32  1  0  0  0  0
 31 30  1  0  0  0  0
 32 33  1  0  0  0  0
 32 34  2  0  0  0  0
 34 35  1  0  0  0  0
 36  8  2  0  0  0  0
 37 38  1  0  0  0  0
 39 37  2  0  0  0  0
 39  3  1  0  0  0  0
 40 39  1  0  0  0  0
 41 40  1  0  0  0  0
 42 36  1  0  0  0  0
 42 40  2  0  0  0  0
 43 42  1  0  0  0  0
 44 10  1  0  0  0  0
 44 45  1  0  0  0  0
 46 44  1  0  0  0  0
 47 46  1  0  0  0  0
 48 50  1  0  0  0  0
 48 46  2  0  0  0  0
 49 48  1  0  0  0  0
 50 52  2  0  0  0  0
 51 50  1  0  0  0  0
 52 53  1  0  0  0  0
 52 10  1  0  0  0  0
 53 60  1  1  0  0  0
 53  4  1  0  0  0  0
 54 55  1  0  0  0  0
 56 54  2  0  0  0  0
 56 57  1  0  0  0  0
 58 56  1  0  0  0  0
 59 58  1  0  0  0  0
 60 58  2  0  0  0  0
 61 60  1  0  0  0  0
 62 65  1  0  0  0  0
 62 63  1  0  0  0  0
 62  3  1  0  0  0  0
 64 62  1  0  0  0  0
M  END
$$$$
