CSD_code = EVUWEX | q = 0 | S = 0 | Stoichiometry = C13H14BrN2O3Re | MND = 6
 OpenBabel04212202033D

 34 35  0  0  0  0  0  0  0  0999 V2000
    1.8118    2.0344    3.1559 Re  0  0  0  0  0  0  0  0  0  0  0  0
    1.0397    4.2655    2.1254 Br  0  0  0  0  0  0  0  0  0  0  0  0
    0.9500    2.5407    4.8339 C   0  0  0  0  0  2  0  0  0  0  0  0
    0.1506    1.2265    2.5165 C   0  0  0  0  0  2  0  0  0  0  0  0
    2.4840    0.3591    3.8674 C   0  0  0  0  0  2  0  0  0  0  0  0
    0.4607    2.9261    5.7941 O   0  0  0  0  0  1  0  0  0  0  0  0
   -0.8198    0.8262    2.0625 O   0  0  0  0  0  1  0  0  0  0  0  0
    2.9036   -0.6236    4.2849 O   0  0  0  0  0  1  0  0  0  0  0  0
    2.9044    1.8240    1.3064 N   0  0  0  0  0  0  0  0  0  0  0  0
    2.5014    1.2147    0.1962 C   0  0  0  0  0  3  0  0  0  0  0  0
    1.5773    0.6547    0.2614 H   0  0  0  0  0  0  0  0  0  0  0  0
    3.2002    1.2811   -0.9954 C   0  0  0  0  0  0  0  0  0  0  0  0
    2.8209    0.7735   -1.8673 H   0  0  0  0  0  0  0  0  0  0  0  0
    4.3814    2.0114   -1.0470 C   0  0  0  0  0  0  0  0  0  0  0  0
    4.9455    2.0855   -1.9637 H   0  0  0  0  0  0  0  0  0  0  0  0
    4.8130    2.6452    0.1003 C   0  0  0  0  0  0  0  0  0  0  0  0
    5.7188    3.2311    0.1134 H   0  0  0  0  0  0  0  0  0  0  0  0
    4.0498    2.5360    1.2629 C   0  0  0  0  0  0  0  0  0  0  0  0
    4.4065    3.2032    2.4922 C   0  0  0  0  0  3  0  0  0  0  0  0
    5.3077    3.8130    2.5155 H   0  0  0  0  0  0  0  0  0  0  0  0
    3.6316    3.0911    3.5064 N   0  0  0  0  0  0  0  0  0  0  0  0
    3.9682    3.7798    4.7218 C   0  0  0  0  0  0  0  0  0  0  0  0
    4.8320    4.4411    4.5719 H   0  0  0  0  0  0  0  0  0  0  0  0
    3.1030    4.3873    5.0057 H   0  0  0  0  0  0  0  0  0  0  0  0
    4.2710    2.7786    5.8435 C   0  0  0  0  0  0  0  0  0  0  0  0
    5.1471    2.1902    5.5568 H   0  0  0  0  0  0  0  0  0  0  0  0
    3.4253    2.0927    5.9472 H   0  0  0  0  0  0  0  0  0  0  0  0
    4.5355    3.4649    7.1823 C   0  0  0  0  0  0  0  0  0  0  0  0
    4.8797    2.7042    7.8862 H   0  0  0  0  0  0  0  0  0  0  0  0
    5.3396    4.1958    7.0667 H   0  0  0  0  0  0  0  0  0  0  0  0
    3.3007    4.1469    7.7587 C   0  0  0  0  0  0  0  0  0  0  0  0
    3.5122    4.5175    8.7586 H   0  0  0  0  0  0  0  0  0  0  0  0
    2.4722    3.4455    7.8204 H   0  0  0  0  0  0  0  0  0  0  0  0
    2.9911    4.9918    7.1487 H   0  0  0  0  0  0  0  0  0  0  0  0
  1 21  1  0  0  0  0
  1  5  1  0  0  0  0
  1  3  1  0  0  0  0
  2  1  1  0  0  0  0
  3  6  1  0  0  0  0
  4  1  1  0  0  0  0
  5  8  1  0  0  0  0
  7  4  1  0  0  0  0
  9  1  1  0  0  0  0
 10 11  1  0  0  0  0
 10  9  1  0  0  0  0
 12 10  1  0  0  0  0
 13 12  1  0  0  0  0
 14 12  2  0  0  0  0
 14 16  1  0  0  0  0
 15 14  1  0  0  0  0
 16 17  1  0  0  0  0
 16 18  2  0  0  0  0
 18  9  1  0  0  0  0
 18 19  1  0  0  0  0
 19 20  1  0  0  0  0
 19 21  1  0  0  0  0
 21 22  1  0  0  0  0
 22 24  1  0  0  0  0
 22 25  1  0  0  0  0
 23 22  1  0  0  0  0
 25 27  1  0  0  0  0
 25 28  1  0  0  0  0
 26 25  1  0  0  0  0
 28 31  1  0  0  0  0
 28 29  1  0  0  0  0
 30 28  1  0  0  0  0
 31 33  1  0  0  0  0
 31 32  1  0  0  0  0
 34 31  1  0  0  0  0
M  END
$$$$
