CSD_code = EWAFIR | q = 0 | S = 0 | Stoichiometry = C21H14ClN4O4Re | MND = 6
 OpenBabel04212202033D

 45 48  0  0  0  0  0  0  0  0999 V2000
   14.9017    6.8637   -0.7037 Re  0  0  0  0  0  0  0  0  0  0  0  0
   15.2985    5.1058    0.8163 Cl  0  0  0  0  0  0  0  0  0  0  0  0
   15.9746    6.0155   -2.0910 C   0  0  0  0  0  2  0  0  0  0  0  0
   16.4647    7.8474   -0.0935 C   0  0  0  0  0  2  0  0  0  0  0  0
   14.2968    8.3108   -1.8486 C   0  0  0  0  0  2  0  0  0  0  0  0
   16.6008    5.4530   -2.8668 O   0  0  0  0  0  1  0  0  0  0  0  0
   17.3849    8.3855    0.3278 O   0  0  0  0  0  1  0  0  0  0  0  0
   13.9137    9.1923   -2.4817 O   0  0  0  0  0  1  0  0  0  0  0  0
   13.6356    7.5813    0.9318 N   0  0  0  0  0  0  0  0  0  0  0  0
   14.1339    7.7394    2.1563 C   0  0  0  0  0  3  0  0  0  0  0  0
   15.1882    7.5290    2.2784 H   0  0  0  0  0  0  0  0  0  0  0  0
   13.3704    8.1376    3.2390 C   0  0  0  0  0  0  0  0  0  0  0  0
   13.8294    8.2473    4.2079 H   0  0  0  0  0  0  0  0  0  0  0  0
   12.0192    8.3814    3.0516 C   0  0  0  0  0  0  0  0  0  0  0  0
   11.3882    8.6889    3.8716 H   0  0  0  0  0  0  0  0  0  0  0  0
   11.4925    8.2074    1.7846 C   0  0  0  0  0  0  0  0  0  0  0  0
   10.4377    8.3478    1.5967 H   0  0  0  0  0  0  0  0  0  0  0  0
   12.3301    7.8045    0.7446 C   0  0  0  0  0  0  0  0  0  0  0  0
   11.7108    7.5216   -0.5780 C   0  0  0  0  0  0  0  0  0  0  0  0
   13.1094    5.6395   -1.1713 N   0  0  0  0  0  0  0  0  0  0  0  0
   13.2456    4.3808   -1.5809 C   0  0  0  0  0  3  0  0  0  0  0  0
   14.2522    3.9837   -1.5938 H   0  0  0  0  0  0  0  0  0  0  0  0
   12.1761    3.5936   -1.9674 C   0  0  0  0  0  0  0  0  0  0  0  0
   12.3463    2.5776   -2.2852 H   0  0  0  0  0  0  0  0  0  0  0  0
   10.9020    4.1401   -1.9519 C   0  0  0  0  0  0  0  0  0  0  0  0
   10.0465    3.5640   -2.2699 H   0  0  0  0  0  0  0  0  0  0  0  0
   10.7503    5.4408   -1.5088 C   0  0  0  0  0  0  0  0  0  0  0  0
    9.7869    5.9218   -1.4681 H   0  0  0  0  0  0  0  0  0  0  0  0
   11.8771    6.1528   -1.1097 C   0  0  0  0  0  0  0  0  0  0  0  0
   10.9258    8.2892   -1.2270 N   0  0  0  0  0  0  0  0  0  0  0  0
   10.7100    9.5543   -0.8846 N   0  0  0  0  0  0  0  0  0  0  0  0
   11.2491    9.9862   -0.1333 H   0  0  0  0  0  0  0  0  0  0  0  0
    9.8799   10.3496   -1.6632 C   0  0  0  0  0  0  0  0  0  0  0  0
    9.2652    9.9137   -2.6025 O   0  0  0  0  0  0  0  0  0  0  0  0
    9.8295   11.7678   -1.2190 C   0  0  0  0  0  0  0  0  0  0  0  0
    9.6131   12.7354   -2.1976 C   0  0  0  0  0  0  0  0  0  0  0  0
    9.5023   12.4151   -3.2223 H   0  0  0  0  0  0  0  0  0  0  0  0
    9.5500   14.0729   -1.8565 C   0  0  0  0  0  0  0  0  0  0  0  0
    9.3915   14.8172   -2.6220 H   0  0  0  0  0  0  0  0  0  0  0  0
    9.6849   14.4562   -0.5320 C   0  0  0  0  0  0  0  0  0  0  0  0
    9.6330   15.5002   -0.2619 H   0  0  0  0  0  0  0  0  0  0  0  0
    9.8758   13.4979    0.4501 C   0  0  0  0  0  0  0  0  0  0  0  0
    9.9635   13.7950    1.4847 H   0  0  0  0  0  0  0  0  0  0  0  0
    9.9515   12.1585    0.1125 C   0  0  0  0  0  0  0  0  0  0  0  0
   10.0697   11.4245    0.8979 H   0  0  0  0  0  0  0  0  0  0  0  0
  1  4  1  0  0  0  0
  1  2  1  0  0  0  0
  1  9  1  0  0  0  0
  3  1  1  0  0  0  0
  4  7  1  0  0  0  0
  5  1  1  0  0  0  0
  6  3  1  0  0  0  0
  8  5  1  0  0  0  0
  9 10  1  0  0  0  0
 10 11  1  0  0  0  0
 10 12  1  0  0  0  0
 12 13  1  0  0  0  0
 14 12  2  0  0  0  0
 14 15  1  0  0  0  0
 16 14  1  0  0  0  0
 17 16  1  0  0  0  0
 18  9  1  0  0  0  0
 18 16  2  0  0  0  0
 19 18  1  0  0  0  0
 20 29  1  0  0  0  0
 20  1  1  0  0  0  0
 21 20  1  0  0  0  0
 22 21  1  0  0  0  0
 23 25  2  0  0  0  0
 23 21  1  0  0  0  0
 24 23  1  0  0  0  0
 25 27  1  0  0  0  0
 26 25  1  0  0  0  0
 27 28  1  0  0  0  0
 27 29  2  0  0  0  0
 29 19  1  0  0  0  0
 30 31  1  0  0  0  0
 30 19  2  0  0  0  0
 31 32  1  0  0  0  0
 33 35  1  0  0  0  0
 33 31  1  0  0  0  0
 34 33  2  0  0  0  0
 35 44  1  0  0  0  0
 36 38  1  0  0  0  0
 36 35  2  0  0  0  0
 37 36  1  0  0  0  0
 38 40  2  0  0  0  0
 39 38  1  0  0  0  0
 40 41  1  0  0  0  0
 40 42  1  0  0  0  0
 42 43  1  0  0  0  0
 44 42  2  0  0  0  0
 44 45  1  0  0  0  0
M  END
$$$$
