CSD_code = EWAGOA | q = 0 | S = 0 | Stoichiometry = C34H27ClN2OPd | MND = 4
 OpenBabel04212202033D

 66 73  0  0  0  0  0  0  0  0999 V2000
    7.4736    5.4154    4.0180 Pd  0  0  2  0  0  0  0  0  0  0  0  0
    5.9301    4.6599    2.6275 Cl  0  0  0  0  0  0  0  0  0  0  0  0
   11.0147    6.7167   10.0369 O   0  0  0  0  0  0  0  0  0  0  0  0
    8.9778    4.1041    3.3373 N   0  0  0  0  0  0  0  0  0  0  0  0
    9.1543    6.2060    1.3323 C   0  0  0  0  0  0  0  0  0  0  0  0
    8.5230    6.4969    2.2062 H   0  0  0  0  0  0  0  0  0  0  0  0
    8.8372    6.8147    0.4832 H   0  0  0  0  0  0  0  0  0  0  0  0
   10.0996    3.8915    3.9128 C   0  0  0  0  0  0  0  0  0  0  0  0
    8.2303    2.1312    0.3277 C   0  0  0  0  0  0  0  0  0  0  0  0
    7.9369    1.1306    0.0558 H   0  0  0  0  0  0  0  0  0  0  0  0
   10.0031    6.9894    9.4362 C   0  0  0  0  0  0  0  0  0  0  0  0
    9.1396    7.4365    9.9699 H   0  0  0  0  0  0  0  0  0  0  0  0
   10.1757    5.5604    7.3665 C   0  0  0  0  0  0  0  0  0  0  0  0
   10.3245    4.1830    5.3374 C   0  0  0  0  0  0  0  0  0  0  0  0
   11.2288    3.3753    6.0071 C   0  0  0  0  0  3  0  0  0  0  0  0
   11.6636    2.5288    5.5004 H   0  0  0  0  0  0  0  0  0  0  0  0
    8.6949    5.9836    5.5074 N   0  0  0  0  0  0  0  0  0  0  0  0
   11.0796    4.6855    7.9992 C   0  0  0  0  0  0  0  0  0  0  0  0
   11.3907    4.8948    9.0090 H   0  0  0  0  0  0  0  0  0  0  0  0
    8.4184    3.0753   -0.6667 C   0  0  0  0  0  0  0  0  0  0  0  0
    8.2883    2.7981   -1.7019 H   0  0  0  0  0  0  0  0  0  0  0  0
    8.9033    4.7589    0.9880 C   0  0  0  0  0  0  0  0  0  0  0  0
    7.7118   11.4398    8.6399 C   0  0  0  0  0  0  0  0  0  0  0  0
    7.4248   12.4236    8.9801 H   0  0  0  0  0  0  0  0  0  0  0  0
   11.5755    3.5968    7.3371 C   0  0  0  0  0  0  0  0  0  0  0  0
   12.2571    2.9214    7.8303 H   0  0  0  0  0  0  0  0  0  0  0  0
    9.7019    6.7333    8.0226 C   0  0  0  0  0  0  0  0  0  0  0  0
    8.8116    7.5642    7.3387 C   0  0  0  0  0  0  0  0  0  0  0  0
    9.7086    5.2635    6.0456 C   0  0  0  0  0  0  0  0  0  0  0  0
   11.2686    3.3152    3.1538 C   0  0  0  0  0  0  0  0  0  0  0  0
   11.2935    2.2308    3.2603 H   0  0  0  0  0  0  0  0  0  0  0  0
   12.2098    3.7197    3.5180 H   0  0  0  0  0  0  0  0  0  0  0  0
   11.1651    3.5350    2.0930 H   0  0  0  0  0  0  0  0  0  0  0  0
    9.2495    9.6098    8.6567 C   0  0  0  0  0  0  0  0  0  0  0  0
   10.2009    9.1944    8.9566 H   0  0  0  0  0  0  0  0  0  0  0  0
    7.0201    7.6532    5.6528 C   0  0  0  0  0  0  0  0  0  0  0  0
    7.4224    0.2260    2.4086 C   0  0  0  0  0  0  0  0  0  0  0  0
    8.0470   -0.3884    1.7634 H   0  0  0  0  0  0  0  0  0  0  0  0
    6.4904    0.4477    1.8955 H   0  0  0  0  0  0  0  0  0  0  0  0
    7.1919   -0.3496    3.3026 H   0  0  0  0  0  0  0  0  0  0  0  0
    8.2335    7.0665    6.1482 C   0  0  0  0  0  0  0  0  0  0  0  0
    8.8900   10.8641    9.0974 C   0  0  0  0  0  0  0  0  0  0  0  0
    9.5311   11.4026    9.7785 H   0  0  0  0  0  0  0  0  0  0  0  0
    5.1073    7.4147    4.2291 C   0  0  0  0  0  0  0  0  0  0  0  0
    4.5502    6.8953    3.4611 H   0  0  0  0  0  0  0  0  0  0  0  0
    5.2279    9.2387    5.8125 C   0  0  0  0  0  0  0  0  0  0  0  0
    4.7588   10.1033    6.2553 H   0  0  0  0  0  0  0  0  0  0  0  0
    6.9287   10.7748    7.7213 C   0  0  0  0  0  0  0  0  0  0  0  0
    6.0467   11.2635    7.3397 H   0  0  0  0  0  0  0  0  0  0  0  0
    8.4333    8.8893    7.7767 C   0  0  0  0  0  0  0  0  0  0  0  0
    6.3445    6.9411    4.6361 C   0  0  0  0  0  0  0  0  0  0  0  0
    8.7278    4.3803   -0.3357 C   0  0  0  0  0  0  0  0  0  0  0  0
    8.8199    5.1263   -1.1113 H   0  0  0  0  0  0  0  0  0  0  0  0
    4.5599    8.5507    4.8199 C   0  0  0  0  0  0  0  0  0  0  0  0
    3.5887    8.8985    4.4971 H   0  0  0  0  0  0  0  0  0  0  0  0
    8.7864    3.7752    1.9760 C   0  0  0  0  0  0  0  0  0  0  0  0
    8.1315    1.5149    2.8002 C   0  0  0  0  0  0  0  0  0  0  0  0
    9.0705    1.2644    3.3061 H   0  0  0  0  0  0  0  0  0  0  0  0
    7.5089    2.0547    3.5275 H   0  0  0  0  0  0  0  0  0  0  0  0
    6.4818    8.8097    6.2516 C   0  0  0  0  0  0  0  0  0  0  0  0
    8.4042    2.4638    1.6608 C   0  0  0  0  0  0  0  0  0  0  0  0
    7.2675    9.4996    7.2600 C   0  0  0  0  0  0  0  0  0  0  0  0
   10.6205    6.5202    1.6406 C   0  0  0  0  0  0  0  0  0  0  0  0
   11.2620    6.1570    0.8393 H   0  0  0  0  0  0  0  0  0  0  0  0
   10.9363    6.0634    2.5758 H   0  0  0  0  0  0  0  0  0  0  0  0
   10.7580    7.5956    1.7293 H   0  0  0  0  0  0  0  0  0  0  0  0
  1  2  1  1  0  0  0
  1 51  2  0  0  0  0
  1 17  1  0  0  0  0
  4  8  1  0  0  0  0
  4  1  1  0  0  0  0
  5 63  1  0  0  0  0
  5  6  1  0  0  0  0
  7  5  1  0  0  0  0
  8 14  2  0  0  0  0
  9 61  1  0  0  0  0
 10  9  1  0  0  0  0
 11 12  1  0  0  0  0
 11  3  2  0  0  0  0
 13 18  1  0  0  0  0
 13 27  1  0  0  0  0
 14 15  1  0  0  0  0
 14 29  1  0  0  0  0
 15 25  1  0  0  0  0
 16 15  1  0  0  0  0
 17 29  1  0  0  0  0
 17 41  1  0  0  0  0
 18 19  1  0  0  0  0
 20 52  1  0  0  0  0
 20  9  2  0  0  0  0
 21 20  1  0  0  0  0
 22  5  1  0  0  0  0
 22 56  1  0  0  0  0
 23 24  1  0  0  0  0
 23 42  1  0  0  0  0
 25 26  1  0  0  0  0
 25 18  2  0  0  0  0
 27 11  1  0  0  0  0
 28 50  1  0  0  0  0
 28 27  2  0  0  0  0
 29 13  2  0  0  0  0
 30 31  1  0  0  0  0
 30 32  1  0  0  0  0
 30  8  1  0  0  0  0
 33 30  1  0  0  0  0
 34 35  1  0  0  0  0
 34 42  2  0  0  0  0
 36 41  2  0  0  0  0
 36 60  1  0  0  0  0
 37 57  1  0  0  0  0
 37 40  1  0  0  0  0
 38 37  1  0  0  0  0
 39 37  1  0  0  0  0
 41 28  1  0  0  0  0
 42 43  1  0  0  0  0
 44 51  1  0  0  0  0
 44 54  2  0  0  0  0
 45 44  1  0  0  0  0
 46 60  2  0  0  0  0
 46 47  1  0  0  0  0
 48 23  2  0  0  0  0
 49 48  1  0  0  0  0
 50 34  1  0  0  0  0
 51 36  1  0  0  0  0
 52 22  2  0  0  0  0
 53 52  1  0  0  0  0
 54 46  1  0  0  0  0
 55 54  1  0  0  0  0
 56  4  1  0  0  0  0
 57 58  1  0  0  0  0
 57 59  1  0  0  0  0
 60 62  1  0  0  0  0
 61 56  2  0  0  0  0
 61 57  1  0  0  0  0
 62 48  1  0  0  0  0
 62 50  2  0  0  0  0
 63 66  1  0  0  0  0
 63 65  1  0  0  0  0
 64 63  1  0  0  0  0
M  END
$$$$
