CSD_code = EWAQEY | q = 0 | S = 0 | Stoichiometry = C22H42Cl2NPZr | MND = 8
 OpenBabel04212202033D

 69 69  0  0  1  0  0  0  0  0999 V2000
   10.8682    3.6942    3.2663 Zr  0  0  0  0  0  0  0  0  0  0  0  0
   11.7123    5.3772    1.8737 Cl  0  0  0  0  0  0  0  0  0  0  0  0
    9.6351    2.4514    1.7162 Cl  0  0  0  0  0  0  0  0  0  0  0  0
   13.5196    1.7538    3.4835 P   0  0  0  0  0  4  0  0  0  0  0  0
   12.4629    2.7864    3.9446 N   0  0  0  0  0  2  0  0  0  0  0  0
   10.4969    5.2172    5.1167 C   0  0  2  0  0  0  0  0  0  0  0  0
   10.2366    3.9041    5.6137 C   0  0  0  0  0  0  0  0  0  0  0  0
    9.0850    3.4059    4.9344 C   0  0  0  0  0  0  0  0  0  0  0  0
    8.6258    4.4189    4.0463 C   0  0  0  0  0  0  0  0  0  0  0  0
    9.4914    5.5353    4.1605 C   0  0  0  0  0  0  0  0  0  0  0  0
   11.6168    6.1328    5.5356 C   0  0  0  0  0  0  0  0  0  0  0  0
   11.2248    7.0276    6.0239 H   0  0  0  0  0  0  0  0  0  0  0  0
   12.2009    6.4492    4.6645 H   0  0  0  0  0  0  0  0  0  0  0  0
   12.2850    5.6311    6.2335 H   0  0  0  0  0  0  0  0  0  0  0  0
   10.9454    3.2671    6.7785 C   0  0  0  0  0  0  0  0  0  0  0  0
   10.6126    3.7221    7.7150 H   0  0  0  0  0  0  0  0  0  0  0  0
   12.0238    3.4043    6.6979 H   0  0  0  0  0  0  0  0  0  0  0  0
   10.7397    2.1995    6.8307 H   0  0  0  0  0  0  0  0  0  0  0  0
    8.4005    2.0808    5.1448 C   0  0  0  0  0  0  0  0  0  0  0  0
    7.3624    2.2328    5.4462 H   0  0  0  0  0  0  0  0  0  0  0  0
    8.8938    1.5027    5.9241 H   0  0  0  0  0  0  0  0  0  0  0  0
    8.4000    1.4896    4.2230 H   0  0  0  0  0  0  0  0  0  0  0  0
    7.3781    4.3599    3.2099 C   0  0  0  0  0  0  0  0  0  0  0  0
    6.5476    4.8472    3.7276 H   0  0  0  0  0  0  0  0  0  0  0  0
    7.0929    3.3284    3.0064 H   0  0  0  0  0  0  0  0  0  0  0  0
    7.5204    4.8702    2.2552 H   0  0  0  0  0  0  0  0  0  0  0  0
    9.3081    6.8615    3.4773 C   0  0  0  0  0  0  0  0  0  0  0  0
    8.5504    7.4542    3.9968 H   0  0  0  0  0  0  0  0  0  0  0  0
    8.9804    6.7326    2.4439 H   0  0  0  0  0  0  0  0  0  0  0  0
   10.2385    7.4280    3.4710 H   0  0  0  0  0  0  0  0  0  0  0  0
   12.7723   -0.0363    3.5036 C   0  0  0  0  0  0  0  0  0  0  0  0
   13.7692   -1.1816    3.6522 C   0  0  0  0  0  0  0  0  0  0  0  0
   13.2366   -2.1297    3.5688 H   0  0  0  0  0  0  0  0  0  0  0  0
   14.2723   -1.1735    4.6141 H   0  0  0  0  0  0  0  0  0  0  0  0
   14.5211   -1.1504    2.8685 H   0  0  0  0  0  0  0  0  0  0  0  0
   11.9793   -0.2528    2.2142 C   0  0  0  0  0  0  0  0  0  0  0  0
   11.3779   -1.1578    2.3102 H   0  0  0  0  0  0  0  0  0  0  0  0
   12.6283   -0.3910    1.3551 H   0  0  0  0  0  0  0  0  0  0  0  0
   11.2991    0.5815    2.0379 H   0  0  0  0  0  0  0  0  0  0  0  0
   11.7420   -0.0340    4.6351 C   0  0  0  0  0  0  0  0  0  0  0  0
   11.0815   -0.8955    4.5402 H   0  0  0  0  0  0  0  0  0  0  0  0
   11.1406    0.8828    4.5557 H   0  0  0  0  0  0  0  0  0  0  0  0
   12.2022   -0.0731    5.6169 H   0  0  0  0  0  0  0  0  0  0  0  0
   14.2189    2.1177    1.7105 C   0  0  0  0  0  0  0  0  0  0  0  0
   15.1522    1.0664    1.1181 C   0  0  0  0  0  0  0  0  0  0  0  0
   15.5242    1.4263    0.1583 H   0  0  0  0  0  0  0  0  0  0  0  0
   14.6388    0.1258    0.9402 H   0  0  0  0  0  0  0  0  0  0  0  0
   16.0068    0.8758    1.7589 H   0  0  0  0  0  0  0  0  0  0  0  0
   13.0382    2.3578    0.7646 C   0  0  0  0  0  0  0  0  0  0  0  0
   13.3500    3.0070   -0.0544 H   0  0  0  0  0  0  0  0  0  0  0  0
   12.2246    2.8666    1.3024 H   0  0  0  0  0  0  0  0  0  0  0  0
   12.6549    1.4420    0.3250 H   0  0  0  0  0  0  0  0  0  0  0  0
   14.9511    3.4541    1.8397 C   0  0  0  0  0  0  0  0  0  0  0  0
   15.1685    3.8579    0.8509 H   0  0  0  0  0  0  0  0  0  0  0  0
   15.8968    3.3466    2.3620 H   0  0  0  0  0  0  0  0  0  0  0  0
   14.3156    4.1707    2.3665 H   0  0  0  0  0  0  0  0  0  0  0  0
   14.9521    1.8835    4.7759 C   0  0  0  0  0  0  0  0  0  0  0  0
   16.2790    1.2245    4.4189 C   0  0  0  0  0  0  0  0  0  0  0  0
   16.9413    1.2694    5.2845 H   0  0  0  0  0  0  0  0  0  0  0  0
   16.7763    1.7394    3.6014 H   0  0  0  0  0  0  0  0  0  0  0  0
   16.1501    0.1803    4.1493 H   0  0  0  0  0  0  0  0  0  0  0  0
   15.1507    3.3778    5.0521 C   0  0  0  0  0  0  0  0  0  0  0  0
   15.5607    3.5224    6.0510 H   0  0  0  0  0  0  0  0  0  0  0  0
   14.1844    3.8842    4.9940 H   0  0  0  0  0  0  0  0  0  0  0  0
   15.8327    3.8453    4.3504 H   0  0  0  0  0  0  0  0  0  0  0  0
   14.4161    1.2775    6.0743 C   0  0  0  0  0  0  0  0  0  0  0  0
   15.0751    1.5375    6.9033 H   0  0  0  0  0  0  0  0  0  0  0  0
   14.3616    0.1944    6.0335 H   0  0  0  0  0  0  0  0  0  0  0  0
   13.4289    1.6841    6.2806 H   0  0  0  0  0  0  0  0  0  0  0  0
  1  5  1  0  0  0  0
  1  6  1  0  0  0  0
  2  1  1  0  0  0  0
  3  1  1  0  0  0  0
  4 31  1  0  0  0  0
  4  5  1  0  0  0  0
  4 57  1  0  0  0  0
  6 11  1  1  0  0  0
  6  7  1  0  0  0  0
  7 15  1  0  0  0  0
  8 19  1  0  0  0  0
  8  7  2  0  0  0  0
  9 10  2  0  0  0  0
  9  8  1  0  0  0  0
 10  6  1  0  0  0  0
 11 12  1  0  0  0  0
 11 14  1  0  0  0  0
 13 11  1  0  0  0  0
 15 18  1  0  0  0  0
 15 16  1  0  0  0  0
 17 15  1  0  0  0  0
 19 20  1  0  0  0  0
 19 21  1  0  0  0  0
 22 19  1  0  0  0  0
 23 24  1  0  0  0  0
 23  9  1  0  0  0  0
 25 23  1  0  0  0  0
 26 23  1  0  0  0  0
 27 28  1  0  0  0  0
 27 10  1  0  0  0  0
 29 27  1  0  0  0  0
 30 27  1  0  0  0  0
 31 32  1  0  0  0  0
 31 40  1  0  0  0  0
 32 34  1  0  0  0  0
 33 32  1  0  0  0  0
 35 32  1  0  0  0  0
 36 37  1  0  0  0  0
 36 31  1  0  0  0  0
 38 36  1  0  0  0  0
 39 36  1  0  0  0  0
 40 43  1  0  0  0  0
 41 40  1  0  0  0  0
 42 40  1  0  0  0  0
 44 53  1  0  0  0  0
 44  4  1  0  0  0  0
 45 44  1  0  0  0  0
 45 48  1  0  0  0  0
 46 45  1  0  0  0  0
 47 45  1  0  0  0  0
 49 51  1  0  0  0  0
 49 44  1  0  0  0  0
 50 49  1  0  0  0  0
 52 49  1  0  0  0  0
 53 55  1  0  0  0  0
 53 56  1  0  0  0  0
 54 53  1  0  0  0  0
 57 62  1  0  0  0  0
 57 66  1  0  0  0  0
 58 57  1  0  0  0  0
 58 59  1  0  0  0  0
 60 58  1  0  0  0  0
 61 58  1  0  0  0  0
 62 63  1  0  0  0  0
 64 62  1  0  0  0  0
 65 62  1  0  0  0  0
 66 69  1  0  0  0  0
 66 67  1  0  0  0  0
 68 66  1  0  0  0  0
M  END
$$$$
