CSD_code = EWEJIZ | q = 0 | S = 0 | Stoichiometry = C17H27BCl2N2Si2Ti | MND = 8
 OpenBabel04212202033D

 52 54  0  0  1  0  0  0  0  0999 V2000
   -1.0261    8.9435   14.5010 Ti  0  0  0  0  0  0  0  0  0  0  0  0
   -0.3216   10.7896   15.3706 Cl  0  0  0  0  0  0  0  0  0  0  0  0
   -3.0829    9.5270   14.1418 Cl  0  0  0  0  0  0  0  0  0  0  0  0
   -0.0413    8.7838   12.9335 N   0  0  0  0  0  0  0  0  0  0  0  0
    0.2451    6.5317   11.7535 N   0  0  0  0  0  0  0  0  0  0  0  0
    0.1498    7.3702   12.8941 B   0  0  0  0  0  0  0  0  0  0  0  0
   -0.1335    6.9358   14.3924 C   0  0  1  0  0  0  0  0  0  0  0  0
    0.4578    7.6045   15.5081 C   0  0  0  0  0  3  0  0  0  0  0  0
    1.5085    7.8632   15.6005 H   0  0  0  0  0  0  0  0  0  0  0  0
   -0.5162    7.7604   16.5183 C   0  0  0  0  0  0  0  0  0  0  0  0
   -0.3413    8.1384   17.5184 H   0  0  0  0  0  0  0  0  0  0  0  0
   -1.7275    7.2200   16.0413 C   0  0  0  0  0  0  0  0  0  0  0  0
   -2.6443    7.1195   16.6101 H   0  0  0  0  0  0  0  0  0  0  0  0
   -1.4957    6.7076   14.7466 C   0  0  0  0  0  3  0  0  0  0  0  0
   -2.2174    6.1693   14.1405 H   0  0  0  0  0  0  0  0  0  0  0  0
   -0.4012   10.9764   11.9929 C   0  0  0  0  0  0  0  0  0  0  0  0
   -1.3118   11.0750   12.5837 H   0  0  0  0  0  0  0  0  0  0  0  0
    0.0155   12.0035   11.1687 C   0  0  0  0  0  0  0  0  0  0  0  0
   -0.5646   12.9131   11.1152 H   0  0  0  0  0  0  0  0  0  0  0  0
    1.1706   11.8760   10.4117 C   0  0  0  0  0  0  0  0  0  0  0  0
    1.4917   12.6838    9.7721 H   0  0  0  0  0  0  0  0  0  0  0  0
    1.9115   10.7073   10.4849 C   0  0  0  0  0  0  0  0  0  0  0  0
    2.8149   10.6042    9.9012 H   0  0  0  0  0  0  0  0  0  0  0  0
    1.5068    9.6714   11.3038 C   0  0  0  0  0  0  0  0  0  0  0  0
    2.0774    8.7566   11.3725 H   0  0  0  0  0  0  0  0  0  0  0  0
    0.3420    9.7879   12.0736 C   0  0  0  0  0  0  0  0  0  0  0  0
   -0.8044    6.8722   10.3775 Si  0  0  0  0  0  0  0  0  0  0  0  0
   -2.2092    8.0481   10.9009 C   0  0  0  0  0  0  0  0  0  0  0  0
   -1.9249    9.0894   10.7790 H   0  0  0  0  0  0  0  0  0  0  0  0
   -2.4825    7.9028   11.9480 H   0  0  0  0  0  0  0  0  0  0  0  0
   -3.1000    7.8861   10.3015 H   0  0  0  0  0  0  0  0  0  0  0  0
    0.1720    7.6026    8.9100 C   0  0  0  0  0  0  0  0  0  0  0  0
    1.0468    7.0081    8.6694 H   0  0  0  0  0  0  0  0  0  0  0  0
    0.5060    8.6150    9.1153 H   0  0  0  0  0  0  0  0  0  0  0  0
   -0.4541    7.6366    8.0238 H   0  0  0  0  0  0  0  0  0  0  0  0
   -1.6422    5.2363    9.8610 C   0  0  0  0  0  0  0  0  0  0  0  0
   -0.9253    4.4706    9.5903 H   0  0  0  0  0  0  0  0  0  0  0  0
   -2.2777    5.4055    8.9979 H   0  0  0  0  0  0  0  0  0  0  0  0
   -2.2684    4.8371   10.6527 H   0  0  0  0  0  0  0  0  0  0  0  0
    1.2339    5.0804   11.9451 Si  0  0  0  0  0  0  0  0  0  0  0  0
    2.6042    5.4874   13.2082 C   0  0  0  0  0  0  0  0  0  0  0  0
    3.0249    6.4729   13.0318 H   0  0  0  0  0  0  0  0  0  0  0  0
    3.4155    4.7681   13.1600 H   0  0  0  0  0  0  0  0  0  0  0  0
    2.2151    5.4761   14.2208 H   0  0  0  0  0  0  0  0  0  0  0  0
    2.0641    4.6728   10.2799 C   0  0  0  0  0  0  0  0  0  0  0  0
    2.7454    5.4598    9.9729 H   0  0  0  0  0  0  0  0  0  0  0  0
    1.3456    4.5298    9.4816 H   0  0  0  0  0  0  0  0  0  0  0  0
    2.6418    3.7588   10.3691 H   0  0  0  0  0  0  0  0  0  0  0  0
    0.1847    3.6292   12.6020 C   0  0  0  0  0  0  0  0  0  0  0  0
   -0.5647    3.3092   11.8863 H   0  0  0  0  0  0  0  0  0  0  0  0
   -0.3294    3.9125   13.5159 H   0  0  0  0  0  0  0  0  0  0  0  0
    0.8090    2.7706   12.8281 H   0  0  0  0  0  0  0  0  0  0  0  0
  1  2  1  0  0  0  0
  3  1  1  0  0  0  0
  4  1  1  0  0  0  0
  5 40  1  0  0  0  0
  5  6  1  0  0  0  0
  6  4  1  0  0  0  0
  6  7  1  0  0  0  0
  7  1  1  0  0  0  0
  7 14  1  1  0  0  0
  7  8  1  0  0  0  0
  8  9  1  0  0  0  0
  8 10  1  0  0  0  0
 10 11  1  0  0  0  0
 12 10  2  0  0  0  0
 12 13  1  0  0  0  0
 14 12  1  0  0  0  0
 15 14  1  0  0  0  0
 16 26  1  0  0  0  0
 16 17  1  0  0  0  0
 18 16  2  0  0  0  0
 19 18  1  0  0  0  0
 20 22  2  0  0  0  0
 20 18  1  0  0  0  0
 21 20  1  0  0  0  0
 22 24  1  0  0  0  0
 23 22  1  0  0  0  0
 24 25  1  0  0  0  0
 24 26  2  0  0  0  0
 26  4  1  0  0  0  0
 27 28  1  0  0  0  0
 27  5  1  0  0  0  0
 28 30  1  0  0  0  0
 29 28  1  0  0  0  0
 31 28  1  0  0  0  0
 32 34  1  0  0  0  0
 32 27  1  0  0  0  0
 33 32  1  0  0  0  0
 35 32  1  0  0  0  0
 36 27  1  0  0  0  0
 36 39  1  0  0  0  0
 37 36  1  0  0  0  0
 38 36  1  0  0  0  0
 40 49  1  0  0  0  0
 40 41  1  0  0  0  0
 41 44  1  0  0  0  0
 42 41  1  0  0  0  0
 43 41  1  0  0  0  0
 45 48  1  0  0  0  0
 45 40  1  0  0  0  0
 46 45  1  0  0  0  0
 47 45  1  0  0  0  0
 49 52  1  0  0  0  0
 49 51  1  0  0  0  0
 50 49  1  0  0  0  0
M  END
$$$$
