CSD_code = EWEYEK | q = 0 | S = 0 | Stoichiometry = C14H14ClNOPtS | MND = 4
 OpenBabel04212202033D

 33 35  0  0  0  0  0  0  0  0999 V2000
    2.1313    0.3292    7.5342 Pt  0  0  1  0  0  0  0  0  0  0  0  0
    2.0721    1.4677    5.5741 Cl  0  0  0  0  0  0  0  0  0  0  0  0
    2.3056   -0.6272    9.7232 S   0  0  2  0  0  3  0  0  0  0  0  0
    1.4595   -2.2221    6.8467 O   0  0  0  0  0  0  0  0  0  0  0  0
    1.7203    2.2016    8.7968 N   0  0  0  0  0  0  0  0  0  0  0  0
    2.2905   -1.3937    6.5912 C   0  0  0  0  0  0  0  0  0  0  0  0
    3.4224   -1.5900    5.6193 C   0  0  0  0  0  0  0  0  0  0  0  0
    3.4645   -2.6286    5.2949 H   0  0  0  0  0  0  0  0  0  0  0  0
    3.2467   -0.9399    4.7624 H   0  0  0  0  0  0  0  0  0  0  0  0
    4.3688   -1.2962    6.0707 H   0  0  0  0  0  0  0  0  0  0  0  0
    2.0440    3.4200    8.3913 C   0  0  0  0  0  3  0  0  0  0  0  0
    2.1980    3.5328    7.3256 H   0  0  0  0  0  0  0  0  0  0  0  0
    2.1786    4.4818    9.2708 C   0  0  0  0  0  0  0  0  0  0  0  0
    2.4455    5.4598    8.9047 H   0  0  0  0  0  0  0  0  0  0  0  0
    1.9697    4.2536   10.6216 C   0  0  0  0  0  0  0  0  0  0  0  0
    2.0755    5.0521   11.3406 H   0  0  0  0  0  0  0  0  0  0  0  0
    1.6209    2.9794   11.0406 C   0  0  0  0  0  0  0  0  0  0  0  0
    1.4432    2.7673   12.0838 H   0  0  0  0  0  0  0  0  0  0  0  0
    1.4947    1.9749   10.0910 C   0  0  0  0  0  0  0  0  0  0  0  0
    1.1245    0.5768   10.4671 C   0  0  0  0  0  0  0  0  0  0  0  0
    1.1056    0.4351   11.5472 H   0  0  0  0  0  0  0  0  0  0  0  0
    0.1572    0.2995   10.0418 H   0  0  0  0  0  0  0  0  0  0  0  0
    3.8245    0.1629   10.2639 C   0  0  0  0  0  0  0  0  0  0  0  0
    4.1162    0.2244   11.6176 C   0  0  0  0  0  0  0  0  0  0  0  0
    3.4478   -0.2250   12.3367 H   0  0  0  0  0  0  0  0  0  0  0  0
    5.2690    0.8650   12.0367 C   0  0  0  0  0  0  0  0  0  0  0  0
    5.4957    0.9218   13.0906 H   0  0  0  0  0  0  0  0  0  0  0  0
    6.1311    1.4251   11.1079 C   0  0  0  0  0  0  0  0  0  0  0  0
    7.0288    1.9245   11.4392 H   0  0  0  0  0  0  0  0  0  0  0  0
    5.8455    1.3404    9.7549 C   0  0  0  0  0  0  0  0  0  0  0  0
    6.5177    1.7709    9.0285 H   0  0  0  0  0  0  0  0  0  0  0  0
    4.6910    0.7081    9.3293 C   0  0  0  0  0  0  0  0  0  0  0  0
    4.4442    0.6430    8.2676 H   0  0  0  0  0  0  0  0  0  0  0  0
  1  2  1  6  0  0  0
  1  5  1  0  0  0  0
  1  3  1  0  0  0  0
  3 23  1  1  0  0  0
  3 20  1  0  0  0  0
  5 19  1  0  0  0  0
  6  4  2  0  0  0  0
  6  1  1  0  0  0  0
  7 10  1  0  0  0  0
  7  6  1  0  0  0  0
  8  7  1  0  0  0  0
  9  7  1  0  0  0  0
 11  5  1  0  0  0  0
 11 13  1  0  0  0  0
 12 11  1  0  0  0  0
 13 15  2  0  0  0  0
 14 13  1  0  0  0  0
 15 17  1  0  0  0  0
 15 16  1  0  0  0  0
 17 18  1  0  0  0  0
 19 20  1  0  0  0  0
 19 17  2  0  0  0  0
 20 21  1  0  0  0  0
 22 20  1  0  0  0  0
 23 24  1  0  0  0  0
 24 26  2  0  0  0  0
 24 25  1  0  0  0  0
 26 27  1  0  0  0  0
 28 29  1  0  0  0  0
 28 26  1  0  0  0  0
 30 28  2  0  0  0  0
 31 30  1  0  0  0  0
 32 30  1  0  0  0  0
 32 23  2  0  0  0  0
 33 32  1  0  0  0  0
M  END
$$$$
