CSD_code = EWITOU | q = 0 | S = 0 | Stoichiometry = C26H22ClNO2PtS | MND = 4
 OpenBabel04212202033D

 54 59  0  0  0  0  0  0  0  0999 V2000
    1.3347    2.7728    4.2503 Pt  0  0  2  0  0  0  0  0  0  0  0  0
    0.9148    4.3757    5.9330 Cl  0  0  0  0  0  0  0  0  0  0  0  0
   -0.5210    1.8162    5.1112 S   0  0  0  0  0  0  0  0  0  0  0  0
    0.9628   -1.6217    1.0218 O   0  0  0  0  0  0  0  0  0  0  0  0
   -1.0292    0.5490    4.5964 O   0  0  0  0  0  1  0  0  0  0  0  0
    3.0121    3.6127    3.5587 N   0  0  0  0  0  0  0  0  0  0  0  0
    3.7043    4.5357    4.2263 C   0  0  0  0  0  0  0  0  0  0  0  0
    3.2353    4.9492    5.1100 H   0  0  0  0  0  0  0  0  0  0  0  0
    4.9543    4.9598    3.8230 C   0  0  0  0  0  0  0  0  0  0  0  0
    5.4731    5.7210    4.3819 H   0  0  0  0  0  0  0  0  0  0  0  0
    5.5310    4.3600    2.7089 C   0  0  0  0  0  0  0  0  0  0  0  0
    6.5272    4.6302    2.3935 H   0  0  0  0  0  0  0  0  0  0  0  0
    4.8155    3.4101    2.0139 C   0  0  0  0  0  0  0  0  0  0  0  0
    5.2488    2.9109    1.1636 H   0  0  0  0  0  0  0  0  0  0  0  0
    3.5220    3.0692    2.4240 C   0  0  0  0  0  0  0  0  0  0  0  0
    2.6825    2.0522    1.8246 C   0  0  0  0  0  0  0  0  0  0  0  0
    1.6964    1.5619    2.6939 C   0  0  0  0  0  0  0  0  0  0  0  0
    1.0429    0.3727    2.3891 C   0  0  0  0  0  0  0  0  0  0  0  0
    0.2739    0.0161    3.0546 H   0  0  0  0  0  0  0  0  0  0  0  0
    1.4250   -0.3773    1.2921 C   0  0  0  0  0  0  0  0  0  0  0  0
    2.3419    0.1613    0.3460 C   0  0  0  0  0  0  0  0  0  0  0  0
    2.7478   -0.5973   -0.7793 C   0  0  0  0  0  0  0  0  0  0  0  0
    2.3512   -1.5937   -0.8892 H   0  0  0  0  0  0  0  0  0  0  0  0
    3.6530   -0.0951   -1.6572 C   0  0  0  0  0  0  0  0  0  0  0  0
    4.0361   -0.6998   -2.4663 H   0  0  0  0  0  0  0  0  0  0  0  0
    4.0489    1.2630   -1.5825 C   0  0  0  0  0  0  0  0  0  0  0  0
    4.9281    1.8087   -2.5553 C   0  0  0  0  0  0  0  0  0  0  0  0
    5.3499    1.1398   -3.2919 H   0  0  0  0  0  0  0  0  0  0  0  0
    5.2474    3.1256   -2.5496 C   0  0  0  0  0  0  0  0  0  0  0  0
    5.9554    3.5301   -3.2585 H   0  0  0  0  0  0  0  0  0  0  0  0
    4.5896    4.0190   -1.6629 C   0  0  0  0  0  0  0  0  0  0  0  0
    4.7808    5.4078   -1.7659 C   0  0  0  0  0  0  0  0  0  0  0  0
    5.4991    5.7782   -2.4836 H   0  0  0  0  0  0  0  0  0  0  0  0
    4.0523    6.2776   -0.9990 C   0  0  0  0  0  0  0  0  0  0  0  0
    4.2046    7.3434   -1.0840 H   0  0  0  0  0  0  0  0  0  0  0  0
    3.0690    5.7807   -0.1390 C   0  0  0  0  0  0  0  0  0  0  0  0
    2.4412    6.4676    0.4089 H   0  0  0  0  0  0  0  0  0  0  0  0
    2.8886    4.4294    0.0049 C   0  0  0  0  0  0  0  0  0  0  0  0
    2.0935    4.0688    0.6387 H   0  0  0  0  0  0  0  0  0  0  0  0
    3.6839    3.5070   -0.7005 C   0  0  0  0  0  0  0  0  0  0  0  0
    3.5493    2.0824   -0.5538 C   0  0  0  0  0  0  0  0  0  0  0  0
    2.8693    1.4594    0.5441 C   0  0  0  0  0  0  0  0  0  0  0  0
    0.0475   -2.2083    1.9190 C   0  0  0  0  0  0  0  0  0  0  0  0
   -0.1658   -3.1969    1.5148 H   0  0  0  0  0  0  0  0  0  0  0  0
   -0.8790   -1.6313    1.9832 H   0  0  0  0  0  0  0  0  0  0  0  0
    0.4770   -2.3056    2.9200 H   0  0  0  0  0  0  0  0  0  0  0  0
   -0.4136    1.5967    6.9135 C   0  0  0  0  0  0  0  0  0  0  0  0
    0.3849    0.8885    7.1108 H   0  0  0  0  0  0  0  0  0  0  0  0
   -1.3605    1.1971    7.2576 H   0  0  0  0  0  0  0  0  0  0  0  0
   -0.1897    2.5553    7.3660 H   0  0  0  0  0  0  0  0  0  0  0  0
   -1.9218    2.9745    5.0508 C   0  0  0  0  0  0  0  0  0  0  0  0
   -2.1209    3.1939    4.0062 H   0  0  0  0  0  0  0  0  0  0  0  0
   -1.6428    3.8774    5.5811 H   0  0  0  0  0  0  0  0  0  0  0  0
   -2.7812    2.4918    5.5016 H   0  0  0  0  0  0  0  0  0  0  0  0
  1  3  1  0  0  0  0
  1  2  1  6  0  0  0
  3 47  1  0  0  0  0
  4 20  1  0  0  0  0
  4 43  1  0  0  0  0
  5  3  1  0  0  0  0
  6  7  1  0  0  0  0
  6  1  1  0  0  0  0
  7  8  1  0  0  0  0
  9  7  2  0  0  0  0
  9 10  1  0  0  0  0
 11  9  1  0  0  0  0
 12 11  1  0  0  0  0
 13 15  1  0  0  0  0
 13 11  2  0  0  0  0
 14 13  1  0  0  0  0
 15  6  1  0  0  0  0
 16 15  2  0  0  0  0
 16 17  1  0  0  0  0
 17  1  2  0  0  0  0
 18 17  1  0  0  0  0
 18 19  1  0  0  0  0
 20 18  2  0  0  0  0
 21 42  1  0  0  0  0
 21 20  1  0  0  0  0
 22 21  2  0  0  0  0
 23 22  1  0  0  0  0
 24 26  2  0  0  0  0
 24 22  1  0  0  0  0
 25 24  1  0  0  0  0
 26 41  1  0  0  0  0
 27 29  2  0  0  0  0
 27 26  1  0  0  0  0
 28 27  1  0  0  0  0
 29 31  1  0  0  0  0
 30 29  1  0  0  0  0
 31 40  1  0  0  0  0
 32 31  2  0  0  0  0
 32 34  1  0  0  0  0
 33 32  1  0  0  0  0
 34 36  2  0  0  0  0
 35 34  1  0  0  0  0
 36 38  1  0  0  0  0
 36 37  1  0  0  0  0
 38 39  1  0  0  0  0
 40 41  1  0  0  0  0
 40 38  2  0  0  0  0
 41 42  2  0  0  0  0
 42 16  1  0  0  0  0
 43 45  1  0  0  0  0
 43 46  1  0  0  0  0
 44 43  1  0  0  0  0
 47 48  1  0  0  0  0
 47 49  1  0  0  0  0
 47 50  1  0  0  0  0
 51  3  1  0  0  0  0
 51 54  1  0  0  0  0
 51 53  1  0  0  0  0
 52 51  1  0  0  0  0
M  END
$$$$
