CSD_code = EWIVIQ | q = 0 | S = 0 | Stoichiometry = C21H24Cl2FeN4 | MND = 6
 OpenBabel04212202033D

 52 57  0  0  1  0  0  0  0  0999 V2000
    3.8553    2.1003    9.3334 Fe  0  0  0  0  0  0  0  0  0  0  0  0
    3.2770    1.3902   11.3346 Cl  0  0  0  0  0  0  0  0  0  0  0  0
    2.5485    3.8639    9.4502 Cl  0  0  0  0  0  0  0  0  0  0  0  0
    2.4478    1.1355    8.4800 N   0  0  0  0  0  0  0  0  0  0  0  0
    1.6982    0.1686    9.0169 C   0  0  0  0  0  3  0  0  0  0  0  0
    1.9325   -0.0773   10.0416 H   0  0  0  0  0  0  0  0  0  0  0  0
    0.6704   -0.4559    8.3382 C   0  0  0  0  0  0  0  0  0  0  0  0
    0.0948   -1.2228    8.8310 H   0  0  0  0  0  0  0  0  0  0  0  0
    0.3920   -0.0771    7.0336 C   0  0  0  0  0  0  0  0  0  0  0  0
   -0.4060   -0.5394    6.4738 H   0  0  0  0  0  0  0  0  0  0  0  0
    1.1696    0.9232    6.4677 C   0  0  0  0  0  0  0  0  0  0  0  0
    0.9929    1.2616    5.4580 H   0  0  0  0  0  0  0  0  0  0  0  0
    2.1750    1.5061    7.2161 C   0  0  0  0  0  0  0  0  0  0  0  0
    5.3316    2.9794   10.1917 N   0  0  0  0  0  0  0  0  0  0  0  0
    5.4367    4.2765   10.4878 C   0  0  0  0  0  3  0  0  0  0  0  0
    4.6122    4.8903   10.1585 H   0  0  0  0  0  0  0  0  0  0  0  0
    6.4975    4.8080   11.1949 C   0  0  0  0  0  0  0  0  0  0  0  0
    6.5196    5.8639   11.4108 H   0  0  0  0  0  0  0  0  0  0  0  0
    7.5140    3.9669   11.6215 C   0  0  0  0  0  0  0  0  0  0  0  0
    8.3596    4.3451   12.1744 H   0  0  0  0  0  0  0  0  0  0  0  0
    7.4042    2.6146   11.3304 C   0  0  0  0  0  0  0  0  0  0  0  0
    8.1564    1.9128   11.6575 H   0  0  0  0  0  0  0  0  0  0  0  0
    6.3027    2.1580   10.6311 C   0  0  0  0  0  0  0  0  0  0  0  0
    6.0700    0.7023   10.3464 C   0  0  0  0  0  0  0  0  0  0  0  0
    7.0133    0.1476   10.2562 H   0  0  0  0  0  0  0  0  0  0  0  0
    5.4807    0.3005   11.1766 H   0  0  0  0  0  0  0  0  0  0  0  0
    5.2455    0.6127    9.1444 N   0  0  2  0  0  4  0  0  0  0  0  0
    4.7964   -0.2971    9.1017 H   0  0  0  0  0  0  0  0  0  0  0  0
    6.0167    0.8672    7.9294 C   0  0  0  0  0  0  0  0  0  0  0  0
    6.5519   -0.0267    7.5830 H   0  0  0  0  0  0  0  0  0  0  0  0
    6.7562    1.6365    8.1628 H   0  0  0  0  0  0  0  0  0  0  0  0
    5.0763    1.3780    6.8472 C   0  0  0  0  0  0  0  0  0  0  0  0
    5.6241    1.6119    5.9264 H   0  0  0  0  0  0  0  0  0  0  0  0
    4.3518    0.5918    6.6204 H   0  0  0  0  0  0  0  0  0  0  0  0
    4.3396    2.5427    7.3443 N   0  0  1  0  0  4  0  0  0  0  0  0
    3.0307    2.6195    6.6943 C   0  0  0  0  0  0  0  0  0  0  0  0
    3.1063    2.5940    5.5997 H   0  0  0  0  0  0  0  0  0  0  0  0
    2.5685    3.5582    7.0140 H   0  0  0  0  0  0  0  0  0  0  0  0
    5.0820    3.8038    7.2109 C   0  0  0  0  0  0  0  0  0  0  0  0
    6.0223    3.6993    7.7553 H   0  0  0  0  0  0  0  0  0  0  0  0
    4.4759    4.5582    7.7173 H   0  0  0  0  0  0  0  0  0  0  0  0
    5.3639    4.2202    5.7907 C   0  0  0  0  0  0  0  0  0  0  0  0
    6.5531    3.8565    5.1679 C   0  0  0  0  0  0  0  0  0  0  0  0
    7.3058    3.3112    5.7219 H   0  0  0  0  0  0  0  0  0  0  0  0
    6.7985    4.2061    3.8510 C   0  0  0  0  0  0  0  0  0  0  0  0
    7.7273    3.9157    3.3820 H   0  0  0  0  0  0  0  0  0  0  0  0
    5.8582    4.9307    3.1397 C   0  0  0  0  0  0  0  0  0  0  0  0
    6.0483    5.2034    2.1124 H   0  0  0  0  0  0  0  0  0  0  0  0
    4.6801    5.3174    3.7567 C   0  0  0  0  0  0  0  0  0  0  0  0
    3.9508    5.8984    3.2121 H   0  0  0  0  0  0  0  0  0  0  0  0
    4.4359    4.9664    5.0724 C   0  0  0  0  0  0  0  0  0  0  0  0
    3.5237    5.2861    5.5534 H   0  0  0  0  0  0  0  0  0  0  0  0
  1  3  1  0  0  0  0
  1 14  1  0  0  0  0
  1  2  1  0  0  0  0
  4  5  1  0  0  0  0
  4  1  1  0  0  0  0
  5  6  1  0  0  0  0
  7  8  1  0  0  0  0
  7  5  1  0  0  0  0
  9  7  2  0  0  0  0
 10  9  1  0  0  0  0
 11  9  1  0  0  0  0
 11 13  2  0  0  0  0
 12 11  1  0  0  0  0
 13  4  1  0  0  0  0
 14 15  1  0  0  0  0
 14 23  1  0  0  0  0
 15 17  1  0  0  0  0
 16 15  1  0  0  0  0
 17 18  1  0  0  0  0
 17 19  2  0  0  0  0
 19 20  1  0  0  0  0
 21 19  1  0  0  0  0
 21 22  1  0  0  0  0
 23 21  2  0  0  0  0
 24 23  1  0  0  0  0
 24 26  1  0  0  0  0
 25 24  1  0  0  0  0
 27 28  1  6  0  0  0
 27  1  1  0  0  0  0
 27 24  1  0  0  0  0
 29 31  1  0  0  0  0
 29 27  1  0  0  0  0
 30 29  1  0  0  0  0
 32 35  1  0  0  0  0
 32 29  1  0  0  0  0
 33 32  1  0  0  0  0
 34 32  1  0  0  0  0
 35 39  1  6  0  0  0
 35  1  1  0  0  0  0
 36 38  1  0  0  0  0
 36 13  1  0  0  0  0
 36 35  1  0  0  0  0
 37 36  1  0  0  0  0
 39 41  1  0  0  0  0
 39 40  1  0  0  0  0
 42 39  1  0  0  0  0
 43 44  1  0  0  0  0
 43 42  1  0  0  0  0
 45 43  2  0  0  0  0
 46 45  1  0  0  0  0
 47 49  2  0  0  0  0
 47 45  1  0  0  0  0
 48 47  1  0  0  0  0
 49 51  1  0  0  0  0
 50 49  1  0  0  0  0
 51 52  1  0  0  0  0
 51 42  2  0  0  0  0
M  END
$$$$
