CSD_code = EWIVAI | q = 0 | S = 0 | Stoichiometry = C22H26Cl2FeN4O | MND = 6
 OpenBabel04212202033D

 56 61  0  0  1  0  0  0  0  0999 V2000
    3.3418    1.0284    8.8364 Fe  0  0  0  0  0  0  0  0  0  0  0  0
    2.0623    2.7659    8.4175 Cl  0  0  0  0  0  0  0  0  0  0  0  0
    5.1001    1.9392    7.8751 Cl  0  0  0  0  0  0  0  0  0  0  0  0
    2.9833    0.1951    7.1467 N   0  0  0  0  0  0  0  0  0  0  0  0
    2.0721    0.5628    6.2434 C   0  0  0  0  0  3  0  0  0  0  0  0
    1.4469    1.3929    6.5349 H   0  0  0  0  0  0  0  0  0  0  0  0
    1.9469   -0.0386    5.0065 C   0  0  0  0  0  0  0  0  0  0  0  0
    1.1962    0.3111    4.3164 H   0  0  0  0  0  0  0  0  0  0  0  0
    2.7987   -1.0804    4.6726 C   0  0  0  0  0  0  0  0  0  0  0  0
    2.7307   -1.5758    3.7167 H   0  0  0  0  0  0  0  0  0  0  0  0
    3.7579   -1.4592    5.6012 C   0  0  0  0  0  0  0  0  0  0  0  0
    4.4601   -2.2499    5.3842 H   0  0  0  0  0  0  0  0  0  0  0  0
    3.8290   -0.7969    6.8123 C   0  0  0  0  0  0  0  0  0  0  0  0
    3.7652    1.7788   10.5384 N   0  0  0  0  0  0  0  0  0  0  0  0
    4.9209    2.3422   10.9014 C   0  0  0  0  0  3  0  0  0  0  0  0
    5.6842    2.3550   10.1382 H   0  0  0  0  0  0  0  0  0  0  0  0
    5.1291    2.9063   12.1446 C   0  0  0  0  0  0  0  0  0  0  0  0
    6.0821    3.3556   12.3734 H   0  0  0  0  0  0  0  0  0  0  0  0
    4.1011    2.8919   13.0752 C   0  0  0  0  0  0  0  0  0  0  0  0
    4.2251    3.3281   14.0540 H   0  0  0  0  0  0  0  0  0  0  0  0
    2.9000    2.3023   12.7074 C   0  0  0  0  0  0  0  0  0  0  0  0
    2.0644    2.2680   13.3898 H   0  0  0  0  0  0  0  0  0  0  0  0
    2.7673    1.7661   11.4402 C   0  0  0  0  0  0  0  0  0  0  0  0
    1.4926    1.1494   10.9519 C   0  0  0  0  0  0  0  0  0  0  0  0
    0.8929    0.7482   11.7786 H   0  0  0  0  0  0  0  0  0  0  0  0
    0.9332    1.9332   10.4327 H   0  0  0  0  0  0  0  0  0  0  0  0
    1.8221    0.1275    9.9576 N   0  0  2  0  0  4  0  0  0  0  0  0
    2.4442   -1.0249   10.6143 C   0  0  0  0  0  0  0  0  0  0  0  0
    1.6897   -1.7275   10.9881 H   0  0  0  0  0  0  0  0  0  0  0  0
    3.0202   -0.6581   11.4675 H   0  0  0  0  0  0  0  0  0  0  0  0
    3.3997   -1.7099    9.6478 C   0  0  0  0  0  0  0  0  0  0  0  0
    2.8391   -2.0947    8.7928 H   0  0  0  0  0  0  0  0  0  0  0  0
    3.9001   -2.5561   10.1367 H   0  0  0  0  0  0  0  0  0  0  0  0
    4.3511   -0.7219    9.1440 N   0  0  1  0  0  4  0  0  0  0  0  0
    5.1124   -0.5866    9.8022 H   0  0  0  0  0  0  0  0  0  0  0  0
    4.8864   -1.0917    7.8366 C   0  0  0  0  0  0  0  0  0  0  0  0
    5.2166   -2.1380    7.7938 H   0  0  0  0  0  0  0  0  0  0  0  0
    5.7309   -0.4268    7.6304 H   0  0  0  0  0  0  0  0  0  0  0  0
    0.6500   -0.2303    9.1457 C   0  0  0  0  0  0  0  0  0  0  0  0
    0.9734   -0.9464    8.3882 H   0  0  0  0  0  0  0  0  0  0  0  0
    0.3493    0.6893    8.6393 H   0  0  0  0  0  0  0  0  0  0  0  0
   -0.5030   -0.8062    9.9245 C   0  0  0  0  0  0  0  0  0  0  0  0
   -1.4508    0.0225   10.5213 C   0  0  0  0  0  0  0  0  0  0  0  0
   -1.3833    1.0914   10.3883 H   0  0  0  0  0  0  0  0  0  0  0  0
   -2.4848   -0.5041   11.2628 C   0  0  0  0  0  0  0  0  0  0  0  0
   -3.2215    0.1339   11.7244 H   0  0  0  0  0  0  0  0  0  0  0  0
   -2.6101   -1.8855   11.4276 C   0  0  0  0  0  0  0  0  0  0  0  0
   -3.6626   -2.3012   12.1814 O   0  0  0  0  0  0  0  0  0  0  0  0
   -3.8649   -3.6822   12.3561 C   0  0  0  0  0  0  0  0  0  0  0  0
   -4.7573   -3.7735   12.9729 H   0  0  0  0  0  0  0  0  0  0  0  0
   -3.0205   -4.1512   12.8720 H   0  0  0  0  0  0  0  0  0  0  0  0
   -4.0338   -4.1880   11.3999 H   0  0  0  0  0  0  0  0  0  0  0  0
   -1.6823   -2.7222   10.8189 C   0  0  0  0  0  0  0  0  0  0  0  0
   -1.7559   -3.7948   10.9070 H   0  0  0  0  0  0  0  0  0  0  0  0
   -0.6460   -2.1779   10.0773 C   0  0  0  0  0  0  0  0  0  0  0  0
    0.0519   -2.8491    9.5943 H   0  0  0  0  0  0  0  0  0  0  0  0
  1 34  1  0  0  0  0
  1 27  1  0  0  0  0
  1 14  1  0  0  0  0
  2  1  1  0  0  0  0
  3  1  1  0  0  0  0
  4  1  1  0  0  0  0
  5  6  1  0  0  0  0
  5  4  1  0  0  0  0
  7  5  1  0  0  0  0
  8  7  1  0  0  0  0
  9  7  2  0  0  0  0
  9 11  1  0  0  0  0
 10  9  1  0  0  0  0
 11 13  2  0  0  0  0
 12 11  1  0  0  0  0
 13  4  1  0  0  0  0
 13 36  1  0  0  0  0
 14 15  1  0  0  0  0
 14 23  1  0  0  0  0
 15 17  1  0  0  0  0
 16 15  1  0  0  0  0
 17 18  1  0  0  0  0
 17 19  2  0  0  0  0
 19 20  1  0  0  0  0
 21 19  1  0  0  0  0
 21 22  1  0  0  0  0
 23 21  2  0  0  0  0
 24 23  1  0  0  0  0
 24 25  1  0  0  0  0
 26 24  1  0  0  0  0
 27 39  1  6  0  0  0
 27 28  1  0  0  0  0
 27 24  1  0  0  0  0
 28 29  1  0  0  0  0
 28 30  1  0  0  0  0
 31 33  1  0  0  0  0
 31 28  1  0  0  0  0
 32 31  1  0  0  0  0
 34 31  1  0  0  0  0
 34 35  1  1  0  0  0
 36 34  1  0  0  0  0
 37 36  1  0  0  0  0
 38 36  1  0  0  0  0
 39 42  1  0  0  0  0
 40 39  1  0  0  0  0
 41 39  1  0  0  0  0
 42 55  2  0  0  0  0
 42 43  1  0  0  0  0
 43 45  2  0  0  0  0
 44 43  1  0  0  0  0
 45 47  1  0  0  0  0
 45 46  1  0  0  0  0
 47 48  1  0  0  0  0
 48 49  1  0  0  0  0
 49 51  1  0  0  0  0
 49 50  1  0  0  0  0
 52 49  1  0  0  0  0
 53 54  1  0  0  0  0
 53 47  2  0  0  0  0
 55 53  1  0  0  0  0
 56 55  1  0  0  0  0
M  END
$$$$
