CSD_code = EWOYOF | q = 0 | S = 0 | Stoichiometry = C7H14ClNO3PtS | MND = 4
 OpenBabel04212202033D

 28 29  0  0  1  0  0  0  0  0999 V2000
    0.5247    8.6005    7.8169 Pt  0  0  1  0  0  0  0  0  0  0  0  0
    1.9954    7.1888    6.9280 S   0  0  0  0  0  0  0  0  0  0  0  0
    0.5731    9.6379    5.8380 Cl  0  0  0  0  0  0  0  0  0  0  0  0
   -0.7900    9.8669    8.6870 O   0  0  0  0  0  0  0  0  0  0  0  0
    0.4537    7.7244    9.6923 N   0  0  2  0  0  4  0  0  0  0  0  0
    0.5469    6.7079    9.6549 H   0  0  0  0  0  0  0  0  0  0  0  0
   -1.8683   10.2544   10.5798 O   0  0  0  0  0  0  0  0  0  0  0  0
   -0.8252    8.0965   10.3288 C   0  0  2  0  0  0  0  0  0  0  0  0
   -1.6272    7.4334    9.9910 H   0  0  0  0  0  0  0  0  0  0  0  0
   -1.2096    9.5447    9.8582 C   0  0  0  0  0  0  0  0  0  0  0  0
   -0.5930    8.0355   11.8466 C   0  0  0  0  0  0  0  0  0  0  0  0
   -0.9499    8.9679   12.2864 H   0  0  0  0  0  0  0  0  0  0  0  0
   -1.1385    7.2143   12.3080 H   0  0  0  0  0  0  0  0  0  0  0  0
    1.4742    8.2287   10.6223 C   0  0  0  0  0  0  0  0  0  0  0  0
    1.5356    9.3164   10.5165 H   0  0  0  0  0  0  0  0  0  0  0  0
    2.4444    7.7815   10.4055 H   0  0  0  0  0  0  0  0  0  0  0  0
    0.9255    7.8662   12.0050 C   0  0  0  0  0  0  0  0  0  0  0  0
    1.1749    6.8309   12.2432 H   0  0  0  0  0  0  0  0  0  0  0  0
    1.3350    8.5042   12.7839 H   0  0  0  0  0  0  0  0  0  0  0  0
    2.3698    6.1311    7.8624 O   0  0  0  0  0  1  0  0  0  0  0  0
    3.5144    7.9879    6.3414 C   0  0  0  0  0  0  0  0  0  0  0  0
    4.1622    7.2378    5.9032 H   0  0  0  0  0  0  0  0  0  0  0  0
    4.0024    8.4528    7.1916 H   0  0  0  0  0  0  0  0  0  0  0  0
    3.2156    8.7392    5.6193 H   0  0  0  0  0  0  0  0  0  0  0  0
    1.4665    6.4124    5.3773 C   0  0  0  0  0  0  0  0  0  0  0  0
    2.2690    5.7872    5.0041 H   0  0  0  0  0  0  0  0  0  0  0  0
    1.2220    7.2157    4.6915 H   0  0  0  0  0  0  0  0  0  0  0  0
    0.5881    5.8103    5.5835 H   0  0  0  0  0  0  0  0  0  0  0  0
  1  3  1  1  0  0  0
  1  4  1  0  0  0  0
  1  5  1  0  0  0  0
  2  1  1  0  0  0  0
  2 20  1  0  0  0  0
  4 10  1  0  0  0  0
  5  6  1  6  0  0  0
  5  8  1  0  0  0  0
  5 14  1  0  0  0  0
  8  9  1  6  0  0  0
  8 11  1  0  0  0  0
 10  8  1  0  0  0  0
 10  7  2  0  0  0  0
 11 17  1  0  0  0  0
 11 12  1  0  0  0  0
 11 13  1  0  0  0  0
 14 17  1  0  0  0  0
 15 14  1  0  0  0  0
 16 14  1  0  0  0  0
 17 18  1  0  0  0  0
 17 19  1  0  0  0  0
 21  2  1  0  0  0  0
 21 23  1  0  0  0  0
 22 21  1  0  0  0  0
 24 21  1  0  0  0  0
 25 28  1  0  0  0  0
 25  2  1  0  0  0  0
 26 25  1  0  0  0  0
 27 25  1  0  0  0  0
M  END
$$$$
