CSD_code = EWOZUM | q = 0 | S = 0 | Stoichiometry = C15H27Cl3N2OZn | MND = 4
 OpenBabel04212202033D

 49 52  0  0  1  0  0  0  0  0999 V2000
   10.0732    6.2810    8.6201 N   0  0  1  0  0  4  0  0  0  0  0  0
   10.2561    6.1530    9.6233 H   0  0  0  0  0  0  0  0  0  0  0  0
   11.3127    5.9697    7.8748 C   0  0  0  0  0  0  0  0  0  0  0  0
   11.1169    6.1461    6.8144 H   0  0  0  0  0  0  0  0  0  0  0  0
   11.5498    4.9116    8.0123 H   0  0  0  0  0  0  0  0  0  0  0  0
   12.4660    6.8472    8.3415 C   0  0  0  0  0  0  0  0  0  0  0  0
   12.6804    6.6547    9.3952 H   0  0  0  0  0  0  0  0  0  0  0  0
   13.3574    6.5883    7.7704 H   0  0  0  0  0  0  0  0  0  0  0  0
   12.1082    8.3168    8.1449 C   0  0  0  0  0  0  0  0  0  0  0  0
   11.9679    8.5223    7.0823 H   0  0  0  0  0  0  0  0  0  0  0  0
   12.9195    8.9494    8.5014 H   0  0  0  0  0  0  0  0  0  0  0  0
   10.8293    8.6326    8.9135 C   0  0  0  0  0  0  0  0  0  0  0  0
   10.5195    9.6612    8.7332 H   0  0  0  0  0  0  0  0  0  0  0  0
   11.0122    8.5408    9.9847 H   0  0  0  0  0  0  0  0  0  0  0  0
    9.6789    7.7278    8.4869 C   0  0  2  0  0  0  0  0  0  0  0  0
    9.4611    7.8930    7.4273 H   0  0  0  0  0  0  0  0  0  0  0  0
    8.4069    7.9588    9.3005 C   0  0  1  0  0  0  0  0  0  0  0  0
    8.0877    9.0070    9.2152 H   0  0  0  0  0  0  0  0  0  0  0  0
    7.2931    7.1043    8.7055 C   0  0  0  0  0  0  0  0  0  0  0  0
    7.1924    7.2961    7.6374 H   0  0  0  0  0  0  0  0  0  0  0  0
    6.3531    7.3632    9.1908 H   0  0  0  0  0  0  0  0  0  0  0  0
    7.6579    5.6517    8.9716 C   0  0  1  0  0  0  0  0  0  0  0  0
    6.9002    4.9917    8.5409 H   0  0  0  0  0  0  0  0  0  0  0  0
    8.9747    5.3563    8.2402 C   0  0  0  0  0  0  0  0  0  0  0  0
    9.3091    4.3333    8.4364 H   0  0  0  0  0  0  0  0  0  0  0  0
    8.8108    5.4665    7.1656 H   0  0  0  0  0  0  0  0  0  0  0  0
    7.7422    5.3740   10.4879 C   0  0  2  0  0  0  0  0  0  0  0  0
    8.7250    4.9488   10.7382 H   0  0  0  0  0  0  0  0  0  0  0  0
    6.6591    4.4107   10.9684 C   0  0  0  0  0  0  0  0  0  0  0  0
    6.6636    3.5126   10.3474 H   0  0  0  0  0  0  0  0  0  0  0  0
    5.6995    4.9197   10.8631 H   0  0  0  0  0  0  0  0  0  0  0  0
    6.8846    4.0565   12.4361 C   0  0  0  0  0  0  0  0  0  0  0  0
    6.0818    3.4079   12.7849 H   0  0  0  0  0  0  0  0  0  0  0  0
    7.8289    3.5125   12.5470 H   0  0  0  0  0  0  0  0  0  0  0  0
    6.9166    5.3385   13.2618 C   0  0  0  0  0  0  0  0  0  0  0  0
    7.1430    5.1277   14.3063 H   0  0  0  0  0  0  0  0  0  0  0  0
    5.9453    5.8321   13.2088 H   0  0  0  0  0  0  0  0  0  0  0  0
    7.9569    6.3017   12.7138 C   0  0  0  0  0  0  0  0  0  0  0  0
    7.9391    7.2467   13.2663 H   0  0  0  0  0  0  0  0  0  0  0  0
    8.9610    5.8686   12.7494 H   0  0  0  0  0  0  0  0  0  0  0  0
    7.6154    6.6412   11.2980 N   0  0  1  0  0  4  0  0  0  0  0  0
    8.5980    7.6350   10.7939 C   0  0  0  0  0  0  0  0  0  0  0  0
    9.5962    7.2487   11.0301 H   0  0  0  0  0  0  0  0  0  0  0  0
    8.4395    8.5314   11.4056 H   0  0  0  0  0  0  0  0  0  0  0  0
    6.3610    7.1120   11.2412 O   0  0  0  0  0  0  0  0  0  0  0  0
    5.7842    9.1022   11.8459 Zn  0  0  0  0  0  0  0  0  0  0  0  0
    3.7589    8.7781   12.6351 Cl  0  0  0  0  0  0  0  0  0  0  0  0
    7.6363    9.5247   13.2557 Cl  0  0  0  0  0  0  0  0  0  0  0  0
    6.2732   10.1737    9.8478 Cl  0  0  0  0  0  0  0  0  0  0  0  0
  1  2  1  1  0  0  0
  3  5  1  0  0  0  0
  3  6  1  0  0  0  0
  3  1  1  0  0  0  0
  4  3  1  0  0  0  0
  6  7  1  0  0  0  0
  8  6  1  0  0  0  0
  9  6  1  0  0  0  0
  9 11  1  0  0  0  0
  9 12  1  0  0  0  0
 10  9  1  0  0  0  0
 12 14  1  0  0  0  0
 13 12  1  0  0  0  0
 15 16  1  6  0  0  0
 15  1  1  0  0  0  0
 15 12  1  0  0  0  0
 15 17  1  0  0  0  0
 17 18  1  6  0  0  0
 17 42  1  0  0  0  0
 19 22  1  0  0  0  0
 19 21  1  0  0  0  0
 19 17  1  0  0  0  0
 20 19  1  0  0  0  0
 22 23  1  6  0  0  0
 22 27  1  0  0  0  0
 24 25  1  0  0  0  0
 24  1  1  0  0  0  0
 24 22  1  0  0  0  0
 26 24  1  0  0  0  0
 27 28  1  1  0  0  0
 27 29  1  0  0  0  0
 27 41  1  0  0  0  0
 29 32  1  0  0  0  0
 30 29  1  0  0  0  0
 31 29  1  0  0  0  0
 32 34  1  0  0  0  0
 32 33  1  0  0  0  0
 32 35  1  0  0  0  0
 35 36  1  0  0  0  0
 37 35  1  0  0  0  0
 38 40  1  0  0  0  0
 38 35  1  0  0  0  0
 38 39  1  0  0  0  0
 41 45  1  6  0  0  0
 41 38  1  0  0  0  0
 42 43  1  0  0  0  0
 42 41  1  0  0  0  0
 42 44  1  0  0  0  0
 45 46  1  0  0  0  0
 46 47  1  0  0  0  0
 46 48  1  0  0  0  0
 49 46  1  0  0  0  0
M  END
$$$$
