CSD_code = EWUDAD | q = 0 | S = 0 | Stoichiometry = C12H12Cl2N4SZn | MND = 5
 OpenBabel04212202033D

 32 35  0  0  1  0  0  0  0  0999 V2000
    1.4862    5.0311    4.2085 Zn  0  0  0  0  0  0  0  0  0  0  0  0
    1.8769    2.9388    3.6516 Cl  0  0  0  0  0  0  0  0  0  0  0  0
    2.9807    6.1569    5.5494 Cl  0  0  0  0  0  0  0  0  0  0  0  0
   -0.6430    5.1067    5.8417 S   0  0  0  0  0  0  0  0  0  0  0  0
    1.7309    5.9309    2.2182 N   0  0  0  0  0  0  0  0  0  0  0  0
    0.5622    7.1814    4.2135 N   0  0  1  0  0  0  0  0  0  0  0  0
    0.3122    7.5531    5.4710 N   0  0  0  0  0  0  0  0  0  0  0  0
    0.8199    8.3452    5.8659 H   0  0  0  0  0  0  0  0  0  0  0  0
   -0.3951    7.0309    7.5983 N   0  0  0  0  0  0  0  0  0  0  0  0
    0.0548    7.8563    7.9608 H   0  0  0  0  0  0  0  0  0  0  0  0
   -0.6782    6.3239    8.2569 H   0  0  0  0  0  0  0  0  0  0  0  0
    1.4913    7.2247    2.1100 C   0  0  0  0  0  0  0  0  0  0  0  0
    2.0852    5.2111    1.1468 C   0  0  0  0  0  0  0  0  0  0  0  0
    2.2550    4.1612    1.3376 H   0  0  0  0  0  0  0  0  0  0  0  0
    2.2455    5.7726   -0.0910 C   0  0  0  0  0  0  0  0  0  0  0  0
    2.5765    5.1776   -0.9274 H   0  0  0  0  0  0  0  0  0  0  0  0
    1.9495    7.1383   -0.2739 C   0  0  1  0  0  3  0  0  0  0  0  0
    2.0274    7.7682   -1.5339 C   0  0  0  0  0  0  0  0  0  0  0  0
    2.3686    7.1905   -2.3798 H   0  0  0  0  0  0  0  0  0  0  0  0
    1.6589    9.0757   -1.6787 C   0  0  0  0  0  0  0  0  0  0  0  0
    1.7171    9.5556   -2.6440 H   0  0  0  0  0  0  0  0  0  0  0  0
    1.1753    9.8008   -0.5776 C   0  0  0  0  0  0  0  0  0  0  0  0
    0.8509   10.8209   -0.7186 H   0  0  0  0  0  0  0  0  0  0  0  0
    1.1051    9.2260    0.6611 C   0  0  0  0  0  0  0  0  0  0  0  0
    0.7001    9.7827    1.4905 H   0  0  0  0  0  0  0  0  0  0  0  0
    1.5236    7.8918    0.8556 C   0  0  0  0  0  0  0  0  0  0  0  0
    1.2274    7.8958    3.3892 C   0  0  2  0  0  3  0  0  0  0  0  0
    1.8877    9.1943    3.7391 C   0  0  0  0  0  0  0  0  0  0  0  0
    2.4994    9.5584    2.9207 H   0  0  0  0  0  0  0  0  0  0  0  0
    1.1603    9.9574    4.0182 H   0  0  0  0  0  0  0  0  0  0  0  0
    2.5437    9.0053    4.5929 H   0  0  0  0  0  0  0  0  0  0  0  0
   -0.1917    6.6270    6.3327 C   0  0  1  0  0  3  0  0  0  0  0  0
  1  6  1  0  0  0  0
  1  3  1  0  0  0  0
  1  4  1  0  0  0  0
  2  1  1  0  0  0  0
  4 32  1  0  0  0  0
  5  1  1  0  0  0  0
  6  7  1  1  0  0  0
  7  8  1  0  0  0  0
  7 32  1  0  0  0  0
  9 10  1  0  0  0  0
  9 11  1  0  0  0  0
 12  5  1  0  0  0  0
 12 27  1  0  0  0  0
 13 14  1  0  0  0  0
 13  5  1  0  0  0  0
 15 13  2  0  0  0  0
 16 15  1  0  0  0  0
 17 18  1  6  0  0  0
 17 15  1  0  0  0  0
 17 26  1  0  0  0  0
 19 18  1  0  0  0  0
 20 18  2  0  0  0  0
 20 22  1  0  0  0  0
 21 20  1  0  0  0  0
 22 24  2  0  0  0  0
 23 22  1  0  0  0  0
 24 26  1  0  0  0  0
 24 25  1  0  0  0  0
 26 12  2  0  0  0  0
 27 28  1  1  0  0  0
 27  6  1  0  0  0  0
 28 30  1  0  0  0  0
 28 31  1  0  0  0  0
 29 28  1  0  0  0  0
 32  9  1  6  0  0  0
M  END
$$$$
