CSD_code = EWUKOX | q = 0 | S = 0 | Stoichiometry = C16H15CuIN3S | MND = 2
 OpenBabel04212202033D

 37 39  0  0  0  0  0  0  0  0999 V2000
    4.1827    0.5197    6.6547 Cu  0  0  0  0  0  0  0  0  0  0  0  0
    6.2438    1.8918    6.6998 I   0  0  0  0  0  0  0  0  0  0  0  0
    5.2576   -1.8964    8.6116 S   0  0  0  0  0  0  0  0  0  0  0  0
    2.8787   -0.9235    6.6916 C   0  0  0  0  0  0  0  0  0  0  0  0
    1.2787   -2.4524    6.8233 N   0  0  0  0  0  0  0  0  0  0  0  0
    2.3626   -3.1011    6.4859 N   0  0  0  0  0  2  0  0  0  0  0  0
    1.5193   -1.1229    6.9651 C   0  0  0  0  0  0  0  0  0  0  0  0
    3.3018   -2.1880    6.4136 N   0  0  0  0  0  0  0  0  0  0  0  0
    0.5298   -0.1255    7.3424 C   0  0  0  0  0  0  0  0  0  0  0  0
   -0.7683   -0.1377    6.8350 C   0  0  0  0  0  0  0  0  0  0  0  0
   -1.0687   -0.8898    6.1205 H   0  0  0  0  0  0  0  0  0  0  0  0
   -1.6688    0.8433    7.2075 C   0  0  0  0  0  0  0  0  0  0  0  0
   -2.6710    0.8274    6.8053 H   0  0  0  0  0  0  0  0  0  0  0  0
   -1.2881    1.8454    8.0839 C   0  0  0  0  0  0  0  0  0  0  0  0
   -1.9953    2.6084    8.3722 H   0  0  0  0  0  0  0  0  0  0  0  0
    0.0053    1.8725    8.5806 C   0  0  0  0  0  0  0  0  0  0  0  0
    0.3099    2.6577    9.2558 H   0  0  0  0  0  0  0  0  0  0  0  0
    0.9105    0.8967    8.2125 C   0  0  0  0  0  0  0  0  0  0  0  0
    1.9187    0.9110    8.5987 H   0  0  0  0  0  0  0  0  0  0  0  0
    4.6249   -2.5188    6.0410 C   0  0  0  0  0  0  0  0  0  0  0  0
    4.8742   -2.9598    4.7520 C   0  0  0  0  0  0  0  0  0  0  0  0
    4.0452   -3.0970    4.0741 H   0  0  0  0  0  0  0  0  0  0  0  0
    6.1750   -3.1921    4.3429 C   0  0  0  0  0  0  0  0  0  0  0  0
    6.3719   -3.5243    3.3360 H   0  0  0  0  0  0  0  0  0  0  0  0
    7.2181   -2.9762    5.2276 C   0  0  0  0  0  0  0  0  0  0  0  0
    8.2374   -3.1333    4.9103 H   0  0  0  0  0  0  0  0  0  0  0  0
    6.9715   -2.5662    6.5249 C   0  0  0  0  0  0  0  0  0  0  0  0
    7.7982   -2.4187    7.1998 H   0  0  0  0  0  0  0  0  0  0  0  0
    5.6704   -2.3410    6.9547 C   0  0  0  0  0  0  0  0  0  0  0  0
    0.0691   -3.1867    7.0554 C   0  0  0  0  0  0  0  0  0  0  0  0
   -0.5162   -3.2683    6.1374 H   0  0  0  0  0  0  0  0  0  0  0  0
   -0.5227   -2.6856    7.8200 H   0  0  0  0  0  0  0  0  0  0  0  0
    0.3391   -4.1889    7.3853 H   0  0  0  0  0  0  0  0  0  0  0  0
    6.8052   -1.2133    9.2592 C   0  0  0  0  0  0  0  0  0  0  0  0
    7.5257   -2.0064    9.4365 H   0  0  0  0  0  0  0  0  0  0  0  0
    6.5398   -0.7404   10.1998 H   0  0  0  0  0  0  0  0  0  0  0  0
    7.1859   -0.4669    8.5680 H   0  0  0  0  0  0  0  0  0  0  0  0
  1  4  1  0  0  0  0
  1  2  1  0  0  0  0
  3 34  1  0  0  0  0
  4  7  2  0  0  0  0
  5  7  1  0  0  0  0
  5 30  1  0  0  0  0
  6  5  1  0  0  0  0
  7  9  1  0  0  0  0
  8  6  1  0  0  0  0
  8  4  1  0  0  0  0
  9 18  1  0  0  0  0
 10 12  1  0  0  0  0
 10  9  2  0  0  0  0
 11 10  1  0  0  0  0
 12 14  2  0  0  0  0
 13 12  1  0  0  0  0
 14 15  1  0  0  0  0
 14 16  1  0  0  0  0
 16 17  1  0  0  0  0
 18 16  2  0  0  0  0
 18 19  1  0  0  0  0
 20  8  1  0  0  0  0
 20 29  1  0  0  0  0
 21 20  2  0  0  0  0
 22 21  1  0  0  0  0
 23 21  1  0  0  0  0
 23 25  2  0  0  0  0
 24 23  1  0  0  0  0
 25 27  1  0  0  0  0
 26 25  1  0  0  0  0
 27 29  2  0  0  0  0
 27 28  1  0  0  0  0
 29  3  1  0  0  0  0
 30 33  1  0  0  0  0
 30 32  1  0  0  0  0
 31 30  1  0  0  0  0
 34 35  1  0  0  0  0
 34 36  1  0  0  0  0
 37 34  1  0  0  0  0
M  END
$$$$
