CSD_code = EXACUB | q = 0 | S = 0 | Stoichiometry = C22H42Cl2OPSc | MND = 8
 OpenBabel04212202033D

 69 69  0  0  1  0  0  0  0  0999 V2000
    4.7504    3.8441    3.2281 Sc  0  0  0  0  0  0  0  0  0  0  0  0
    3.6646    2.5026    1.7092 Cl  0  0  0  0  0  0  0  0  0  0  0  0
    5.9925    5.4587    2.1632 Cl  0  0  0  0  0  0  0  0  0  0  0  0
    7.4077    1.6507    3.3367 P   0  0  0  0  0  4  0  0  0  0  0  0
    6.2663    2.5948    3.6104 O   0  0  0  0  0  0  0  0  0  0  0  0
    3.0420    3.4621    4.9431 C   0  0  0  0  0  0  0  0  0  0  0  0
    4.2047    3.9227    5.6290 C   0  0  0  0  0  0  0  0  0  0  0  0
    4.4561    5.2596    5.2004 C   0  0  2  0  0  0  0  0  0  0  0  0
    3.4391    5.6286    4.2671 C   0  0  0  0  0  0  0  0  0  0  0  0
    2.5670    4.5194    4.1082 C   0  0  0  0  0  0  0  0  0  0  0  0
    2.2959    2.1775    5.1733 C   0  0  0  0  0  0  0  0  0  0  0  0
    2.8399    1.5184    5.8465 H   0  0  0  0  0  0  0  0  0  0  0  0
    2.1251    1.6526    4.2316 H   0  0  0  0  0  0  0  0  0  0  0  0
    1.3211    2.3885    5.6177 H   0  0  0  0  0  0  0  0  0  0  0  0
    4.8285    3.2609    6.8280 C   0  0  0  0  0  0  0  0  0  0  0  0
    4.2717    3.5351    7.7278 H   0  0  0  0  0  0  0  0  0  0  0  0
    5.8597    3.5807    6.9663 H   0  0  0  0  0  0  0  0  0  0  0  0
    4.8066    2.1754    6.7435 H   0  0  0  0  0  0  0  0  0  0  0  0
    5.4794    6.2153    5.7469 C   0  0  0  0  0  0  0  0  0  0  0  0
    4.9855    7.0065    6.3148 H   0  0  0  0  0  0  0  0  0  0  0  0
    6.0412    6.6863    4.9386 H   0  0  0  0  0  0  0  0  0  0  0  0
    6.1809    5.7101    6.4076 H   0  0  0  0  0  0  0  0  0  0  0  0
    3.2510    7.0215    3.7343 C   0  0  0  0  0  0  0  0  0  0  0  0
    2.5210    7.0402    2.9275 H   0  0  0  0  0  0  0  0  0  0  0  0
    4.1900    7.4265    3.3566 H   0  0  0  0  0  0  0  0  0  0  0  0
    2.8968    7.6799    4.5313 H   0  0  0  0  0  0  0  0  0  0  0  0
    1.2577    4.4838    3.3709 C   0  0  0  0  0  0  0  0  0  0  0  0
    0.4291    4.5275    4.0819 H   0  0  0  0  0  0  0  0  0  0  0  0
    1.1580    3.5635    2.7949 H   0  0  0  0  0  0  0  0  0  0  0  0
    1.1659    5.3264    2.6887 H   0  0  0  0  0  0  0  0  0  0  0  0
    8.6688    1.9912    4.7317 C   0  0  0  0  0  0  0  0  0  0  0  0
    8.7589    3.5097    4.9205 C   0  0  0  0  0  0  0  0  0  0  0  0
    9.1152    3.7317    5.9257 H   0  0  0  0  0  0  0  0  0  0  0  0
    7.7774    3.9714    4.8000 H   0  0  0  0  0  0  0  0  0  0  0  0
    9.4447    3.9764    4.2229 H   0  0  0  0  0  0  0  0  0  0  0  0
    8.0929    1.4152    6.0259 C   0  0  0  0  0  0  0  0  0  0  0  0
    8.1175    0.3295    6.0365 H   0  0  0  0  0  0  0  0  0  0  0  0
    7.0729    1.7613    6.1658 H   0  0  0  0  0  0  0  0  0  0  0  0
    8.6866    1.7594    6.8728 H   0  0  0  0  0  0  0  0  0  0  0  0
   10.0510    1.3919    4.4965 C   0  0  0  0  0  0  0  0  0  0  0  0
   10.6667    1.5673    5.3786 H   0  0  0  0  0  0  0  0  0  0  0  0
   10.5552    1.8485    3.6502 H   0  0  0  0  0  0  0  0  0  0  0  0
    9.9979    0.3190    4.3327 H   0  0  0  0  0  0  0  0  0  0  0  0
    6.6662   -0.1071    3.4241 C   0  0  0  0  0  0  0  0  0  0  0  0
    5.6256   -0.1261    4.5460 C   0  0  0  0  0  0  0  0  0  0  0  0
    5.0152   -1.0232    4.4522 H   0  0  0  0  0  0  0  0  0  0  0  0
    4.9655    0.7378    4.4494 H   0  0  0  0  0  0  0  0  0  0  0  0
    6.0679   -0.1327    5.5362 H   0  0  0  0  0  0  0  0  0  0  0  0
    7.7065   -1.2047    3.6239 C   0  0  0  0  0  0  0  0  0  0  0  0
    8.1884   -1.1422    4.5955 H   0  0  0  0  0  0  0  0  0  0  0  0
    8.4726   -1.1712    2.8544 H   0  0  0  0  0  0  0  0  0  0  0  0
    7.2133   -2.1745    3.5643 H   0  0  0  0  0  0  0  0  0  0  0  0
    5.8977   -0.3693    2.1277 C   0  0  0  0  0  0  0  0  0  0  0  0
    6.5605   -0.5067    1.2788 H   0  0  0  0  0  0  0  0  0  0  0  0
    5.1938    0.4380    1.9259 H   0  0  0  0  0  0  0  0  0  0  0  0
    5.3205   -1.2874    2.2360 H   0  0  0  0  0  0  0  0  0  0  0  0
    8.1423    2.0462    1.6208 C   0  0  0  0  0  0  0  0  0  0  0  0
    7.0075    2.2919    0.6253 C   0  0  0  0  0  0  0  0  0  0  0  0
    7.4287    2.6973   -0.2942 H   0  0  0  0  0  0  0  0  0  0  0  0
    6.3060    3.0351    1.0153 H   0  0  0  0  0  0  0  0  0  0  0  0
    6.4537    1.3972    0.3659 H   0  0  0  0  0  0  0  0  0  0  0  0
    8.9128    3.3636    1.7252 C   0  0  0  0  0  0  0  0  0  0  0  0
    9.8346    3.2605    2.2897 H   0  0  0  0  0  0  0  0  0  0  0  0
    8.2865    4.1395    2.1639 H   0  0  0  0  0  0  0  0  0  0  0  0
    9.1828    3.6955    0.7233 H   0  0  0  0  0  0  0  0  0  0  0  0
    9.0720    0.9507    1.1045 C   0  0  0  0  0  0  0  0  0  0  0  0
    8.5323    0.0371    0.8723 H   0  0  0  0  0  0  0  0  0  0  0  0
    9.8584    0.7189    1.8172 H   0  0  0  0  0  0  0  0  0  0  0  0
    9.5435    1.2949    0.1846 H   0  0  0  0  0  0  0  0  0  0  0  0
  1  5  1  0  0  0  0
  1  8  1  0  0  0  0
  2  1  1  0  0  0  0
  3  1  1  0  0  0  0
  4 44  1  0  0  0  0
  4  5  1  0  0  0  0
  4 31  1  0  0  0  0
  6 11  1  0  0  0  0
  6  7  2  0  0  0  0
  7 15  1  0  0  0  0
  8  7  1  0  0  0  0
  8 19  1  1  0  0  0
  9  8  1  0  0  0  0
 10  9  2  0  0  0  0
 10  6  1  0  0  0  0
 11 14  1  0  0  0  0
 11 12  1  0  0  0  0
 13 11  1  0  0  0  0
 15 17  1  0  0  0  0
 15 16  1  0  0  0  0
 18 15  1  0  0  0  0
 19 20  1  0  0  0  0
 19 22  1  0  0  0  0
 21 19  1  0  0  0  0
 23  9  1  0  0  0  0
 23 26  1  0  0  0  0
 24 23  1  0  0  0  0
 25 23  1  0  0  0  0
 27 28  1  0  0  0  0
 27 10  1  0  0  0  0
 29 27  1  0  0  0  0
 30 27  1  0  0  0  0
 31 32  1  0  0  0  0
 31 36  1  0  0  0  0
 32 33  1  0  0  0  0
 34 32  1  0  0  0  0
 35 32  1  0  0  0  0
 36 37  1  0  0  0  0
 36 38  1  0  0  0  0
 36 39  1  0  0  0  0
 40 31  1  0  0  0  0
 40 41  1  0  0  0  0
 42 40  1  0  0  0  0
 43 40  1  0  0  0  0
 44 49  1  0  0  0  0
 44 45  1  0  0  0  0
 45 48  1  0  0  0  0
 46 45  1  0  0  0  0
 47 45  1  0  0  0  0
 49 50  1  0  0  0  0
 51 49  1  0  0  0  0
 52 49  1  0  0  0  0
 53 56  1  0  0  0  0
 53 44  1  0  0  0  0
 54 53  1  0  0  0  0
 55 53  1  0  0  0  0
 57 62  1  0  0  0  0
 57  4  1  0  0  0  0
 58 60  1  0  0  0  0
 58 57  1  0  0  0  0
 59 58  1  0  0  0  0
 61 58  1  0  0  0  0
 62 64  1  0  0  0  0
 62 63  1  0  0  0  0
 65 62  1  0  0  0  0
 66 57  1  0  0  0  0
 66 68  1  0  0  0  0
 67 66  1  0  0  0  0
 69 66  1  0  0  0  0
M  END
$$$$
