CSD_code = EXEMOL | q = 0 | S = 0 | Stoichiometry = C17H15Cl2N5Ni | MND = 5
 OpenBabel04212202033D

 40 43  0  0  1  0  0  0  0  0999 V2000
    7.1230    1.7586    2.5690 Ni  0  0  0  0  0  0  0  0  0  0  0  0
    7.8570    2.6981    0.8660 Cl  0  0  0  0  0  0  0  0  0  0  0  0
    7.0369    1.6625    4.6600 Cl  0  0  0  0  0  0  0  0  0  0  0  0
    4.6571    2.8616    2.3707 C   0  0  0  0  0  0  0  0  0  0  0  0
    3.2775    2.8421    2.1366 C   0  0  0  0  0  0  0  0  0  0  0  0
    2.8235    1.9284    1.7867 H   0  0  0  0  0  0  0  0  0  0  0  0
    5.2657    4.0360    2.8261 C   0  0  0  0  0  0  0  0  0  0  0  0
    6.3424    4.0503    3.0017 H   0  0  0  0  0  0  0  0  0  0  0  0
    2.5302    3.9798    2.3597 C   0  0  0  0  0  0  0  0  0  0  0  0
    1.4659    3.9620    2.1800 H   0  0  0  0  0  0  0  0  0  0  0  0
    4.5054    5.1661    3.0453 C   0  0  0  0  0  0  0  0  0  0  0  0
    4.9782    6.0698    3.3975 H   0  0  0  0  0  0  0  0  0  0  0  0
    3.1376    5.1416    2.8143 C   0  0  0  0  0  0  0  0  0  0  0  0
    2.5451    6.0269    2.9887 H   0  0  0  0  0  0  0  0  0  0  0  0
    5.4320    1.7223    2.1612 N   0  0  0  0  0  0  0  0  0  0  0  0
    4.8560    0.7085    1.6714 N   0  0  0  0  0  2  0  0  0  0  0  0
    8.9108   -1.1829    2.3031 N   0  0  0  0  0  0  0  0  0  0  0  0
    9.6758   -1.8217    2.1228 H   0  0  0  0  0  0  0  0  0  0  0  0
    9.2077    0.1066    2.7655 N   0  0  0  0  0  0  0  0  0  0  0  0
    9.2285    0.1523    3.7859 H   0  0  0  0  0  0  0  0  0  0  0  0
    6.8567   -0.3655    1.9014 N   0  0  0  0  0  0  0  0  0  0  0  0
    7.6792   -1.3939    1.7667 C   0  0  2  0  0  3  0  0  0  0  0  0
    5.5908   -0.4255    1.4760 C   0  0  0  0  0  0  0  0  0  0  0  0
    5.0759   -1.5757    0.8787 C   0  0  0  0  0  0  0  0  0  0  0  0
    4.0545   -1.6083    0.5421 H   0  0  0  0  0  0  0  0  0  0  0  0
    7.2484   -2.5877    1.1684 C   0  0  0  0  0  0  0  0  0  0  0  0
    7.9218   -3.4223    1.0577 H   0  0  0  0  0  0  0  0  0  0  0  0
    5.9371   -2.6561    0.7323 C   0  0  0  0  0  0  0  0  0  0  0  0
    5.5788   -3.5632    0.2690 H   0  0  0  0  0  0  0  0  0  0  0  0
   10.2850    0.7793    2.1614 C   0  0  0  0  0  0  0  0  0  0  0  0
   10.6113    0.5569    0.8277 C   0  0  0  0  0  0  0  0  0  0  0  0
   10.0414   -0.1493    0.2414 H   0  0  0  0  0  0  0  0  0  0  0  0
   10.9991    1.7211    2.8973 C   0  0  0  0  0  0  0  0  0  0  0  0
   10.7321    1.9036    3.9289 H   0  0  0  0  0  0  0  0  0  0  0  0
   11.6383    1.2733    0.2417 C   0  0  0  0  0  0  0  0  0  0  0  0
   11.8792    1.1013   -0.7967 H   0  0  0  0  0  0  0  0  0  0  0  0
   12.3453    2.2117    0.9724 C   0  0  0  0  0  0  0  0  0  0  0  0
   13.1421    2.7728    0.5084 H   0  0  0  0  0  0  0  0  0  0  0  0
   12.0169    2.4374    2.2995 C   0  0  0  0  0  0  0  0  0  0  0  0
   12.5583    3.1744    2.8739 H   0  0  0  0  0  0  0  0  0  0  0  0
  1  3  1  0  0  0  0
  2  1  1  0  0  0  0
  4  7  1  0  0  0  0
  5  9  1  0  0  0  0
  5  4  2  0  0  0  0
  6  5  1  0  0  0  0
  7  8  1  0  0  0  0
  7 11  2  0  0  0  0
  9 13  2  0  0  0  0
 10  9  1  0  0  0  0
 11 12  1  0  0  0  0
 13 14  1  0  0  0  0
 13 11  1  0  0  0  0
 15  4  1  0  0  0  0
 15  1  1  0  0  0  0
 16 15  1  0  0  0  0
 17 19  1  0  0  0  0
 18 17  1  0  0  0  0
 19 20  1  0  0  0  0
 21  1  1  0  0  0  0
 22 21  1  0  0  0  0
 22 17  1  1  0  0  0
 23 16  1  0  0  0  0
 23 21  1  0  0  0  0
 24 23  2  0  0  0  0
 25 24  1  0  0  0  0
 26 22  1  0  0  0  0
 27 26  1  0  0  0  0
 28 24  1  0  0  0  0
 28 26  2  0  0  0  0
 29 28  1  0  0  0  0
 30 19  1  0  0  0  0
 30 33  1  0  0  0  0
 31 30  2  0  0  0  0
 32 31  1  0  0  0  0
 33 34  1  0  0  0  0
 35 31  1  0  0  0  0
 35 37  2  0  0  0  0
 36 35  1  0  0  0  0
 37 39  1  0  0  0  0
 38 37  1  0  0  0  0
 39 40  1  0  0  0  0
 39 33  2  0  0  0  0
M  END
$$$$
