CSD_code = EXIYUF | q = 0 | S = 0 | Stoichiometry = C19H16IN3Pd | MND = 4
 OpenBabel04212202033D

 40 44  0  0  0  0  0  0  0  0999 V2000
    0.5259    1.2631    1.0301 Pd  0  0  1  0  0  0  0  0  0  0  0  0
    2.4000    1.8941   -0.5416 I   0  0  0  0  0  0  0  0  0  0  0  0
   -1.9886    1.4739    2.2635 N   0  0  0  0  0  0  0  0  0  0  0  0
   -0.9319    0.6683    2.2206 N   0  0  0  0  0  0  0  0  0  0  0  0
    1.2709   -0.7154    1.6211 N   0  0  0  0  0  0  0  0  0  0  0  0
   -1.7839    2.7343    1.6649 C   0  0  0  0  0  0  0  0  0  0  0  0
   -0.5936    2.9149    0.9284 C   0  0  0  0  0  0  0  0  0  0  0  0
   -0.3738    4.1501    0.3384 C   0  0  0  0  0  3  0  0  0  0  0  0
    0.5228    4.3271   -0.2392 H   0  0  0  0  0  0  0  0  0  0  0  0
   -1.3010    5.1779    0.4679 C   0  0  0  0  0  0  0  0  0  0  0  0
   -1.1132    6.1279   -0.0094 H   0  0  0  0  0  0  0  0  0  0  0  0
   -2.4502    4.9911    1.2117 C   0  0  0  0  0  0  0  0  0  0  0  0
   -3.1616    5.7950    1.3293 H   0  0  0  0  0  0  0  0  0  0  0  0
   -2.6960    3.7710    1.8195 C   0  0  0  0  0  0  0  0  0  0  0  0
   -3.5831    3.6472    2.4226 H   0  0  0  0  0  0  0  0  0  0  0  0
   -0.8026   -0.4927    2.8144 C   0  0  0  0  0  0  0  0  0  0  0  0
    0.4272   -1.2301    2.5447 C   0  0  0  0  0  0  0  0  0  0  0  0
    0.7515   -2.4147    3.2176 C   0  0  0  0  0  0  0  0  0  0  0  0
    0.0889   -2.8025    3.9750 H   0  0  0  0  0  0  0  0  0  0  0  0
    1.9281   -3.0701    2.9134 C   0  0  0  0  0  0  0  0  0  0  0  0
    2.1875   -3.9840    3.4267 H   0  0  0  0  0  0  0  0  0  0  0  0
    2.7699   -2.5360    1.9481 C   0  0  0  0  0  0  0  0  0  0  0  0
    3.6958   -3.0181    1.6809 H   0  0  0  0  0  0  0  0  0  0  0  0
    2.3986   -1.3494    1.3361 C   0  0  0  0  0  0  0  0  0  0  0  0
    3.0313   -0.8890    0.5862 H   0  0  0  0  0  0  0  0  0  0  0  0
   -1.7374   -1.0493    3.8198 C   0  0  0  0  0  0  0  0  0  0  0  0
   -2.3623   -2.2798    3.6269 C   0  0  0  0  0  0  0  0  0  0  0  0
   -2.2012   -2.8212    2.7049 H   0  0  0  0  0  0  0  0  0  0  0  0
   -3.1978   -2.7959    4.5997 C   0  0  0  0  0  0  0  0  0  0  0  0
   -3.6844   -3.7462    4.4383 H   0  0  0  0  0  0  0  0  0  0  0  0
   -3.4100   -2.0982    5.7781 C   0  0  0  0  0  0  0  0  0  0  0  0
   -4.0603   -2.5056    6.5372 H   0  0  0  0  0  0  0  0  0  0  0  0
   -2.7831   -0.8809    5.9821 C   0  0  0  0  0  0  0  0  0  0  0  0
   -2.9388   -0.3379    6.9023 H   0  0  0  0  0  0  0  0  0  0  0  0
   -1.9508   -0.3564    5.0095 C   0  0  0  0  0  0  0  0  0  0  0  0
   -1.4477    0.5863    5.1753 H   0  0  0  0  0  0  0  0  0  0  0  0
   -3.3134    1.0408    2.6372 C   0  0  0  0  0  0  0  0  0  0  0  0
   -3.4206   -0.0266    2.4441 H   0  0  0  0  0  0  0  0  0  0  0  0
   -4.0383    1.5723    2.0213 H   0  0  0  0  0  0  0  0  0  0  0  0
   -3.5314    1.2292    3.6925 H   0  0  0  0  0  0  0  0  0  0  0  0
  1  2  1  6  0  0  0
  1  5  1  0  0  0  0
  1  4  1  0  0  0  0
  3 37  1  0  0  0  0
  4  3  1  0  0  0  0
  4 16  1  0  0  0  0
  5 17  1  0  0  0  0
  6 14  2  0  0  0  0
  6  3  1  0  0  0  0
  7  1  2  0  0  0  0
  7  6  1  0  0  0  0
  8 10  1  0  0  0  0
  8  7  1  0  0  0  0
  9  8  1  0  0  0  0
 10 12  2  0  0  0  0
 11 10  1  0  0  0  0
 12 13  1  0  0  0  0
 12 14  1  0  0  0  0
 14 15  1  0  0  0  0
 16 26  1  0  0  0  0
 17 16  2  0  0  0  0
 17 18  1  0  0  0  0
 18 19  1  0  0  0  0
 20 18  2  0  0  0  0
 20 21  1  0  0  0  0
 22 20  1  0  0  0  0
 23 22  1  0  0  0  0
 24  5  1  0  0  0  0
 24 22  2  0  0  0  0
 25 24  1  0  0  0  0
 26 35  1  0  0  0  0
 27 26  2  0  0  0  0
 27 29  1  0  0  0  0
 28 27  1  0  0  0  0
 29 31  2  0  0  0  0
 30 29  1  0  0  0  0
 31 33  1  0  0  0  0
 31 32  1  0  0  0  0
 33 34  1  0  0  0  0
 35 36  1  0  0  0  0
 35 33  2  0  0  0  0
 37 40  1  0  0  0  0
 38 37  1  0  0  0  0
 39 37  1  0  0  0  0
M  END
$$$$
