CSD_code = EXIYIT | q = 0 | S = 0 | Stoichiometry = C19H16ClN3Pd | MND = 4
 OpenBabel04212202033D

 40 44  0  0  0  0  0  0  0  0999 V2000
   -1.8816    0.8322    4.2658 Pd  0  0  2  0  0  0  0  0  0  0  0  0
   -3.0282   -0.5356    2.9988 Cl  0  0  0  0  0  0  0  0  0  0  0  0
   -1.5063    2.9817    5.9972 N   0  0  0  0  0  0  0  0  0  0  0  0
   -0.8196    2.0497    5.3394 N   0  0  0  0  0  0  0  0  0  0  0  0
    0.0905    0.1637    3.7045 N   0  0  0  0  0  0  0  0  0  0  0  0
   -2.9059    2.7967    5.9759 C   0  0  0  0  0  0  0  0  0  0  0  0
   -3.4045    1.7755    5.1363 C   0  0  0  0  0  0  0  0  0  0  0  0
   -4.7769    1.5745    5.0994 C   0  0  0  0  0  3  0  0  0  0  0  0
   -5.1853    0.8035    4.4593 H   0  0  0  0  0  0  0  0  0  0  0  0
   -5.6339    2.3553    5.8664 C   0  0  0  0  0  0  0  0  0  0  0  0
   -6.6999    2.1899    5.8169 H   0  0  0  0  0  0  0  0  0  0  0  0
   -5.1251    3.3332    6.7004 C   0  0  0  0  0  0  0  0  0  0  0  0
   -5.7886    3.9273    7.3115 H   0  0  0  0  0  0  0  0  0  0  0  0
   -3.7592    3.5576    6.7656 C   0  0  0  0  0  0  0  0  0  0  0  0
   -3.3778    4.3067    7.4435 H   0  0  0  0  0  0  0  0  0  0  0  0
    0.4875    1.9176    5.2929 C   0  0  0  0  0  0  0  0  0  0  0  0
    0.9962    0.8518    4.4400 C   0  0  0  0  0  0  0  0  0  0  0  0
    2.3545    0.5103    4.3782 C   0  0  0  0  0  0  0  0  0  0  0  0
    3.0716    1.0393    4.9856 H   0  0  0  0  0  0  0  0  0  0  0  0
    2.7607   -0.5142    3.5473 C   0  0  0  0  0  0  0  0  0  0  0  0
    3.8049   -0.7844    3.4928 H   0  0  0  0  0  0  0  0  0  0  0  0
    1.8146   -1.1951    2.7910 C   0  0  0  0  0  0  0  0  0  0  0  0
    2.0984   -1.9998    2.1329 H   0  0  0  0  0  0  0  0  0  0  0  0
    0.4860   -0.8213    2.9120 C   0  0  0  0  0  0  0  0  0  0  0  0
   -0.3001   -1.3233    2.3585 H   0  0  0  0  0  0  0  0  0  0  0  0
    1.4613    2.6711    6.1162 C   0  0  0  0  0  0  0  0  0  0  0  0
    2.4654    3.4378    5.5273 C   0  0  0  0  0  0  0  0  0  0  0  0
    2.5054    3.5247    4.4505 H   0  0  0  0  0  0  0  0  0  0  0  0
    3.3909    4.0978    6.3138 C   0  0  0  0  0  0  0  0  0  0  0  0
    4.1600    4.6959    5.8482 H   0  0  0  0  0  0  0  0  0  0  0  0
    3.3336    3.9924    7.6943 C   0  0  0  0  0  0  0  0  0  0  0  0
    4.0599    4.5058    8.3059 H   0  0  0  0  0  0  0  0  0  0  0  0
    2.3462    3.2237    8.2868 C   0  0  0  0  0  0  0  0  0  0  0  0
    2.3035    3.1319    9.3619 H   0  0  0  0  0  0  0  0  0  0  0  0
    1.4140    2.5657    7.5048 C   0  0  0  0  0  0  0  0  0  0  0  0
    0.6530    1.9514    7.9654 H   0  0  0  0  0  0  0  0  0  0  0  0
   -0.9368    4.2339    6.4343 C   0  0  0  0  0  0  0  0  0  0  0  0
   -0.0779    4.4852    5.8125 H   0  0  0  0  0  0  0  0  0  0  0  0
   -0.6147    4.2019    7.4791 H   0  0  0  0  0  0  0  0  0  0  0  0
   -1.6845    5.0171    6.3145 H   0  0  0  0  0  0  0  0  0  0  0  0
  1  2  1  6  0  0  0
  1  7  2  0  0  0  0
  1  4  1  0  0  0  0
  3 37  1  0  0  0  0
  4  3  1  0  0  0  0
  5  1  1  0  0  0  0
  5 17  1  0  0  0  0
  6  3  1  0  0  0  0
  6 14  2  0  0  0  0
  7  6  1  0  0  0  0
  8  7  1  0  0  0  0
  8 10  1  0  0  0  0
  9  8  1  0  0  0  0
 10 12  2  0  0  0  0
 11 10  1  0  0  0  0
 12 14  1  0  0  0  0
 12 13  1  0  0  0  0
 14 15  1  0  0  0  0
 16  4  1  0  0  0  0
 16 26  1  0  0  0  0
 17 16  2  0  0  0  0
 18 17  1  0  0  0  0
 18 19  1  0  0  0  0
 20 18  2  0  0  0  0
 21 20  1  0  0  0  0
 22 24  2  0  0  0  0
 22 20  1  0  0  0  0
 23 22  1  0  0  0  0
 24  5  1  0  0  0  0
 25 24  1  0  0  0  0
 26 35  1  0  0  0  0
 27 26  2  0  0  0  0
 27 29  1  0  0  0  0
 28 27  1  0  0  0  0
 29 31  2  0  0  0  0
 30 29  1  0  0  0  0
 31 33  1  0  0  0  0
 31 32  1  0  0  0  0
 33 34  1  0  0  0  0
 35 36  1  0  0  0  0
 35 33  2  0  0  0  0
 37 39  1  0  0  0  0
 38 37  1  0  0  0  0
 40 37  1  0  0  0  0
M  END
$$$$
