CSD_code = EXOCOJ | q = 1 | S = 0 | Stoichiometry = C30H24ClN6Os(1+) | MND = 6
 OpenBabel04212202033D

 62 69  0  0  1  0  0  0  0  0999 V2000
    5.6127    2.9332    4.7295 Os  0  0  0  0  0  0  0  0  0  0  0  0
    6.9724    3.3386    6.6018 Cl  0  0  0  0  0  0  0  0  0  0  0  0
    7.0543    1.6501    4.1818 N   0  0  0  0  0  0  0  0  0  0  0  0
    5.0456    1.3016    5.7690 N   0  0  0  0  0  0  0  0  0  0  0  0
    4.1145    4.1246    5.3352 N   0  0  0  0  0  0  0  0  0  0  0  0
    4.2739    2.5686    3.2901 N   0  0  0  0  0  0  0  0  0  0  0  0
    6.4236    4.6018    3.7562 N   0  0  0  0  0  0  0  0  0  0  0  0
    9.2659   10.3290    0.7459 N   0  0  0  0  0  0  0  0  0  0  0  0
    8.0081    1.8462    3.2667 C   0  0  0  0  0  3  0  0  0  0  0  0
    7.8972    2.7186    2.6359 H   0  0  0  0  0  0  0  0  0  0  0  0
    9.0919    1.0074    3.1054 C   0  0  0  0  0  0  0  0  0  0  0  0
    9.8349    1.2251    2.3558 H   0  0  0  0  0  0  0  0  0  0  0  0
    9.2069   -0.1054    3.9299 C   0  0  0  0  0  0  0  0  0  0  0  0
   10.0495   -0.7723    3.8456 H   0  0  0  0  0  0  0  0  0  0  0  0
    8.2102   -0.3420    4.8568 C   0  0  0  0  0  0  0  0  0  0  0  0
    8.2674   -1.2034    5.5006 H   0  0  0  0  0  0  0  0  0  0  0  0
    7.1388    0.5431    4.9623 C   0  0  0  0  0  0  0  0  0  0  0  0
    6.0078    0.3540    5.8673 C   0  0  2  0  0  3  0  0  0  0  0  0
    5.8787   -0.7189    6.7483 C   0  0  0  0  0  0  0  0  0  0  0  0
    6.6626   -1.4529    6.8287 H   0  0  0  0  0  0  0  0  0  0  0  0
    4.7469   -0.8274    7.5326 C   0  0  0  0  0  0  0  0  0  0  0  0
    4.6382   -1.6426    8.2297 H   0  0  0  0  0  0  0  0  0  0  0  0
    3.7547    0.1363    7.4043 C   0  0  0  0  0  0  0  0  0  0  0  0
    2.8521    0.0901    7.9910 H   0  0  0  0  0  0  0  0  0  0  0  0
    3.9504    1.1764    6.5174 C   0  0  0  0  0  0  0  0  0  0  0  0
    3.1975    1.9467    6.4104 H   0  0  0  0  0  0  0  0  0  0  0  0
    4.1429    4.9340    6.3954 C   0  0  0  0  0  3  0  0  0  0  0  0
    5.0636    4.9334    6.9642 H   0  0  0  0  0  0  0  0  0  0  0  0
    3.0728    5.7242    6.7667 C   0  0  0  0  0  0  0  0  0  0  0  0
    3.1488    6.3591    7.6338 H   0  0  0  0  0  0  0  0  0  0  0  0
    1.9094    5.6820    6.0070 C   0  0  0  0  0  0  0  0  0  0  0  0
    1.0550    6.2850    6.2695 H   0  0  0  0  0  0  0  0  0  0  0  0
    1.8685    4.8502    4.9044 C   0  0  0  0  0  0  0  0  0  0  0  0
    0.9810    4.8025    4.2956 H   0  0  0  0  0  0  0  0  0  0  0  0
    2.9839    4.0760    4.5849 C   0  0  0  0  0  0  0  0  0  0  0  0
    3.0618    3.1670    3.4465 C   0  0  2  0  0  3  0  0  0  0  0  0
    2.0063    2.9089    2.5729 C   0  0  0  0  0  0  0  0  0  0  0  0
    1.0529    3.3881    2.7209 H   0  0  0  0  0  0  0  0  0  0  0  0
    2.1846    2.0332    1.5202 C   0  0  0  0  0  0  0  0  0  0  0  0
    1.3784    1.8223    0.8368 H   0  0  0  0  0  0  0  0  0  0  0  0
    3.4296    1.4309    1.3635 C   0  0  0  0  0  0  0  0  0  0  0  0
    3.6162    0.7439    0.5547 H   0  0  0  0  0  0  0  0  0  0  0  0
    4.4312    1.7259    2.2633 C   0  0  0  0  0  0  0  0  0  0  0  0
    5.4096    1.2760    2.1615 H   0  0  0  0  0  0  0  0  0  0  0  0
    7.6816    4.9857    4.0193 C   0  0  0  0  0  3  0  0  0  0  0  0
    8.2339    4.3816    4.7264 H   0  0  0  0  0  0  0  0  0  0  0  0
    8.2695    6.1014    3.4611 C   0  0  0  0  0  0  0  0  0  0  0  0
    9.2898    6.3426    3.7131 H   0  0  0  0  0  0  0  0  0  0  0  0
    7.5528    6.8926    2.5628 C   0  0  0  0  0  0  0  0  0  0  0  0
    6.2446    6.4889    2.2886 C   0  0  0  0  0  0  0  0  0  0  0  0
    5.6227    7.0607    1.6182 H   0  0  0  0  0  0  0  0  0  0  0  0
    5.7307    5.3644    2.8979 C   0  0  0  0  0  0  0  0  0  0  0  0
    4.7145    5.0636    2.6769 H   0  0  0  0  0  0  0  0  0  0  0  0
    8.1417    8.0796    1.9370 C   0  0  0  0  0  0  0  0  0  0  0  0
    9.0046    8.9148    2.6464 C   0  0  0  0  0  0  0  0  0  0  0  0
    9.2373    8.7202    3.6816 H   0  0  0  0  0  0  0  0  0  0  0  0
    9.5317   10.0236    2.0028 C   0  0  0  0  0  0  0  0  0  0  0  0
   10.2008   10.6994    2.5176 H   0  0  0  0  0  0  0  0  0  0  0  0
    8.4526    9.5393    0.0690 C   0  0  0  0  0  0  0  0  0  0  0  0
    8.2658    9.8271   -0.9567 H   0  0  0  0  0  0  0  0  0  0  0  0
    7.8609    8.4093    0.6110 C   0  0  0  0  0  0  0  0  0  0  0  0
    7.2192    7.7851    0.0084 H   0  0  0  0  0  0  0  0  0  0  0  0
  1  5  1  0  0  0  0
  1  4  1  0  0  0  0
  1  2  1  0  0  0  0
  3  1  1  0  0  0  0
  3 17  1  0  0  0  0
  4 18  1  0  0  0  0
  4 25  1  0  0  0  0
  5 27  1  0  0  0  0
  6 36  1  0  0  0  0
  6  1  1  0  0  0  0
  7 45  1  0  0  0  0
  7  1  1  0  0  0  0
  8 57  1  0  0  0  0
  9  3  1  0  0  0  0
 10  9  1  0  0  0  0
 11  9  1  0  0  0  0
 11 13  2  0  0  0  0
 12 11  1  0  0  0  0
 13 15  1  0  0  0  0
 14 13  1  0  0  0  0
 15 17  2  0  0  0  0
 15 16  1  0  0  0  0
 18 17  1  6  0  0  0
 18 19  1  0  0  0  0
 19 20  1  0  0  0  0
 19 21  2  0  0  0  0
 21 22  1  0  0  0  0
 23 21  1  0  0  0  0
 23 24  1  0  0  0  0
 25 23  2  0  0  0  0
 26 25  1  0  0  0  0
 27 29  1  0  0  0  0
 27 28  1  0  0  0  0
 29 30  1  0  0  0  0
 31 32  1  0  0  0  0
 31 29  2  0  0  0  0
 33 31  1  0  0  0  0
 34 33  1  0  0  0  0
 35 33  2  0  0  0  0
 35  5  1  0  0  0  0
 36 37  1  1  0  0  0
 36 35  1  0  0  0  0
 37 38  1  0  0  0  0
 39 37  2  0  0  0  0
 40 39  1  0  0  0  0
 41 39  1  0  0  0  0
 41 43  2  0  0  0  0
 42 41  1  0  0  0  0
 43  6  1  0  0  0  0
 44 43  1  0  0  0  0
 45 46  1  0  0  0  0
 47 48  1  0  0  0  0
 47 45  1  0  0  0  0
 49 47  2  0  0  0  0
 50 49  1  0  0  0  0
 50 52  2  0  0  0  0
 51 50  1  0  0  0  0
 52  7  1  0  0  0  0
 53 52  1  0  0  0  0
 54 49  1  0  0  0  0
 54 55  1  0  0  0  0
 55 56  1  0  0  0  0
 57 58  1  0  0  0  0
 57 55  2  0  0  0  0
 59 61  1  0  0  0  0
 59  8  2  0  0  0  0
 60 59  1  0  0  0  0
 61 54  2  0  0  0  0
 62 61  1  0  0  0  0
M  END
$$$$
