CSD_code = EXOLAE | q = 0 | S = 0 | Stoichiometry = C22H25ClNPPdS | MND = 4
 OpenBabel04212202033D

 52 55  0  0  0  0  0  0  0  0999 V2000
    1.1853   17.1692    4.8654 Pd  0  0  1  0  0  0  0  0  0  0  0  0
    0.5522   18.3551    3.1112 P   0  0  0  0  0  4  0  0  0  0  0  0
    2.1365   18.9413    5.9944 S   0  0  0  0  0  0  0  0  0  0  0  0
    0.2460   15.3904    3.6862 Cl  0  0  0  0  0  0  0  0  0  0  0  0
    1.8117   15.9262    6.4612 N   0  0  0  0  0  4  0  0  0  0  0  0
    3.1710   17.8985    7.0852 C   0  0  0  0  0  0  0  0  0  0  0  0
    3.4794   18.5242    7.9246 H   0  0  0  0  0  0  0  0  0  0  0  0
    4.0644   17.5898    6.5375 H   0  0  0  0  0  0  0  0  0  0  0  0
    2.3542   16.7161    7.5772 C   0  0  0  0  0  0  0  0  0  0  0  0
    1.5104   17.1123    8.1534 H   0  0  0  0  0  0  0  0  0  0  0  0
    2.9575   16.0698    8.2378 H   0  0  0  0  0  0  0  0  0  0  0  0
    2.8540   15.0949    5.8523 C   0  0  0  0  0  0  0  0  0  0  0  0
    2.4145   14.5072    5.0415 H   0  0  0  0  0  0  0  0  0  0  0  0
    3.2928   14.4120    6.5943 H   0  0  0  0  0  0  0  0  0  0  0  0
    3.6492   15.7254    5.4384 H   0  0  0  0  0  0  0  0  0  0  0  0
    0.7242   15.0743    6.9428 C   0  0  0  0  0  0  0  0  0  0  0  0
   -0.0803   15.6976    7.3443 H   0  0  0  0  0  0  0  0  0  0  0  0
    0.3294   14.4878    6.1110 H   0  0  0  0  0  0  0  0  0  0  0  0
    1.0780   14.3947    7.7303 H   0  0  0  0  0  0  0  0  0  0  0  0
    1.0070   20.1020    2.8993 C   0  0  0  0  0  0  0  0  0  0  0  0
    0.5261   20.9890    3.8589 C   0  0  0  0  0  0  0  0  0  0  0  0
   -0.0784   20.6055    4.6716 H   0  0  0  0  0  0  0  0  0  0  0  0
    0.8397   22.3309    3.7785 C   0  0  0  0  0  0  0  0  0  0  0  0
    0.4704   23.0179    4.5254 H   0  0  0  0  0  0  0  0  0  0  0  0
    1.6368   22.7935    2.7422 C   0  0  0  0  0  0  0  0  0  0  0  0
    1.8858   23.8428    2.6805 H   0  0  0  0  0  0  0  0  0  0  0  0
    2.1215   21.9121    1.7909 C   0  0  0  0  0  0  0  0  0  0  0  0
    2.7475   22.2736    0.9878 H   0  0  0  0  0  0  0  0  0  0  0  0
    1.8116   20.5647    1.8665 C   0  0  0  0  0  0  0  0  0  0  0  0
    2.1946   19.8747    1.1269 H   0  0  0  0  0  0  0  0  0  0  0  0
   -1.2573   18.4471    3.0433 C   0  0  0  0  0  0  0  0  0  0  0  0
   -1.9480   19.0889    2.0206 C   0  0  0  0  0  0  0  0  0  0  0  0
   -1.4032   19.5482    1.2068 H   0  0  0  0  0  0  0  0  0  0  0  0
   -3.3290   19.1524    2.0636 C   0  0  0  0  0  0  0  0  0  0  0  0
   -3.8700   19.6411    1.2662 H   0  0  0  0  0  0  0  0  0  0  0  0
   -4.0195   18.5978    3.1299 C   0  0  0  0  0  0  0  0  0  0  0  0
   -5.0982   18.6487    3.1560 H   0  0  0  0  0  0  0  0  0  0  0  0
   -3.3313   17.9913    4.1686 C   0  0  0  0  0  0  0  0  0  0  0  0
   -3.8726   17.5767    5.0063 H   0  0  0  0  0  0  0  0  0  0  0  0
   -1.9510   17.9194    4.1293 C   0  0  0  0  0  0  0  0  0  0  0  0
   -1.3862   17.4479    4.9435 H   0  0  0  0  0  0  0  0  0  0  0  0
    1.2524   17.5329    1.6537 C   0  0  0  0  0  0  0  0  0  0  0  0
    2.5444   17.0489    1.8650 C   0  0  0  0  0  0  0  0  0  0  0  0
    3.0067   17.1974    2.8490 H   0  0  0  0  0  0  0  0  0  0  0  0
    3.2071   16.3778    0.8573 C   0  0  0  0  0  0  0  0  0  0  0  0
    4.2058   15.9990    1.0191 H   0  0  0  0  0  0  0  0  0  0  0  0
    2.5769   16.1757   -0.3624 C   0  0  0  0  0  0  0  0  0  0  0  0
    3.0879   15.6407   -1.1492 H   0  0  0  0  0  0  0  0  0  0  0  0
    1.2890   16.6396   -0.5668 C   0  0  0  0  0  0  0  0  0  0  0  0
    0.7961   16.4626   -1.5117 H   0  0  0  0  0  0  0  0  0  0  0  0
    0.6207   17.3210    0.4379 C   0  0  0  0  0  0  0  0  0  0  0  0
   -0.3928   17.6605    0.2841 H   0  0  0  0  0  0  0  0  0  0  0  0
  1  4  1  1  0  0  0
  1  3  1  0  0  0  0
  1  5  1  0  0  0  0
  2  1  1  0  0  0  0
  3  6  1  0  0  0  0
  5 16  1  0  0  0  0
  5  9  1  0  0  0  0
  6  9  1  0  0  0  0
  6  7  1  0  0  0  0
  8  6  1  0  0  0  0
  9 10  1  0  0  0  0
  9 11  1  0  0  0  0
 12  5  1  0  0  0  0
 12 14  1  0  0  0  0
 13 12  1  0  0  0  0
 15 12  1  0  0  0  0
 16 17  1  0  0  0  0
 16 19  1  0  0  0  0
 18 16  1  0  0  0  0
 20  2  1  0  0  0  0
 20 21  1  0  0  0  0
 21 22  1  0  0  0  0
 23 21  2  0  0  0  0
 23 24  1  0  0  0  0
 25 23  1  0  0  0  0
 26 25  1  0  0  0  0
 27 29  1  0  0  0  0
 27 25  2  0  0  0  0
 28 27  1  0  0  0  0
 29 20  2  0  0  0  0
 30 29  1  0  0  0  0
 31  2  1  0  0  0  0
 31 40  1  0  0  0  0
 32 34  1  0  0  0  0
 32 31  2  0  0  0  0
 33 32  1  0  0  0  0
 34 36  2  0  0  0  0
 35 34  1  0  0  0  0
 36 37  1  0  0  0  0
 36 38  1  0  0  0  0
 38 39  1  0  0  0  0
 40 38  2  0  0  0  0
 40 41  1  0  0  0  0
 42 43  1  0  0  0  0
 42  2  1  0  0  0  0
 43 44  1  0  0  0  0
 45 46  1  0  0  0  0
 45 43  2  0  0  0  0
 47 45  1  0  0  0  0
 48 47  1  0  0  0  0
 49 47  2  0  0  0  0
 49 51  1  0  0  0  0
 50 49  1  0  0  0  0
 51 42  2  0  0  0  0
 52 51  1  0  0  0  0
M  END
$$$$
