CSD_code = EXOPAJ | q = 0 | S = 0 | Stoichiometry = C12H36Cl2P4W | MND = 6
 OpenBabel04212202033D

 55 54  0  0  0  0  0  0  0  0999 V2000
    0.0010    0.0002    6.0521 W   0  0  0  0  0  0  0  0  0  0  0  0
   -0.0006   -0.0004    8.5035 Cl  0  0  0  0  0  0  0  0  0  0  0  0
    1.6865    1.6866    6.4631 P   0  0  0  0  0  4  0  0  0  0  0  0
    2.5799    2.5799    5.1275 C   0  0  0  0  0  0  0  0  0  0  0  0
    3.0932    1.1570    7.5223 C   0  0  0  0  0  0  0  0  0  0  0  0
    3.7200    2.0121    7.7771 H   0  0  0  0  0  0  0  0  0  0  0  0
    3.6986    0.4034    7.0242 H   0  0  0  0  0  0  0  0  0  0  0  0
    2.6709    0.7286    8.4313 H   0  0  0  0  0  0  0  0  0  0  0  0
    3.2911    3.2911    5.5480 H   0  0  0  0  0  0  0  0  0  0  0  0
    3.1043    1.8602    4.5026 H   0  0  0  0  0  0  0  0  0  0  0  0
   -0.0006    0.0004    3.6027 Cl  0  0  0  0  0  0  0  0  0  0  0  0
   -1.6863   -1.6862    6.4631 P   0  0  0  0  0  4  0  0  0  0  0  0
    1.6867   -1.6870    5.6427 P   0  0  0  0  0  4  0  0  0  0  0  0
   -1.6867    1.6865    5.6427 P   0  0  0  0  0  4  0  0  0  0  0  0
   -2.5798   -2.5798    5.1277 C   0  0  0  0  0  0  0  0  0  0  0  0
    2.5800   -2.5801    6.9785 C   0  0  0  0  0  0  0  0  0  0  0  0
   -2.5799    2.5799    6.9783 C   0  0  0  0  0  0  0  0  0  0  0  0
    1.1570    3.0933    7.5224 C   0  0  0  0  0  0  0  0  0  0  0  0
   -3.0932   -1.1571    7.5223 C   0  0  0  0  0  0  0  0  0  0  0  0
   -1.1571   -3.0931    7.5222 C   0  0  0  0  0  0  0  0  0  0  0  0
    3.0933   -1.1569    4.5835 C   0  0  0  0  0  0  0  0  0  0  0  0
    1.1569   -3.0935    4.5834 C   0  0  0  0  0  0  0  0  0  0  0  0
   -3.0934    1.1569    4.5834 C   0  0  0  0  0  0  0  0  0  0  0  0
   -1.1570    3.0932    4.5835 C   0  0  0  0  0  0  0  0  0  0  0  0
    2.0121    3.7201    7.7772 H   0  0  0  0  0  0  0  0  0  0  0  0
   -3.7200   -2.0122    7.7771 H   0  0  0  0  0  0  0  0  0  0  0  0
   -2.0122   -3.7199    7.7771 H   0  0  0  0  0  0  0  0  0  0  0  0
    3.7201   -2.0120    4.3286 H   0  0  0  0  0  0  0  0  0  0  0  0
    2.0120   -3.7202    4.3285 H   0  0  0  0  0  0  0  0  0  0  0  0
   -3.7201    2.0121    4.3286 H   0  0  0  0  0  0  0  0  0  0  0  0
   -2.0120    3.7200    4.3287 H   0  0  0  0  0  0  0  0  0  0  0  0
    0.4034    3.6987    7.0242 H   0  0  0  0  0  0  0  0  0  0  0  0
   -3.6986   -0.4035    7.0242 H   0  0  0  0  0  0  0  0  0  0  0  0
   -0.4035   -3.6985    7.0241 H   0  0  0  0  0  0  0  0  0  0  0  0
    3.6986   -0.4033    5.0816 H   0  0  0  0  0  0  0  0  0  0  0  0
    0.4033   -3.6988    5.0815 H   0  0  0  0  0  0  0  0  0  0  0  0
   -3.6987    0.4034    5.0815 H   0  0  0  0  0  0  0  0  0  0  0  0
   -0.4034    3.6985    5.0816 H   0  0  0  0  0  0  0  0  0  0  0  0
    0.7286    2.6710    8.4313 H   0  0  0  0  0  0  0  0  0  0  0  0
   -2.6709   -0.7286    8.4313 H   0  0  0  0  0  0  0  0  0  0  0  0
   -0.7286   -2.6708    8.4312 H   0  0  0  0  0  0  0  0  0  0  0  0
    2.6709   -0.7285    3.6745 H   0  0  0  0  0  0  0  0  0  0  0  0
    0.7285   -2.6710    3.6745 H   0  0  0  0  0  0  0  0  0  0  0  0
   -2.6710    0.7285    3.6745 H   0  0  0  0  0  0  0  0  0  0  0  0
   -0.7285    2.6708    3.6745 H   0  0  0  0  0  0  0  0  0  0  0  0
   -3.2909   -3.2909    5.5481 H   0  0  0  0  0  0  0  0  0  0  0  0
    3.2912   -3.2912    6.5580 H   0  0  0  0  0  0  0  0  0  0  0  0
   -3.2911    3.2911    6.5578 H   0  0  0  0  0  0  0  0  0  0  0  0
    1.8602    3.1043    4.5025 H   0  0  0  0  0  0  0  0  0  0  0  0
   -3.1042   -1.8601    4.5027 H   0  0  0  0  0  0  0  0  0  0  0  0
   -1.8601   -3.1042    4.5027 H   0  0  0  0  0  0  0  0  0  0  0  0
    3.1044   -1.8602    7.6034 H   0  0  0  0  0  0  0  0  0  0  0  0
    1.8603   -3.1045    7.6034 H   0  0  0  0  0  0  0  0  0  0  0  0
   -3.1044    1.8602    7.6033 H   0  0  0  0  0  0  0  0  0  0  0  0
   -1.8602    3.1043    7.6033 H   0  0  0  0  0  0  0  0  0  0  0  0
  1 12  1  0  0  0  0
  1  3  1  0  0  0  0
  1  2  1  0  0  0  0
  3  5  1  0  0  0  0
  3 18  1  0  0  0  0
  4  9  1  0  0  0  0
  4  3  1  0  0  0  0
  5  6  1  0  0  0  0
  5  8  1  0  0  0  0
  7  5  1  0  0  0  0
 10  4  1  0  0  0  0
 11  1  1  0  0  0  0
 12 20  1  0  0  0  0
 12 19  1  0  0  0  0
 13  1  1  0  0  0  0
 13 16  1  0  0  0  0
 14  1  1  0  0  0  0
 14 17  1  0  0  0  0
 15 46  1  0  0  0  0
 15 12  1  0  0  0  0
 16 52  1  0  0  0  0
 16 53  1  0  0  0  0
 17 55  1  0  0  0  0
 17 54  1  0  0  0  0
 18 25  1  0  0  0  0
 18 39  1  0  0  0  0
 19 26  1  0  0  0  0
 19 40  1  0  0  0  0
 20 27  1  0  0  0  0
 20 41  1  0  0  0  0
 21 35  1  0  0  0  0
 21 13  1  0  0  0  0
 22 36  1  0  0  0  0
 22 13  1  0  0  0  0
 23 37  1  0  0  0  0
 23 14  1  0  0  0  0
 24 38  1  0  0  0  0
 24 14  1  0  0  0  0
 28 21  1  0  0  0  0
 29 22  1  0  0  0  0
 30 23  1  0  0  0  0
 31 24  1  0  0  0  0
 32 18  1  0  0  0  0
 33 19  1  0  0  0  0
 34 20  1  0  0  0  0
 42 21  1  0  0  0  0
 43 22  1  0  0  0  0
 44 23  1  0  0  0  0
 45 24  1  0  0  0  0
 47 16  1  0  0  0  0
 48 17  1  0  0  0  0
 49  4  1  0  0  0  0
 50 15  1  0  0  0  0
 51 15  1  0  0  0  0
M  END
$$$$
