CSD_code = EXUBAA | q = 0 | S = 0 | Stoichiometry = C7H8Cl2Pt | MND = 6
 OpenBabel04212202033D

 18 17  0  0  1  0  0  0  0  0999 V2000
    1.5323    4.1310    0.4354 Pt  0  0  0  0  0  0  0  0  0  0  0  0
    2.9848    4.8586   -1.0940 Cl  0  0  0  0  0 15  0  0  0  0  0  0
    2.6547    5.2775    1.9858 Cl  0  0  0  0  0 15  0  0  0  0  0  0
    0.4422    2.7450    1.7121 C   0  0  0  0  0  0  0  0  0  0  0  0
    0.9477    2.4934    2.6334 H   0  0  0  0  0  0  0  0  0  0  0  0
   -0.3582    3.8476    1.4773 C   0  0  0  0  0  0  0  0  0  0  0  0
   -0.6050    4.6325    2.1779 H   0  0  0  0  0  0  0  0  0  0  0  0
   -1.1818    3.5227    0.2281 C   0  0  1  0  0  0  0  0  0  0  0  0
   -2.0601    4.1358    0.0513 H   0  0  0  0  0  0  0  0  0  0  0  0
   -0.1080    3.5308   -0.8633 C   0  0  0  0  0  3  0  0  0  0  0  0
   -0.1824    4.0957   -1.7815 H   0  0  0  0  0  0  0  0  0  0  0  0
    0.6924    2.4280   -0.6285 C   0  0  2  0  0  0  0  0  0  0  0  0
    1.3701    1.9570   -1.3261 H   0  0  0  0  0  0  0  0  0  0  0  0
    0.1163    1.7345    0.6090 C   0  0  2  0  0  0  0  0  0  0  0  0
    0.4274    0.7088    0.7811 H   0  0  0  0  0  0  0  0  0  0  0  0
   -1.3836    2.0095    0.4114 C   0  0  0  0  0  0  0  0  0  0  0  0
   -1.7952    1.5226   -0.4718 H   0  0  0  0  0  0  0  0  0  0  0  0
   -1.9828    1.7608    1.2865 H   0  0  0  0  0  0  0  0  0  0  0  0
  4  5  1  0  0  0  0
  6  4  2  0  0  0  0
  6  7  1  0  0  0  0
  8  9  1  6  0  0  0
  8 16  1  0  0  0  0
  8  6  1  0  0  0  0
 10 12  1  0  0  0  0
 10  8  1  0  0  0  0
 11 10  1  0  0  0  0
 12 13  1  6  0  0  0
 12  1  1  0  0  0  0
 12 14  1  0  0  0  0
 14 15  1  1  0  0  0
 14  4  1  0  0  0  0
 16 14  1  0  0  0  0
 16 18  1  0  0  0  0
 17 16  1  0  0  0  0
M  END
$$$$
