CSD_code = EXUDEH | q = 0 | S = 0 | Stoichiometry = C25H27Br2NPtS | MND = 4
 OpenBabel04212202033D

 57 60  0  0  0  0  0  0  0  0999 V2000
    1.1981    1.3144    3.3044 Pt  0  0  1  0  0  0  0  0  0  0  0  0
   -1.0039    0.1583    2.9105 Br  0  0  0  0  0  0  0  0  0  0  0  0
    3.0659    4.2473    0.1867 Br  0  0  0  0  0  0  0  0  0  0  0  0
    1.1559    0.9528    5.6104 S   0  0  0  0  0  3  0  0  0  0  0  0
    1.4274    1.5403    1.3433 N   0  0  0  0  0  0  0  0  0  0  0  0
    2.9337    2.3162    3.4640 C   0  0  0  0  0  0  0  0  0  0  0  0
    2.9989    3.5805    4.0301 C   0  0  0  0  0  0  0  0  0  0  0  0
    2.1119    4.0131    4.4798 H   0  0  0  0  0  0  0  0  0  0  0  0
    4.1747    4.3210    4.0352 C   0  0  0  0  0  0  0  0  0  0  0  0
    5.3121    3.7656    3.4630 C   0  0  0  0  0  0  0  0  0  0  0  0
    6.2334    4.3305    3.4455 H   0  0  0  0  0  0  0  0  0  0  0  0
    5.2751    2.4971    2.9199 C   0  0  0  0  0  0  0  0  0  0  0  0
    6.1634    2.0744    2.4710 H   0  0  0  0  0  0  0  0  0  0  0  0
    4.0889    1.7671    2.9058 C   0  0  0  0  0  0  0  0  0  0  0  0
    4.1009    0.3983    2.3520 C   0  0  0  0  0  0  0  0  0  0  0  0
    5.0347   -0.5081    2.8499 C   0  0  0  0  0  0  0  0  0  0  0  0
    5.6840   -0.1898    3.6527 H   0  0  0  0  0  0  0  0  0  0  0  0
    5.1317   -1.7920    2.3496 C   0  0  0  0  0  0  0  0  0  0  0  0
    5.8528   -2.4800    2.7654 H   0  0  0  0  0  0  0  0  0  0  0  0
    4.3132   -2.1912    1.3041 C   0  0  0  0  0  0  0  0  0  0  0  0
    4.3916   -3.1889    0.8997 H   0  0  0  0  0  0  0  0  0  0  0  0
    3.4042   -1.3000    0.7719 C   0  0  0  0  0  0  0  0  0  0  0  0
    2.7688   -1.5989   -0.0494 H   0  0  0  0  0  0  0  0  0  0  0  0
    3.2646   -0.0158    1.3017 C   0  0  0  0  0  0  0  0  0  0  0  0
    2.2848    0.8703    0.6811 C   0  0  0  0  0  0  0  0  0  0  0  0
    2.2828    0.9115   -0.4105 H   0  0  0  0  0  0  0  0  0  0  0  0
    4.2207    5.6838    4.6590 C   0  0  0  0  0  0  0  0  0  0  0  0
    4.8606    6.3505    4.0835 H   0  0  0  0  0  0  0  0  0  0  0  0
    4.6291    5.6181    5.6683 H   0  0  0  0  0  0  0  0  0  0  0  0
    3.2238    6.1150    4.7243 H   0  0  0  0  0  0  0  0  0  0  0  0
    0.5126    2.4371    0.6710 C   0  0  0  0  0  0  0  0  0  0  0  0
   -0.4922    1.9997    0.7091 H   0  0  0  0  0  0  0  0  0  0  0  0
    0.8010    2.5757   -0.3797 H   0  0  0  0  0  0  0  0  0  0  0  0
    0.5155    3.7469    1.4153 C   0  0  0  0  0  0  0  0  0  0  0  0
    1.5804    4.6381    1.3174 C   0  0  0  0  0  0  0  0  0  0  0  0
    0.5340    6.1419    2.8511 C   0  0  0  0  0  0  0  0  0  0  0  0
    0.5442    7.0694    3.4033 H   0  0  0  0  0  0  0  0  0  0  0  0
   -0.5336    5.2687    2.9693 C   0  0  0  0  0  0  0  0  0  0  0  0
   -1.3628    5.5107    3.6165 H   0  0  0  0  0  0  0  0  0  0  0  0
   -0.5403    4.0813    2.2568 C   0  0  0  0  0  0  0  0  0  0  0  0
   -1.3805    3.4067    2.3365 H   0  0  0  0  0  0  0  0  0  0  0  0
    1.5958    5.8285    2.0214 C   0  0  0  0  0  0  0  0  0  0  0  0
    2.4356    6.4986    1.9231 H   0  0  0  0  0  0  0  0  0  0  0  0
   -0.5228    1.4415    6.1590 C   0  0  0  0  0  0  0  0  0  0  0  0
   -1.2453    0.8200    5.6297 H   0  0  0  0  0  0  0  0  0  0  0  0
   -0.5782    1.2499    7.2310 H   0  0  0  0  0  0  0  0  0  0  0  0
   -0.7324    2.9055    5.8294 C   0  0  0  0  0  0  0  0  0  0  0  0
   -1.7498    3.2040    6.0709 H   0  0  0  0  0  0  0  0  0  0  0  0
   -0.5645    3.0588    4.7614 H   0  0  0  0  0  0  0  0  0  0  0  0
   -0.0377    3.5332    6.3837 H   0  0  0  0  0  0  0  0  0  0  0  0
    0.9986   -0.8722    5.6622 C   0  0  0  0  0  0  0  0  0  0  0  0
    1.1177   -1.1722    6.7042 H   0  0  0  0  0  0  0  0  0  0  0  0
   -0.0022   -1.1308    5.3152 H   0  0  0  0  0  0  0  0  0  0  0  0
    2.0554   -1.4961    4.7715 C   0  0  0  0  0  0  0  0  0  0  0  0
    1.9677   -2.5802    4.7876 H   0  0  0  0  0  0  0  0  0  0  0  0
    3.0556   -1.2177    5.0968 H   0  0  0  0  0  0  0  0  0  0  0  0
    1.9196   -1.1549    3.7407 H   0  0  0  0  0  0  0  0  0  0  0  0
  1  2  1  1  0  0  0
  1  6  2  0  0  0  0
  1  4  1  0  0  0  0
  3 35  1  0  0  0  0
  4 51  1  0  0  0  0
  4 44  1  0  0  0  0
  5  1  1  0  0  0  0
  6  7  1  0  0  0  0
  7  9  2  0  0  0  0
  7  8  1  0  0  0  0
  9 27  1  0  0  0  0
 10  9  1  0  0  0  0
 11 10  1  0  0  0  0
 12 10  2  0  0  0  0
 13 12  1  0  0  0  0
 14 12  1  0  0  0  0
 14  6  1  0  0  0  0
 15 16  1  0  0  0  0
 15 14  2  0  0  0  0
 16 17  1  0  0  0  0
 18 19  1  0  0  0  0
 18 16  2  0  0  0  0
 20 18  1  0  0  0  0
 21 20  1  0  0  0  0
 22 24  1  0  0  0  0
 22 20  2  0  0  0  0
 23 22  1  0  0  0  0
 24 15  1  0  0  0  0
 25 24  2  0  0  0  0
 25  5  1  0  0  0  0
 26 25  1  0  0  0  0
 27 30  1  0  0  0  0
 27 29  1  0  0  0  0
 28 27  1  0  0  0  0
 31 32  1  0  0  0  0
 31  5  1  0  0  0  0
 31 34  1  0  0  0  0
 33 31  1  0  0  0  0
 34 40  1  0  0  0  0
 35 34  2  0  0  0  0
 35 42  1  0  0  0  0
 36 38  1  0  0  0  0
 36 37  1  0  0  0  0
 38 39  1  0  0  0  0
 40 41  1  0  0  0  0
 40 38  2  0  0  0  0
 42 36  2  0  0  0  0
 43 42  1  0  0  0  0
 44 46  1  0  0  0  0
 45 44  1  0  0  0  0
 47 48  1  0  0  0  0
 47 44  1  0  0  0  0
 47 50  1  0  0  0  0
 49 47  1  0  0  0  0
 51 52  1  0  0  0  0
 53 51  1  0  0  0  0
 54 55  1  0  0  0  0
 54 56  1  0  0  0  0
 54 51  1  0  0  0  0
 57 54  1  0  0  0  0
M  END
$$$$
