CSD_code = EYADIS | q = 0 | S = 0 | Stoichiometry = C22H17Cl7N3Rh | MND = 6
 OpenBabel04212202033D

 50 54  0  0  1  0  0  0  0  0999 V2000
    3.2124    2.6765    3.2001 Rh  0  0  0  0  0  0  0  0  0  0  0  0
    2.9456    2.3615    0.9604 Cl  0  0  0  0  0  0  0  0  0  0  0  0
    1.7997    4.6610    3.5389 Cl  0  0  0  0  0  0  0  0  0  0  0  0
    5.1364    0.5126    4.5498 Cl  0  0  0  0  0  0  0  0  0  0  0  0
    2.2377   -1.3536    4.4984 Cl  0  0  0  0  0  0  0  0  0  0  0  0
   -0.2119    2.7013    1.9358 Cl  0  0  0  0  0  0  0  0  0  0  0  0
    7.5568    2.6069    3.2738 Cl  0  0  0  0  0  0  0  0  0  0  0  0
    3.6620    5.6122    1.0804 Cl  0  0  0  0  0  0  0  0  0  0  0  0
    1.7063    1.5167    3.8724 N   0  0  0  0  0  0  0  0  0  0  0  0
    3.3904    2.9905    5.0292 N   0  0  0  0  0  0  0  0  0  0  0  0
    4.8460    3.8577    3.1649 N   0  0  0  0  0  0  0  0  0  0  0  0
    0.4129    0.9537    5.8951 C   0  0  0  0  0  0  0  0  0  0  0  0
   -0.2719    0.4598    5.2104 H   0  0  0  0  0  0  0  0  0  0  0  0
   -0.1355    1.7004    6.4679 H   0  0  0  0  0  0  0  0  0  0  0  0
    0.8137    0.2164    6.5899 H   0  0  0  0  0  0  0  0  0  0  0  0
    1.5215    1.6192    5.1544 C   0  0  0  0  0  0  0  0  0  0  0  0
    2.4618    2.4818    5.8540 C   0  0  0  0  0  0  0  0  0  0  0  0
    2.4811    2.8199    7.2047 C   0  0  0  0  0  0  0  0  0  0  0  0
    1.7447    2.4185    7.8816 H   0  0  0  0  0  0  0  0  0  0  0  0
    3.4621    3.6897    7.6597 C   0  0  0  0  0  0  0  0  0  0  0  0
    3.4957    3.9604    8.7036 H   0  0  0  0  0  0  0  0  0  0  0  0
    4.3863    4.2316    6.7775 C   0  0  0  0  0  0  0  0  0  0  0  0
    5.1326    4.9284    7.1220 H   0  0  0  0  0  0  0  0  0  0  0  0
    4.3252    3.8635    5.4358 C   0  0  0  0  0  0  0  0  0  0  0  0
    5.1607    4.3231    4.3365 C   0  0  2  0  0  3  0  0  0  0  0  0
    6.2636    5.2949    4.5816 C   0  0  0  0  0  0  0  0  0  0  0  0
    7.0468    4.8311    5.1803 H   0  0  0  0  0  0  0  0  0  0  0  0
    5.8743    6.1504    5.1317 H   0  0  0  0  0  0  0  0  0  0  0  0
    6.6926    5.6415    3.6448 H   0  0  0  0  0  0  0  0  0  0  0  0
    4.4189    0.9994    3.0006 C   0  0  0  0  0  0  0  0  0  0  0  0
    3.8566    0.1382    2.6345 H   0  0  0  0  0  0  0  0  0  0  0  0
    5.2502    1.1782    2.3159 H   0  0  0  0  0  0  0  0  0  0  0  0
    0.9974    0.5988    3.0851 C   0  0  0  0  0  0  0  0  0  0  0  0
    1.2093   -0.7778    3.2301 C   0  0  0  0  0  0  0  0  0  0  0  0
    0.6261   -1.6872    2.3660 C   0  0  0  0  0  0  0  0  0  0  0  0
    0.8202   -2.7399    2.4943 H   0  0  0  0  0  0  0  0  0  0  0  0
   -0.1944   -1.2323    1.3477 C   0  0  0  0  0  0  0  0  0  0  0  0
   -0.6410   -1.9397    0.6671 H   0  0  0  0  0  0  0  0  0  0  0  0
   -0.4498    0.1184    1.2038 C   0  0  0  0  0  0  0  0  0  0  0  0
   -1.0976    0.4800    0.4225 H   0  0  0  0  0  0  0  0  0  0  0  0
    0.1359    1.0315    2.0680 C   0  0  0  0  0  0  0  0  0  0  0  0
    5.6452    4.0749    2.0337 C   0  0  0  0  0  0  0  0  0  0  0  0
    6.9106    3.4848    1.9288 C   0  0  0  0  0  0  0  0  0  0  0  0
    7.6483    3.5747    0.7619 C   0  0  0  0  0  0  0  0  0  0  0  0
    8.6133    3.0970    0.7067 H   0  0  0  0  0  0  0  0  0  0  0  0
    7.1357    4.2729   -0.3184 C   0  0  0  0  0  0  0  0  0  0  0  0
    7.7056    4.3350   -1.2318 H   0  0  0  0  0  0  0  0  0  0  0  0
    5.9049    4.8955   -0.2300 C   0  0  0  0  0  0  0  0  0  0  0  0
    5.5042    5.4523   -1.0609 H   0  0  0  0  0  0  0  0  0  0  0  0
    5.1632    4.8041    0.9382 C   0  0  0  0  0  0  0  0  0  0  0  0
  1  3  1  0  0  0  0
  1  9  1  0  0  0  0
  1 10  1  0  0  0  0
  2  1  1  0  0  0  0
  6 41  1  0  0  0  0
  9 16  1  0  0  0  0
 10 24  1  0  0  0  0
 10 17  1  0  0  0  0
 11  1  1  0  0  0  0
 11 25  1  0  0  0  0
 12 14  1  0  0  0  0
 12 15  1  0  0  0  0
 13 12  1  0  0  0  0
 16 17  2  0  0  0  0
 16 12  1  0  0  0  0
 17 18  1  0  0  0  0
 18 20  2  0  0  0  0
 18 19  1  0  0  0  0
 20 21  1  0  0  0  0
 22 23  1  0  0  0  0
 22 20  1  0  0  0  0
 24 22  2  0  0  0  0
 25 26  1  6  0  0  0
 25 24  1  0  0  0  0
 26 28  1  0  0  0  0
 26 27  1  0  0  0  0
 29 26  1  0  0  0  0
 30  1  1  0  0  0  0
 30  4  1  0  0  0  0
 31 30  1  0  0  0  0
 32 30  1  0  0  0  0
 33 34  1  0  0  0  0
 33  9  1  0  0  0  0
 34  5  1  0  0  0  0
 35 36  1  0  0  0  0
 35 34  2  0  0  0  0
 37 35  1  0  0  0  0
 38 37  1  0  0  0  0
 39 37  2  0  0  0  0
 39 41  1  0  0  0  0
 40 39  1  0  0  0  0
 41 33  2  0  0  0  0
 42 11  1  0  0  0  0
 43 42  1  0  0  0  0
 43  7  1  0  0  0  0
 44 43  2  0  0  0  0
 45 44  1  0  0  0  0
 46 48  2  0  0  0  0
 46 44  1  0  0  0  0
 47 46  1  0  0  0  0
 48 50  1  0  0  0  0
 49 48  1  0  0  0  0
 50  8  1  0  0  0  0
 50 42  2  0  0  0  0
M  END
$$$$
