CSD_code = EYADEP | q = 0 | S = 0 | Stoichiometry = C18H28CuIN6S | MND = 4
 OpenBabel04212202033D

 55 59  0  0  1  0  0  0  0  0999 V2000
    8.7801    4.3607   27.4960 I   0  0  0  0  0  0  0  0  0  0  0  0
    7.8980    5.2812   25.3314 Cu  0  0  2  0  0  0  0  0  0  0  0  0
    7.6261    4.0362   23.3927 S   0  0  2  0  0  3  0  0  0  0  0  0
    8.1465    6.9820   24.1180 N   0  0  2  0  0  0  0  0  0  0  0  0
    9.2519    8.3031   25.6555 N   0  0  0  0  0  0  0  0  0  0  0  0
    7.7965    9.3689   24.3223 N   0  0  0  0  0  0  0  0  0  0  0  0
    5.7161    5.2605   25.4515 N   0  0  0  0  0  0  0  0  0  0  0  0
    5.6134    6.1618   27.5870 N   0  0  0  0  0  0  0  0  0  0  0  0
    4.9268    4.0639   27.3779 N   0  0  0  0  0  0  0  0  0  0  0  0
    8.3486    8.1385   24.6429 C   0  0  0  0  0  3  0  0  0  0  0  0
   10.3421    7.3919   25.8833 C   0  0  0  0  0  0  0  0  0  0  0  0
   10.0669    6.4156   25.4899 H   0  0  0  0  0  0  0  0  0  0  0  0
   10.5286    7.3044   26.9534 H   0  0  0  0  0  0  0  0  0  0  0  0
   11.2554    7.7366   25.3859 H   0  0  0  0  0  0  0  0  0  0  0  0
    9.4734    9.7045   25.9276 C   0  0  0  0  0  0  0  0  0  0  0  0
   10.4207   10.0388   25.4804 H   0  0  0  0  0  0  0  0  0  0  0  0
    9.5192    9.8850   27.0049 H   0  0  0  0  0  0  0  0  0  0  0  0
    8.2731   10.3711   25.2632 C   0  0  0  0  0  0  0  0  0  0  0  0
    7.4900   10.6035   25.9985 H   0  0  0  0  0  0  0  0  0  0  0  0
    8.5347   11.2906   24.7332 H   0  0  0  0  0  0  0  0  0  0  0  0
    6.4321    9.5720   23.8979 C   0  0  0  0  0  0  0  0  0  0  0  0
    6.1309    8.8336   23.1643 H   0  0  0  0  0  0  0  0  0  0  0  0
    6.3621   10.5616   23.4431 H   0  0  0  0  0  0  0  0  0  0  0  0
    5.7349    9.5300   24.7456 H   0  0  0  0  0  0  0  0  0  0  0  0
    7.4421    6.7579   22.8850 C   0  0  0  0  0  0  0  0  0  0  0  0
    7.6372    7.5623   22.1612 H   0  0  0  0  0  0  0  0  0  0  0  0
    6.3551    6.6725   23.0415 H   0  0  0  0  0  0  0  0  0  0  0  0
    7.9390    5.4466   22.2816 C   0  0  0  0  0  0  0  0  0  0  0  0
    9.0200    5.4705   22.1434 H   0  0  0  0  0  0  0  0  0  0  0  0
    7.4468    5.2447   21.3297 H   0  0  0  0  0  0  0  0  0  0  0  0
    5.8402    4.0474   23.3642 C   0  0  0  0  0  0  0  0  0  0  0  0
    5.2024    3.4786   22.2752 C   0  0  0  0  0  0  0  0  0  0  0  0
    5.8028    3.0630   21.4786 H   0  0  0  0  0  0  0  0  0  0  0  0
    3.8230    3.4334   22.2127 C   0  0  0  0  0  0  0  0  0  0  0  0
    3.3323    2.9920   21.3590 H   0  0  0  0  0  0  0  0  0  0  0  0
    3.0793    3.9500   23.2651 C   0  0  0  0  0  0  0  0  0  0  0  0
    2.0000    3.9120   23.2324 H   0  0  0  0  0  0  0  0  0  0  0  0
    3.7055    4.5109   24.3551 C   0  0  0  0  0  0  0  0  0  0  0  0
    3.1298    4.9164   25.1756 H   0  0  0  0  0  0  0  0  0  0  0  0
    5.1071    4.5781   24.4362 C   0  0  0  0  0  0  0  0  0  0  0  0
    5.4300    5.1460   26.7145 C   0  0  0  0  0  3  0  0  0  0  0  0
    6.2646    7.3945   27.2648 C   0  0  0  0  0  0  0  0  0  0  0  0
    7.3151    7.3792   27.5729 H   0  0  0  0  0  0  0  0  0  0  0  0
    5.7549    8.2196   27.7684 H   0  0  0  0  0  0  0  0  0  0  0  0
    6.2170    7.5304   26.1872 H   0  0  0  0  0  0  0  0  0  0  0  0
    5.5245    5.7130   28.9580 C   0  0  0  0  0  0  0  0  0  0  0  0
    4.8094    6.3326   29.5091 H   0  0  0  0  0  0  0  0  0  0  0  0
    6.5030    5.7785   29.4464 H   0  0  0  0  0  0  0  0  0  0  0  0
    5.0565    4.2607   28.8142 C   0  0  0  0  0  0  0  0  0  0  0  0
    5.7959    3.5634   29.2215 H   0  0  0  0  0  0  0  0  0  0  0  0
    4.0925    4.0798   29.2990 H   0  0  0  0  0  0  0  0  0  0  0  0
    5.0701    2.7094   26.9036 C   0  0  0  0  0  0  0  0  0  0  0  0
    4.3233    2.0881   27.3983 H   0  0  0  0  0  0  0  0  0  0  0  0
    6.0681    2.3179   27.1294 H   0  0  0  0  0  0  0  0  0  0  0  0
    4.9073    2.6655   25.8297 H   0  0  0  0  0  0  0  0  0  0  0  0
  2  7  1  0  0  0  0
  2  1  1  1  0  0  0
  3 31  1  6  0  0  0
  3  2  1  0  0  0  0
  4 10  1  1  0  0  0
  4  2  1  0  0  0  0
  5 11  1  0  0  0  0
  5 15  1  0  0  0  0
  6 10  1  0  0  0  0
  6 18  1  0  0  0  0
  7 41  1  0  0  0  0
  8 46  1  0  0  0  0
  9 49  1  0  0  0  0
 10  5  1  0  0  0  0
 11 13  1  0  0  0  0
 12 11  1  0  0  0  0
 14 11  1  0  0  0  0
 15 17  1  0  0  0  0
 16 15  1  0  0  0  0
 18 15  1  0  0  0  0
 18 19  1  0  0  0  0
 20 18  1  0  0  0  0
 21  6  1  0  0  0  0
 21 24  1  0  0  0  0
 22 21  1  0  0  0  0
 23 21  1  0  0  0  0
 25 27  1  0  0  0  0
 25  4  1  0  0  0  0
 26 25  1  0  0  0  0
 28 25  1  0  0  0  0
 28  3  1  0  0  0  0
 29 28  1  0  0  0  0
 30 28  1  0  0  0  0
 31 40  1  0  0  0  0
 32 31  2  0  0  0  0
 33 32  1  0  0  0  0
 34 32  1  0  0  0  0
 34 36  2  0  0  0  0
 35 34  1  0  0  0  0
 36 38  1  0  0  0  0
 37 36  1  0  0  0  0
 38 40  2  0  0  0  0
 38 39  1  0  0  0  0
 40  7  1  0  0  0  0
 41  9  1  0  0  0  0
 41  8  1  0  0  0  0
 42 43  1  0  0  0  0
 42  8  1  0  0  0  0
 42 44  1  0  0  0  0
 45 42  1  0  0  0  0
 46 48  1  0  0  0  0
 46 47  1  0  0  0  0
 49 46  1  0  0  0  0
 49 50  1  0  0  0  0
 49 51  1  0  0  0  0
 52 54  1  0  0  0  0
 52  9  1  0  0  0  0
 52 53  1  0  0  0  0
 55 52  1  0  0  0  0
M  END
$$$$
