CSD_code = EYADEO | q = 0 | S = 0 | Stoichiometry = C22H17Cl7IrN3 | MND = 6
 OpenBabel04212202033D

 50 54  0  0  1  0  0  0  0  0999 V2000
    6.4574    2.6478    3.4164 Ir  0  0  0  0  0  0  0  0  0  0  0  0
    7.9769    1.4847    2.7186 N   0  0  0  0  0  0  0  0  0  0  0  0
    6.2784    2.9716    1.5738 N   0  0  0  0  0  0  0  0  0  0  0  0
    4.8141    3.8506    3.4422 N   0  0  0  0  0  0  0  0  0  0  0  0
    6.7403    2.3324    5.6991 Cl  0  0  0  0  0  0  0  0  0  0  0  0
    7.8901    4.6638    3.0553 Cl  0  0  0  0  0  0  0  0  0  0  0  0
    4.5107    0.4601    2.0837 Cl  0  0  0  0  0  0  0  0  0  0  0  0
    7.4385   -1.3802    2.0811 Cl  0  0  0  0  0  0  0  0  0  0  0  0
    9.9176    2.6569    4.6472 Cl  0  0  0  0  0  0  0  0  0  0  0  0
    2.1031    2.6060    3.3242 Cl  0  0  0  0  0  0  0  0  0  0  0  0
    5.9913    5.6140    5.5303 Cl  0  0  0  0  0  0  0  0  0  0  0  0
    9.2550    0.9428    0.6811 C   0  0  0  0  0  0  0  0  0  0  0  0
    9.9443    0.4440    1.3572 H   0  0  0  0  0  0  0  0  0  0  0  0
    9.7991    1.6950    0.1117 H   0  0  0  0  0  0  0  0  0  0  0  0
    8.8510    0.2110   -0.0175 H   0  0  0  0  0  0  0  0  0  0  0  0
    8.1497    1.5995    1.4346 C   0  0  0  0  0  0  0  0  0  0  0  0
    7.2057    2.4642    0.7460 C   0  0  0  0  0  0  0  0  0  0  0  0
    7.1869    2.8078   -0.6038 C   0  0  0  0  0  0  0  0  0  0  0  0
    7.9226    2.4080   -1.2819 H   0  0  0  0  0  0  0  0  0  0  0  0
    6.2076    3.6813   -1.0553 C   0  0  0  0  0  0  0  0  0  0  0  0
    6.1745    3.9562   -2.0980 H   0  0  0  0  0  0  0  0  0  0  0  0
    5.2853    4.2223   -0.1707 C   0  0  0  0  0  0  0  0  0  0  0  0
    4.5411    4.9227   -0.5122 H   0  0  0  0  0  0  0  0  0  0  0  0
    5.3457    3.8490    1.1700 C   0  0  0  0  0  0  0  0  0  0  0  0
    4.5105    4.3136    2.2652 C   0  0  2  0  0  3  0  0  0  0  0  0
    3.4155    5.2923    2.0123 C   0  0  0  0  0  0  0  0  0  0  0  0
    2.6335    4.8327    1.4086 H   0  0  0  0  0  0  0  0  0  0  0  0
    3.8133    6.1455    1.4647 H   0  0  0  0  0  0  0  0  0  0  0  0
    2.9823    5.6417    2.9459 H   0  0  0  0  0  0  0  0  0  0  0  0
    5.2374    0.9545    3.6226 C   0  0  0  0  0  0  0  0  0  0  0  0
    5.7990    0.0943    3.9880 H   0  0  0  0  0  0  0  0  0  0  0  0
    4.4103    1.1336    4.3099 H   0  0  0  0  0  0  0  0  0  0  0  0
    8.6980    0.5620    3.4896 C   0  0  0  0  0  0  0  0  0  0  0  0
    8.4835   -0.8134    3.3386 C   0  0  0  0  0  0  0  0  0  0  0  0
    9.0789   -1.7291    4.1876 C   0  0  0  0  0  0  0  0  0  0  0  0
    8.8834   -2.7808    4.0541 H   0  0  0  0  0  0  0  0  0  0  0  0
    9.9130   -1.2814    5.1981 C   0  0  0  0  0  0  0  0  0  0  0  0
   10.3695   -1.9936    5.8668 H   0  0  0  0  0  0  0  0  0  0  0  0
   10.1685    0.0684    5.3489 C   0  0  0  0  0  0  0  0  0  0  0  0
   10.8259    0.4250    6.1244 H   0  0  0  0  0  0  0  0  0  0  0  0
    9.5707    0.9880    4.4997 C   0  0  0  0  0  0  0  0  0  0  0  0
    4.0076    4.0802    4.5660 C   0  0  0  0  0  0  0  0  0  0  0  0
    2.7405    3.4930    4.6663 C   0  0  0  0  0  0  0  0  0  0  0  0
    1.9934    3.5943    5.8262 C   0  0  0  0  0  0  0  0  0  0  0  0
    1.0269    3.1195    5.8774 H   0  0  0  0  0  0  0  0  0  0  0  0
    2.4991    4.2999    6.9049 C   0  0  0  0  0  0  0  0  0  0  0  0
    1.9218    4.3714    7.8130 H   0  0  0  0  0  0  0  0  0  0  0  0
    3.7327    4.9174    6.8215 C   0  0  0  0  0  0  0  0  0  0  0  0
    4.1289    5.4789    7.6512 H   0  0  0  0  0  0  0  0  0  0  0  0
    4.4842    4.8143    5.6602 C   0  0  0  0  0  0  0  0  0  0  0  0
  1  4  1  0  0  0  0
  1 30  1  0  0  0  0
  1  5  1  0  0  0  0
  2  1  1  0  0  0  0
  2 33  1  0  0  0  0
  3  1  1  0  0  0  0
  4 42  1  0  0  0  0
  6  1  1  0  0  0  0
  7 30  1  0  0  0  0
  8 34  1  0  0  0  0
 10 43  1  0  0  0  0
 11 50  1  0  0  0  0
 12 13  1  0  0  0  0
 12 16  1  0  0  0  0
 14 12  1  0  0  0  0
 15 12  1  0  0  0  0
 16  2  1  0  0  0  0
 17 16  2  0  0  0  0
 17  3  1  0  0  0  0
 18 17  1  0  0  0  0
 19 18  1  0  0  0  0
 20 18  2  0  0  0  0
 20 22  1  0  0  0  0
 21 20  1  0  0  0  0
 22 24  2  0  0  0  0
 23 22  1  0  0  0  0
 24  3  1  0  0  0  0
 24 25  1  0  0  0  0
 25 26  1  1  0  0  0
 25  4  1  0  0  0  0
 26 29  1  0  0  0  0
 27 26  1  0  0  0  0
 28 26  1  0  0  0  0
 30 31  1  0  0  0  0
 30 32  1  0  0  0  0
 33 41  1  0  0  0  0
 34 33  2  0  0  0  0
 34 35  1  0  0  0  0
 35 37  2  0  0  0  0
 36 35  1  0  0  0  0
 37 39  1  0  0  0  0
 37 38  1  0  0  0  0
 39 40  1  0  0  0  0
 41  9  1  0  0  0  0
 41 39  2  0  0  0  0
 42 43  2  0  0  0  0
 42 50  1  0  0  0  0
 43 44  1  0  0  0  0
 44 45  1  0  0  0  0
 44 46  2  0  0  0  0
 46 47  1  0  0  0  0
 48 46  1  0  0  0  0
 48 49  1  0  0  0  0
 50 48  2  0  0  0  0
M  END
$$$$
