CSD_code = EYAGIV | q = 0 | S = 0 | Stoichiometry = C19H22Cl2N2Pd | MND = 4
 OpenBabel04212202033D

 46 48  0  0  1  0  0  0  0  0999 V2000
    3.5017    9.6639   18.3215 Pd  0  0  0  0  0  0  0  0  0  0  0  0
    4.5737    8.4901   19.8638 Cl  0  0  0  0  0  0  0  0  0  0  0  0
    1.9073    8.1114   18.3863 Cl  0  0  0  0  0  0  0  0  0  0  0  0
    2.6891   10.6989   16.8806 N   0  0  0  0  0  0  0  0  0  0  0  0
    3.3565   11.7617   16.5664 C   0  0  0  0  0  0  0  0  0  0  0  0
    3.0378   12.4180   15.7597 H   0  0  0  0  0  0  0  0  0  0  0  0
    4.5147   12.0790   17.3476 C   0  0  0  0  0  0  0  0  0  0  0  0
    5.1718   13.4097   17.1409 C   0  0  0  0  0  0  0  0  0  0  0  0
    5.4575   13.8498   18.0936 H   0  0  0  0  0  0  0  0  0  0  0  0
    4.4858   14.0836   16.6337 H   0  0  0  0  0  0  0  0  0  0  0  0
    6.0596   13.3040   16.5186 H   0  0  0  0  0  0  0  0  0  0  0  0
    4.8444   11.1742   18.2195 N   0  0  0  0  0  0  0  0  0  0  0  0
    5.8914   11.3648   19.2201 C   0  0  1  0  0  0  0  0  0  0  0  0
    5.9407   10.4049   19.7593 H   0  0  0  0  0  0  0  0  0  0  0  0
    7.2785   11.5999   18.6206 C   0  0  0  0  0  0  0  0  0  0  0  0
    7.4506   10.8646   17.8369 H   0  0  0  0  0  0  0  0  0  0  0  0
    8.0257   11.4475   19.3949 H   0  0  0  0  0  0  0  0  0  0  0  0
    7.4090   12.5931   18.2034 H   0  0  0  0  0  0  0  0  0  0  0  0
    5.4053   12.3981   20.2186 C   0  0  0  0  0  0  0  0  0  0  0  0
    4.1188   12.2396   20.7336 C   0  0  0  0  0  0  0  0  0  0  0  0
    3.5127   11.3827   20.4195 H   0  0  0  0  0  0  0  0  0  0  0  0
    3.6125   13.1403   21.6502 C   0  0  0  0  0  0  0  0  0  0  0  0
    2.6164   13.0041   22.0437 H   0  0  0  0  0  0  0  0  0  0  0  0
    4.3859   14.2105   22.0724 C   0  0  0  0  0  0  0  0  0  0  0  0
    3.9930   14.9142   22.7907 H   0  0  0  0  0  0  0  0  0  0  0  0
    5.6677   14.3657   21.5777 C   0  0  0  0  0  0  0  0  0  0  0  0
    6.2806   15.1908   21.9101 H   0  0  0  0  0  0  0  0  0  0  0  0
    6.1767   13.4660   20.6545 C   0  0  0  0  0  0  0  0  0  0  0  0
    7.1826   13.6011   20.2883 H   0  0  0  0  0  0  0  0  0  0  0  0
    1.4406   10.4004   16.1934 C   0  0  1  0  0  0  0  0  0  0  0  0
    1.2946    9.3137   16.2831 H   0  0  0  0  0  0  0  0  0  0  0  0
    0.3195   11.0739   16.9899 C   0  0  0  0  0  0  0  0  0  0  0  0
    0.3682   10.7161   18.0197 H   0  0  0  0  0  0  0  0  0  0  0  0
   -0.6474   10.8052   16.5751 H   0  0  0  0  0  0  0  0  0  0  0  0
    0.4342   12.1566   16.9881 H   0  0  0  0  0  0  0  0  0  0  0  0
    1.5125   10.7529   14.7248 C   0  0  0  0  0  0  0  0  0  0  0  0
    2.4670   10.0889   13.9572 C   0  0  0  0  0  0  0  0  0  0  0  0
    3.1065    9.3564   14.4330 H   0  0  0  0  0  0  0  0  0  0  0  0
    2.5979   10.3549   12.6082 C   0  0  0  0  0  0  0  0  0  0  0  0
    3.3408    9.8311   12.0256 H   0  0  0  0  0  0  0  0  0  0  0  0
    1.7702   11.2876   12.0034 C   0  0  0  0  0  0  0  0  0  0  0  0
    1.8663   11.4945   10.9483 H   0  0  0  0  0  0  0  0  0  0  0  0
    0.8180   11.9491   12.7574 C   0  0  0  0  0  0  0  0  0  0  0  0
    0.1679   12.6750   12.2916 H   0  0  0  0  0  0  0  0  0  0  0  0
    0.6903   11.6875   14.1124 C   0  0  0  0  0  0  0  0  0  0  0  0
   -0.0590   12.2145   14.6821 H   0  0  0  0  0  0  0  0  0  0  0  0
  1  3  1  0  0  0  0
  1  2  1  0  0  0  0
  4  1  1  0  0  0  0
  5  4  1  0  0  0  0
  5  7  2  0  0  0  0
  6  5  1  0  0  0  0
  7 12  1  0  0  0  0
  8  7  1  0  0  0  0
  8  9  1  0  0  0  0
 10  8  1  0  0  0  0
 11  8  1  0  0  0  0
 12  1  1  0  0  0  0
 12 13  1  0  0  0  0
 13 14  1  1  0  0  0
 13 19  1  0  0  0  0
 15 13  1  0  0  0  0
 15 17  1  0  0  0  0
 16 15  1  0  0  0  0
 18 15  1  0  0  0  0
 19 28  2  0  0  0  0
 19 20  1  0  0  0  0
 20 22  2  0  0  0  0
 21 20  1  0  0  0  0
 22 23  1  0  0  0  0
 22 24  1  0  0  0  0
 24 25  1  0  0  0  0
 26 27  1  0  0  0  0
 26 24  2  0  0  0  0
 28 26  1  0  0  0  0
 29 28  1  0  0  0  0
 30 31  1  1  0  0  0
 30  4  1  0  0  0  0
 30 32  1  0  0  0  0
 32 33  1  0  0  0  0
 34 32  1  0  0  0  0
 35 32  1  0  0  0  0
 36 30  1  0  0  0  0
 37 38  1  0  0  0  0
 37 36  2  0  0  0  0
 39 37  1  0  0  0  0
 40 39  1  0  0  0  0
 41 39  2  0  0  0  0
 41 43  1  0  0  0  0
 42 41  1  0  0  0  0
 43 45  2  0  0  0  0
 44 43  1  0  0  0  0
 45 46  1  0  0  0  0
 45 36  1  0  0  0  0
M  END
$$$$
