CSD_code = EYEDES | q = 0 | S = 0 | Stoichiometry = C13H15ClN2PdS | MND = 4
 OpenBabel04212202033D

 33 35  0  0  0  0  0  0  0  0999 V2000
   -0.7724    2.2597   -0.8862 C   0  0  0  0  0  0  0  0  0  0  0  0
   -0.5405    1.2922   -0.4544 H   0  0  0  0  0  0  0  0  0  0  0  0
   -1.6043    2.3868   -1.9877 C   0  0  0  0  0  0  0  0  0  0  0  0
   -2.0417    1.5123   -2.4415 H   0  0  0  0  0  0  0  0  0  0  0  0
   -1.8605    3.6580   -2.4915 C   0  0  0  0  0  0  0  0  0  0  0  0
   -2.5032    3.7886   -3.3492 H   0  0  0  0  0  0  0  0  0  0  0  0
   -1.2808    4.7505   -1.8790 C   0  0  0  0  0  0  0  0  0  0  0  0
   -1.4552    5.7523   -2.2409 H   0  0  0  0  0  0  0  0  0  0  0  0
   -0.4511    4.5447   -0.7702 C   0  0  0  0  0  0  0  0  0  0  0  0
    0.1952    5.6261   -0.0694 C   0  0  0  0  0  0  0  0  0  0  0  0
   -0.0052    6.6321   -0.4288 H   0  0  0  0  0  0  0  0  0  0  0  0
    1.6215    6.4683    1.6421 C   0  0  0  0  0  0  0  0  0  0  0  0
    2.7034    6.3166    1.5408 H   0  0  0  0  0  0  0  0  0  0  0  0
    1.3797    6.3495    2.7050 H   0  0  0  0  0  0  0  0  0  0  0  0
    1.2899    7.9115    1.2221 C   0  0  0  0  0  0  0  0  0  0  0  0
    1.5882    8.0758    0.1836 H   0  0  0  0  0  0  0  0  0  0  0  0
    0.2178    8.0966    1.3233 H   0  0  0  0  0  0  0  0  0  0  0  0
    2.0254    8.8609    2.1052 C   0  0  0  0  0  0  0  0  0  0  0  0
    1.5519    9.5762    3.1598 C   0  0  0  0  0  0  0  0  0  0  0  0
    0.5220    9.5616    3.4699 H   0  0  0  0  0  0  0  0  0  0  0  0
    2.5494   10.3468    3.8009 C   0  0  0  0  0  0  0  0  0  0  0  0
    2.3610   10.9788    4.6499 H   0  0  0  0  0  0  0  0  0  0  0  0
    3.7684   10.2008    3.2276 C   0  0  0  0  0  0  0  0  0  0  0  0
    4.6974   10.6589    3.5019 H   0  0  0  0  0  0  0  0  0  0  0  0
    2.4621    3.7028    2.9799 C   0  0  0  0  0  0  0  0  0  0  0  0
    3.3453    4.2731    2.6595 H   0  0  0  0  0  0  0  0  0  0  0  0
    2.8006    2.7440    3.3799 H   0  0  0  0  0  0  0  0  0  0  0  0
    1.9512    4.2483    3.7875 H   0  0  0  0  0  0  0  0  0  0  0  0
   -0.2128    3.3054   -0.2954 N   0  0  0  0  0  0  0  0  0  0  0  0
    0.9717    5.3909    0.9362 N   0  0  0  0  0  0  0  0  0  0  0  0
    3.7277    9.1214    1.8901 S   0  0  0  0  0  0  0  0  0  0  0  0
    1.2065    1.2984    1.7411 Cl  0  0  0  0  0  0  0  0  0  0  0  0
    1.1624    3.4569    1.4029 Pd  0  0  2  0  0  0  0  0  0  0  0  0
  1  2  1  0  0  0  0
  1 29  1  0  0  0  0
  3  1  2  0  0  0  0
  4  3  1  0  0  0  0
  5  3  1  0  0  0  0
  5  7  2  0  0  0  0
  6  5  1  0  0  0  0
  7  9  1  0  0  0  0
  8  7  1  0  0  0  0
  9 29  1  0  0  0  0
  9 10  2  0  0  0  0
 10 30  1  0  0  0  0
 11 10  1  0  0  0  0
 12 14  1  0  0  0  0
 13 12  1  0  0  0  0
 15 17  1  0  0  0  0
 15 12  1  0  0  0  0
 15 18  1  0  0  0  0
 16 15  1  0  0  0  0
 18 19  2  0  0  0  0
 19 20  1  0  0  0  0
 19 21  1  0  0  0  0
 21 22  1  0  0  0  0
 23 24  1  0  0  0  0
 23 21  2  0  0  0  0
 25 27  1  0  0  0  0
 25 28  1  0  0  0  0
 26 25  1  0  0  0  0
 29 33  1  0  0  0  0
 30 33  1  0  0  0  0
 30 12  1  0  0  0  0
 31 18  1  0  0  0  0
 31 23  1  0  0  0  0
 33 32  1  1  0  0  0
 33 25  1  0  0  0  0
M  END
$$$$
