CSD_code = EYEHOG | q = 0 | S = 0 | Stoichiometry = C19H17Cl2N3SZn | MND = 4
 OpenBabel04212202033D

 43 47  0  0  1  0  0  0  0  0999 V2000
    1.5392    2.9622    6.3733 Cl  0  0  0  0  0  0  0  0  0  0  0  0
    5.9656   -0.2383    0.2611 C   0  0  0  0  0  0  0  0  0  0  0  0
    5.1521   -0.8839   -0.0333 H   0  0  0  0  0  0  0  0  0  0  0  0
    5.8688    0.4872    1.4448 C   0  0  0  0  0  0  0  0  0  0  0  0
    6.9195    1.3185    1.8299 C   0  0  0  0  0  0  0  0  0  0  0  0
    6.8583    1.8603    2.7629 H   0  0  0  0  0  0  0  0  0  0  0  0
    8.1229    0.7235   -0.1572 C   0  0  0  0  0  0  0  0  0  0  0  0
    8.9978    0.8186   -0.7823 H   0  0  0  0  0  0  0  0  0  0  0  0
    7.0863   -0.1122   -0.5384 C   0  0  0  0  0  0  0  0  0  0  0  0
    7.1515   -0.6688   -1.4610 H   0  0  0  0  0  0  0  0  0  0  0  0
    8.0398    1.4331    1.0296 C   0  0  0  0  0  0  0  0  0  0  0  0
    8.8520    2.0757    1.3342 H   0  0  0  0  0  0  0  0  0  0  0  0
    1.7897    2.3991    4.2888 Zn  0  0  0  0  0  0  0  0  0  0  0  0
    0.5968    2.8009    2.4542 Cl  0  0  0  0  0  0  0  0  0  0  0  0
    4.5802    3.1024    0.9620 S   0  0  0  0  0  0  0  0  0  0  0  0
    3.4820    3.4742    3.4266 N   0  0  1  0  0  0  0  0  0  0  0  0
    3.9871    2.6956    2.5637 C   0  0  1  0  0  3  0  0  0  0  0  0
    4.1555    5.5216    2.1501 C   0  0  0  0  0  0  0  0  0  0  0  0
    5.2299    5.4857    2.3454 H   0  0  0  0  0  0  0  0  0  0  0  0
    3.8600    6.5663    2.0472 H   0  0  0  0  0  0  0  0  0  0  0  0
    3.9847    1.3363    2.8592 N   0  0  1  0  0  0  0  0  0  0  0  0
    3.0644    0.8580    3.7133 N   0  0  0  0  0  0  0  0  0  0  0  0
    1.7158   -0.8329    5.6901 C   0  0  0  0  0  0  0  0  0  0  0  0
    1.9310    0.1703    6.0273 H   0  0  0  0  0  0  0  0  0  0  0  0
    3.3785    4.9031    3.3063 C   0  0  0  0  0  0  0  0  0  0  0  0
    3.7056    5.3141    4.2662 H   0  0  0  0  0  0  0  0  0  0  0  0
    2.3110    5.1313    3.2045 H   0  0  0  0  0  0  0  0  0  0  0  0
    2.3014   -1.3143    4.5191 C   0  0  0  0  0  0  0  0  0  0  0  0
    3.8463    4.7706    0.8691 C   0  0  0  0  0  0  0  0  0  0  0  0
    4.2924    5.2362   -0.0075 H   0  0  0  0  0  0  0  0  0  0  0  0
    2.7728    4.6490    0.7230 H   0  0  0  0  0  0  0  0  0  0  0  0
    2.0469   -2.6263    4.1183 C   0  0  0  0  0  0  0  0  0  0  0  0
    2.4845   -3.0033    3.2063 H   0  0  0  0  0  0  0  0  0  0  0  0
    4.1988   -0.8483    2.8374 C   0  0  0  0  0  0  0  0  0  0  0  0
    4.5537   -1.8393    2.6436 H   0  0  0  0  0  0  0  0  0  0  0  0
    4.7081    0.3173    2.3132 C   0  0  2  0  0  3  0  0  0  0  0  0
    1.2151   -3.4342    4.8694 C   0  0  0  0  0  0  0  0  0  0  0  0
    1.0183   -4.4466    4.5488 H   0  0  0  0  0  0  0  0  0  0  0  0
    3.1639   -0.4632    3.7154 C   0  0  0  0  0  0  0  0  0  0  0  0
    0.8847   -1.6475    6.4356 C   0  0  0  0  0  0  0  0  0  0  0  0
    0.4356   -1.2643    7.3391 H   0  0  0  0  0  0  0  0  0  0  0  0
    0.6308   -2.9471    6.0278 C   0  0  0  0  0  0  0  0  0  0  0  0
   -0.0205   -3.5805    6.6113 H   0  0  0  0  0  0  0  0  0  0  0  0
  2  4  1  0  0  0  0
  3  2  1  0  0  0  0
  4  5  2  0  0  0  0
  5  6  1  0  0  0  0
  7 11  2  0  0  0  0
  8  7  1  0  0  0  0
  9  7  1  0  0  0  0
  9  2  2  0  0  0  0
 10  9  1  0  0  0  0
 11 12  1  0  0  0  0
 11  5  1  0  0  0  0
 13  1  1  0  0  0  0
 14 13  1  0  0  0  0
 16 25  1  6  0  0  0
 16 13  1  0  0  0  0
 17 15  1  6  0  0  0
 17 21  1  0  0  0  0
 17 16  1  0  0  0  0
 18 19  1  0  0  0  0
 18 25  1  0  0  0  0
 20 18  1  0  0  0  0
 21 22  1  6  0  0  0
 22 39  1  0  0  0  0
 22 13  1  0  0  0  0
 23 24  1  0  0  0  0
 23 40  1  0  0  0  0
 25 26  1  0  0  0  0
 27 25  1  0  0  0  0
 28 23  2  0  0  0  0
 29 15  1  0  0  0  0
 29 18  1  0  0  0  0
 30 29  1  0  0  0  0
 31 29  1  0  0  0  0
 32 28  1  0  0  0  0
 32 37  2  0  0  0  0
 33 32  1  0  0  0  0
 34 39  2  0  0  0  0
 35 34  1  0  0  0  0
 36  4  1  1  0  0  0
 36 34  1  0  0  0  0
 36 21  1  0  0  0  0
 37 42  1  0  0  0  0
 38 37  1  0  0  0  0
 39 28  1  0  0  0  0
 40 41  1  0  0  0  0
 42 40  2  0  0  0  0
 42 43  1  0  0  0  0
M  END
$$$$
