CSD_code = EYESAD | q = 0 | S = 0 | Stoichiometry = C12H14Br2N2Zn | MND = 4
 OpenBabel04212202033D

 31 32  0  0  1  0  0  0  0  0999 V2000
    3.8565    6.2247    8.5694 Zn  0  0  0  0  0  0  0  0  0  0  0  0
    2.6672    4.7072    9.9449 Br  0  0  0  0  0  0  0  0  0  0  0  0
    3.2249    8.3016    7.6203 Br  0  0  0  0  0  0  0  0  0  0  0  0
    5.6485    6.7274    9.7412 N   0  0  0  0  0  0  0  0  0  0  0  0
    6.6557    7.4600    9.2574 C   0  0  1  0  0  3  0  0  0  0  0  0
    6.7364    7.6694    7.7851 C   0  0  0  0  0  0  0  0  0  0  0  0
    6.3934    6.7886    7.2465 H   0  0  0  0  0  0  0  0  0  0  0  0
    7.7540    7.9035    7.4843 H   0  0  0  0  0  0  0  0  0  0  0  0
    6.0950    8.5045    7.5002 H   0  0  0  0  0  0  0  0  0  0  0  0
    7.6039    8.0259   10.1062 C   0  0  0  0  0  0  0  0  0  0  0  0
    8.3989    8.6221    9.6864 H   0  0  0  0  0  0  0  0  0  0  0  0
    7.5145    7.8230   11.4698 C   0  0  0  0  0  0  0  0  0  0  0  0
    8.2396    8.2599   12.1396 H   0  0  0  0  0  0  0  0  0  0  0  0
    6.4772    7.0414   11.9565 C   0  0  0  0  0  0  0  0  0  0  0  0
    6.3668    6.8417   13.0095 H   0  0  0  0  0  0  0  0  0  0  0  0
    5.5704    6.5208   11.0553 C   0  0  0  0  0  0  0  0  0  0  0  0
    4.7491    5.9057   11.3964 H   0  0  0  0  0  0  0  0  0  0  0  0
    4.4588    5.0030    6.8426 N   0  0  0  0  0  0  0  0  0  0  0  0
    5.0134    3.7931    6.9597 C   0  0  1  0  0  3  0  0  0  0  0  0
    5.5344    3.3779    8.2916 C   0  0  0  0  0  0  0  0  0  0  0  0
    5.9559    4.2259    8.8273 H   0  0  0  0  0  0  0  0  0  0  0  0
    6.2907    2.6049    8.1858 H   0  0  0  0  0  0  0  0  0  0  0  0
    4.7178    2.9771    8.8937 H   0  0  0  0  0  0  0  0  0  0  0  0
    5.0953    2.9326    5.8675 C   0  0  0  0  0  0  0  0  0  0  0  0
    5.5384    1.9575    5.9960 H   0  0  0  0  0  0  0  0  0  0  0  0
    4.6073    3.3327    4.6385 C   0  0  0  0  0  0  0  0  0  0  0  0
    4.6606    2.6743    3.7846 H   0  0  0  0  0  0  0  0  0  0  0  0
    4.0545    4.5998    4.5260 C   0  0  0  0  0  0  0  0  0  0  0  0
    3.6695    4.9668    3.5890 H   0  0  0  0  0  0  0  0  0  0  0  0
    3.9997    5.3934    5.6541 C   0  0  0  0  0  0  0  0  0  0  0  0
    3.5774    6.3876    5.6057 H   0  0  0  0  0  0  0  0  0  0  0  0
  1  4  1  0  0  0  0
  1  2  1  0  0  0  0
  3  1  1  0  0  0  0
  4 16  1  0  0  0  0
  5  6  1  1  0  0  0
  5  4  1  0  0  0  0
  5 10  1  0  0  0  0
  7  6  1  0  0  0  0
  8  6  1  0  0  0  0
  9  6  1  0  0  0  0
 10 12  2  0  0  0  0
 11 10  1  0  0  0  0
 12 14  1  0  0  0  0
 12 13  1  0  0  0  0
 14 15  1  0  0  0  0
 16 17  1  0  0  0  0
 16 14  2  0  0  0  0
 18 19  1  0  0  0  0
 18  1  1  0  0  0  0
 19 20  1  1  0  0  0
 20 21  1  0  0  0  0
 20 23  1  0  0  0  0
 22 20  1  0  0  0  0
 24 25  1  0  0  0  0
 24 19  1  0  0  0  0
 26 24  2  0  0  0  0
 27 26  1  0  0  0  0
 28 26  1  0  0  0  0
 28 30  2  0  0  0  0
 29 28  1  0  0  0  0
 30 18  1  0  0  0  0
 31 30  1  0  0  0  0
M  END
$$$$
