CSD_code = EYICUK | q = 0 | S = 0 | Stoichiometry = C13H8ClN4O3Re | MND = 6
 OpenBabel04212202033D

 30 32  0  0  0  0  0  0  0  0999 V2000
   -0.7793    2.2374    8.9182 Re  0  0  0  0  0  0  0  0  0  0  0  0
   -1.2526   -0.0984    8.8057 Cl  0  0  0  0  0  0  0  0  0  0  0  0
   -0.8442    2.2284    6.8823 N   0  0  0  0  0  0  0  0  0  0  0  0
    0.0847    1.6145    6.2453 N   0  0  0  0  0  0  0  0  0  0  0  0
    1.1439    1.5363    8.3178 N   0  0  0  0  0  0  0  0  0  0  0  0
    2.0901    0.5256    6.3803 N   0  0  0  0  0  0  0  0  0  0  0  0
   -3.8250    2.6484    9.2531 O   0  0  0  0  0  1  0  0  0  0  0  0
   -0.4009    1.1704   11.8004 O   0  0  0  0  0  1  0  0  0  0  0  0
    0.0415    5.2113    9.1878 O   0  0  0  0  0  1  0  0  0  0  0  0
    2.1998    1.1521    9.0227 C   0  0  0  0  0  0  0  0  0  0  0  0
    3.2377    0.4382    8.4503 C   0  0  0  0  0  0  0  0  0  0  0  0
    3.1215    0.1384    7.0945 C   0  0  0  0  0  0  0  0  0  0  0  0
    1.1306    1.2020    6.9990 C   0  0  0  0  0  0  0  0  0  0  0  0
   -1.9006    2.6189    6.0557 C   0  0  0  0  0  0  0  0  0  0  0  0
   -2.2084    1.8705    4.9148 C   0  0  0  0  0  0  0  0  0  0  0  0
   -3.2789    2.2308    4.1225 C   0  0  0  0  0  0  0  0  0  0  0  0
   -4.0384    3.3466    4.4404 C   0  0  0  0  0  0  0  0  0  0  0  0
   -3.7207    4.1072    5.5567 C   0  0  0  0  0  0  0  0  0  0  0  0
   -2.6630    3.7490    6.3674 C   0  0  0  0  0  0  0  0  0  0  0  0
   -2.6908    2.5674    9.1626 C   0  0  0  0  0  2  0  0  0  0  0  0
   -0.5491    1.6991   10.8050 C   0  0  0  0  0  2  0  0  0  0  0  0
   -0.2706    4.1104    9.1059 C   0  0  0  0  0  2  0  0  0  0  0  0
   -2.3973    4.3531    7.2245 H   0  0  0  0  0  0  0  0  0  0  0  0
   -3.5251    1.6374    3.2551 H   0  0  0  0  0  0  0  0  0  0  0  0
    2.2106    1.4217   10.0719 H   0  0  0  0  0  0  0  0  0  0  0  0
    4.0859    0.1244    9.0342 H   0  0  0  0  0  0  0  0  0  0  0  0
   -1.6137    0.9977    4.6927 H   0  0  0  0  0  0  0  0  0  0  0  0
   -4.3020    4.9842    5.7965 H   0  0  0  0  0  0  0  0  0  0  0  0
   -4.8766    3.6244    3.8195 H   0  0  0  0  0  0  0  0  0  0  0  0
    3.8767   -0.4270    6.5656 H   0  0  0  0  0  0  0  0  0  0  0  0
  1 22  1  0  0  0  0
  1 20  1  0  0  0  0
  1 21  1  0  0  0  0
  2  1  1  0  0  0  0
  3  1  1  0  0  0  0
  4  3  1  0  0  0  0
  4 13  2  0  0  0  0
  5  1  1  0  0  0  0
  5 10  1  0  0  0  0
  6 13  1  0  0  0  0
  6 12  2  0  0  0  0
 10 25  1  0  0  0  0
 11 10  2  0  0  0  0
 11 26  1  0  0  0  0
 12 11  1  0  0  0  0
 13  5  1  0  0  0  0
 14 19  1  0  0  0  0
 14  3  1  0  0  0  0
 15 14  2  0  0  0  0
 16 17  2  0  0  0  0
 16 15  1  0  0  0  0
 17 18  1  0  0  0  0
 18 28  1  0  0  0  0
 18 19  2  0  0  0  0
 19 23  1  0  0  0  0
 20  7  1  0  0  0  0
 21  8  1  0  0  0  0
 22  9  1  0  0  0  0
 24 16  1  0  0  0  0
 27 15  1  0  0  0  0
 29 17  1  0  0  0  0
 30 12  1  0  0  0  0
M  END
$$$$
