CSD_code = EYIPIL | q = 0 | S = 0 | Stoichiometry = C22H28Br2N4O2PtS2 | MND = 4
 OpenBabel04212202033D

 61 62  0  0  1  0  0  0  0  0999 V2000
    1.8216    2.8339    4.2447 Pt  0  0  0  0  0  0  0  0  0  0  0  0
    0.0508    4.2515    5.1962 Br  0  0  0  0  0  0  0  0  0  0  0  0
    0.3439    0.9116    4.3003 S   0  0  0  0  0  0  0  0  0  0  0  0
    1.5982    0.0479    8.5586 O   0  0  0  0  0  0  0  0  0  0  0  0
    1.5476    1.2037    6.6042 N   0  0  0  0  0  0  0  0  0  0  0  0
    0.1777   -0.6612    6.4098 N   0  0  0  0  0  0  0  0  0  0  0  0
    2.9084    2.0338    8.3864 C   0  0  0  0  0  0  0  0  0  0  0  0
    2.9797    2.2282    9.7657 C   0  0  0  0  0  0  0  0  0  0  0  0
    2.3701    1.6090   10.4063 H   0  0  0  0  0  0  0  0  0  0  0  0
    3.8032    3.2042   10.2914 C   0  0  0  0  0  0  0  0  0  0  0  0
    3.8447    3.3554   11.3594 H   0  0  0  0  0  0  0  0  0  0  0  0
    4.5725    3.9884    9.4466 C   0  0  0  0  0  0  0  0  0  0  0  0
    5.2133    4.7551    9.8556 H   0  0  0  0  0  0  0  0  0  0  0  0
    4.5272    3.7835    8.0767 C   0  0  0  0  0  0  0  0  0  0  0  0
    5.1356    4.3828    7.4169 H   0  0  0  0  0  0  0  0  0  0  0  0
    3.7023    2.8117    7.5431 C   0  0  0  0  0  0  0  0  0  0  0  0
    3.7257    2.6531    6.4718 H   0  0  0  0  0  0  0  0  0  0  0  0
    1.9799    0.9952    7.8938 C   0  0  0  0  0  0  0  0  0  0  0  0
    0.6959    0.4278    5.8759 C   0  0  2  0  0  3  0  0  0  0  0  0
   -0.7276   -1.5398    5.7091 C   0  0  0  0  0  0  0  0  0  0  0  0
   -0.2778   -1.8201    4.7490 H   0  0  0  0  0  0  0  0  0  0  0  0
   -1.6586   -1.0014    5.4920 H   0  0  0  0  0  0  0  0  0  0  0  0
   -1.0152   -2.7794    6.5457 C   0  0  0  0  0  0  0  0  0  0  0  0
   -1.4495   -2.4745    7.5000 H   0  0  0  0  0  0  0  0  0  0  0  0
   -0.0771   -3.2987    6.7509 H   0  0  0  0  0  0  0  0  0  0  0  0
   -1.9734   -3.7184    5.8243 C   0  0  0  0  0  0  0  0  0  0  0  0
   -2.9191   -3.2201    5.6244 H   0  0  0  0  0  0  0  0  0  0  0  0
   -2.1701   -4.5971    6.4322 H   0  0  0  0  0  0  0  0  0  0  0  0
   -1.5496   -4.0434    4.8772 H   0  0  0  0  0  0  0  0  0  0  0  0
    0.4504   -0.8616    7.3750 H   0  0  0  0  0  0  0  0  0  0  0  0
    1.8498    2.0543    6.0763 H   0  0  0  0  0  0  0  0  0  0  0  0
    3.5931    1.4165    3.2932 Br  0  0  0  0  0  0  0  0  0  0  0  0
    3.2996    4.7562    4.1891 S   0  0  0  0  0  0  0  0  0  0  0  0
    2.9478    5.2399    2.6134 C   0  0  1  0  0  3  0  0  0  0  0  0
    2.0962    4.4638    1.8851 N   0  0  0  0  0  0  0  0  0  0  0  0
    1.6643    4.6718    0.5952 C   0  0  0  0  0  0  0  0  0  0  0  0
    2.0462    5.6188   -0.0698 O   0  0  0  0  0  0  0  0  0  0  0  0
    0.7361    3.6329    0.1027 C   0  0  0  0  0  0  0  0  0  0  0  0
    0.6654    3.4379   -1.2765 C   0  0  0  0  0  0  0  0  0  0  0  0
    1.2752    4.0569   -1.9172 H   0  0  0  0  0  0  0  0  0  0  0  0
   -0.1577    2.4614   -1.8020 C   0  0  0  0  0  0  0  0  0  0  0  0
   -0.1988    2.3098   -2.8701 H   0  0  0  0  0  0  0  0  0  0  0  0
   -0.9272    1.6776   -0.9572 C   0  0  0  0  0  0  0  0  0  0  0  0
   -1.5677    0.9105   -1.3661 H   0  0  0  0  0  0  0  0  0  0  0  0
   -0.8826    1.8831    0.4126 C   0  0  0  0  0  0  0  0  0  0  0  0
   -1.4911    1.2840    1.0725 H   0  0  0  0  0  0  0  0  0  0  0  0
   -0.0580    2.8553    0.9461 C   0  0  0  0  0  0  0  0  0  0  0  0
   -0.0818    3.0144    2.0173 H   0  0  0  0  0  0  0  0  0  0  0  0
    1.7939    3.6133    2.4131 H   0  0  0  0  0  0  0  0  0  0  0  0
    3.4659    6.3289    2.0793 N   0  0  0  0  0  0  0  0  0  0  0  0
    4.3710    7.2078    2.7798 C   0  0  0  0  0  0  0  0  0  0  0  0
    3.9228    7.4852    3.7414 H   0  0  0  0  0  0  0  0  0  0  0  0
    5.3035    6.6707    2.9938 H   0  0  0  0  0  0  0  0  0  0  0  0
    4.6545    8.4495    1.9451 C   0  0  0  0  0  0  0  0  0  0  0  0
    5.0873    8.1474    0.9892 H   0  0  0  0  0  0  0  0  0  0  0  0
    3.7149    8.9676    1.7430 H   0  0  0  0  0  0  0  0  0  0  0  0
    5.6126    9.3889    2.6663 C   0  0  0  0  0  0  0  0  0  0  0  0
    6.5596    8.8919    2.8631 H   0  0  0  0  0  0  0  0  0  0  0  0
    5.8063   10.2691    2.0597 H   0  0  0  0  0  0  0  0  0  0  0  0
    5.1902    9.7112    3.6149 H   0  0  0  0  0  0  0  0  0  0  0  0
    3.1935    6.5288    1.1139 H   0  0  0  0  0  0  0  0  0  0  0  0
  1  3  1  0  0  0  0
  1  2  1  0  0  0  0
  5 18  1  0  0  0  0
  6 30  1  0  0  0  0
  7  8  1  0  0  0  0
  8 10  2  0  0  0  0
  8  9  1  0  0  0  0
 10 11  1  0  0  0  0
 12 13  1  0  0  0  0
 12 10  1  0  0  0  0
 14 12  2  0  0  0  0
 15 14  1  0  0  0  0
 16 14  1  0  0  0  0
 16  7  2  0  0  0  0
 17 16  1  0  0  0  0
 18  7  1  0  0  0  0
 18  4  2  0  0  0  0
 19  3  1  6  0  0  0
 19  6  1  0  0  0  0
 19  5  1  0  0  0  0
 20  6  1  0  0  0  0
 20 23  1  0  0  0  0
 21 20  1  0  0  0  0
 22 20  1  0  0  0  0
 23 25  1  0  0  0  0
 23 24  1  0  0  0  0
 26 28  1  0  0  0  0
 26 23  1  0  0  0  0
 27 26  1  0  0  0  0
 29 26  1  0  0  0  0
 31  5  1  0  0  0  0
 32  1  1  0  0  0  0
 33  1  1  0  0  0  0
 34 33  1  1  0  0  0
 35 49  1  0  0  0  0
 35 34  1  0  0  0  0
 36 35  1  0  0  0  0
 37 36  2  0  0  0  0
 38 36  1  0  0  0  0
 38 47  1  0  0  0  0
 39 38  2  0  0  0  0
 40 39  1  0  0  0  0
 41 39  1  0  0  0  0
 41 43  2  0  0  0  0
 42 41  1  0  0  0  0
 43 45  1  0  0  0  0
 44 43  1  0  0  0  0
 45 47  2  0  0  0  0
 45 46  1  0  0  0  0
 47 48  1  0  0  0  0
 50 34  1  0  0  0  0
 50 51  1  0  0  0  0
 51 53  1  0  0  0  0
 51 52  1  0  0  0  0
 54 57  1  0  0  0  0
 54 51  1  0  0  0  0
 55 54  1  0  0  0  0
 56 54  1  0  0  0  0
 57 58  1  0  0  0  0
 57 60  1  0  0  0  0
 59 57  1  0  0  0  0
 61 50  1  0  0  0  0
M  END
$$$$
