CSD_code = EYIWAM | q = 0 | S = 0 | Stoichiometry = C25H28Cl2NO2PRuS2 | MND = 6
 OpenBabel04212202033D

 62 66  0  0  0  0  0  0  0  0999 V2000
   16.1389   12.1287    9.2389 Ru  0  0  0  0  0  0  0  0  0  0  0  0
   14.9651   13.7694    8.1805 P   0  0  0  0  0  4  0  0  0  0  0  0
   17.7286   12.6056    7.5615 Cl  0  0  0  0  0  0  0  0  0  0  0  0
   14.5987   11.5877   10.7970 S   0  0  0  0  0  0  0  0  0  0  0  0
   17.2135   13.5694   10.6068 S   0  0  0  0  0  0  0  0  0  0  0  0
   17.5586   10.5022   10.2198 Cl  0  0  0  0  0  0  0  0  0  0  0  0
   15.3152   10.8822    7.8503 N   0  0  0  0  0  0  0  0  0  0  0  0
   15.5321    9.5818    7.8760 C   0  0  0  0  0  0  0  0  0  0  0  0
   16.0582    9.1968    8.7432 H   0  0  0  0  0  0  0  0  0  0  0  0
   14.7044   11.4256    6.7563 C   0  0  0  0  0  0  0  0  0  0  0  0
   14.4655   12.8202    6.7062 C   0  0  0  0  0  0  0  0  0  0  0  0
   13.3863   14.3319    8.8926 C   0  0  0  0  0  0  0  0  0  0  0  0
   14.3159   10.6186    5.6536 C   0  0  0  0  0  0  0  0  0  0  0  0
   14.5560    9.2307    5.7227 C   0  0  0  0  0  0  0  0  0  0  0  0
   14.2745    8.6007    4.8924 H   0  0  0  0  0  0  0  0  0  0  0  0
   14.3173   12.6314   11.7693 O   0  0  0  0  0  1  0  0  0  0  0  0
   15.6577   15.2924    7.4741 C   0  0  0  0  0  0  0  0  0  0  0  0
   16.6357   14.9041   10.5232 O   0  0  0  0  0  1  0  0  0  0  0  0
   13.4487   14.9127   10.1587 C   0  0  0  0  0  0  0  0  0  0  0  0
   14.4077   15.0108   10.6479 H   0  0  0  0  0  0  0  0  0  0  0  0
   16.8014   17.5939    6.4231 C   0  0  0  0  0  0  0  0  0  0  0  0
   17.2495   18.4891    6.0169 H   0  0  0  0  0  0  0  0  0  0  0  0
   13.7281   11.2329    4.5288 C   0  0  0  0  0  3  0  0  0  0  0  0
   13.4425   10.6102    3.6940 H   0  0  0  0  0  0  0  0  0  0  0  0
   15.1615    8.7189    6.8391 C   0  0  0  0  0  0  0  0  0  0  0  0
   15.3788    7.6668    6.9302 H   0  0  0  0  0  0  0  0  0  0  0  0
   12.1514   14.1641    8.2738 C   0  0  0  0  0  0  0  0  0  0  0  0
   12.0871   13.6982    7.3001 H   0  0  0  0  0  0  0  0  0  0  0  0
   12.9788   11.0896   10.0992 C   0  0  0  0  0  0  0  0  0  0  0  0
   12.2970   10.8993   10.9197 H   0  0  0  0  0  0  0  0  0  0  0  0
   13.1241   10.2018    9.4931 H   0  0  0  0  0  0  0  0  0  0  0  0
   12.6076   11.9097    9.4926 H   0  0  0  0  0  0  0  0  0  0  0  0
   13.9055   13.3834    5.5815 C   0  0  0  0  0  0  0  0  0  0  0  0
   13.7567   14.4536    5.5429 H   0  0  0  0  0  0  0  0  0  0  0  0
   16.9922   16.3746    5.7937 C   0  0  0  0  0  0  0  0  0  0  0  0
   17.5911   16.3150    4.8969 H   0  0  0  0  0  0  0  0  0  0  0  0
   13.5390   12.5877    4.4897 C   0  0  0  0  0  0  0  0  0  0  0  0
   13.1033   13.0524    3.6179 H   0  0  0  0  0  0  0  0  0  0  0  0
   12.2914   15.3362   10.7848 C   0  0  0  0  0  0  0  0  0  0  0  0
   12.3463   15.7834   11.7658 H   0  0  0  0  0  0  0  0  0  0  0  0
   15.4698   16.5174    8.1064 C   0  0  0  0  0  0  0  0  0  0  0  0
   14.8900   16.5750    9.0140 H   0  0  0  0  0  0  0  0  0  0  0  0
   18.9916   13.7437   10.2919 C   0  0  0  0  0  0  0  0  0  0  0  0
   19.4081   14.4390   11.0112 H   0  0  0  0  0  0  0  0  0  0  0  0
   19.1051   14.1194    9.2793 H   0  0  0  0  0  0  0  0  0  0  0  0
   19.4354   12.7571   10.3753 H   0  0  0  0  0  0  0  0  0  0  0  0
   16.4264   15.2253    6.3133 C   0  0  0  0  0  0  0  0  0  0  0  0
   16.5994   14.2729    5.8351 H   0  0  0  0  0  0  0  0  0  0  0  0
   17.3262   13.1562   12.3740 C   0  0  0  0  0  0  0  0  0  0  0  0
   17.8755   13.9436   12.8763 H   0  0  0  0  0  0  0  0  0  0  0  0
   17.8306   12.1995   12.4558 H   0  0  0  0  0  0  0  0  0  0  0  0
   16.3110   13.0968   12.7537 H   0  0  0  0  0  0  0  0  0  0  0  0
   10.9968   14.5889    8.9088 C   0  0  0  0  0  0  0  0  0  0  0  0
   10.0406   14.4567    8.4228 H   0  0  0  0  0  0  0  0  0  0  0  0
   16.0405   17.6613    7.5783 C   0  0  0  0  0  0  0  0  0  0  0  0
   15.8940   18.6092    8.0752 H   0  0  0  0  0  0  0  0  0  0  0  0
   11.0643   15.1756   10.1614 C   0  0  0  0  0  0  0  0  0  0  0  0
   10.1592   15.5016   10.6525 H   0  0  0  0  0  0  0  0  0  0  0  0
   14.8446   10.0692   11.7766 C   0  0  0  0  0  0  0  0  0  0  0  0
   14.0654   10.0359   12.5289 H   0  0  0  0  0  0  0  0  0  0  0  0
   15.8253   10.1250   12.2363 H   0  0  0  0  0  0  0  0  0  0  0  0
   14.8052    9.2147   11.1125 H   0  0  0  0  0  0  0  0  0  0  0  0
  1  6  1  0  0  0  0
  1  5  1  0  0  0  0
  1  4  1  0  0  0  0
  2 12  1  0  0  0  0
  2  1  1  0  0  0  0
  3  1  1  0  0  0  0
  4 16  1  0  0  0  0
  4 59  1  0  0  0  0
  5 49  1  0  0  0  0
  7  8  1  0  0  0  0
  7  1  1  0  0  0  0
  8  9  1  0  0  0  0
 10  7  1  0  0  0  0
 11 10  2  0  0  0  0
 11  2  1  0  0  0  0
 12 19  1  0  0  0  0
 13 14  2  0  0  0  0
 13 10  1  0  0  0  0
 14 25  1  0  0  0  0
 15 14  1  0  0  0  0
 17 41  1  0  0  0  0
 17  2  1  0  0  0  0
 18  5  1  0  0  0  0
 19 20  1  0  0  0  0
 19 39  2  0  0  0  0
 21 55  1  0  0  0  0
 22 21  1  0  0  0  0
 23 13  1  0  0  0  0
 24 23  1  0  0  0  0
 25 26  1  0  0  0  0
 25  8  2  0  0  0  0
 27 12  2  0  0  0  0
 27 53  1  0  0  0  0
 28 27  1  0  0  0  0
 29  4  1  0  0  0  0
 29 30  1  0  0  0  0
 31 29  1  0  0  0  0
 32 29  1  0  0  0  0
 33 11  1  0  0  0  0
 34 33  1  0  0  0  0
 35 47  1  0  0  0  0
 35 21  2  0  0  0  0
 36 35  1  0  0  0  0
 37 23  1  0  0  0  0
 37 33  2  0  0  0  0
 38 37  1  0  0  0  0
 39 40  1  0  0  0  0
 41 42  1  0  0  0  0
 43 46  1  0  0  0  0
 43  5  1  0  0  0  0
 43 44  1  0  0  0  0
 45 43  1  0  0  0  0
 47 17  2  0  0  0  0
 48 47  1  0  0  0  0
 49 51  1  0  0  0  0
 49 52  1  0  0  0  0
 49 50  1  0  0  0  0
 53 57  2  0  0  0  0
 54 53  1  0  0  0  0
 55 56  1  0  0  0  0
 55 41  2  0  0  0  0
 57 58  1  0  0  0  0
 57 39  1  0  0  0  0
 59 61  1  0  0  0  0
 59 60  1  0  0  0  0
 62 59  1  0  0  0  0
M  END
$$$$
