CSD_code = EYIWIT | q = 0 | S = 0 | Stoichiometry = C12H16Cl2N4Pd | MND = 4
 OpenBabel04212202033D

 35 36  0  0  0  0  0  0  0  0999 V2000
   -0.3047   -0.2359    5.0904 Pd  0  0  0  0  0  0  0  0  0  0  0  0
   -1.8265   -1.3945    3.8334 Cl  0  0  0  0  0  0  0  0  0  0  0  0
   -0.3120    1.1793    3.7691 N   0  0  0  0  0  0  0  0  0  0  0  0
    0.1778    2.3489   -0.8100 N   0  0  0  0  0  0  0  0  0  0  0  0
    0.2679    0.9862    2.5866 C   0  0  0  0  0  3  0  0  0  0  0  0
    0.7550    0.0217    2.4402 H   0  0  0  0  0  0  0  0  0  0  0  0
    0.2519    1.9429    1.5819 C   0  0  0  0  0  0  0  0  0  0  0  0
   -0.4050    3.1436    1.8343 C   0  0  0  0  0  0  0  0  0  0  0  0
   -0.4389    3.8964    1.0627 H   0  0  0  0  0  0  0  0  0  0  0  0
   -1.0059    3.3366    3.0666 C   0  0  0  0  0  0  0  0  0  0  0  0
   -1.5226    4.2557    3.2932 H   0  0  0  0  0  0  0  0  0  0  0  0
   -0.9373    2.3290    4.0134 C   0  0  0  0  0  0  0  0  0  0  0  0
   -1.3887    2.4355    4.9987 H   0  0  0  0  0  0  0  0  0  0  0  0
    0.9185    1.6940    0.2568 C   0  0  0  0  0  0  0  0  0  0  0  0
    1.9200    2.1398    0.2835 H   0  0  0  0  0  0  0  0  0  0  0  0
    1.0414    0.6076    0.1143 H   0  0  0  0  0  0  0  0  0  0  0  0
    0.6596    2.2368   -1.6945 H   0  0  0  0  0  0  0  0  0  0  0  0
   -0.7436    1.9331   -0.9011 H   0  0  0  0  0  0  0  0  0  0  0  0
    1.2195    0.9206    6.3451 Cl  0  0  0  0  0  0  0  0  0  0  0  0
   -0.2943   -1.6511    6.4117 N   0  0  0  0  0  0  0  0  0  0  0  0
   -0.7848   -2.8213   10.9904 N   0  0  0  0  0  0  0  0  0  0  0  0
   -0.8745   -1.4582    7.5940 C   0  0  0  0  0  3  0  0  0  0  0  0
   -1.3619   -0.4939    7.7404 H   0  0  0  0  0  0  0  0  0  0  0  0
   -0.8586   -2.4152    8.5985 C   0  0  0  0  0  0  0  0  0  0  0  0
   -0.2018   -3.6159    8.3460 C   0  0  0  0  0  0  0  0  0  0  0  0
   -0.1680   -4.3688    9.1175 H   0  0  0  0  0  0  0  0  0  0  0  0
    0.3992   -3.8087    7.1136 C   0  0  0  0  0  0  0  0  0  0  0  0
    0.9157   -4.7278    6.8869 H   0  0  0  0  0  0  0  0  0  0  0  0
    0.3308   -2.8009    6.1671 C   0  0  0  0  0  0  0  0  0  0  0  0
    0.7818   -2.9074    5.1816 H   0  0  0  0  0  0  0  0  0  0  0  0
   -1.5254   -2.1663    9.9236 C   0  0  0  0  0  0  0  0  0  0  0  0
   -2.5269   -2.6119    9.8968 H   0  0  0  0  0  0  0  0  0  0  0  0
   -1.6482   -1.0799   10.0662 H   0  0  0  0  0  0  0  0  0  0  0  0
   -1.2666   -2.7091   11.8748 H   0  0  0  0  0  0  0  0  0  0  0  0
    0.1366   -2.4055   11.0815 H   0  0  0  0  0  0  0  0  0  0  0  0
  1 19  1  0  0  0  0
  1 20  1  0  0  0  0
  2  1  1  0  0  0  0
  3 12  1  0  0  0  0
  3  1  1  0  0  0  0
  4 14  1  0  0  0  0
  5  3  1  0  0  0  0
  6  5  1  0  0  0  0
  7  8  2  0  0  0  0
  7  5  1  0  0  0  0
  8 10  1  0  0  0  0
  9  8  1  0  0  0  0
 10 11  1  0  0  0  0
 10 12  2  0  0  0  0
 12 13  1  0  0  0  0
 14 15  1  0  0  0  0
 14  7  1  0  0  0  0
 16 14  1  0  0  0  0
 17  4  1  0  0  0  0
 18  4  1  0  0  0  0
 20 22  1  0  0  0  0
 21 35  1  0  0  0  0
 21 34  1  0  0  0  0
 22 23  1  0  0  0  0
 22 24  1  0  0  0  0
 24 31  1  0  0  0  0
 25 24  2  0  0  0  0
 25 26  1  0  0  0  0
 27 25  1  0  0  0  0
 28 27  1  0  0  0  0
 29 20  1  0  0  0  0
 29 27  2  0  0  0  0
 30 29  1  0  0  0  0
 31 33  1  0  0  0  0
 31 21  1  0  0  0  0
 32 31  1  0  0  0  0
M  END
$$$$
