CSD_code = EYIZET | q = 0 | S = 0 | Stoichiometry = C26H22I2N6O4Zn | MND = 4
 OpenBabel04212202033D

 61 64  0  0  0  0  0  0  0  0999 V2000
    0.1128    1.5779    9.7741 C   0  0  0  0  0  3  0  0  0  0  0  0
   -0.9516    1.6939    9.6262 H   0  0  0  0  0  0  0  0  0  0  0  0
    0.5991    0.7111   10.7332 C   0  0  0  0  0  0  0  0  0  0  0  0
   -0.0684    0.1216   11.3410 H   0  0  0  0  0  0  0  0  0  0  0  0
    1.9752    0.6090   10.9163 C   0  0  0  0  0  0  0  0  0  0  0  0
    2.8006    1.3613   10.0860 C   0  0  0  0  0  0  0  0  0  0  0  0
    3.8762    1.2968   10.1444 H   0  0  0  0  0  0  0  0  0  0  0  0
    2.2193    2.1887    9.1425 C   0  0  0  0  0  0  0  0  0  0  0  0
    2.8370    2.7816    8.4817 H   0  0  0  0  0  0  0  0  0  0  0  0
    2.4927   -0.3486   11.9503 C   0  0  0  0  0  0  0  0  0  0  0  0
    5.1654   -0.1141   14.2147 C   0  0  0  0  0  0  0  0  0  0  0  0
    5.5394    0.8976   14.0001 H   0  0  0  0  0  0  0  0  0  0  0  0
    5.8404   -0.8563   15.2511 C   0  0  0  0  0  0  0  0  0  0  0  0
    5.4198   -2.1432   15.5990 C   0  0  0  0  0  0  0  0  0  0  0  0
    4.5781   -2.5681   15.0764 H   0  0  0  0  0  0  0  0  0  0  0  0
    6.0696   -2.8468   16.5881 C   0  0  0  0  0  0  0  0  0  0  0  0
    5.7394   -3.8424   16.8539 H   0  0  0  0  0  0  0  0  0  0  0  0
    7.1567   -2.2818   17.2538 C   0  0  0  0  0  0  0  0  0  0  0  0
    7.5821   -0.9983   16.9135 C   0  0  0  0  0  0  0  0  0  0  0  0
    8.4240   -0.5766   17.4388 H   0  0  0  0  0  0  0  0  0  0  0  0
    6.9297   -0.2968   15.9245 C   0  0  0  0  0  0  0  0  0  0  0  0
    7.2652    0.6974   15.6667 H   0  0  0  0  0  0  0  0  0  0  0  0
    3.9371    1.0633   12.4231 H   0  0  0  0  0  0  0  0  0  0  0  0
    1.9300    4.7163    6.3182 I   0  0  0  0  0  0  0  0  0  0  0  0
    0.9043    2.3107    8.9959 N   0  0  0  0  0  0  0  0  0  0  0  0
    3.5924    0.1174   12.6120 N   0  0  0  0  0  0  0  0  0  0  0  0
    4.1841   -0.6090   13.5751 N   0  0  0  0  0  0  0  0  0  0  0  0
    1.9642   -1.4133   12.1599 O   0  0  0  0  0  0  0  0  0  0  0  0
    7.8249   -2.9383   18.2308 O   0  0  0  0  0  0  0  0  0  0  0  0
    7.4366   -3.8107   18.3731 H   0  0  0  0  0  0  0  0  0  0  0  0
   -0.0003    3.8105    7.6575 Zn  0  0  0  0  0  0  0  0  0  0  0  0
   -0.1131    1.5779    5.5407 C   0  0  0  0  0  3  0  0  0  0  0  0
    0.9514    1.6936    5.6890 H   0  0  0  0  0  0  0  0  0  0  0  0
   -0.5992    0.7106    4.5819 C   0  0  0  0  0  0  0  0  0  0  0  0
    0.0684    0.1204    3.9751 H   0  0  0  0  0  0  0  0  0  0  0  0
   -1.9753    0.6087    4.3986 C   0  0  0  0  0  0  0  0  0  0  0  0
   -2.8008    1.3616    5.2283 C   0  0  0  0  0  0  0  0  0  0  0  0
   -3.8764    1.2976    5.1694 H   0  0  0  0  0  0  0  0  0  0  0  0
   -2.2196    2.1891    6.1718 C   0  0  0  0  0  0  0  0  0  0  0  0
   -2.8373    2.7834    6.8312 H   0  0  0  0  0  0  0  0  0  0  0  0
   -2.4928   -0.3494    3.3652 C   0  0  0  0  0  0  0  0  0  0  0  0
   -5.1647   -0.1149    1.0999 C   0  0  0  0  0  0  0  0  0  0  0  0
   -5.5383    0.8970    1.3144 H   0  0  0  0  0  0  0  0  0  0  0  0
   -5.8400   -0.8568    0.0636 C   0  0  0  0  0  0  0  0  0  0  0  0
   -5.4196   -2.1436   -0.2849 C   0  0  0  0  0  0  0  0  0  0  0  0
   -4.5779   -2.5688    0.2373 H   0  0  0  0  0  0  0  0  0  0  0  0
   -6.0696   -2.8467   -1.2742 C   0  0  0  0  0  0  0  0  0  0  0  0
   -5.7396   -3.8423   -1.5404 H   0  0  0  0  0  0  0  0  0  0  0  0
   -7.1570   -2.2814   -1.9394 C   0  0  0  0  0  0  0  0  0  0  0  0
   -7.5821   -0.9979   -1.5985 C   0  0  0  0  0  0  0  0  0  0  0  0
   -8.4240   -0.5760   -2.1235 H   0  0  0  0  0  0  0  0  0  0  0  0
   -6.9294   -0.2970   -0.6093 C   0  0  0  0  0  0  0  0  0  0  0  0
   -7.2647    0.6972   -0.3512 H   0  0  0  0  0  0  0  0  0  0  0  0
   -3.9367    1.0625    2.8914 H   0  0  0  0  0  0  0  0  0  0  0  0
   -1.9306    4.7156    8.9969 I   0  0  0  0  0  0  0  0  0  0  0  0
   -0.9047    2.3109    6.3186 N   0  0  0  0  0  0  0  0  0  0  0  0
   -3.5921    0.1165    2.7029 N   0  0  0  0  0  0  0  0  0  0  0  0
   -4.1836   -0.6100    1.7397 N   0  0  0  0  0  0  0  0  0  0  0  0
   -1.9642   -1.4143    3.1563 O   0  0  0  0  0  0  0  0  0  0  0  0
   -7.8254   -2.9375   -2.9165 O   0  0  0  0  0  0  0  0  0  0  0  0
   -7.4371   -3.8097   -3.0594 H   0  0  0  0  0  0  0  0  0  0  0  0
  1  3  1  0  0  0  0
  2  1  1  0  0  0  0
  3  5  2  0  0  0  0
  3  4  1  0  0  0  0
  5 10  1  0  0  0  0
  6  7  1  0  0  0  0
  6  5  1  0  0  0  0
  8  6  2  0  0  0  0
  9  8  1  0  0  0  0
 10 28  2  0  0  0  0
 10 26  1  0  0  0  0
 11 13  1  0  0  0  0
 12 11  1  0  0  0  0
 13 14  2  0  0  0  0
 13 21  1  0  0  0  0
 14 16  1  0  0  0  0
 15 14  1  0  0  0  0
 16 17  1  0  0  0  0
 16 18  2  0  0  0  0
 18 29  1  0  0  0  0
 19 18  1  0  0  0  0
 19 20  1  0  0  0  0
 21 19  2  0  0  0  0
 22 21  1  0  0  0  0
 23 26  1  0  0  0  0
 24 31  1  0  0  0  0
 25  8  1  0  0  0  0
 25  1  1  0  0  0  0
 26 27  1  0  0  0  0
 27 11  2  0  0  0  0
 29 30  1  0  0  0  0
 31 25  1  0  0  0  0
 31 55  1  0  0  0  0
 32 33  1  0  0  0  0
 32 56  1  0  0  0  0
 34 32  1  0  0  0  0
 35 34  1  0  0  0  0
 36 34  2  0  0  0  0
 36 37  1  0  0  0  0
 37 39  2  0  0  0  0
 38 37  1  0  0  0  0
 39 56  1  0  0  0  0
 39 40  1  0  0  0  0
 41 36  1  0  0  0  0
 42 43  1  0  0  0  0
 42 58  2  0  0  0  0
 44 42  1  0  0  0  0
 45 44  1  0  0  0  0
 45 46  1  0  0  0  0
 47 45  2  0  0  0  0
 48 47  1  0  0  0  0
 49 50  2  0  0  0  0
 49 47  1  0  0  0  0
 50 52  1  0  0  0  0
 51 50  1  0  0  0  0
 52 53  1  0  0  0  0
 52 44  2  0  0  0  0
 56 31  1  0  0  0  0
 57 54  1  0  0  0  0
 57 41  1  0  0  0  0
 58 57  1  0  0  0  0
 59 41  2  0  0  0  0
 60 49  1  0  0  0  0
 61 60  1  0  0  0  0
M  END
$$$$
