CSD_code = EYOLUZ | q = -1 | S = 0 | Stoichiometry = C4H6Cl2CuO2(1-) | MND = 4
 OpenBabel04212202033D

 15 12  0  0  1  0  0  0  0  0999 V2000
    1.8032    3.2056   -0.0000 Cu  0  0  0  0  0  0  0  0  0  0  0  0
    1.5416    2.2310    1.9600 Cl  0  0  0  0  0 15  0  0  0  0  0  0
    1.6655    6.8308   -2.2096 O   0  0  0  0  0  0  0  0  0  0  0  0
    2.1325    5.1074   -0.6153 C   0  0  0  0  0  2  0  0  0  0  0  0
    2.1570    5.5102   -2.0254 C   0  0  0  0  0  0  0  0  0  0  0  0
    0.7647    6.8585   -1.8701 H   0  0  0  0  0  0  0  0  0  0  0  0
    3.1922    5.5224   -2.3803 H   0  0  0  0  0  0  0  0  0  0  0  0
    1.5918    4.7881   -2.6297 H   0  0  0  0  0  0  0  0  0  0  0  0
    1.5416    2.2310   -1.9600 Cl  0  0  0  0  0 15  0  0  0  0  0  0
    2.1325    5.1074    0.6153 C   0  0  1  0  0  3  0  0  0  0  0  0
    2.1570    5.5102    2.0254 C   0  0  0  0  0  0  0  0  0  0  0  0
    1.6655    6.8308    2.2096 O   0  0  0  0  0  0  0  0  0  0  0  0
    0.7647    6.8585    1.8702 H   0  0  0  0  0  0  0  0  0  0  0  0
    3.1922    5.5225    2.3803 H   0  0  0  0  0  0  0  0  0  0  0  0
    1.5918    4.7881    2.6298 H   0  0  0  0  0  0  0  0  0  0  0  0
  3  5  1  0  0  0  0
  3  6  1  0  0  0  0
  4 10  1  0  0  0  0
  5  4  1  0  0  0  0
  7  5  1  0  0  0  0
  8  5  1  0  0  0  0
 10  1  1  6  0  0  0
 10 11  1  0  0  0  0
 11 12  1  0  0  0  0
 11 14  1  0  0  0  0
 11 15  1  0  0  0  0
 13 12  1  0  0  0  0
M  END
$$$$
