CSD_code = EYOWUK | q = 0 | S = 0 | Stoichiometry = C8H11Br3Ti | MND = 8
 OpenBabel04212202033D

 23 20  0  0  1  0  0  0  0  0999 V2000
    1.7459    2.1207    3.0742 Ti  0  0  0  0  0  0  0  0  0  0  0  0
    0.1405    3.7520    3.7471 Br  0  0  0  0  0 15  0  0  0  0  0  0
    0.9168    1.7504    0.8695 Br  0  0  0  0  0 15  0  0  0  0  0  0
    0.7768    0.1990    4.1032 Br  0  0  0  0  0 15  0  0  0  0  0  0
    3.6160    1.8577    4.3632 C   0  0  0  0  0  0  0  0  0  0  0  0
    3.6807    1.3085    5.2961 H   0  0  0  0  0  0  0  0  0  0  0  0
    3.3658    3.2439    4.2304 C   0  0  1  0  0  0  0  0  0  0  0  0
    3.2054    3.9432    5.0436 H   0  0  0  0  0  0  0  0  0  0  0  0
    3.4895    3.5880    2.8596 C   0  0  0  0  0  0  0  0  0  0  0  0
    3.8386    2.4074    2.1441 C   0  0  0  0  0  0  0  0  0  0  0  0
    3.8960    1.3320    3.0758 C   0  0  0  0  0  0  0  0  0  0  0  0
    3.3435    4.9615    2.2785 C   0  0  0  0  0  0  0  0  0  0  0  0
    2.9003    5.6392    3.0080 H   0  0  0  0  0  0  0  0  0  0  0  0
    2.7101    4.9483    1.3874 H   0  0  0  0  0  0  0  0  0  0  0  0
    4.3201    5.3546    1.9894 H   0  0  0  0  0  0  0  0  0  0  0  0
    4.2446    2.3407    0.7038 C   0  0  0  0  0  0  0  0  0  0  0  0
    3.7423    3.1070    0.1145 H   0  0  0  0  0  0  0  0  0  0  0  0
    4.0151    1.3674    0.2711 H   0  0  0  0  0  0  0  0  0  0  0  0
    5.3224    2.5020    0.6238 H   0  0  0  0  0  0  0  0  0  0  0  0
    4.2554   -0.0881    2.7605 C   0  0  0  0  0  0  0  0  0  0  0  0
    5.3155   -0.1619    2.5102 H   0  0  0  0  0  0  0  0  0  0  0  0
    3.6831   -0.4601    1.9063 H   0  0  0  0  0  0  0  0  0  0  0  0
    4.0570   -0.7317    3.6173 H   0  0  0  0  0  0  0  0  0  0  0  0
  1  7  1  0  0  0  0
  5  6  1  0  0  0  0
  7  5  1  0  0  0  0
  7  8  1  1  0  0  0
  9  7  1  0  0  0  0
 10  9  2  0  0  0  0
 10 11  1  0  0  0  0
 11  5  2  0  0  0  0
 12  9  1  0  0  0  0
 12 13  1  0  0  0  0
 14 12  1  0  0  0  0
 15 12  1  0  0  0  0
 16 10  1  0  0  0  0
 17 16  1  0  0  0  0
 18 16  1  0  0  0  0
 19 16  1  0  0  0  0
 20 11  1  0  0  0  0
 20 23  1  0  0  0  0
 21 20  1  0  0  0  0
 22 20  1  0  0  0  0
M  END
$$$$
