CSD_code = EZABAK | q = 0 | S = 0 | Stoichiometry = C19H24BrN2O3ReS2 | MND = 6
 OpenBabel04212202033D

 52 55  0  0  1  0  0  0  0  0999 V2000
    1.5089    6.1333   11.9312 C   0  0  0  0  0  2  0  0  0  0  0  0
    2.1741    6.3885   12.8299 O   0  0  0  0  0  1  0  0  0  0  0  0
   -1.1080    5.1347   11.3445 C   0  0  0  0  0  2  0  0  0  0  0  0
   -2.0557    4.7758   11.8806 O   0  0  0  0  0  1  0  0  0  0  0  0
   -0.1311    7.4559   10.0238 C   0  0  0  0  0  2  0  0  0  0  0  0
   -0.4671    8.5147    9.7381 O   0  0  0  0  0  1  0  0  0  0  0  0
    1.3806    3.3260   10.3259 Br  0  0  0  0  0  0  0  0  0  0  0  0
    0.4815    5.6537   10.3503 Re  0  0  0  0  0  0  0  0  0  0  0  0
   -0.3812    5.0877    7.9179 S   0  0  0  0  0  0  0  0  0  0  0  0
    2.3286    6.1294    8.5214 S   0  0  0  0  0  0  0  0  0  0  0  0
    1.2068    5.4282    7.4802 C   0  0  0  0  0  3  0  0  0  0  0  0
    1.6638    5.0561    6.1468 C   0  0  2  0  0  3  0  0  0  0  0  0
    2.2559    3.9032    5.8255 N   0  0  0  0  0  0  0  0  0  0  0  0
    2.5651    3.9430    4.4977 C   0  0  0  0  0  0  0  0  0  0  0  0
    3.0494    3.1316    3.9970 H   0  0  0  0  0  0  0  0  0  0  0  0
    2.1494    5.1428    4.0154 C   0  0  0  0  0  0  0  0  0  0  0  0
    2.2152    5.5461    3.0274 H   0  0  0  0  0  0  0  0  0  0  0  0
    1.5823    5.8248    5.0533 N   0  0  0  0  0  0  0  0  0  0  0  0
    2.5254    2.8134    6.7497 C   0  0  0  0  0  0  0  0  0  0  0  0
    2.1071    3.0951    7.7213 H   0  0  0  0  0  0  0  0  0  0  0  0
    4.0292    2.6072    6.9210 C   0  0  0  0  0  0  0  0  0  0  0  0
    4.4934    3.5418    7.2425 H   0  0  0  0  0  0  0  0  0  0  0  0
    4.4783    2.3090    5.9699 H   0  0  0  0  0  0  0  0  0  0  0  0
    4.2578    1.5221    7.9703 C   0  0  0  0  0  0  0  0  0  0  0  0
    3.8393    1.8526    8.9220 H   0  0  0  0  0  0  0  0  0  0  0  0
    5.3287    1.3637    8.1024 H   0  0  0  0  0  0  0  0  0  0  0  0
    3.5785    0.2227    7.5510 C   0  0  0  0  0  0  0  0  0  0  0  0
    4.0224   -0.1441    6.6214 H   0  0  0  0  0  0  0  0  0  0  0  0
    3.7342   -0.5342    8.3193 H   0  0  0  0  0  0  0  0  0  0  0  0
    2.0835    0.4503    7.3544 C   0  0  0  0  0  0  0  0  0  0  0  0
    1.6444    0.7749    8.2990 H   0  0  0  0  0  0  0  0  0  0  0  0
    1.5965   -0.4766    7.0493 H   0  0  0  0  0  0  0  0  0  0  0  0
    1.8442    1.5247    6.2962 C   0  0  0  0  0  0  0  0  0  0  0  0
    0.7731    1.6981    6.1729 H   0  0  0  0  0  0  0  0  0  0  0  0
    2.2534    1.1979    5.3369 H   0  0  0  0  0  0  0  0  0  0  0  0
    1.0422    7.1734    5.0440 C   0  0  0  0  0  0  0  0  0  0  0  0
    0.4274    7.2650    5.9473 H   0  0  0  0  0  0  0  0  0  0  0  0
    2.1765    8.1985    5.1169 C   0  0  0  0  0  0  0  0  0  0  0  0
    2.8094    8.1050    4.2311 H   0  0  0  0  0  0  0  0  0  0  0  0
    2.7913    8.0030    5.9982 H   0  0  0  0  0  0  0  0  0  0  0  0
    1.5861    9.6040    5.1905 C   0  0  0  0  0  0  0  0  0  0  0  0
    1.0096    9.7041    6.1122 H   0  0  0  0  0  0  0  0  0  0  0  0
    2.3942   10.3356    5.2216 H   0  0  0  0  0  0  0  0  0  0  0  0
    0.6818    9.8714    3.9911 C   0  0  0  0  0  0  0  0  0  0  0  0
    1.2743    9.8407    3.0736 H   0  0  0  0  0  0  0  0  0  0  0  0
    0.2468   10.8678    4.0740 H   0  0  0  0  0  0  0  0  0  0  0  0
   -0.4302    8.8291    3.9138 C   0  0  0  0  0  0  0  0  0  0  0  0
   -1.0590    9.0157    3.0423 H   0  0  0  0  0  0  0  0  0  0  0  0
   -1.0600    8.9006    4.8026 H   0  0  0  0  0  0  0  0  0  0  0  0
    0.1625    7.4244    3.8226 C   0  0  0  0  0  0  0  0  0  0  0  0
   -0.6336    6.6783    3.7792 H   0  0  0  0  0  0  0  0  0  0  0  0
    0.7572    7.3480    2.9103 H   0  0  0  0  0  0  0  0  0  0  0  0
  1  2  1  0  0  0  0
  3  4  1  0  0  0  0
  5  8  1  0  0  0  0
  6  5  1  0  0  0  0
  7  8  1  0  0  0  0
  8  3  1  0  0  0  0
  8  1  1  0  0  0  0
  9  8  1  0  0  0  0
 10  8  1  0  0  0  0
 11  9  1  0  0  0  0
 11 10  1  0  0  0  0
 12 11  1  1  0  0  0
 13 12  1  0  0  0  0
 13 19  1  0  0  0  0
 14 13  1  0  0  0  0
 15 14  1  0  0  0  0
 16 14  2  0  0  0  0
 16 18  1  0  0  0  0
 17 16  1  0  0  0  0
 18 12  1  0  0  0  0
 19 21  1  0  0  0  0
 19 20  1  0  0  0  0
 21 22  1  0  0  0  0
 21 24  1  0  0  0  0
 23 21  1  0  0  0  0
 24 26  1  0  0  0  0
 24 25  1  0  0  0  0
 27 24  1  0  0  0  0
 27 29  1  0  0  0  0
 28 27  1  0  0  0  0
 30 27  1  0  0  0  0
 30 31  1  0  0  0  0
 32 30  1  0  0  0  0
 33 19  1  0  0  0  0
 33 30  1  0  0  0  0
 34 33  1  0  0  0  0
 35 33  1  0  0  0  0
 36 18  1  0  0  0  0
 36 38  1  0  0  0  0
 36 37  1  0  0  0  0
 38 41  1  0  0  0  0
 38 40  1  0  0  0  0
 39 38  1  0  0  0  0
 41 43  1  0  0  0  0
 41 42  1  0  0  0  0
 44 46  1  0  0  0  0
 44 41  1  0  0  0  0
 45 44  1  0  0  0  0
 47 44  1  0  0  0  0
 47 49  1  0  0  0  0
 48 47  1  0  0  0  0
 50 47  1  0  0  0  0
 50 36  1  0  0  0  0
 51 50  1  0  0  0  0
 52 50  1  0  0  0  0
M  END
$$$$
