CSD_code = EZABIS | q = 0 | S = 0 | Stoichiometry = C25H26BrN2O3ReS2 | MND = 6
 OpenBabel04212202033D

 60 63  0  0  0  0  0  0  0  0999 V2000
   10.3511    6.9885    6.6924 C   0  0  0  0  0  2  0  0  0  0  0  0
    9.8716    8.0251    6.5947 O   0  0  0  0  0  1  0  0  0  0  0  0
   12.5738    5.4836    5.6911 C   0  0  0  0  0  2  0  0  0  0  0  0
   13.4656    5.5942    4.9795 O   0  0  0  0  0  1  0  0  0  0  0  0
   12.0398    5.5511    8.4760 C   0  0  0  0  0  2  0  0  0  0  0  0
   12.6016    5.6874    9.4674 O   0  0  0  0  0  1  0  0  0  0  0  0
    9.6119    4.3822    4.9606 Br  0  0  0  0  0  0  0  0  0  0  0  0
   11.0480    5.1783    6.8613 Re  0  0  0  0  0  0  0  0  0  0  0  0
   11.4965    2.6836    7.3773 S   0  0  0  0  0  0  0  0  0  0  0  0
    9.1523    4.2019    8.2933 S   0  0  0  0  0  0  0  0  0  0  0  0
    9.9946    2.7477    8.1464 C   0  0  0  0  0  3  0  0  0  0  0  0
    9.4130    1.5432    8.6860 C   0  0  0  0  0  3  0  0  0  0  0  0
    8.1368    1.2127    8.5628 N   0  0  0  0  0  0  0  0  0  0  0  0
    7.8678   -0.0597    9.2172 C   0  0  0  0  0  0  0  0  0  0  0  0
    7.5207   -0.7889    8.4790 H   0  0  0  0  0  0  0  0  0  0  0  0
    7.0854    0.0636    9.9705 H   0  0  0  0  0  0  0  0  0  0  0  0
    9.2280   -0.4346    9.8275 C   0  0  0  0  0  0  0  0  0  0  0  0
    9.2050   -0.4655   10.9212 H   0  0  0  0  0  0  0  0  0  0  0  0
    9.6030   -1.3956    9.4667 H   0  0  0  0  0  0  0  0  0  0  0  0
   10.0988    0.6456    9.3833 N   0  0  0  0  0  0  0  0  0  0  0  0
    7.2312    1.8376    7.6574 C   0  0  0  0  0  0  0  0  0  0  0  0
    6.2064    2.6358    8.1654 C   0  0  0  0  0  0  0  0  0  0  0  0
    5.3859    3.2995    7.2682 C   0  0  0  0  0  0  0  0  0  0  0  0
    4.6025    3.9375    7.6506 H   0  0  0  0  0  0  0  0  0  0  0  0
    5.5754    3.1926    5.8970 C   0  0  0  0  0  0  0  0  0  0  0  0
    6.5887    2.3726    5.4241 C   0  0  0  0  0  0  0  0  0  0  0  0
    6.7605    2.2954    4.3619 H   0  0  0  0  0  0  0  0  0  0  0  0
    7.4274    1.6813    6.2848 C   0  0  0  0  0  0  0  0  0  0  0  0
    6.0192    2.7996    9.6440 C   0  0  0  0  0  0  0  0  0  0  0  0
    5.4122    3.6766    9.8502 H   0  0  0  0  0  0  0  0  0  0  0  0
    6.9777    2.9207   10.1463 H   0  0  0  0  0  0  0  0  0  0  0  0
    5.5119    1.9315   10.0678 H   0  0  0  0  0  0  0  0  0  0  0  0
    4.7331    3.9667    4.9348 C   0  0  0  0  0  0  0  0  0  0  0  0
    5.3449    4.7302    4.4560 H   0  0  0  0  0  0  0  0  0  0  0  0
    3.9011    4.4514    5.4388 H   0  0  0  0  0  0  0  0  0  0  0  0
    4.3462    3.3155    4.1534 H   0  0  0  0  0  0  0  0  0  0  0  0
    8.5268    0.8392    5.7158 C   0  0  0  0  0  0  0  0  0  0  0  0
    8.1669    0.3001    4.8428 H   0  0  0  0  0  0  0  0  0  0  0  0
    8.9259    0.1219    6.4307 H   0  0  0  0  0  0  0  0  0  0  0  0
    9.3375    1.4861    5.3796 H   0  0  0  0  0  0  0  0  0  0  0  0
   11.4298    0.8178    9.8561 C   0  0  0  0  0  0  0  0  0  0  0  0
   11.6884    1.7742   10.8404 C   0  0  0  0  0  0  0  0  0  0  0  0
   12.9992    1.9480   11.2552 C   0  0  0  0  0  0  0  0  0  0  0  0
   13.2151    2.6969   12.0028 H   0  0  0  0  0  0  0  0  0  0  0  0
   14.0386    1.1973   10.7229 C   0  0  0  0  0  0  0  0  0  0  0  0
   13.7469    0.2497    9.7530 C   0  0  0  0  0  0  0  0  0  0  0  0
   14.5466   -0.3333    9.3205 H   0  0  0  0  0  0  0  0  0  0  0  0
   12.4521    0.0487    9.3006 C   0  0  0  0  0  0  0  0  0  0  0  0
   10.6024    2.6264   11.4246 C   0  0  0  0  0  0  0  0  0  0  0  0
   10.8629    2.9238   12.4372 H   0  0  0  0  0  0  0  0  0  0  0  0
    9.6427    2.1128   11.4484 H   0  0  0  0  0  0  0  0  0  0  0  0
   10.4831    3.5375   10.8362 H   0  0  0  0  0  0  0  0  0  0  0  0
   15.4415    1.4247   11.1898 C   0  0  0  0  0  0  0  0  0  0  0  0
   15.5227    1.2207   12.2568 H   0  0  0  0  0  0  0  0  0  0  0  0
   15.7257    2.4631   11.0280 H   0  0  0  0  0  0  0  0  0  0  0  0
   16.1400    0.7848   10.6578 H   0  0  0  0  0  0  0  0  0  0  0  0
   12.1689   -0.9459    8.2166 C   0  0  0  0  0  0  0  0  0  0  0  0
   11.7778   -1.8749    8.6338 H   0  0  0  0  0  0  0  0  0  0  0  0
   13.0815   -1.1803    7.6760 H   0  0  0  0  0  0  0  0  0  0  0  0
   11.4437   -0.5497    7.5081 H   0  0  0  0  0  0  0  0  0  0  0  0
  1  8  1  0  0  0  0
  2  1  1  0  0  0  0
  3  8  1  0  0  0  0
  4  3  1  0  0  0  0
  5  6  1  0  0  0  0
  7  8  1  0  0  0  0
  8  9  1  0  0  0  0
  8 10  1  0  0  0  0
  8  5  1  0  0  0  0
  9 11  1  0  0  0  0
 11 10  1  0  0  0  0
 11 12  1  0  0  0  0
 12 20  1  0  0  0  0
 13 12  1  0  0  0  0
 13 14  1  0  0  0  0
 14 17  1  0  0  0  0
 14 16  1  0  0  0  0
 15 14  1  0  0  0  0
 17 18  1  0  0  0  0
 19 17  1  0  0  0  0
 20 17  1  0  0  0  0
 20 41  1  0  0  0  0
 21 22  1  0  0  0  0
 21 13  1  0  0  0  0
 22 29  1  0  0  0  0
 23 24  1  0  0  0  0
 23 22  2  0  0  0  0
 25 23  1  0  0  0  0
 26 25  2  0  0  0  0
 26 28  1  0  0  0  0
 27 26  1  0  0  0  0
 28 21  2  0  0  0  0
 29 30  1  0  0  0  0
 29 32  1  0  0  0  0
 29 31  1  0  0  0  0
 33 35  1  0  0  0  0
 33 25  1  0  0  0  0
 34 33  1  0  0  0  0
 36 33  1  0  0  0  0
 37 28  1  0  0  0  0
 37 39  1  0  0  0  0
 38 37  1  0  0  0  0
 40 37  1  0  0  0  0
 41 42  1  0  0  0  0
 42 43  2  0  0  0  0
 42 49  1  0  0  0  0
 43 44  1  0  0  0  0
 45 53  1  0  0  0  0
 45 43  1  0  0  0  0
 46 45  2  0  0  0  0
 47 46  1  0  0  0  0
 48 46  1  0  0  0  0
 48 41  2  0  0  0  0
 49 51  1  0  0  0  0
 49 50  1  0  0  0  0
 52 49  1  0  0  0  0
 53 54  1  0  0  0  0
 55 53  1  0  0  0  0
 56 53  1  0  0  0  0
 57 58  1  0  0  0  0
 57 48  1  0  0  0  0
 59 57  1  0  0  0  0
 60 57  1  0  0  0  0
M  END
$$$$
