CSD_code = EZAGAO | q = 1 | S = 0 | Stoichiometry = C6H24ClN2O3RuS3(1+) | MND = 6
 OpenBabel04212202033D

 40 39  0  0  0  0  0  0  0  0999 V2000
    2.4871    2.9450    7.9268 Ru  0  0  0  0  0  0  0  0  0  0  0  0
    0.7891    4.4446    7.4593 Cl  0  0  0  0  0  0  0  0  0  0  0  0
    3.8469    3.8365    6.3277 S   0  0  0  0  0  0  0  0  0  0  0  0
    3.2605    4.2987    9.5580 S   0  0  0  0  0  0  0  0  0  0  0  0
    4.0898    1.3943    8.4997 S   0  0  0  0  0  0  0  0  0  0  0  0
    4.3859    2.6139    5.7243 O   0  0  0  0  0  1  0  0  0  0  0  0
    4.6985    4.4297    9.3761 O   0  0  0  0  0  1  0  0  0  0  0  0
    3.6979    0.9975    9.8565 O   0  0  0  0  0  1  0  0  0  0  0  0
    2.9800    4.7283    5.0027 C   0  0  0  0  0  0  0  0  0  0  0  0
    3.6955    4.9971    4.2339 H   0  0  0  0  0  0  0  0  0  0  0  0
    2.5155    5.6056    5.4390 H   0  0  0  0  0  0  0  0  0  0  0  0
    2.2119    4.0830    4.5888 H   0  0  0  0  0  0  0  0  0  0  0  0
    5.2351    4.9855    6.5171 C   0  0  0  0  0  0  0  0  0  0  0  0
    5.7663    4.7517    7.4330 H   0  0  0  0  0  0  0  0  0  0  0  0
    4.8421    5.9935    6.5667 H   0  0  0  0  0  0  0  0  0  0  0  0
    5.8769    4.8525    5.6532 H   0  0  0  0  0  0  0  0  0  0  0  0
    2.5899    5.9782    9.6744 C   0  0  0  0  0  0  0  0  0  0  0  0
    3.0926    6.4939   10.4845 H   0  0  0  0  0  0  0  0  0  0  0  0
    1.5211    5.9110    9.8411 H   0  0  0  0  0  0  0  0  0  0  0  0
    2.7797    6.4821    8.7326 H   0  0  0  0  0  0  0  0  0  0  0  0
    3.0005    3.7707   11.2732 C   0  0  0  0  0  0  0  0  0  0  0  0
    3.2998    2.7283   11.3440 H   0  0  0  0  0  0  0  0  0  0  0  0
    1.9570    3.9011   11.5331 H   0  0  0  0  0  0  0  0  0  0  0  0
    3.6367    4.3800   11.9052 H   0  0  0  0  0  0  0  0  0  0  0  0
    5.8638    1.7352    8.5245 C   0  0  0  0  0  0  0  0  0  0  0  0
    6.0172    2.6616    9.0685 H   0  0  0  0  0  0  0  0  0  0  0  0
    6.1920    1.8300    7.4964 H   0  0  0  0  0  0  0  0  0  0  0  0
    6.3569    0.9138    9.0313 H   0  0  0  0  0  0  0  0  0  0  0  0
    4.1518   -0.1299    7.5087 C   0  0  0  0  0  0  0  0  0  0  0  0
    4.8932   -0.7966    7.9331 H   0  0  0  0  0  0  0  0  0  0  0  0
    4.4171    0.1576    6.4981 H   0  0  0  0  0  0  0  0  0  0  0  0
    3.1760   -0.6024    7.5421 H   0  0  0  0  0  0  0  0  0  0  0  0
    1.0958    1.9759    9.2851 N   0  0  0  0  0  4  0  0  0  0  0  0
    0.4256    1.3588    8.8250 H   0  0  0  0  0  0  0  0  0  0  0  0
    0.5444    2.6714    9.7893 H   0  0  0  0  0  0  0  0  0  0  0  0
    1.6445    1.4200    9.9494 H   0  0  0  0  0  0  0  0  0  0  0  0
    1.6629    1.7343    6.2911 N   0  0  0  0  0  4  0  0  0  0  0  0
    1.3170    0.7975    6.4932 H   0  0  0  0  0  0  0  0  0  0  0  0
    2.3780    1.6574    5.5637 H   0  0  0  0  0  0  0  0  0  0  0  0
    0.8791    2.2849    5.9264 H   0  0  0  0  0  0  0  0  0  0  0  0
  1  5  1  0  0  0  0
  1 33  1  0  0  0  0
  1  4  1  0  0  0  0
  2  1  1  0  0  0  0
  3 13  1  0  0  0  0
  3  1  1  0  0  0  0
  4 17  1  0  0  0  0
  4 21  1  0  0  0  0
  5 25  1  0  0  0  0
  5  8  1  0  0  0  0
  6  3  1  0  0  0  0
  7  4  1  0  0  0  0
  9 11  1  0  0  0  0
  9  3  1  0  0  0  0
 10  9  1  0  0  0  0
 12  9  1  0  0  0  0
 13 15  1  0  0  0  0
 13 14  1  0  0  0  0
 16 13  1  0  0  0  0
 17 19  1  0  0  0  0
 17 18  1  0  0  0  0
 20 17  1  0  0  0  0
 21 22  1  0  0  0  0
 21 23  1  0  0  0  0
 21 24  1  0  0  0  0
 25 28  1  0  0  0  0
 25 26  1  0  0  0  0
 27 25  1  0  0  0  0
 29 32  1  0  0  0  0
 29 30  1  0  0  0  0
 29  5  1  0  0  0  0
 31 29  1  0  0  0  0
 33 35  1  0  0  0  0
 33 36  1  0  0  0  0
 34 33  1  0  0  0  0
 37 38  1  0  0  0  0
 37  1  1  0  0  0  0
 39 37  1  0  0  0  0
 40 37  1  0  0  0  0
M  END
$$$$
