CSD_code = EZALOG | q = 0 | S = 0 | Stoichiometry = C21H10ClN4O3Re | MND = 6
 OpenBabel04212202033D

 40 45  0  0  0  0  0  0  0  0999 V2000
    2.7658    0.6122    7.0825 Re  0  0  0  0  0  0  0  0  0  0  0  0
    4.0353    1.4378    5.2373 Cl  0  0  0  0  0  0  0  0  0  0  0  0
    4.7828    4.8958    8.3464 N   0  0  0  0  0  0  0  0  0  0  0  0
    4.7395    0.1803    7.7815 N   0  0  0  0  0  0  0  0  0  0  0  0
    3.4104    2.4745    7.9487 N   0  0  0  0  0  0  0  0  0  0  0  0
    1.2917   -0.3221    9.6345 O   0  0  0  0  0  1  0  0  0  0  0  0
    7.4796    4.9382    8.3952 N   0  0  0  0  0  0  0  0  0  0  0  0
    5.4777    1.2978    7.9279 C   0  0  0  0  0  0  0  0  0  0  0  0
    4.7420    2.5322    8.0229 C   0  0  0  0  0  0  0  0  0  0  0  0
    3.4469    4.8542    8.3374 C   0  0  0  0  0  0  0  0  0  0  0  0
    2.7280    6.0569    8.5084 C   0  0  0  0  0  0  0  0  0  0  0  0
    3.3001    6.9631    8.6261 H   0  0  0  0  0  0  0  0  0  0  0  0
    2.7321    3.6262    8.1575 C   0  0  0  0  0  0  0  0  0  0  0  0
    5.4307    3.7599    8.2229 C   0  0  0  0  0  0  0  0  0  0  0  0
    1.8291    0.0119    8.6751 C   0  0  0  0  0  2  0  0  0  0  0  0
    5.3607   -0.9881    7.7596 C   0  0  0  0  0  0  0  0  0  0  0  0
    4.7388   -1.8674    7.6538 H   0  0  0  0  0  0  0  0  0  0  0  0
    6.8818    3.7572    8.2594 C   0  0  0  0  0  0  0  0  0  0  0  0
    2.5558   -2.0483    5.5230 O   0  0  0  0  0  1  0  0  0  0  0  0
    6.8821    1.2858    8.0253 C   0  0  0  0  0  0  0  0  0  0  0  0
    0.3779    1.7569    5.4917 O   0  0  0  0  0  1  0  0  0  0  0  0
    6.7401   -1.1033    7.8621 C   0  0  0  0  0  0  0  0  0  0  0  0
    7.1984   -2.0788    7.8330 H   0  0  0  0  0  0  0  0  0  0  0  0
    2.5705   -1.0826    6.1336 C   0  0  0  0  0  2  0  0  0  0  0  0
    9.5981    3.8611    8.3017 C   0  0  0  0  0  0  0  0  0  0  0  0
   10.6730    3.9506    8.3130 H   0  0  0  0  0  0  0  0  0  0  0  0
    7.5083    0.0369    7.9821 C   0  0  0  0  0  0  0  0  0  0  0  0
    8.5813   -0.0469    8.0454 H   0  0  0  0  0  0  0  0  0  0  0  0
    7.5944    2.5431    8.1530 C   0  0  0  0  0  0  0  0  0  0  0  0
    8.9922    2.6304    8.1728 C   0  0  0  0  0  0  0  0  0  0  0  0
    9.6011    1.7441    8.0803 H   0  0  0  0  0  0  0  0  0  0  0  0
    1.3236    3.6501    8.2181 C   0  0  0  0  0  0  0  0  0  0  0  0
    0.7856    2.7152    8.1349 H   0  0  0  0  0  0  0  0  0  0  0  0
    1.3631    6.0437    8.5325 C   0  0  0  0  0  0  0  0  0  0  0  0
    0.8113    6.9622    8.6631 H   0  0  0  0  0  0  0  0  0  0  0  0
    1.1956    1.3031    6.1482 C   0  0  0  0  0  2  0  0  0  0  0  0
    0.6610    4.8319    8.4008 C   0  0  0  0  0  0  0  0  0  0  0  0
   -0.4173    4.8379    8.4466 H   0  0  0  0  0  0  0  0  0  0  0  0
    8.7889    4.9910    8.4159 C   0  0  0  0  0  0  0  0  0  0  0  0
    9.2177    5.9781    8.5249 H   0  0  0  0  0  0  0  0  0  0  0  0
  1  4  1  0  0  0  0
  1  5  1  0  0  0  0
  1 15  1  0  0  0  0
  2  1  1  0  0  0  0
  4  8  1  0  0  0  0
  5  9  1  0  0  0  0
  5 13  1  0  0  0  0
  7 39  1  0  0  0  0
  8  9  2  0  0  0  0
  8 20  1  0  0  0  0
  9 14  1  0  0  0  0
 10  3  1  0  0  0  0
 10 11  1  0  0  0  0
 11 34  2  0  0  0  0
 11 12  1  0  0  0  0
 13 32  1  0  0  0  0
 13 10  2  0  0  0  0
 14 18  1  0  0  0  0
 14  3  2  0  0  0  0
 15  6  1  0  0  0  0
 16  4  1  0  0  0  0
 16 22  2  0  0  0  0
 17 16  1  0  0  0  0
 18  7  2  0  0  0  0
 19 24  1  0  0  0  0
 20 29  1  0  0  0  0
 21 36  1  0  0  0  0
 22 27  1  0  0  0  0
 23 22  1  0  0  0  0
 24  1  1  0  0  0  0
 25 26  1  0  0  0  0
 25 39  2  0  0  0  0
 27 20  2  0  0  0  0
 27 28  1  0  0  0  0
 29 30  2  0  0  0  0
 29 18  1  0  0  0  0
 30 25  1  0  0  0  0
 31 30  1  0  0  0  0
 32 37  2  0  0  0  0
 33 32  1  0  0  0  0
 34 35  1  0  0  0  0
 36  1  1  0  0  0  0
 37 38  1  0  0  0  0
 37 34  1  0  0  0  0
 39 40  1  0  0  0  0
M  END
$$$$
