CSD_code = EZASUT | q = 0 | S = 0 | Stoichiometry = C8H9BrN3O3Re | MND = 6
 OpenBabel04212202033D

 25 26  0  0  0  0  0  0  0  0999 V2000
    1.7428    7.4232    4.6981 Re  0  0  0  0  0  0  0  0  0  0  0  0
    2.8763    5.8490    4.8554 C   0  0  0  0  0  2  0  0  0  0  0  0
    3.5750    4.9494    4.9814 O   0  0  0  0  0  1  0  0  0  0  0  0
    0.2905    6.4882    5.5898 C   0  0  0  0  0  2  0  0  0  0  0  0
   -0.5592    5.9707    6.1630 O   0  0  0  0  0  1  0  0  0  0  0  0
    1.1295    6.9532    2.9229 C   0  0  0  0  0  2  0  0  0  0  0  0
    0.7692    6.6797    1.8662 O   0  0  0  0  0  1  0  0  0  0  0  0
    2.6402    8.3426    6.8878 Br  0  0  0  0  0  0  0  0  0  0  0  0
    0.6312    9.3471    4.5807 N   0  0  0  0  0  0  0  0  0  0  0  0
   -0.6643    9.4660    4.7674 C   0  0  0  0  0  3  0  0  0  0  0  0
   -1.3448    8.6490    4.9128 H   0  0  0  0  0  0  0  0  0  0  0  0
   -1.0335   10.7565    4.7480 N   0  0  0  0  0  0  0  0  0  0  0  0
   -1.9654   11.1137    4.8829 H   0  0  0  0  0  0  0  0  0  0  0  0
    0.0913   11.4989    4.5377 C   0  0  0  0  0  0  0  0  0  0  0  0
    0.0794   12.5671    4.4842 H   0  0  0  0  0  0  0  0  0  0  0  0
    1.1278   10.6130    4.4369 C   0  0  0  0  0  0  0  0  0  0  0  0
    2.5734   10.9232    4.2348 C   0  0  0  0  0  0  0  0  0  0  0  0
    2.6599   11.9631    3.9169 H   0  0  0  0  0  0  0  0  0  0  0  0
    3.0952   10.8192    5.1929 H   0  0  0  0  0  0  0  0  0  0  0  0
    3.2442   10.0111    3.2032 C   0  0  0  0  0  0  0  0  0  0  0  0
    4.1797   10.4828    2.8729 H   0  0  0  0  0  0  0  0  0  0  0  0
    2.5953    9.8905    2.3296 H   0  0  0  0  0  0  0  0  0  0  0  0
    3.5133    8.6868    3.7750 N   0  0  0  0  0  4  0  0  0  0  0  0
    4.1364    8.8106    4.5811 H   0  0  0  0  0  0  0  0  0  0  0  0
    4.0255    8.1265    3.0915 H   0  0  0  0  0  0  0  0  0  0  0  0
  1  2  1  0  0  0  0
  1  4  1  0  0  0  0
  1  8  1  0  0  0  0
  2  3  1  0  0  0  0
  4  5  1  0  0  0  0
  6  1  1  0  0  0  0
  7  6  1  0  0  0  0
  9  1  1  0  0  0  0
  9 10  1  0  0  0  0
 10 11  1  0  0  0  0
 12 10  1  0  0  0  0
 12 13  1  0  0  0  0
 14 12  1  0  0  0  0
 15 14  1  0  0  0  0
 16 14  2  0  0  0  0
 16  9  1  0  0  0  0
 17 16  1  0  0  0  0
 17 19  1  0  0  0  0
 18 17  1  0  0  0  0
 20 23  1  0  0  0  0
 20 17  1  0  0  0  0
 21 20  1  0  0  0  0
 22 20  1  0  0  0  0
 23 24  1  0  0  0  0
 23  1  1  0  0  0  0
 25 23  1  0  0  0  0
M  END
$$$$
