CSD_code = EZASED | q = -1 | S = 0 | Stoichiometry = C6H4Br2N2O3Re(1-) | MND = 6
 OpenBabel04212202033D

 18 18  0  0  0  0  0  0  0  0999 V2000
    1.2518    2.3704    6.9775 Re  0  0  0  0  0  0  0  0  0  0  0  0
    2.4021    4.0631    8.5693 Br  0  0  0  0  0  0  0  0  0  0  0  0
   -1.0721    2.9006    7.9943 Br  0  0  0  0  0  0  0  0  0  0  0  0
   -0.1121    0.5075    4.9275 O   0  0  0  0  0  1  0  0  0  0  0  0
    1.6668    0.1408    9.0790 O   0  0  0  0  0  1  0  0  0  0  0  0
    3.9848    1.9307    5.6087 O   0  0  0  0  0  1  0  0  0  0  0  0
    0.8231    4.1818    5.6756 N   0  0  0  0  0  0  0  0  0  0  0  0
    0.4616    5.5073    3.9752 N   0  0  0  0  0  0  0  0  0  0  0  0
    0.3900    5.8343    3.0260 H   0  0  0  0  0  0  0  0  0  0  0  0
    0.3769    1.2101    5.7069 C   0  0  0  0  0  2  0  0  0  0  0  0
    1.5275    0.9496    8.2695 C   0  0  0  0  0  2  0  0  0  0  0  0
    2.9687    2.1088    6.1331 C   0  0  0  0  0  2  0  0  0  0  0  0
    0.8510    4.2784    4.3702 C   0  0  0  0  0  3  0  0  0  0  0  0
    1.1404    3.4953    3.6959 H   0  0  0  0  0  0  0  0  0  0  0  0
    0.1708    6.2221    5.1045 C   0  0  0  0  0  0  0  0  0  0  0  0
   -0.1666    7.2368    5.0727 H   0  0  0  0  0  0  0  0  0  0  0  0
    0.4002    5.3842    6.1519 C   0  0  0  0  0  0  0  0  0  0  0  0
    0.2884    5.5699    7.2029 H   0  0  0  0  0  0  0  0  0  0  0  0
  1  3  1  0  0  0  0
  1 11  1  0  0  0  0
  1  2  1  0  0  0  0
  4 10  1  0  0  0  0
  6 12  1  0  0  0  0
  7 17  1  0  0  0  0
  7  1  1  0  0  0  0
  8 13  1  0  0  0  0
  8 15  1  0  0  0  0
  9  8  1  0  0  0  0
 10  1  1  0  0  0  0
 11  5  1  0  0  0  0
 12  1  1  0  0  0  0
 13  7  1  0  0  0  0
 14 13  1  0  0  0  0
 15 17  2  0  0  0  0
 16 15  1  0  0  0  0
 17 18  1  0  0  0  0
M  END
$$$$
