CSD_code = EZAXUA | q = 0 | S = 0 | Stoichiometry = C15H20Cl2N2Pt | MND = 6
 OpenBabel04212202033D

 40 42  0  0  1  0  0  0  0  0999 V2000
    7.4060    1.5979    3.1172 Pt  0  0  0  0  0  0  0  0  0  0  0  0
    6.1067   -0.4475    2.8936 Cl  0  0  0  0  0  0  0  0  0  0  0  0
    8.9450    3.8364    1.5126 Cl  0  0  0  0  0  0  0  0  0  0  0  0
    6.3462    1.8904    0.3444 C   0  0  2  0  0  3  0  0  0  0  0  0
    8.2751    0.7899    1.2532 N   0  0  0  0  0  0  0  0  0  0  0  0
    6.0961    2.4234    1.5449 N   0  0  0  0  0  0  0  0  0  0  0  0
    4.5008    3.8885    0.5616 C   0  0  0  0  0  0  0  0  0  0  0  0
    3.7796    4.6787    0.6999 H   0  0  0  0  0  0  0  0  0  0  0  0
    7.3597    0.8237    0.2767 C   0  0  1  0  0  3  0  0  0  0  0  0
    9.2250   -0.1302    1.2027 C   0  0  0  0  0  0  0  0  0  0  0  0
    9.9577   -0.1095    1.9976 H   0  0  0  0  0  0  0  0  0  0  0  0
    5.2024    3.3935    1.6454 C   0  0  0  0  0  0  0  0  0  0  0  0
    5.0406    3.7989    2.6353 H   0  0  0  0  0  0  0  0  0  0  0  0
    6.3025    2.1299    4.7692 C   0  0  0  0  0  0  0  0  0  0  0  0
    6.1972    1.2661    5.4251 H   0  0  0  0  0  0  0  0  0  0  0  0
    5.3052    2.3965    4.4109 H   0  0  0  0  0  0  0  0  0  0  0  0
    6.7147    2.9602    5.3438 H   0  0  0  0  0  0  0  0  0  0  0  0
    5.6953    2.3512   -0.7962 C   0  0  0  0  0  0  0  0  0  0  0  0
    5.9383    1.9404   -1.7635 H   0  0  0  0  0  0  0  0  0  0  0  0
    7.3649   -0.1093   -0.7548 C   0  0  0  0  0  0  0  0  0  0  0  0
    6.5861   -0.0977   -1.5011 H   0  0  0  0  0  0  0  0  0  0  0  0
    4.7499    3.3643   -0.7020 C   0  0  0  0  0  0  0  0  0  0  0  0
    9.3062   -1.0807    0.2019 C   0  0  0  0  0  0  0  0  0  0  0  0
   10.0983   -1.8129    0.2158 H   0  0  0  0  0  0  0  0  0  0  0  0
    8.3413   -1.0959   -0.7989 C   0  0  0  0  0  0  0  0  0  0  0  0
    4.0342    3.8576   -1.9162 C   0  0  0  0  0  0  0  0  0  0  0  0
    3.4955    4.7776   -1.7051 H   0  0  0  0  0  0  0  0  0  0  0  0
    3.3179    3.1078   -2.2524 H   0  0  0  0  0  0  0  0  0  0  0  0
    4.7367    4.0341   -2.7284 H   0  0  0  0  0  0  0  0  0  0  0  0
    8.3353   -2.1438   -1.8621 C   0  0  0  0  0  0  0  0  0  0  0  0
    7.9019   -1.7642   -2.7844 H   0  0  0  0  0  0  0  0  0  0  0  0
    7.7333   -2.9898   -1.5295 H   0  0  0  0  0  0  0  0  0  0  0  0
    9.3424   -2.5035   -2.0586 H   0  0  0  0  0  0  0  0  0  0  0  0
    8.4516    3.3899    3.1642 C   0  0  0  0  0  0  0  0  0  0  0  0
    7.8320    4.2209    3.5130 H   0  0  0  0  0  0  0  0  0  0  0  0
    9.3722    3.3694    3.7509 H   0  0  0  0  0  0  0  0  0  0  0  0
    8.7525    0.7533    4.4243 C   0  0  0  0  0  0  0  0  0  0  0  0
    9.7634    0.8598    4.0214 H   0  0  0  0  0  0  0  0  0  0  0  0
    8.5105   -0.3077    4.5038 H   0  0  0  0  0  0  0  0  0  0  0  0
    8.7416    1.1869    5.4239 H   0  0  0  0  0  0  0  0  0  0  0  0
  1 34  1  0  0  0  0
  1 37  1  0  0  0  0
  1 14  1  0  0  0  0
  2  1  1  0  0  0  0
  3 34  1  0  0  0  0
  4 18  1  6  0  0  0
  4  6  1  0  0  0  0
  5  1  1  0  0  0  0
  6 12  1  0  0  0  0
  6  1  1  0  0  0  0
  7  8  1  0  0  0  0
  7 12  2  0  0  0  0
  9 20  1  1  0  0  0
  9  4  1  0  0  0  0
  9  5  1  0  0  0  0
 10  5  1  0  0  0  0
 10 11  1  0  0  0  0
 12 13  1  0  0  0  0
 14 17  1  0  0  0  0
 14 15  1  0  0  0  0
 16 14  1  0  0  0  0
 18 22  2  0  0  0  0
 19 18  1  0  0  0  0
 21 20  1  0  0  0  0
 22  7  1  0  0  0  0
 23 24  1  0  0  0  0
 23 10  2  0  0  0  0
 25 20  2  0  0  0  0
 25 23  1  0  0  0  0
 26 27  1  0  0  0  0
 26 22  1  0  0  0  0
 28 26  1  0  0  0  0
 29 26  1  0  0  0  0
 30 32  1  0  0  0  0
 30 25  1  0  0  0  0
 31 30  1  0  0  0  0
 33 30  1  0  0  0  0
 34 35  1  0  0  0  0
 34 36  1  0  0  0  0
 37 39  1  0  0  0  0
 37 40  1  0  0  0  0
 38 37  1  0  0  0  0
M  END
$$$$
