CSD_code = EZEQIJ | q = 0 | S = 0 | Stoichiometry = C22H20Br2F2N4Pd | MND = 4
 OpenBabel04212202033D

 51 55  0  0  1  0  0  0  0  0999 V2000
    1.5540    4.1343    3.9311 Pd  0  0  0  0  0  0  0  0  0  0  0  0
    3.3251    4.3301    2.2487 Br  0  0  0  0  0  0  0  0  0  0  0  0
    3.0871    3.3998    5.6441 Br  0  0  0  0  0  0  0  0  0  0  0  0
   -0.3989    3.9579    6.2748 N   0  0  0  0  0  0  0  0  0  0  0  0
   -1.0047    2.6645    4.6677 N   0  0  0  0  0  0  0  0  0  0  0  0
   -0.2641    3.5113    1.8153 N   0  0  0  0  0  0  0  0  0  0  0  0
    0.1373    5.6171    1.6433 N   0  0  0  0  0  0  0  0  0  0  0  0
    0.9002    3.0990   12.3525 F   0  0  0  0  0  0  0  0  0  0  0  0
    0.6348    8.3745    7.2741 F   0  0  0  0  0  0  0  0  0  0  0  0
   -0.0680    3.5775    5.0288 C   0  0  2  0  0  3  0  0  0  0  0  0
   -1.5222    3.3026    6.6996 C   0  0  0  0  0  0  0  0  0  0  0  0
   -1.9421    3.4637    7.6704 H   0  0  0  0  0  0  0  0  0  0  0  0
   -1.9040    2.4880    5.6944 C   0  0  0  0  0  0  0  0  0  0  0  0
   -2.7229    1.8027    5.6214 H   0  0  0  0  0  0  0  0  0  0  0  0
   -1.1806    1.8993    3.4450 C   0  0  0  0  0  0  0  0  0  0  0  0
   -2.1903    2.1083    3.0671 H   0  0  0  0  0  0  0  0  0  0  0  0
   -1.1264    0.8348    3.7028 H   0  0  0  0  0  0  0  0  0  0  0  0
   -0.1704    2.1665    2.3269 C   0  0  0  0  0  0  0  0  0  0  0  0
    0.8615    2.0048    2.7015 H   0  0  0  0  0  0  0  0  0  0  0  0
   -0.3614    1.4616    1.5141 H   0  0  0  0  0  0  0  0  0  0  0  0
    0.3711    4.5407    2.4037 C   0  0  0  0  0  0  0  0  0  0  0  0
   -0.9090    3.9439    0.6839 C   0  0  0  0  0  0  0  0  0  0  0  0
   -1.4747    3.2892    0.0536 H   0  0  0  0  0  0  0  0  0  0  0  0
   -0.6513    5.2683    0.5762 C   0  0  0  0  0  0  0  0  0  0  0  0
   -0.9536    5.9752   -0.1685 H   0  0  0  0  0  0  0  0  0  0  0  0
    0.2864    4.9362    7.0904 C   0  0  0  0  0  0  0  0  0  0  0  0
   -0.2915    5.8659    7.0848 H   0  0  0  0  0  0  0  0  0  0  0  0
    1.2667    5.1213    6.6313 H   0  0  0  0  0  0  0  0  0  0  0  0
    0.4607    4.4502    8.5045 C   0  0  0  0  0  0  0  0  0  0  0  0
   -0.0051    5.2094    9.5697 C   0  0  0  0  0  0  0  0  0  0  0  0
   -0.4793    6.1624    9.3859 H   0  0  0  0  0  0  0  0  0  0  0  0
    0.1459    4.7638   10.8707 C   0  0  0  0  0  0  0  0  0  0  0  0
   -0.2065    5.3447   11.7082 H   0  0  0  0  0  0  0  0  0  0  0  0
    0.7643    3.5462   11.0865 C   0  0  0  0  0  0  0  0  0  0  0  0
    1.2452    2.7749   10.0437 C   0  0  0  0  0  0  0  0  0  0  0  0
    1.7375    1.8380   10.2488 H   0  0  0  0  0  0  0  0  0  0  0  0
    1.0915    3.2353    8.7499 C   0  0  0  0  0  0  0  0  0  0  0  0
    1.4873    2.6603    7.9274 H   0  0  0  0  0  0  0  0  0  0  0  0
    0.7742    6.9017    1.8551 C   0  0  0  0  0  0  0  0  0  0  0  0
    0.2468    7.6475    1.2554 H   0  0  0  0  0  0  0  0  0  0  0  0
    1.8130    6.8298    1.5093 H   0  0  0  0  0  0  0  0  0  0  0  0
    0.7476    7.2777    3.3176 C   0  0  0  0  0  0  0  0  0  0  0  0
    1.8646    7.0662    4.1324 C   0  0  0  0  0  0  0  0  0  0  0  0
    2.7984    6.7051    3.7101 H   0  0  0  0  0  0  0  0  0  0  0  0
    1.8354    7.4451    5.4682 C   0  0  0  0  0  0  0  0  0  0  0  0
    2.6986    7.3175    6.1039 H   0  0  0  0  0  0  0  0  0  0  0  0
    0.6775    8.0085    5.9753 C   0  0  0  0  0  0  0  0  0  0  0  0
   -0.4466    8.2078    5.1945 C   0  0  0  0  0  0  0  0  0  0  0  0
   -1.3288    8.6562    5.6240 H   0  0  0  0  0  0  0  0  0  0  0  0
   -0.4020    7.8361    3.8625 C   0  0  0  0  0  0  0  0  0  0  0  0
   -1.2688    7.9976    3.2376 H   0  0  0  0  0  0  0  0  0  0  0  0
  1 10  1  0  0  0  0
  1  3  1  0  0  0  0
  2  1  1  0  0  0  0
  4 11  1  0  0  0  0
  4 26  1  0  0  0  0
  5 13  1  0  0  0  0
  6 18  1  0  0  0  0
  6 21  1  0  0  0  0
  7 39  1  0  0  0  0
  7 21  1  0  0  0  0
 10  5  1  1  0  0  0
 10  4  1  0  0  0  0
 11 12  1  0  0  0  0
 13 11  2  0  0  0  0
 14 13  1  0  0  0  0
 15 17  1  0  0  0  0
 15  5  1  0  0  0  0
 16 15  1  0  0  0  0
 18 19  1  0  0  0  0
 18 15  1  0  0  0  0
 20 18  1  0  0  0  0
 21  1  2  0  0  0  0
 22  6  1  0  0  0  0
 23 22  1  0  0  0  0
 24 22  2  0  0  0  0
 24  7  1  0  0  0  0
 25 24  1  0  0  0  0
 26 29  1  0  0  0  0
 27 26  1  0  0  0  0
 28 26  1  0  0  0  0
 29 37  2  0  0  0  0
 29 30  1  0  0  0  0
 30 32  2  0  0  0  0
 31 30  1  0  0  0  0
 32 34  1  0  0  0  0
 32 33  1  0  0  0  0
 34  8  1  0  0  0  0
 35 36  1  0  0  0  0
 35 34  2  0  0  0  0
 37 35  1  0  0  0  0
 38 37  1  0  0  0  0
 39 42  1  0  0  0  0
 40 39  1  0  0  0  0
 41 39  1  0  0  0  0
 42 50  2  0  0  0  0
 42 43  1  0  0  0  0
 43 45  2  0  0  0  0
 44 43  1  0  0  0  0
 45 47  1  0  0  0  0
 45 46  1  0  0  0  0
 47  9  1  0  0  0  0
 48 49  1  0  0  0  0
 48 47  2  0  0  0  0
 50 48  1  0  0  0  0
 51 50  1  0  0  0  0
M  END
$$$$
