CSD_code = EZEXUC | q = -1 | S = 0 | Stoichiometry = C8H18Cl4N2Re(1-) | MND = 6
 OpenBabel04212202033D

 33 32  0  0  0  0  0  0  0  0999 V2000
   -2.8485    6.2587   28.3474 Re  0  0  0  0  0  0  0  0  0  0  0  0
   -4.5296    8.0322   28.4632 Cl  0  0  0  0  0  0  0  0  0  0  0  0
   -3.8653    5.1798   29.3067 N   0  0  0  0  0  2  0  0  0  0  0  0
   -1.5800    7.5329   26.9243 Cl  0  0  0  0  0  0  0  0  0  0  0  0
   -4.6717    4.2430   29.9361 C   0  0  0  0  0  0  0  0  0  0  0  0
   -3.8303    5.4755   26.4535 Cl  0  0  0  0  0  0  0  0  0  0  0  0
   -5.6609    5.0059   30.8407 C   0  0  0  0  0  0  0  0  0  0  0  0
   -5.1068    5.6081   31.5554 H   0  0  0  0  0  0  0  0  0  0  0  0
   -6.3024    4.3027   31.3669 H   0  0  0  0  0  0  0  0  0  0  0  0
   -6.2668    5.6714   30.2321 H   0  0  0  0  0  0  0  0  0  0  0  0
   -1.1575    4.4584   28.2038 Cl  0  0  0  0  0  0  0  0  0  0  0  0
   -3.7602    3.3403   30.7929 C   0  0  0  0  0  0  0  0  0  0  0  0
   -3.2464    3.9450   31.5348 H   0  0  0  0  0  0  0  0  0  0  0  0
   -3.0126    2.8789   30.1534 H   0  0  0  0  0  0  0  0  0  0  0  0
   -4.3511    2.5713   31.2852 H   0  0  0  0  0  0  0  0  0  0  0  0
   -5.4373    3.3991   28.9000 C   0  0  0  0  0  0  0  0  0  0  0  0
   -4.7269    2.8827   28.2599 H   0  0  0  0  0  0  0  0  0  0  0  0
   -6.0439    4.0513   28.2774 H   0  0  0  0  0  0  0  0  0  0  0  0
   -6.0766    2.6716   29.3961 H   0  0  0  0  0  0  0  0  0  0  0  0
   -1.0831    7.7463   30.4580 C   0  0  0  0  0  0  0  0  0  0  0  0
   -1.2829    7.4516   31.9572 C   0  0  0  0  0  0  0  0  0  0  0  0
   -2.3036    7.6943   32.2408 H   0  0  0  0  0  0  0  0  0  0  0  0
   -0.5914    8.0405   32.5558 H   0  0  0  0  0  0  0  0  0  0  0  0
   -1.1128    6.3945   32.1434 H   0  0  0  0  0  0  0  0  0  0  0  0
   -1.3528    9.2360   30.1621 C   0  0  0  0  0  0  0  0  0  0  0  0
   -1.2342    9.4141   29.0970 H   0  0  0  0  0  0  0  0  0  0  0  0
   -0.6573    9.8600   30.7190 H   0  0  0  0  0  0  0  0  0  0  0  0
   -2.3747    9.4828   30.4379 H   0  0  0  0  0  0  0  0  0  0  0  0
    0.3530    7.3826   30.0270 C   0  0  0  0  0  0  0  0  0  0  0  0
    0.4663    7.5787   28.9644 H   0  0  0  0  0  0  0  0  0  0  0  0
    0.5271    6.3236   30.1984 H   0  0  0  0  0  0  0  0  0  0  0  0
    1.0723    7.9735   30.5895 H   0  0  0  0  0  0  0  0  0  0  0  0
   -1.9613    6.9881   29.6960 N   0  0  0  0  0  2  0  0  0  0  0  0
  1  2  1  0  0  0  0
  1  3  1  0  0  0  0
  1 33  1  0  0  0  0
  3  5  1  0  0  0  0
  4  1  1  0  0  0  0
  5 12  1  0  0  0  0
  5  7  1  0  0  0  0
  6  1  1  0  0  0  0
  7  9  1  0  0  0  0
  7  8  1  0  0  0  0
 10  7  1  0  0  0  0
 11  1  1  0  0  0  0
 12 15  1  0  0  0  0
 12 13  1  0  0  0  0
 14 12  1  0  0  0  0
 16 19  1  0  0  0  0
 16  5  1  0  0  0  0
 17 16  1  0  0  0  0
 18 16  1  0  0  0  0
 20 21  1  0  0  0  0
 21 24  1  0  0  0  0
 21 22  1  0  0  0  0
 21 23  1  0  0  0  0
 25 28  1  0  0  0  0
 25 20  1  0  0  0  0
 25 27  1  0  0  0  0
 26 25  1  0  0  0  0
 29 31  1  0  0  0  0
 29 20  1  0  0  0  0
 29 32  1  0  0  0  0
 30 29  1  0  0  0  0
 33 20  1  0  0  0  0
M  END
$$$$
