CSD_code = EZICUL | q = 0 | S = 0 | Stoichiometry = C32H26Cl2P2PdS4 | MND = 4
 OpenBabel04212202033D

 67 73  0  0  0  0  0  0  0  0999 V2000
   14.8775    7.9806    3.7393 Pd  0  0  0  0  0  0  0  0  0  0  0  0
   15.1346    9.6060    5.3062 Cl  0  0  0  0  0  0  0  0  0  0  0  0
   14.5888    9.2945    1.9048 Cl  0  0  0  0  0  0  0  0  0  0  0  0
   14.4163    6.3208    2.3448 P   0  0  0  0  0  4  0  0  0  0  0  0
   15.3744    6.5101    5.3266 P   0  0  0  0  0  4  0  0  0  0  0  0
   14.5149    3.1957    2.5953 S   0  0  0  0  0  0  0  0  0  0  0  0
   15.2901    3.3815    5.4733 S   0  0  0  0  0  0  0  0  0  0  0  0
   14.6161   -0.0486    2.7977 S   0  0  0  0  0  0  0  0  0  0  0  0
   15.3730    0.1452    5.6512 S   0  0  0  0  0  0  0  0  0  0  0  0
   14.7212    4.7900    3.2860 C   0  0  0  0  0  0  0  0  0  0  0  0
   15.0603    4.8743    4.5895 C   0  0  0  0  0  0  0  0  0  0  0  0
   14.9285    2.3368    4.0887 C   0  0  0  0  0  0  0  0  0  0  0  0
   14.9672    0.9958    4.1673 C   0  0  0  0  0  0  0  0  0  0  0  0
   14.8816   -1.5566    3.6706 C   0  0  0  0  0  0  0  0  0  0  0  0
   15.2239   -1.4690    4.9599 C   0  0  0  0  0  0  0  0  0  0  0  0
   14.7103   -2.8330    2.9166 C   0  0  0  0  0  0  0  0  0  0  0  0
   14.3919   -2.6264    1.8989 H   0  0  0  0  0  0  0  0  0  0  0  0
   13.9636   -3.4629    3.3990 H   0  0  0  0  0  0  0  0  0  0  0  0
   15.6492   -3.3854    2.8852 H   0  0  0  0  0  0  0  0  0  0  0  0
   15.4862   -2.6330    5.8562 C   0  0  0  0  0  0  0  0  0  0  0  0
   15.7657   -2.2862    6.8469 H   0  0  0  0  0  0  0  0  0  0  0  0
   16.2930   -3.2467    5.4570 H   0  0  0  0  0  0  0  0  0  0  0  0
   14.5967   -3.2567    5.9404 H   0  0  0  0  0  0  0  0  0  0  0  0
   15.1019    5.9962    0.7114 C   0  0  0  0  0  0  0  0  0  0  0  0
   16.3034    5.3031    0.5895 C   0  0  0  0  0  0  0  0  0  0  0  0
   16.7920    4.9121    1.4733 H   0  0  0  0  0  0  0  0  0  0  0  0
   16.8646    5.1237   -0.6606 C   0  0  0  0  0  0  0  0  0  0  0  0
   17.7914    4.5784   -0.7608 H   0  0  0  0  0  0  0  0  0  0  0  0
   16.2434    5.6513   -1.7818 C   0  0  0  0  0  0  0  0  0  0  0  0
   16.6864    5.5112   -2.7566 H   0  0  0  0  0  0  0  0  0  0  0  0
   15.0654    6.3707   -1.6552 C   0  0  0  0  0  0  0  0  0  0  0  0
   14.5956    6.7970   -2.5290 H   0  0  0  0  0  0  0  0  0  0  0  0
   14.4929    6.5520   -0.4102 C   0  0  0  0  0  0  0  0  0  0  0  0
   13.5873    7.1305   -0.2928 H   0  0  0  0  0  0  0  0  0  0  0  0
   12.6105    6.2586    2.1835 C   0  0  0  0  0  0  0  0  0  0  0  0
   11.8670    7.1366    2.9712 C   0  0  0  0  0  0  0  0  0  0  0  0
   12.3803    7.8714    3.6125 H   0  0  0  0  0  0  0  0  0  0  0  0
   10.4850    7.0958    2.9218 C   0  0  0  0  0  0  0  0  0  0  0  0
    9.9036    7.7793    3.5223 H   0  0  0  0  0  0  0  0  0  0  0  0
    9.8486    6.1800    2.0982 C   0  0  0  0  0  0  0  0  0  0  0  0
    8.7698    6.1519    2.0588 H   0  0  0  0  0  0  0  0  0  0  0  0
   10.5891    5.3008    1.3229 C   0  0  0  0  0  0  0  0  0  0  0  0
   10.0880    4.5880    0.6848 H   0  0  0  0  0  0  0  0  0  0  0  0
   11.9709    5.3337    1.3631 C   0  0  0  0  0  0  0  0  0  0  0  0
   12.5570    4.6516    0.7619 H   0  0  0  0  0  0  0  0  0  0  0  0
   17.1867    6.4737    5.4365 C   0  0  0  0  0  0  0  0  0  0  0  0
   17.8570    5.6567    6.3427 C   0  0  0  0  0  0  0  0  0  0  0  0
   17.2937    5.0531    7.0417 H   0  0  0  0  0  0  0  0  0  0  0  0
   19.2395    5.6295    6.3420 C   0  0  0  0  0  0  0  0  0  0  0  0
   19.7637    5.0001    7.0458 H   0  0  0  0  0  0  0  0  0  0  0  0
   19.9511    6.4078    5.4418 C   0  0  0  0  0  0  0  0  0  0  0  0
   21.0307    6.3841    5.4485 H   0  0  0  0  0  0  0  0  0  0  0  0
   19.2845    7.2178    4.5355 C   0  0  0  0  0  0  0  0  0  0  0  0
   19.8430    7.8244    3.8384 H   0  0  0  0  0  0  0  0  0  0  0  0
   17.9015    7.2521    4.5267 C   0  0  0  0  0  0  0  0  0  0  0  0
   17.3659    7.9063    3.8193 H   0  0  0  0  0  0  0  0  0  0  0  0
   14.7582    6.3950    7.0155 C   0  0  0  0  0  0  0  0  0  0  0  0
   13.5932    5.6860    7.2956 C   0  0  0  0  0  0  0  0  0  0  0  0
   13.0849    5.1483    6.5055 H   0  0  0  0  0  0  0  0  0  0  0  0
   13.0927    5.6774    8.5840 C   0  0  0  0  0  0  0  0  0  0  0  0
   12.1952    5.1199    8.8082 H   0  0  0  0  0  0  0  0  0  0  0  0
   13.7356    6.3908    9.5834 C   0  0  0  0  0  0  0  0  0  0  0  0
   13.3390    6.3840   10.5879 H   0  0  0  0  0  0  0  0  0  0  0  0
   14.8754    7.1255    9.2956 C   0  0  0  0  0  0  0  0  0  0  0  0
   15.3615    7.6963   10.0726 H   0  0  0  0  0  0  0  0  0  0  0  0
   15.3877    7.1362    8.0121 C   0  0  0  0  0  0  0  0  0  0  0  0
   16.2627    7.7221    7.7669 H   0  0  0  0  0  0  0  0  0  0  0  0
  1  2  1  0  0  0  0
  1  5  1  0  0  0  0
  3  1  1  0  0  0  0
  4 10  1  0  0  0  0
  4  1  1  0  0  0  0
  5 46  1  0  0  0  0
  5 57  1  0  0  0  0
  6 10  1  0  0  0  0
  6 12  1  0  0  0  0
  8 14  1  0  0  0  0
  8 13  1  0  0  0  0
 10 11  2  0  0  0  0
 11  5  1  0  0  0  0
 11  7  1  0  0  0  0
 12 13  2  0  0  0  0
 12  7  1  0  0  0  0
 13  9  1  0  0  0  0
 14 15  2  0  0  0  0
 15  9  1  0  0  0  0
 15 20  1  0  0  0  0
 16 18  1  0  0  0  0
 16 14  1  0  0  0  0
 17 16  1  0  0  0  0
 19 16  1  0  0  0  0
 20 23  1  0  0  0  0
 20 21  1  0  0  0  0
 22 20  1  0  0  0  0
 24  4  1  0  0  0  0
 25 24  1  0  0  0  0
 25 26  1  0  0  0  0
 27 25  2  0  0  0  0
 28 27  1  0  0  0  0
 29 31  2  0  0  0  0
 29 27  1  0  0  0  0
 30 29  1  0  0  0  0
 31 33  1  0  0  0  0
 32 31  1  0  0  0  0
 33 34  1  0  0  0  0
 33 24  2  0  0  0  0
 35  4  1  0  0  0  0
 35 36  1  0  0  0  0
 36 37  1  0  0  0  0
 38 36  2  0  0  0  0
 38 39  1  0  0  0  0
 40 38  1  0  0  0  0
 41 40  1  0  0  0  0
 42 44  1  0  0  0  0
 42 40  2  0  0  0  0
 43 42  1  0  0  0  0
 44 35  2  0  0  0  0
 45 44  1  0  0  0  0
 46 47  1  0  0  0  0
 47 48  1  0  0  0  0
 49 47  2  0  0  0  0
 49 50  1  0  0  0  0
 51 52  1  0  0  0  0
 51 49  1  0  0  0  0
 53 51  2  0  0  0  0
 54 53  1  0  0  0  0
 55 53  1  0  0  0  0
 55 46  2  0  0  0  0
 56 55  1  0  0  0  0
 57 58  2  0  0  0  0
 57 66  1  0  0  0  0
 58 60  1  0  0  0  0
 59 58  1  0  0  0  0
 60 61  1  0  0  0  0
 60 62  2  0  0  0  0
 62 63  1  0  0  0  0
 64 62  1  0  0  0  0
 64 65  1  0  0  0  0
 66 64  2  0  0  0  0
 67 66  1  0  0  0  0
M  END
$$$$
