CSD_code = EZIJEC | q = 0 | S = 0 | Stoichiometry = C18H22Cl2N2Zr | MND = 12
 OpenBabel04212202033D

 45 46  0  0  1  0  0  0  0  0999 V2000
    4.2505    0.9950    3.7570 Zr  0  0  0  0  0  0  0  0  0  0  0  0
    3.8821    3.2653    3.3099 Cl  0  0  0  0  0  0  0  0  0  0  0  0
    3.5488    1.2949    5.9758 Cl  0  0  0  0  0  0  0  0  0  0  0  0
    6.1829   -0.5522    4.2084 C   0  0  0  0  0  0  0  0  0  0  0  0
    6.1287   -1.5917    4.5045 H   0  0  0  0  0  0  0  0  0  0  0  0
    6.3388    0.5376    5.0848 C   0  0  0  0  0  0  0  0  0  0  0  0
    6.3841    0.4743    6.1662 H   0  0  0  0  0  0  0  0  0  0  0  0
    6.4821    1.7251    4.3388 C   0  0  0  0  0  3  0  0  0  0  0  0
    6.6648    2.6947    4.7823 H   0  0  0  0  0  0  0  0  0  0  0  0
    6.4927    1.3746    2.9401 C   0  0  2  0  0  0  0  0  0  0  0  0
    6.5331    2.1338    1.7236 C   0  0  0  0  0  0  0  0  0  0  0  0
    6.6651    3.5048    1.6667 N   0  0  0  0  0  0  0  0  0  0  0  0
    5.8934    4.2692    0.7143 C   0  0  0  0  0  0  0  0  0  0  0  0
    6.5507    4.8229    0.0363 H   0  0  0  0  0  0  0  0  0  0  0  0
    5.2560    4.9799    1.2476 H   0  0  0  0  0  0  0  0  0  0  0  0
    5.2477    3.6157    0.1330 H   0  0  0  0  0  0  0  0  0  0  0  0
    7.1628    4.2830    2.7715 C   0  0  0  0  0  0  0  0  0  0  0  0
    7.5968    5.2001    2.3678 H   0  0  0  0  0  0  0  0  0  0  0  0
    7.9507    3.7338    3.2830 H   0  0  0  0  0  0  0  0  0  0  0  0
    6.3703    4.5618    3.4773 H   0  0  0  0  0  0  0  0  0  0  0  0
    6.4751    1.4087    0.5381 C   0  0  0  0  0  0  0  0  0  0  0  0
    6.5382    1.9393   -0.3992 H   0  0  0  0  0  0  0  0  0  0  0  0
    6.4240    0.0118    0.4884 C   0  0  0  0  0  0  0  0  0  0  0  0
    6.4466   -0.4556   -0.4837 H   0  0  0  0  0  0  0  0  0  0  0  0
    6.3727   -0.7574    1.6308 C   0  0  0  0  0  0  0  0  0  0  0  0
    6.2748   -2.1686    1.6491 N   0  0  0  0  0  0  0  0  0  0  0  0
    7.4222   -2.8499    2.2232 C   0  0  0  0  0  0  0  0  0  0  0  0
    8.2329   -2.9686    1.4907 H   0  0  0  0  0  0  0  0  0  0  0  0
    7.1167   -3.8412    2.5623 H   0  0  0  0  0  0  0  0  0  0  0  0
    7.8071   -2.2855    3.0675 H   0  0  0  0  0  0  0  0  0  0  0  0
    5.8416   -2.8040    0.4240 C   0  0  0  0  0  0  0  0  0  0  0  0
    4.9556   -2.2993    0.0434 H   0  0  0  0  0  0  0  0  0  0  0  0
    5.5816   -3.8387    0.6520 H   0  0  0  0  0  0  0  0  0  0  0  0
    6.6144   -2.8132   -0.3574 H   0  0  0  0  0  0  0  0  0  0  0  0
    6.3436   -0.0649    2.8729 C   0  0  1  0  0  3  0  0  0  0  0  0
    3.2497    0.0066    1.7409 C   0  0  0  0  0  0  0  0  0  0  0  0
    3.6902    0.0333    0.7513 H   0  0  0  0  0  0  0  0  0  0  0  0
    2.2680    0.9041    2.2229 C   0  0  0  0  0  0  0  0  0  0  0  0
    1.8628    1.7516    1.6821 H   0  0  0  0  0  0  0  0  0  0  0  0
    1.8230    0.4356    3.4761 C   0  0  0  0  0  0  0  0  0  0  0  0
    1.0322    0.8735    4.0742 H   0  0  0  0  0  0  0  0  0  0  0  0
    2.5185   -0.7618    3.7702 C   0  0  0  0  0  0  0  0  0  0  0  0
    2.3293   -1.4085    4.6198 H   0  0  0  0  0  0  0  0  0  0  0  0
    3.3903   -1.0368    2.6919 C   0  0  0  0  0  3  0  0  0  0  0  0
    3.9609   -1.9462    2.5542 H   0  0  0  0  0  0  0  0  0  0  0  0
  1  3  1  0  0  0  0
  2  1  1  0  0  0  0
  4  5  1  0  0  0  0
  4  6  2  0  0  0  0
  6  7  1  0  0  0  0
  8  9  1  0  0  0  0
  8  6  1  0  0  0  0
 10  1  1  6  0  0  0
 10  8  1  0  0  0  0
 11 10  1  0  0  0  0
 12 11  1  0  0  0  0
 12 17  1  0  0  0  0
 13 15  1  0  0  0  0
 13 12  1  0  0  0  0
 14 13  1  0  0  0  0
 16 13  1  0  0  0  0
 17 19  1  0  0  0  0
 17 20  1  0  0  0  0
 18 17  1  0  0  0  0
 21 11  2  0  0  0  0
 22 21  1  0  0  0  0
 23 21  1  0  0  0  0
 23 25  2  0  0  0  0
 24 23  1  0  0  0  0
 25 26  1  0  0  0  0
 26 27  1  0  0  0  0
 27 29  1  0  0  0  0
 27 30  1  0  0  0  0
 28 27  1  0  0  0  0
 31 33  1  0  0  0  0
 31 26  1  0  0  0  0
 32 31  1  0  0  0  0
 34 31  1  0  0  0  0
 35 25  1  1  0  0  0
 35 10  1  0  0  0  0
 35  4  1  0  0  0  0
 36 38  2  0  0  0  0
 36 44  1  0  0  0  0
 37 36  1  0  0  0  0
 38 40  1  0  0  0  0
 39 38  1  0  0  0  0
 40 42  2  0  0  0  0
 40 41  1  0  0  0  0
 42 43  1  0  0  0  0
 44 42  1  0  0  0  0
 45 44  1  0  0  0  0
M  END
$$$$
