CSD_code = EZUYUT | q = 0 | S = 0 | Stoichiometry = C24H23AuClO3P | MND = 2
 OpenBabel04212202033D

 53 55  0  0  1  0  0  0  0  0999 V2000
    0.7991    0.4233    7.6019 Au  0  0  0  0  0  0  0  0  0  0  0  0
    0.6832    2.1909    9.0005 Cl  0  0  0  0  0  0  0  0  0  0  0  0
    1.8381   -2.1424    7.8541 P   0  0  0  0  0  4  0  0  0  0  0  0
    2.4321   -3.7871    7.3587 C   0  0  0  0  0  0  0  0  0  0  0  0
    1.5551   -4.5391    6.5844 C   0  0  0  0  0  0  0  0  0  0  0  0
    0.6171   -4.1036    6.2657 H   0  0  0  0  0  0  0  0  0  0  0  0
    1.8809   -5.8350    6.2309 C   0  0  0  0  0  0  0  0  0  0  0  0
    1.1932   -6.4228    5.6404 H   0  0  0  0  0  0  0  0  0  0  0  0
    3.0856   -6.3817    6.6445 C   0  0  0  0  0  0  0  0  0  0  0  0
    3.3427   -7.3929    6.3658 H   0  0  0  0  0  0  0  0  0  0  0  0
    3.9564   -5.6347    7.4201 C   0  0  0  0  0  0  0  0  0  0  0  0
    4.8923   -6.0637    7.7465 H   0  0  0  0  0  0  0  0  0  0  0  0
    3.6305   -4.3406    7.7879 C   0  0  0  0  0  0  0  0  0  0  0  0
    4.3043   -3.7661    8.4064 H   0  0  0  0  0  0  0  0  0  0  0  0
    0.6105   -2.6574    9.0949 C   0  0  0  0  0  0  0  0  0  0  0  0
   -0.7263   -2.2846    9.0749 C   0  0  0  0  0  0  0  0  0  0  0  0
   -1.0954   -1.6108    8.3152 H   0  0  0  0  0  0  0  0  0  0  0  0
   -1.5892   -2.7538   10.0510 C   0  0  0  0  0  0  0  0  0  0  0  0
   -2.6265   -2.4549   10.0345 H   0  0  0  0  0  0  0  0  0  0  0  0
   -1.1246   -3.5946   11.0477 C   0  0  0  0  0  0  0  0  0  0  0  0
   -1.8004   -3.9540   11.8090 H   0  0  0  0  0  0  0  0  0  0  0  0
    0.2095   -3.9717   11.0713 C   0  0  0  0  0  0  0  0  0  0  0  0
    0.5751   -4.6252   11.8494 H   0  0  0  0  0  0  0  0  0  0  0  0
    1.0716   -3.5078   10.0975 C   0  0  0  0  0  0  0  0  0  0  0  0
    2.1164   -3.7935   10.1079 H   0  0  0  0  0  0  0  0  0  0  0  0
    3.0984   -1.2771    8.8331 C   0  0  0  0  0  0  0  0  0  0  0  0
    4.4340   -1.2038    8.4500 C   0  0  0  0  0  0  0  0  0  0  0  0
    4.7551   -1.6518    7.5230 H   0  0  0  0  0  0  0  0  0  0  0  0
    5.3370   -0.5180    9.2441 C   0  0  0  0  0  0  0  0  0  0  0  0
    6.3714   -0.4566    8.9398 H   0  0  0  0  0  0  0  0  0  0  0  0
    4.9181    0.0981   10.4111 C   0  0  0  0  0  0  0  0  0  0  0  0
    5.6251    0.6434   11.0182 H   0  0  0  0  0  0  0  0  0  0  0  0
    3.5882    0.0236   10.7950 C   0  0  0  0  0  0  0  0  0  0  0  0
    3.2522    0.5121   11.6964 H   0  0  0  0  0  0  0  0  0  0  0  0
    2.6799   -0.6633   10.0143 C   0  0  0  0  0  0  0  0  0  0  0  0
    1.6418   -0.7072   10.3135 H   0  0  0  0  0  0  0  0  0  0  0  0
    0.9453   -1.3349    6.5158 C   0  0  2  0  0  0  0  0  0  0  0  0
   -0.0561   -1.6332    6.2329 H   0  0  0  0  0  0  0  0  0  0  0  0
    2.0137   -1.1867    5.5756 C   0  0  0  0  0  0  0  0  0  0  0  0
    3.1315   -1.5249    5.9929 O   0  0  0  0  0  0  0  0  0  0  0  0
    1.8013   -0.6183    4.1968 C   0  0  0  0  0  0  0  0  0  0  0  0
    0.7352   -0.5250    3.9877 H   0  0  0  0  0  0  0  0  0  0  0  0
    2.2741    0.3635    4.1323 H   0  0  0  0  0  0  0  0  0  0  0  0
    2.4502   -1.5130    3.1505 C   0  0  0  0  0  0  0  0  0  0  0  0
    1.9881   -2.7589    3.2418 O   0  0  0  0  0  0  0  0  0  0  0  0
    3.2585   -1.1488    2.3435 O   0  0  0  0  0  0  0  0  0  0  0  0
    2.5339   -3.6998    2.3103 C   0  0  0  0  0  0  0  0  0  0  0  0
    3.6243   -3.5997    2.3101 H   0  0  0  0  0  0  0  0  0  0  0  0
    2.1675   -3.4482    1.3086 H   0  0  0  0  0  0  0  0  0  0  0  0
    2.1058   -5.0942    2.7217 C   0  0  0  0  0  0  0  0  0  0  0  0
    2.4936   -5.8171    2.0100 H   0  0  0  0  0  0  0  0  0  0  0  0
    1.0215   -5.1625    2.7427 H   0  0  0  0  0  0  0  0  0  0  0  0
    2.4909   -5.3239    3.7116 H   0  0  0  0  0  0  0  0  0  0  0  0
  1  2  1  0  0  0  0
  3 26  1  0  0  0  0
  3 15  1  0  0  0  0
  4 13  1  0  0  0  0
  4  3  1  0  0  0  0
  5  4  2  0  0  0  0
  6  5  1  0  0  0  0
  7  5  1  0  0  0  0
  7  9  2  0  0  0  0
  8  7  1  0  0  0  0
  9 11  1  0  0  0  0
 10  9  1  0  0  0  0
 11 12  1  0  0  0  0
 11 13  2  0  0  0  0
 13 14  1  0  0  0  0
 15 24  1  0  0  0  0
 16 15  2  0  0  0  0
 16 18  1  0  0  0  0
 17 16  1  0  0  0  0
 18 20  2  0  0  0  0
 19 18  1  0  0  0  0
 20 22  1  0  0  0  0
 20 21  1  0  0  0  0
 22 23  1  0  0  0  0
 24 25  1  0  0  0  0
 24 22  2  0  0  0  0
 26 35  1  0  0  0  0
 27 26  2  0  0  0  0
 27 29  1  0  0  0  0
 28 27  1  0  0  0  0
 29 31  2  0  0  0  0
 30 29  1  0  0  0  0
 31 33  1  0  0  0  0
 31 32  1  0  0  0  0
 33 34  1  0  0  0  0
 35 36  1  0  0  0  0
 35 33  2  0  0  0  0
 37 38  1  6  0  0  0
 37  1  1  0  0  0  0
 37  3  1  0  0  0  0
 39 40  2  0  0  0  0
 39 37  1  0  0  0  0
 41 39  1  0  0  0  0
 42 41  1  0  0  0  0
 43 41  1  0  0  0  0
 44 45  1  0  0  0  0
 44 41  1  0  0  0  0
 46 44  2  0  0  0  0
 47 50  1  0  0  0  0
 47 45  1  0  0  0  0
 48 47  1  0  0  0  0
 49 47  1  0  0  0  0
 50 52  1  0  0  0  0
 50 53  1  0  0  0  0
 51 50  1  0  0  0  0
M  END
$$$$
