CSD_code = FACDAP | q = 0 | S = 0 | Stoichiometry = C26H36Cl2N2P2Ti | MND = 8
 OpenBabel04212202033D

 69 71  0  0  1  0  0  0  0  0999 V2000
    6.5372    1.8906    7.7584 Ti  0  0  0  0  0  0  0  0  0  0  0  0
    4.8582    3.2594    8.0197 Cl  0  0  0  0  0  0  0  0  0  0  0  0
    6.9834    2.2910    5.6303 Cl  0  0  0  0  0  0  0  0  0  0  0  0
    8.2747    4.0287    9.2287 P   0  0  0  0  0  4  0  0  0  0  0  0
   10.9836    3.8893    8.2540 P   0  0  0  0  0  4  0  0  0  0  0  0
    7.9256    2.6905    8.4811 N   0  0  0  0  0  2  0  0  0  0  0  0
    9.8486    4.5269    9.1703 N   0  0  0  0  0  2  0  0  0  0  0  0
    4.9936    0.0814    7.7991 C   0  0  0  0  0  0  0  0  0  0  0  0
    5.4637    0.3194    9.1081 C   0  0  0  0  0  3  0  0  0  0  0  0
    6.8523    0.0591    9.1298 C   0  0  1  0  0  0  0  0  0  0  0  0
    7.2407   -0.3135    7.8200 C   0  0  0  0  0  3  0  0  0  0  0  0
    6.0823   -0.3134    7.0091 C   0  0  0  0  0  0  0  0  0  0  0  0
    7.8855    3.8825   11.0041 C   0  0  0  0  0  0  0  0  0  0  0  0
    6.6843    3.2683   11.3380 C   0  0  0  0  0  0  0  0  0  0  0  0
    6.3464    3.0933   12.6676 C   0  0  0  0  0  0  0  0  0  0  0  0
    7.2089    3.5280   13.6632 C   0  0  0  0  0  0  0  0  0  0  0  0
    8.4073    4.1380   13.3300 C   0  0  0  0  0  0  0  0  0  0  0  0
    8.7485    4.3154   12.0001 C   0  0  0  0  0  0  0  0  0  0  0  0
    7.2947    5.4739    8.6801 C   0  0  0  0  0  0  0  0  0  0  0  0
    7.0201    6.5247    9.5439 C   0  0  0  0  0  0  0  0  0  0  0  0
    6.2966    7.6149    9.0925 C   0  0  0  0  0  0  0  0  0  0  0  0
    5.8484    7.6566    7.7825 C   0  0  0  0  0  0  0  0  0  0  0  0
    6.1283    6.6107    6.9171 C   0  0  0  0  0  0  0  0  0  0  0  0
    6.8519    5.5195    7.3636 C   0  0  0  0  0  0  0  0  0  0  0  0
   12.3755    5.1200    8.2846 C   0  0  0  0  0  0  0  0  0  0  0  0
   12.3262    5.9659    9.5511 C   0  0  0  0  0  0  0  0  0  0  0  0
   13.7515    4.4955    8.0822 C   0  0  0  0  0  0  0  0  0  0  0  0
   11.6107    2.2351    8.8595 C   0  0  0  0  0  0  0  0  0  0  0  0
   10.6723    1.1048    8.4530 C   0  0  0  0  0  0  0  0  0  0  0  0
   11.7123    2.3221   10.3772 C   0  0  0  0  0  0  0  0  0  0  0  0
   10.4548    3.6598    6.4864 C   0  0  0  0  0  0  0  0  0  0  0  0
   11.5100    3.0552    5.5682 C   0  0  0  0  0  0  0  0  0  0  0  0
    9.9620    4.9967    5.9395 C   0  0  0  0  0  0  0  0  0  0  0  0
    3.9588    0.1243    7.4840 H   0  0  0  0  0  0  0  0  0  0  0  0
    4.8457    0.5392    9.9709 H   0  0  0  0  0  0  0  0  0  0  0  0
    7.4807    0.0356   10.0132 H   0  0  0  0  0  0  0  0  0  0  0  0
    8.2174   -0.6805    7.5259 H   0  0  0  0  0  0  0  0  0  0  0  0
    6.0384   -0.6334    5.9751 H   0  0  0  0  0  0  0  0  0  0  0  0
    6.0264    2.9400   10.5354 H   0  0  0  0  0  0  0  0  0  0  0  0
    5.4116    2.6207   12.9327 H   0  0  0  0  0  0  0  0  0  0  0  0
    6.9451    3.3905   14.7017 H   0  0  0  0  0  0  0  0  0  0  0  0
    9.0757    4.4764   14.1087 H   0  0  0  0  0  0  0  0  0  0  0  0
    9.6768    4.7911   11.7190 H   0  0  0  0  0  0  0  0  0  0  0  0
    7.3708    6.4821   10.5658 H   0  0  0  0  0  0  0  0  0  0  0  0
    6.0761    8.4309    9.7656 H   0  0  0  0  0  0  0  0  0  0  0  0
    5.2760    8.5048    7.4359 H   0  0  0  0  0  0  0  0  0  0  0  0
    5.7758    6.6411    5.8965 H   0  0  0  0  0  0  0  0  0  0  0  0
    7.0683    4.6853    6.7027 H   0  0  0  0  0  0  0  0  0  0  0  0
   12.1574    5.7774    7.4336 H   0  0  0  0  0  0  0  0  0  0  0  0
   13.0032    6.8135    9.4606 H   0  0  0  0  0  0  0  0  0  0  0  0
   12.6199    5.3852   10.4220 H   0  0  0  0  0  0  0  0  0  0  0  0
   11.3163    6.3345    9.7085 H   0  0  0  0  0  0  0  0  0  0  0  0
   14.4924    5.2822    7.9455 H   0  0  0  0  0  0  0  0  0  0  0  0
   13.7750    3.8533    7.2051 H   0  0  0  0  0  0  0  0  0  0  0  0
   14.0445    3.9097    8.9508 H   0  0  0  0  0  0  0  0  0  0  0  0
   12.6032    2.0666    8.4304 H   0  0  0  0  0  0  0  0  0  0  0  0
   10.9504    0.1902    8.9754 H   0  0  0  0  0  0  0  0  0  0  0  0
   10.7091    0.9122    7.3831 H   0  0  0  0  0  0  0  0  0  0  0  0
    9.6433    1.3641    8.7197 H   0  0  0  0  0  0  0  0  0  0  0  0
   12.0923    1.3892   10.7906 H   0  0  0  0  0  0  0  0  0  0  0  0
   10.7235    2.5115   10.7947 H   0  0  0  0  0  0  0  0  0  0  0  0
   12.3732    3.1304   10.6837 H   0  0  0  0  0  0  0  0  0  0  0  0
    9.5889    2.9822    6.5699 H   0  0  0  0  0  0  0  0  0  0  0  0
   11.0518    2.8156    4.6103 H   0  0  0  0  0  0  0  0  0  0  0  0
   11.9358    2.1429    5.9774 H   0  0  0  0  0  0  0  0  0  0  0  0
   12.3156    3.7646    5.3864 H   0  0  0  0  0  0  0  0  0  0  0  0
    9.3008    4.8283    5.0924 H   0  0  0  0  0  0  0  0  0  0  0  0
   10.7925    5.6174    5.6052 H   0  0  0  0  0  0  0  0  0  0  0  0
    9.4062    5.5388    6.7045 H   0  0  0  0  0  0  0  0  0  0  0  0
  1  2  1  0  0  0  0
  1  6  1  0  0  0  0
  1 10  1  0  0  0  0
  3  1  1  0  0  0  0
  4 13  1  0  0  0  0
  5 25  1  0  0  0  0
  5 28  1  0  0  0  0
  5  7  1  0  0  0  0
  6  4  1  0  0  0  0
  7  4  1  0  0  0  0
  8  9  1  0  0  0  0
  9 10  1  0  0  0  0
  9 35  1  0  0  0  0
 10 36  1  1  0  0  0
 11 10  1  0  0  0  0
 12  8  2  0  0  0  0
 12 11  1  0  0  0  0
 13 14  2  0  0  0  0
 13 18  1  0  0  0  0
 14 15  1  0  0  0  0
 15 40  1  0  0  0  0
 15 16  2  0  0  0  0
 16 41  1  0  0  0  0
 17 16  1  0  0  0  0
 17 42  1  0  0  0  0
 18 17  2  0  0  0  0
 19  4  1  0  0  0  0
 19 20  1  0  0  0  0
 20 44  1  0  0  0  0
 21 20  2  0  0  0  0
 21 45  1  0  0  0  0
 22 21  1  0  0  0  0
 23 24  1  0  0  0  0
 23 22  2  0  0  0  0
 24 19  2  0  0  0  0
 25 26  1  0  0  0  0
 26 52  1  0  0  0  0
 26 51  1  0  0  0  0
 27 25  1  0  0  0  0
 27 55  1  0  0  0  0
 28 30  1  0  0  0  0
 29 59  1  0  0  0  0
 29 28  1  0  0  0  0
 29 57  1  0  0  0  0
 30 62  1  0  0  0  0
 30 60  1  0  0  0  0
 30 61  1  0  0  0  0
 31 63  1  0  0  0  0
 31  5  1  0  0  0  0
 32 65  1  0  0  0  0
 32 31  1  0  0  0  0
 33 31  1  0  0  0  0
 33 69  1  0  0  0  0
 34  8  1  0  0  0  0
 37 11  1  0  0  0  0
 38 12  1  0  0  0  0
 39 14  1  0  0  0  0
 43 18  1  0  0  0  0
 46 22  1  0  0  0  0
 47 23  1  0  0  0  0
 48 24  1  0  0  0  0
 49 25  1  0  0  0  0
 50 26  1  0  0  0  0
 53 27  1  0  0  0  0
 54 27  1  0  0  0  0
 56 28  1  0  0  0  0
 58 29  1  0  0  0  0
 64 32  1  0  0  0  0
 66 32  1  0  0  0  0
 67 33  1  0  0  0  0
 68 33  1  0  0  0  0
M  END
$$$$
