CSD_code = FACFUM | q = 0 | S = 0 | Stoichiometry = C14H19ClN2OPd | MND = 4
 OpenBabel04212202033D

 38 41  0  0  0  0  0  0  0  0999 V2000
   24.1406   -0.5068   -3.1051 Pd  0  0  2  0  0  0  0  0  0  0  0  0
   22.0337   -1.2265   -3.7428 Cl  0  0  0  0  0  0  0  0  0  0  0  0
   23.7572    0.2140   -1.2160 N   0  0  0  0  0  0  0  0  0  0  0  0
   25.1836   -1.0796   -4.8862 N   0  0  0  0  0  4  0  0  0  0  0  0
   24.6513    1.0749    0.6363 O   0  0  0  0  0  0  0  0  0  0  0  0
   23.2577    0.9634    0.9405 C   0  0  0  0  0  0  0  0  0  0  0  0
   22.8797    1.9603    1.1808 H   0  0  0  0  0  0  0  0  0  0  0  0
   23.1491    0.3153    1.8138 H   0  0  0  0  0  0  0  0  0  0  0  0
   22.6198    0.3679   -0.3361 C   0  0  0  0  0  0  0  0  0  0  0  0
   22.1461   -0.6038   -0.1658 H   0  0  0  0  0  0  0  0  0  0  0  0
   21.8802    1.0320   -0.7941 H   0  0  0  0  0  0  0  0  0  0  0  0
   24.8252    0.6214   -0.6108 C   0  0  0  0  0  0  0  0  0  0  0  0
   25.9112    0.0325   -2.5895 C   0  0  0  0  0  0  0  0  0  0  0  0
   26.0937    0.5542   -1.3064 C   0  0  0  0  0  0  0  0  0  0  0  0
   27.3673    0.9131   -0.8705 C   0  0  0  0  0  0  0  0  0  0  0  0
   27.5178    1.3187    0.1187 H   0  0  0  0  0  0  0  0  0  0  0  0
   28.4312    0.7298   -1.7369 C   0  0  0  0  0  0  0  0  0  0  0  0
   29.4267    0.9996   -1.4163 H   0  0  0  0  0  0  0  0  0  0  0  0
   28.2527    0.2018   -3.0138 C   0  0  0  0  0  0  0  0  0  0  0  0
   29.1109    0.0699   -3.6593 H   0  0  0  0  0  0  0  0  0  0  0  0
   26.9835   -0.1529   -3.4493 C   0  0  0  0  0  0  0  0  0  0  0  0
   26.6337   -0.7263   -4.8027 C   0  0  0  0  0  0  0  0  0  0  0  0
   27.2397   -1.6165   -5.0092 H   0  0  0  0  0  0  0  0  0  0  0  0
   26.8704    0.0065   -5.5821 H   0  0  0  0  0  0  0  0  0  0  0  0
   24.9989   -2.5335   -4.9947 C   0  0  0  0  0  0  0  0  0  0  0  0
   25.6158   -2.9377   -5.8121 H   0  0  0  0  0  0  0  0  0  0  0  0
   23.9452   -2.7188   -5.2256 H   0  0  0  0  0  0  0  0  0  0  0  0
   25.3246   -3.2430   -3.6811 C   0  0  0  0  0  0  0  0  0  0  0  0
   25.1506   -4.3110   -3.7918 H   0  0  0  0  0  0  0  0  0  0  0  0
   24.6554   -2.8618   -2.8848 H   0  0  0  0  0  0  0  0  0  0  0  0
   26.3603   -3.0868   -3.3815 H   0  0  0  0  0  0  0  0  0  0  0  0
   24.5238   -0.3697   -5.9912 C   0  0  0  0  0  0  0  0  0  0  0  0
   25.0968   -0.4907   -6.9229 H   0  0  0  0  0  0  0  0  0  0  0  0
   23.5336   -0.8149   -6.1276 H   0  0  0  0  0  0  0  0  0  0  0  0
   24.3305    1.1115   -5.6683 C   0  0  0  0  0  0  0  0  0  0  0  0
   23.8046    1.5973   -6.4868 H   0  0  0  0  0  0  0  0  0  0  0  0
   25.2806    1.6222   -5.5125 H   0  0  0  0  0  0  0  0  0  0  0  0
   23.7140    1.2059   -4.7528 H   0  0  0  0  0  0  0  0  0  0  0  0
  1  2  1  1  0  0  0
  1 13  2  0  0  0  0
  1  3  1  0  0  0  0
  3 12  1  0  0  0  0
  3  9  1  0  0  0  0
  4 22  1  0  0  0  0
  4  1  1  0  0  0  0
  5  6  1  0  0  0  0
  6  7  1  0  0  0  0
  6  8  1  0  0  0  0
  9 10  1  0  0  0  0
  9  6  1  0  0  0  0
 11  9  1  0  0  0  0
 12  5  1  0  0  0  0
 13 14  1  0  0  0  0
 14 15  1  0  0  0  0
 14 12  2  0  0  0  0
 15 16  1  0  0  0  0
 17 18  1  0  0  0  0
 17 15  2  0  0  0  0
 19 17  1  0  0  0  0
 20 19  1  0  0  0  0
 21 19  2  0  0  0  0
 21 13  1  0  0  0  0
 22 21  1  0  0  0  0
 23 22  1  0  0  0  0
 24 22  1  0  0  0  0
 25  4  1  0  0  0  0
 25 28  1  0  0  0  0
 26 25  1  0  0  0  0
 27 25  1  0  0  0  0
 28 31  1  0  0  0  0
 28 30  1  0  0  0  0
 29 28  1  0  0  0  0
 32 35  1  0  0  0  0
 32  4  1  0  0  0  0
 33 32  1  0  0  0  0
 34 32  1  0  0  0  0
 35 37  1  0  0  0  0
 35 38  1  0  0  0  0
 36 35  1  0  0  0  0
M  END
$$$$
