CSD_code = FACJIC | q = 0 | S = 0 | Stoichiometry = C13H20ClCoN6O4 | MND = 6
 OpenBabel04212202033D

 45 47  0  0  1  0  0  0  0  0999 V2000
    9.0303    3.5871    1.7129 Co  0  0  0  0  0  0  0  0  0  0  0  0
   10.4712    2.6972    0.3418 Cl  0  0  0  0  0  0  0  0  0  0  0  0
    8.8928    6.0334    0.4725 O   0  0  0  0  0  1  0  0  0  0  0  0
    9.5844    5.2657    1.2376 N   0  0  0  0  0  0  0  0  0  0  0  0
   10.7384    5.7227    1.8032 C   0  0  0  0  0  0  0  0  0  0  0  0
   11.2269    4.7873    2.8299 C   0  0  0  0  0  0  0  0  0  0  0  0
   10.3764    3.7458    2.9692 N   0  0  0  0  0  0  0  0  0  0  0  0
   10.7242    2.7957    3.8689 O   0  0  0  0  0  0  0  0  0  0  0  0
   11.3195    6.8896    1.4406 C   0  0  0  0  0  0  0  0  0  0  0  0
   12.3508    4.9616    3.5689 C   0  0  0  0  0  0  0  0  0  0  0  0
    8.9124    1.1781    3.1703 O   0  0  0  0  0  1  0  0  0  0  0  0
    8.4588    1.8336    2.1640 N   0  0  0  0  0  0  0  0  0  0  0  0
    7.5829    1.3135    1.3503 C   0  0  0  0  0  0  0  0  0  0  0  0
    7.1621    2.1883    0.2936 C   0  0  0  0  0  0  0  0  0  0  0  0
    7.6888    3.3673    0.3407 N   0  0  0  0  0  0  0  0  0  0  0  0
    7.3384    4.2756   -0.6277 O   0  0  0  0  0  0  0  0  0  0  0  0
    7.0679   -0.0818    1.4991 C   0  0  0  0  0  0  0  0  0  0  0  0
    6.2027    1.7486   -0.7582 C   0  0  0  0  0  0  0  0  0  0  0  0
    7.6553    4.4692    2.9045 N   0  0  0  0  0  0  0  0  0  0  0  0
    6.9311    5.4565    2.3451 N   0  0  0  0  0  0  0  0  0  0  0  0
    6.0093    5.9386    3.1934 C   0  0  2  0  0  3  0  0  0  0  0  0
    6.1344    5.2058    4.3560 C   0  0  0  0  0  0  0  0  0  0  0  0
    7.1820    4.3001    4.1386 C   0  0  0  0  0  0  0  0  0  0  0  0
    5.0859    7.0354    2.8150 C   0  0  0  0  0  0  0  0  0  0  0  0
    7.7298    3.3332    5.1196 C   0  0  0  0  0  0  0  0  0  0  0  0
   10.0635    2.0160    3.7116 H   0  0  0  0  0  0  0  0  0  0  0  0
   12.9971    5.8034    3.4195 H   0  0  0  0  0  0  0  0  0  0  0  0
   12.6206    4.2405    4.3176 H   0  0  0  0  0  0  0  0  0  0  0  0
   12.2317    7.2348    1.8858 H   0  0  0  0  0  0  0  0  0  0  0  0
   10.8761    7.4845    0.6610 H   0  0  0  0  0  0  0  0  0  0  0  0
    7.9345    5.0650   -0.4542 H   0  0  0  0  0  0  0  0  0  0  0  0
    5.9459    2.5866   -1.4004 H   0  0  0  0  0  0  0  0  0  0  0  0
    5.3015    1.3423   -0.3033 H   0  0  0  0  0  0  0  0  0  0  0  0
    6.6613    0.9669   -1.3621 H   0  0  0  0  0  0  0  0  0  0  0  0
    5.9986   -0.0811    1.7084 H   0  0  0  0  0  0  0  0  0  0  0  0
    7.5920   -0.5576    2.3251 H   0  0  0  0  0  0  0  0  0  0  0  0
    7.2426   -0.6518    0.5886 H   0  0  0  0  0  0  0  0  0  0  0  0
    7.2070    5.8437    1.4438 H   0  0  0  0  0  0  0  0  0  0  0  0
    5.5571    5.3072    5.2514 H   0  0  0  0  0  0  0  0  0  0  0  0
    5.6282    7.8329    2.3105 H   0  0  0  0  0  0  0  0  0  0  0  0
    4.3173    6.6665    2.1359 H   0  0  0  0  0  0  0  0  0  0  0  0
    4.6012    7.4371    3.7000 H   0  0  0  0  0  0  0  0  0  0  0  0
    7.1128    3.3275    6.0135 H   0  0  0  0  0  0  0  0  0  0  0  0
    8.7454    3.6140    5.3946 H   0  0  0  0  0  0  0  0  0  0  0  0
    7.7704    2.3279    4.7077 H   0  0  0  0  0  0  0  0  0  0  0  0
  1 12  1  0  0  0  0
  1 19  1  0  0  0  0
  1  7  1  0  0  0  0
  2  1  1  0  0  0  0
  3  4  1  0  0  0  0
  4  1  1  0  0  0  0
  4  5  1  0  0  0  0
  5  6  1  0  0  0  0
  6  7  1  0  0  0  0
  6 10  2  0  0  0  0
  7  8  1  0  0  0  0
  9  5  2  0  0  0  0
  9 29  1  0  0  0  0
 10 28  1  0  0  0  0
 12 11  1  0  0  0  0
 13 17  1  0  0  0  0
 13 12  1  0  0  0  0
 14 15  1  0  0  0  0
 14 13  2  0  0  0  0
 15  1  1  0  0  0  0
 16 31  1  0  0  0  0
 16 15  1  0  0  0  0
 17 35  1  0  0  0  0
 17 36  1  0  0  0  0
 18 33  1  0  0  0  0
 18 14  1  0  0  0  0
 19 23  1  0  0  0  0
 20 19  1  0  0  0  0
 20 21  1  0  0  0  0
 21 24  1  6  0  0  0
 21 22  1  0  0  0  0
 22 39  1  0  0  0  0
 23 22  2  0  0  0  0
 23 25  1  0  0  0  0
 24 42  1  0  0  0  0
 25 44  1  0  0  0  0
 25 43  1  0  0  0  0
 26  8  1  0  0  0  0
 27 10  1  0  0  0  0
 30  9  1  0  0  0  0
 32 18  1  0  0  0  0
 34 18  1  0  0  0  0
 37 17  1  0  0  0  0
 38 20  1  0  0  0  0
 40 24  1  0  0  0  0
 41 24  1  0  0  0  0
 45 25  1  0  0  0  0
M  END
$$$$
