CSD_code = FADJEZ | q = 0 | S = 0 | Stoichiometry = C10H25Cl3NO2RhS2 | MND = 6
 OpenBabel04212202033D

 44 43  0  0  0  0  0  0  0  0999 V2000
    2.0495    3.0259    1.8305 Rh  0  0  0  0  0  0  0  0  0  0  0  0
    3.4806    3.3343    3.6215 Cl  0  0  0  0  0  0  0  0  0  0  0  0
    0.6486    2.5834    0.0344 Cl  0  0  0  0  0  0  0  0  0  0  0  0
    0.6064    4.6185    2.6306 Cl  0  0  0  0  0  0  0  0  0  0  0  0
    3.3963    1.2929    1.1328 S   0  0  0  0  0  0  0  0  0  0  0  0
    0.7433    1.6616    3.1053 S   0  0  0  0  0  0  0  0  0  0  0  0
    4.4867    1.6741    0.2501 O   0  0  0  0  0  1  0  0  0  0  0  0
    1.1231    0.2540    3.0475 O   0  0  0  0  0  1  0  0  0  0  0  0
    2.2252    6.5579    0.7329 N   0  0  0  0  0  0  0  0  0  0  0  0
    3.2616    4.3592    0.5968 C   0  0  0  0  0  0  0  0  0  0  0  0
    3.0942    5.6558    1.1178 C   0  0  0  0  0  3  0  0  0  0  0  0
    1.2110    6.2789   -0.2644 C   0  0  0  0  0  0  0  0  0  0  0  0
    1.7049    6.6002   -1.6724 C   0  0  0  0  0  0  0  0  0  0  0  0
    2.1844    7.8632    1.3610 C   0  0  0  0  0  0  0  0  0  0  0  0
    1.2200    7.9057    2.5422 C   0  0  0  0  0  0  0  0  0  0  0  0
    4.1487    0.3359    2.4801 C   0  0  0  0  0  0  0  0  0  0  0  0
    2.5239   -0.0655    0.3012 C   0  0  0  0  0  0  0  0  0  0  0  0
    0.6682    2.0976    4.8661 C   0  0  0  0  0  0  0  0  0  0  0  0
   -1.0345    1.7217    2.7389 C   0  0  0  0  0  0  0  0  0  0  0  0
    4.2605    3.9584    0.7538 H   0  0  0  0  0  0  0  0  0  0  0  0
    2.8982    4.1883   -0.4140 H   0  0  0  0  0  0  0  0  0  0  0  0
    3.7446    5.9574    1.9338 H   0  0  0  0  0  0  0  0  0  0  0  0
    0.9178    5.2290   -0.1935 H   0  0  0  0  0  0  0  0  0  0  0  0
    0.3352    6.8857   -0.0300 H   0  0  0  0  0  0  0  0  0  0  0  0
    0.9219    6.3736   -2.3897 H   0  0  0  0  0  0  0  0  0  0  0  0
    2.5807    6.0065   -1.9195 H   0  0  0  0  0  0  0  0  0  0  0  0
    1.9653    7.6528   -1.7632 H   0  0  0  0  0  0  0  0  0  0  0  0
    1.8817    8.5904    0.6032 H   0  0  0  0  0  0  0  0  0  0  0  0
    3.1897    8.1212    1.7026 H   0  0  0  0  0  0  0  0  0  0  0  0
    1.5305    7.1976    3.3040 H   0  0  0  0  0  0  0  0  0  0  0  0
    0.2155    7.6343    2.2324 H   0  0  0  0  0  0  0  0  0  0  0  0
    1.2026    8.9052    2.9672 H   0  0  0  0  0  0  0  0  0  0  0  0
    4.7168    1.0234    3.0976 H   0  0  0  0  0  0  0  0  0  0  0  0
    4.8028   -0.4014    2.0300 H   0  0  0  0  0  0  0  0  0  0  0  0
    3.3496   -0.1222    3.0501 H   0  0  0  0  0  0  0  0  0  0  0  0
    3.2655   -0.7993    0.0091 H   0  0  0  0  0  0  0  0  0  0  0  0
    1.8017   -0.4732    0.9983 H   0  0  0  0  0  0  0  0  0  0  0  0
    2.0279    0.3430   -0.5727 H   0  0  0  0  0  0  0  0  0  0  0  0
    0.0760    1.3439    5.3711 H   0  0  0  0  0  0  0  0  0  0  0  0
    0.2310    3.0856    4.9490 H   0  0  0  0  0  0  0  0  0  0  0  0
    1.6849    2.1093    5.2456 H   0  0  0  0  0  0  0  0  0  0  0  0
   -1.5345    1.0275    3.4036 H   0  0  0  0  0  0  0  0  0  0  0  0
   -1.3730    2.7413    2.8805 H   0  0  0  0  0  0  0  0  0  0  0  0
   -1.1673    1.4270    1.7030 H   0  0  0  0  0  0  0  0  0  0  0  0
  1  4  1  0  0  0  0
  1  6  1  0  0  0  0
  1  2  1  0  0  0  0
  3  1  1  0  0  0  0
  5  1  1  0  0  0  0
  5 16  1  0  0  0  0
  6 18  1  0  0  0  0
  7  5  1  0  0  0  0
  8  6  1  0  0  0  0
  9 11  1  0  0  0  0
  9 14  1  0  0  0  0
 10 20  1  0  0  0  0
 10 11  1  0  0  0  0
 10  1  1  0  0  0  0
 11 22  1  0  0  0  0
 12 23  1  0  0  0  0
 12 24  1  0  0  0  0
 12  9  1  0  0  0  0
 13 12  1  0  0  0  0
 14 29  1  0  0  0  0
 14 15  1  0  0  0  0
 15 32  1  0  0  0  0
 15 30  1  0  0  0  0
 16 35  1  0  0  0  0
 16 33  1  0  0  0  0
 17 37  1  0  0  0  0
 17  5  1  0  0  0  0
 18 40  1  0  0  0  0
 18 41  1  0  0  0  0
 18 39  1  0  0  0  0
 19 43  1  0  0  0  0
 19  6  1  0  0  0  0
 19 42  1  0  0  0  0
 21 10  1  0  0  0  0
 25 13  1  0  0  0  0
 26 13  1  0  0  0  0
 27 13  1  0  0  0  0
 28 14  1  0  0  0  0
 31 15  1  0  0  0  0
 34 16  1  0  0  0  0
 36 17  1  0  0  0  0
 38 17  1  0  0  0  0
 44 19  1  0  0  0  0
M  END
$$$$
