CSD_code = FADSAE | q = 0 | S = 0 | Stoichiometry = C24H30Cl2Ti | MND = 12
 OpenBabel04212202033D

 57 62  0  0  1  0  0  0  0  0999 V2000
    3.2994    0.8225    1.9155 Ti  0  0  0  0  0  0  0  0  0  0  0  0
    4.4516   -1.0929    2.0940 Cl  0  0  0  0  0  0  0  0  0  0  0  0
    5.2392    1.9355    2.0739 Cl  0  0  0  0  0  0  0  0  0  0  0  0
    3.8383    0.8649   -0.3999 C   0  0  0  0  0  0  0  0  0  0  0  0
    3.1591    2.0582   -0.0413 C   0  0  1  0  0  0  0  0  0  0  0  0
    1.8354    1.7254    0.3230 C   0  0  0  0  0  0  0  0  0  0  0  0
    1.7034    0.3213    0.2117 C   0  0  0  0  0  0  0  0  0  0  0  0
    2.9311   -0.2034   -0.2674 C   0  0  0  0  0  0  0  0  0  0  0  0
    3.0014   -1.6270   -0.7435 C   0  0  0  0  0  0  0  0  0  0  0  0
    1.6049   -2.2441   -0.6210 C   0  0  1  0  0  0  0  0  0  0  0  0
    1.0603   -1.9504    0.7878 C   0  0  0  0  0  0  0  0  0  0  0  0
    0.5404   -0.6137    0.2163 C   0  0  2  0  0  0  0  0  0  0  0  0
    0.4995   -1.3107   -1.1805 C   0  0  0  0  0  0  0  0  0  0  0  0
   -0.8146   -2.0516   -1.4110 C   0  0  0  0  0  0  0  0  0  0  0  0
    0.7984   -0.4739   -2.4172 C   0  0  0  0  0  0  0  0  0  0  0  0
    3.2716    0.6459    4.2868 C   0  0  0  0  0  0  0  0  0  0  0  0
    2.1885   -0.0875    3.7365 C   0  0  1  0  0  0  0  0  0  0  0  0
    1.2951    0.8238    3.1307 C   0  0  0  0  0  0  0  0  0  0  0  0
    1.8388    2.1205    3.2869 C   0  0  0  0  0  0  0  0  0  0  0  0
    3.0417    2.0108    4.0307 C   0  0  0  0  0  0  0  0  0  0  0  0
    3.6926    3.2458    4.5873 C   0  0  0  0  0  0  0  0  0  0  0  0
    2.8238    4.4530    4.2213 C   0  0  1  0  0  0  0  0  0  0  0  0
    2.5024    4.3882    2.7179 C   0  0  0  0  0  0  0  0  0  0  0  0
    1.2993    3.4991    3.0996 C   0  0  2  0  0  0  0  0  0  0  0  0
    1.3184    4.1984    4.4957 C   0  0  0  0  0  0  0  0  0  0  0  0
    0.9198    3.3843    5.7194 C   0  0  0  0  0  0  0  0  0  0  0  0
    0.5087    5.4919    4.4982 C   0  0  0  0  0  0  0  0  0  0  0  0
    4.8442    0.8059   -0.7985 H   0  0  0  0  0  0  0  0  0  0  0  0
    3.5543    3.0589   -0.1654 H   0  0  0  0  0  0  0  0  0  0  0  0
    1.0338    2.4292    0.4989 H   0  0  0  0  0  0  0  0  0  0  0  0
    3.3464   -1.6500   -1.7816 H   0  0  0  0  0  0  0  0  0  0  0  0
    3.7108   -2.2092   -0.1474 H   0  0  0  0  0  0  0  0  0  0  0  0
    1.5973   -3.2787   -0.9650 H   0  0  0  0  0  0  0  0  0  0  0  0
    0.2688   -2.6278    1.0972 H   0  0  0  0  0  0  0  0  0  0  0  0
    1.8124   -1.8769    1.5755 H   0  0  0  0  0  0  0  0  0  0  0  0
   -0.3911   -0.1906    0.5966 H   0  0  0  0  0  0  0  0  0  0  0  0
   -1.0821   -2.6855   -0.5713 H   0  0  0  0  0  0  0  0  0  0  0  0
   -0.7343   -2.6788   -2.2968 H   0  0  0  0  0  0  0  0  0  0  0  0
   -1.6220   -1.3391   -1.5710 H   0  0  0  0  0  0  0  0  0  0  0  0
    1.6812    0.1461   -2.2977 H   0  0  0  0  0  0  0  0  0  0  0  0
   -0.0460    0.1789   -2.6319 H   0  0  0  0  0  0  0  0  0  0  0  0
    0.9496   -1.1287   -3.2733 H   0  0  0  0  0  0  0  0  0  0  0  0
    4.0769    0.2322    4.8824 H   0  0  0  0  0  0  0  0  0  0  0  0
    2.0170   -1.1464    3.8845 H   0  0  0  0  0  0  0  0  0  0  0  0
    0.3077    0.5869    2.7600 H   0  0  0  0  0  0  0  0  0  0  0  0
    3.7894    3.1518    5.6731 H   0  0  0  0  0  0  0  0  0  0  0  0
    4.6979    3.3824    4.1772 H   0  0  0  0  0  0  0  0  0  0  0  0
    3.2466    5.3786    4.6129 H   0  0  0  0  0  0  0  0  0  0  0  0
    2.2167    5.3471    2.2935 H   0  0  0  0  0  0  0  0  0  0  0  0
    3.2672    3.9214    2.0944 H   0  0  0  0  0  0  0  0  0  0  0  0
    0.3781    3.5597    2.5173 H   0  0  0  0  0  0  0  0  0  0  0  0
    1.3983    2.4105    5.7466 H   0  0  0  0  0  0  0  0  0  0  0  0
   -0.1580    3.2309    5.7233 H   0  0  0  0  0  0  0  0  0  0  0  0
    1.1904    3.9272    6.6231 H   0  0  0  0  0  0  0  0  0  0  0  0
    0.7567    6.1338    3.6585 H   0  0  0  0  0  0  0  0  0  0  0  0
    0.6999    6.0453    5.4156 H   0  0  0  0  0  0  0  0  0  0  0  0
   -0.5553    5.2665    4.4525 H   0  0  0  0  0  0  0  0  0  0  0  0
  1  3  1  0  0  0  0
  1  2  1  0  0  0  0
  1 17  1  0  0  0  0
  4  8  2  0  0  0  0
  4  5  1  0  0  0  0
  5 29  1  6  0  0  0
  5  6  1  0  0  0  0
  5  1  1  0  0  0  0
  6 30  1  0  0  0  0
  7 12  1  0  0  0  0
  7  6  2  0  0  0  0
  8  7  1  0  0  0  0
  9 10  1  0  0  0  0
  9  8  1  0  0  0  0
  9 32  1  0  0  0  0
 10 33  1  6  0  0  0
 10 11  1  0  0  0  0
 11 34  1  0  0  0  0
 11 35  1  0  0  0  0
 12 36  1  1  0  0  0
 12 11  1  0  0  0  0
 13 10  1  0  0  0  0
 13 12  1  0  0  0  0
 14 13  1  0  0  0  0
 14 37  1  0  0  0  0
 15 40  1  0  0  0  0
 15 13  1  0  0  0  0
 16 43  1  0  0  0  0
 17 44  1  1  0  0  0
 17 16  1  0  0  0  0
 18 19  2  0  0  0  0
 18 17  1  0  0  0  0
 19 20  1  0  0  0  0
 20 16  2  0  0  0  0
 20 21  1  0  0  0  0
 21 46  1  0  0  0  0
 22 25  1  0  0  0  0
 22 21  1  0  0  0  0
 22 48  1  1  0  0  0
 23 24  1  0  0  0  0
 23 22  1  0  0  0  0
 24 51  1  6  0  0  0
 24 19  1  0  0  0  0
 24 25  1  0  0  0  0
 25 27  1  0  0  0  0
 25 26  1  0  0  0  0
 26 53  1  0  0  0  0
 26 52  1  0  0  0  0
 26 54  1  0  0  0  0
 27 56  1  0  0  0  0
 28  4  1  0  0  0  0
 31  9  1  0  0  0  0
 38 14  1  0  0  0  0
 39 14  1  0  0  0  0
 41 15  1  0  0  0  0
 42 15  1  0  0  0  0
 45 18  1  0  0  0  0
 47 21  1  0  0  0  0
 49 23  1  0  0  0  0
 50 23  1  0  0  0  0
 55 27  1  0  0  0  0
 57 27  1  0  0  0  0
M  END
$$$$
