CSD_code = FADZIT | q = 0 | S = 0 | Stoichiometry = C10H10Br2N5S2V | MND = 6
 OpenBabel04212202033D

 30 32  0  0  0  0  0  0  0  0999 V2000
    0.0001   -0.0000    2.8564 V   0  0  0  0  0  0  0  0  0  0  0  0
   -2.3102   -0.8260    2.5578 Br  0  0  0  0  0  0  0  0  0  0  0  0
   -0.4202    1.2118    3.9671 N   0  0  0  0  0  2  0  0  0  0  0  0
   -0.4701    1.3608    5.4965 S   0  0  0  0  0  0  0  0  0  0  0  0
   -0.0000   -0.0000    6.1816 N   0  0  0  0  0  2  0  0  0  0  0  0
   -0.2061   -1.6358    0.0615 C   0  0  0  0  0  3  0  0  0  0  0  0
    0.0618   -2.6094   -0.8871 C   0  0  0  0  0  0  0  0  0  0  0  0
    1.1314   -3.4650   -0.6794 C   0  0  0  0  0  0  0  0  0  0  0  0
    1.8884   -3.3030    0.4692 C   0  0  0  0  0  0  0  0  0  0  0  0
    1.5486   -2.2952    1.3575 C   0  0  0  0  0  0  0  0  0  0  0  0
    0.5210   -1.4759    1.1614 N   0  0  0  0  0  0  0  0  0  0  0  0
   -1.0476   -0.9650   -0.0712 H   0  0  0  0  0  0  0  0  0  0  0  0
   -0.5620   -2.6937   -1.7628 H   0  0  0  0  0  0  0  0  0  0  0  0
    1.3670   -4.2393   -1.3942 H   0  0  0  0  0  0  0  0  0  0  0  0
    2.7307   -3.9432    0.6783 H   0  0  0  0  0  0  0  0  0  0  0  0
    2.1282   -2.1374    2.2598 H   0  0  0  0  0  0  0  0  0  0  0  0
    2.3105    0.8265    2.5575 Br  0  0  0  0  0  0  0  0  0  0  0  0
    0.4201   -1.2119    3.9671 N   0  0  0  0  0  2  0  0  0  0  0  0
   -0.5211    1.4758    1.1614 N   0  0  0  0  0  0  0  0  0  0  0  0
    0.4700   -1.3609    5.4965 S   0  0  0  0  0  0  0  0  0  0  0  0
    0.2061    1.6358    0.0615 C   0  0  0  0  0  3  0  0  0  0  0  0
   -1.5487    2.2951    1.3575 C   0  0  0  0  0  0  0  0  0  0  0  0
   -0.0618    2.6094   -0.8870 C   0  0  0  0  0  0  0  0  0  0  0  0
    1.0476    0.9650   -0.0712 H   0  0  0  0  0  0  0  0  0  0  0  0
   -1.8884    3.3030    0.4692 C   0  0  0  0  0  0  0  0  0  0  0  0
   -2.1283    2.1374    2.2598 H   0  0  0  0  0  0  0  0  0  0  0  0
   -1.1314    3.4650   -0.6794 C   0  0  0  0  0  0  0  0  0  0  0  0
    0.5620    2.6937   -1.7627 H   0  0  0  0  0  0  0  0  0  0  0  0
   -2.7307    3.9432    0.6783 H   0  0  0  0  0  0  0  0  0  0  0  0
   -1.3670    4.2393   -1.3942 H   0  0  0  0  0  0  0  0  0  0  0  0
  1  3  1  0  0  0  0
  1 18  1  0  0  0  0
  2  1  1  0  0  0  0
  3  4  1  0  0  0  0
  4  5  1  0  0  0  0
  6 11  1  0  0  0  0
  7  8  2  0  0  0  0
  7  6  1  0  0  0  0
  8  9  1  0  0  0  0
  9 15  1  0  0  0  0
  9 10  2  0  0  0  0
 10 16  1  0  0  0  0
 11 10  1  0  0  0  0
 11  1  1  0  0  0  0
 12  6  1  0  0  0  0
 13  7  1  0  0  0  0
 14  8  1  0  0  0  0
 17  1  1  0  0  0  0
 18 20  1  0  0  0  0
 19 22  1  0  0  0  0
 19  1  1  0  0  0  0
 20  5  1  0  0  0  0
 21 19  1  0  0  0  0
 22 26  1  0  0  0  0
 23 27  2  0  0  0  0
 23 21  1  0  0  0  0
 24 21  1  0  0  0  0
 25 29  1  0  0  0  0
 25 22  2  0  0  0  0
 27 25  1  0  0  0  0
 28 23  1  0  0  0  0
 30 27  1  0  0  0  0
M  END
$$$$
