CSD_code = FAGKOO | q = 0 | S = 0 | Stoichiometry = C9H10AuBCl2N6 | MND = 4
 OpenBabel04212202033D

 29 33  0  0  1  0  0  0  0  0999 V2000
    0.9868   -0.3125   -2.3712 Au  0  0  0  0  0  0  0  0  0  0  0  0
   -0.8971   -1.3701   -2.9292 Cl  0  0  0  0  0  0  0  0  0  0  0  0
    0.0883    1.6456   -2.9527 Cl  0  0  0  0  0  0  0  0  0  0  0  0
    2.6459    0.6315   -1.7081 N   0  0  0  0  0  0  0  0  0  0  0  0
    3.8445    0.0613   -1.8474 N   0  0  2  0  0  0  0  0  0  0  0  0
    4.7766    0.9073   -1.4054 C   0  0  0  0  0  3  0  0  0  0  0  0
    5.8145    0.6442   -1.4273 H   0  0  0  0  0  0  0  0  0  0  0  0
    4.1565    2.0630   -0.9654 C   0  0  0  0  0  0  0  0  0  0  0  0
    4.6139    2.9364   -0.5507 H   0  0  0  0  0  0  0  0  0  0  0  0
    2.8040    1.8417   -1.1811 C   0  0  0  0  0  0  0  0  0  0  0  0
    1.9598    2.4757   -0.9997 H   0  0  0  0  0  0  0  0  0  0  0  0
    1.7713   -2.0447   -1.6885 N   0  0  0  0  0  0  0  0  0  0  0  0
    3.0732   -2.2977   -1.8374 N   0  0  1  0  0  0  0  0  0  0  0  0
    3.3267   -3.5265   -1.3836 C   0  0  0  0  0  3  0  0  0  0  0  0
    4.3182   -3.9304   -1.4111 H   0  0  0  0  0  0  0  0  0  0  0  0
    2.1464   -4.0842   -0.9256 C   0  0  0  0  0  0  0  0  0  0  0  0
    2.0013   -5.0538   -0.4978 H   0  0  0  0  0  0  0  0  0  0  0  0
    1.1862   -3.1067   -1.1433 C   0  0  0  0  0  0  0  0  0  0  0  0
    0.1325   -3.1145   -0.9505 H   0  0  0  0  0  0  0  0  0  0  0  0
    4.0396   -1.3112   -2.5241 B   0  0  1  0  0  0  0  0  0  0  0  0
    5.1562   -1.6758   -2.4122 H   0  0  0  0  0  0  0  0  0  0  0  0
    3.6243   -1.1790   -3.9825 N   0  0  0  0  0  0  0  0  0  0  0  0
    2.3867   -0.7772   -4.3011 N   0  0  2  0  0  0  0  0  0  0  0  0
    2.3040   -0.7454   -5.6184 C   0  0  0  0  0  3  0  0  0  0  0  0
    1.3918   -0.4477   -6.0957 H   0  0  0  0  0  0  0  0  0  0  0  0
    3.5194   -1.1369   -6.1843 C   0  0  0  0  0  0  0  0  0  0  0  0
    3.7634   -1.2115   -7.2234 H   0  0  0  0  0  0  0  0  0  0  0  0
    4.3307   -1.4036   -5.1040 C   0  0  0  0  0  0  0  0  0  0  0  0
    5.3487   -1.7336   -5.0590 H   0  0  0  0  0  0  0  0  0  0  0  0
  1  4  1  0  0  0  0
  1 12  1  0  0  0  0
  2  1  1  0  0  0  0
  3  1  1  0  0  0  0
  4 10  1  0  0  0  0
  5  4  1  0  0  0  0
  5  6  1  6  0  0  0
  6  8  1  0  0  0  0
  7  6  1  0  0  0  0
  8  9  1  0  0  0  0
 10 11  1  0  0  0  0
 10  8  2  0  0  0  0
 12 18  1  0  0  0  0
 13 12  1  0  0  0  0
 13 14  1  6  0  0  0
 14 16  1  0  0  0  0
 15 14  1  0  0  0  0
 16 17  1  0  0  0  0
 18 19  1  0  0  0  0
 18 16  2  0  0  0  0
 20 21  1  1  0  0  0
 20  5  1  0  0  0  0
 20 13  1  0  0  0  0
 22 20  1  0  0  0  0
 23 24  1  6  0  0  0
 23 22  1  0  0  0  0
 23  1  1  0  0  0  0
 25 24  1  0  0  0  0
 26 24  1  0  0  0  0
 26 28  2  0  0  0  0
 27 26  1  0  0  0  0
 28 29  1  0  0  0  0
 28 22  1  0  0  0  0
M  END
$$$$
