CSD_code = FAGTOY | q = 0 | S = 0 | Stoichiometry = C11H14BrNO3Pd | MND = 4
 OpenBabel04212202033D

 31 32  0  0  1  0  0  0  0  0999 V2000
    4.5953    0.2970    1.8937 Pd  0  0  0  0  0  0  0  0  0  0  0  0
    5.2896    2.0999    1.7190 N   0  0  0  0  0  0  0  0  0  0  0  0
    3.9495   -1.9182    2.0928 Br  0  0  0  0  0  0  0  0  0  0  0  0
    6.9275    0.0573    1.5643 O   0  0  0  0  0  0  0  0  0  0  0  0
    2.8055    1.2539    2.1348 C   0  0  0  0  0  0  0  0  0  0  0  0
    1.8731    0.7379    1.8870 H   0  0  0  0  0  0  0  0  0  0  0  0
    2.8496    1.4794    3.2155 H   0  0  0  0  0  0  0  0  0  0  0  0
    2.9857    2.4857    1.3330 C   0  0  0  0  0  0  0  0  0  0  0  0
    2.1651    2.9907    0.5962 O   0  0  0  0  0  0  0  0  0  0  0  0
    4.3797    3.0485    1.4655 C   0  0  2  0  0  3  0  0  0  0  0  0
    4.7421    4.3748    1.2960 C   0  0  0  0  0  0  0  0  0  0  0  0
    3.9857    5.1076    1.0656 H   0  0  0  0  0  0  0  0  0  0  0  0
    6.0807    4.7082    1.4349 C   0  0  0  0  0  0  0  0  0  0  0  0
    6.4046    5.7323    1.3341 H   0  0  0  0  0  0  0  0  0  0  0  0
    7.0120    3.7104    1.6962 C   0  0  0  0  0  0  0  0  0  0  0  0
    8.0527    3.9630    1.8087 H   0  0  0  0  0  0  0  0  0  0  0  0
    6.5886    2.3931    1.8109 C   0  0  0  0  0  0  0  0  0  0  0  0
    7.5455    1.2256    2.1033 C   0  0  0  0  0  0  0  0  0  0  0  0
    7.7681    1.0839    3.4903 O   0  0  0  0  0  0  0  0  0  0  0  0
    8.9253    1.4573    1.4809 C   0  0  0  0  0  0  0  0  0  0  0  0
    9.4063    2.3013    1.9625 H   0  0  0  0  0  0  0  0  0  0  0  0
    8.8255    1.6389    0.4145 H   0  0  0  0  0  0  0  0  0  0  0  0
    9.5486    0.5846    1.6476 H   0  0  0  0  0  0  0  0  0  0  0  0
    6.6326    0.9080    4.3219 C   0  0  0  0  0  0  0  0  0  0  0  0
    6.0685    1.8441    4.4294 H   0  0  0  0  0  0  0  0  0  0  0  0
    7.0325    0.6207    5.2924 H   0  0  0  0  0  0  0  0  0  0  0  0
    5.9618    0.0975    3.9632 H   0  0  0  0  0  0  0  0  0  0  0  0
    7.6457   -1.1657    1.7228 C   0  0  0  0  0  0  0  0  0  0  0  0
    8.3605   -1.2944    0.9057 H   0  0  0  0  0  0  0  0  0  0  0  0
    6.9030   -1.9650    1.6846 H   0  0  0  0  0  0  0  0  0  0  0  0
    8.1614   -1.1909    2.6854 H   0  0  0  0  0  0  0  0  0  0  0  0
  1  3  1  0  0  0  0
  1  5  1  0  0  0  0
  2 17  1  0  0  0  0
  2  1  1  0  0  0  0
  4 28  1  0  0  0  0
  4 18  1  0  0  0  0
  5  7  1  0  0  0  0
  6  5  1  0  0  0  0
  8 10  1  0  0  0  0
  8  5  1  0  0  0  0
  9  8  2  0  0  0  0
 10 11  1  6  0  0  0
 10  2  1  0  0  0  0
 11 13  2  0  0  0  0
 12 11  1  0  0  0  0
 13 15  1  0  0  0  0
 14 13  1  0  0  0  0
 15 16  1  0  0  0  0
 15 17  2  0  0  0  0
 17 18  1  0  0  0  0
 18 19  1  0  0  0  0
 19 24  1  0  0  0  0
 20 23  1  0  0  0  0
 20 21  1  0  0  0  0
 20 18  1  0  0  0  0
 22 20  1  0  0  0  0
 24 25  1  0  0  0  0
 24 26  1  0  0  0  0
 27 24  1  0  0  0  0
 28 31  1  0  0  0  0
 29 28  1  0  0  0  0
 30 28  1  0  0  0  0
M  END
$$$$
