CSD_code = FAHFIF | q = 0 | S = 0 | Stoichiometry = C31H22AuClNP | MND = 2
 OpenBabel04212202033D

 57 62  0  0  1  0  0  0  0  0999 V2000
    3.7830    3.8566    8.4489 C   0  0  0  0  0  0  0  0  0  0  0  0
    4.2671    2.5831    8.9945 C   0  0  2  0  0  3  0  0  0  0  0  0
    3.5993    1.5745    9.6644 C   0  0  0  0  0  0  0  0  0  0  0  0
    2.5288    1.6265    9.8053 H   0  0  0  0  0  0  0  0  0  0  0  0
    4.3267    0.4921   10.1376 C   0  0  0  0  0  0  0  0  0  0  0  0
    3.8143   -0.3065   10.6531 H   0  0  0  0  0  0  0  0  0  0  0  0
    5.7001    0.4198    9.9571 C   0  0  0  0  0  0  0  0  0  0  0  0
    6.2441   -0.4329   10.3366 H   0  0  0  0  0  0  0  0  0  0  0  0
    6.3829    1.4287    9.2930 C   0  0  0  0  0  0  0  0  0  0  0  0
    7.4528    1.3710    9.1557 H   0  0  0  0  0  0  0  0  0  0  0  0
    5.6645    2.5063    8.8104 C   0  0  0  0  0  0  0  0  0  0  0  0
    6.0886    3.6731    8.0529 C   0  0  0  0  0  0  0  0  0  0  0  0
    7.3230    4.0403    7.5521 C   0  0  0  0  0  0  0  0  0  0  0  0
    8.2022    3.4479    7.7573 H   0  0  0  0  0  0  0  0  0  0  0  0
    7.4095    5.1787    6.7622 C   0  0  0  0  0  0  0  0  0  0  0  0
    8.3673    5.4832    6.3663 H   0  0  0  0  0  0  0  0  0  0  0  0
    6.2748    5.9069    6.4394 C   0  0  0  0  0  0  0  0  0  0  0  0
    6.3539    6.7592    5.7802 H   0  0  0  0  0  0  0  0  0  0  0  0
    5.0325    5.5435    6.9394 C   0  0  0  0  0  0  0  0  0  0  0  0
    4.1463    6.0827    6.6251 H   0  0  0  0  0  0  0  0  0  0  0  0
    4.9465    4.4600    7.7930 C   0  0  0  0  0  0  0  0  0  0  0  0
    2.5429    4.3608    8.6621 C   0  0  1  0  0  3  0  0  0  0  0  0
    0.7912    6.5883    9.3940 C   0  0  0  0  0  0  0  0  0  0  0  0
    1.1038    6.9791   10.6917 C   0  0  0  0  0  0  0  0  0  0  0  0
    2.1369    7.0082   11.0132 H   0  0  0  0  0  0  0  0  0  0  0  0
    0.0896    7.3133   11.5716 C   0  0  0  0  0  0  0  0  0  0  0  0
    0.3322    7.6052   12.5828 H   0  0  0  0  0  0  0  0  0  0  0  0
   -1.2312    7.2651   11.1586 C   0  0  0  0  0  0  0  0  0  0  0  0
   -2.0207    7.5176   11.8502 H   0  0  0  0  0  0  0  0  0  0  0  0
   -1.5433    6.8852    9.8621 C   0  0  0  0  0  0  0  0  0  0  0  0
   -2.5731    6.8373    9.5433 H   0  0  0  0  0  0  0  0  0  0  0  0
   -0.5378    6.5444    8.9790 C   0  0  0  0  0  0  0  0  0  0  0  0
   -0.7805    6.2262    7.9742 H   0  0  0  0  0  0  0  0  0  0  0  0
    3.3911    7.2928    8.6380 C   0  0  0  0  0  0  0  0  0  0  0  0
    4.1187    9.3918    8.1808 C   0  0  0  0  0  0  0  0  0  0  0  0
    3.9664   10.2945    7.6038 H   0  0  0  0  0  0  0  0  0  0  0  0
    5.1644    9.2800    9.0855 C   0  0  0  0  0  0  0  0  0  0  0  0
    5.8540   10.0971    9.2276 H   0  0  0  0  0  0  0  0  0  0  0  0
    5.3003    8.0984    9.7996 C   0  0  0  0  0  0  0  0  0  0  0  0
    6.1003    7.9743   10.5146 H   0  0  0  0  0  0  0  0  0  0  0  0
    4.3938    7.0763    9.5765 C   0  0  0  0  0  0  0  0  0  0  0  0
    4.4584    6.1303   10.0952 H   0  0  0  0  0  0  0  0  0  0  0  0
    1.5105    6.2824    6.6103 C   0  0  0  0  0  0  0  0  0  0  0  0
    1.5844    5.2272    5.7078 C   0  0  0  0  0  0  0  0  0  0  0  0
    2.0047    4.2815    6.0248 H   0  0  0  0  0  0  0  0  0  0  0  0
    1.1150    5.4018    4.4186 C   0  0  0  0  0  0  0  0  0  0  0  0
    1.1651    4.5860    3.7133 H   0  0  0  0  0  0  0  0  0  0  0  0
    0.5806    6.6221    4.0366 C   0  0  0  0  0  0  0  0  0  0  0  0
    0.2140    6.7556    3.0297 H   0  0  0  0  0  0  0  0  0  0  0  0
    0.5101    7.6718    4.9405 C   0  0  0  0  0  0  0  0  0  0  0  0
    0.0902    8.6190    4.6360 H   0  0  0  0  0  0  0  0  0  0  0  0
    0.9694    7.5083    6.2341 C   0  0  0  0  0  0  0  0  0  0  0  0
    0.9228    8.3147    6.9509 H   0  0  0  0  0  0  0  0  0  0  0  0
    3.2491    8.4219    7.9622 N   0  0  0  0  0  0  0  0  0  0  0  0
    2.1142    6.0300    8.2869 P   0  0  0  0  0  4  0  0  0  0  0  0
   -1.3759    2.8692    9.3403 Cl  0  0  0  0  0  0  0  0  0  0  0  0
    0.7552    3.5542    9.0479 Au  0  0  0  0  0  0  0  0  0  0  0  0
  1 22  1  0  0  0  0
  2  1  1  1  0  0  0
  2  3  1  0  0  0  0
  3  4  1  0  0  0  0
  3  5  2  0  0  0  0
  5  6  1  0  0  0  0
  7  5  1  0  0  0  0
  7  8  1  0  0  0  0
  9  7  2  0  0  0  0
 10  9  1  0  0  0  0
 11  2  1  0  0  0  0
 11  9  1  0  0  0  0
 12 11  2  0  0  0  0
 13 14  1  0  0  0  0
 13 12  1  0  0  0  0
 15 13  2  0  0  0  0
 16 15  1  0  0  0  0
 17 15  1  0  0  0  0
 17 19  2  0  0  0  0
 18 17  1  0  0  0  0
 19 21  1  0  0  0  0
 20 19  1  0  0  0  0
 21 12  1  0  0  0  0
 21  1  2  0  0  0  0
 22 57  1  6  0  0  0
 23 24  1  0  0  0  0
 24 25  1  0  0  0  0
 24 26  2  0  0  0  0
 26 27  1  0  0  0  0
 28 26  1  0  0  0  0
 28 29  1  0  0  0  0
 30 28  2  0  0  0  0
 31 30  1  0  0  0  0
 32 23  2  0  0  0  0
 32 30  1  0  0  0  0
 33 32  1  0  0  0  0
 34 41  1  0  0  0  0
 35 37  2  0  0  0  0
 36 35  1  0  0  0  0
 37 38  1  0  0  0  0
 37 39  1  0  0  0  0
 39 40  1  0  0  0  0
 41 39  2  0  0  0  0
 41 42  1  0  0  0  0
 43 55  1  0  0  0  0
 44 45  1  0  0  0  0
 44 43  2  0  0  0  0
 46 44  1  0  0  0  0
 47 46  1  0  0  0  0
 48 46  2  0  0  0  0
 48 50  1  0  0  0  0
 49 48  1  0  0  0  0
 50 52  2  0  0  0  0
 51 50  1  0  0  0  0
 52 43  1  0  0  0  0
 52 53  1  0  0  0  0
 54 35  1  0  0  0  0
 54 34  2  0  0  0  0
 55 34  1  0  0  0  0
 55 22  1  0  0  0  0
 55 23  1  0  0  0  0
 57 56  1  0  0  0  0
M  END
$$$$
