CSD_code = FAHMAD | q = 0 | S = 0 | Stoichiometry = C20H20Cl2N4S6Zn | MND = 4
 OpenBabel04212202033D

 53 56  0  0  1  0  0  0  0  0999 V2000
   -0.0003   -0.0003    8.0470 Zn  0  0  0  0  0  0  0  0  0  0  0  0
   -0.4193   -1.8244    6.8846 Cl  0  0  0  0  0  0  0  0  0  0  0  0
    0.0176    1.9452   12.5750 S   0  0  0  0  0  0  0  0  0  0  0  0
    2.7863    0.1160   11.6252 S   0  0  0  0  0  0  0  0  0  0  0  0
    0.3218    4.1669   10.6010 S   0  0  0  0  0  0  0  0  0  0  0  0
    1.1700    1.7462   10.1738 N   0  0  0  0  0  0  0  0  0  0  0  0
    1.5278   -0.3975    9.4166 N   0  0  0  0  0  0  0  0  0  0  0  0
    3.8062   -3.6544   10.5483 C   0  0  0  0  0  0  0  0  0  0  0  0
    3.0558   -3.7466    9.3791 C   0  0  0  0  0  0  0  0  0  0  0  0
    0.5977    2.5137   11.0169 C   0  0  0  0  0  0  0  0  0  0  0  0
    2.2493   -1.5271    9.6995 C   0  0  0  0  0  0  0  0  0  0  0  0
    3.7962   -2.4996   11.3090 C   0  0  0  0  0  0  0  0  0  0  0  0
    3.0133   -1.4429   10.8779 C   0  0  0  0  0  0  0  0  0  0  0  0
    2.2777   -2.6939    8.9424 C   0  0  0  0  0  0  0  0  0  0  0  0
    1.6837    0.5348   10.3095 C   0  0  1  0  0  3  0  0  0  0  0  0
    1.1995    4.2964    9.0319 C   0  0  0  0  0  0  0  0  0  0  0  0
    0.9481    5.2727    8.6299 H   0  0  0  0  0  0  0  0  0  0  0  0
    0.8737    3.5031    8.3565 H   0  0  0  0  0  0  0  0  0  0  0  0
    2.2662    4.2249    9.2203 H   0  0  0  0  0  0  0  0  0  0  0  0
   -0.8397    3.3928   13.2465 C   0  0  0  0  0  0  0  0  0  0  0  0
    4.4061   -4.4932   10.8670 H   0  0  0  0  0  0  0  0  0  0  0  0
   -0.1346    4.2071   13.3798 H   0  0  0  0  0  0  0  0  0  0  0  0
    1.6917   -2.7545    8.0389 H   0  0  0  0  0  0  0  0  0  0  0  0
   -1.6437    3.6815   12.5758 H   0  0  0  0  0  0  0  0  0  0  0  0
    4.3773   -2.4153   12.2137 H   0  0  0  0  0  0  0  0  0  0  0  0
    3.0833   -4.6580    8.8026 H   0  0  0  0  0  0  0  0  0  0  0  0
   -1.2398    3.0755   14.2044 H   0  0  0  0  0  0  0  0  0  0  0  0
    0.4185    1.8234    6.8840 Cl  0  0  0  0  0  0  0  0  0  0  0  0
   -0.0168   -1.9449   12.5748 S   0  0  0  0  0  0  0  0  0  0  0  0
   -2.7859   -0.1157   11.6258 S   0  0  0  0  0  0  0  0  0  0  0  0
   -0.3223   -4.1670   10.6016 S   0  0  0  0  0  0  0  0  0  0  0  0
   -1.1703   -1.7463   10.1740 N   0  0  0  0  0  0  0  0  0  0  0  0
   -1.5281    0.3973    9.4167 N   0  0  0  0  0  0  0  0  0  0  0  0
   -3.8055    3.6547   10.5489 C   0  0  0  0  0  0  0  0  0  0  0  0
   -3.0555    3.7467    9.3794 C   0  0  0  0  0  0  0  0  0  0  0  0
   -0.5977   -2.5137   11.0170 C   0  0  0  0  0  0  0  0  0  0  0  0
   -2.2494    1.5270    9.6997 C   0  0  0  0  0  0  0  0  0  0  0  0
   -3.7956    2.5000   11.3096 C   0  0  0  0  0  0  0  0  0  0  0  0
   -3.0130    1.4431   10.8783 C   0  0  0  0  0  0  0  0  0  0  0  0
   -2.2778    2.6938    8.9425 C   0  0  0  0  0  0  0  0  0  0  0  0
   -1.6838   -0.5348   10.3097 C   0  0  1  0  0  3  0  0  0  0  0  0
   -1.2008   -4.2968    9.0329 C   0  0  0  0  0  0  0  0  0  0  0  0
   -0.9502   -5.2734    8.6313 H   0  0  0  0  0  0  0  0  0  0  0  0
   -0.8751   -3.5040    8.3571 H   0  0  0  0  0  0  0  0  0  0  0  0
   -2.2674   -4.2247    9.2218 H   0  0  0  0  0  0  0  0  0  0  0  0
    0.8405   -3.3925   13.2462 C   0  0  0  0  0  0  0  0  0  0  0  0
   -4.4052    4.4936   10.8677 H   0  0  0  0  0  0  0  0  0  0  0  0
    0.1349   -4.2060   13.3817 H   0  0  0  0  0  0  0  0  0  0  0  0
   -1.6921    2.7543    8.0388 H   0  0  0  0  0  0  0  0  0  0  0  0
    1.6432   -3.6826   12.5743 H   0  0  0  0  0  0  0  0  0  0  0  0
   -4.3764    2.4158   12.2145 H   0  0  0  0  0  0  0  0  0  0  0  0
   -3.0830    4.6581    8.8029 H   0  0  0  0  0  0  0  0  0  0  0  0
    1.2427   -3.0744   14.2030 H   0  0  0  0  0  0  0  0  0  0  0  0
  1  7  1  0  0  0  0
  1 33  1  0  0  0  0
  2  1  1  0  0  0  0
  3 20  1  0  0  0  0
  5 10  1  0  0  0  0
  6 10  2  0  0  0  0
  7 11  1  0  0  0  0
  7 15  1  0  0  0  0
  8 21  1  0  0  0  0
  8 12  1  0  0  0  0
  9  8  2  0  0  0  0
 10  3  1  0  0  0  0
 11 13  1  0  0  0  0
 12 25  1  0  0  0  0
 13 12  2  0  0  0  0
 13  4  1  0  0  0  0
 14  9  1  0  0  0  0
 14 11  2  0  0  0  0
 15  6  1  6  0  0  0
 15  4  1  0  0  0  0
 16 19  1  0  0  0  0
 16  5  1  0  0  0  0
 17 16  1  0  0  0  0
 18 16  1  0  0  0  0
 20 22  1  0  0  0  0
 20 27  1  0  0  0  0
 23 14  1  0  0  0  0
 24 20  1  0  0  0  0
 26  9  1  0  0  0  0
 28  1  1  0  0  0  0
 29 46  1  0  0  0  0
 31 36  1  0  0  0  0
 32 36  2  0  0  0  0
 33 37  1  0  0  0  0
 33 41  1  0  0  0  0
 34 47  1  0  0  0  0
 34 38  1  0  0  0  0
 35 34  2  0  0  0  0
 36 29  1  0  0  0  0
 37 39  1  0  0  0  0
 38 51  1  0  0  0  0
 39 38  2  0  0  0  0
 39 30  1  0  0  0  0
 40 35  1  0  0  0  0
 40 37  2  0  0  0  0
 41 32  1  6  0  0  0
 41 30  1  0  0  0  0
 42 45  1  0  0  0  0
 42 31  1  0  0  0  0
 43 42  1  0  0  0  0
 44 42  1  0  0  0  0
 46 48  1  0  0  0  0
 46 53  1  0  0  0  0
 49 40  1  0  0  0  0
 50 46  1  0  0  0  0
 52 35  1  0  0  0  0
M  END
$$$$
