CSD_code = FAJRIR | q = 0 | S = 0 | Stoichiometry = C10H14Cl2PdS2 | MND = 4
 OpenBabel04212202033D

 29 32  0  0  1  0  0  0  0  0999 V2000
    6.4918    1.8550   -0.6361 Pd  0  0  0  0  0  0  0  0  0  0  0  0
    8.3452    1.8557    0.6014 Cl  0  0  0  0  0  0  0  0  0  0  0  0
    7.7244    1.8557   -2.4929 Cl  0  0  0  0  0  0  0  0  0  0  0  0
    4.6089    1.8555   -2.0319 S   0  0  1  0  0  3  0  0  0  0  0  0
    5.2877    1.8555    1.3750 S   0  0  2  0  0  3  0  0  0  0  0  0
    3.0354    1.0717    0.0515 C   0  0  2  0  0  0  0  0  0  0  0  0
    3.5078    0.5884   -1.3266 C   0  0  0  0  0  0  0  0  0  0  0  0
    3.9958    0.5951    1.1520 C   0  0  0  0  0  0  0  0  0  0  0  0
    1.6386    0.4905    0.3556 C   0  0  0  0  0  0  0  0  0  0  0  0
    1.0216    1.1939    1.5256 C   0  0  0  0  0  0  0  0  0  0  0  0
    4.0449   -0.3588   -1.2867 H   0  0  0  0  0  0  0  0  0  0  0  0
    2.6679    0.4865   -2.0164 H   0  0  0  0  0  0  0  0  0  0  0  0
    3.4721    0.5162    2.1066 H   0  0  0  0  0  0  0  0  0  0  0  0
    4.4686   -0.3594    0.9229 H   0  0  0  0  0  0  0  0  0  0  0  0
    1.7245   -0.5815    0.5325 H   0  0  0  0  0  0  0  0  0  0  0  0
    0.9952    0.6356   -0.5180 H   0  0  0  0  0  0  0  0  0  0  0  0
    0.5934    0.6076    2.3217 H   0  0  0  0  0  0  0  0  0  0  0  0
    3.5078    3.1226   -1.3266 C   0  0  0  0  0  0  0  0  0  0  0  0
    3.9958    3.1159    1.1520 C   0  0  0  0  0  0  0  0  0  0  0  0
    3.0354    2.6394    0.0515 C   0  0  2  0  0  0  0  0  0  0  0  0
    1.0216    2.5171    1.5256 C   0  0  0  0  0  0  0  0  0  0  0  0
    4.0450    4.0698   -1.2866 H   0  0  0  0  0  0  0  0  0  0  0  0
    2.6679    3.2245   -2.0164 H   0  0  0  0  0  0  0  0  0  0  0  0
    3.4721    3.1948    2.1066 H   0  0  0  0  0  0  0  0  0  0  0  0
    4.4686    4.0704    0.9229 H   0  0  0  0  0  0  0  0  0  0  0  0
    1.6386    3.2206    0.3556 C   0  0  0  0  0  0  0  0  0  0  0  0
    0.5934    3.1034    2.3217 H   0  0  0  0  0  0  0  0  0  0  0  0
    1.7245    4.2925    0.5325 H   0  0  0  0  0  0  0  0  0  0  0  0
    0.9952    3.0754   -0.5180 H   0  0  0  0  0  0  0  0  0  0  0  0
  1  2  1  0  0  0  0
  1  5  1  0  0  0  0
  3  1  1  0  0  0  0
  4  7  1  1  0  0  0
  4 18  1  0  0  0  0
  4  1  1  0  0  0  0
  5  8  1  6  0  0  0
  6  7  1  6  0  0  0
  6  9  1  0  0  0  0
  6  8  1  0  0  0  0
  7 11  1  0  0  0  0
  8 13  1  0  0  0  0
  9 15  1  0  0  0  0
  9 10  1  0  0  0  0
 10 17  1  0  0  0  0
 12  7  1  0  0  0  0
 14  8  1  0  0  0  0
 16  9  1  0  0  0  0
 18 22  1  0  0  0  0
 19  5  1  0  0  0  0
 19 24  1  0  0  0  0
 20 18  1  6  0  0  0
 20  6  1  0  0  0  0
 20 26  1  0  0  0  0
 20 19  1  0  0  0  0
 21 10  2  0  0  0  0
 21 27  1  0  0  0  0
 23 18  1  0  0  0  0
 25 19  1  0  0  0  0
 26 28  1  0  0  0  0
 26 21  1  0  0  0  0
 29 26  1  0  0  0  0
M  END
$$$$
