CSD_code = FAJVUI | q = 0 | S = 0 | Stoichiometry = C30H26BrMnO3P2 | MND = 6
 OpenBabel04212202033D

 63 67  0  0  0  0  0  0  0  0999 V2000
    3.6776    2.3313    3.0116 Mn  0  0  0  0  0  0  0  0  0  0  0  0
    5.5241    1.3830    1.6815 Br  0  0  0  0  0  0  0  0  0  0  0  0
    2.8278    2.6709    0.9139 P   0  0  0  0  0  4  0  0  0  0  0  0
    2.7671    0.2215    2.9607 P   0  0  0  0  0  4  0  0  0  0  0  0
    4.8309    1.9754    5.6752 O   0  0  0  0  0  1  0  0  0  0  0  0
    1.6149    3.7533    4.4978 O   0  0  0  0  0  1  0  0  0  0  0  0
    5.0819    4.8985    3.0360 O   0  0  0  0  0  1  0  0  0  0  0  0
    4.4173    2.0493    4.6036 C   0  0  0  0  0  2  0  0  0  0  0  0
    2.3672    3.1442    3.8716 C   0  0  0  0  0  2  0  0  0  0  0  0
    4.5292    3.8937    2.9853 C   0  0  0  0  0  2  0  0  0  0  0  0
    2.6214   -0.6551    1.3442 C   0  0  0  0  0  0  0  0  0  0  0  0
    3.6483   -0.9171    1.0581 H   0  0  0  0  0  0  0  0  0  0  0  0
    2.0852   -1.5899    1.5477 H   0  0  0  0  0  0  0  0  0  0  0  0
    1.9487    0.1203    0.2108 C   0  0  0  0  0  0  0  0  0  0  0  0
    0.9761    0.5089    0.5321 H   0  0  0  0  0  0  0  0  0  0  0  0
    1.7711   -0.5724   -0.6180 H   0  0  0  0  0  0  0  0  0  0  0  0
    2.8050    1.2783   -0.2940 C   0  0  0  0  0  0  0  0  0  0  0  0
    2.3845    1.6859   -1.2217 H   0  0  0  0  0  0  0  0  0  0  0  0
    3.8257    0.9361   -0.4839 H   0  0  0  0  0  0  0  0  0  0  0  0
    1.0944    3.2053    0.6879 C   0  0  0  0  0  0  0  0  0  0  0  0
    0.1392    2.8629    1.6365 C   0  0  0  0  0  0  0  0  0  0  0  0
    0.4373    2.3362    2.5345 H   0  0  0  0  0  0  0  0  0  0  0  0
   -1.1914    3.1893    1.4431 C   0  0  0  0  0  0  0  0  0  0  0  0
   -1.9228    2.9169    2.1899 H   0  0  0  0  0  0  0  0  0  0  0  0
   -1.5757    3.8647    0.2979 C   0  0  0  0  0  0  0  0  0  0  0  0
   -2.6122    4.1270    0.1466 H   0  0  0  0  0  0  0  0  0  0  0  0
   -0.6286    4.2056   -0.6558 C   0  0  0  0  0  0  0  0  0  0  0  0
   -0.9280    4.7313   -1.5507 H   0  0  0  0  0  0  0  0  0  0  0  0
    0.6995    3.8741   -0.4682 C   0  0  0  0  0  0  0  0  0  0  0  0
    1.4361    4.1422   -1.2139 H   0  0  0  0  0  0  0  0  0  0  0  0
    3.7221    3.9838    0.0367 C   0  0  0  0  0  0  0  0  0  0  0  0
    4.7275    3.7418   -0.8913 C   0  0  0  0  0  0  0  0  0  0  0  0
    4.9968    2.7320   -1.1627 H   0  0  0  0  0  0  0  0  0  0  0  0
    5.4128    4.8076   -1.4497 C   0  0  0  0  0  0  0  0  0  0  0  0
    6.1972    4.6171   -2.1669 H   0  0  0  0  0  0  0  0  0  0  0  0
    5.1068    6.1068   -1.0839 C   0  0  0  0  0  0  0  0  0  0  0  0
    5.6493    6.9327   -1.5194 H   0  0  0  0  0  0  0  0  0  0  0  0
    4.1138    6.3501   -0.1468 C   0  0  0  0  0  0  0  0  0  0  0  0
    3.8825    7.3623    0.1504 H   0  0  0  0  0  0  0  0  0  0  0  0
    3.4280    5.2934    0.4170 C   0  0  0  0  0  0  0  0  0  0  0  0
    2.6579    5.4701    1.1608 H   0  0  0  0  0  0  0  0  0  0  0  0
    3.5871   -1.1166    3.8976 C   0  0  0  0  0  0  0  0  0  0  0  0
    4.9322   -1.0513    4.2396 C   0  0  0  0  0  0  0  0  0  0  0  0
    5.5315   -0.1970    3.9606 H   0  0  0  0  0  0  0  0  0  0  0  0
    5.5250   -2.0928    4.9323 C   0  0  0  0  0  0  0  0  0  0  0  0
    6.5709   -2.0308    5.1919 H   0  0  0  0  0  0  0  0  0  0  0  0
    4.7824   -3.2042    5.2890 C   0  0  0  0  0  0  0  0  0  0  0  0
    5.2447   -4.0142    5.8332 H   0  0  0  0  0  0  0  0  0  0  0  0
    3.4411   -3.2769    4.9465 C   0  0  0  0  0  0  0  0  0  0  0  0
    2.8566   -4.1424    5.2229 H   0  0  0  0  0  0  0  0  0  0  0  0
    2.8446   -2.2418    4.2538 C   0  0  0  0  0  0  0  0  0  0  0  0
    1.7945   -2.3013    4.0002 H   0  0  0  0  0  0  0  0  0  0  0  0
    1.1089    0.1173    3.7157 C   0  0  0  0  0  0  0  0  0  0  0  0
    1.0402    0.5645    5.0348 C   0  0  0  0  0  0  0  0  0  0  0  0
    1.9465    0.9104    5.5218 H   0  0  0  0  0  0  0  0  0  0  0  0
   -0.1607    0.5624    5.7155 C   0  0  0  0  0  0  0  0  0  0  0  0
   -0.2026    0.9109    6.7365 H   0  0  0  0  0  0  0  0  0  0  0  0
   -1.3112    0.1185    5.0816 C   0  0  0  0  0  0  0  0  0  0  0  0
   -2.2545    0.1243    5.6071 H   0  0  0  0  0  0  0  0  0  0  0  0
   -1.2492   -0.3343    3.7752 C   0  0  0  0  0  0  0  0  0  0  0  0
   -2.1432   -0.6866    3.2811 H   0  0  0  0  0  0  0  0  0  0  0  0
   -0.0452   -0.3399    3.0908 C   0  0  0  0  0  0  0  0  0  0  0  0
   -0.0191   -0.7025    2.0737 H   0  0  0  0  0  0  0  0  0  0  0  0
  1  9  1  0  0  0  0
  1  8  1  0  0  0  0
  2  1  1  0  0  0  0
  3  1  1  0  0  0  0
  4  1  1  0  0  0  0
  4 53  1  0  0  0  0
  4 42  1  0  0  0  0
  8  5  1  0  0  0  0
  9  6  1  0  0  0  0
 10  1  1  0  0  0  0
 10  7  1  0  0  0  0
 11 13  1  0  0  0  0
 11  4  1  0  0  0  0
 12 11  1  0  0  0  0
 14 15  1  0  0  0  0
 14 11  1  0  0  0  0
 16 14  1  0  0  0  0
 17 14  1  0  0  0  0
 17  3  1  0  0  0  0
 18 17  1  0  0  0  0
 19 17  1  0  0  0  0
 20  3  1  0  0  0  0
 20 21  1  0  0  0  0
 21 22  1  0  0  0  0
 23 21  2  0  0  0  0
 23 24  1  0  0  0  0
 25 23  1  0  0  0  0
 26 25  1  0  0  0  0
 27 29  1  0  0  0  0
 27 25  2  0  0  0  0
 28 27  1  0  0  0  0
 29 20  2  0  0  0  0
 30 29  1  0  0  0  0
 31 40  1  0  0  0  0
 31  3  1  0  0  0  0
 32 31  2  0  0  0  0
 33 32  1  0  0  0  0
 34 36  2  0  0  0  0
 34 32  1  0  0  0  0
 35 34  1  0  0  0  0
 36 38  1  0  0  0  0
 37 36  1  0  0  0  0
 38 39  1  0  0  0  0
 38 40  2  0  0  0  0
 40 41  1  0  0  0  0
 42 43  2  0  0  0  0
 42 51  1  0  0  0  0
 43 45  1  0  0  0  0
 44 43  1  0  0  0  0
 45 46  1  0  0  0  0
 45 47  2  0  0  0  0
 47 48  1  0  0  0  0
 49 50  1  0  0  0  0
 49 47  1  0  0  0  0
 51 49  2  0  0  0  0
 52 51  1  0  0  0  0
 53 54  1  0  0  0  0
 54 55  1  0  0  0  0
 54 56  2  0  0  0  0
 56 57  1  0  0  0  0
 58 59  1  0  0  0  0
 58 56  1  0  0  0  0
 60 58  2  0  0  0  0
 61 60  1  0  0  0  0
 62 53  2  0  0  0  0
 62 60  1  0  0  0  0
 63 62  1  0  0  0  0
M  END
$$$$
