CSD_code = FAJWAQ | q = 0 | S = 0 | Stoichiometry = C19H23AuClN3Se | MND = 2
 OpenBabel04212202033D

 48 49  0  0  1  0  0  0  0  0999 V2000
    6.5394   11.0134    4.3339 Au  0  0  0  0  0  0  0  0  0  0  0  0
    8.4309   12.4276    3.9323 Se  0  0  0  0  0  0  0  0  0  0  0  0
    5.0605    9.2690    4.5518 Cl  0  0  0  0  0  0  0  0  0  0  0  0
    9.2272    9.9037    3.0318 N   0  0  0  0  0  2  0  0  0  0  0  0
   10.7690   11.5260    2.6469 N   0  0  0  0  0  0  0  0  0  0  0  0
    9.6045   11.1450    3.1728 C   0  0  1  0  0  3  0  0  0  0  0  0
    8.9101    8.9811    5.2513 C   0  0  0  0  0  0  0  0  0  0  0  0
   10.4167    9.4157    7.0807 C   0  0  0  0  0  0  0  0  0  0  0  0
   11.3641    9.7906    7.4379 H   0  0  0  0  0  0  0  0  0  0  0  0
    7.9801    8.4617    6.1540 C   0  0  0  0  0  0  0  0  0  0  0  0
    7.0004    8.1549    5.8175 H   0  0  0  0  0  0  0  0  0  0  0  0
    9.4910    8.8976    7.9710 C   0  0  0  0  0  0  0  0  0  0  0  0
    9.7135    8.8703    9.0271 H   0  0  0  0  0  0  0  0  0  0  0  0
    8.2744    8.4266    7.5041 C   0  0  0  0  0  0  0  0  0  0  0  0
    7.5421    8.0391    8.1957 H   0  0  0  0  0  0  0  0  0  0  0  0
   11.6204   10.5196    2.0349 C   0  0  0  0  0  0  0  0  0  0  0  0
   11.6368    9.6387    2.6851 H   0  0  0  0  0  0  0  0  0  0  0  0
   12.6316   10.9280    1.9783 H   0  0  0  0  0  0  0  0  0  0  0  0
   10.1283    9.4600    5.7302 C   0  0  0  0  0  0  0  0  0  0  0  0
   10.8572    9.8603    5.0399 H   0  0  0  0  0  0  0  0  0  0  0  0
   11.1665   12.9167    2.5764 C   0  0  0  0  0  0  0  0  0  0  0  0
   12.2584   12.9565    2.5887 H   0  0  0  0  0  0  0  0  0  0  0  0
   10.7937   13.4213    3.4735 H   0  0  0  0  0  0  0  0  0  0  0  0
   10.6237   13.6282    1.3424 C   0  0  0  0  0  0  0  0  0  0  0  0
   11.0174   13.1913    0.4287 H   0  0  0  0  0  0  0  0  0  0  0  0
   10.9037   14.6772    1.3762 H   0  0  0  0  0  0  0  0  0  0  0  0
    9.5379   13.5612    1.3289 H   0  0  0  0  0  0  0  0  0  0  0  0
   11.1487   10.0971    0.6461 C   0  0  0  0  0  0  0  0  0  0  0  0
   11.1369   10.9430   -0.0351 H   0  0  0  0  0  0  0  0  0  0  0  0
   10.1488    9.6768    0.7021 H   0  0  0  0  0  0  0  0  0  0  0  0
   11.8219    9.3414    0.2500 H   0  0  0  0  0  0  0  0  0  0  0  0
    5.8947    6.7193    0.5152 C   0  0  0  0  0  0  0  0  0  0  0  0
    5.3653    5.8044    0.2925 H   0  0  0  0  0  0  0  0  0  0  0  0
    6.5824    8.9183   -0.1004 C   0  0  0  0  0  0  0  0  0  0  0  0
    6.5933    9.7376   -0.8047 H   0  0  0  0  0  0  0  0  0  0  0  0
    5.9105    7.7474   -0.4223 C   0  0  0  0  0  0  0  0  0  0  0  0
    7.2324    9.0669    1.1109 C   0  0  0  0  0  0  0  0  0  0  0  0
    7.7242    9.9972    1.3404 H   0  0  0  0  0  0  0  0  0  0  0  0
    6.5358    6.8560    1.7278 C   0  0  0  0  0  0  0  0  0  0  0  0
    6.4991    6.0548    2.4518 H   0  0  0  0  0  0  0  0  0  0  0  0
    7.2187    8.0310    2.0369 C   0  0  0  0  0  0  0  0  0  0  0  0
    5.1939    7.5945   -1.7278 C   0  0  0  0  0  0  0  0  0  0  0  0
    5.3919    6.6172   -2.1638 H   0  0  0  0  0  0  0  0  0  0  0  0
    5.4974    8.3643   -2.4326 H   0  0  0  0  0  0  0  0  0  0  0  0
    4.1182    7.6778   -1.5726 H   0  0  0  0  0  0  0  0  0  0  0  0
    7.8316    8.1002    3.2923 N   0  0  0  0  0  0  0  0  0  0  0  0
    7.4829    7.4159    3.9525 H   0  0  0  0  0  0  0  0  0  0  0  0
    8.6031    9.0622    3.8069 C   0  0  2  0  0  3  0  0  0  0  0  0
  1  3  1  0  0  0  0
  2  1  1  0  0  0  0
  5  6  1  0  0  0  0
  6  4  1  6  0  0  0
  6  2  1  0  0  0  0
  7 19  2  0  0  0  0
  7 10  1  0  0  0  0
  8  9  1  0  0  0  0
  8 12  2  0  0  0  0
 10 14  2  0  0  0  0
 11 10  1  0  0  0  0
 12 13  1  0  0  0  0
 14 12  1  0  0  0  0
 14 15  1  0  0  0  0
 16  5  1  0  0  0  0
 16 17  1  0  0  0  0
 18 16  1  0  0  0  0
 19  8  1  0  0  0  0
 20 19  1  0  0  0  0
 21 22  1  0  0  0  0
 21  5  1  0  0  0  0
 21 23  1  0  0  0  0
 24 26  1  0  0  0  0
 24 21  1  0  0  0  0
 25 24  1  0  0  0  0
 27 24  1  0  0  0  0
 28 30  1  0  0  0  0
 28 16  1  0  0  0  0
 29 28  1  0  0  0  0
 31 28  1  0  0  0  0
 32 39  1  0  0  0  0
 33 32  1  0  0  0  0
 34 37  2  0  0  0  0
 35 34  1  0  0  0  0
 36 34  1  0  0  0  0
 36 32  2  0  0  0  0
 37 38  1  0  0  0  0
 37 41  1  0  0  0  0
 39 41  2  0  0  0  0
 39 40  1  0  0  0  0
 41 46  1  0  0  0  0
 42 45  1  0  0  0  0
 42 36  1  0  0  0  0
 43 42  1  0  0  0  0
 44 42  1  0  0  0  0
 46 48  1  0  0  0  0
 46 47  1  0  0  0  0
 48  4  1  6  0  0  0
 48  7  1  0  0  0  0
M  END
$$$$
