CSD_code = FAKWOE | q = 0 | S = 0 | Stoichiometry = C25H27Cl2N2PPd | MND = 4
 OpenBabel04212202033D

 58 61  0  0  0  0  0  0  0  0999 V2000
    4.2693   -0.3464    2.3720 Pd  0  0  0  0  0  0  0  0  0  0  0  0
    6.3719   -0.9817    3.0361 Cl  0  0  0  0  0  0  0  0  0  0  0  0
    4.4683   -1.2068    0.2846 Cl  0  0  0  0  0  0  0  0  0  0  0  0
    4.2478    0.6896    4.3407 P   0  0  0  0  0  4  0  0  0  0  0  0
    2.0462    1.2181    1.2115 N   0  0  0  0  0  0  0  0  0  0  0  0
    0.6845    1.2923    1.1410 N   0  0  0  0  0  0  0  0  0  0  0  0
    2.4222    0.1370    1.8921 C   0  0  0  0  0  0  0  0  0  0  0  0
    0.1796    0.2147    1.7940 C   0  0  0  0  0  0  0  0  0  0  0  0
    1.2386   -0.5295    2.2701 C   0  0  0  0  0  0  0  0  0  0  0  0
    2.9138    2.1455    0.5464 C   0  0  0  0  0  0  0  0  0  0  0  0
    0.0022    2.3793    0.5081 C   0  0  0  0  0  0  0  0  0  0  0  0
   -1.2808   -0.0203    1.9237 C   0  0  0  0  0  0  0  0  0  0  0  0
    1.2384   -1.8249    3.0120 C   0  0  0  0  0  0  0  0  0  0  0  0
    2.8308    1.8263    4.5186 C   0  0  0  0  0  0  0  0  0  0  0  0
    2.8874    3.1263    4.0254 C   0  0  0  0  0  0  0  0  0  0  0  0
    1.7415    3.8988    3.9585 C   0  0  0  0  0  0  0  0  0  0  0  0
    0.5254    3.3797    4.3726 C   0  0  0  0  0  0  0  0  0  0  0  0
    0.4616    2.0865    4.8676 C   0  0  0  0  0  0  0  0  0  0  0  0
    1.6046    1.3137    4.9352 C   0  0  0  0  0  0  0  0  0  0  0  0
    5.6795    1.8006    4.4639 C   0  0  0  0  0  0  0  0  0  0  0  0
    6.1887    2.2616    3.2503 C   0  0  0  0  0  0  0  0  0  0  0  0
    7.2691    3.1215    3.2325 C   0  0  0  0  0  0  0  0  0  0  0  0
    7.8531    3.5191    4.4261 C   0  0  0  0  0  0  0  0  0  0  0  0
    7.3598    3.0497    5.6313 C   0  0  0  0  0  0  0  0  0  0  0  0
    6.2726    2.1921    5.6560 C   0  0  0  0  0  0  0  0  0  0  0  0
    4.1696   -0.3058    5.8501 C   0  0  0  0  0  0  0  0  0  0  0  0
    3.8740    0.2410    7.0964 C   0  0  0  0  0  0  0  0  0  0  0  0
    3.8183   -0.5798    8.2078 C   0  0  0  0  0  0  0  0  0  0  0  0
    4.0441   -1.9419    8.0802 C   0  0  0  0  0  0  0  0  0  0  0  0
    4.3123   -2.4913    6.8368 C   0  0  0  0  0  0  0  0  0  0  0  0
    4.3714   -1.6765    5.7205 C   0  0  0  0  0  0  0  0  0  0  0  0
    2.9141    3.1181    1.0455 H   0  0  0  0  0  0  0  0  0  0  0  0
    2.6243    2.2660   -0.4985 H   0  0  0  0  0  0  0  0  0  0  0  0
    3.9222    1.7068    0.5781 H   0  0  0  0  0  0  0  0  0  0  0  0
    0.1732    2.3752   -0.5718 H   0  0  0  0  0  0  0  0  0  0  0  0
    0.3446    3.3318    0.9192 H   0  0  0  0  0  0  0  0  0  0  0  0
   -1.0645    2.2827    0.6917 H   0  0  0  0  0  0  0  0  0  0  0  0
   -1.7545   -0.0948    0.9453 H   0  0  0  0  0  0  0  0  0  0  0  0
   -1.7559    0.7885    2.4795 H   0  0  0  0  0  0  0  0  0  0  0  0
   -1.4461   -0.9502    2.4590 H   0  0  0  0  0  0  0  0  0  0  0  0
    2.2848   -2.1345    3.1526 H   0  0  0  0  0  0  0  0  0  0  0  0
    0.7227   -2.5984    2.4448 H   0  0  0  0  0  0  0  0  0  0  0  0
    0.7589   -1.7326    3.9862 H   0  0  0  0  0  0  0  0  0  0  0  0
    3.8367    3.5312    3.6995 H   0  0  0  0  0  0  0  0  0  0  0  0
    1.7958    4.9108    3.5816 H   0  0  0  0  0  0  0  0  0  0  0  0
   -0.3689    3.9831    4.3145 H   0  0  0  0  0  0  0  0  0  0  0  0
   -0.4836    1.6804    5.1981 H   0  0  0  0  0  0  0  0  0  0  0  0
    1.5596    0.3023    5.3151 H   0  0  0  0  0  0  0  0  0  0  0  0
    5.7493    1.8968    2.3158 H   0  0  0  0  0  0  0  0  0  0  0  0
    7.6688    3.4705    2.2917 H   0  0  0  0  0  0  0  0  0  0  0  0
    8.7051    4.1827    4.4140 H   0  0  0  0  0  0  0  0  0  0  0  0
    7.8286    3.3455    6.5586 H   0  0  0  0  0  0  0  0  0  0  0  0
    5.9041    1.8124    6.5976 H   0  0  0  0  0  0  0  0  0  0  0  0
    3.6723    1.3003    7.1877 H   0  0  0  0  0  0  0  0  0  0  0  0
    3.5960   -0.1574    9.1773 H   0  0  0  0  0  0  0  0  0  0  0  0
    4.0030   -2.5762    8.9536 H   0  0  0  0  0  0  0  0  0  0  0  0
    4.4754   -3.5543    6.7390 H   0  0  0  0  0  0  0  0  0  0  0  0
    4.5873   -2.0866    4.7358 H   0  0  0  0  0  0  0  0  0  0  0  0
  1  2  1  0  0  0  0
  1  4  1  0  0  0  0
  3  1  1  0  0  0  0
  4 20  1  0  0  0  0
  4 14  1  0  0  0  0
  4 26  1  0  0  0  0
  5  7  1  0  0  0  0
  6  5  1  0  0  0  0
  6  8  1  0  0  0  0
  7  9  1  0  0  0  0
  7  1  2  0  0  0  0
  8 12  1  0  0  0  0
  8  9  2  0  0  0  0
  9 13  1  0  0  0  0
 10 34  1  0  0  0  0
 10 32  1  0  0  0  0
 10  5  1  0  0  0  0
 11 37  1  0  0  0  0
 11 36  1  0  0  0  0
 11  6  1  0  0  0  0
 12 40  1  0  0  0  0
 12 39  1  0  0  0  0
 13 41  1  0  0  0  0
 13 43  1  0  0  0  0
 14 19  1  0  0  0  0
 15 14  2  0  0  0  0
 16 15  1  0  0  0  0
 16 17  2  0  0  0  0
 17 18  1  0  0  0  0
 18 19  2  0  0  0  0
 18 47  1  0  0  0  0
 19 48  1  0  0  0  0
 20 25  1  0  0  0  0
 21 20  2  0  0  0  0
 22 21  1  0  0  0  0
 22 23  2  0  0  0  0
 23 24  1  0  0  0  0
 24 25  2  0  0  0  0
 24 52  1  0  0  0  0
 25 53  1  0  0  0  0
 26 27  1  0  0  0  0
 27 54  1  0  0  0  0
 27 28  2  0  0  0  0
 28 55  1  0  0  0  0
 29 28  1  0  0  0  0
 29 56  1  0  0  0  0
 30 29  2  0  0  0  0
 31 26  2  0  0  0  0
 31 30  1  0  0  0  0
 33 10  1  0  0  0  0
 35 11  1  0  0  0  0
 38 12  1  0  0  0  0
 42 13  1  0  0  0  0
 44 15  1  0  0  0  0
 45 16  1  0  0  0  0
 46 17  1  0  0  0  0
 49 21  1  0  0  0  0
 50 22  1  0  0  0  0
 51 23  1  0  0  0  0
 57 30  1  0  0  0  0
 58 31  1  0  0  0  0
M  END
$$$$
