CSD_code = FALFUV | q = 0 | S = 0 | Stoichiometry = C21H35BrNiOP2S2 | MND = 4
 OpenBabel04212202033D

 63 64  0  0  0  0  0  0  0  0999 V2000
   -1.2967    0.5465    6.8218 Br  0  0  0  0  0  0  0  0  0  0  0  0
    0.0537    1.1875    5.1617 Ni  0  0  0  0  0  0  0  0  0  0  0  0
    0.7972    2.6374    2.4214 S   0  0  0  0  0  0  0  0  0  0  0  0
    4.3901    3.4382    0.0407 S   0  0  0  0  0  0  0  0  0  0  0  0
    0.3117    3.1116    6.1573 P   0  0  0  0  0  4  0  0  0  0  0  0
   -0.1515   -0.6850    4.0571 P   0  0  0  0  0  4  0  0  0  0  0  0
    6.0254    4.5368   -2.3375 O   0  0  0  0  0  0  0  0  0  0  0  0
    1.2582    1.7309    3.8364 C   0  0  0  0  0  0  0  0  0  0  0  0
    2.6168    1.5258    3.8296 C   0  0  0  0  0  0  0  0  0  0  0  0
    3.1422    1.0031    4.6141 H   0  0  0  0  0  0  0  0  0  0  0  0
    3.2807    2.0651    2.7169 C   0  0  0  0  0  0  0  0  0  0  0  0
    4.3421    1.9886    2.5545 H   0  0  0  0  0  0  0  0  0  0  0  0
    2.4429    2.7088    1.8398 C   0  0  0  0  0  0  0  0  0  0  0  0
    2.7569    3.3604    0.6199 C   0  0  0  0  0  0  0  0  0  0  0  0
    1.8837    3.9919   -0.2480 C   0  0  0  0  0  0  0  0  0  0  0  0
    0.8250    4.0491   -0.0640 H   0  0  0  0  0  0  0  0  0  0  0  0
    2.5180    4.5302   -1.3623 C   0  0  0  0  0  0  0  0  0  0  0  0
    2.0069    5.0582   -2.1482 H   0  0  0  0  0  0  0  0  0  0  0  0
    3.8827    4.3231   -1.3708 C   0  0  0  0  0  0  0  0  0  0  0  0
    4.8322    4.7389   -2.3621 C   0  0  0  0  0  0  0  0  0  0  0  0
    4.3595    5.2919   -3.2008 H   0  0  0  0  0  0  0  0  0  0  0  0
   -1.3371    3.9282    6.0419 C   0  0  0  0  0  0  0  0  0  0  0  0
   -1.9612    3.5178    6.8406 H   0  0  0  0  0  0  0  0  0  0  0  0
   -1.2380    5.0059    6.1904 H   0  0  0  0  0  0  0  0  0  0  0  0
   -1.9586    3.6131    4.6842 C   0  0  0  0  0  0  0  0  0  0  0  0
   -2.9929    3.9472    4.6383 H   0  0  0  0  0  0  0  0  0  0  0  0
   -1.9451    2.5258    4.5145 H   0  0  0  0  0  0  0  0  0  0  0  0
   -1.4034    4.0872    3.8761 H   0  0  0  0  0  0  0  0  0  0  0  0
    0.6677    3.1482    7.9625 C   0  0  0  0  0  0  0  0  0  0  0  0
    0.6413    4.1861    8.3020 H   0  0  0  0  0  0  0  0  0  0  0  0
   -0.1326    2.5984    8.4638 H   0  0  0  0  0  0  0  0  0  0  0  0
    2.0102    2.4938    8.2650 C   0  0  0  0  0  0  0  0  0  0  0  0
    2.2041    2.4946    9.3353 H   0  0  0  0  0  0  0  0  0  0  0  0
    2.8263    3.0131    7.7650 H   0  0  0  0  0  0  0  0  0  0  0  0
    2.0012    1.4586    7.9237 H   0  0  0  0  0  0  0  0  0  0  0  0
    1.4626    4.3791    5.4549 C   0  0  0  0  0  0  0  0  0  0  0  0
    2.4328    3.8963    5.3058 H   0  0  0  0  0  0  0  0  0  0  0  0
    1.0709    4.6195    4.4618 H   0  0  0  0  0  0  0  0  0  0  0  0
    1.6394    5.6573    6.2627 C   0  0  0  0  0  0  0  0  0  0  0  0
    2.2079    6.3784    5.6778 H   0  0  0  0  0  0  0  0  0  0  0  0
    2.1858    5.4719    7.1841 H   0  0  0  0  0  0  0  0  0  0  0  0
    0.6820    6.1101    6.5124 H   0  0  0  0  0  0  0  0  0  0  0  0
   -1.5520   -1.8090    4.4990 C   0  0  0  0  0  0  0  0  0  0  0  0
   -1.4077   -2.0671    5.5519 H   0  0  0  0  0  0  0  0  0  0  0  0
   -2.4698   -1.2153    4.4509 H   0  0  0  0  0  0  0  0  0  0  0  0
   -1.6969   -3.0741    3.6649 C   0  0  0  0  0  0  0  0  0  0  0  0
   -2.4690   -3.7015    4.1059 H   0  0  0  0  0  0  0  0  0  0  0  0
   -0.7739   -3.6496    3.6423 H   0  0  0  0  0  0  0  0  0  0  0  0
   -1.9918   -2.8532    2.6422 H   0  0  0  0  0  0  0  0  0  0  0  0
   -0.1351   -0.7263    2.2164 C   0  0  0  0  0  0  0  0  0  0  0  0
    0.7700   -0.2125    1.8824 H   0  0  0  0  0  0  0  0  0  0  0  0
   -0.0669   -1.7668    1.8899 H   0  0  0  0  0  0  0  0  0  0  0  0
   -1.3669   -0.0427    1.6364 C   0  0  0  0  0  0  0  0  0  0  0  0
   -1.3105   -0.0083    0.5502 H   0  0  0  0  0  0  0  0  0  0  0  0
   -1.4380    0.9799    2.0061 H   0  0  0  0  0  0  0  0  0  0  0  0
   -2.2767   -0.5690    1.9175 H   0  0  0  0  0  0  0  0  0  0  0  0
    1.3426   -1.6818    4.4736 C   0  0  0  0  0  0  0  0  0  0  0  0
    1.1725   -2.7341    4.2355 H   0  0  0  0  0  0  0  0  0  0  0  0
    2.1627   -1.3148    3.8503 H   0  0  0  0  0  0  0  0  0  0  0  0
    1.6778   -1.5001    5.9507 C   0  0  0  0  0  0  0  0  0  0  0  0
    2.6404   -1.9446    6.1964 H   0  0  0  0  0  0  0  0  0  0  0  0
    0.9152   -1.9515    6.5833 H   0  0  0  0  0  0  0  0  0  0  0  0
    1.7202   -0.4278    6.1878 H   0  0  0  0  0  0  0  0  0  0  0  0
  2  5  1  0  0  0  0
  2  1  1  0  0  0  0
  3  8  1  0  0  0  0
  4 14  1  0  0  0  0
  5 29  1  0  0  0  0
  6 57  1  0  0  0  0
  6 43  1  0  0  0  0
  6  2  1  0  0  0  0
  8  2  1  0  0  0  0
  9  8  2  0  0  0  0
  9 10  1  0  0  0  0
 11  9  1  0  0  0  0
 12 11  1  0  0  0  0
 13  3  1  0  0  0  0
 13 11  2  0  0  0  0
 14 13  1  0  0  0  0
 15 16  1  0  0  0  0
 15 14  2  0  0  0  0
 17 15  1  0  0  0  0
 18 17  1  0  0  0  0
 19 17  2  0  0  0  0
 19  4  1  0  0  0  0
 20  7  2  0  0  0  0
 20 19  1  0  0  0  0
 21 20  1  0  0  0  0
 22  5  1  0  0  0  0
 22 24  1  0  0  0  0
 22 23  1  0  0  0  0
 25 22  1  0  0  0  0
 26 25  1  0  0  0  0
 27 25  1  0  0  0  0
 28 25  1  0  0  0  0
 29 32  1  0  0  0  0
 29 30  1  0  0  0  0
 29 31  1  0  0  0  0
 32 33  1  0  0  0  0
 34 32  1  0  0  0  0
 35 32  1  0  0  0  0
 36  5  1  0  0  0  0
 36 39  1  0  0  0  0
 37 36  1  0  0  0  0
 38 36  1  0  0  0  0
 39 42  1  0  0  0  0
 39 41  1  0  0  0  0
 40 39  1  0  0  0  0
 43 44  1  0  0  0  0
 45 43  1  0  0  0  0
 46 47  1  0  0  0  0
 46 43  1  0  0  0  0
 48 46  1  0  0  0  0
 49 46  1  0  0  0  0
 50  6  1  0  0  0  0
 51 50  1  0  0  0  0
 52 50  1  0  0  0  0
 53 56  1  0  0  0  0
 53 55  1  0  0  0  0
 53 50  1  0  0  0  0
 54 53  1  0  0  0  0
 57 60  1  0  0  0  0
 58 57  1  0  0  0  0
 59 57  1  0  0  0  0
 60 63  1  0  0  0  0
 60 61  1  0  0  0  0
 60 62  1  0  0  0  0
M  END
$$$$
