CSD_code = FALFAA | q = 0 | S = 0 | Stoichiometry = C32H28Cl2N2O2Zr | MND = 6
 OpenBabel04212202033D

 67 72  0  0  0  0  0  0  0  0999 V2000
   20.3457    8.5775   10.8000 Zr  0  0  0  0  0  0  0  0  0  0  0  0
   19.4498   10.4659   11.8653 Cl  0  0  0  0  0  0  0  0  0  0  0  0
   21.4917    9.7778    9.1419 Cl  0  0  0  0  0  0  0  0  0  0  0  0
   21.9235    8.5199   11.9165 O   0  0  0  0  0  0  0  0  0  0  0  0
   18.7758    8.3691    9.7171 O   0  0  0  0  0  0  0  0  0  0  0  0
   21.1934    6.6280   10.1428 N   0  0  0  0  0  0  0  0  0  0  0  0
   19.1601    7.1730   12.0699 N   0  0  0  0  0  0  0  0  0  0  0  0
   22.8108    7.6763   12.3364 C   0  0  0  0  0  0  0  0  0  0  0  0
   22.9007    6.3472   11.8191 C   0  0  0  0  0  0  0  0  0  0  0  0
   23.8552    5.4593   12.3561 C   0  0  0  0  0  0  0  0  0  0  0  0
   23.9081    4.4561   11.9573 H   0  0  0  0  0  0  0  0  0  0  0  0
   24.7027    5.8535   13.3549 C   0  0  0  0  0  0  0  0  0  0  0  0
   25.4289    5.1665   13.7606 H   0  0  0  0  0  0  0  0  0  0  0  0
   24.6389    7.1629   13.8417 C   0  0  0  0  0  0  0  0  0  0  0  0
   25.3254    7.4764   14.6149 H   0  0  0  0  0  0  0  0  0  0  0  0
   23.7243    8.0660   13.3564 C   0  0  0  0  0  0  0  0  0  0  0  0
   23.6546    9.4860   13.8521 C   0  0  0  0  0  0  0  0  0  0  0  0
   24.2772   10.1174   13.2107 H   0  0  0  0  0  0  0  0  0  0  0  0
   22.6199    9.8330   13.7355 H   0  0  0  0  0  0  0  0  0  0  0  0
   24.0832    9.6283   15.2765 C   0  0  0  0  0  0  0  0  0  0  0  0
   23.5737    8.9786   15.9767 H   0  0  0  0  0  0  0  0  0  0  0  0
   25.0072   10.4702   15.6999 C   0  0  0  0  0  0  0  0  0  0  0  0
   25.5304   11.1245   15.0220 H   0  0  0  0  0  0  0  0  0  0  0  0
   25.2752   10.5507   16.7398 H   0  0  0  0  0  0  0  0  0  0  0  0
   22.0719    5.9017   10.7522 C   0  0  0  0  0  3  0  0  0  0  0  0
   22.2407    4.8718   10.4112 H   0  0  0  0  0  0  0  0  0  0  0  0
   20.3997    6.0777    9.1248 C   0  0  0  0  0  0  0  0  0  0  0  0
   20.2606    6.7826    7.9247 C   0  0  0  0  0  0  0  0  0  0  0  0
   20.8231    7.7006    7.7849 H   0  0  0  0  0  0  0  0  0  0  0  0
   19.4218    6.2935    6.9408 C   0  0  0  0  0  0  0  0  0  0  0  0
   19.3197    6.8319    6.0106 H   0  0  0  0  0  0  0  0  0  0  0  0
   18.7077    5.1206    7.1399 C   0  0  0  0  0  0  0  0  0  0  0  0
   18.0408    4.7565    6.3739 H   0  0  0  0  0  0  0  0  0  0  0  0
   18.8518    4.4176    8.3225 C   0  0  0  0  0  0  0  0  0  0  0  0
   18.2992    3.5041    8.4820 H   0  0  0  0  0  0  0  0  0  0  0  0
   19.7021    4.8842    9.3100 C   0  0  0  0  0  0  0  0  0  0  0  0
   19.8042    4.3442   10.2422 H   0  0  0  0  0  0  0  0  0  0  0  0
   17.6793    7.6903    9.6306 C   0  0  0  0  0  0  0  0  0  0  0  0
   17.3385    6.6794   10.5787 C   0  0  0  0  0  0  0  0  0  0  0  0
   16.1696    5.9171   10.3788 C   0  0  0  0  0  0  0  0  0  0  0  0
   15.9251    5.1469   11.0965 H   0  0  0  0  0  0  0  0  0  0  0  0
   15.3513    6.1518    9.3075 C   0  0  0  0  0  0  0  0  0  0  0  0
   14.4598    5.5620    9.1613 H   0  0  0  0  0  0  0  0  0  0  0  0
   15.6578    7.1781    8.4062 C   0  0  0  0  0  0  0  0  0  0  0  0
   14.9889    7.3713    7.5800 H   0  0  0  0  0  0  0  0  0  0  0  0
   16.7896    7.9416    8.5495 C   0  0  0  0  0  0  0  0  0  0  0  0
   17.1392    9.0749    7.6227 C   0  0  0  0  0  0  0  0  0  0  0  0
   18.1692    8.9371    7.2780 H   0  0  0  0  0  0  0  0  0  0  0  0
   16.4623    9.0827    6.7671 H   0  0  0  0  0  0  0  0  0  0  0  0
   17.0686   10.3845    8.3598 C   0  0  0  0  0  0  0  0  0  0  0  0
   17.8095   10.5119    9.1430 H   0  0  0  0  0  0  0  0  0  0  0  0
   16.1791   11.3242    8.1064 C   0  0  0  0  0  0  0  0  0  0  0  0
   15.4378   11.2140    7.3303 H   0  0  0  0  0  0  0  0  0  0  0  0
   16.1587   12.2488    8.6568 H   0  0  0  0  0  0  0  0  0  0  0  0
   18.1248    6.4694   11.7452 C   0  0  0  0  0  3  0  0  0  0  0  0
   17.7734    5.6882   12.4317 H   0  0  0  0  0  0  0  0  0  0  0  0
   19.8658    6.8967   13.2512 C   0  0  0  0  0  0  0  0  0  0  0  0
   20.3234    5.6137   13.5500 C   0  0  0  0  0  0  0  0  0  0  0  0
   20.1032    4.7968   12.8754 H   0  0  0  0  0  0  0  0  0  0  0  0
   21.0875    5.3975   14.6836 C   0  0  0  0  0  0  0  0  0  0  0  0
   21.4566    4.4058   14.8972 H   0  0  0  0  0  0  0  0  0  0  0  0
   21.3771    6.4462   15.5383 C   0  0  0  0  0  0  0  0  0  0  0  0
   21.9733    6.2722   16.4208 H   0  0  0  0  0  0  0  0  0  0  0  0
   20.8972    7.7178   15.2602 C   0  0  0  0  0  0  0  0  0  0  0  0
   21.1031    8.5337   15.9363 H   0  0  0  0  0  0  0  0  0  0  0  0
   20.1536    7.9545   14.1195 C   0  0  0  0  0  0  0  0  0  0  0  0
   19.7705    8.9442   13.8911 H   0  0  0  0  0  0  0  0  0  0  0  0
  1  2  1  0  0  0  0
  1  4  1  0  0  0  0
  1  7  1  0  0  0  0
  3  1  1  0  0  0  0
  4  8  1  0  0  0  0
  5  1  1  0  0  0  0
  6 25  1  0  0  0  0
  6  1  1  0  0  0  0
  7 57  1  0  0  0  0
  8 16  1  0  0  0  0
  9  8  2  0  0  0  0
  9 10  1  0  0  0  0
 10 12  2  0  0  0  0
 11 10  1  0  0  0  0
 12 13  1  0  0  0  0
 12 14  1  0  0  0  0
 14 15  1  0  0  0  0
 16 14  2  0  0  0  0
 16 17  1  0  0  0  0
 17 20  1  0  0  0  0
 18 17  1  0  0  0  0
 19 17  1  0  0  0  0
 20 22  2  0  0  0  0
 20 21  1  0  0  0  0
 22 24  1  0  0  0  0
 23 22  1  0  0  0  0
 25  9  1  0  0  0  0
 26 25  1  0  0  0  0
 27 36  1  0  0  0  0
 27  6  1  0  0  0  0
 28 27  2  0  0  0  0
 29 28  1  0  0  0  0
 30 32  2  0  0  0  0
 30 28  1  0  0  0  0
 31 30  1  0  0  0  0
 32 34  1  0  0  0  0
 33 32  1  0  0  0  0
 34 35  1  0  0  0  0
 34 36  2  0  0  0  0
 36 37  1  0  0  0  0
 38  5  1  0  0  0  0
 38 39  1  0  0  0  0
 39 55  1  0  0  0  0
 40 39  2  0  0  0  0
 40 41  1  0  0  0  0
 42 40  1  0  0  0  0
 43 42  1  0  0  0  0
 44 46  1  0  0  0  0
 44 42  2  0  0  0  0
 45 44  1  0  0  0  0
 46 38  2  0  0  0  0
 47 50  1  0  0  0  0
 47 46  1  0  0  0  0
 48 47  1  0  0  0  0
 49 47  1  0  0  0  0
 50 51  1  0  0  0  0
 52 50  2  0  0  0  0
 52 54  1  0  0  0  0
 53 52  1  0  0  0  0
 55  7  1  0  0  0  0
 55 56  1  0  0  0  0
 57 58  2  0  0  0  0
 57 66  1  0  0  0  0
 58 60  1  0  0  0  0
 59 58  1  0  0  0  0
 60 61  1  0  0  0  0
 60 62  2  0  0  0  0
 62 63  1  0  0  0  0
 64 62  1  0  0  0  0
 64 65  1  0  0  0  0
 66 64  2  0  0  0  0
 67 66  1  0  0  0  0
M  END
$$$$
