CSD_code = FAMRIW | q = 0 | S = 0 | Stoichiometry = C14H12Cl2N4Pt | MND = 4
 OpenBabel04212202033D

 33 36  0  0  0  0  0  0  0  0999 V2000
    5.5470    5.8802   13.0912 Pt  0  0  0  0  0  0  0  0  0  0  0  0
    4.3951    7.5963   12.1681 Cl  0  0  0  0  0  0  0  0  0  0  0  0
    6.4058    7.2782   14.6481 Cl  0  0  0  0  0  0  0  0  0  0  0  0
    5.6759    6.0797    9.8941 N   0  0  0  0  0  0  0  0  0  0  0  0
    5.6811    6.9240   10.4707 H   0  0  0  0  0  0  0  0  0  0  0  0
    5.7948    5.9909    8.5358 C   0  0  0  0  0  0  0  0  0  0  0  0
    6.1719    6.8193    7.9682 H   0  0  0  0  0  0  0  0  0  0  0  0
    5.3950    4.7622    8.1011 C   0  0  0  0  0  0  0  0  0  0  0  0
    5.3927    4.4051    7.0914 H   0  0  0  0  0  0  0  0  0  0  0  0
    4.9605    4.0437    9.2475 C   0  0  0  0  0  0  0  0  0  0  0  0
    4.4108    2.7911    9.5006 C   0  0  0  0  0  0  0  0  0  0  0  0
    4.2411    2.0806    8.7063 H   0  0  0  0  0  0  0  0  0  0  0  0
    4.0749    2.5037   10.8107 C   0  0  0  0  0  0  0  0  0  0  0  0
    3.6223    1.5588   11.0652 H   0  0  0  0  0  0  0  0  0  0  0  0
    4.3173    3.4231   11.8274 C   0  0  0  0  0  3  0  0  0  0  0  0
    4.0427    3.1858   12.8446 H   0  0  0  0  0  0  0  0  0  0  0  0
    4.8721    4.6155   11.6231 N   0  0  0  0  0  0  0  0  0  0  0  0
    5.1515    4.9216   10.3535 C   0  0  0  0  0  0  0  0  0  0  0  0
    8.6415    5.5176   13.1605 N   0  0  0  0  0  0  0  0  0  0  0  0
    8.1932    6.3865   12.8867 H   0  0  0  0  0  0  0  0  0  0  0  0
    9.9839    5.2695   13.2450 C   0  0  0  0  0  0  0  0  0  0  0  0
   10.6929    5.9553   12.8241 H   0  0  0  0  0  0  0  0  0  0  0  0
   10.2070    4.0924   13.8942 C   0  0  0  0  0  0  0  0  0  0  0  0
   11.1561    3.6395   14.0963 H   0  0  0  0  0  0  0  0  0  0  0  0
    8.9345    3.5833   14.2731 C   0  0  0  0  0  0  0  0  0  0  0  0
    8.4552    2.4812   14.9755 C   0  0  0  0  0  0  0  0  0  0  0  0
    9.1241    1.7324   15.3699 H   0  0  0  0  0  0  0  0  0  0  0  0
    7.0878    2.3978   15.1644 C   0  0  0  0  0  0  0  0  0  0  0  0
    6.6622    1.5795   15.7228 H   0  0  0  0  0  0  0  0  0  0  0  0
    6.2339    3.3653   14.6414 C   0  0  0  0  0  3  0  0  0  0  0  0
    5.1684    3.3004   14.8126 H   0  0  0  0  0  0  0  0  0  0  0  0
    6.6606    4.4098   13.9383 N   0  0  0  0  0  0  0  0  0  0  0  0
    7.9805    4.5223   13.7928 C   0  0  0  0  0  0  0  0  0  0  0  0
  1 32  1  0  0  0  0
  1  3  1  0  0  0  0
  2  1  1  0  0  0  0
  4 18  1  0  0  0  0
  4  5  1  0  0  0  0
  6  4  1  0  0  0  0
  7  6  1  0  0  0  0
  8  6  2  0  0  0  0
  8 10  1  0  0  0  0
  9  8  1  0  0  0  0
 10 11  1  0  0  0  0
 10 18  2  0  0  0  0
 11 13  2  0  0  0  0
 12 11  1  0  0  0  0
 13 14  1  0  0  0  0
 13 15  1  0  0  0  0
 15 16  1  0  0  0  0
 17 15  1  0  0  0  0
 17  1  1  0  0  0  0
 18 17  1  0  0  0  0
 19 21  1  0  0  0  0
 19 33  1  0  0  0  0
 20 19  1  0  0  0  0
 21 23  2  0  0  0  0
 22 21  1  0  0  0  0
 23 24  1  0  0  0  0
 23 25  1  0  0  0  0
 25 26  1  0  0  0  0
 26 28  2  0  0  0  0
 26 27  1  0  0  0  0
 28 29  1  0  0  0  0
 30 31  1  0  0  0  0
 30 28  1  0  0  0  0
 32 30  1  0  0  0  0
 33 32  1  0  0  0  0
 33 25  2  0  0  0  0
M  END
$$$$
