CSD_code = FAMYOJ | q = 0 | S = 0 | Stoichiometry = C23H24Cl2P2PdS2 | MND = 4
 OpenBabel04212202033D

 54 59  0  0  0  0  0  0  0  0999 V2000
   -2.5271    6.2030    7.2281 Cl  0  0  0  0  0  0  0  0  0  0  0  0
   -2.7105    3.0390    7.2897 Cl  0  0  0  0  0  0  0  0  0  0  0  0
    0.1563    3.0249    5.4511 P   0  0  1  0  0  4  0  0  0  0  0  0
    0.2853    5.9146    5.5061 P   0  0  1  0  0  4  0  0  0  0  0  0
   -1.3118    4.5270    6.3689 Pd  0  0  0  0  0  0  0  0  0  0  0  0
    0.5728   -1.4126    5.2100 S   0  0  0  0  0  0  0  0  0  0  0  0
    0.5458   10.3608    5.2353 S   0  0  0  0  0  0  0  0  0  0  0  0
    0.4276    1.3620    4.7779 C   0  0  0  0  0  0  0  0  0  0  0  0
    1.0354    1.4546    3.5516 C   0  0  0  0  0  0  0  0  0  0  0  0
    1.2759    2.8020    3.0854 C   0  0  0  0  0  0  0  0  0  0  0  0
    0.7806    3.7735    3.9141 C   0  0  0  0  0  0  0  0  0  0  0  0
    0.6911    5.1966    3.8949 C   0  0  0  0  0  0  0  0  0  0  0  0
    0.6319    6.1749    2.9326 C   0  0  0  0  0  0  0  0  0  0  0  0
    0.5330    7.5139    3.4676 C   0  0  0  0  0  0  0  0  0  0  0  0
    0.3956    7.5823    4.8341 C   0  0  0  0  0  0  0  0  0  0  0  0
    0.2601    8.7030    5.6992 C   0  0  0  0  0  0  0  0  0  0  0  0
   -0.0865    8.6319    7.0295 C   0  0  0  0  0  0  0  0  0  0  0  0
   -0.3584    7.7011    7.5051 H   0  0  0  0  0  0  0  0  0  0  0  0
   -0.1283    9.8835    7.6618 C   0  0  0  0  0  0  0  0  0  0  0  0
   -0.3920   10.0227    8.6946 H   0  0  0  0  0  0  0  0  0  0  0  0
    0.1963   10.9062    6.8243 C   0  0  0  0  0  0  0  0  0  0  0  0
    0.2470   11.9552    7.0385 H   0  0  0  0  0  0  0  0  0  0  0  0
    0.0833    0.2278    5.5619 C   0  0  0  0  0  0  0  0  0  0  0  0
   -0.6365    0.2706    6.7346 C   0  0  0  0  0  0  0  0  0  0  0  0
   -1.0682    1.1843    7.1185 H   0  0  0  0  0  0  0  0  0  0  0  0
   -0.8031   -0.9885    7.3309 C   0  0  0  0  0  0  0  0  0  0  0  0
   -1.3481   -1.1474    8.2436 H   0  0  0  0  0  0  0  0  0  0  0  0
   -0.2031   -1.9881    6.6282 C   0  0  0  0  0  0  0  0  0  0  0  0
   -0.1724   -3.0365    6.8497 H   0  0  0  0  0  0  0  0  0  0  0  0
    1.6434    3.1299    6.5666 C   0  0  0  0  0  0  0  0  0  0  0  0
    1.5713    2.2653    7.2351 H   0  0  0  0  0  0  0  0  0  0  0  0
    2.5506    3.0299    5.9619 H   0  0  0  0  0  0  0  0  0  0  0  0
    1.6642    4.4130    7.3958 C   0  0  0  0  0  0  0  0  0  0  0  0
    2.4947    4.3631    8.1061 H   0  0  0  0  0  0  0  0  0  0  0  0
    0.7219    4.4772    7.9770 H   0  0  0  0  0  0  0  0  0  0  0  0
    1.8045    5.6738    6.5415 C   0  0  0  0  0  0  0  0  0  0  0  0
    2.6811    5.6190    5.8891 H   0  0  0  0  0  0  0  0  0  0  0  0
    1.9000    6.5527    7.1858 H   0  0  0  0  0  0  0  0  0  0  0  0
    1.4165    0.2613    2.7406 C   0  0  0  0  0  0  0  0  0  0  0  0
    1.6168    0.5295    1.7081 H   0  0  0  0  0  0  0  0  0  0  0  0
    0.6152   -0.4756    2.7591 H   0  0  0  0  0  0  0  0  0  0  0  0
    2.3044   -0.2158    3.1573 H   0  0  0  0  0  0  0  0  0  0  0  0
    2.0989    3.0469    1.8613 C   0  0  0  0  0  0  0  0  0  0  0  0
    2.9725    2.3962    1.8727 H   0  0  0  0  0  0  0  0  0  0  0  0
    2.4395    4.0770    1.8365 H   0  0  0  0  0  0  0  0  0  0  0  0
    1.5385    2.8369    0.9500 H   0  0  0  0  0  0  0  0  0  0  0  0
    0.5567    5.9279    1.4609 C   0  0  0  0  0  0  0  0  0  0  0  0
   -0.2332    6.5398    1.0275 H   0  0  0  0  0  0  0  0  0  0  0  0
    0.3199    4.8870    1.2686 H   0  0  0  0  0  0  0  0  0  0  0  0
    1.4922    6.1813    0.9610 H   0  0  0  0  0  0  0  0  0  0  0  0
    0.5952    8.7295    2.6052 C   0  0  0  0  0  0  0  0  0  0  0  0
    0.6633    8.4759    1.5527 H   0  0  0  0  0  0  0  0  0  0  0  0
    1.4657    9.3291    2.8726 H   0  0  0  0  0  0  0  0  0  0  0  0
   -0.2852    9.3520    2.7633 H   0  0  0  0  0  0  0  0  0  0  0  0
  3 11  1  6  0  0  0
  3  5  1  0  0  0  0
  3 30  1  0  0  0  0
  4 12  1  6  0  0  0
  4  5  1  0  0  0  0
  4 36  1  0  0  0  0
  5  1  1  0  0  0  0
  5  2  1  0  0  0  0
  6 23  1  0  0  0  0
  6 28  1  0  0  0  0
  7 16  1  0  0  0  0
  7 21  1  0  0  0  0
  8  3  1  0  0  0  0
  8 23  1  0  0  0  0
  9  8  2  0  0  0  0
 10  9  1  0  0  0  0
 10 11  2  0  0  0  0
 12 11  1  0  0  0  0
 13 14  1  0  0  0  0
 13 12  2  0  0  0  0
 14 15  2  0  0  0  0
 15  4  1  0  0  0  0
 15 16  1  0  0  0  0
 16 17  2  0  0  0  0
 17 18  1  0  0  0  0
 17 19  1  0  0  0  0
 19 20  1  0  0  0  0
 21 22  1  0  0  0  0
 21 19  2  0  0  0  0
 23 24  2  0  0  0  0
 24 25  1  0  0  0  0
 24 26  1  0  0  0  0
 26 27  1  0  0  0  0
 28 29  1  0  0  0  0
 28 26  2  0  0  0  0
 30 31  1  0  0  0  0
 30 33  1  0  0  0  0
 32 30  1  0  0  0  0
 33 35  1  0  0  0  0
 33 34  1  0  0  0  0
 36 38  1  0  0  0  0
 36 33  1  0  0  0  0
 37 36  1  0  0  0  0
 39 41  1  0  0  0  0
 39 42  1  0  0  0  0
 39  9  1  0  0  0  0
 40 39  1  0  0  0  0
 43 44  1  0  0  0  0
 43 10  1  0  0  0  0
 45 43  1  0  0  0  0
 46 43  1  0  0  0  0
 47 13  1  0  0  0  0
 48 47  1  0  0  0  0
 49 47  1  0  0  0  0
 50 47  1  0  0  0  0
 51 54  1  0  0  0  0
 51 53  1  0  0  0  0
 51 14  1  0  0  0  0
 52 51  1  0  0  0  0
M  END
$$$$
