CSD_code = FAMYID | q = 0 | S = 0 | Stoichiometry = C26H28Cl2P2Pd | MND = 4
 OpenBabel04212202033D

 59 63  0  0  0  0  0  0  0  0999 V2000
    5.6019    2.9008   18.9795 P   0  0  1  0  0  4  0  0  0  0  0  0
    8.6232    2.5638   18.2346 P   0  0  1  0  0  4  0  0  0  0  0  0
    7.4834    2.7264   20.2331 Pd  0  0  0  0  0  0  0  0  0  0  0  0
    7.3968    2.7722   16.9139 C   0  0  0  0  0  0  0  0  0  0  0  0
    7.9504    3.4138   15.8481 C   0  0  0  0  0  0  0  0  0  0  0  0
    9.3832    3.6224   15.9665 C   0  0  0  0  0  0  0  0  0  0  0  0
    9.9284    3.1936   17.1392 C   0  0  0  0  0  0  0  0  0  0  0  0
   11.3148    3.1549   17.5639 C   0  0  0  0  0  0  0  0  0  0  0  0
    8.9985    0.7648   18.2665 C   0  0  0  0  0  0  0  0  0  0  0  0
    9.8685    0.6313   18.9134 H   0  0  0  0  0  0  0  0  0  0  0  0
    9.2085    0.3860   17.2672 H   0  0  0  0  0  0  0  0  0  0  0  0
    8.1420    0.2427   18.7077 H   0  0  0  0  0  0  0  0  0  0  0  0
   10.1377    4.3070   14.8738 C   0  0  0  0  0  0  0  0  0  0  0  0
    9.5857    5.1780   14.5246 H   0  0  0  0  0  0  0  0  0  0  0  0
   10.2744    3.6398   14.0222 H   0  0  0  0  0  0  0  0  0  0  0  0
   11.1126    4.6329   15.2249 H   0  0  0  0  0  0  0  0  0  0  0  0
   11.6092    3.3554   18.9141 C   0  0  0  0  0  0  0  0  0  0  0  0
   10.8008    3.5496   19.6095 H   0  0  0  0  0  0  0  0  0  0  0  0
    7.1814    3.9145   14.6709 C   0  0  0  0  0  0  0  0  0  0  0  0
    7.3588    4.9801   14.5287 H   0  0  0  0  0  0  0  0  0  0  0  0
    6.1171    3.7591   14.8204 H   0  0  0  0  0  0  0  0  0  0  0  0
    7.4920    3.4032   13.7598 H   0  0  0  0  0  0  0  0  0  0  0  0
   12.3596    2.8628   16.6839 C   0  0  0  0  0  0  0  0  0  0  0  0
   12.1468    2.6366   15.6502 H   0  0  0  0  0  0  0  0  0  0  0  0
   12.9131    3.3083   19.3644 C   0  0  0  0  0  0  0  0  0  0  0  0
   13.1208    3.4681   20.4113 H   0  0  0  0  0  0  0  0  0  0  0  0
   13.6628    2.8143   17.1416 C   0  0  0  0  0  0  0  0  0  0  0  0
   14.4626    2.5852   16.4521 H   0  0  0  0  0  0  0  0  0  0  0  0
   13.9461    3.0466   18.4778 C   0  0  0  0  0  0  0  0  0  0  0  0
   14.9668    3.0082   18.8283 H   0  0  0  0  0  0  0  0  0  0  0  0
    6.0382    2.4798   17.2741 C   0  0  0  0  0  0  0  0  0  0  0  0
    5.0212    1.8116   16.6717 C   0  0  0  0  0  0  0  0  0  0  0  0
    3.8553    1.6294   17.5248 C   0  0  0  0  0  0  0  0  0  0  0  0
    3.9841    2.0932   18.8019 C   0  0  0  0  0  0  0  0  0  0  0  0
    3.0913    1.9469   19.9396 C   0  0  0  0  0  0  0  0  0  0  0  0
    3.1209    2.9053   20.9543 C   0  0  0  0  0  0  0  0  0  0  0  0
    3.7980    3.7428   20.8669 H   0  0  0  0  0  0  0  0  0  0  0  0
    2.3120    2.7899   22.0657 C   0  0  0  0  0  0  0  0  0  0  0  0
    2.3539    3.5410   22.8398 H   0  0  0  0  0  0  0  0  0  0  0  0
    1.4614    1.7039   22.1955 C   0  0  0  0  0  0  0  0  0  0  0  0
    0.8294    1.6089   23.0658 H   0  0  0  0  0  0  0  0  0  0  0  0
    1.4471    0.7263   21.2151 C   0  0  0  0  0  0  0  0  0  0  0  0
    0.8109   -0.1399   21.3258 H   0  0  0  0  0  0  0  0  0  0  0  0
    2.2550    0.8397   20.0993 C   0  0  0  0  0  0  0  0  0  0  0  0
    2.2708    0.0407   19.3756 H   0  0  0  0  0  0  0  0  0  0  0  0
    5.3054    4.7113   18.8001 C   0  0  0  0  0  0  0  0  0  0  0  0
    5.1632    5.1585   19.7845 H   0  0  0  0  0  0  0  0  0  0  0  0
    4.4388    4.9011   18.1681 H   0  0  0  0  0  0  0  0  0  0  0  0
    6.2050    5.1380   18.3484 H   0  0  0  0  0  0  0  0  0  0  0  0
    5.0851    1.2144   15.3038 C   0  0  0  0  0  0  0  0  0  0  0  0
    4.4472    1.7599   14.6074 H   0  0  0  0  0  0  0  0  0  0  0  0
    4.7434    0.1808   15.3268 H   0  0  0  0  0  0  0  0  0  0  0  0
    6.1058    1.2389   14.9318 H   0  0  0  0  0  0  0  0  0  0  0  0
    2.6218    1.0037   16.9587 C   0  0  0  0  0  0  0  0  0  0  0  0
    2.4643    1.3484   15.9382 H   0  0  0  0  0  0  0  0  0  0  0  0
    1.7502    1.2632   17.5536 H   0  0  0  0  0  0  0  0  0  0  0  0
    2.7143   -0.0826   16.9313 H   0  0  0  0  0  0  0  0  0  0  0  0
    9.3383    2.6708   21.4945 Cl  0  0  0  0  0  0  0  0  0  0  0  0
    6.2148    2.5700   22.0791 Cl  0  0  0  0  0  0  0  0  0  0  0  0
  1 46  1  6  0  0  0
  1  3  1  0  0  0  0
  2  9  1  6  0  0  0
  2  3  1  0  0  0  0
  3 58  1  0  0  0  0
  3 59  1  0  0  0  0
  4 31  1  0  0  0  0
  4  2  1  0  0  0  0
  5  6  1  0  0  0  0
  5  4  2  0  0  0  0
  6  7  2  0  0  0  0
  7  8  1  0  0  0  0
  7  2  1  0  0  0  0
  8 17  1  0  0  0  0
  9 12  1  0  0  0  0
  9 10  1  0  0  0  0
 11  9  1  0  0  0  0
 13 16  1  0  0  0  0
 13  6  1  0  0  0  0
 14 13  1  0  0  0  0
 15 13  1  0  0  0  0
 17 25  2  0  0  0  0
 17 18  1  0  0  0  0
 19 21  1  0  0  0  0
 19  5  1  0  0  0  0
 20 19  1  0  0  0  0
 22 19  1  0  0  0  0
 23 27  1  0  0  0  0
 23  8  2  0  0  0  0
 24 23  1  0  0  0  0
 25 26  1  0  0  0  0
 27 29  2  0  0  0  0
 28 27  1  0  0  0  0
 29 30  1  0  0  0  0
 29 25  1  0  0  0  0
 31  1  1  0  0  0  0
 32 31  2  0  0  0  0
 32 33  1  0  0  0  0
 33 34  2  0  0  0  0
 34  1  1  0  0  0  0
 34 35  1  0  0  0  0
 35 44  2  0  0  0  0
 35 36  1  0  0  0  0
 36 38  2  0  0  0  0
 37 36  1  0  0  0  0
 38 40  1  0  0  0  0
 38 39  1  0  0  0  0
 40 41  1  0  0  0  0
 42 43  1  0  0  0  0
 42 40  2  0  0  0  0
 44 42  1  0  0  0  0
 45 44  1  0  0  0  0
 46 47  1  0  0  0  0
 48 46  1  0  0  0  0
 49 46  1  0  0  0  0
 50 52  1  0  0  0  0
 50 32  1  0  0  0  0
 51 50  1  0  0  0  0
 53 50  1  0  0  0  0
 54 33  1  0  0  0  0
 54 56  1  0  0  0  0
 55 54  1  0  0  0  0
 57 54  1  0  0  0  0
M  END
$$$$
