CSD_code = FANBAA | q = 0 | S = 0 | Stoichiometry = C25H32Br2N4Pd | MND = 4
 OpenBabel04212202033D

 64 68  0  0  1  0  0  0  0  0999 V2000
    2.3499    6.7203    1.0211 Pd  0  0  0  0  0  0  0  0  0  0  0  0
    3.2895    8.4124   -0.4012 Br  0  0  0  0  0  0  0  0  0  0  0  0
    1.2372    9.3869    2.1918 N   0  0  0  0  0  0  0  0  0  0  0  0
    1.8415    7.8966    3.6362 N   0  0  2  0  0  0  0  0  0  0  0  0
    1.7399    8.1678    2.3220 C   0  0  2  0  0  3  0  0  0  0  0  0
    0.8689    9.9870    3.4785 C   0  0  0  0  0  0  0  0  0  0  0  0
   -0.2226   10.0696    3.5343 H   0  0  0  0  0  0  0  0  0  0  0  0
    1.2924   10.9862    3.5757 H   0  0  0  0  0  0  0  0  0  0  0  0
    1.4293    8.9952    4.4964 C   0  0  0  0  0  0  0  0  0  0  0  0
    2.2905    9.3961    5.0444 H   0  0  0  0  0  0  0  0  0  0  0  0
    0.6809    8.6584    5.2200 H   0  0  0  0  0  0  0  0  0  0  0  0
    1.0154   10.1757    1.0276 C   0  0  0  0  0  0  0  0  0  0  0  0
   -0.0097    9.8440    0.1430 C   0  0  0  0  0  0  0  0  0  0  0  0
   -0.2735   10.6853   -0.9252 C   0  0  0  0  0  0  0  0  0  0  0  0
   -1.0596   10.4218   -1.6179 H   0  0  0  0  0  0  0  0  0  0  0  0
    0.4605   11.8431   -1.1296 C   0  0  0  0  0  0  0  0  0  0  0  0
    1.5011   12.1300   -0.2587 C   0  0  0  0  0  0  0  0  0  0  0  0
    2.1121   13.0033   -0.4341 H   0  0  0  0  0  0  0  0  0  0  0  0
    1.8007   11.3108    0.8176 C   0  0  0  0  0  0  0  0  0  0  0  0
   -0.7306    8.5434    0.2945 C   0  0  0  0  0  0  0  0  0  0  0  0
   -0.0069    7.7426    0.0753 H   0  0  0  0  0  0  0  0  0  0  0  0
   -1.5546    8.4645   -0.4086 H   0  0  0  0  0  0  0  0  0  0  0  0
   -1.1082    8.3967    1.3065 H   0  0  0  0  0  0  0  0  0  0  0  0
    0.1798   12.7392   -2.2957 C   0  0  0  0  0  0  0  0  0  0  0  0
    0.2565   13.7855   -2.0075 H   0  0  0  0  0  0  0  0  0  0  0  0
   -0.8116   12.5543   -2.7012 H   0  0  0  0  0  0  0  0  0  0  0  0
    0.9105   12.5540   -3.0824 H   0  0  0  0  0  0  0  0  0  0  0  0
    2.9900   11.6211    1.6761 C   0  0  0  0  0  0  0  0  0  0  0  0
    2.7399   12.3291    2.4685 H   0  0  0  0  0  0  0  0  0  0  0  0
    3.7677   12.0683    1.0631 H   0  0  0  0  0  0  0  0  0  0  0  0
    3.3944   10.7144    2.1193 H   0  0  0  0  0  0  0  0  0  0  0  0
    2.4995    6.7207    4.1339 C   0  0  0  0  0  0  0  0  0  0  0  0
    2.4560    6.7208    5.2263 H   0  0  0  0  0  0  0  0  0  0  0  0
    3.5636    6.7207    3.8160 H   0  0  0  0  0  0  0  0  0  0  0  0
    1.2368    4.0546    2.1920 N   0  0  0  0  0  0  0  0  0  0  0  0
    1.8413    5.5448    3.6365 N   0  0  0  0  0  0  0  0  0  0  0  0
    1.7392    5.2737    2.3223 C   0  0  0  0  0  0  0  0  0  0  0  0
    0.8687    3.4544    3.4788 C   0  0  0  0  0  0  0  0  0  0  0  0
   -0.2227    3.3717    3.5346 H   0  0  0  0  0  0  0  0  0  0  0  0
    1.2924    2.4553    3.5758 H   0  0  0  0  0  0  0  0  0  0  0  0
    1.4292    4.4462    4.4966 C   0  0  0  0  0  0  0  0  0  0  0  0
    2.2905    4.0454    5.0444 H   0  0  0  0  0  0  0  0  0  0  0  0
    0.6810    4.7830    5.2203 H   0  0  0  0  0  0  0  0  0  0  0  0
    1.0152    3.2657    1.0278 C   0  0  0  0  0  0  0  0  0  0  0  0
   -0.0099    3.5974    0.1432 C   0  0  0  0  0  0  0  0  0  0  0  0
   -0.2736    2.7561   -0.9251 C   0  0  0  0  0  0  0  0  0  0  0  0
   -1.0597    3.0196   -1.6178 H   0  0  0  0  0  0  0  0  0  0  0  0
    0.4605    1.5984   -1.1296 C   0  0  0  0  0  0  0  0  0  0  0  0
    1.5011    1.3115   -0.2587 C   0  0  0  0  0  0  0  0  0  0  0  0
    2.1122    0.4383   -0.4341 H   0  0  0  0  0  0  0  0  0  0  0  0
    1.8006    2.1306    0.8177 C   0  0  0  0  0  0  0  0  0  0  0  0
   -0.7308    4.8981    0.2946 C   0  0  0  0  0  0  0  0  0  0  0  0
   -0.0070    5.6988    0.0756 H   0  0  0  0  0  0  0  0  0  0  0  0
   -1.5546    4.9769   -0.4085 H   0  0  0  0  0  0  0  0  0  0  0  0
   -1.1084    5.0446    1.3066 H   0  0  0  0  0  0  0  0  0  0  0  0
    0.1798    0.7024   -2.2957 C   0  0  0  0  0  0  0  0  0  0  0  0
    0.2565   -0.3439   -2.0075 H   0  0  0  0  0  0  0  0  0  0  0  0
   -0.8116    0.8871   -2.7011 H   0  0  0  0  0  0  0  0  0  0  0  0
    0.9105    0.8876   -3.0824 H   0  0  0  0  0  0  0  0  0  0  0  0
    2.9900    1.8204    1.6761 C   0  0  0  0  0  0  0  0  0  0  0  0
    2.7400    1.1124    2.4685 H   0  0  0  0  0  0  0  0  0  0  0  0
    3.7677    1.3733    1.0630 H   0  0  0  0  0  0  0  0  0  0  0  0
    3.3943    2.7271    2.1193 H   0  0  0  0  0  0  0  0  0  0  0  0
    3.2916    5.0303   -0.4031 Br  0  0  0  0  0  0  0  0  0  0  0  0
  1  5  1  0  0  0  0
  1 37  2  0  0  0  0
  2  1  1  0  0  0  0
  3  6  1  0  0  0  0
  4 32  1  1  0  0  0
  4  9  1  0  0  0  0
  5  3  1  1  0  0  0
  5  4  1  0  0  0  0
  6  7  1  0  0  0  0
  6  8  1  0  0  0  0
  6  9  1  0  0  0  0
  9 10  1  0  0  0  0
  9 11  1  0  0  0  0
 12  3  1  0  0  0  0
 13 20  1  0  0  0  0
 13 12  2  0  0  0  0
 14 13  1  0  0  0  0
 15 14  1  0  0  0  0
 16 14  2  0  0  0  0
 16 17  1  0  0  0  0
 17 19  2  0  0  0  0
 18 17  1  0  0  0  0
 19 12  1  0  0  0  0
 19 28  1  0  0  0  0
 20 23  1  0  0  0  0
 21 20  1  0  0  0  0
 22 20  1  0  0  0  0
 24 25  1  0  0  0  0
 24 16  1  0  0  0  0
 26 24  1  0  0  0  0
 27 24  1  0  0  0  0
 28 31  1  0  0  0  0
 28 29  1  0  0  0  0
 30 28  1  0  0  0  0
 32 33  1  0  0  0  0
 34 32  1  0  0  0  0
 35 37  1  0  0  0  0
 35 38  1  0  0  0  0
 36 32  1  0  0  0  0
 36 41  1  0  0  0  0
 37 36  1  0  0  0  0
 38 39  1  0  0  0  0
 38 40  1  0  0  0  0
 38 41  1  0  0  0  0
 41 42  1  0  0  0  0
 41 43  1  0  0  0  0
 44 35  1  0  0  0  0
 45 52  1  0  0  0  0
 45 44  2  0  0  0  0
 46 45  1  0  0  0  0
 47 46  1  0  0  0  0
 48 46  2  0  0  0  0
 48 49  1  0  0  0  0
 49 51  2  0  0  0  0
 50 49  1  0  0  0  0
 51 44  1  0  0  0  0
 51 60  1  0  0  0  0
 52 55  1  0  0  0  0
 53 52  1  0  0  0  0
 54 52  1  0  0  0  0
 56 57  1  0  0  0  0
 56 48  1  0  0  0  0
 58 56  1  0  0  0  0
 59 56  1  0  0  0  0
 60 63  1  0  0  0  0
 60 61  1  0  0  0  0
 62 60  1  0  0  0  0
 64  1  1  0  0  0  0
M  END
$$$$
