CSD_code = FANJUA | q = 1 | S = 0 | Stoichiometry = C10H20Cl3N2O3Pt(1+) | MND = 6
 OpenBabel04212202033D

 39 39  0  0  1  0  0  0  0  0999 V2000
   10.5692    7.0471    5.3092 Pt  0  0  0  0  0  0  0  0  0  0  0  0
    8.6343    5.8855    5.5258 Cl  0  0  0  0  0  0  0  0  0  0  0  0
   11.0895    6.3192    7.4895 Cl  0  0  0  0  0  0  0  0  0  0  0  0
   10.1694    7.7394    3.0683 Cl  0  0  0  0  0  0  0  0  0  0  0  0
    9.6115    8.6864    6.0029 N   0  0  0  0  0  0  0  0  0  0  0  0
   11.3087    9.3288    7.3328 O   0  0  0  0  0  0  0  0  0  0  0  0
   11.4975    5.3748    4.5843 N   0  0  0  0  0  0  0  0  0  0  0  0
   10.1082    9.5140    6.8556 C   0  0  2  0  0  3  0  0  0  0  0  0
   12.6929    4.9979    4.8657 C   0  0  1  0  0  3  0  0  0  0  0  0
    9.1734   10.6316    7.2104 C   0  0  0  0  0  0  0  0  0  0  0  0
    9.6689   11.6015    7.2211 H   0  0  0  0  0  0  0  0  0  0  0  0
    8.7622   10.4484    8.2070 H   0  0  0  0  0  0  0  0  0  0  0  0
    8.2580    9.0688    5.6184 C   0  0  0  0  0  0  0  0  0  0  0  0
    7.5488    8.3905    6.1025 H   0  0  0  0  0  0  0  0  0  0  0  0
    8.1398    8.9778    4.5379 H   0  0  0  0  0  0  0  0  0  0  0  0
   10.8043    4.3581    3.8007 C   0  0  0  0  0  0  0  0  0  0  0  0
   10.2712    4.8330    2.9760 H   0  0  0  0  0  0  0  0  0  0  0  0
   10.0731    3.8590    4.4428 H   0  0  0  0  0  0  0  0  0  0  0  0
   13.0384    3.6385    4.3422 C   0  0  0  0  0  0  0  0  0  0  0  0
   13.0070    2.9214    5.1673 H   0  0  0  0  0  0  0  0  0  0  0  0
   14.0309    3.5979    3.8952 H   0  0  0  0  0  0  0  0  0  0  0  0
    8.1028   10.5129    6.1185 C   0  0  0  0  0  0  0  0  0  0  0  0
    7.1012   10.7064    6.4918 H   0  0  0  0  0  0  0  0  0  0  0  0
    8.3102   11.2145    5.3114 H   0  0  0  0  0  0  0  0  0  0  0  0
   12.4395    8.3796    4.9708 O   0  0  0  0  0  0  0  0  0  0  0  0
   13.4985    5.7966    5.5373 O   0  0  0  0  0  0  0  0  0  0  0  0
   11.8213   10.2170    8.3187 C   0  0  0  0  0  0  0  0  0  0  0  0
   12.7676    9.7848    8.6366 H   0  0  0  0  0  0  0  0  0  0  0  0
   11.1505   10.2896    9.1760 H   0  0  0  0  0  0  0  0  0  0  0  0
   11.9959   11.2099    7.8986 H   0  0  0  0  0  0  0  0  0  0  0  0
   14.7406    5.2856    6.0180 C   0  0  0  0  0  0  0  0  0  0  0  0
   15.1512    6.0631    6.6588 H   0  0  0  0  0  0  0  0  0  0  0  0
   15.4287    5.0859    5.1941 H   0  0  0  0  0  0  0  0  0  0  0  0
   14.5910    4.3798    6.6054 H   0  0  0  0  0  0  0  0  0  0  0  0
   11.9078    3.3967    3.3345 C   0  0  0  0  0  0  0  0  0  0  0  0
   11.5687    2.3651    3.3256 H   0  0  0  0  0  0  0  0  0  0  0  0
   12.2369    3.6585    2.3292 H   0  0  0  0  0  0  0  0  0  0  0  0
   13.2410    7.8886    5.1936 H   0  0  0  0  0  0  0  0  0  0  0  0
   12.4182    8.5511    4.0160 H   0  0  0  0  0  0  0  0  0  0  0  0
  1  2  1  0  0  0  0
  1  5  1  0  0  0  0
  1  3  1  0  0  0  0
  4  1  1  0  0  0  0
  5  8  1  0  0  0  0
  6 27  1  0  0  0  0
  7  9  1  0  0  0  0
  7  1  1  0  0  0  0
  8 10  1  0  0  0  0
  8  6  1  1  0  0  0
  9 26  1  6  0  0  0
 10 11  1  0  0  0  0
 10 12  1  0  0  0  0
 13  5  1  0  0  0  0
 13 14  1  0  0  0  0
 13 22  1  0  0  0  0
 15 13  1  0  0  0  0
 16 18  1  0  0  0  0
 16  7  1  0  0  0  0
 17 16  1  0  0  0  0
 19  9  1  0  0  0  0
 19 20  1  0  0  0  0
 21 19  1  0  0  0  0
 22 23  1  0  0  0  0
 22 10  1  0  0  0  0
 24 22  1  0  0  0  0
 25 38  1  0  0  0  0
 26 31  1  0  0  0  0
 27 28  1  0  0  0  0
 27 29  1  0  0  0  0
 30 27  1  0  0  0  0
 31 34  1  0  0  0  0
 31 32  1  0  0  0  0
 33 31  1  0  0  0  0
 35 16  1  0  0  0  0
 35 19  1  0  0  0  0
 36 35  1  0  0  0  0
 37 35  1  0  0  0  0
 39 25  1  0  0  0  0
M  END
$$$$
