CSD_code = FANSAQ | q = 0 | S = 0 | Stoichiometry = C14H15ClN2OPd | MND = 4
 OpenBabel04212202033D

 34 36  0  0  0  0  0  0  0  0999 V2000
    2.2211    0.7391   10.0481 Pd  0  0  1  0  0  0  0  0  0  0  0  0
    4.2941    0.7968   11.1604 Cl  0  0  0  0  0  0  0  0  0  0  0  0
    1.2786    1.2455   11.6711 N   0  0  0  0  0  0  0  0  0  0  0  0
    1.9638    1.4467   12.8461 O   0  0  0  0  0  0  0  0  0  0  0  0
    2.9194    1.2778   12.5941 H   0  0  0  0  0  0  0  0  0  0  0  0
    0.3468    0.7731    9.3187 C   0  0  0  0  0  0  0  0  0  0  0  0
   -0.5807    1.1386   10.3229 C   0  0  0  0  0  0  0  0  0  0  0  0
   -1.9409    1.2398   10.0448 C   0  0  0  0  0  0  0  0  0  0  0  0
   -2.6390    1.5206   10.8199 H   0  0  0  0  0  0  0  0  0  0  0  0
   -2.3988    0.9797    8.7658 C   0  0  0  0  0  0  0  0  0  0  0  0
   -3.4534    1.0568    8.5443 H   0  0  0  0  0  0  0  0  0  0  0  0
   -1.5057    0.6205    7.7709 C   0  0  0  0  0  0  0  0  0  0  0  0
   -1.8674    0.4167    6.7727 H   0  0  0  0  0  0  0  0  0  0  0  0
   -0.1467    0.5194    8.0456 C   0  0  0  0  0  0  0  0  0  0  0  0
    0.5271    0.2343    7.2443 H   0  0  0  0  0  0  0  0  0  0  0  0
    0.0000    1.3919   11.6390 C   0  0  0  0  0  0  0  0  0  0  0  0
   -0.8099    1.7802   12.8318 C   0  0  0  0  0  0  0  0  0  0  0  0
   -1.5467    1.0085   13.0492 H   0  0  0  0  0  0  0  0  0  0  0  0
   -1.3380    2.7121   12.6363 H   0  0  0  0  0  0  0  0  0  0  0  0
   -0.1607    1.9099   13.6939 H   0  0  0  0  0  0  0  0  0  0  0  0
    3.1541    0.2336    8.4067 N   0  0  0  0  0  0  0  0  0  0  0  0
    3.4698    1.1529    7.4934 C   0  0  0  0  0  3  0  0  0  0  0  0
    2.9859    2.1221    7.5980 H   0  0  0  0  0  0  0  0  0  0  0  0
    4.3609    0.9029    6.4677 C   0  0  0  0  0  0  0  0  0  0  0  0
    4.5923    1.6807    5.7563 H   0  0  0  0  0  0  0  0  0  0  0  0
    4.9610   -0.3494    6.3626 C   0  0  0  0  0  0  0  0  0  0  0  0
    4.6173   -1.2984    7.3224 C   0  0  0  0  0  0  0  0  0  0  0  0
    5.0548   -2.2844    7.2964 H   0  0  0  0  0  0  0  0  0  0  0  0
    3.7209   -0.9705    8.3209 C   0  0  0  0  0  0  0  0  0  0  0  0
    3.4466   -1.6890    9.0913 H   0  0  0  0  0  0  0  0  0  0  0  0
    5.9125   -0.6674    5.2577 C   0  0  0  0  0  0  0  0  0  0  0  0
    6.6383   -1.4125    5.5734 H   0  0  0  0  0  0  0  0  0  0  0  0
    6.4356    0.2262    4.9268 H   0  0  0  0  0  0  0  0  0  0  0  0
    5.3633   -1.0715    4.4066 H   0  0  0  0  0  0  0  0  0  0  0  0
  1  2  1  6  0  0  0
  1  3  1  0  0  0  0
  3  4  1  0  0  0  0
  5  4  1  0  0  0  0
  6  1  2  0  0  0  0
  6  7  1  0  0  0  0
  7 16  2  0  0  0  0
  8  7  1  0  0  0  0
  8  9  1  0  0  0  0
 10  8  2  0  0  0  0
 11 10  1  0  0  0  0
 12 14  2  0  0  0  0
 12 10  1  0  0  0  0
 13 12  1  0  0  0  0
 14  6  1  0  0  0  0
 15 14  1  0  0  0  0
 16  3  1  0  0  0  0
 16 17  1  0  0  0  0
 17 18  1  0  0  0  0
 17 20  1  0  0  0  0
 19 17  1  0  0  0  0
 21  1  1  0  0  0  0
 22 23  1  0  0  0  0
 22 21  1  0  0  0  0
 24 22  1  0  0  0  0
 25 24  1  0  0  0  0
 26 24  2  0  0  0  0
 26 27  1  0  0  0  0
 27 29  2  0  0  0  0
 28 27  1  0  0  0  0
 29 21  1  0  0  0  0
 29 30  1  0  0  0  0
 31 32  1  0  0  0  0
 31 26  1  0  0  0  0
 33 31  1  0  0  0  0
 34 31  1  0  0  0  0
M  END
$$$$
