CSD_code = FANYAW | q = -1 | S = 0 | Stoichiometry = C4H12Cl4O2RhS2(1-) | MND = 6
 OpenBabel04212202033D

 25 24  0  0  0  0  0  0  0  0999 V2000
    7.5282   -1.7291  -12.8008 Rh  0  0  0  0  0  0  0  0  0  0  0  0
    5.3739   -2.1062  -13.5269 Cl  0  0  0  0  0  0  0  0  0  0  0  0
    7.0420    0.4467  -12.3069 Cl  0  0  0  0  0  0  0  0  0  0  0  0
    9.8046   -1.4397  -12.2883 Cl  0  0  0  0  0  0  0  0  0  0  0  0
    6.9888   -2.4613  -10.6961 Cl  0  0  0  0  0  0  0  0  0  0  0  0
    7.9310   -3.9485  -13.1637 S   0  0  0  0  0  0  0  0  0  0  0  0
    8.1598   -0.9846  -14.8823 S   0  0  0  0  0  0  0  0  0  0  0  0
    8.4109   -4.3749  -14.4766 O   0  0  0  0  0  1  0  0  0  0  0  0
    7.2071   -1.0033  -15.9758 O   0  0  0  0  0  1  0  0  0  0  0  0
    6.5185   -5.0246  -12.7758 C   0  0  0  0  0  0  0  0  0  0  0  0
    5.7215   -4.7602  -13.4620 H   0  0  0  0  0  0  0  0  0  0  0  0
    6.2178   -4.8095  -11.7572 H   0  0  0  0  0  0  0  0  0  0  0  0
    6.8306   -6.0535  -12.9110 H   0  0  0  0  0  0  0  0  0  0  0  0
    9.1052   -4.6601  -11.9637 C   0  0  0  0  0  0  0  0  0  0  0  0
   10.0465   -4.1339  -12.0834 H   0  0  0  0  0  0  0  0  0  0  0  0
    9.2188   -5.7149  -12.1839 H   0  0  0  0  0  0  0  0  0  0  0  0
    8.7020   -4.4818  -10.9739 H   0  0  0  0  0  0  0  0  0  0  0  0
    9.6523   -1.8153  -15.5197 C   0  0  0  0  0  0  0  0  0  0  0  0
    9.4265   -2.8743  -15.5901 H   0  0  0  0  0  0  0  0  0  0  0  0
   10.4576   -1.6445  -14.8160 H   0  0  0  0  0  0  0  0  0  0  0  0
    9.8633   -1.4007  -16.4982 H   0  0  0  0  0  0  0  0  0  0  0  0
    8.8610    0.6992  -14.8458 C   0  0  0  0  0  0  0  0  0  0  0  0
    8.0585    1.3834  -14.5940 H   0  0  0  0  0  0  0  0  0  0  0  0
    9.2661    0.9154  -15.8275 H   0  0  0  0  0  0  0  0  0  0  0  0
    9.6213    0.7179  -14.0738 H   0  0  0  0  0  0  0  0  0  0  0  0
  1  3  1  0  0  0  0
  1  4  1  0  0  0  0
  1  5  1  0  0  0  0
  2  1  1  0  0  0  0
  6  1  1  0  0  0  0
  6 10  1  0  0  0  0
  6 14  1  0  0  0  0
  7 22  1  0  0  0  0
  7  1  1  0  0  0  0
  8  6  1  0  0  0  0
  9  7  1  0  0  0  0
 10 12  1  0  0  0  0
 11 10  1  0  0  0  0
 13 10  1  0  0  0  0
 14 17  1  0  0  0  0
 15 14  1  0  0  0  0
 16 14  1  0  0  0  0
 18  7  1  0  0  0  0
 18 20  1  0  0  0  0
 19 18  1  0  0  0  0
 21 18  1  0  0  0  0
 22 23  1  0  0  0  0
 22 25  1  0  0  0  0
 24 22  1  0  0  0  0
M  END
$$$$
