CSD_code = FAPBIH | q = 0 | S = 0 | Stoichiometry = C6H12Br2PdS3 | MND = 4
 OpenBabel04212202033D

 24 25  0  0  0  0  0  0  0  0999 V2000
    0.6175    4.7002   11.2045 Pd  0  0  0  0  0  0  0  0  0  0  0  0
    1.9191    3.5973    9.5420 Br  0  0  0  0  0  0  0  0  0  0  0  0
   -1.0367    5.3641    9.6225 Br  0  0  0  0  0  0  0  0  0  0  0  0
   -0.6038    5.6913   12.9299 S   0  0  1  0  0  3  0  0  0  0  0  0
    2.1167    3.9380   12.7855 S   0  0  2  0  0  3  0  0  0  0  0  0
    2.1244    7.1946   11.3188 S   0  0  0  0  0  0  0  0  0  0  0  0
    0.4796    5.6133   14.4246 C   0  0  0  0  0  0  0  0  0  0  0  0
    1.4199    4.4182   14.4170 C   0  0  0  0  0  0  0  0  0  0  0  0
    3.5385    5.0571   12.5442 C   0  0  0  0  0  0  0  0  0  0  0  0
    3.2959    6.5560   12.5934 C   0  0  0  0  0  0  0  0  0  0  0  0
    0.8862    8.0930   12.3369 C   0  0  0  0  0  0  0  0  0  0  0  0
   -0.4909    7.4535   12.4571 C   0  0  0  0  0  0  0  0  0  0  0  0
   -0.1926    5.5465   15.2823 H   0  0  0  0  0  0  0  0  0  0  0  0
    1.0207    6.5539   14.4841 H   0  0  0  0  0  0  0  0  0  0  0  0
    2.2591    4.5743   15.0963 H   0  0  0  0  0  0  0  0  0  0  0  0
    0.8823    3.5187   14.7234 H   0  0  0  0  0  0  0  0  0  0  0  0
    3.9115    4.7681   11.5575 H   0  0  0  0  0  0  0  0  0  0  0  0
    4.2783    4.7831   13.2995 H   0  0  0  0  0  0  0  0  0  0  0  0
    2.9499    6.8770   13.5742 H   0  0  0  0  0  0  0  0  0  0  0  0
    4.2463    7.0510   12.3851 H   0  0  0  0  0  0  0  0  0  0  0  0
    0.7541    9.0488   11.8278 H   0  0  0  0  0  0  0  0  0  0  0  0
    1.3405    8.2914   13.3072 H   0  0  0  0  0  0  0  0  0  0  0  0
   -1.0840    8.0124   13.1841 H   0  0  0  0  0  0  0  0  0  0  0  0
   -0.9998    7.4722   11.4891 H   0  0  0  0  0  0  0  0  0  0  0  0
  1  5  1  0  0  0  0
  1  4  1  0  0  0  0
  2  1  1  0  0  0  0
  3  1  1  0  0  0  0
  4 12  1  6  0  0  0
  4  7  1  0  0  0  0
  5  9  1  6  0  0  0
  5  8  1  0  0  0  0
  6 11  1  0  0  0  0
  6 10  1  0  0  0  0
  7 14  1  0  0  0  0
  7 13  1  0  0  0  0
  8  7  1  0  0  0  0
  8 16  1  0  0  0  0
  8 15  1  0  0  0  0
  9 10  1  0  0  0  0
  9 18  1  0  0  0  0
 10 19  1  0  0  0  0
 11 12  1  0  0  0  0
 11 22  1  0  0  0  0
 12 23  1  0  0  0  0
 17  9  1  0  0  0  0
 20 10  1  0  0  0  0
 21 11  1  0  0  0  0
 24 12  1  0  0  0  0
M  END
$$$$
