CSD_code = FAPNUF | q = 1 | S = 0 | Stoichiometry = C3H13Cl2N4O2Pt(1+) | MND = 6
 OpenBabel04212202033D

 25 25  0  0  1  0  0  0  0  0999 V2000
    0.1722    2.0651    2.9399 Pt  0  0  0  0  0  0  0  0  0  0  0  0
    1.2407    0.2503    1.8200 Cl  0  0  0  0  0  0  0  0  0  0  0  0
   -0.8456    3.9265    4.0248 Cl  0  0  0  0  0  0  0  0  0  0  0  0
   -1.6542    0.7500    3.5118 N   0  0  0  0  0  4  0  0  0  0  0  0
   -1.0119    2.3266    1.2577 N   0  0  0  0  0  4  0  0  0  0  0  0
    1.6015    3.2673    2.2744 N   0  0  0  0  0  0  0  0  0  0  0  0
    1.2775    1.6742    4.6971 N   0  0  0  0  0  4  0  0  0  0  0  0
    2.5493    3.3706    2.9722 O   0  0  0  0  0  0  0  0  0  0  0  0
    1.3392    3.7591    1.2316 O   0  0  0  0  0  0  0  0  0  0  0  0
   -2.3889    0.5851    2.2480 C   0  0  0  0  0  0  0  0  0  0  0  0
   -2.4133    1.9224    1.5014 C   0  0  2  0  0  0  0  0  0  0  0  0
   -3.1709    1.8228    0.1831 C   0  0  0  0  0  0  0  0  0  0  0  0
   -2.2184    1.2862    4.1719 H   0  0  0  0  0  0  0  0  0  0  0  0
   -1.4665   -0.1617    3.9226 H   0  0  0  0  0  0  0  0  0  0  0  0
   -3.4134    0.2391    2.4175 H   0  0  0  0  0  0  0  0  0  0  0  0
   -1.8647   -0.1601    1.6432 H   0  0  0  0  0  0  0  0  0  0  0  0
   -2.8676    2.6863    2.1432 H   0  0  0  0  0  0  0  0  0  0  0  0
   -0.9856    3.2868    0.8991 H   0  0  0  0  0  0  0  0  0  0  0  0
   -0.6120    1.7185    0.5306 H   0  0  0  0  0  0  0  0  0  0  0  0
   -2.7371    1.0561   -0.4545 H   0  0  0  0  0  0  0  0  0  0  0  0
   -3.1509    2.7718   -0.3461 H   0  0  0  0  0  0  0  0  0  0  0  0
   -4.2100    1.5656    0.3645 H   0  0  0  0  0  0  0  0  0  0  0  0
    1.4283    0.6708    4.8252 H   0  0  0  0  0  0  0  0  0  0  0  0
    0.7887    2.0464    5.5156 H   0  0  0  0  0  0  0  0  0  0  0  0
    2.2005    2.1219    4.6609 H   0  0  0  0  0  0  0  0  0  0  0  0
  1  4  1  0  0  0  0
  1  3  1  0  0  0  0
  1  7  1  0  0  0  0
  2  1  1  0  0  0  0
  4 14  1  0  0  0  0
  4 13  1  0  0  0  0
  5 11  1  0  0  0  0
  5  1  1  0  0  0  0
  6  1  1  0  0  0  0
  6  8  2  0  0  0  0
  7 23  1  0  0  0  0
  7 24  1  0  0  0  0
  9  6  2  0  0  0  0
 10 15  1  0  0  0  0
 10  4  1  0  0  0  0
 11 17  1  1  0  0  0
 11 10  1  0  0  0  0
 12 22  1  0  0  0  0
 12 11  1  0  0  0  0
 16 10  1  0  0  0  0
 18  5  1  0  0  0  0
 19  5  1  0  0  0  0
 20 12  1  0  0  0  0
 21 12  1  0  0  0  0
 25  7  1  0  0  0  0
M  END
$$$$
