CSD_code = FAPRUL | q = 0 | S = 0 | Stoichiometry = C13H20ClN2O3Re | MND = 6
 OpenBabel04212202033D

 40 40  0  0  0  0  0  0  0  0999 V2000
    2.7212    7.1302   16.4432 Re  0  0  0  0  0  0  0  0  0  0  0  0
    4.5279    8.1780   17.5707 Cl  0  0  0  0  0  0  0  0  0  0  0  0
    3.7046    5.4480   16.4954 C   0  0  0  0  0  2  0  0  0  0  0  0
    4.3627    4.5100   16.5100 O   0  0  0  0  0  1  0  0  0  0  0  0
    3.6279    7.4154   14.7416 C   0  0  0  0  0  2  0  0  0  0  0  0
    4.2344    7.5576   13.7795 O   0  0  0  0  0  1  0  0  0  0  0  0
    1.1539    6.3417   15.6115 C   0  0  0  0  0  2  0  0  0  0  0  0
    0.2063    5.8927   15.1405 O   0  0  0  0  0  1  0  0  0  0  0  0
    1.8045    9.1087   16.6709 N   0  0  0  0  0  0  0  0  0  0  0  0
    1.8621    7.0759   18.4610 N   0  0  0  0  0  0  0  0  0  0  0  0
    1.5619    8.2585   18.8514 C   0  0  0  0  0  0  0  0  0  0  0  0
    1.2816    8.4985   19.8722 H   0  0  0  0  0  0  0  0  0  0  0  0
    1.5321    9.3373   17.9016 C   0  0  0  0  0  0  0  0  0  0  0  0
    1.2331   10.3106   18.2776 H   0  0  0  0  0  0  0  0  0  0  0  0
    1.8246    5.9598   19.3987 C   0  0  0  0  0  0  0  0  0  0  0  0
    1.2456    4.7440   18.6644 C   0  0  0  0  0  0  0  0  0  0  0  0
    0.2259    4.9477   18.3437 H   0  0  0  0  0  0  0  0  0  0  0  0
    1.2372    3.8831   19.3273 H   0  0  0  0  0  0  0  0  0  0  0  0
    1.8385    4.4977   17.7866 H   0  0  0  0  0  0  0  0  0  0  0  0
    3.2683    5.6800   19.8394 C   0  0  0  0  0  0  0  0  0  0  0  0
    3.9054    5.4973   18.9781 H   0  0  0  0  0  0  0  0  0  0  0  0
    3.2944    4.8069   20.4859 H   0  0  0  0  0  0  0  0  0  0  0  0
    3.6707    6.5343   20.3806 H   0  0  0  0  0  0  0  0  0  0  0  0
    0.9637    6.2205   20.6427 C   0  0  0  0  0  0  0  0  0  0  0  0
    1.4187    6.9473   21.3124 H   0  0  0  0  0  0  0  0  0  0  0  0
    0.8607    5.2905   21.1953 H   0  0  0  0  0  0  0  0  0  0  0  0
   -0.0328    6.5602   20.3635 H   0  0  0  0  0  0  0  0  0  0  0  0
    1.7058   10.1776   15.6839 C   0  0  0  0  0  0  0  0  0  0  0  0
    0.8430   11.3649   16.1336 C   0  0  0  0  0  0  0  0  0  0  0  0
   -0.1367   11.0307   16.4725 H   0  0  0  0  0  0  0  0  0  0  0  0
    0.6981   12.0294   15.2860 H   0  0  0  0  0  0  0  0  0  0  0  0
    1.3204   11.9435   16.9218 H   0  0  0  0  0  0  0  0  0  0  0  0
    3.1295   10.6767   15.3996 C   0  0  0  0  0  0  0  0  0  0  0  0
    3.5663   11.1058   16.2994 H   0  0  0  0  0  0  0  0  0  0  0  0
    3.1061   11.4346   14.6212 H   0  0  0  0  0  0  0  0  0  0  0  0
    3.7669    9.8592   15.0734 H   0  0  0  0  0  0  0  0  0  0  0  0
    1.0823    9.5885   14.4122 C   0  0  0  0  0  0  0  0  0  0  0  0
    1.6716    8.7546   14.0377 H   0  0  0  0  0  0  0  0  0  0  0  0
    1.0326   10.3507   13.6394 H   0  0  0  0  0  0  0  0  0  0  0  0
    0.0746    9.2324   14.6168 H   0  0  0  0  0  0  0  0  0  0  0  0
  1  3  1  0  0  0  0
  1  9  1  0  0  0  0
  1  2  1  0  0  0  0
  1 10  1  0  0  0  0
  3  4  1  0  0  0  0
  5  1  1  0  0  0  0
  6  5  1  0  0  0  0
  7  1  1  0  0  0  0
  8  7  1  0  0  0  0
  9 13  1  0  0  0  0
 10 11  1  0  0  0  0
 10 15  1  0  0  0  0
 11 12  1  0  0  0  0
 13 14  1  0  0  0  0
 13 11  2  0  0  0  0
 15 20  1  0  0  0  0
 15 24  1  0  0  0  0
 16 18  1  0  0  0  0
 16 15  1  0  0  0  0
 17 16  1  0  0  0  0
 19 16  1  0  0  0  0
 20 23  1  0  0  0  0
 20 22  1  0  0  0  0
 21 20  1  0  0  0  0
 24 26  1  0  0  0  0
 24 25  1  0  0  0  0
 27 24  1  0  0  0  0
 28 29  1  0  0  0  0
 28  9  1  0  0  0  0
 29 30  1  0  0  0  0
 29 32  1  0  0  0  0
 31 29  1  0  0  0  0
 33 28  1  0  0  0  0
 33 34  1  0  0  0  0
 35 33  1  0  0  0  0
 36 33  1  0  0  0  0
 37 40  1  0  0  0  0
 37 28  1  0  0  0  0
 38 37  1  0  0  0  0
 39 37  1  0  0  0  0
M  END
$$$$
