CSD_code = FAPTEW | q = 0 | S = 0 | Stoichiometry = C28H28Cl2NP2STc | MND = 6
 OpenBabel04212202033D

 63 68  0  0  0  0  0  0  0  0999 V2000
    1.9811    6.4797    8.5640 Tc  0  0  0  0  0  0  0  0  0  0  0  0
    3.8848    5.1748    8.3405 Cl  0  0  0  0  0  0  0  0  0  0  0  0
    0.7576    4.7074    7.7716 Cl  0  0  0  0  0  0  0  0  0  0  0  0
    2.3644    6.6839    5.6953 S   0  0  0  0  0  3  0  0  0  0  0  0
    0.1019    7.8067    7.9157 P   0  0  0  0  0  4  0  0  0  0  0  0
    3.7241    8.1012    8.3400 P   0  0  0  0  0  4  0  0  0  0  0  0
    1.7056    6.6977   10.2311 N   0  0  0  0  0  1  0  0  0  0  0  0
    0.3637    8.5640    6.2490 C   0  0  0  0  0  0  0  0  0  0  0  0
   -0.5588    9.0371    5.9001 H   0  0  0  0  0  0  0  0  0  0  0  0
    1.1173    9.3506    6.3819 H   0  0  0  0  0  0  0  0  0  0  0  0
    0.8191    7.5307    5.2313 C   0  0  0  0  0  0  0  0  0  0  0  0
    0.9626    7.9703    4.2417 H   0  0  0  0  0  0  0  0  0  0  0  0
    0.0945    6.7162    5.1607 H   0  0  0  0  0  0  0  0  0  0  0  0
    3.6080    8.0231    5.5273 C   0  0  0  0  0  0  0  0  0  0  0  0
    4.1426    7.8544    4.5897 H   0  0  0  0  0  0  0  0  0  0  0  0
    3.0698    8.9684    5.4670 H   0  0  0  0  0  0  0  0  0  0  0  0
    4.5732    7.9906    6.7034 C   0  0  0  0  0  0  0  0  0  0  0  0
    5.3108    8.7940    6.6137 H   0  0  0  0  0  0  0  0  0  0  0  0
    5.1055    7.0329    6.7218 H   0  0  0  0  0  0  0  0  0  0  0  0
   -0.3624    9.2442    8.9379 C   0  0  0  0  0  0  0  0  0  0  0  0
   -0.3345    9.0512   10.3166 C   0  0  0  0  0  0  0  0  0  0  0  0
    0.0431    8.1103   10.6978 H   0  0  0  0  0  0  0  0  0  0  0  0
   -0.7398   10.0587   11.1709 C   0  0  0  0  0  0  0  0  0  0  0  0
   -0.7177    9.8993   12.2384 H   0  0  0  0  0  0  0  0  0  0  0  0
   -1.1655   11.2736   10.6575 C   0  0  0  0  0  0  0  0  0  0  0  0
   -1.4804   12.0648   11.3220 H   0  0  0  0  0  0  0  0  0  0  0  0
   -1.1816   11.4746    9.2885 C   0  0  0  0  0  0  0  0  0  0  0  0
   -1.5065   12.4225    8.8846 H   0  0  0  0  0  0  0  0  0  0  0  0
   -0.7905   10.4639    8.4273 C   0  0  0  0  0  0  0  0  0  0  0  0
   -0.8221   10.6456    7.3638 H   0  0  0  0  0  0  0  0  0  0  0  0
   -1.5145    6.9721    7.8213 C   0  0  0  0  0  0  0  0  0  0  0  0
   -1.8205    6.1846    8.9306 C   0  0  0  0  0  0  0  0  0  0  0  0
   -1.0830    6.0871    9.7184 H   0  0  0  0  0  0  0  0  0  0  0  0
   -3.0237    5.5106    8.9927 C   0  0  0  0  0  0  0  0  0  0  0  0
   -3.2518    4.8933    9.8483 H   0  0  0  0  0  0  0  0  0  0  0  0
   -3.9297    5.6139    7.9479 C   0  0  0  0  0  0  0  0  0  0  0  0
   -4.8672    5.0795    7.9892 H   0  0  0  0  0  0  0  0  0  0  0  0
   -3.6282    6.3933    6.8453 C   0  0  0  0  0  0  0  0  0  0  0  0
   -4.3298    6.4679    6.0270 H   0  0  0  0  0  0  0  0  0  0  0  0
   -2.4244    7.0755    6.7774 C   0  0  0  0  0  0  0  0  0  0  0  0
   -2.2100    7.6716    5.9018 H   0  0  0  0  0  0  0  0  0  0  0  0
    3.2784    9.8624    8.5299 C   0  0  0  0  0  0  0  0  0  0  0  0
    3.4711   10.8778    7.6024 C   0  0  0  0  0  0  0  0  0  0  0  0
    3.9551   10.6848    6.6549 H   0  0  0  0  0  0  0  0  0  0  0  0
    3.0513   12.1663    7.8918 C   0  0  0  0  0  0  0  0  0  0  0  0
    3.1983   12.9515    7.1640 H   0  0  0  0  0  0  0  0  0  0  0  0
    2.4541   12.4507    9.1068 C   0  0  0  0  0  0  0  0  0  0  0  0
    2.1325   13.4580    9.3256 H   0  0  0  0  0  0  0  0  0  0  0  0
    2.2733   11.4435   10.0428 C   0  0  0  0  0  0  0  0  0  0  0  0
    1.8146   11.6643   10.9940 H   0  0  0  0  0  0  0  0  0  0  0  0
    2.6723   10.1551    9.7510 C   0  0  0  0  0  0  0  0  0  0  0  0
    2.5211    9.3437   10.4522 H   0  0  0  0  0  0  0  0  0  0  0  0
    5.1060    8.0231    9.5188 C   0  0  0  0  0  0  0  0  0  0  0  0
    6.2556    8.7838    9.3244 C   0  0  0  0  0  0  0  0  0  0  0  0
    6.3504    9.4264    8.4598 H   0  0  0  0  0  0  0  0  0  0  0  0
    7.2833    8.7281   10.2475 C   0  0  0  0  0  0  0  0  0  0  0  0
    8.1787    9.3116   10.0889 H   0  0  0  0  0  0  0  0  0  0  0  0
    7.1650    7.9284   11.3727 C   0  0  0  0  0  0  0  0  0  0  0  0
    7.9735    7.8834   12.0873 H   0  0  0  0  0  0  0  0  0  0  0  0
    6.0088    7.1952   11.5830 C   0  0  0  0  0  0  0  0  0  0  0  0
    5.9105    6.5805   12.4648 H   0  0  0  0  0  0  0  0  0  0  0  0
    4.9768    7.2435   10.6627 C   0  0  0  0  0  0  0  0  0  0  0  0
    4.0665    6.6761   10.8136 H   0  0  0  0  0  0  0  0  0  0  0  0
  1  7  1  0  0  0  0
  2  1  1  0  0  0  0
  3  1  1  0  0  0  0
  4  1  1  0  0  0  0
  5  1  1  0  0  0  0
  5 20  1  0  0  0  0
  6 42  1  0  0  0  0
  6  1  1  0  0  0  0
  6 53  1  0  0  0  0
  8 10  1  0  0  0  0
  8  5  1  0  0  0  0
  9  8  1  0  0  0  0
 11  4  1  0  0  0  0
 11  8  1  0  0  0  0
 12 11  1  0  0  0  0
 13 11  1  0  0  0  0
 14  4  1  0  0  0  0
 14 17  1  0  0  0  0
 15 14  1  0  0  0  0
 16 14  1  0  0  0  0
 17 19  1  0  0  0  0
 17  6  1  0  0  0  0
 18 17  1  0  0  0  0
 20 21  1  0  0  0  0
 21 22  1  0  0  0  0
 21 23  2  0  0  0  0
 23 24  1  0  0  0  0
 25 23  1  0  0  0  0
 25 26  1  0  0  0  0
 27 25  2  0  0  0  0
 28 27  1  0  0  0  0
 29 20  2  0  0  0  0
 29 27  1  0  0  0  0
 30 29  1  0  0  0  0
 31  5  1  0  0  0  0
 31 32  1  0  0  0  0
 32 34  2  0  0  0  0
 32 33  1  0  0  0  0
 34 35  1  0  0  0  0
 36 37  1  0  0  0  0
 36 34  1  0  0  0  0
 38 36  2  0  0  0  0
 39 38  1  0  0  0  0
 40 38  1  0  0  0  0
 40 31  2  0  0  0  0
 41 40  1  0  0  0  0
 42 51  1  0  0  0  0
 43 45  1  0  0  0  0
 43 42  2  0  0  0  0
 44 43  1  0  0  0  0
 45 47  2  0  0  0  0
 46 45  1  0  0  0  0
 47 48  1  0  0  0  0
 47 49  1  0  0  0  0
 49 50  1  0  0  0  0
 51 49  2  0  0  0  0
 51 52  1  0  0  0  0
 53 62  1  0  0  0  0
 54 53  2  0  0  0  0
 54 56  1  0  0  0  0
 55 54  1  0  0  0  0
 56 58  2  0  0  0  0
 57 56  1  0  0  0  0
 58 60  1  0  0  0  0
 58 59  1  0  0  0  0
 60 61  1  0  0  0  0
 62 63  1  0  0  0  0
 62 60  2  0  0  0  0
M  END
$$$$
