CSD_code = FAPWAW | q = 0 | S = 0 | Stoichiometry = C23H36ClIrNPSi | MND = 5
 OpenBabel04212202033D

 64 67  0  0  0  0  0  0  0  0999 V2000
    0.1710    1.0211    5.8958 Ir  0  0  0  0  0  0  0  0  0  0  0  0
   -0.5492    1.3025    7.2260 H   0  0  0  0  0  0  0  0  0  0  0  0
    0.6361    0.7964    3.5940 Cl  0  0  0  0  0  0  0  0  0  0  0  0
    1.5797    2.7598    6.4092 P   0  0  0  0  0  4  0  0  0  0  0  0
    1.6047   -0.3260    7.1105 Si  0  0  1  0  0  0  0  0  0  0  0  0
   -1.0379   -0.8989    5.8169 N   0  0  0  0  0  4  0  0  0  0  0  0
    2.9900   -1.4772    6.4001 C   0  0  0  0  0  0  0  0  0  0  0  0
    3.9789   -1.1570    6.7120 H   0  0  0  0  0  0  0  0  0  0  0  0
    2.9739   -1.4779    5.3154 H   0  0  0  0  0  0  0  0  0  0  0  0
    2.8444   -2.5001    6.7351 H   0  0  0  0  0  0  0  0  0  0  0  0
    2.4614    0.9174    8.3001 C   0  0  0  0  0  0  0  0  0  0  0  0
    2.4256    2.2788    7.9713 C   0  0  0  0  0  0  0  0  0  0  0  0
    3.0476    3.1988    8.8068 C   0  0  0  0  0  0  0  0  0  0  0  0
    3.0334    4.2507    8.5675 H   0  0  0  0  0  0  0  0  0  0  0  0
    3.6942    2.7859    9.9602 C   0  0  0  0  0  0  0  0  0  0  0  0
    4.1658    3.5152   10.6032 H   0  0  0  0  0  0  0  0  0  0  0  0
    3.7393    1.4415   10.2817 C   0  0  0  0  0  0  0  0  0  0  0  0
    4.2473    1.1143   11.1773 H   0  0  0  0  0  0  0  0  0  0  0  0
    3.1291    0.5195    9.4476 C   0  0  0  0  0  0  0  0  0  0  0  0
    3.1725   -0.5307    9.6948 H   0  0  0  0  0  0  0  0  0  0  0  0
    0.2475   -1.4877    7.8161 C   0  0  0  0  0  0  0  0  0  0  0  0
   -0.9492   -1.5762    7.0989 C   0  0  0  0  0  0  0  0  0  0  0  0
   -1.9896   -2.3532    7.5844 C   0  0  0  0  0  0  0  0  0  0  0  0
   -2.9207   -2.4384    7.0445 H   0  0  0  0  0  0  0  0  0  0  0  0
   -1.8530   -3.0364    8.7827 C   0  0  0  0  0  0  0  0  0  0  0  0
   -2.6754   -3.6308    9.1532 H   0  0  0  0  0  0  0  0  0  0  0  0
   -0.6704   -2.9612    9.4932 C   0  0  0  0  0  0  0  0  0  0  0  0
   -0.5618   -3.4956   10.4255 H   0  0  0  0  0  0  0  0  0  0  0  0
    0.3698   -2.1891    9.0033 C   0  0  0  0  0  0  0  0  0  0  0  0
    1.2918   -2.1200    9.5594 H   0  0  0  0  0  0  0  0  0  0  0  0
    3.0707    3.1225    5.2873 C   0  0  0  0  0  0  0  0  0  0  0  0
    3.7093    1.7545    5.0421 C   0  0  0  0  0  0  0  0  0  0  0  0
    4.0394    1.3088    5.9783 H   0  0  0  0  0  0  0  0  0  0  0  0
    4.5717    1.8604    4.3854 H   0  0  0  0  0  0  0  0  0  0  0  0
    2.9985    1.0864    4.5658 H   0  0  0  0  0  0  0  0  0  0  0  0
    2.5678    3.6769    3.9568 C   0  0  0  0  0  0  0  0  0  0  0  0
    2.1747    4.6862    4.0536 H   0  0  0  0  0  0  0  0  0  0  0  0
    1.7913    3.0293    3.5565 H   0  0  0  0  0  0  0  0  0  0  0  0
    3.3842    3.7037    3.2358 H   0  0  0  0  0  0  0  0  0  0  0  0
    4.1361    4.0370    5.8894 C   0  0  0  0  0  0  0  0  0  0  0  0
    4.5395    3.6120    6.8051 H   0  0  0  0  0  0  0  0  0  0  0  0
    3.7664    5.0354    6.0937 H   0  0  0  0  0  0  0  0  0  0  0  0
    4.9543    4.1283    5.1749 H   0  0  0  0  0  0  0  0  0  0  0  0
    0.5973    4.3537    6.7748 C   0  0  0  0  0  0  0  0  0  0  0  0
   -0.0358    4.1942    8.1580 C   0  0  0  0  0  0  0  0  0  0  0  0
   -0.4742    3.2043    8.2588 H   0  0  0  0  0  0  0  0  0  0  0  0
   -0.8198    4.9382    8.2933 H   0  0  0  0  0  0  0  0  0  0  0  0
    0.6973    4.3223    8.9494 H   0  0  0  0  0  0  0  0  0  0  0  0
   -0.5097    4.3531    5.7152 C   0  0  0  0  0  0  0  0  0  0  0  0
   -0.0954    4.4529    4.7142 H   0  0  0  0  0  0  0  0  0  0  0  0
   -1.2038    5.1758    5.8848 H   0  0  0  0  0  0  0  0  0  0  0  0
   -1.0690    3.4165    5.7639 H   0  0  0  0  0  0  0  0  0  0  0  0
    1.3269    5.6949    6.7165 C   0  0  0  0  0  0  0  0  0  0  0  0
    1.7386    5.8915    5.7307 H   0  0  0  0  0  0  0  0  0  0  0  0
    2.1207    5.7627    7.4550 H   0  0  0  0  0  0  0  0  0  0  0  0
    0.6096    6.4867    6.9363 H   0  0  0  0  0  0  0  0  0  0  0  0
   -0.5766   -1.8541    4.8041 C   0  0  0  0  0  0  0  0  0  0  0  0
   -0.5231   -1.3659    3.8324 H   0  0  0  0  0  0  0  0  0  0  0  0
   -1.2584   -2.7113    4.7398 H   0  0  0  0  0  0  0  0  0  0  0  0
    0.4169   -2.2122    5.0643 H   0  0  0  0  0  0  0  0  0  0  0  0
   -2.3879   -0.4534    5.4674 C   0  0  0  0  0  0  0  0  0  0  0  0
   -2.3268    0.1927    4.5892 H   0  0  0  0  0  0  0  0  0  0  0  0
   -2.8187    0.1073    6.2965 H   0  0  0  0  0  0  0  0  0  0  0  0
   -3.0532   -1.2880    5.2137 H   0  0  0  0  0  0  0  0  0  0  0  0
  1  4  1  0  0  0  0
  1  5  1  0  0  0  0
  1  2  1  0  0  0  0
  3  1  1  0  0  0  0
  4 44  1  0  0  0  0
  4 12  1  0  0  0  0
  5  7  1  6  0  0  0
  5 21  1  0  0  0  0
  5 11  1  0  0  0  0
  6  1  1  0  0  0  0
  6 22  1  0  0  0  0
  7  8  1  0  0  0  0
  7 10  1  0  0  0  0
  9  7  1  0  0  0  0
 11 19  1  0  0  0  0
 12 11  2  0  0  0  0
 12 13  1  0  0  0  0
 13 15  2  0  0  0  0
 14 13  1  0  0  0  0
 15 17  1  0  0  0  0
 15 16  1  0  0  0  0
 17 18  1  0  0  0  0
 19 20  1  0  0  0  0
 19 17  2  0  0  0  0
 21 29  1  0  0  0  0
 22 23  1  0  0  0  0
 22 21  2  0  0  0  0
 23 25  2  0  0  0  0
 24 23  1  0  0  0  0
 25 26  1  0  0  0  0
 25 27  1  0  0  0  0
 27 28  1  0  0  0  0
 29 27  2  0  0  0  0
 29 30  1  0  0  0  0
 31 40  1  0  0  0  0
 31  4  1  0  0  0  0
 32 31  1  0  0  0  0
 32 33  1  0  0  0  0
 34 32  1  0  0  0  0
 35 32  1  0  0  0  0
 36 37  1  0  0  0  0
 36 31  1  0  0  0  0
 38 36  1  0  0  0  0
 39 36  1  0  0  0  0
 40 42  1  0  0  0  0
 40 41  1  0  0  0  0
 43 40  1  0  0  0  0
 44 45  1  0  0  0  0
 45 46  1  0  0  0  0
 45 47  1  0  0  0  0
 45 48  1  0  0  0  0
 49 52  1  0  0  0  0
 49 51  1  0  0  0  0
 49 44  1  0  0  0  0
 50 49  1  0  0  0  0
 53 44  1  0  0  0  0
 53 56  1  0  0  0  0
 53 55  1  0  0  0  0
 54 53  1  0  0  0  0
 57 60  1  0  0  0  0
 57  6  1  0  0  0  0
 58 57  1  0  0  0  0
 59 57  1  0  0  0  0
 61  6  1  0  0  0  0
 61 63  1  0  0  0  0
 62 61  1  0  0  0  0
 64 61  1  0  0  0  0
M  END
$$$$
