CSD_code = FAQLUG | q = 0 | S = 0 | Stoichiometry = C18H12Cl2N4O2Ru | MND = 6
 OpenBabel04212202033D

 39 44  0  0  1  0  0  0  0  0999 V2000
    5.3717   13.8853    2.9030 Ru  0  0  0  0  0  0  0  0  0  0  0  0
    4.6774   13.0522    4.9523 Cl  0  0  0  0  0  0  0  0  0  0  0  0
    6.4883   14.3432    0.9231 Cl  0  0  0  0  0  0  0  0  0  0  0  0
    1.9354   12.5984    1.2660 O   0  0  0  0  0  0  0  0  0  0  0  0
    5.9970   17.6727    4.0912 O   0  0  0  0  0  0  0  0  0  0  0  0
    5.2992   11.9382    2.2361 N   0  0  0  0  0  0  0  0  0  0  0  0
    3.6075   13.9234    2.1746 N   0  0  0  0  0  0  0  0  0  0  0  0
    5.0305   15.7241    3.2874 N   0  0  0  0  0  0  0  0  0  0  0  0
    7.1500   14.3106    3.8499 N   0  0  0  0  0  0  0  0  0  0  0  0
    6.2153   10.9774    2.2004 C   0  0  0  0  0  3  0  0  0  0  0  0
    7.1949   11.2318    2.5837 H   0  0  0  0  0  0  0  0  0  0  0  0
    5.9671    9.7132    1.6942 C   0  0  0  0  0  0  0  0  0  0  0  0
    6.7514    8.9732    1.6926 H   0  0  0  0  0  0  0  0  0  0  0  0
    4.7051    9.4217    1.1967 C   0  0  0  0  0  0  0  0  0  0  0  0
    4.4763    8.4439    0.8020 H   0  0  0  0  0  0  0  0  0  0  0  0
    3.7528   10.4232    1.2102 C   0  0  0  0  0  0  0  0  0  0  0  0
    2.7540   10.2814    0.8268 H   0  0  0  0  0  0  0  0  0  0  0  0
    4.0819   11.6701    1.7301 C   0  0  0  0  0  0  0  0  0  0  0  0
    3.0618   12.7711    1.6922 C   0  0  0  0  0  0  0  0  0  0  0  0
    2.9930   15.1391    2.2708 C   0  0  0  0  0  0  0  0  0  0  0  0
    1.7013   15.4543    1.8293 C   0  0  0  0  0  0  0  0  0  0  0  0
    1.0982   14.6864    1.3724 H   0  0  0  0  0  0  0  0  0  0  0  0
    1.2279   16.7367    1.9872 C   0  0  0  0  0  0  0  0  0  0  0  0
    0.2330   16.9806    1.6466 H   0  0  0  0  0  0  0  0  0  0  0  0
    2.0146   17.7279    2.5796 C   0  0  0  0  0  0  0  0  0  0  0  0
    1.6183   18.7261    2.6890 H   0  0  0  0  0  0  0  0  0  0  0  0
    3.2863   17.4523    3.0272 C   0  0  0  0  0  0  0  0  0  0  0  0
    3.8967   18.2136    3.4853 H   0  0  0  0  0  0  0  0  0  0  0  0
    3.7993   16.1563    2.8849 C   0  0  0  0  0  0  0  0  0  0  0  0
    6.0161   16.4807    3.8479 C   0  0  0  0  0  0  0  0  0  0  0  0
    7.2007   15.6161    4.1699 C   0  0  1  0  0  3  0  0  0  0  0  0
    8.2944   16.1791    4.8182 C   0  0  0  0  0  0  0  0  0  0  0  0
    8.2652   17.2353    5.0379 H   0  0  0  0  0  0  0  0  0  0  0  0
    9.3663   15.3765    5.1603 C   0  0  0  0  0  0  0  0  0  0  0  0
   10.2293   15.7872    5.6611 H   0  0  0  0  0  0  0  0  0  0  0  0
    9.2960   14.0256    4.8518 C   0  0  0  0  0  0  0  0  0  0  0  0
   10.0978   13.3524    5.1102 H   0  0  0  0  0  0  0  0  0  0  0  0
    8.1747   13.5417    4.2003 C   0  0  0  0  0  0  0  0  0  0  0  0
    8.0918   12.4900    3.9587 H   0  0  0  0  0  0  0  0  0  0  0  0
  1  8  1  0  0  0  0
  1  9  1  0  0  0  0
  1  2  1  0  0  0  0
  3  1  1  0  0  0  0
  4 19  2  0  0  0  0
  6  1  1  0  0  0  0
  7 20  1  0  0  0  0
  7  1  1  0  0  0  0
  8 30  1  0  0  0  0
  9 31  1  0  0  0  0
  9 38  1  0  0  0  0
 10  6  1  0  0  0  0
 10 11  1  0  0  0  0
 12 10  1  0  0  0  0
 13 12  1  0  0  0  0
 14 16  1  0  0  0  0
 14 12  2  0  0  0  0
 15 14  1  0  0  0  0
 16 18  2  0  0  0  0
 17 16  1  0  0  0  0
 18  6  1  0  0  0  0
 19 18  1  0  0  0  0
 19  7  1  0  0  0  0
 20 29  1  0  0  0  0
 21 23  1  0  0  0  0
 21 20  2  0  0  0  0
 22 21  1  0  0  0  0
 23 25  2  0  0  0  0
 24 23  1  0  0  0  0
 25 26  1  0  0  0  0
 25 27  1  0  0  0  0
 27 28  1  0  0  0  0
 29 27  2  0  0  0  0
 29  8  1  0  0  0  0
 30  5  2  0  0  0  0
 31 30  1  1  0  0  0
 31 32  1  0  0  0  0
 32 33  1  0  0  0  0
 32 34  2  0  0  0  0
 34 35  1  0  0  0  0
 36 37  1  0  0  0  0
 36 34  1  0  0  0  0
 38 36  2  0  0  0  0
 39 38  1  0  0  0  0
M  END
$$$$
