CSD_code = FASBOQ | q = 0 | S = 0 | Stoichiometry = C14H14Cl2N2Pt | MND = 4
 OpenBabel04212202033D

 33 34  0  0  0  0  0  0  0  0999 V2000
   -0.7108    1.5838    1.6633 Pt  0  0  0  0  0  0  0  0  0  0  0  0
    0.8530    0.8994    3.1210 Cl  0  0  0  0  0  0  0  0  0  0  0  0
   -1.6543   -0.4530    1.6317 Cl  0  0  0  0  0  0  0  0  0  0  0  0
   -2.1282    2.1543    0.3550 N   0  0  0  0  0  0  0  0  0  0  0  0
    0.1563    3.3971    1.7205 N   0  0  0  0  0  0  0  0  0  0  0  0
   -2.3027    1.4578   -0.7721 C   0  0  0  0  0  3  0  0  0  0  0  0
   -3.3574    1.6863   -1.6290 C   0  0  0  0  0  0  0  0  0  0  0  0
   -4.3046    2.6728   -1.3349 C   0  0  0  0  0  0  0  0  0  0  0  0
   -4.1014    3.3940   -0.1525 C   0  0  0  0  0  0  0  0  0  0  0  0
   -3.0188    3.1067    0.6479 C   0  0  0  0  0  0  0  0  0  0  0  0
   -5.4222    2.8934   -2.2372 C   0  0  0  0  0  0  0  0  0  0  0  0
   -6.3832    3.7999   -2.0905 C   0  0  0  0  0  0  0  0  0  0  0  0
    0.6731    3.9705    0.6301 C   0  0  0  0  0  3  0  0  0  0  0  0
    1.4019    5.1378    0.6765 C   0  0  0  0  0  0  0  0  0  0  0  0
    1.6291    5.7766    1.9016 C   0  0  0  0  0  0  0  0  0  0  0  0
    1.0752    5.1645    3.0306 C   0  0  0  0  0  0  0  0  0  0  0  0
    0.3607    3.9939    2.8996 C   0  0  0  0  0  0  0  0  0  0  0  0
    2.4064    7.0037    1.9417 C   0  0  0  0  0  0  0  0  0  0  0  0
    2.7040    7.7083    3.0288 C   0  0  0  0  0  0  0  0  0  0  0  0
   -1.5735    0.6849   -0.9771 H   0  0  0  0  0  0  0  0  0  0  0  0
   -3.4533    1.0912   -2.5240 H   0  0  0  0  0  0  0  0  0  0  0  0
   -4.7876    4.1682    0.1489 H   0  0  0  0  0  0  0  0  0  0  0  0
   -2.8558    3.6530    1.5694 H   0  0  0  0  0  0  0  0  0  0  0  0
   -5.4417    2.2363   -3.0972 H   0  0  0  0  0  0  0  0  0  0  0  0
   -7.1778    3.8897   -2.8104 H   0  0  0  0  0  0  0  0  0  0  0  0
   -6.4220    4.4820   -1.2586 H   0  0  0  0  0  0  0  0  0  0  0  0
    0.4989    3.4654   -0.3125 H   0  0  0  0  0  0  0  0  0  0  0  0
    1.8036    5.5525   -0.2355 H   0  0  0  0  0  0  0  0  0  0  0  0
    1.2061    5.5906    4.0113 H   0  0  0  0  0  0  0  0  0  0  0  0
   -0.0578    3.4978    3.7655 H   0  0  0  0  0  0  0  0  0  0  0  0
    2.7620    7.3432    0.9770 H   0  0  0  0  0  0  0  0  0  0  0  0
    3.2907    8.6081    2.9655 H   0  0  0  0  0  0  0  0  0  0  0  0
    2.3841    7.4224    4.0159 H   0  0  0  0  0  0  0  0  0  0  0  0
  1  5  1  0  0  0  0
  1  2  1  0  0  0  0
  3  1  1  0  0  0  0
  4 10  1  0  0  0  0
  4  1  1  0  0  0  0
  5 17  1  0  0  0  0
  6  4  1  0  0  0  0
  7  8  2  0  0  0  0
  7  6  1  0  0  0  0
  8  9  1  0  0  0  0
  9 22  1  0  0  0  0
  9 10  2  0  0  0  0
 10 23  1  0  0  0  0
 11 12  2  0  0  0  0
 11  8  1  0  0  0  0
 12 26  1  0  0  0  0
 13 14  1  0  0  0  0
 13  5  1  0  0  0  0
 14 15  2  0  0  0  0
 15 18  1  0  0  0  0
 15 16  1  0  0  0  0
 16 29  1  0  0  0  0
 17 16  2  0  0  0  0
 17 30  1  0  0  0  0
 18 19  2  0  0  0  0
 19 33  1  0  0  0  0
 20  6  1  0  0  0  0
 21  7  1  0  0  0  0
 24 11  1  0  0  0  0
 25 12  1  0  0  0  0
 27 13  1  0  0  0  0
 28 14  1  0  0  0  0
 31 18  1  0  0  0  0
 32 19  1  0  0  0  0
M  END
$$$$
