CSD_code = FASGUE | q = 0 | S = 0 | Stoichiometry = C28H28BCl4N4RhS2 | MND = 8
 OpenBabel04212202033D

 68 71  0  0  1  0  0  0  0  0999 V2000
    2.4055    9.0015    4.8042 Rh  0  0  0  0  0  0  0  0  0  0  0  0
    0.4853    8.7500    6.2593 S   0  0  0  0  0  0  0  0  0  0  0  0
    2.1833    6.7025    4.1483 S   0  0  0  0  0  0  0  0  0  0  0  0
    3.8880    8.4797    6.5654 Cl  0  0  0  0  0 15  0  0  0  0  0  0
    0.6169    4.0831    7.9346 Cl  0  0  0  0  0  0  0  0  0  0  0  0
    0.7275   14.5828    9.6977 Cl  0  0  0  0  0  0  0  0  0  0  0  0
    8.2040    7.4323    1.2504 Cl  0  0  0  0  0  0  0  0  0  0  0  0
    1.1555    6.7601    8.0021 N   0  0  0  0  0  0  0  0  0  0  0  0
    1.1728    8.7679    8.8691 N   0  0  0  0  0  0  0  0  0  0  0  0
    2.5260    5.3782    6.4910 N   0  0  0  0  0  0  0  0  0  0  0  0
    4.3620    5.5962    5.3220 N   0  0  0  0  0  0  0  0  0  0  0  0
    1.0786    5.5821    6.9981 B   0  0  0  0  0  0  0  0  0  0  0  0
    0.3254    5.8015    6.1175 H   0  0  0  0  0  0  0  0  0  0  0  0
    3.1843   11.0348    4.4207 C   0  0  0  0  0  0  0  0  0  0  0  0
    1.7821   11.0524    4.1917 C   0  0  0  0  0  0  0  0  0  0  0  0
    1.4945   10.0792    3.1684 C   0  0  1  0  0  0  0  0  0  0  0  0
    2.7396    9.5584    2.6815 C   0  0  2  0  0  3  0  0  0  0  0  0
    3.7801   10.0937    3.4944 C   0  0  2  0  0  0  0  0  0  0  0  0
    3.9902   11.9402    5.2953 C   0  0  0  0  0  0  0  0  0  0  0  0
    4.6931   12.5034    4.6801 H   0  0  0  0  0  0  0  0  0  0  0  0
    4.5668   11.3668    6.0208 H   0  0  0  0  0  0  0  0  0  0  0  0
    3.3546   12.6398    5.8300 H   0  0  0  0  0  0  0  0  0  0  0  0
    0.7592   11.9555    4.7975 C   0  0  0  0  0  0  0  0  0  0  0  0
    0.0719   11.3931    5.4307 H   0  0  0  0  0  0  0  0  0  0  0  0
    0.1792   12.4244    4.0032 H   0  0  0  0  0  0  0  0  0  0  0  0
    1.2234   12.7311    5.3995 H   0  0  0  0  0  0  0  0  0  0  0  0
    0.1557    9.8624    2.5441 C   0  0  0  0  0  0  0  0  0  0  0  0
   -0.6300    9.9436    3.2914 H   0  0  0  0  0  0  0  0  0  0  0  0
    0.1013    8.8772    2.0883 H   0  0  0  0  0  0  0  0  0  0  0  0
   -0.0171   10.6143    1.7713 H   0  0  0  0  0  0  0  0  0  0  0  0
    2.8861    8.6909    1.4768 C   0  0  0  0  0  0  0  0  0  0  0  0
    2.5825    9.2552    0.5941 H   0  0  0  0  0  0  0  0  0  0  0  0
    2.2508    7.8099    1.5541 H   0  0  0  0  0  0  0  0  0  0  0  0
    3.9145    8.3638    1.3515 H   0  0  0  0  0  0  0  0  0  0  0  0
    5.2546    9.9418    3.3068 C   0  0  0  0  0  0  0  0  0  0  0  0
    5.4865    9.0984    2.6628 H   0  0  0  0  0  0  0  0  0  0  0  0
    5.7490    9.7900    4.2647 H   0  0  0  0  0  0  0  0  0  0  0  0
    5.6588   10.8497    2.8547 H   0  0  0  0  0  0  0  0  0  0  0  0
    1.0002    8.0603    7.7250 C   0  0  0  0  0  0  0  0  0  0  0  0
    1.4635    6.6460    9.3266 C   0  0  0  0  0  0  0  0  0  0  0  0
    1.6308    5.6870    9.7714 H   0  0  0  0  0  0  0  0  0  0  0  0
    1.4599    7.8821    9.8761 C   0  0  0  0  0  0  0  0  0  0  0  0
    1.6620    8.2079   10.8749 H   0  0  0  0  0  0  0  0  0  0  0  0
    1.0612   10.1601    9.0407 C   0  0  0  0  0  0  0  0  0  0  0  0
    1.7299   11.0345    8.1940 C   0  0  0  0  0  0  0  0  0  0  0  0
    2.3358   10.6410    7.3906 H   0  0  0  0  0  0  0  0  0  0  0  0
    1.6277   12.3965    8.4029 C   0  0  0  0  0  0  0  0  0  0  0  0
    2.1551   13.0918    7.7699 H   0  0  0  0  0  0  0  0  0  0  0  0
    0.8547   12.8789    9.4479 C   0  0  0  0  0  0  0  0  0  0  0  0
    0.1858   12.0106   10.2966 C   0  0  0  0  0  0  0  0  0  0  0  0
   -0.4127   12.3969   11.1061 H   0  0  0  0  0  0  0  0  0  0  0  0
    0.2934   10.6483   10.0922 C   0  0  0  0  0  0  0  0  0  0  0  0
   -0.2283    9.9616   10.7413 H   0  0  0  0  0  0  0  0  0  0  0  0
    3.0361    5.8726    5.3611 C   0  0  0  0  0  0  0  0  0  0  0  0
    3.5438    4.8011    7.1931 C   0  0  0  0  0  0  0  0  0  0  0  0
    3.3631    4.3237    8.1338 H   0  0  0  0  0  0  0  0  0  0  0  0
    4.6861    4.9374    6.4801 C   0  0  0  0  0  0  0  0  0  0  0  0
    5.6840    4.6092    6.6831 H   0  0  0  0  0  0  0  0  0  0  0  0
    5.2728    6.0254    4.3426 C   0  0  0  0  0  0  0  0  0  0  0  0
    4.9929    5.8451    2.9931 C   0  0  0  0  0  0  0  0  0  0  0  0
    4.0732    5.3700    2.6930 H   0  0  0  0  0  0  0  0  0  0  0  0
    5.8976    6.2774    2.0408 C   0  0  0  0  0  0  0  0  0  0  0  0
    5.6905    6.1394    0.9912 H   0  0  0  0  0  0  0  0  0  0  0  0
    7.0780    6.8844    2.4425 C   0  0  0  0  0  0  0  0  0  0  0  0
    7.3633    7.0654    3.7881 C   0  0  0  0  0  0  0  0  0  0  0  0
    8.2812    7.5468    4.0857 H   0  0  0  0  0  0  0  0  0  0  0  0
    6.4570    6.6370    4.7388 C   0  0  0  0  0  0  0  0  0  0  0  0
    6.6479    6.8011    5.7878 H   0  0  0  0  0  0  0  0  0  0  0  0
  2 39  2  0  0  0  0
  3 54  2  0  0  0  0
  7 64  1  0  0  0  0
  8 40  1  0  0  0  0
  9 44  1  0  0  0  0
  9 42  1  0  0  0  0
 10 12  1  0  0  0  0
 10 55  1  0  0  0  0
 11 54  1  0  0  0  0
 11 57  1  0  0  0  0
 12  5  1  0  0  0  0
 12  8  1  0  0  0  0
 13 12  1  0  0  0  0
 14 19  1  0  0  0  0
 15 14  2  0  0  0  0
 15 23  1  0  0  0  0
 16 27  1  6  0  0  0
 16 15  1  0  0  0  0
 16  1  1  0  0  0  0
 17 31  1  6  0  0  0
 17 16  1  0  0  0  0
 17 18  1  0  0  0  0
 18 35  1  6  0  0  0
 18 14  1  0  0  0  0
 18  1  1  0  0  0  0
 19 22  1  0  0  0  0
 19 21  1  0  0  0  0
 20 19  1  0  0  0  0
 23 26  1  0  0  0  0
 23 24  1  0  0  0  0
 25 23  1  0  0  0  0
 27 28  1  0  0  0  0
 29 27  1  0  0  0  0
 30 27  1  0  0  0  0
 31 33  1  0  0  0  0
 32 31  1  0  0  0  0
 34 31  1  0  0  0  0
 35 37  1  0  0  0  0
 36 35  1  0  0  0  0
 38 35  1  0  0  0  0
 39  8  1  0  0  0  0
 39  9  1  0  0  0  0
 40 41  1  0  0  0  0
 40 42  2  0  0  0  0
 42 43  1  0  0  0  0
 44 52  1  0  0  0  0
 45 47  1  0  0  0  0
 45 44  2  0  0  0  0
 46 45  1  0  0  0  0
 47 49  2  0  0  0  0
 48 47  1  0  0  0  0
 49  6  1  0  0  0  0
 49 50  1  0  0  0  0
 50 51  1  0  0  0  0
 52 50  2  0  0  0  0
 52 53  1  0  0  0  0
 54 10  1  0  0  0  0
 55 56  1  0  0  0  0
 57 58  1  0  0  0  0
 57 55  2  0  0  0  0
 59 67  1  0  0  0  0
 59 11  1  0  0  0  0
 60 59  2  0  0  0  0
 61 60  1  0  0  0  0
 62 64  2  0  0  0  0
 62 60  1  0  0  0  0
 63 62  1  0  0  0  0
 64 65  1  0  0  0  0
 65 66  1  0  0  0  0
 65 67  2  0  0  0  0
 67 68  1  0  0  0  0
M  END
$$$$
