CSD_code = FASPAT | q = 0 | S = 0 | Stoichiometry = C23H22I2N4PdS | MND = 4
 OpenBabel04212202033D

 53 57  0  0  1  0  0  0  0  0999 V2000
    3.7820    2.6848   10.4853 Pd  0  0  0  0  0  0  0  0  0  0  0  0
    2.5646    0.4073   10.0748 I   0  0  0  0  0  0  0  0  0  0  0  0
    5.0482    4.9863   10.5776 I   0  0  0  0  0  0  0  0  0  0  0  0
    0.3953    4.3459   13.6751 S   0  0  0  0  0  0  0  0  0  0  0  0
    3.0552    3.5531    7.8445 N   0  0  0  0  0  0  0  0  0  0  0  0
    1.3749    3.9916    9.1547 N   0  0  0  0  0  0  0  0  0  0  0  0
    5.1911    1.7476   11.6286 N   0  0  0  0  0  0  0  0  0  0  0  0
    2.7448    3.0930   12.7490 N   0  0  0  0  0  2  0  0  0  0  0  0
    2.6151    3.4656    9.1148 C   0  0  2  0  0  3  0  0  0  0  0  0
    2.1086    4.1718    7.0580 C   0  0  0  0  0  0  0  0  0  0  0  0
    2.0853    4.5206    5.7168 C   0  0  0  0  0  0  0  0  0  0  0  0
    2.9147    4.3049    5.0636 H   0  0  0  0  0  0  0  0  0  0  0  0
    0.9493    5.1555    5.2520 C   0  0  0  0  0  0  0  0  0  0  0  0
    0.8950    5.4434    4.2136 H   0  0  0  0  0  0  0  0  0  0  0  0
   -0.1276    5.4357    6.0899 C   0  0  0  0  0  0  0  0  0  0  0  0
   -0.9946    5.9340    5.6842 H   0  0  0  0  0  0  0  0  0  0  0  0
   -0.1104    5.0949    7.4293 C   0  0  0  0  0  0  0  0  0  0  0  0
   -0.9474    5.3209    8.0715 H   0  0  0  0  0  0  0  0  0  0  0  0
    1.0247    4.4584    7.9041 C   0  0  0  0  0  0  0  0  0  0  0  0
    4.3434    3.0791    7.3807 C   0  0  0  0  0  0  0  0  0  0  0  0
    4.7775    2.4587    8.1959 H   0  0  0  0  0  0  0  0  0  0  0  0
    5.0037    3.9384    7.2078 H   0  0  0  0  0  0  0  0  0  0  0  0
    4.2215    2.2439    6.1341 C   0  0  0  0  0  0  0  0  0  0  0  0
    3.2741    1.2303    6.0641 C   0  0  0  0  0  0  0  0  0  0  0  0
    2.6268    1.0347    6.9063 H   0  0  0  0  0  0  0  0  0  0  0  0
    3.1621    0.4606    4.9209 C   0  0  0  0  0  0  0  0  0  0  0  0
    2.4231   -0.3250    4.8775 H   0  0  0  0  0  0  0  0  0  0  0  0
    3.9982    0.6926    3.8418 C   0  0  0  0  0  0  0  0  0  0  0  0
    3.9109    0.0907    2.9497 H   0  0  0  0  0  0  0  0  0  0  0  0
    4.9503    1.6955    3.9102 C   0  0  0  0  0  0  0  0  0  0  0  0
    5.6075    1.8781    3.0727 H   0  0  0  0  0  0  0  0  0  0  0  0
    5.0607    2.4704    5.0513 C   0  0  0  0  0  0  0  0  0  0  0  0
    5.8028    3.2552    5.1020 H   0  0  0  0  0  0  0  0  0  0  0  0
    0.5736    4.1167   10.3448 C   0  0  0  0  0  0  0  0  0  0  0  0
    0.7513    3.2293   10.9657 H   0  0  0  0  0  0  0  0  0  0  0  0
   -0.4808    4.1309   10.0559 H   0  0  0  0  0  0  0  0  0  0  0  0
    0.9508    5.4015   11.0925 C   0  0  0  0  0  0  0  0  0  0  0  0
    2.0213    5.3784   11.3207 H   0  0  0  0  0  0  0  0  0  0  0  0
    0.7771    6.2578   10.4338 H   0  0  0  0  0  0  0  0  0  0  0  0
    0.1530    5.6264   12.3599 C   0  0  0  0  0  0  0  0  0  0  0  0
   -0.9202    5.6105   12.1666 H   0  0  0  0  0  0  0  0  0  0  0  0
    0.4244    6.5785   12.8160 H   0  0  0  0  0  0  0  0  0  0  0  0
    1.8032    3.6250   13.1492 C   0  0  0  0  0  2  0  0  0  0  0  0
    6.3497    1.5817   10.9931 C   0  0  0  0  0  3  0  0  0  0  0  0
    6.4761    2.0889   10.0349 H   0  0  0  0  0  0  0  0  0  0  0  0
    7.3783    0.8126   11.5066 C   0  0  0  0  0  0  0  0  0  0  0  0
    8.2976    0.7058   10.9529 H   0  0  0  0  0  0  0  0  0  0  0  0
    7.2004    0.1934   12.7340 C   0  0  0  0  0  0  0  0  0  0  0  0
    7.9837   -0.4111   13.1655 H   0  0  0  0  0  0  0  0  0  0  0  0
    5.9926    0.3654   13.3893 C   0  0  0  0  0  0  0  0  0  0  0  0
    5.8027   -0.1003   14.3433 H   0  0  0  0  0  0  0  0  0  0  0  0
    5.0124    1.1440   12.7976 C   0  0  0  0  0  0  0  0  0  0  0  0
    4.0501    1.2851   13.2771 H   0  0  0  0  0  0  0  0  0  0  0  0
  1  3  1  0  0  0  0
  1  7  1  0  0  0  0
  1  8  1  0  0  0  0
  2  1  1  0  0  0  0
  6 34  1  0  0  0  0
  7 52  1  0  0  0  0
  8 43  1  0  0  0  0
  9  5  1  1  0  0  0
  9  6  1  0  0  0  0
  9  1  1  0  0  0  0
 10  5  1  0  0  0  0
 10 19  1  0  0  0  0
 11 10  2  0  0  0  0
 12 11  1  0  0  0  0
 13 11  1  0  0  0  0
 13 15  2  0  0  0  0
 14 13  1  0  0  0  0
 15 17  1  0  0  0  0
 16 15  1  0  0  0  0
 17 19  2  0  0  0  0
 17 18  1  0  0  0  0
 19  6  1  0  0  0  0
 20  5  1  0  0  0  0
 20 21  1  0  0  0  0
 22 20  1  0  0  0  0
 23 20  1  0  0  0  0
 24 23  1  0  0  0  0
 24 25  1  0  0  0  0
 26 24  2  0  0  0  0
 27 26  1  0  0  0  0
 28 30  2  0  0  0  0
 28 26  1  0  0  0  0
 29 28  1  0  0  0  0
 30 32  1  0  0  0  0
 31 30  1  0  0  0  0
 32 33  1  0  0  0  0
 32 23  2  0  0  0  0
 34 35  1  0  0  0  0
 34 37  1  0  0  0  0
 36 34  1  0  0  0  0
 37 38  1  0  0  0  0
 37 40  1  0  0  0  0
 39 37  1  0  0  0  0
 40 42  1  0  0  0  0
 40  4  1  0  0  0  0
 41 40  1  0  0  0  0
 43  4  1  0  0  0  0
 44 46  1  0  0  0  0
 44  7  1  0  0  0  0
 45 44  1  0  0  0  0
 46 48  2  0  0  0  0
 47 46  1  0  0  0  0
 48 49  1  0  0  0  0
 48 50  1  0  0  0  0
 50 51  1  0  0  0  0
 52 53  1  0  0  0  0
 52 50  2  0  0  0  0
M  END
$$$$
