CSD_code = FASRUN | q = 1 | S = 0 | Stoichiometry = C26H22ClN4ORuS(1+) | MND = 6
 OpenBabel04212202033D

 56 63  0  0  0  0  0  0  0  0999 V2000
    6.6190    2.4089    8.4744 Ru  0  0  0  0  0  0  0  0  0  0  0  0
    4.7191    1.7841    8.6690 N   0  0  0  0  0  0  0  0  0  0  0  0
    5.7185    3.9645    7.5690 N   0  0  0  0  0  0  0  0  0  0  0  0
    7.0474    1.4268    6.7629 N   0  0  0  0  0  0  0  0  0  0  0  0
    7.5081    0.7951    9.2764 N   0  0  0  0  0  0  0  0  0  0  0  0
    8.7459    3.3635    8.3215 Cl  0  0  0  0  0  0  0  0  0  0  0  0
    6.4427    3.4979   10.4982 S   0  0  0  0  0  0  0  0  0  0  0  0
    5.5188    2.7767   11.3646 O   0  0  0  0  0  1  0  0  0  0  0  0
    4.2479    0.6931    9.2456 C   0  0  0  0  0  0  0  0  0  0  0  0
    4.9731   -0.0478    9.5538 H   0  0  0  0  0  0  0  0  0  0  0  0
    2.8862    0.4811    9.4635 C   0  0  0  0  0  0  0  0  0  0  0  0
    2.5666   -0.4262    9.9499 H   0  0  0  0  0  0  0  0  0  0  0  0
    1.9703    1.4265    9.0605 C   0  0  0  0  0  0  0  0  0  0  0  0
    0.9125    1.2854    9.2185 H   0  0  0  0  0  0  0  0  0  0  0  0
    2.4374    2.5936    8.4341 C   0  0  0  0  0  0  0  0  0  0  0  0
    3.8313    2.7261    8.2727 C   0  0  0  0  0  0  0  0  0  0  0  0
    4.3688    3.8935    7.6581 C   0  0  0  0  0  0  0  0  0  0  0  0
    2.1057    4.7413    7.3521 C   0  0  0  0  0  0  0  0  0  0  0  0
    1.4557    5.5222    6.9885 H   0  0  0  0  0  0  0  0  0  0  0  0
    3.5111    4.9047    7.1783 C   0  0  0  0  0  0  0  0  0  0  0  0
    4.1100    6.0173    6.5627 C   0  0  0  0  0  0  0  0  0  0  0  0
    3.4938    6.8162    6.1805 H   0  0  0  0  0  0  0  0  0  0  0  0
    1.5943    3.6407    7.9588 C   0  0  0  0  0  0  0  0  0  0  0  0
    0.5288    3.5314    8.0901 H   0  0  0  0  0  0  0  0  0  0  0  0
    5.4824    6.0613    6.4596 C   0  0  0  0  0  0  0  0  0  0  0  0
    5.9756    6.8958    5.9882 H   0  0  0  0  0  0  0  0  0  0  0  0
    6.2540    5.0183    6.9766 C   0  0  0  0  0  0  0  0  0  0  0  0
    7.3357    5.0367    6.9208 H   0  0  0  0  0  0  0  0  0  0  0  0
    6.7677    1.7410    5.5076 C   0  0  0  0  0  0  0  0  0  0  0  0
    6.0365    2.5242    5.3463 H   0  0  0  0  0  0  0  0  0  0  0  0
    7.3746    1.1140    4.4193 C   0  0  0  0  0  0  0  0  0  0  0  0
    7.1100    1.4223    3.4207 H   0  0  0  0  0  0  0  0  0  0  0  0
    8.3065    0.1218    4.6284 C   0  0  0  0  0  0  0  0  0  0  0  0
    8.7972   -0.3679    3.8019 H   0  0  0  0  0  0  0  0  0  0  0  0
    8.6117   -0.2501    5.9471 C   0  0  0  0  0  0  0  0  0  0  0  0
    7.9507    0.4407    6.9834 C   0  0  0  0  0  0  0  0  0  0  0  0
    8.1943    0.0933    8.3431 C   0  0  0  0  0  0  0  0  0  0  0  0
    9.5392   -1.2752    6.2967 C   0  0  0  0  0  0  0  0  0  0  0  0
   10.0569   -1.7834    5.4978 H   0  0  0  0  0  0  0  0  0  0  0  0
    9.7623   -1.6136    7.5910 C   0  0  0  0  0  0  0  0  0  0  0  0
   10.4592   -2.3982    7.8428 H   0  0  0  0  0  0  0  0  0  0  0  0
    9.0827   -0.9550    8.6576 C   0  0  0  0  0  0  0  0  0  0  0  0
    9.2330   -1.2857   10.0141 C   0  0  0  0  0  0  0  0  0  0  0  0
    9.9145   -2.0690   10.3070 H   0  0  0  0  0  0  0  0  0  0  0  0
    8.4847   -0.6027   10.9472 C   0  0  0  0  0  0  0  0  0  0  0  0
    8.5521   -0.8454   11.9955 H   0  0  0  0  0  0  0  0  0  0  0  0
    7.6345    0.4275   10.5421 C   0  0  0  0  0  0  0  0  0  0  0  0
    7.0275    0.9574   11.2663 H   0  0  0  0  0  0  0  0  0  0  0  0
    5.8868    5.2341   10.4715 C   0  0  0  0  0  0  0  0  0  0  0  0
    5.8832    5.6080   11.4890 H   0  0  0  0  0  0  0  0  0  0  0  0
    4.8801    5.2696   10.0658 H   0  0  0  0  0  0  0  0  0  0  0  0
    6.5749    5.7968    9.8499 H   0  0  0  0  0  0  0  0  0  0  0  0
    7.9699    3.7818   11.4386 C   0  0  0  0  0  0  0  0  0  0  0  0
    7.6965    4.1431   12.4236 H   0  0  0  0  0  0  0  0  0  0  0  0
    8.5652    4.5035   10.8916 H   0  0  0  0  0  0  0  0  0  0  0  0
    8.5173    2.8480   11.5158 H   0  0  0  0  0  0  0  0  0  0  0  0
  1  2  1  0  0  0  0
  1  5  1  0  0  0  0
  1  7  1  0  0  0  0
  2  9  1  0  0  0  0
  3 17  1  0  0  0  0
  3  1  1  0  0  0  0
  4 36  1  0  0  0  0
  4  1  1  0  0  0  0
  5 47  1  0  0  0  0
  6  1  1  0  0  0  0
  7  8  1  0  0  0  0
  7 53  1  0  0  0  0
  9 11  2  0  0  0  0
  9 10  1  0  0  0  0
 11 12  1  0  0  0  0
 13 14  1  0  0  0  0
 13 11  1  0  0  0  0
 15 13  2  0  0  0  0
 16 15  1  0  0  0  0
 16  2  1  0  0  0  0
 17 16  2  0  0  0  0
 18 23  2  0  0  0  0
 19 18  1  0  0  0  0
 20 18  1  0  0  0  0
 20 17  1  0  0  0  0
 21 20  2  0  0  0  0
 22 21  1  0  0  0  0
 23 24  1  0  0  0  0
 23 15  1  0  0  0  0
 25 21  1  0  0  0  0
 25 27  2  0  0  0  0
 26 25  1  0  0  0  0
 27  3  1  0  0  0  0
 28 27  1  0  0  0  0
 29  4  1  0  0  0  0
 30 29  1  0  0  0  0
 31 33  1  0  0  0  0
 31 29  2  0  0  0  0
 32 31  1  0  0  0  0
 33 35  2  0  0  0  0
 34 33  1  0  0  0  0
 35 38  1  0  0  0  0
 35 36  1  0  0  0  0
 36 37  2  0  0  0  0
 37 42  1  0  0  0  0
 37  5  1  0  0  0  0
 38 40  2  0  0  0  0
 39 38  1  0  0  0  0
 40 41  1  0  0  0  0
 40 42  1  0  0  0  0
 42 43  2  0  0  0  0
 43 44  1  0  0  0  0
 43 45  1  0  0  0  0
 45 46  1  0  0  0  0
 47 45  2  0  0  0  0
 47 48  1  0  0  0  0
 49  7  1  0  0  0  0
 49 50  1  0  0  0  0
 51 49  1  0  0  0  0
 52 49  1  0  0  0  0
 53 56  1  0  0  0  0
 53 54  1  0  0  0  0
 55 53  1  0  0  0  0
M  END
$$$$
