CSD_code = FASSAU | q = 0 | S = 0 | Stoichiometry = C16H24Br2N4Pd | MND = 4
 OpenBabel04212202033D

 47 48  0  0  1  0  0  0  0  0999 V2000
   -0.0000    0.0000   -0.0001 Pd  0  0  0  0  0  0  0  0  0  0  0  0
    0.8248   -2.2006   -0.7016 Br  0  0  0  0  0  0  0  0  0  0  0  0
    1.8912    0.5990    0.3385 C   0  0  0  0  0  0  0  0  0  0  0  0
    3.8834    0.8757    1.2891 C   0  0  0  0  0  0  0  0  0  0  0  0
    4.6640    0.7198    2.0051 H   0  0  0  0  0  0  0  0  0  0  0  0
    3.8327    1.6796    0.2017 C   0  0  0  0  0  0  0  0  0  0  0  0
    4.5527    2.3582   -0.2060 H   0  0  0  0  0  0  0  0  0  0  0  0
    2.1285    2.1835   -1.5484 C   0  0  0  0  0  0  0  0  0  0  0  0
    1.1011    1.8261   -1.7408 H   0  0  0  0  0  0  0  0  0  0  0  0
    2.7637    1.9267   -2.4035 H   0  0  0  0  0  0  0  0  0  0  0  0
    2.1030    3.6662   -1.3265 C   0  0  0  0  0  0  0  0  0  0  0  0
    1.5135    3.9860   -0.4782 H   0  0  0  0  0  0  0  0  0  0  0  0
    2.7331    4.5343   -2.0937 C   0  0  0  0  0  0  0  0  0  0  0  0
    3.3172    4.2238   -2.9459 H   0  0  0  0  0  0  0  0  0  0  0  0
    2.6818    5.5934   -1.9108 H   0  0  0  0  0  0  0  0  0  0  0  0
    2.3110   -0.7506    2.3644 C   0  0  0  0  0  0  0  0  0  0  0  0
    3.1747   -0.9145    3.0131 H   0  0  0  0  0  0  0  0  0  0  0  0
    2.0612   -1.6967    1.8660 H   0  0  0  0  0  0  0  0  0  0  0  0
    1.1124   -0.2638    3.1772 C   0  0  0  0  0  0  0  0  0  0  0  0
    1.3465    0.6669    3.6907 H   0  0  0  0  0  0  0  0  0  0  0  0
    0.8320   -1.0136    3.9124 H   0  0  0  0  0  0  0  0  0  0  0  0
    0.2543   -0.0829    2.5092 H   0  0  0  0  0  0  0  0  0  0  0  0
    2.6014    1.4927   -0.3692 N   0  0  0  0  0  0  0  0  0  0  0  0
    2.6847    0.2180    1.3574 N   0  0  0  0  0  0  0  0  0  0  0  0
   -0.8254    2.2006    0.7006 Br  0  0  0  0  0  0  0  0  0  0  0  0
   -1.8911   -0.5989   -0.3390 C   0  0  2  0  0  3  0  0  0  0  0  0
   -3.8830   -0.8769   -1.2900 C   0  0  0  0  0  0  0  0  0  0  0  0
   -4.6635   -0.7216   -2.0062 H   0  0  0  0  0  0  0  0  0  0  0  0
   -3.8321   -1.6805   -0.2024 C   0  0  0  0  0  0  0  0  0  0  0  0
   -4.5518   -2.3595    0.2054 H   0  0  0  0  0  0  0  0  0  0  0  0
   -2.1279   -2.1829    1.5483 C   0  0  0  0  0  0  0  0  0  0  0  0
   -1.1002   -1.8262    1.7397 H   0  0  0  0  0  0  0  0  0  0  0  0
   -2.7624   -1.9247    2.4035 H   0  0  0  0  0  0  0  0  0  0  0  0
   -2.1037   -3.6658    1.3280 C   0  0  0  0  0  0  0  0  0  0  0  0
   -1.5159   -3.9870    0.4790 H   0  0  0  0  0  0  0  0  0  0  0  0
   -2.7333   -4.5326    2.0970 C   0  0  0  0  0  0  0  0  0  0  0  0
   -3.3166   -4.2208    2.9492 H   0  0  0  0  0  0  0  0  0  0  0  0
   -2.6841   -5.5921    1.9144 H   0  0  0  0  0  0  0  0  0  0  0  0
   -2.3112    0.7500   -2.3653 C   0  0  0  0  0  0  0  0  0  0  0  0
   -3.1748    0.9133   -3.0142 H   0  0  0  0  0  0  0  0  0  0  0  0
   -2.0621    1.6963   -1.8671 H   0  0  0  0  0  0  0  0  0  0  0  0
   -1.1123    0.2637   -3.1778 C   0  0  0  0  0  0  0  0  0  0  0  0
   -1.3455   -0.6674   -3.6908 H   0  0  0  0  0  0  0  0  0  0  0  0
   -0.8323    1.0134   -3.9134 H   0  0  0  0  0  0  0  0  0  0  0  0
   -0.2540    0.0839   -2.5096 H   0  0  0  0  0  0  0  0  0  0  0  0
   -2.6009   -1.4929    0.3687 N   0  0  0  0  0  0  0  0  0  0  0  0
   -2.6846   -0.2185   -1.3582 N   0  0  0  0  0  0  0  0  0  0  0  0
  1  3  2  0  0  0  0
  1 25  1  0  0  0  0
  2  1  1  0  0  0  0
  3 24  1  0  0  0  0
  4 24  1  0  0  0  0
  4  5  1  0  0  0  0
  6  4  2  0  0  0  0
  7  6  1  0  0  0  0
  8 11  1  0  0  0  0
  8 23  1  0  0  0  0
  9  8  1  0  0  0  0
 10  8  1  0  0  0  0
 11 12  1  0  0  0  0
 13 15  1  0  0  0  0
 13 11  2  0  0  0  0
 14 13  1  0  0  0  0
 16 17  1  0  0  0  0
 16 19  1  0  0  0  0
 18 16  1  0  0  0  0
 19 20  1  0  0  0  0
 19 21  1  0  0  0  0
 22 19  1  0  0  0  0
 23  6  1  0  0  0  0
 23  3  1  0  0  0  0
 24 16  1  0  0  0  0
 26  1  1  6  0  0  0
 26 46  1  0  0  0  0
 27 29  2  0  0  0  0
 28 27  1  0  0  0  0
 29 30  1  0  0  0  0
 29 46  1  0  0  0  0
 31 32  1  0  0  0  0
 31 33  1  0  0  0  0
 34 31  1  0  0  0  0
 34 36  2  0  0  0  0
 35 34  1  0  0  0  0
 36 37  1  0  0  0  0
 38 36  1  0  0  0  0
 39 41  1  0  0  0  0
 39 47  1  0  0  0  0
 40 39  1  0  0  0  0
 42 45  1  0  0  0  0
 42 39  1  0  0  0  0
 43 42  1  0  0  0  0
 44 42  1  0  0  0  0
 46 31  1  0  0  0  0
 47 27  1  0  0  0  0
 47 26  1  0  0  0  0
M  END
$$$$
