CSD_code = FATKAN | q = 0 | S = 0 | Stoichiometry = C13H18BClN6SZn | MND = 4
 OpenBabel04212202033D

 41 45  0  0  1  0  0  0  0  0999 V2000
    8.3783   10.5883    1.6101 Zn  0  0  1  0  0  0  0  0  0  0  0  0
   10.6446    9.7247    1.5476 S   0  0  0  0  0  0  0  0  0  0  0  0
    7.4104   11.7295    0.0831 Cl  0  0  0  0  0  0  0  0  0  0  0  0
    8.1007   10.4372    4.4559 N   0  0  1  0  0  0  0  0  0  0  0  0
    7.5935    8.7798    2.0572 N   0  0  0  0  0  0  0  0  0  0  0  0
   10.2326    9.1465    4.1968 N   0  0  0  0  0  0  0  0  0  0  0  0
    8.1374   11.3360    3.4649 N   0  0  0  0  0  0  0  0  0  0  0  0
   11.0581    9.4467    3.1744 C   0  0  1  0  0  3  0  0  0  0  0  0
   11.0152    8.9705    5.3080 C   0  0  0  0  0  0  0  0  0  0  0  0
   10.5881    8.7302    6.2579 H   0  0  0  0  0  0  0  0  0  0  0  0
    8.0400    8.2415    3.1971 N   0  0  2  0  0  0  0  0  0  0  0  0
   12.3427    9.4442    3.6253 N   0  0  0  0  0  0  0  0  0  0  0  0
   13.5651    9.7084    2.8509 C   0  0  0  0  0  0  0  0  0  0  0  0
   12.3070    9.1477    4.9643 C   0  0  0  0  0  0  0  0  0  0  0  0
   13.1784    9.0815    5.5766 H   0  0  0  0  0  0  0  0  0  0  0  0
    7.7661    6.9303    3.2069 C   0  0  0  0  0  3  0  0  0  0  0  0
    8.0386    6.3129    4.0387 H   0  0  0  0  0  0  0  0  0  0  0  0
    8.6831    9.0253    4.3420 B   0  0  2  0  0  0  0  0  0  0  0  0
    7.5681   11.0009    5.5468 C   0  0  0  0  0  3  0  0  0  0  0  0
    7.4502   10.4482    6.4565 H   0  0  0  0  0  0  0  0  0  0  0  0
    7.0403    7.8116    1.3397 C   0  0  0  0  0  0  0  0  0  0  0  0
    6.6116    8.0246    0.3797 H   0  0  0  0  0  0  0  0  0  0  0  0
    7.6169   12.4676    3.9219 C   0  0  0  0  0  0  0  0  0  0  0  0
    7.5396   13.3267    3.2846 H   0  0  0  0  0  0  0  0  0  0  0  0
   14.7885    9.6271    3.7671 C   0  0  0  0  0  0  0  0  0  0  0  0
   14.7418   10.3690    4.5609 H   0  0  0  0  0  0  0  0  0  0  0  0
   15.6758    9.8302    3.1734 H   0  0  0  0  0  0  0  0  0  0  0  0
   14.8977    8.6351    4.1991 H   0  0  0  0  0  0  0  0  0  0  0  0
   13.4942   11.1184    2.2594 C   0  0  0  0  0  0  0  0  0  0  0  0
   13.3627   11.8532    3.0510 H   0  0  0  0  0  0  0  0  0  0  0  0
   12.6694   11.2045    1.5602 H   0  0  0  0  0  0  0  0  0  0  0  0
   14.4170   11.3377    1.7305 H   0  0  0  0  0  0  0  0  0  0  0  0
    7.1237    6.6067    2.0302 C   0  0  0  0  0  0  0  0  0  0  0  0
    6.7700    5.6462    1.7184 H   0  0  0  0  0  0  0  0  0  0  0  0
    7.2403   12.3082    5.2510 C   0  0  0  0  0  0  0  0  0  0  0  0
    6.7932   13.0344    5.8973 H   0  0  0  0  0  0  0  0  0  0  0  0
   13.7052    8.6480    1.7562 C   0  0  0  0  0  0  0  0  0  0  0  0
   12.8748    8.7005    1.0603 H   0  0  0  0  0  0  0  0  0  0  0  0
   13.7312    7.6535    2.1967 H   0  0  0  0  0  0  0  0  0  0  0  0
   14.6282    8.8106    1.2075 H   0  0  0  0  0  0  0  0  0  0  0  0
    8.4719    8.4437    5.3542 H   0  0  0  0  0  0  0  0  0  0  0  0
  1  3  1  6  0  0  0
  1  5  1  0  0  0  0
  1  7  1  0  0  0  0
  2  1  1  0  0  0  0
  4 19  1  1  0  0  0
  5 11  1  0  0  0  0
  6 18  1  0  0  0  0
  6  9  1  0  0  0  0
  7 23  1  0  0  0  0
  7  4  1  0  0  0  0
  8  2  1  6  0  0  0
  8 12  1  0  0  0  0
  8  6  1  0  0  0  0
  9 10  1  0  0  0  0
 11 16  1  1  0  0  0
 11 18  1  0  0  0  0
 12 14  1  0  0  0  0
 13 12  1  0  0  0  0
 13 25  1  0  0  0  0
 14  9  2  0  0  0  0
 14 15  1  0  0  0  0
 16 17  1  0  0  0  0
 18  4  1  0  0  0  0
 18 41  1  1  0  0  0
 19 20  1  0  0  0  0
 21 33  2  0  0  0  0
 21  5  1  0  0  0  0
 22 21  1  0  0  0  0
 23 35  2  0  0  0  0
 24 23  1  0  0  0  0
 25 28  1  0  0  0  0
 25 26  1  0  0  0  0
 27 25  1  0  0  0  0
 29 13  1  0  0  0  0
 29 30  1  0  0  0  0
 31 29  1  0  0  0  0
 32 29  1  0  0  0  0
 33 16  1  0  0  0  0
 34 33  1  0  0  0  0
 35 19  1  0  0  0  0
 35 36  1  0  0  0  0
 37 39  1  0  0  0  0
 37 13  1  0  0  0  0
 38 37  1  0  0  0  0
 40 37  1  0  0  0  0
M  END
$$$$
