CSD_code = FATPIZ | q = 0 | S = 0 | Stoichiometry = C10H14ClCoN6O4 | MND = 6
 OpenBabel04212202033D

 36 38  0  0  0  0  0  0  0  0999 V2000
    2.7780    2.3449   10.9426 Co  0  0  0  0  0  0  0  0  0  0  0  0
    4.5216    1.2775   11.7066 Cl  0  0  0  0  0  0  0  0  0  0  0  0
    1.2224    3.2984   10.2618 N   0  0  0  0  0  0  0  0  0  0  0  0
   -0.0111    2.9933   10.6655 C   0  0  0  0  0  3  0  0  0  0  0  0
   -1.1255    3.6790   10.1812 C   0  0  0  0  0  0  0  0  0  0  0  0
   -0.9892    4.6625    9.3036 N   0  0  0  0  0  0  0  0  0  0  0  0
    0.2316    4.9758    8.8950 C   0  0  0  0  0  0  0  0  0  0  0  0
    1.3457    4.2870    9.3760 C   0  0  0  0  0  0  0  0  0  0  0  0
   -2.5020    3.3223   10.6257 C   0  0  0  0  0  0  0  0  0  0  0  0
    0.3792    6.0887    7.9155 C   0  0  0  0  0  0  0  0  0  0  0  0
    4.4875    4.6544   10.5163 O   0  0  0  0  0  0  0  0  0  0  0  0
    3.6894    3.9521   11.3474 N   0  0  0  0  0  0  0  0  0  0  0  0
    3.5529    4.3342   12.5682 C   0  0  0  0  0  0  0  0  0  0  0  0
    2.6714    3.5426   13.3530 C   0  0  0  0  0  0  0  0  0  0  0  0
    2.1570    2.5292   12.7252 N   0  0  0  0  0  0  0  0  0  0  0  0
    1.3034    1.7421   13.2480 O   0  0  0  0  0  1  0  0  0  0  0  0
    4.1311    3.0222    8.5842 O   0  0  0  0  0  1  0  0  0  0  0  0
    3.4595    2.1236    9.1866 N   0  0  0  0  0  0  0  0  0  0  0  0
    3.1618    0.9776    8.6538 C   0  0  0  0  0  0  0  0  0  0  0  0
    2.3475    0.1449    9.4681 C   0  0  0  0  0  0  0  0  0  0  0  0
    2.0001    0.6562   10.5964 N   0  0  0  0  0  0  0  0  0  0  0  0
    1.2068   -0.0488   11.4297 O   0  0  0  0  0  0  0  0  0  0  0  0
   -2.5373    3.2071   11.7061 H   0  0  0  0  0  0  0  0  0  0  0  0
   -2.7998    2.3755   10.1774 H   0  0  0  0  0  0  0  0  0  0  0  0
   -3.1986    4.0932   10.3103 H   0  0  0  0  0  0  0  0  0  0  0  0
    0.9864    5.7732    7.0702 H   0  0  0  0  0  0  0  0  0  0  0  0
    0.8770    6.9344    8.3872 H   0  0  0  0  0  0  0  0  0  0  0  0
   -0.6011    6.4018    7.5696 H   0  0  0  0  0  0  0  0  0  0  0  0
   -0.1365    2.2056   11.3947 H   0  0  0  0  0  0  0  0  0  0  0  0
    2.3337    4.5427    9.0204 H   0  0  0  0  0  0  0  0  0  0  0  0
    4.5234    4.1004    9.6494 H   0  0  0  0  0  0  0  0  0  0  0  0
    4.0767    5.1984   12.9552 H   0  0  0  0  0  0  0  0  0  0  0  0
    2.4406    3.7542   14.3878 H   0  0  0  0  0  0  0  0  0  0  0  0
    1.1652    0.5089   12.2941 H   0  0  0  0  0  0  0  0  0  0  0  0
    3.5122    0.6928    7.6715 H   0  0  0  0  0  0  0  0  0  0  0  0
    2.0338   -0.8479    9.1734 H   0  0  0  0  0  0  0  0  0  0  0  0
  1 12  1  0  0  0  0
  1  2  1  0  0  0  0
  1 15  1  0  0  0  0
  3  4  1  0  0  0  0
  3  1  1  0  0  0  0
  4 29  1  0  0  0  0
  5  9  1  0  0  0  0
  5  4  1  0  0  0  0
  6  5  2  0  0  0  0
  7  6  1  0  0  0  0
  7  8  2  0  0  0  0
  8  3  1  0  0  0  0
  9 23  1  0  0  0  0
 10 27  1  0  0  0  0
 10  7  1  0  0  0  0
 11 12  1  0  0  0  0
 12 13  1  0  0  0  0
 13 32  1  0  0  0  0
 13 14  2  0  0  0  0
 14 33  1  0  0  0  0
 15 16  1  0  0  0  0
 15 14  1  0  0  0  0
 17 18  1  0  0  0  0
 18  1  1  0  0  0  0
 19 18  1  0  0  0  0
 19 20  2  0  0  0  0
 20 21  1  0  0  0  0
 21  1  1  0  0  0  0
 21 22  1  0  0  0  0
 22 34  1  0  0  0  0
 24  9  1  0  0  0  0
 25  9  1  0  0  0  0
 26 10  1  0  0  0  0
 28 10  1  0  0  0  0
 30  8  1  0  0  0  0
 31 11  1  0  0  0  0
 35 19  1  0  0  0  0
 36 20  1  0  0  0  0
M  END
$$$$
