CSD_code = FAVTAZ | q = 0 | S = 0 | Stoichiometry = C9H20Cl3N2NbO2 | MND = 6
 OpenBabel04212202033D

 37 36  0  0  0  0  0  0  0  0999 V2000
    3.0234    1.5762   12.7048 Nb  0  0  0  0  0  0  0  0  0  0  0  0
    1.0996    0.5198   13.4709 Cl  0  0  0  0  0  0  0  0  0  0  0  0
    4.1528   -0.2840   11.8261 Cl  0  0  0  0  0  0  0  0  0  0  0  0
    4.0369    3.2134   11.3851 Cl  0  0  0  0  0  0  0  0  0  0  0  0
    1.5619    1.5507   10.6396 O   0  0  0  0  0  0  0  0  0  0  0  0
    1.2304    3.5576   12.7037 O   0  0  0  0  0  0  0  0  0  0  0  0
    3.9477    1.7695   14.2126 N   0  0  0  0  0  2  0  0  0  0  0  0
    4.6584    1.8940   15.2800 N   0  0  0  0  0  0  0  0  0  0  0  0
    0.4068    2.3466   10.8074 C   0  0  0  0  0  0  0  0  0  0  0  0
   -0.2888    1.8586   11.5077 H   0  0  0  0  0  0  0  0  0  0  0  0
   -0.0904    2.4816    9.8349 H   0  0  0  0  0  0  0  0  0  0  0  0
    0.8033    3.7105   11.3618 C   0  0  0  0  0  0  0  0  0  0  0  0
    1.6175    4.1329   10.7543 H   0  0  0  0  0  0  0  0  0  0  0  0
   -0.0660    4.3843   11.3302 H   0  0  0  0  0  0  0  0  0  0  0  0
    1.2672    0.2859   10.0831 C   0  0  0  0  0  0  0  0  0  0  0  0
    0.6145   -0.2928   10.7486 H   0  0  0  0  0  0  0  0  0  0  0  0
    2.2166   -0.2369    9.9607 H   0  0  0  0  0  0  0  0  0  0  0  0
    0.7816    0.4032    9.1069 H   0  0  0  0  0  0  0  0  0  0  0  0
    1.6544    4.7746   13.2842 C   0  0  0  0  0  0  0  0  0  0  0  0
    2.5284    5.1746   12.7567 H   0  0  0  0  0  0  0  0  0  0  0  0
    1.9226    4.5427   14.3149 H   0  0  0  0  0  0  0  0  0  0  0  0
    0.8398    5.5086   13.2627 H   0  0  0  0  0  0  0  0  0  0  0  0
    5.6776    2.9304   15.3282 C   0  0  0  0  0  0  0  0  0  0  0  0
    5.2458    3.8654   15.7170 H   0  0  0  0  0  0  0  0  0  0  0  0
    6.0176    3.0992   14.3022 H   0  0  0  0  0  0  0  0  0  0  0  0
    6.8183    2.4662   16.2288 C   0  0  0  0  0  0  0  0  0  0  0  0
    7.5704    3.2527   16.2994 H   0  0  0  0  0  0  0  0  0  0  0  0
    7.2833    1.5845   15.7863 H   0  0  0  0  0  0  0  0  0  0  0  0
    6.2785    2.1165   17.6135 C   0  0  0  0  0  0  0  0  0  0  0  0
    7.0879    1.7578   18.2506 H   0  0  0  0  0  0  0  0  0  0  0  0
    5.8563    3.0107   18.0779 H   0  0  0  0  0  0  0  0  0  0  0  0
    5.1973    1.0456   17.4896 C   0  0  0  0  0  0  0  0  0  0  0  0
    5.6319    0.1368   17.0717 H   0  0  0  0  0  0  0  0  0  0  0  0
    4.7806    0.8084   18.4691 H   0  0  0  0  0  0  0  0  0  0  0  0
    4.0846    1.5337   16.5666 C   0  0  0  0  0  0  0  0  0  0  0  0
    3.3421    0.7515   16.3853 H   0  0  0  0  0  0  0  0  0  0  0  0
    3.5803    2.4050   17.0118 H   0  0  0  0  0  0  0  0  0  0  0  0
  1  2  1  0  0  0  0
  1  7  1  0  0  0  0
  3  1  1  0  0  0  0
  4  1  1  0  0  0  0
  5  9  1  0  0  0  0
  6 19  1  0  0  0  0
  7  8  1  0  0  0  0
  8 23  1  0  0  0  0
  8 35  1  0  0  0  0
  9 12  1  0  0  0  0
  9 10  1  0  0  0  0
 11  9  1  0  0  0  0
 12  6  1  0  0  0  0
 13 12  1  0  0  0  0
 14 12  1  0  0  0  0
 15  5  1  0  0  0  0
 15 16  1  0  0  0  0
 17 15  1  0  0  0  0
 18 15  1  0  0  0  0
 19 21  1  0  0  0  0
 20 19  1  0  0  0  0
 22 19  1  0  0  0  0
 23 24  1  0  0  0  0
 23 26  1  0  0  0  0
 25 23  1  0  0  0  0
 26 27  1  0  0  0  0
 26 29  1  0  0  0  0
 28 26  1  0  0  0  0
 29 31  1  0  0  0  0
 29 30  1  0  0  0  0
 32 29  1  0  0  0  0
 32 34  1  0  0  0  0
 33 32  1  0  0  0  0
 35 37  1  0  0  0  0
 35 32  1  0  0  0  0
 36 35  1  0  0  0  0
M  END
$$$$
