CSD_code = FAWQEZ | q = 0 | S = 0 | Stoichiometry = C9H12BrMnO3Se2 | MND = 6
 OpenBabel04212202033D

 28 27  0  0  0  0  0  0  0  0999 V2000
   -2.0847   -3.5557    0.6090 Br  0  0  0  0  0  0  0  0  0  0  0  0
    1.0030   -2.2105    1.4400 Se  0  0  0  0  0  0  0  0  0  0  0  0
   -1.3539   -0.2015    0.0697 Se  0  0  0  0  0  0  0  0  0  0  0  0
   -0.3983   -2.4676   -0.7144 Mn  0  0  0  0  0  0  0  0  0  0  0  0
   -2.1429   -2.6008   -3.0663 O   0  0  0  0  0  1  0  0  0  0  0  0
    0.7842   -5.0631   -1.3917 O   0  0  0  0  0  1  0  0  0  0  0  0
    1.5438   -1.4755   -2.6457 O   0  0  0  0  0  1  0  0  0  0  0  0
    1.9428   -0.4666    1.4141 C   0  0  0  0  0  0  0  0  0  0  0  0
    1.5443    0.5068    0.3117 C   0  0  0  0  0  0  0  0  0  0  0  0
    0.1319    1.0767    0.3604 C   0  0  0  0  0  0  0  0  0  0  0  0
   -2.0003   -0.3709    1.9335 C   0  0  0  0  0  0  0  0  0  0  0  0
   -0.9551   -0.5756    3.0185 C   0  0  0  0  0  0  0  0  0  0  0  0
   -0.2056   -1.8978    2.9771 C   0  0  0  0  0  0  0  0  0  0  0  0
   -1.4777   -2.5470   -2.1335 C   0  0  0  0  0  2  0  0  0  0  0  0
    0.3136   -4.0568   -1.1059 C   0  0  0  0  0  2  0  0  0  0  0  0
    0.8080   -1.7839   -1.8124 C   0  0  0  0  0  2  0  0  0  0  0  0
    2.9948   -0.7315    1.2808 H   0  0  0  0  0  0  0  0  0  0  0  0
    1.8198   -0.0344    2.4095 H   0  0  0  0  0  0  0  0  0  0  0  0
    1.7030    0.0299   -0.6586 H   0  0  0  0  0  0  0  0  0  0  0  0
    2.2368    1.3542    0.3622 H   0  0  0  0  0  0  0  0  0  0  0  0
   -0.0760    1.5812    1.3063 H   0  0  0  0  0  0  0  0  0  0  0  0
    0.0217    1.8027   -0.4492 H   0  0  0  0  0  0  0  0  0  0  0  0
   -2.7088   -1.2036    1.9024 H   0  0  0  0  0  0  0  0  0  0  0  0
   -2.5474    0.5588    2.1165 H   0  0  0  0  0  0  0  0  0  0  0  0
   -1.4869   -0.5471    3.9747 H   0  0  0  0  0  0  0  0  0  0  0  0
   -0.2495    0.2605    3.0284 H   0  0  0  0  0  0  0  0  0  0  0  0
    0.4434   -1.9834    3.8538 H   0  0  0  0  0  0  0  0  0  0  0  0
   -0.8964   -2.7455    2.9583 H   0  0  0  0  0  0  0  0  0  0  0  0
  2 13  1  0  0  0  0
  3 10  1  0  0  0  0
  3 11  1  0  0  0  0
  4  1  1  0  0  0  0
  5 14  1  0  0  0  0
  6 15  1  0  0  0  0
  7 16  1  0  0  0  0
  8  2  1  0  0  0  0
  8 18  1  0  0  0  0
  9 10  1  0  0  0  0
  9 20  1  0  0  0  0
  9  8  1  0  0  0  0
 10 21  1  0  0  0  0
 11 24  1  0  0  0  0
 11 12  1  0  0  0  0
 12 26  1  0  0  0  0
 12 25  1  0  0  0  0
 13 12  1  0  0  0  0
 13 27  1  0  0  0  0
 14  4  1  0  0  0  0
 15  4  1  0  0  0  0
 16  4  1  0  0  0  0
 17  8  1  0  0  0  0
 19  9  1  0  0  0  0
 22 10  1  0  0  0  0
 23 11  1  0  0  0  0
 28 13  1  0  0  0  0
M  END
$$$$
