CSD_code = FAWYIM | q = 0 | S = 0 | Stoichiometry = C11H20AuClN2 | MND = 2
 OpenBabel04212202033D

 35 35  0  0  1  0  0  0  0  0999 V2000
    4.7306    3.3114    2.6379 Au  0  0  0  0  0  0  0  0  0  0  0  0
    4.7301    1.0531    2.6383 Cl  0  0  0  0  0  0  0  0  0  0  0  0
    4.7302    5.3469    2.6380 C   0  0  2  0  0  3  0  0  0  0  0  0
    4.0063    6.1568    1.8362 N   0  0  0  0  0  0  0  0  0  0  0  0
    3.0690    5.7136    0.7948 C   0  0  0  0  0  0  0  0  0  0  0  0
    1.9549    4.8849    1.4393 C   0  0  0  0  0  0  0  0  0  0  0  0
    3.8311    4.8967   -0.2517 C   0  0  0  0  0  0  0  0  0  0  0  0
    2.4358    6.9233    0.1017 C   0  0  0  0  0  0  0  0  0  0  0  0
    4.2774    7.4632    2.1364 C   0  0  0  0  0  0  0  0  0  0  0  0
    1.4497    5.4634    2.2101 H   0  0  0  0  0  0  0  0  0  0  0  0
    2.3577    3.9813    1.8907 H   0  0  0  0  0  0  0  0  0  0  0  0
    1.2273    4.5981    0.6857 H   0  0  0  0  0  0  0  0  0  0  0  0
    4.6423    5.4857   -0.6750 H   0  0  0  0  0  0  0  0  0  0  0  0
    3.1577    4.6050   -1.0524 H   0  0  0  0  0  0  0  0  0  0  0  0
    4.2497    3.9964    0.1918 H   0  0  0  0  0  0  0  0  0  0  0  0
    3.1863    7.5378   -0.3904 H   0  0  0  0  0  0  0  0  0  0  0  0
    1.8684    7.5311    0.8030 H   0  0  0  0  0  0  0  0  0  0  0  0
    1.7481    6.5656   -0.6598 H   0  0  0  0  0  0  0  0  0  0  0  0
    3.8316    8.2982    1.6426 H   0  0  0  0  0  0  0  0  0  0  0  0
    5.4541    6.1568    3.4398 N   0  0  0  0  0  0  0  0  0  0  0  0
    6.3914    5.7136    4.4813 C   0  0  0  0  0  0  0  0  0  0  0  0
    7.5054    4.8848    3.8369 C   0  0  0  0  0  0  0  0  0  0  0  0
    5.6292    4.8967    5.5277 C   0  0  0  0  0  0  0  0  0  0  0  0
    7.0245    6.9232    5.1744 C   0  0  0  0  0  0  0  0  0  0  0  0
    5.1830    7.4632    3.1397 C   0  0  0  0  0  0  0  0  0  0  0  0
    8.0106    5.4634    3.0660 H   0  0  0  0  0  0  0  0  0  0  0  0
    7.1027    3.9813    3.3854 H   0  0  0  0  0  0  0  0  0  0  0  0
    8.2331    4.5981    4.5904 H   0  0  0  0  0  0  0  0  0  0  0  0
    4.8180    5.4857    5.9510 H   0  0  0  0  0  0  0  0  0  0  0  0
    6.3025    4.6049    6.3284 H   0  0  0  0  0  0  0  0  0  0  0  0
    5.2105    3.9964    5.0842 H   0  0  0  0  0  0  0  0  0  0  0  0
    6.2739    7.5377    5.6665 H   0  0  0  0  0  0  0  0  0  0  0  0
    7.5918    7.5311    4.4731 H   0  0  0  0  0  0  0  0  0  0  0  0
    7.7122    6.5656    5.9360 H   0  0  0  0  0  0  0  0  0  0  0  0
    5.6287    8.2982    3.6334 H   0  0  0  0  0  0  0  0  0  0  0  0
  1  2  1  0  0  0  0
  3  1  1  6  0  0  0
  3 20  1  0  0  0  0
  4  9  1  0  0  0  0
  4  3  1  0  0  0  0
  5  6  1  0  0  0  0
  5  4  1  0  0  0  0
  6 11  1  0  0  0  0
  6 10  1  0  0  0  0
  7 15  1  0  0  0  0
  7  5  1  0  0  0  0
  8  5  1  0  0  0  0
  8 17  1  0  0  0  0
  9 25  2  0  0  0  0
 12  6  1  0  0  0  0
 13  7  1  0  0  0  0
 14  7  1  0  0  0  0
 16  8  1  0  0  0  0
 18  8  1  0  0  0  0
 19  9  1  0  0  0  0
 20 21  1  0  0  0  0
 21 24  1  0  0  0  0
 21 23  1  0  0  0  0
 22 21  1  0  0  0  0
 22 28  1  0  0  0  0
 23 29  1  0  0  0  0
 23 30  1  0  0  0  0
 24 32  1  0  0  0  0
 24 34  1  0  0  0  0
 25 20  1  0  0  0  0
 25 35  1  0  0  0  0
 26 22  1  0  0  0  0
 27 22  1  0  0  0  0
 31 23  1  0  0  0  0
 33 24  1  0  0  0  0
M  END
$$$$
