CSD_code = FAWZAH | q = 0 | S = 0 | Stoichiometry = C13H20Cl2N2O4PdS2 | MND = 4
 OpenBabel04212202033D

 44 45  0  0  0  0  0  0  0  0999 V2000
    1.3422    6.7622    1.3982 Pd  0  0  0  0  0  0  0  0  0  0  0  0
    2.5946    8.3809    0.5103 Cl  0  0  0  0  0  0  0  0  0  0  0  0
    3.0916    6.1957    2.6816 Cl  0  0  0  0  0  0  0  0  0  0  0  0
   -0.5909    7.5667    0.2811 S   0  0  2  0  0  3  0  0  0  0  0  0
    0.0737    4.9291    2.1799 S   0  0  1  0  0  3  0  0  0  0  0  0
   -0.2629   10.3870    0.3954 O   0  0  0  0  0  0  0  0  0  0  0  0
   -0.1696    2.0213    0.8562 O   0  0  0  0  0  0  0  0  0  0  0  0
   -0.4164    1.0916    0.8522 H   0  0  0  0  0  0  0  0  0  0  0  0
   -2.5886   15.2568   -2.0471 O   0  0  0  0  0  0  0  0  0  0  0  0
   -3.5540   13.9886   -0.5973 O   0  0  0  0  0  0  0  0  0  0  0  0
    1.8203   10.9427   -1.1280 N   0  0  0  0  0  0  0  0  0  0  0  0
    1.7774   10.1595   -0.4798 H   0  0  0  0  0  0  0  0  0  0  0  0
   -2.6024   14.2845   -1.3082 N   0  0  0  0  0  0  0  0  0  0  0  0
   -0.3694   11.5106   -0.3878 C   0  0  0  0  0  0  0  0  0  0  0  0
    0.7753   11.7777   -1.1974 C   0  0  0  0  0  0  0  0  0  0  0  0
    0.7403   12.9063   -2.0342 C   0  0  0  0  0  0  0  0  0  0  0  0
    1.5926   13.1256   -2.6551 H   0  0  0  0  0  0  0  0  0  0  0  0
   -0.3590   13.7294   -2.0750 C   0  0  0  0  0  0  0  0  0  0  0  0
   -0.3868   14.5941   -2.7192 H   0  0  0  0  0  0  0  0  0  0  0  0
   -1.4627   13.4519   -1.2739 C   0  0  0  0  0  0  0  0  0  0  0  0
   -1.4602   12.3353   -0.4237 C   0  0  0  0  0  0  0  0  0  0  0  0
   -2.3351   12.1705    0.1844 H   0  0  0  0  0  0  0  0  0  0  0  0
   -1.3652    9.9993    1.1762 C   0  0  0  0  0  0  0  0  0  0  0  0
   -2.2707    9.9192    0.5578 H   0  0  0  0  0  0  0  0  0  0  0  0
   -1.5490   10.7149    1.9901 H   0  0  0  0  0  0  0  0  0  0  0  0
   -0.9904    8.6365    1.7333 C   0  0  0  0  0  0  0  0  0  0  0  0
   -1.8005    8.1923    2.3070 H   0  0  0  0  0  0  0  0  0  0  0  0
   -0.0783    8.7270    2.3471 H   0  0  0  0  0  0  0  0  0  0  0  0
   -1.7532    6.1489    0.5022 C   0  0  0  0  0  0  0  0  0  0  0  0
   -2.3935    6.3578    1.3576 H   0  0  0  0  0  0  0  0  0  0  0  0
   -2.3620    6.1048   -0.4018 H   0  0  0  0  0  0  0  0  0  0  0  0
   -1.0009    4.8487    0.6846 C   0  0  0  0  0  0  0  0  0  0  0  0
   -0.3563    4.6496   -0.1746 H   0  0  0  0  0  0  0  0  0  0  0  0
   -1.6862    4.0110    0.8153 H   0  0  0  0  0  0  0  0  0  0  0  0
    1.3168    3.6622    1.7588 C   0  0  0  0  0  0  0  0  0  0  0  0
    1.6733    3.8578    0.7412 H   0  0  0  0  0  0  0  0  0  0  0  0
    2.1319    3.8257    2.4668 H   0  0  0  0  0  0  0  0  0  0  0  0
    0.7719    2.2501    1.8849 C   0  0  0  0  0  0  0  0  0  0  0  0
    1.6130    1.5486    1.8035 H   0  0  0  0  0  0  0  0  0  0  0  0
    0.3035    2.1218    2.8712 H   0  0  0  0  0  0  0  0  0  0  0  0
    3.0473   11.1001   -1.8573 C   0  0  0  0  0  0  0  0  0  0  0  0
    3.7105   10.2884   -1.5717 H   0  0  0  0  0  0  0  0  0  0  0  0
    3.5317   12.0518   -1.6218 H   0  0  0  0  0  0  0  0  0  0  0  0
    2.8750   11.0549   -2.9362 H   0  0  0  0  0  0  0  0  0  0  0  0
  1  5  1  0  0  0  0
  1  3  1  0  0  0  0
  2  1  1  0  0  0  0
  4 29  1  0  0  0  0
  4  1  1  0  0  0  0
  4 26  1  1  0  0  0
  5 35  1  6  0  0  0
  6 23  1  0  0  0  0
  7 38  1  0  0  0  0
  8  7  1  0  0  0  0
  9 13  2  0  0  0  0
 11 12  1  0  0  0  0
 13 20  1  0  0  0  0
 13 10  2  0  0  0  0
 14  6  1  0  0  0  0
 15 11  1  0  0  0  0
 15 14  2  0  0  0  0
 16 15  1  0  0  0  0
 17 16  1  0  0  0  0
 18 16  2  0  0  0  0
 18 20  1  0  0  0  0
 19 18  1  0  0  0  0
 20 21  2  0  0  0  0
 21 14  1  0  0  0  0
 21 22  1  0  0  0  0
 23 26  1  0  0  0  0
 23 25  1  0  0  0  0
 24 23  1  0  0  0  0
 26 27  1  0  0  0  0
 26 28  1  0  0  0  0
 29 32  1  0  0  0  0
 29 30  1  0  0  0  0
 31 29  1  0  0  0  0
 32 34  1  0  0  0  0
 32  5  1  0  0  0  0
 33 32  1  0  0  0  0
 35 38  1  0  0  0  0
 35 37  1  0  0  0  0
 36 35  1  0  0  0  0
 38 40  1  0  0  0  0
 39 38  1  0  0  0  0
 41 43  1  0  0  0  0
 41 42  1  0  0  0  0
 41 11  1  0  0  0  0
 44 41  1  0  0  0  0
M  END
$$$$
