CSD_code = FAXHES | q = 0 | S = 0 | Stoichiometry = C28H28AuIOP2 | MND = 2
 OpenBabel04212202033D

 61 64  0  0  0  0  0  0  0  0999 V2000
   -0.1190   10.4713    4.1419 Au  0  0  0  0  0  0  0  0  0  0  0  0
   -1.9457   12.2377    4.4131 I   0  0  0  0  0  0  0  0  0  0  0  0
    1.5948    9.0238    3.8914 P   0  0  0  0  0  4  0  0  0  0  0  0
    5.8504   13.4500    0.8869 P   0  0  0  0  0  0  0  0  0  0  0  0
    6.8694   12.4363    0.5901 O   0  0  0  0  0  0  0  0  0  0  0  0
    2.7881    9.5778    2.6123 C   0  0  0  0  0  0  0  0  0  0  0  0
    3.3032   10.9668    2.9816 C   0  0  0  0  0  0  0  0  0  0  0  0
    4.7135   12.9324    2.2468 C   0  0  0  0  0  0  0  0  0  0  0  0
    4.1991   11.5447    1.8918 C   0  0  0  0  0  0  0  0  0  0  0  0
    2.6632    8.8283    5.3443 C   0  0  0  0  0  0  0  0  0  0  0  0
    2.5078    9.6957    6.4186 C   0  0  0  0  0  0  0  0  0  0  0  0
    3.3316    9.5817    7.5245 C   0  0  0  0  0  0  0  0  0  0  0  0
    4.3078    8.6001    7.5587 C   0  0  0  0  0  0  0  0  0  0  0  0
    4.4624    7.7307    6.4891 C   0  0  0  0  0  0  0  0  0  0  0  0
    3.6438    7.8408    5.3818 C   0  0  0  0  0  0  0  0  0  0  0  0
    1.1982    7.3077    3.4662 C   0  0  0  0  0  0  0  0  0  0  0  0
    1.3162    6.7893    2.1815 C   0  0  0  0  0  0  0  0  0  0  0  0
    0.9147    5.4892    1.9269 C   0  0  0  0  0  0  0  0  0  0  0  0
    0.3854    4.7093    2.9413 C   0  0  0  0  0  0  0  0  0  0  0  0
    0.2484    5.2296    4.2193 C   0  0  0  0  0  0  0  0  0  0  0  0
    0.6457    6.5260    4.4805 C   0  0  0  0  0  0  0  0  0  0  0  0
    4.7554   13.7970   -0.5258 C   0  0  0  0  0  0  0  0  0  0  0  0
    4.9269   13.0239   -1.6650 C   0  0  0  0  0  0  0  0  0  0  0  0
    4.1174   13.2265   -2.7685 C   0  0  0  0  0  0  0  0  0  0  0  0
    3.1376   14.2050   -2.7330 C   0  0  0  0  0  0  0  0  0  0  0  0
    2.9702   14.9830   -1.5976 C   0  0  0  0  0  0  0  0  0  0  0  0
    3.7778   14.7825   -0.4934 C   0  0  0  0  0  0  0  0  0  0  0  0
    6.5482   15.0568    1.3850 C   0  0  0  0  0  0  0  0  0  0  0  0
    7.8427   15.3145    0.9543 C   0  0  0  0  0  0  0  0  0  0  0  0
    8.4543   16.5151    1.2653 C   0  0  0  0  0  0  0  0  0  0  0  0
    7.7705   17.4633    2.0083 C   0  0  0  0  0  0  0  0  0  0  0  0
    6.4798   17.2072    2.4425 C   0  0  0  0  0  0  0  0  0  0  0  0
    5.8656   16.0071    2.1326 C   0  0  0  0  0  0  0  0  0  0  0  0
    3.6112    8.8598    2.5286 H   0  0  0  0  0  0  0  0  0  0  0  0
    2.2569    9.6236    1.6553 H   0  0  0  0  0  0  0  0  0  0  0  0
    2.4489   11.6351    3.1421 H   0  0  0  0  0  0  0  0  0  0  0  0
    3.8593   10.9127    3.9227 H   0  0  0  0  0  0  0  0  0  0  0  0
    5.0574   10.8881    1.7285 H   0  0  0  0  0  0  0  0  0  0  0  0
    3.6444   11.6025    0.9494 H   0  0  0  0  0  0  0  0  0  0  0  0
    5.2968   12.9058    3.1718 H   0  0  0  0  0  0  0  0  0  0  0  0
    3.8872   13.6323    2.3683 H   0  0  0  0  0  0  0  0  0  0  0  0
    1.7377   10.4568    6.3823 H   0  0  0  0  0  0  0  0  0  0  0  0
    3.2092   10.2562    8.3587 H   0  0  0  0  0  0  0  0  0  0  0  0
    4.9493    8.5087    8.4224 H   0  0  0  0  0  0  0  0  0  0  0  0
    5.2232    6.9649    6.5201 H   0  0  0  0  0  0  0  0  0  0  0  0
    3.7542    7.1603    4.5478 H   0  0  0  0  0  0  0  0  0  0  0  0
    1.7225    7.3916    1.3818 H   0  0  0  0  0  0  0  0  0  0  0  0
    1.0137    5.0857    0.9299 H   0  0  0  0  0  0  0  0  0  0  0  0
    0.0736    3.6964    2.7351 H   0  0  0  0  0  0  0  0  0  0  0  0
   -0.1718    4.6255    5.0096 H   0  0  0  0  0  0  0  0  0  0  0  0
    0.5387    6.9448    5.4738 H   0  0  0  0  0  0  0  0  0  0  0  0
    5.7012   12.2701   -1.6653 H   0  0  0  0  0  0  0  0  0  0  0  0
    4.2496   12.6235   -3.6550 H   0  0  0  0  0  0  0  0  0  0  0  0
    2.5034   14.3658   -3.5922 H   0  0  0  0  0  0  0  0  0  0  0  0
    2.2077   15.7477   -1.5747 H   0  0  0  0  0  0  0  0  0  0  0  0
    3.6536   15.3936    0.3883 H   0  0  0  0  0  0  0  0  0  0  0  0
    8.3578   14.5534    0.3859 H   0  0  0  0  0  0  0  0  0  0  0  0
    9.4624   16.7117    0.9311 H   0  0  0  0  0  0  0  0  0  0  0  0
    8.2440   18.4023    2.2544 H   0  0  0  0  0  0  0  0  0  0  0  0
    5.9501   17.9456    3.0268 H   0  0  0  0  0  0  0  0  0  0  0  0
    4.8633   15.8119    2.4845 H   0  0  0  0  0  0  0  0  0  0  0  0
  1  2  1  0  0  0  0
  3  1  1  0  0  0  0
  3 10  1  0  0  0  0
  4 28  1  0  0  0  0
  4  8  1  0  0  0  0
  5  4  2  0  0  0  0
  6  7  1  0  0  0  0
  6  3  1  0  0  0  0
  7 36  1  0  0  0  0
  7 37  1  0  0  0  0
  8 41  1  0  0  0  0
  8 40  1  0  0  0  0
  9  8  1  0  0  0  0
  9  7  1  0  0  0  0
 10 15  2  0  0  0  0
 10 11  1  0  0  0  0
 11 12  2  0  0  0  0
 12 13  1  0  0  0  0
 12 43  1  0  0  0  0
 13 44  1  0  0  0  0
 14 45  1  0  0  0  0
 14 13  2  0  0  0  0
 15 14  1  0  0  0  0
 16  3  1  0  0  0  0
 16 21  1  0  0  0  0
 17 16  2  0  0  0  0
 18 17  1  0  0  0  0
 18 19  2  0  0  0  0
 19 20  1  0  0  0  0
 20 21  2  0  0  0  0
 20 50  1  0  0  0  0
 21 51  1  0  0  0  0
 22 27  1  0  0  0  0
 22  4  1  0  0  0  0
 23 22  2  0  0  0  0
 24 25  2  0  0  0  0
 24 23  1  0  0  0  0
 25 26  1  0  0  0  0
 26 55  1  0  0  0  0
 26 27  2  0  0  0  0
 27 56  1  0  0  0  0
 28 33  1  0  0  0  0
 29 30  1  0  0  0  0
 29 28  2  0  0  0  0
 30 31  2  0  0  0  0
 31 59  1  0  0  0  0
 31 32  1  0  0  0  0
 32 60  1  0  0  0  0
 33 32  2  0  0  0  0
 33 61  1  0  0  0  0
 34  6  1  0  0  0  0
 35  6  1  0  0  0  0
 38  9  1  0  0  0  0
 39  9  1  0  0  0  0
 42 11  1  0  0  0  0
 46 15  1  0  0  0  0
 47 17  1  0  0  0  0
 48 18  1  0  0  0  0
 49 19  1  0  0  0  0
 52 23  1  0  0  0  0
 53 24  1  0  0  0  0
 54 25  1  0  0  0  0
 57 29  1  0  0  0  0
 58 30  1  0  0  0  0
M  END
$$$$
