CSD_code = FAXNIC | q = 0 | S = 0 | Stoichiometry = C14H18BrCuN2 | MND = 3
 OpenBabel04212202033D

 36 37  0  0  1  0  0  0  0  0999 V2000
    4.5497    5.9032   10.1040 Cu  0  0  0  0  0  0  0  0  0  0  0  0
    6.1939    4.3232   10.2605 Br  0  0  0  0  0  0  0  0  0  0  0  0
    3.4821    5.9103    8.4680 N   0  0  0  0  0  0  0  0  0  0  0  0
    4.0989    5.8668    7.2812 C   0  0  2  0  0  3  0  0  0  0  0  0
    3.4497    5.4020    6.1329 C   0  0  0  0  0  0  0  0  0  0  0  0
    2.1261    4.9985    6.2453 C   0  0  0  0  0  0  0  0  0  0  0  0
    1.5980    4.6312    5.3775 H   0  0  0  0  0  0  0  0  0  0  0  0
    1.4910    5.0650    7.4763 C   0  0  0  0  0  0  0  0  0  0  0  0
    0.4622    4.7633    7.5912 H   0  0  0  0  0  0  0  0  0  0  0  0
    2.2080    5.5232    8.5603 C   0  0  0  0  0  0  0  0  0  0  0  0
    1.7571    5.5940    9.5407 H   0  0  0  0  0  0  0  0  0  0  0  0
    5.5227    6.3093    7.2374 C   0  0  0  0  0  0  0  0  0  0  0  0
    5.7753    6.8551    8.1458 H   0  0  0  0  0  0  0  0  0  0  0  0
    5.7164    6.9388    6.3715 H   0  0  0  0  0  0  0  0  0  0  0  0
    6.1767    5.4378    7.1826 H   0  0  0  0  0  0  0  0  0  0  0  0
    4.1681    5.3304    4.8241 C   0  0  0  0  0  0  0  0  0  0  0  0
    3.5326    4.8831    4.0641 H   0  0  0  0  0  0  0  0  0  0  0  0
    5.0738    4.7341    4.9207 H   0  0  0  0  0  0  0  0  0  0  0  0
    4.4589    6.3260    4.4896 H   0  0  0  0  0  0  0  0  0  0  0  0
    4.3623    7.1351   11.6112 N   0  0  0  0  0  0  0  0  0  0  0  0
    4.3773    6.6568   12.8611 C   0  0  2  0  0  3  0  0  0  0  0  0
    4.7375    7.4590   13.9490 C   0  0  0  0  0  0  0  0  0  0  0  0
    5.0599    8.7874   13.7064 C   0  0  0  0  0  0  0  0  0  0  0  0
    5.3397    9.4332   14.5258 H   0  0  0  0  0  0  0  0  0  0  0  0
    5.0198    9.2779   12.4099 C   0  0  0  0  0  0  0  0  0  0  0  0
    5.2599   10.3066   12.1940 H   0  0  0  0  0  0  0  0  0  0  0  0
    4.6715    8.4151   11.3934 C   0  0  0  0  0  0  0  0  0  0  0  0
    4.6317    8.7477   10.3651 H   0  0  0  0  0  0  0  0  0  0  0  0
    4.0204    5.2201   13.0431 C   0  0  0  0  0  0  0  0  0  0  0  0
    3.5063    4.8457   12.1587 H   0  0  0  0  0  0  0  0  0  0  0  0
    3.3901    5.0738   13.9170 H   0  0  0  0  0  0  0  0  0  0  0  0
    4.9294    4.6300   13.1704 H   0  0  0  0  0  0  0  0  0  0  0  0
    4.7862    6.8968   15.3332 C   0  0  0  0  0  0  0  0  0  0  0  0
    5.1624    7.6388   16.0329 H   0  0  0  0  0  0  0  0  0  0  0  0
    5.4349    6.0231   15.3647 H   0  0  0  0  0  0  0  0  0  0  0  0
    3.7933    6.5871   15.6591 H   0  0  0  0  0  0  0  0  0  0  0  0
  1  2  1  0  0  0  0
  1 20  1  0  0  0  0
  3 10  1  0  0  0  0
  3  1  1  0  0  0  0
  4 12  1  1  0  0  0
  4  3  1  0  0  0  0
  5  6  2  0  0  0  0
  5  4  1  0  0  0  0
  6  8  1  0  0  0  0
  7  6  1  0  0  0  0
  8  9  1  0  0  0  0
  8 10  2  0  0  0  0
 10 11  1  0  0  0  0
 12 13  1  0  0  0  0
 14 12  1  0  0  0  0
 15 12  1  0  0  0  0
 16 18  1  0  0  0  0
 16  5  1  0  0  0  0
 17 16  1  0  0  0  0
 19 16  1  0  0  0  0
 20 21  1  0  0  0  0
 21 29  1  6  0  0  0
 21 22  1  0  0  0  0
 22 33  1  0  0  0  0
 23 22  2  0  0  0  0
 23 24  1  0  0  0  0
 25 23  1  0  0  0  0
 26 25  1  0  0  0  0
 27 20  1  0  0  0  0
 27 25  2  0  0  0  0
 28 27  1  0  0  0  0
 29 32  1  0  0  0  0
 29 31  1  0  0  0  0
 30 29  1  0  0  0  0
 33 35  1  0  0  0  0
 33 36  1  0  0  0  0
 33 34  1  0  0  0  0
M  END
$$$$
