CSD_code = FAXQON | q = 0 | S = 0 | Stoichiometry = C27H33Cl2N2O2V | MND = 6
 OpenBabel04212202033D

 67 74  0  0  1  0  0  0  0  0999 V2000
    3.3248    9.2813   10.5002 O   0  0  0  0  0  0  0  0  0  0  0  0
    1.9799    9.3840   13.5084 C   0  0  1  0  0  3  0  0  0  0  0  0
    1.6713   10.4830   12.5308 C   0  0  0  0  0  0  0  0  0  0  0  0
    1.0521   10.0694   11.7262 H   0  0  0  0  0  0  0  0  0  0  0  0
    2.6037   10.8372   12.0830 H   0  0  0  0  0  0  0  0  0  0  0  0
    0.9480   11.6280   13.2303 C   0  0  2  0  0  0  0  0  0  0  0  0
    0.6866   12.4245   12.5328 H   0  0  0  0  0  0  0  0  0  0  0  0
    1.6858   12.0325   14.5322 C   0  0  0  0  0  0  0  0  0  0  0  0
    3.2086   12.0030   14.5564 C   0  0  0  0  0  0  0  0  0  0  0  0
    3.6201   11.0443   14.2542 H   0  0  0  0  0  0  0  0  0  0  0  0
    3.6019   12.7694   13.8909 H   0  0  0  0  0  0  0  0  0  0  0  0
    3.5629   12.2143   15.5640 H   0  0  0  0  0  0  0  0  0  0  0  0
    1.2231   13.3848   15.0654 C   0  0  0  0  0  0  0  0  0  0  0  0
    0.1416   13.4799   15.0601 H   0  0  0  0  0  0  0  0  0  0  0  0
    1.5722   13.5234   16.0869 H   0  0  0  0  0  0  0  0  0  0  0  0
    1.6367   14.1841   14.4533 H   0  0  0  0  0  0  0  0  0  0  0  0
   -0.1651   11.0339   14.1066 C   0  0  0  0  0  0  0  0  0  0  0  0
   -0.6368   10.1242   13.7389 H   0  0  0  0  0  0  0  0  0  0  0  0
   -0.9320   11.7502   14.3861 H   0  0  0  0  0  0  0  0  0  0  0  0
    0.9206   10.8480   15.1858 C   0  0  1  0  0  0  0  0  0  0  0  0
    0.6463   10.9224   16.2376 H   0  0  0  0  0  0  0  0  0  0  0  0
    1.6177    9.5729   14.8533 C   0  0  0  0  0  0  0  0  0  0  0  0
    1.8945    8.5700   15.7621 C   0  0  0  0  0  0  0  0  0  0  0  0
    1.6276    8.6872   16.8035 H   0  0  0  0  0  0  0  0  0  0  0  0
    2.5040    7.4031   15.3245 C   0  0  0  0  0  0  0  0  0  0  0  0
    2.8251    7.3021   13.9668 C   0  0  0  0  0  0  0  0  0  0  0  0
    2.7626    6.2498   16.2484 C   0  0  0  0  0  0  0  0  0  0  0  0
    1.8877    5.5893   16.2308 H   0  0  0  0  0  0  0  0  0  0  0  0
    2.8853    6.6107   17.2710 H   0  0  0  0  0  0  0  0  0  0  0  0
    3.3773    6.0476   13.4577 C   0  0  1  0  0  3  0  0  0  0  0  0
    3.9959    5.4696   15.8046 C   0  0  0  0  0  0  0  0  0  0  0  0
    4.1258    4.5750   16.4154 H   0  0  0  0  0  0  0  0  0  0  0  0
    4.8851    6.0971   15.9267 H   0  0  0  0  0  0  0  0  0  0  0  0
    3.8745    5.1017   14.3566 C   0  0  0  0  0  0  0  0  0  0  0  0
    4.2724    3.8714   13.8544 C   0  0  0  0  0  0  0  0  0  0  0  0
    4.6774    3.1174   14.5151 H   0  0  0  0  0  0  0  0  0  0  0  0
    4.1178    3.6117   12.5065 C   0  0  0  0  0  0  0  0  0  0  0  0
    4.4379    2.3104   11.8536 C   0  0  2  0  0  0  0  0  0  0  0  0
    4.8505    1.5771   12.5457 H   0  0  0  0  0  0  0  0  0  0  0  0
    5.2056    2.6440   10.5594 C   0  0  0  0  0  0  0  0  0  0  0  0
    5.8666    3.5075   10.6063 H   0  0  0  0  0  0  0  0  0  0  0  0
    5.7448    1.7957   10.1486 H   0  0  0  0  0  0  0  0  0  0  0  0
    3.8281    2.8778    9.9188 C   0  0  1  0  0  0  0  0  0  0  0  0
    3.6977    2.6335    8.8650 H   0  0  0  0  0  0  0  0  0  0  0  0
    3.2361    1.8932   10.9585 C   0  0  0  0  0  0  0  0  0  0  0  0
    3.3322    0.4402   10.5041 C   0  0  0  0  0  0  0  0  0  0  0  0
    4.3138    0.1983   10.1092 H   0  0  0  0  0  0  0  0  0  0  0  0
    3.1265   -0.2277   11.3387 H   0  0  0  0  0  0  0  0  0  0  0  0
    2.5967    0.2487    9.7254 H   0  0  0  0  0  0  0  0  0  0  0  0
    1.8285    2.1402   11.4845 C   0  0  0  0  0  0  0  0  0  0  0  0
    1.6918    3.1481   11.8641 H   0  0  0  0  0  0  0  0  0  0  0  0
    1.1064    1.9770   10.6872 H   0  0  0  0  0  0  0  0  0  0  0  0
    1.6098    1.4426   12.2916 H   0  0  0  0  0  0  0  0  0  0  0  0
    3.4177    4.3143   10.2174 C   0  0  0  0  0  0  0  0  0  0  0  0
    4.0171    5.0089    9.6175 H   0  0  0  0  0  0  0  0  0  0  0  0
    2.3711    4.5098    9.9611 H   0  0  0  0  0  0  0  0  0  0  0  0
    3.6309    4.6317   11.6671 C   0  0  0  0  0  0  0  0  0  0  0  0
    2.5732    8.2785   13.0911 N   0  0  0  0  0  0  0  0  0  0  0  0
    3.3194    5.8312   12.1382 N   0  0  0  0  0  0  0  0  0  0  0  0
    3.9589    7.0143    9.7532 O   0  0  0  0  0  1  0  0  0  0  0  0
    3.7138   10.0994    9.4889 C   0  0  0  0  0  0  0  0  0  0  0  0
    2.9136   10.8100    9.2329 H   0  0  0  0  0  0  0  0  0  0  0  0
    4.6050   10.6663    9.8018 H   0  0  0  0  0  0  0  0  0  0  0  0
    3.9698    9.4884    8.6054 H   0  0  0  0  0  0  0  0  0  0  0  0
    1.2589    7.2436   10.7534 Cl  0  0  0  0  0  0  0  0  0  0  0  0
    5.2686    7.9266   12.1236 Cl  0  0  0  0  0  0  0  0  0  0  0  0
    3.3703    7.7271   10.9663 V   0  0  0  0  0  0  0  0  0  0  0  0
  1 67  1  0  0  0  0
  2 22  1  6  0  0  0
  3  6  1  0  0  0  0
  3  2  1  0  0  0  0
  4  3  1  0  0  0  0
  5  3  1  0  0  0  0
  6  7  1  6  0  0  0
  6 17  1  0  0  0  0
  6  8  1  0  0  0  0
  8  9  1  0  0  0  0
  8 13  1  0  0  0  0
  8 20  1  0  0  0  0
  9 12  1  0  0  0  0
 10  9  1  0  0  0  0
 11  9  1  0  0  0  0
 13 15  1  0  0  0  0
 14 13  1  0  0  0  0
 16 13  1  0  0  0  0
 17 19  1  0  0  0  0
 17 20  1  0  0  0  0
 18 17  1  0  0  0  0
 20 21  1  1  0  0  0
 22 20  1  0  0  0  0
 22 23  2  0  0  0  0
 23 24  1  0  0  0  0
 25 23  1  0  0  0  0
 25 27  1  0  0  0  0
 26 25  2  0  0  0  0
 27 29  1  0  0  0  0
 28 27  1  0  0  0  0
 30 26  1  1  0  0  0
 30 34  1  0  0  0  0
 31 33  1  0  0  0  0
 31 27  1  0  0  0  0
 31 32  1  0  0  0  0
 34 31  1  0  0  0  0
 35 34  2  0  0  0  0
 35 36  1  0  0  0  0
 37 35  1  0  0  0  0
 38 37  1  0  0  0  0
 38 39  1  1  0  0  0
 40 41  1  0  0  0  0
 40 38  1  0  0  0  0
 42 40  1  0  0  0  0
 43 44  1  6  0  0  0
 43 54  1  0  0  0  0
 43 40  1  0  0  0  0
 43 45  1  0  0  0  0
 45 50  1  0  0  0  0
 45 38  1  0  0  0  0
 46 45  1  0  0  0  0
 46 48  1  0  0  0  0
 47 46  1  0  0  0  0
 49 46  1  0  0  0  0
 50 51  1  0  0  0  0
 50 53  1  0  0  0  0
 52 50  1  0  0  0  0
 54 57  1  0  0  0  0
 55 54  1  0  0  0  0
 56 54  1  0  0  0  0
 57 59  1  0  0  0  0
 57 37  2  0  0  0  0
 58  2  1  0  0  0  0
 58 26  1  0  0  0  0
 59 30  1  0  0  0  0
 60 67  1  0  0  0  0
 61 63  1  0  0  0  0
 61  1  1  0  0  0  0
 62 61  1  0  0  0  0
 64 61  1  0  0  0  0
 65 67  1  0  0  0  0
 67 66  1  0  0  0  0
 67 59  1  0  0  0  0
 67 58  1  0  0  0  0
M  END
$$$$
