CSD_code = FAXXUA | q = 0 | S = 0 | Stoichiometry = C32H23AuClO2P | MND = 2
 OpenBabel04212202033D

 60 65  0  0  0  0  0  0  0  0999 V2000
    4.3246    0.9263    7.7059 Au  0  0  0  0  0  0  0  0  0  0  0  0
    5.3723    0.7711    5.7102 Cl  0  0  0  0  0  0  0  0  0  0  0  0
    3.3101    1.1528    9.7073 P   0  0  0  0  0  4  0  0  0  0  0  0
    4.0022    2.2285   10.6894 O   0  0  0  0  0  0  0  0  0  0  0  0
    1.8108    1.7333    9.5203 O   0  0  0  0  0  0  0  0  0  0  0  0
    3.3106   -1.3667   10.8849 C   0  0  0  0  0  0  0  0  0  0  0  0
    4.1579   -1.7554    9.7420 C   0  0  0  0  0  0  0  0  0  0  0  0
    2.8863   -0.0606   10.9822 C   0  0  0  0  0  0  0  0  0  0  0  0
    3.6412   -2.5322    8.7337 C   0  0  0  0  0  0  0  0  0  0  0  0
    2.6253   -2.8948    8.8113 H   0  0  0  0  0  0  0  0  0  0  0  0
    2.0641    0.3646   12.0434 C   0  0  0  0  0  0  0  0  0  0  0  0
    1.7566    1.3989   12.0794 H   0  0  0  0  0  0  0  0  0  0  0  0
    4.4017   -2.8339    7.5956 C   0  0  0  0  0  0  0  0  0  0  0  0
    3.9616   -3.4324    6.8123 H   0  0  0  0  0  0  0  0  0  0  0  0
    1.6683   -0.5258   12.9966 C   0  0  0  0  0  0  0  0  0  0  0  0
    1.0359   -0.2103   13.8141 H   0  0  0  0  0  0  0  0  0  0  0  0
    5.6754   -2.3559    7.4705 C   0  0  0  0  0  0  0  0  0  0  0  0
    6.2563   -2.5584    6.5839 H   0  0  0  0  0  0  0  0  0  0  0  0
    1.6681   -2.8165   13.9045 C   0  0  0  0  0  0  0  0  0  0  0  0
    1.0254   -2.4849   14.7076 H   0  0  0  0  0  0  0  0  0  0  0  0
    7.5558   -1.0468    8.3734 C   0  0  0  0  0  0  0  0  0  0  0  0
    8.1140   -1.2562    7.4735 H   0  0  0  0  0  0  0  0  0  0  0  0
    2.0783   -4.1183   13.8331 C   0  0  0  0  0  0  0  0  0  0  0  0
    1.7605   -4.8314   14.5794 H   0  0  0  0  0  0  0  0  0  0  0  0
    8.0947   -0.2818    9.3690 C   0  0  0  0  0  0  0  0  0  0  0  0
    9.0911    0.1230    9.2689 H   0  0  0  0  0  0  0  0  0  0  0  0
    2.9217   -4.5376   12.7930 C   0  0  0  0  0  0  0  0  0  0  0  0
    3.2463   -5.5669   12.7563 H   0  0  0  0  0  0  0  0  0  0  0  0
    7.3589   -0.0198   10.5353 C   0  0  0  0  0  0  0  0  0  0  0  0
    7.8043    0.5707   11.3233 H   0  0  0  0  0  0  0  0  0  0  0  0
    3.3323   -3.6532   11.8348 C   0  0  0  0  0  0  0  0  0  0  0  0
    3.9862   -3.9722   11.0368 H   0  0  0  0  0  0  0  0  0  0  0  0
    6.0861   -0.5011   10.6768 C   0  0  0  0  0  0  0  0  0  0  0  0
    5.5293   -0.3034   11.5823 H   0  0  0  0  0  0  0  0  0  0  0  0
    2.9120   -2.3066   11.8708 C   0  0  0  0  0  0  0  0  0  0  0  0
    5.4899   -1.2686    9.6531 C   0  0  0  0  0  0  0  0  0  0  0  0
    2.0736   -1.8773   12.9341 C   0  0  0  0  0  0  0  0  0  0  0  0
    6.2498   -1.5668    8.4891 C   0  0  0  0  0  0  0  0  0  0  0  0
    4.2797    4.5839   10.4365 C   0  0  0  0  0  0  0  0  0  0  0  0
    3.3293    4.7212   10.9303 H   0  0  0  0  0  0  0  0  0  0  0  0
    2.1655    3.3266    7.7376 C   0  0  0  0  0  0  0  0  0  0  0  0
    3.1366    3.5825    8.1402 H   0  0  0  0  0  0  0  0  0  0  0  0
    4.7570    3.2978   10.2280 C   0  0  0  0  0  0  0  0  0  0  0  0
    1.3806    2.3800    8.3784 C   0  0  0  0  0  0  0  0  0  0  0  0
    5.9708    3.0882    9.5921 C   0  0  0  0  0  0  0  0  0  0  0  0
    6.3326    2.0805    9.4508 H   0  0  0  0  0  0  0  0  0  0  0  0
    0.1172    2.0685    7.8954 C   0  0  0  0  0  0  0  0  0  0  0  0
   -0.4745    1.3284    8.4117 H   0  0  0  0  0  0  0  0  0  0  0  0
    6.7068    4.1775    9.1574 C   0  0  0  0  0  0  0  0  0  0  0  0
    7.6476    4.0131    8.6556 H   0  0  0  0  0  0  0  0  0  0  0  0
   -0.3544    2.7064    6.7627 C   0  0  0  0  0  0  0  0  0  0  0  0
   -1.3353    2.4626    6.3839 H   0  0  0  0  0  0  0  0  0  0  0  0
    6.2360    5.4640    9.3589 C   0  0  0  0  0  0  0  0  0  0  0  0
    6.8107    6.3097    9.0135 H   0  0  0  0  0  0  0  0  0  0  0  0
    0.4301    3.6438    6.1105 C   0  0  0  0  0  0  0  0  0  0  0  0
    0.0621    4.1308    5.2207 H   0  0  0  0  0  0  0  0  0  0  0  0
    5.0268    5.6654   10.0035 C   0  0  0  0  0  0  0  0  0  0  0  0
    4.6557    6.6664   10.1637 H   0  0  0  0  0  0  0  0  0  0  0  0
    1.6856    3.9554    6.6009 C   0  0  0  0  0  0  0  0  0  0  0  0
    2.3022    4.6861    6.1011 H   0  0  0  0  0  0  0  0  0  0  0  0
  1  3  1  0  0  0  0
  2  1  1  0  0  0  0
  3  4  1  0  0  0  0
  3  8  1  0  0  0  0
  5  3  1  0  0  0  0
  6  8  2  0  0  0  0
  6 35  1  0  0  0  0
  7  6  1  0  0  0  0
  8 11  1  0  0  0  0
  9 10  1  0  0  0  0
  9  7  2  0  0  0  0
 11 12  1  0  0  0  0
 11 15  2  0  0  0  0
 13  9  1  0  0  0  0
 14 13  1  0  0  0  0
 15 16  1  0  0  0  0
 17 13  2  0  0  0  0
 17 38  1  0  0  0  0
 18 17  1  0  0  0  0
 19 20  1  0  0  0  0
 21 38  2  0  0  0  0
 21 25  1  0  0  0  0
 22 21  1  0  0  0  0
 23 19  1  0  0  0  0
 23 24  1  0  0  0  0
 25 29  2  0  0  0  0
 26 25  1  0  0  0  0
 27 23  2  0  0  0  0
 28 27  1  0  0  0  0
 29 33  1  0  0  0  0
 29 30  1  0  0  0  0
 31 35  2  0  0  0  0
 31 27  1  0  0  0  0
 32 31  1  0  0  0  0
 33 34  1  0  0  0  0
 35 37  1  0  0  0  0
 36  7  1  0  0  0  0
 36 33  2  0  0  0  0
 37 15  1  0  0  0  0
 37 19  2  0  0  0  0
 38 36  1  0  0  0  0
 39 40  1  0  0  0  0
 41 42  1  0  0  0  0
 41 44  1  0  0  0  0
 43 39  1  0  0  0  0
 43  4  1  0  0  0  0
 44  5  1  0  0  0  0
 45 43  2  0  0  0  0
 46 45  1  0  0  0  0
 47 44  2  0  0  0  0
 47 48  1  0  0  0  0
 49 53  2  0  0  0  0
 49 45  1  0  0  0  0
 50 49  1  0  0  0  0
 51 47  1  0  0  0  0
 52 51  1  0  0  0  0
 53 57  1  0  0  0  0
 54 53  1  0  0  0  0
 55 59  1  0  0  0  0
 55 51  2  0  0  0  0
 56 55  1  0  0  0  0
 57 58  1  0  0  0  0
 57 39  2  0  0  0  0
 59 41  2  0  0  0  0
 60 59  1  0  0  0  0
M  END
$$$$
