CSD_code = FAYGOE | q = 0 | S = 0 | Stoichiometry = C33H25AuClO3P | MND = 2
 OpenBabel04212202033D

 64 69  0  0  0  0  0  0  0  0999 V2000
    4.5373    3.7253    7.2882 Au  0  0  0  0  0  0  0  0  0  0  0  0
    5.6912    3.4230    9.2124 Cl  0  0  0  0  0  0  0  0  0  0  0  0
    3.5223    4.0433    5.2957 P   0  0  0  0  0  4  0  0  0  0  0  0
    2.1976    4.9544    5.5887 O   0  0  0  0  0  0  0  0  0  0  0  0
    4.2333    5.0510    4.2845 O   0  0  0  0  0  0  0  0  0  0  0  0
    5.5512    2.4468    4.5291 O   0  0  0  0  0  0  0  0  0  0  0  0
    3.0627    1.5143    4.1947 C   0  0  0  0  0  0  0  0  0  0  0  0
    3.8877    1.0026    5.3043 C   0  0  0  0  0  0  0  0  0  0  0  0
    2.8651    2.8696    4.0719 C   0  0  0  0  0  0  0  0  0  0  0  0
    5.1977    1.4480    5.4008 C   0  0  0  0  0  0  0  0  0  0  0  0
    2.0781    3.4060    3.0376 C   0  0  0  0  0  0  0  0  0  0  0  0
    1.9341    4.4761    2.9965 H   0  0  0  0  0  0  0  0  0  0  0  0
    6.0609    0.9043    6.3678 C   0  0  0  0  0  0  0  0  0  0  0  0
    7.0906    1.2176    6.4175 H   0  0  0  0  0  0  0  0  0  0  0  0
    1.5100    2.5801    2.1140 C   0  0  0  0  0  0  0  0  0  0  0  0
    0.8989    2.9812    1.3182 H   0  0  0  0  0  0  0  0  0  0  0  0
    5.5916   -0.0082    7.2707 C   0  0  0  0  0  0  0  0  0  0  0  0
    6.2557   -0.4098    8.0206 H   0  0  0  0  0  0  0  0  0  0  0  0
    1.1648    0.3174    1.2100 C   0  0  0  0  0  0  0  0  0  0  0  0
    0.5510    0.7405    0.4276 H   0  0  0  0  0  0  0  0  0  0  0  0
    3.7255   -1.2809    8.2508 C   0  0  0  0  0  0  0  0  0  0  0  0
    4.3960   -1.6571    9.0093 H   0  0  0  0  0  0  0  0  0  0  0  0
    1.4022   -1.0274    1.2580 C   0  0  0  0  0  0  0  0  0  0  0  0
    0.9732   -1.6845    0.5161 H   0  0  0  0  0  0  0  0  0  0  0  0
    2.4045   -1.6285    8.2514 C   0  0  0  0  0  0  0  0  0  0  0  0
    2.0132   -2.2916    9.0085 H   0  0  0  0  0  0  0  0  0  0  0  0
    2.2175   -1.5622    2.2666 C   0  0  0  0  0  0  0  0  0  0  0  0
    2.4145   -2.6239    2.2824 H   0  0  0  0  0  0  0  0  0  0  0  0
    1.5421   -1.1154    7.2700 C   0  0  0  0  0  0  0  0  0  0  0  0
    0.4964   -1.3862    7.2880 H   0  0  0  0  0  0  0  0  0  0  0  0
    2.7628   -0.7503    3.2216 C   0  0  0  0  0  0  0  0  0  0  0  0
    3.3955   -1.1663    3.9907 H   0  0  0  0  0  0  0  0  0  0  0  0
    2.0124   -0.2758    6.2999 C   0  0  0  0  0  0  0  0  0  0  0  0
    1.3390    0.1207    5.5536 H   0  0  0  0  0  0  0  0  0  0  0  0
    2.5177    0.6399    3.2146 C   0  0  0  0  0  0  0  0  0  0  0  0
    3.3746    0.0983    6.2672 C   0  0  0  0  0  0  0  0  0  0  0  0
    1.7207    1.1852    2.1726 C   0  0  0  0  0  0  0  0  0  0  0  0
    4.2416   -0.4060    7.2724 C   0  0  0  0  0  0  0  0  0  0  0  0
    1.3009    4.6181    6.5726 C   0  0  0  0  0  0  0  0  0  0  0  0
    4.6725    6.2884    4.7509 C   0  0  0  0  0  0  0  0  0  0  0  0
    1.1903    3.3201    7.0464 C   0  0  0  0  0  0  0  0  0  0  0  0
    1.8173    2.5442    6.6282 H   0  0  0  0  0  0  0  0  0  0  0  0
    3.9659    7.4236    4.3860 C   0  0  0  0  0  0  0  0  0  0  0  0
    3.0767    7.3199    3.7832 H   0  0  0  0  0  0  0  0  0  0  0  0
    0.2697    3.0267    8.0371 C   0  0  0  0  0  0  0  0  0  0  0  0
    0.1946    2.0148    8.4049 H   0  0  0  0  0  0  0  0  0  0  0  0
    4.4094    8.6670    4.8013 C   0  0  0  0  0  0  0  0  0  0  0  0
    3.8594    9.5514    4.5173 H   0  0  0  0  0  0  0  0  0  0  0  0
   -0.5419    4.0238    8.5486 C   0  0  0  0  0  0  0  0  0  0  0  0
   -1.2583    3.7942    9.3223 H   0  0  0  0  0  0  0  0  0  0  0  0
    5.5465    8.7756    5.5840 C   0  0  0  0  0  0  0  0  0  0  0  0
    5.8859    9.7458    5.9129 H   0  0  0  0  0  0  0  0  0  0  0  0
   -0.4332    5.3181    8.0659 C   0  0  0  0  0  0  0  0  0  0  0  0
   -1.0649    6.0985    8.4623 H   0  0  0  0  0  0  0  0  0  0  0  0
    6.2451    7.6374    5.9488 C   0  0  0  0  0  0  0  0  0  0  0  0
    7.1285    7.7139    6.5637 H   0  0  0  0  0  0  0  0  0  0  0  0
    0.4882    5.6227    7.0812 C   0  0  0  0  0  0  0  0  0  0  0  0
    0.5931    6.6271    6.7009 H   0  0  0  0  0  0  0  0  0  0  0  0
    5.8114    6.3902    5.5334 C   0  0  0  0  0  0  0  0  0  0  0  0
    6.3473    5.4967    5.8154 H   0  0  0  0  0  0  0  0  0  0  0  0
    6.8995    2.8514    4.4836 C   0  0  0  0  0  0  0  0  0  0  0  0
    6.9432    3.6392    3.7329 H   0  0  0  0  0  0  0  0  0  0  0  0
    7.5495    2.0246    4.1821 H   0  0  0  0  0  0  0  0  0  0  0  0
    7.2366    3.2469    5.4473 H   0  0  0  0  0  0  0  0  0  0  0  0
  1  2  1  0  0  0  0
  3  4  1  0  0  0  0
  3  1  1  0  0  0  0
  4 39  1  0  0  0  0
  5 40  1  0  0  0  0
  5  3  1  0  0  0  0
  6 10  1  0  0  0  0
  7  8  1  0  0  0  0
  8 10  2  0  0  0  0
  8 36  1  0  0  0  0
  9  7  1  0  0  0  0
  9  3  1  0  0  0  0
 10 13  1  0  0  0  0
 11  9  2  0  0  0  0
 12 11  1  0  0  0  0
 13 14  1  0  0  0  0
 13 17  2  0  0  0  0
 15 37  2  0  0  0  0
 15 11  1  0  0  0  0
 16 15  1  0  0  0  0
 17 38  1  0  0  0  0
 17 18  1  0  0  0  0
 19 23  2  0  0  0  0
 19 37  1  0  0  0  0
 20 19  1  0  0  0  0
 21 25  1  0  0  0  0
 21 22  1  0  0  0  0
 23 27  1  0  0  0  0
 24 23  1  0  0  0  0
 25 26  1  0  0  0  0
 27 28  1  0  0  0  0
 27 31  2  0  0  0  0
 29 30  1  0  0  0  0
 29 25  2  0  0  0  0
 31 32  1  0  0  0  0
 33 29  1  0  0  0  0
 34 33  1  0  0  0  0
 35 31  1  0  0  0  0
 35  7  2  0  0  0  0
 36 33  2  0  0  0  0
 36 38  1  0  0  0  0
 37 35  1  0  0  0  0
 38 21  2  0  0  0  0
 39 41  2  0  0  0  0
 39 57  1  0  0  0  0
 40 59  1  0  0  0  0
 41 45  1  0  0  0  0
 42 41  1  0  0  0  0
 43 40  2  0  0  0  0
 43 47  1  0  0  0  0
 44 43  1  0  0  0  0
 45 46  1  0  0  0  0
 45 49  2  0  0  0  0
 47 51  2  0  0  0  0
 48 47  1  0  0  0  0
 49 50  1  0  0  0  0
 51 52  1  0  0  0  0
 51 55  1  0  0  0  0
 53 54  1  0  0  0  0
 53 49  1  0  0  0  0
 55 56  1  0  0  0  0
 57 53  2  0  0  0  0
 58 57  1  0  0  0  0
 59 60  1  0  0  0  0
 59 55  2  0  0  0  0
 61  6  1  0  0  0  0
 61 64  1  0  0  0  0
 62 61  1  0  0  0  0
 63 61  1  0  0  0  0
M  END
$$$$
