CSD_code = FAYGUK | q = 0 | S = 0 | Stoichiometry = C34H25AuClO2P | MND = 2
 OpenBabel04212202033D

 64 70  0  0  0  0  0  0  0  0999 V2000
    5.4900    2.4285    8.5664 Au  0  0  0  0  0  0  0  0  0  0  0  0
    4.9498    1.5574   10.5794 Cl  0  0  0  0  0  0  0  0  0  0  0  0
    6.1331    3.3344    6.6138 P   0  0  0  0  0  4  0  0  0  0  0  0
    7.7263    3.5925    6.5680 O   0  0  0  0  0  0  0  0  0  0  0  0
    5.9172    2.2544    5.4282 O   0  0  0  0  0  0  0  0  0  0  0  0
    4.3846    5.4141    6.2430 C   0  0  0  0  0  0  0  0  0  0  0  0
    3.5191    4.5920    7.1124 C   0  0  0  0  0  0  0  0  0  0  0  0
    5.6331    4.9349    5.9122 C   0  0  0  0  0  0  0  0  0  0  0  0
    2.8329    3.5308    6.5749 C   0  0  0  0  0  0  0  0  0  0  0  0
    2.8983    3.3330    5.5144 H   0  0  0  0  0  0  0  0  0  0  0  0
    6.4815    5.6542    5.0478 C   0  0  0  0  0  0  0  0  0  0  0  0
    7.4524    5.2495    4.8026 H   0  0  0  0  0  0  0  0  0  0  0  0
    2.0333    2.7106    7.3838 C   0  0  0  0  0  0  0  0  0  0  0  0
    1.5074    1.8815    6.9342 H   0  0  0  0  0  0  0  0  0  0  0  0
    6.0700    6.8471    4.5294 C   0  0  0  0  0  0  0  0  0  0  0  0
    6.7119    7.4031    3.8613 H   0  0  0  0  0  0  0  0  0  0  0  0
    1.9304    2.9536    8.7241 C   0  0  0  0  0  0  0  0  0  0  0  0
    1.3292    2.3172    9.3558 H   0  0  0  0  0  0  0  0  0  0  0  0
    4.3643    8.6198    4.3428 C   0  0  0  0  0  0  0  0  0  0  0  0
    5.0204    9.1685    3.6824 H   0  0  0  0  0  0  0  0  0  0  0  0
    2.5640    4.2779   10.7029 C   0  0  0  0  0  0  0  0  0  0  0  0
    1.9619    3.6262   11.3177 H   0  0  0  0  0  0  0  0  0  0  0  0
    3.1349    9.1168    4.6750 C   0  0  0  0  0  0  0  0  0  0  0  0
    2.8066   10.0664    4.2791 H   0  0  0  0  0  0  0  0  0  0  0  0
    3.2744    5.3034   11.2597 C   0  0  0  0  0  0  0  0  0  0  0  0
    3.2353    5.4786   12.3244 H   0  0  0  0  0  0  0  0  0  0  0  0
    2.2871    8.3985    5.5327 C   0  0  0  0  0  0  0  0  0  0  0  0
    1.3192    8.8057    5.7842 H   0  0  0  0  0  0  0  0  0  0  0  0
    4.0706    6.1319   10.4549 C   0  0  0  0  0  0  0  0  0  0  0  0
    4.6299    6.9361   10.9106 H   0  0  0  0  0  0  0  0  0  0  0  0
    2.6806    7.1944    6.0456 C   0  0  0  0  0  0  0  0  0  0  0  0
    2.0339    6.6362    6.7061 H   0  0  0  0  0  0  0  0  0  0  0  0
    4.1480    5.9222    9.1064 C   0  0  0  0  0  0  0  0  0  0  0  0
    4.7662    6.5574    8.4868 H   0  0  0  0  0  0  0  0  0  0  0  0
    3.9459    6.6582    5.7253 C   0  0  0  0  0  0  0  0  0  0  0  0
    3.4318    4.8675    8.5028 C   0  0  0  0  0  0  0  0  0  0  0  0
    4.8044    7.3824    4.8562 C   0  0  0  0  0  0  0  0  0  0  0  0
    2.6253    4.0289    9.3170 C   0  0  0  0  0  0  0  0  0  0  0  0
    8.6917    1.5945    5.6719 C   0  0  0  0  0  0  0  0  0  0  0  0
    8.0609    1.8987    4.3741 C   0  0  0  0  0  0  0  0  0  0  0  0
    8.5102    2.4496    6.7590 C   0  0  0  0  0  0  0  0  0  0  0  0
    6.7170    2.2626    4.2848 C   0  0  0  0  0  0  0  0  0  0  0  0
    9.1218    2.2196    7.9871 C   0  0  0  0  0  0  0  0  0  0  0  0
    6.1208    2.5597    3.0608 C   0  0  0  0  0  0  0  0  0  0  0  0
    9.9255    1.0912    8.1084 C   0  0  0  0  0  0  0  0  0  0  0  0
   10.4026    0.8929    9.0560 H   0  0  0  0  0  0  0  0  0  0  0  0
    6.8993    2.4850    1.9142 C   0  0  0  0  0  0  0  0  0  0  0  0
    6.4505    2.7148    0.9594 H   0  0  0  0  0  0  0  0  0  0  0  0
   10.1115    0.2266    7.0454 C   0  0  0  0  0  0  0  0  0  0  0  0
   10.7334   -0.6474    7.1654 H   0  0  0  0  0  0  0  0  0  0  0  0
    8.2335    2.1235    1.9822 C   0  0  0  0  0  0  0  0  0  0  0  0
    8.8249    2.0728    1.0807 H   0  0  0  0  0  0  0  0  0  0  0  0
    9.5070    0.4787    5.8282 C   0  0  0  0  0  0  0  0  0  0  0  0
    9.6437   -0.1952    4.9964 H   0  0  0  0  0  0  0  0  0  0  0  0
    8.8098    1.8288    3.2021 C   0  0  0  0  0  0  0  0  0  0  0  0
    9.8526    1.5576    3.2641 H   0  0  0  0  0  0  0  0  0  0  0  0
    8.9213    3.1486    9.1427 C   0  0  0  0  0  0  0  0  0  0  0  0
    8.6768    4.1513    8.7997 H   0  0  0  0  0  0  0  0  0  0  0  0
    9.8178    3.1885    9.7568 H   0  0  0  0  0  0  0  0  0  0  0  0
    8.0996    2.7929    9.7675 H   0  0  0  0  0  0  0  0  0  0  0  0
    4.6749    2.9413    3.0043 C   0  0  0  0  0  0  0  0  0  0  0  0
    4.0656    2.1669    3.4686 H   0  0  0  0  0  0  0  0  0  0  0  0
    4.3529    3.0769    1.9755 H   0  0  0  0  0  0  0  0  0  0  0  0
    4.5078    3.8717    3.5485 H   0  0  0  0  0  0  0  0  0  0  0  0
  1  2  1  0  0  0  0
  3  1  1  0  0  0  0
  4  3  1  0  0  0  0
  4 41  1  0  0  0  0
  5  3  1  0  0  0  0
  6  7  1  0  0  0  0
  7 36  1  0  0  0  0
  8  6  1  0  0  0  0
  8  3  1  0  0  0  0
  9  7  2  0  0  0  0
  9 13  1  0  0  0  0
 10  9  1  0  0  0  0
 11  8  2  0  0  0  0
 12 11  1  0  0  0  0
 13 17  2  0  0  0  0
 14 13  1  0  0  0  0
 15 37  2  0  0  0  0
 15 11  1  0  0  0  0
 16 15  1  0  0  0  0
 17 38  1  0  0  0  0
 17 18  1  0  0  0  0
 19 23  2  0  0  0  0
 19 37  1  0  0  0  0
 20 19  1  0  0  0  0
 21 25  1  0  0  0  0
 21 22  1  0  0  0  0
 23 27  1  0  0  0  0
 24 23  1  0  0  0  0
 25 26  1  0  0  0  0
 27 28  1  0  0  0  0
 27 31  2  0  0  0  0
 29 30  1  0  0  0  0
 29 25  2  0  0  0  0
 31 32  1  0  0  0  0
 33 29  1  0  0  0  0
 34 33  1  0  0  0  0
 35 31  1  0  0  0  0
 35  6  2  0  0  0  0
 36 33  2  0  0  0  0
 36 38  1  0  0  0  0
 37 35  1  0  0  0  0
 38 21  2  0  0  0  0
 39 53  2  0  0  0  0
 39 41  1  0  0  0  0
 40 39  1  0  0  0  0
 41 43  2  0  0  0  0
 42 40  1  0  0  0  0
 42  5  1  0  0  0  0
 43 45  1  0  0  0  0
 43 57  1  0  0  0  0
 44 42  2  0  0  0  0
 45 46  1  0  0  0  0
 47 51  2  0  0  0  0
 47 44  1  0  0  0  0
 48 47  1  0  0  0  0
 49 50  1  0  0  0  0
 49 45  2  0  0  0  0
 51 55  1  0  0  0  0
 52 51  1  0  0  0  0
 53 49  1  0  0  0  0
 54 53  1  0  0  0  0
 55 56  1  0  0  0  0
 55 40  2  0  0  0  0
 57 59  1  0  0  0  0
 57 60  1  0  0  0  0
 58 57  1  0  0  0  0
 61 44  1  0  0  0  0
 61 62  1  0  0  0  0
 61 64  1  0  0  0  0
 63 61  1  0  0  0  0
M  END
$$$$
