CSD_code = FAYLAV | q = 0 | S = 0 | Stoichiometry = C12H24Br2N4NiS2 | MND = 4
 OpenBabel04212202033D

 45 46  0  0  1  0  0  0  0  0999 V2000
   -0.2326   12.2969    2.9364 Ni  0  0  0  0  0  0  0  0  0  0  0  0
   -1.3610   10.7873    1.7169 Br  0  0  0  0  0  0  0  0  0  0  0  0
    1.4117   14.0514    3.1080 S   0  0  0  0  0  0  0  0  0  0  0  0
    1.3886   14.3535    1.4489 C   0  0  1  0  0  3  0  0  0  0  0  0
    1.9456   15.4640    0.9465 N   0  0  0  0  0  0  0  0  0  0  0  0
    2.6534   16.3989    1.7965 C   0  0  0  0  0  0  0  0  0  0  0  0
    3.4105   16.8950    1.1843 H   0  0  0  0  0  0  0  0  0  0  0  0
    3.1604   15.8342    2.5832 H   0  0  0  0  0  0  0  0  0  0  0  0
    1.7181   17.4255    2.4284 C   0  0  0  0  0  0  0  0  0  0  0  0
    1.1650   17.9698    1.6658 H   0  0  0  0  0  0  0  0  0  0  0  0
    2.2928   18.1352    3.0162 H   0  0  0  0  0  0  0  0  0  0  0  0
    1.0109   16.9245    3.0840 H   0  0  0  0  0  0  0  0  0  0  0  0
    1.7953   15.8039   -0.4562 C   0  0  0  0  0  0  0  0  0  0  0  0
    2.6737   15.4572   -1.0164 H   0  0  0  0  0  0  0  0  0  0  0  0
    1.7464   16.8929   -0.5375 H   0  0  0  0  0  0  0  0  0  0  0  0
    0.5296   15.1720   -1.0233 C   0  0  0  0  0  0  0  0  0  0  0  0
    0.4452   15.3845   -2.0873 H   0  0  0  0  0  0  0  0  0  0  0  0
   -0.3443   15.5815   -0.5120 H   0  0  0  0  0  0  0  0  0  0  0  0
    0.5945   13.6713   -0.7741 C   0  0  0  0  0  0  0  0  0  0  0  0
   -0.3400   13.1796   -1.0524 H   0  0  0  0  0  0  0  0  0  0  0  0
    1.4099   13.2195   -1.3533 H   0  0  0  0  0  0  0  0  0  0  0  0
    0.8178   13.4624    0.6354 N   0  0  0  0  0  0  0  0  0  0  0  0
    0.4113   12.6151    1.0702 H   0  0  0  0  0  0  0  0  0  0  0  0
    0.8961   10.7877    4.1560 Br  0  0  0  0  0  0  0  0  0  0  0  0
   -1.8771   14.0512    2.7646 S   0  0  0  0  0  0  0  0  0  0  0  0
   -1.8540   14.3533    4.4238 C   0  0  1  0  0  3  0  0  0  0  0  0
   -2.4110   15.4639    4.9261 N   0  0  0  0  0  0  0  0  0  0  0  0
   -3.1186   16.3989    4.0760 C   0  0  0  0  0  0  0  0  0  0  0  0
   -3.8757   16.8951    4.6881 H   0  0  0  0  0  0  0  0  0  0  0  0
   -3.6256   15.8342    3.2894 H   0  0  0  0  0  0  0  0  0  0  0  0
   -2.1831   17.4253    3.4441 C   0  0  0  0  0  0  0  0  0  0  0  0
   -1.6300   17.9696    4.2067 H   0  0  0  0  0  0  0  0  0  0  0  0
   -2.7577   18.1350    2.8562 H   0  0  0  0  0  0  0  0  0  0  0  0
   -1.4759   16.9241    2.7886 H   0  0  0  0  0  0  0  0  0  0  0  0
   -2.2606   15.8039    6.3288 C   0  0  0  0  0  0  0  0  0  0  0  0
   -3.1391   15.4572    6.8890 H   0  0  0  0  0  0  0  0  0  0  0  0
   -2.2117   16.8929    6.4100 H   0  0  0  0  0  0  0  0  0  0  0  0
   -0.9950   15.1719    6.8959 C   0  0  0  0  0  0  0  0  0  0  0  0
   -0.9106   15.3843    7.9599 H   0  0  0  0  0  0  0  0  0  0  0  0
   -0.1211   15.5812    6.3846 H   0  0  0  0  0  0  0  0  0  0  0  0
   -1.0599   13.6712    6.6467 C   0  0  0  0  0  0  0  0  0  0  0  0
   -0.1255   13.1794    6.9250 H   0  0  0  0  0  0  0  0  0  0  0  0
   -1.8754   13.2194    7.2259 H   0  0  0  0  0  0  0  0  0  0  0  0
   -1.2832   13.4622    5.2373 N   0  0  0  0  0  0  0  0  0  0  0  0
   -0.8768   12.6149    4.8025 H   0  0  0  0  0  0  0  0  0  0  0  0
  1  3  1  0  0  0  0
  1 24  1  0  0  0  0
  2  1  1  0  0  0  0
  4  3  1  6  0  0  0
  5  4  1  0  0  0  0
  5  6  1  0  0  0  0
  6  9  1  0  0  0  0
  6  8  1  0  0  0  0
  7  6  1  0  0  0  0
  9 11  1  0  0  0  0
  9 12  1  0  0  0  0
 10  9  1  0  0  0  0
 13  5  1  0  0  0  0
 14 13  1  0  0  0  0
 15 13  1  0  0  0  0
 16 19  1  0  0  0  0
 16 18  1  0  0  0  0
 16 13  1  0  0  0  0
 17 16  1  0  0  0  0
 19 22  1  0  0  0  0
 20 19  1  0  0  0  0
 21 19  1  0  0  0  0
 22 23  1  0  0  0  0
 22  4  1  0  0  0  0
 25  1  1  0  0  0  0
 26 25  1  1  0  0  0
 26 27  1  0  0  0  0
 26 44  1  0  0  0  0
 27 35  1  0  0  0  0
 28 29  1  0  0  0  0
 28 27  1  0  0  0  0
 30 28  1  0  0  0  0
 31 28  1  0  0  0  0
 31 32  1  0  0  0  0
 33 31  1  0  0  0  0
 34 31  1  0  0  0  0
 35 37  1  0  0  0  0
 35 36  1  0  0  0  0
 35 38  1  0  0  0  0
 38 39  1  0  0  0  0
 40 38  1  0  0  0  0
 41 38  1  0  0  0  0
 41 42  1  0  0  0  0
 41 43  1  0  0  0  0
 44 41  1  0  0  0  0
 45 44  1  0  0  0  0
M  END
$$$$
