CSD_code = FAYNEB | q = 0 | S = 0 | Stoichiometry = C18H28Cl2N2NiP2 | MND = 4
 OpenBabel04212202033D

 53 55  0  0  0  0  0  0  0  0999 V2000
    5.9168    8.8342    5.5557 Ni  0  0  0  0  0  0  0  0  0  0  0  0
    4.5812    7.1811    5.6641 P   0  0  2  0  0  4  0  0  0  0  0  0
    5.5290    9.0984    3.4683 P   0  0  2  0  0  4  0  0  0  0  0  0
    6.6163    8.1479    7.4174 Cl  0  0  0  0  0  0  0  0  0  0  0  0
    6.8527   10.7148    5.5160 Cl  0  0  0  0  0  0  0  0  0  0  0  0
    3.7625    7.8292    1.7985 N   0  0  0  0  0  0  0  0  0  0  0  0
    3.2318    5.8236    3.6903 N   0  0  0  0  0  0  0  0  0  0  0  0
    2.9836    7.7570    6.4733 C   0  0  0  0  0  0  0  0  0  0  0  0
    2.5079    8.9752    5.6784 C   0  0  0  0  0  0  0  0  0  0  0  0
    2.1694    8.6951    4.6805 H   0  0  0  0  0  0  0  0  0  0  0  0
    3.3241    9.7019    5.5826 H   0  0  0  0  0  0  0  0  0  0  0  0
    1.6822    9.4640    6.1933 H   0  0  0  0  0  0  0  0  0  0  0  0
    3.3125    8.1872    7.9009 C   0  0  0  0  0  0  0  0  0  0  0  0
    2.4076    8.5182    8.4083 H   0  0  0  0  0  0  0  0  0  0  0  0
    4.0269    9.0113    7.8946 H   0  0  0  0  0  0  0  0  0  0  0  0
    3.7491    7.3694    8.4710 H   0  0  0  0  0  0  0  0  0  0  0  0
    1.9316    6.6530    6.4722 C   0  0  0  0  0  0  0  0  0  0  0  0
    0.9725    7.0673    6.7803 H   0  0  0  0  0  0  0  0  0  0  0  0
    2.1981    5.8633    7.1706 H   0  0  0  0  0  0  0  0  0  0  0  0
    1.8136    6.2174    5.4811 H   0  0  0  0  0  0  0  0  0  0  0  0
    4.8993    5.5106    6.3064 C   0  0  0  0  0  0  0  0  0  0  0  0
    4.1155    4.8397    5.9588 H   0  0  0  0  0  0  0  0  0  0  0  0
    4.9468    5.5462    7.3929 H   0  0  0  0  0  0  0  0  0  0  0  0
    5.8682    5.1793    5.9324 H   0  0  0  0  0  0  0  0  0  0  0  0
    3.9783    6.8598    3.9686 C   0  0  0  0  0  0  0  0  0  0  0  0
    4.3040    7.8349    2.9873 C   0  0  0  0  0  0  0  0  0  0  0  0
    7.0738    8.4946    2.5719 C   0  0  0  0  0  0  0  0  0  0  0  0
    6.7571    7.8925    1.2060 C   0  0  0  0  0  0  0  0  0  0  0  0
    7.6873    7.7143    0.6683 H   0  0  0  0  0  0  0  0  0  0  0  0
    6.1406    8.5607    0.6090 H   0  0  0  0  0  0  0  0  0  0  0  0
    6.2355    6.9418    1.2988 H   0  0  0  0  0  0  0  0  0  0  0  0
    7.6939    7.4411    3.4930 C   0  0  0  0  0  0  0  0  0  0  0  0
    7.0265    6.5824    3.6038 H   0  0  0  0  0  0  0  0  0  0  0  0
    7.8840    7.8709    4.4882 H   0  0  0  0  0  0  0  0  0  0  0  0
    8.6425    7.0866    3.0931 H   0  0  0  0  0  0  0  0  0  0  0  0
    8.0198    9.6843    2.4202 C   0  0  0  0  0  0  0  0  0  0  0  0
    9.0056    9.3340    2.1184 H   0  0  0  0  0  0  0  0  0  0  0  0
    8.1194   10.2169    3.3655 H   0  0  0  0  0  0  0  0  0  0  0  0
    7.6578   10.3754    1.6622 H   0  0  0  0  0  0  0  0  0  0  0  0
    4.9655   10.5734    2.5673 C   0  0  0  0  0  0  0  0  0  0  0  0
    4.9165   10.3599    1.5011 H   0  0  0  0  0  0  0  0  0  0  0  0
    5.6534   11.3902    2.7790 H   0  0  0  0  0  0  0  0  0  0  0  0
    3.9731   10.8402    2.9304 H   0  0  0  0  0  0  0  0  0  0  0  0
    2.9399    6.7991    1.5017 C   0  0  0  0  0  0  0  0  0  0  0  0
    2.3248    6.7345    0.2371 C   0  0  0  0  0  0  0  0  0  0  0  0
    2.4994    7.5413   -0.4575 H   0  0  0  0  0  0  0  0  0  0  0  0
    1.5416    5.6596   -0.0825 C   0  0  0  0  0  0  0  0  0  0  0  0
    1.0720    5.6030   -1.0531 H   0  0  0  0  0  0  0  0  0  0  0  0
    1.3393    4.6165    0.8372 C   0  0  0  0  0  0  0  0  0  0  0  0
    0.7188    3.7792    0.5546 H   0  0  0  0  0  0  0  0  0  0  0  0
    1.9132    4.6542    2.0782 C   0  0  0  0  0  0  0  0  0  0  0  0
    1.7638    3.8671    2.8009 H   0  0  0  0  0  0  0  0  0  0  0  0
    2.7175    5.7508    2.4418 C   0  0  0  0  0  0  0  0  0  0  0  0
  1  2  1  0  0  0  0
  1  4  1  0  0  0  0
  2 21  1  1  0  0  0
  2  8  1  0  0  0  0
  3 40  1  6  0  0  0
  3  1  1  0  0  0  0
  5  1  1  0  0  0  0
  6 26  1  0  0  0  0
  7 25  1  0  0  0  0
  8 13  1  0  0  0  0
  9 12  1  0  0  0  0
  9  8  1  0  0  0  0
 10  9  1  0  0  0  0
 11  9  1  0  0  0  0
 13 14  1  0  0  0  0
 13 16  1  0  0  0  0
 15 13  1  0  0  0  0
 17  8  1  0  0  0  0
 17 18  1  0  0  0  0
 17 19  1  0  0  0  0
 20 17  1  0  0  0  0
 21 23  1  0  0  0  0
 22 21  1  0  0  0  0
 24 21  1  0  0  0  0
 25  2  1  0  0  0  0
 26  3  1  0  0  0  0
 26 25  2  0  0  0  0
 27  3  1  0  0  0  0
 27 32  1  0  0  0  0
 28 31  1  0  0  0  0
 28 27  1  0  0  0  0
 29 28  1  0  0  0  0
 30 28  1  0  0  0  0
 32 33  1  0  0  0  0
 32 34  1  0  0  0  0
 35 32  1  0  0  0  0
 36 27  1  0  0  0  0
 36 38  1  0  0  0  0
 37 36  1  0  0  0  0
 39 36  1  0  0  0  0
 40 42  1  0  0  0  0
 40 43  1  0  0  0  0
 41 40  1  0  0  0  0
 44  6  2  0  0  0  0
 44 53  1  0  0  0  0
 45 44  1  0  0  0  0
 46 45  1  0  0  0  0
 47 45  2  0  0  0  0
 47 49  1  0  0  0  0
 48 47  1  0  0  0  0
 49 51  2  0  0  0  0
 50 49  1  0  0  0  0
 51 53  1  0  0  0  0
 51 52  1  0  0  0  0
 53  7  2  0  0  0  0
M  END
$$$$
