CSD_code = FAYVIN | q = 0 | S = 0 | Stoichiometry = C18H40BCl2N3P2Pd | MND = 4
 OpenBabel04212202033D

 67 69  0  0  1  0  0  0  0  0999 V2000
    2.3295   12.9625   11.4585 Pd  0  0  0  0  0  0  0  0  0  0  0  0
    1.8387   10.7867   11.3244 P   0  0  0  0  0  4  0  0  0  0  0  0
    2.6137   13.3859    9.2829 P   0  0  0  0  0  4  0  0  0  0  0  0
    2.9535   15.1345   11.8182 Cl  0  0  0  0  0  0  0  0  0  0  0  0
    1.9387   12.7653   13.7048 Cl  0  0  0  0  0  0  0  0  0  0  0  0
    1.9341   10.0836    9.7854 N   0  0  1  0  0  0  0  0  0  0  0  0
    1.9523    9.8447    7.3464 N   0  0  2  0  0  0  0  0  0  0  0  0
    2.2817   12.1125    8.2151 N   0  0  2  0  0  0  0  0  0  0  0  0
    3.0584    9.9411   12.4725 C   0  0  0  0  0  0  0  0  0  0  0  0
    2.7156   10.3101   13.4478 H   0  0  0  0  0  0  0  0  0  0  0  0
    4.4260   10.5679   12.1940 C   0  0  0  0  0  0  0  0  0  0  0  0
    4.7654   10.3168   11.1880 H   0  0  0  0  0  0  0  0  0  0  0  0
    5.1625   10.2014   12.9075 H   0  0  0  0  0  0  0  0  0  0  0  0
    4.3687   11.6635   12.3002 H   0  0  0  0  0  0  0  0  0  0  0  0
    1.7502    8.6307    9.7637 C   0  0  0  0  0  0  0  0  0  0  0  0
    1.4278    8.2906   10.7461 H   0  0  0  0  0  0  0  0  0  0  0  0
    2.6996    8.1406    9.5199 H   0  0  0  0  0  0  0  0  0  0  0  0
    0.1104   10.3316   11.8918 C   0  0  0  0  0  0  0  0  0  0  0  0
   -0.2255    9.4622   11.3129 H   0  0  0  0  0  0  0  0  0  0  0  0
    1.4656   14.8230    8.9131 C   0  0  0  0  0  0  0  0  0  0  0  0
    1.9449   15.6252    9.4888 H   0  0  0  0  0  0  0  0  0  0  0  0
    2.4417   10.1603    6.0211 C   0  0  0  0  0  0  0  0  0  0  0  0
    1.5968   10.2162    5.3167 H   0  0  0  0  0  0  0  0  0  0  0  0
    3.0977    9.3465    5.6792 H   0  0  0  0  0  0  0  0  0  0  0  0
    4.3503   13.9021    8.8000 C   0  0  0  0  0  0  0  0  0  0  0  0
    4.5408   13.5593    7.7753 H   0  0  0  0  0  0  0  0  0  0  0  0
    3.1823    8.4223   12.5481 C   0  0  0  0  0  0  0  0  0  0  0  0
    2.2247    7.9342   12.7150 H   0  0  0  0  0  0  0  0  0  0  0  0
    3.8265    8.1732   13.3913 H   0  0  0  0  0  0  0  0  0  0  0  0
    3.6388    8.0121   11.6508 H   0  0  0  0  0  0  0  0  0  0  0  0
   -0.7489   11.5346   11.5044 C   0  0  0  0  0  0  0  0  0  0  0  0
   -0.4095   12.4172   12.0594 H   0  0  0  0  0  0  0  0  0  0  0  0
   -1.7969   11.3605   11.7436 H   0  0  0  0  0  0  0  0  0  0  0  0
   -0.6609   11.7260   10.4330 H   0  0  0  0  0  0  0  0  0  0  0  0
    1.3393    8.5333    7.3574 C   0  0  0  0  0  0  0  0  0  0  0  0
    2.0957    7.7681    7.1224 H   0  0  0  0  0  0  0  0  0  0  0  0
    0.5750    8.4894    6.5678 H   0  0  0  0  0  0  0  0  0  0  0  0
    0.7223    8.2429    8.7116 C   0  0  0  0  0  0  0  0  0  0  0  0
   -0.1790    8.8422    8.8489 H   0  0  0  0  0  0  0  0  0  0  0  0
    0.4623    7.1873    8.7926 H   0  0  0  0  0  0  0  0  0  0  0  0
    0.1320   14.4991    9.5894 C   0  0  0  0  0  0  0  0  0  0  0  0
   -0.3360   13.6329    9.1194 H   0  0  0  0  0  0  0  0  0  0  0  0
   -0.5489   15.3449    9.5083 H   0  0  0  0  0  0  0  0  0  0  0  0
    0.2913   14.2947   10.6608 H   0  0  0  0  0  0  0  0  0  0  0  0
    3.1895   11.4792    6.0278 C   0  0  0  0  0  0  0  0  0  0  0  0
    4.1498   11.3627    6.5325 H   0  0  0  0  0  0  0  0  0  0  0  0
    3.3639   11.8228    5.0080 H   0  0  0  0  0  0  0  0  0  0  0  0
   -0.0206   10.0315   13.3792 C   0  0  0  0  0  0  0  0  0  0  0  0
    0.5175    9.1288   13.6580 H   0  0  0  0  0  0  0  0  0  0  0  0
   -1.0716    9.8892   13.6278 H   0  0  0  0  0  0  0  0  0  0  0  0
    0.3623   10.8649   13.9633 H   0  0  0  0  0  0  0  0  0  0  0  0
    2.0582   10.6998    8.4745 B   0  0  0  0  0  0  0  0  0  0  0  0
    1.2266   15.3263    7.4926 C   0  0  0  0  0  0  0  0  0  0  0  0
    2.1537   15.5354    6.9637 H   0  0  0  0  0  0  0  0  0  0  0  0
    0.6663   16.2594    7.5501 H   0  0  0  0  0  0  0  0  0  0  0  0
    0.6368   14.6220    6.9113 H   0  0  0  0  0  0  0  0  0  0  0  0
    5.2586   13.1224    9.7501 C   0  0  0  0  0  0  0  0  0  0  0  0
    5.0640   13.4407   10.7812 H   0  0  0  0  0  0  0  0  0  0  0  0
    6.3086   13.3050    9.5265 H   0  0  0  0  0  0  0  0  0  0  0  0
    5.0615   12.0523    9.6594 H   0  0  0  0  0  0  0  0  0  0  0  0
    2.3337   12.4742    6.7968 C   0  0  0  0  0  0  0  0  0  0  0  0
    2.7410   13.4782    6.6926 H   0  0  0  0  0  0  0  0  0  0  0  0
    1.3227   12.4631    6.3739 H   0  0  0  0  0  0  0  0  0  0  0  0
    4.6269   15.3969    8.8947 C   0  0  0  0  0  0  0  0  0  0  0  0
    4.0506   15.9612    8.1656 H   0  0  0  0  0  0  0  0  0  0  0  0
    5.6839   15.5814    8.7066 H   0  0  0  0  0  0  0  0  0  0  0  0
    4.3854   15.7588    9.8913 H   0  0  0  0  0  0  0  0  0  0  0  0
  1  4  1  0  0  0  0
  1  5  1  0  0  0  0
  2  1  1  0  0  0  0
  2 18  1  0  0  0  0
  2  9  1  0  0  0  0
  3  1  1  0  0  0  0
  6 52  1  6  0  0  0
  6  2  1  0  0  0  0
  7 22  1  6  0  0  0
  7 35  1  0  0  0  0
  7 52  1  0  0  0  0
  8 61  1  6  0  0  0
  8 52  1  0  0  0  0
  8  3  1  0  0  0  0
  9 27  1  0  0  0  0
  9 10  1  0  0  0  0
 11 14  1  0  0  0  0
 11  9  1  0  0  0  0
 11 13  1  0  0  0  0
 12 11  1  0  0  0  0
 15  6  1  0  0  0  0
 15 16  1  0  0  0  0
 17 15  1  0  0  0  0
 18 48  1  0  0  0  0
 19 18  1  0  0  0  0
 20  3  1  0  0  0  0
 20 21  1  0  0  0  0
 20 41  1  0  0  0  0
 22 45  1  0  0  0  0
 23 22  1  0  0  0  0
 24 22  1  0  0  0  0
 25 64  1  0  0  0  0
 25  3  1  0  0  0  0
 25 57  1  0  0  0  0
 26 25  1  0  0  0  0
 27 28  1  0  0  0  0
 27 29  1  0  0  0  0
 30 27  1  0  0  0  0
 31 33  1  0  0  0  0
 31 18  1  0  0  0  0
 31 32  1  0  0  0  0
 34 31  1  0  0  0  0
 35 38  1  0  0  0  0
 36 35  1  0  0  0  0
 37 35  1  0  0  0  0
 38 40  1  0  0  0  0
 38 39  1  0  0  0  0
 38 15  1  0  0  0  0
 41 44  1  0  0  0  0
 42 41  1  0  0  0  0
 43 41  1  0  0  0  0
 45 46  1  0  0  0  0
 45 61  1  0  0  0  0
 47 45  1  0  0  0  0
 48 50  1  0  0  0  0
 48 49  1  0  0  0  0
 48 51  1  0  0  0  0
 53 55  1  0  0  0  0
 53 20  1  0  0  0  0
 54 53  1  0  0  0  0
 56 53  1  0  0  0  0
 57 58  1  0  0  0  0
 59 57  1  0  0  0  0
 60 57  1  0  0  0  0
 62 61  1  0  0  0  0
 63 61  1  0  0  0  0
 64 67  1  0  0  0  0
 65 64  1  0  0  0  0
 66 64  1  0  0  0  0
M  END
$$$$
