CSD_code = FAZRUV | q = 0 | S = 0 | Stoichiometry = C14H16ClNOPtS | MND = 4
 OpenBabel04212202033D

 35 37  0  0  0  0  0  0  0  0999 V2000
    1.2870    1.9905    1.4406 Pt  0  0  2  0  0  0  0  0  0  0  0  0
    3.2352    2.7158    0.2979 Cl  0  0  0  0  0  0  0  0  0  0  0  0
    0.9923    4.2078    1.7242 S   0  0  0  0  0  0  0  0  0  0  0  0
   -0.1609    4.7352    2.4397 O   0  0  0  0  0  1  0  0  0  0  0  0
    2.4478    4.9613    2.5152 C   0  0  0  0  0  0  0  0  0  0  0  0
    2.2715    6.0279    2.5930 H   0  0  0  0  0  0  0  0  0  0  0  0
    3.3235    4.7400    1.9169 H   0  0  0  0  0  0  0  0  0  0  0  0
    2.5438    4.5255    3.5050 H   0  0  0  0  0  0  0  0  0  0  0  0
    1.0351    5.1007    0.1391 C   0  0  0  0  0  0  0  0  0  0  0  0
    0.1843    4.7669   -0.4469 H   0  0  0  0  0  0  0  0  0  0  0  0
    1.9622    4.8651   -0.3696 H   0  0  0  0  0  0  0  0  0  0  0  0
    0.9492    6.1603    0.3509 H   0  0  0  0  0  0  0  0  0  0  0  0
    1.6052    0.0320    1.1652 N   0  0  0  0  0  0  0  0  0  0  0  0
    0.6827   -0.8098    1.6893 C   0  0  0  0  0  0  0  0  0  0  0  0
   -0.4121   -0.1413    2.3744 C   0  0  0  0  0  0  0  0  0  0  0  0
   -0.3308    1.2679    2.3835 C   0  0  0  0  0  0  0  0  0  0  0  0
   -1.3397    1.9753    3.0180 C   0  0  0  0  0  0  0  0  0  0  0  0
   -1.3070    3.0543    3.0433 H   0  0  0  0  0  0  0  0  0  0  0  0
   -2.3986    1.3160    3.6257 C   0  0  0  0  0  0  0  0  0  0  0  0
   -3.1747    1.8869    4.1146 H   0  0  0  0  0  0  0  0  0  0  0  0
   -2.4687   -0.0683    3.6101 C   0  0  0  0  0  0  0  0  0  0  0  0
   -3.2961   -0.5754    4.0847 H   0  0  0  0  0  0  0  0  0  0  0  0
   -1.4780   -0.7999    2.9861 C   0  0  0  0  0  0  0  0  0  0  0  0
   -1.5360   -1.8783    2.9759 H   0  0  0  0  0  0  0  0  0  0  0  0
    0.8396   -2.1876    1.5439 C   0  0  0  0  0  0  0  0  0  0  0  0
    0.1054   -2.8554    1.9641 H   0  0  0  0  0  0  0  0  0  0  0  0
    1.9305   -2.6919    0.8668 C   0  0  0  0  0  0  0  0  0  0  0  0
    2.0569   -3.7585    0.7525 H   0  0  0  0  0  0  0  0  0  0  0  0
    2.8727   -1.8167    0.3301 C   0  0  0  0  0  0  0  0  0  0  0  0
    2.6567   -0.4587    0.5121 C   0  0  0  0  0  0  0  0  0  0  0  0
    3.3602    0.2633    0.1158 H   0  0  0  0  0  0  0  0  0  0  0  0
    4.0628   -2.3119   -0.4258 C   0  0  0  0  0  0  0  0  0  0  0  0
    4.7965   -1.5207   -0.5503 H   0  0  0  0  0  0  0  0  0  0  0  0
    3.7591   -2.6572   -1.4139 H   0  0  0  0  0  0  0  0  0  0  0  0
    4.5251   -3.1492    0.0927 H   0  0  0  0  0  0  0  0  0  0  0  0
  1  2  1  6  0  0  0
  1  3  1  0  0  0  0
  1 16  2  0  0  0  0
  3  4  1  0  0  0  0
  3  5  1  0  0  0  0
  5  6  1  0  0  0  0
  5  8  1  0  0  0  0
  7  5  1  0  0  0  0
  9 12  1  0  0  0  0
  9  3  1  0  0  0  0
 10  9  1  0  0  0  0
 11  9  1  0  0  0  0
 13  1  1  0  0  0  0
 13 14  1  0  0  0  0
 14 15  2  0  0  0  0
 15 16  1  0  0  0  0
 15 23  1  0  0  0  0
 16 17  1  0  0  0  0
 17 18  1  0  0  0  0
 17 19  2  0  0  0  0
 19 20  1  0  0  0  0
 21 19  1  0  0  0  0
 21 22  1  0  0  0  0
 23 21  2  0  0  0  0
 24 23  1  0  0  0  0
 25 14  1  0  0  0  0
 25 26  1  0  0  0  0
 27 25  2  0  0  0  0
 28 27  1  0  0  0  0
 29 30  2  0  0  0  0
 29 27  1  0  0  0  0
 30 13  1  0  0  0  0
 31 30  1  0  0  0  0
 32 35  1  0  0  0  0
 32 29  1  0  0  0  0
 33 32  1  0  0  0  0
 34 32  1  0  0  0  0
M  END
$$$$
