CSD_code = FAZSII | q = 0 | S = 0 | Stoichiometry = C17H27Cl2CuN6O | MND = 5
 OpenBabel04212202033D

 54 57  0  0  1  0  0  0  0  0999 V2000
    1.2875    8.0993    3.0132 Cu  0  0  0  0  0  0  0  0  0  0  0  0
   -0.4223    8.1352    1.6004 Cl  0  0  0  0  0  0  0  0  0  0  0  0
    2.8947    8.6249    4.4140 Cl  0  0  0  0  0  0  0  0  0  0  0  0
    0.0771    7.3813    4.5245 N   0  0  1  0  0  0  0  0  0  0  0  0
   -0.3182    6.1147    4.4868 N   0  0  0  0  0  0  0  0  0  0  0  0
   -0.3006    7.8830    5.6851 C   0  0  0  0  0  3  0  0  0  0  0  0
   -0.9762    6.9088    6.4230 C   0  0  0  0  0  0  0  0  0  0  0  0
   -0.9671    5.7911    5.6189 C   0  0  0  0  0  0  0  0  0  0  0  0
    2.6312    7.5506    1.5445 N   0  0  2  0  0  0  0  0  0  0  0  0
    2.5371    6.3137    1.0688 N   0  0  0  0  0  0  0  0  0  0  0  0
    3.7598    8.0650    1.0948 C   0  0  0  0  0  3  0  0  0  0  0  0
    4.4184    7.1301    0.2920 C   0  0  0  0  0  0  0  0  0  0  0  0
    3.6032    6.0204    0.3034 C   0  0  0  0  0  0  0  0  0  0  0  0
   -0.1085    5.2895    3.3140 C   0  0  0  0  0  0  0  0  0  0  0  0
    1.3977    5.4867    1.3868 C   0  0  0  0  0  0  0  0  0  0  0  0
    1.2341    5.4023    2.8179 N   0  0  2  0  0  0  0  0  0  0  0  0
    2.3175    4.7245    3.5160 C   0  0  2  0  0  0  0  0  0  0  0  0
    2.2092    3.1983    3.5688 C   0  0  0  0  0  0  0  0  0  0  0  0
    3.4971    2.5705    4.1150 C   0  0  0  0  0  0  0  0  0  0  0  0
    4.0486    3.3093    5.2550 N   0  3  2  0  0  3  0  0  0  0  0  0
    3.8110    4.7236    5.5392 C   0  0  0  0  0  0  0  0  0  0  0  0
    2.4868    5.2061    4.9503 C   0  0  0  0  0  0  0  0  0  0  0  0
    3.7765    4.8976    7.0607 C   0  0  0  0  0  0  0  0  0  0  0  0
    4.9901    5.5370    4.9812 C   0  0  0  0  0  0  0  0  0  0  0  0
    3.2014    1.1456    4.6021 C   0  0  0  0  0  0  0  0  0  0  0  0
    4.5839    2.5033    3.0287 C   0  0  0  0  0  0  0  0  0  0  0  0
    4.9579    2.7292    5.9089 O   0  5  0  0  0  0  0  0  0  0  0  0
   -0.0694    8.8963    5.9441 H   0  0  0  0  0  0  0  0  0  0  0  0
   -1.4057    7.0101    7.3975 H   0  0  0  0  0  0  0  0  0  0  0  0
   -1.3762    4.8132    5.7772 H   0  0  0  0  0  0  0  0  0  0  0  0
    4.0555    9.0582    1.3658 H   0  0  0  0  0  0  0  0  0  0  0  0
    5.3511    7.2509   -0.2179 H   0  0  0  0  0  0  0  0  0  0  0  0
    3.7080    5.0688   -0.1786 H   0  0  0  0  0  0  0  0  0  0  0  0
   -0.7852    5.6540    2.5314 H   0  0  0  0  0  0  0  0  0  0  0  0
   -0.3910    4.2634    3.5953 H   0  0  0  0  0  0  0  0  0  0  0  0
    0.5056    5.9721    0.9703 H   0  0  0  0  0  0  0  0  0  0  0  0
    1.5627    4.5098    0.9033 H   0  0  0  0  0  0  0  0  0  0  0  0
    3.2192    4.9990    2.9628 H   0  0  0  0  0  0  0  0  0  0  0  0
    1.3747    2.9178    4.2151 H   0  0  0  0  0  0  0  0  0  0  0  0
    2.0188    2.7807    2.5779 H   0  0  0  0  0  0  0  0  0  0  0  0
    2.4875    6.2968    4.9829 H   0  0  0  0  0  0  0  0  0  0  0  0
    1.6640    4.8370    5.5658 H   0  0  0  0  0  0  0  0  0  0  0  0
    3.6471    5.9495    7.2948 H   0  0  0  0  0  0  0  0  0  0  0  0
    4.7045    4.5426    7.4997 H   0  0  0  0  0  0  0  0  0  0  0  0
    2.9527    4.3332    7.4932 H   0  0  0  0  0  0  0  0  0  0  0  0
    4.2913    1.7999    2.2532 H   0  0  0  0  0  0  0  0  0  0  0  0
    5.5146    2.1620    3.4758 H   0  0  0  0  0  0  0  0  0  0  0  0
    4.7556    3.4749    2.5727 H   0  0  0  0  0  0  0  0  0  0  0  0
    2.8060    0.5471    3.7862 H   0  0  0  0  0  0  0  0  0  0  0  0
    2.4741    1.1641    5.4109 H   0  0  0  0  0  0  0  0  0  0  0  0
    4.1124    0.6855    4.9740 H   0  0  0  0  0  0  0  0  0  0  0  0
    4.8039    6.5940    5.1534 H   0  0  0  0  0  0  0  0  0  0  0  0
    5.1172    5.3858    3.9127 H   0  0  0  0  0  0  0  0  0  0  0  0
    5.9085    5.2400    5.4810 H   0  0  0  0  0  0  0  0  0  0  0  0
  1  3  1  0  0  0  0
  1  4  1  0  0  0  0
  2  1  1  0  0  0  0
  4  6  1  1  0  0  0
  5  4  1  0  0  0  0
  5  8  1  0  0  0  0
  6 28  1  0  0  0  0
  6  7  1  0  0  0  0
  7 29  1  0  0  0  0
  8 30  1  0  0  0  0
  8  7  2  0  0  0  0
  9 11  1  1  0  0  0
  9  1  1  0  0  0  0
 10 15  1  0  0  0  0
 10  9  1  0  0  0  0
 11 31  1  0  0  0  0
 12 13  2  0  0  0  0
 12 11  1  0  0  0  0
 13 10  1  0  0  0  0
 14 35  1  0  0  0  0
 14  5  1  0  0  0  0
 16 15  1  6  0  0  0
 16 14  1  0  0  0  0
 16 17  1  0  0  0  0
 17 38  1  6  0  0  0
 17 18  1  0  0  0  0
 17 22  1  0  0  0  0
 18 19  1  0  0  0  0
 18 39  1  0  0  0  0
 19 25  1  0  0  0  0
 19 20  1  0  0  0  0
 20 21  1  0  0  0  0
 20 27  1  6  0  0  0
 21 23  1  0  0  0  0
 22 41  1  0  0  0  0
 22 21  1  0  0  0  0
 22 42  1  0  0  0  0
 23 43  1  0  0  0  0
 23 45  1  0  0  0  0
 23 44  1  0  0  0  0
 24 52  1  0  0  0  0
 24 54  1  0  0  0  0
 24 21  1  0  0  0  0
 25 51  1  0  0  0  0
 25 50  1  0  0  0  0
 26 47  1  0  0  0  0
 26 19  1  0  0  0  0
 32 12  1  0  0  0  0
 33 13  1  0  0  0  0
 34 14  1  0  0  0  0
 36 15  1  0  0  0  0
 37 15  1  0  0  0  0
 40 18  1  0  0  0  0
 46 26  1  0  0  0  0
 48 26  1  0  0  0  0
 49 25  1  0  0  0  0
 53 24  1  0  0  0  0
M  CHG  2  20   1  27  -1
M  END
$$$$
