CSD_code = FEBGUP | q = 0 | S = 0 | Stoichiometry = C23H23CdCl2N3 | MND = 5
 OpenBabel04212202033D

 52 56  0  0  1  0  0  0  0  0999 V2000
    3.6846   -2.5313    4.3405 Cd  0  0  0  0  0  0  0  0  0  0  0  0
    3.8207   -0.2014    4.4465 Cl  0  0  0  0  0  0  0  0  0  0  0  0
    1.8222   -3.5621    3.2830 Cl  0  0  0  0  0  0  0  0  0  0  0  0
    5.5909   -3.3468    3.0215 N   0  0  0  0  0  0  0  0  0  0  0  0
    4.2890   -4.7629    4.8487 N   0  0  0  0  0  0  0  0  0  0  0  0
    2.9287   -3.2463    6.5117 N   0  0  0  0  0  0  0  0  0  0  0  0
    5.7729   -4.6056    3.0022 C   0  0  1  0  0  3  0  0  0  0  0  0
    4.9021   -5.4218    3.8747 C   0  0  2  0  0  3  0  0  0  0  0  0
    4.6893   -6.7874    3.6784 C   0  0  0  0  0  0  0  0  0  0  0  0
    5.1843   -7.3240    2.8860 H   0  0  0  0  0  0  0  0  0  0  0  0
    3.7942   -7.4389    4.5100 C   0  0  0  0  0  0  0  0  0  0  0  0
    3.5978   -8.4923    4.3757 H   0  0  0  0  0  0  0  0  0  0  0  0
    3.1336   -6.7289    5.4979 C   0  0  0  0  0  0  0  0  0  0  0  0
    2.4101   -7.2213    6.1260 H   0  0  0  0  0  0  0  0  0  0  0  0
    3.4059   -5.3662    5.6362 C   0  0  0  0  0  0  0  0  0  0  0  0
    2.6993   -4.4959    6.5979 C   0  0  1  0  0  3  0  0  0  0  0  0
    6.7527   -5.3173    2.1160 C   0  0  0  0  0  0  0  0  0  0  0  0
    7.3785   -4.6021    1.5880 H   0  0  0  0  0  0  0  0  0  0  0  0
    6.2118   -5.9113    1.3803 H   0  0  0  0  0  0  0  0  0  0  0  0
    7.3822   -5.9860    2.7002 H   0  0  0  0  0  0  0  0  0  0  0  0
    1.7801   -5.1354    7.5963 C   0  0  0  0  0  0  0  0  0  0  0  0
    1.4741   -4.4077    8.3450 H   0  0  0  0  0  0  0  0  0  0  0  0
    2.2770   -5.9694    8.0889 H   0  0  0  0  0  0  0  0  0  0  0  0
    0.8896   -5.5111    7.0942 H   0  0  0  0  0  0  0  0  0  0  0  0
    6.3594   -2.4232    2.3142 C   0  0  0  0  0  0  0  0  0  0  0  0
    5.7575   -1.6109    1.3429 C   0  0  0  0  0  0  0  0  0  0  0  0
    6.5371   -0.6465    0.7223 C   0  0  0  0  0  0  0  0  0  0  0  0
    6.0847   -0.0167   -0.0296 H   0  0  0  0  0  0  0  0  0  0  0  0
    7.8696   -0.4683    1.0530 C   0  0  0  0  0  0  0  0  0  0  0  0
    8.4497    0.2980    0.5616 H   0  0  0  0  0  0  0  0  0  0  0  0
    8.4528   -1.2695    2.0188 C   0  0  0  0  0  0  0  0  0  0  0  0
    9.4889   -1.1339    2.2904 H   0  0  0  0  0  0  0  0  0  0  0  0
    7.7046   -2.2512    2.6397 C   0  0  0  0  0  0  0  0  0  0  0  0
    8.1403   -2.8687    3.4133 H   0  0  0  0  0  0  0  0  0  0  0  0
    4.3143   -1.7819    0.9893 C   0  0  0  0  0  0  0  0  0  0  0  0
    4.0886   -1.2899    0.0461 H   0  0  0  0  0  0  0  0  0  0  0  0
    3.6916   -1.3245    1.7667 H   0  0  0  0  0  0  0  0  0  0  0  0
    4.0370   -2.8343    0.9166 H   0  0  0  0  0  0  0  0  0  0  0  0
    2.2790   -2.2522    7.2323 C   0  0  0  0  0  0  0  0  0  0  0  0
    3.0574   -1.3027    7.9133 C   0  0  0  0  0  0  0  0  0  0  0  0
    2.4107   -0.2654    8.5635 C   0  0  0  0  0  0  0  0  0  0  0  0
    2.9994    0.4686    9.0943 H   0  0  0  0  0  0  0  0  0  0  0  0
    1.0313   -0.1415    8.5258 C   0  0  0  0  0  0  0  0  0  0  0  0
    0.5513    0.6848    9.0282 H   0  0  0  0  0  0  0  0  0  0  0  0
    0.2726   -1.0655    7.8286 C   0  0  0  0  0  0  0  0  0  0  0  0
   -0.8007   -0.9618    7.7758 H   0  0  0  0  0  0  0  0  0  0  0  0
    0.8897   -2.1258    7.1926 C   0  0  0  0  0  0  0  0  0  0  0  0
    0.3138   -2.8288    6.6073 H   0  0  0  0  0  0  0  0  0  0  0  0
    4.5481   -1.4306    7.9183 C   0  0  0  0  0  0  0  0  0  0  0  0
    4.9198   -1.3226    6.8953 H   0  0  0  0  0  0  0  0  0  0  0  0
    4.8586   -2.4077    8.2893 H   0  0  0  0  0  0  0  0  0  0  0  0
    4.9983   -0.6573    8.5350 H   0  0  0  0  0  0  0  0  0  0  0  0
  1  2  1  0  0  0  0
  1  5  1  0  0  0  0
  1  6  1  0  0  0  0
  3  1  1  0  0  0  0
  4  1  1  0  0  0  0
  5 15  1  0  0  0  0
  6 16  1  0  0  0  0
  6 39  1  0  0  0  0
  7 17  1  6  0  0  0
  7  4  1  0  0  0  0
  7  8  1  0  0  0  0
  8  9  1  6  0  0  0
  8  5  1  0  0  0  0
  9 11  2  0  0  0  0
 10  9  1  0  0  0  0
 11 13  1  0  0  0  0
 12 11  1  0  0  0  0
 13 15  2  0  0  0  0
 13 14  1  0  0  0  0
 15 16  1  0  0  0  0
 16 21  1  1  0  0  0
 17 20  1  0  0  0  0
 18 17  1  0  0  0  0
 19 17  1  0  0  0  0
 21 23  1  0  0  0  0
 21 22  1  0  0  0  0
 24 21  1  0  0  0  0
 25 33  1  0  0  0  0
 25  4  1  0  0  0  0
 26 25  2  0  0  0  0
 27 29  2  0  0  0  0
 27 26  1  0  0  0  0
 28 27  1  0  0  0  0
 29 31  1  0  0  0  0
 30 29  1  0  0  0  0
 31 32  1  0  0  0  0
 31 33  2  0  0  0  0
 33 34  1  0  0  0  0
 35 26  1  0  0  0  0
 35 37  1  0  0  0  0
 36 35  1  0  0  0  0
 38 35  1  0  0  0  0
 39 40  1  0  0  0  0
 40 49  1  0  0  0  0
 40 41  2  0  0  0  0
 41 42  1  0  0  0  0
 43 41  1  0  0  0  0
 43 44  1  0  0  0  0
 45 43  2  0  0  0  0
 46 45  1  0  0  0  0
 47 39  2  0  0  0  0
 47 45  1  0  0  0  0
 48 47  1  0  0  0  0
 49 51  1  0  0  0  0
 49 52  1  0  0  0  0
 50 49  1  0  0  0  0
M  END
$$$$
