CSD_code = FEBHAV | q = 0 | S = 0 | Stoichiometry = C21H23Cl2CuN2O | MND = 4
 OpenBabel04212202033D

 50 54  0  0  1  0  0  0  0  0999 V2000
    0.4795    3.1348    6.2718 Cu  0  0  0  0  0  0  0  0  0  0  0  0
    1.0701    5.0613    6.9352 Cl  0  0  0  0  0  0  0  0  0  0  0  0
    0.3512    1.0463    5.9190 Cl  0  0  0  0  0  0  0  0  0  0  0  0
   -4.2754    4.6845    3.4592 O   0  0  0  0  0  0  0  0  0  0  0  0
   -1.8277    3.4956    6.3933 N   0  0  2  0  0  4  0  0  0  0  0  0
   -0.4571    3.9021    3.9049 N   0  0  2  0  0  0  0  0  0  0  0  0
   -2.7508    2.9305    4.1238 C   0  0  2  0  0  0  0  0  0  0  0  0
   -2.6699    2.5854    5.6207 C   0  0  0  0  0  0  0  0  0  0  0  0
   -2.2510    4.8815    6.2281 C   0  0  0  0  0  0  0  0  0  0  0  0
   -2.3387    5.3258    4.7561 C   0  0  1  0  0  0  0  0  0  0  0  0
   -0.9620    5.2425    4.0642 C   0  0  0  0  0  0  0  0  0  0  0  0
   -1.3553    2.8667    3.4667 C   0  0  0  0  0  0  0  0  0  0  0  0
   -3.2679    4.3626    4.0254 C   0  0  0  0  0  0  0  0  0  0  0  0
   -1.9239    3.1380    7.8081 C   0  0  0  0  0  0  0  0  0  0  0  0
    0.7745    3.5935    4.3111 C   0  0  0  0  0  0  0  0  0  0  0  0
   -3.6583    1.9757    3.3617 C   0  0  0  0  0  0  0  0  0  0  0  0
   -3.9740    2.2733    2.0383 C   0  0  0  0  0  0  0  0  0  0  0  0
   -4.7978    1.4451    1.2993 C   0  0  0  0  0  0  0  0  0  0  0  0
   -5.3158    0.2937    1.8657 C   0  0  0  0  0  0  0  0  0  0  0  0
   -5.0007   -0.0171    3.1753 C   0  0  0  0  0  0  0  0  0  0  0  0
   -4.1817    0.8165    3.9189 C   0  0  0  0  0  0  0  0  0  0  0  0
   -2.8892    6.7442    4.7412 C   0  0  0  0  0  0  0  0  0  0  0  0
   -2.1254    7.8509    4.3918 C   0  0  0  0  0  0  0  0  0  0  0  0
   -2.6737    9.1226    4.4131 C   0  0  0  0  0  0  0  0  0  0  0  0
   -3.9927    9.3134    4.7808 C   0  0  0  0  0  0  0  0  0  0  0  0
   -4.7603    8.2194    5.1383 C   0  0  0  0  0  0  0  0  0  0  0  0
   -4.2119    6.9503    5.1242 C   0  0  0  0  0  0  0  0  0  0  0  0
   -3.6958    2.5878    6.0257 H   0  0  0  0  0  0  0  0  0  0  0  0
   -2.2410    1.5860    5.7306 H   0  0  0  0  0  0  0  0  0  0  0  0
   -1.5290    5.5229    6.7421 H   0  0  0  0  0  0  0  0  0  0  0  0
   -3.2390    5.0333    6.6916 H   0  0  0  0  0  0  0  0  0  0  0  0
   -0.2376    5.8005    4.6628 H   0  0  0  0  0  0  0  0  0  0  0  0
   -1.0530    5.6995    3.0706 H   0  0  0  0  0  0  0  0  0  0  0  0
   -1.4783    2.9434    2.3799 H   0  0  0  0  0  0  0  0  0  0  0  0
   -0.9108    1.8951    3.7023 H   0  0  0  0  0  0  0  0  0  0  0  0
   -1.5850    2.1122    7.9458 H   0  0  0  0  0  0  0  0  0  0  0  0
   -1.2910    3.8048    8.3919 H   0  0  0  0  0  0  0  0  0  0  0  0
   -2.9556    3.2212    8.1772 H   0  0  0  0  0  0  0  0  0  0  0  0
    1.4778    4.4101    4.3872 H   0  0  0  0  0  0  0  0  0  0  0  0
    1.1834    2.6644    3.9412 H   0  0  0  0  0  0  0  0  0  0  0  0
   -3.5901    3.1706    1.5765 H   0  0  0  0  0  0  0  0  0  0  0  0
   -5.0349    1.7017    0.2777 H   0  0  0  0  0  0  0  0  0  0  0  0
   -5.9586   -0.3555    1.2905 H   0  0  0  0  0  0  0  0  0  0  0  0
   -5.3932   -0.9150    3.6286 H   0  0  0  0  0  0  0  0  0  0  0  0
   -3.9567    0.5364    4.9345 H   0  0  0  0  0  0  0  0  0  0  0  0
   -1.0904    7.7497    4.1092 H   0  0  0  0  0  0  0  0  0  0  0  0
   -2.0597    9.9680    4.1403 H   0  0  0  0  0  0  0  0  0  0  0  0
   -4.4174   10.3058    4.7920 H   0  0  0  0  0  0  0  0  0  0  0  0
   -5.7910    8.3515    5.4314 H   0  0  0  0  0  0  0  0  0  0  0  0
   -4.8331    6.1129    5.4028 H   0  0  0  0  0  0  0  0  0  0  0  0
  1  5  1  0  0  0  0
  1  2  1  0  0  0  0
  3  1  1  0  0  0  0
  4 13  2  0  0  0  0
  5 14  1  1  0  0  0
  6 12  1  1  0  0  0
  6 11  1  0  0  0  0
  6 15  1  0  0  0  0
  7 16  1  6  0  0  0
  7  8  1  0  0  0  0
  8 29  1  0  0  0  0
  8 28  1  0  0  0  0
  8  5  1  0  0  0  0
  9  5  1  0  0  0  0
  9 31  1  0  0  0  0
  9 30  1  0  0  0  0
 10 22  1  6  0  0  0
 10  9  1  0  0  0  0
 11 32  1  0  0  0  0
 11 10  1  0  0  0  0
 12 35  1  0  0  0  0
 12  7  1  0  0  0  0
 13  7  1  0  0  0  0
 13 10  1  0  0  0  0
 14 36  1  0  0  0  0
 14 38  1  0  0  0  0
 14 37  1  0  0  0  0
 15 39  1  0  0  0  0
 15  1  1  0  0  0  0
 16 21  1  0  0  0  0
 17 16  2  0  0  0  0
 18 19  2  0  0  0  0
 18 17  1  0  0  0  0
 19 20  1  0  0  0  0
 20 44  1  0  0  0  0
 20 21  2  0  0  0  0
 21 45  1  0  0  0  0
 22 27  1  0  0  0  0
 23 24  1  0  0  0  0
 23 22  2  0  0  0  0
 24 25  2  0  0  0  0
 25 48  1  0  0  0  0
 25 26  1  0  0  0  0
 26 49  1  0  0  0  0
 27 26  2  0  0  0  0
 27 50  1  0  0  0  0
 33 11  1  0  0  0  0
 34 12  1  0  0  0  0
 40 15  1  0  0  0  0
 41 17  1  0  0  0  0
 42 18  1  0  0  0  0
 43 19  1  0  0  0  0
 46 23  1  0  0  0  0
 47 24  1  0  0  0  0
M  END
$$$$
