CSD_code = FEBQAF | q = 0 | S = 0 | Stoichiometry = C25H32F3IN2O2PtSi | MND = 6
 OpenBabel04212202033D

 67 70  0  0  0  0  0  0  0  0999 V2000
    5.3267    3.1888    8.1779 Pt  0  0  0  0  0  0  0  0  0  0  0  0
    5.8260    0.5448    8.2235 I   0  0  0  0  0  0  0  0  0  0  0  0
    4.9530    5.1246    8.1724 C   0  0  0  0  0  0  0  0  0  0  0  0
    3.7212    5.5395    7.7152 C   0  0  0  0  0  0  0  0  0  0  0  0
    2.8099    4.4427    7.2334 C   0  0  0  0  0  0  0  0  0  0  0  0
    3.1515    3.1421    7.8731 N   0  0  0  0  0  4  0  0  0  0  0  0
    2.7293    2.0362    7.0122 C   0  0  0  0  0  0  0  0  0  0  0  0
    2.4411    3.0401    9.1527 C   0  0  0  0  0  0  0  0  0  0  0  0
    3.4840    6.9052    7.6471 C   0  0  0  0  0  0  0  0  0  0  0  0
    4.4846    7.7896    8.0223 C   0  0  0  0  0  0  0  0  0  0  0  0
    5.7240    7.3454    8.4593 C   0  0  0  0  0  0  0  0  0  0  0  0
    5.9666    5.9819    8.5438 C   0  0  0  0  0  0  0  0  0  0  0  0
    7.2211    5.3095    9.0340 C   0  0  0  0  0  0  0  0  0  0  0  0
    7.3473    3.9424    8.4519 N   0  0  0  0  0  4  0  0  0  0  0  0
    7.9611    4.0377    7.1259 C   0  0  0  0  0  0  0  0  0  0  0  0
    8.2015    3.1167    9.3098 C   0  0  0  0  0  0  0  0  0  0  0  0
    5.3483    3.0514    5.9941 O   0  0  0  0  0  0  0  0  0  0  0  0
    5.6966    5.1562    5.3672 O   0  0  0  0  0  0  0  0  0  0  0  0
    5.4380    3.9783    5.1340 C   0  0  0  0  0  0  0  0  0  0  0  0
    5.1925    3.5284    3.7089 C   0  0  0  0  0  0  0  0  0  0  0  0
    5.1604    2.1773    3.3860 C   0  0  0  0  0  0  0  0  0  0  0  0
    4.9398    1.7823    2.0800 C   0  0  0  0  0  0  0  0  0  0  0  0
    4.7502    2.7476    1.0996 C   0  0  0  0  0  0  0  0  0  0  0  0
    4.4691    2.3340   -0.3153 C   0  0  0  0  0  0  0  0  0  0  0  0
    4.9313    1.1107   -0.6130 F   0  0  0  0  0  0  0  0  0  0  0  0
    5.0017    3.1717   -1.2206 F   0  0  0  0  0  0  0  0  0  0  0  0
    3.1436    2.3041   -0.5772 F   0  0  0  0  0  0  0  0  0  0  0  0
    4.7785    4.1014    1.4149 C   0  0  0  0  0  0  0  0  0  0  0  0
    5.0050    4.4873    2.7212 C   0  0  0  0  0  0  0  0  0  0  0  0
    5.1982    3.2690   10.1478 C   0  0  0  0  0  0  0  0  0  0  0  0
    5.1936    3.3014   11.3559 C   0  0  0  0  0  0  0  0  0  0  0  0
    5.2132    3.3317   13.2143 Si  0  0  0  0  0  0  0  0  0  0  0  0
    6.2543    4.8457   13.7345 C   0  0  0  0  0  0  0  0  0  0  0  0
    3.4171    3.5114   13.8256 C   0  0  0  0  0  0  0  0  0  0  0  0
    6.0039    1.7198   13.8479 C   0  0  0  0  0  0  0  0  0  0  0  0
    2.9561    4.3443    6.1517 H   0  0  0  0  0  0  0  0  0  0  0  0
    1.7510    4.6720    7.4083 H   0  0  0  0  0  0  0  0  0  0  0  0
    2.8560    1.0898    7.5375 H   0  0  0  0  0  0  0  0  0  0  0  0
    3.3376    2.0155    6.1072 H   0  0  0  0  0  0  0  0  0  0  0  0
    1.6757    2.1454    6.7337 H   0  0  0  0  0  0  0  0  0  0  0  0
    2.7514    2.1393    9.6836 H   0  0  0  0  0  0  0  0  0  0  0  0
    1.3603    2.9909    8.9776 H   0  0  0  0  0  0  0  0  0  0  0  0
    2.6611    3.9050    9.7782 H   0  0  0  0  0  0  0  0  0  0  0  0
    2.5355    7.2770    7.2880 H   0  0  0  0  0  0  0  0  0  0  0  0
    4.2987    8.8511    7.9576 H   0  0  0  0  0  0  0  0  0  0  0  0
    6.4930    8.0553    8.7259 H   0  0  0  0  0  0  0  0  0  0  0  0
    7.1514    5.2075   10.1234 H   0  0  0  0  0  0  0  0  0  0  0  0
    8.1195    5.8906    8.7949 H   0  0  0  0  0  0  0  0  0  0  0  0
    7.9609    3.0593    6.6416 H   0  0  0  0  0  0  0  0  0  0  0  0
    8.9977    4.3817    7.2113 H   0  0  0  0  0  0  0  0  0  0  0  0
    7.4063    4.7450    6.5066 H   0  0  0  0  0  0  0  0  0  0  0  0
    8.3705    2.1465    8.8434 H   0  0  0  0  0  0  0  0  0  0  0  0
    7.7237    2.9584   10.2774 H   0  0  0  0  0  0  0  0  0  0  0  0
    9.1703    3.6041    9.4592 H   0  0  0  0  0  0  0  0  0  0  0  0
    5.3172    1.4409    4.1601 H   0  0  0  0  0  0  0  0  0  0  0  0
    4.9200    0.7352    1.8191 H   0  0  0  0  0  0  0  0  0  0  0  0
    4.6307    4.8377    0.6395 H   0  0  0  0  0  0  0  0  0  0  0  0
    5.0436    5.5301    2.9985 H   0  0  0  0  0  0  0  0  0  0  0  0
    6.2772    4.9534   14.8149 H   0  0  0  0  0  0  0  0  0  0  0  0
    5.8487    5.7648   13.3216 H   0  0  0  0  0  0  0  0  0  0  0  0
    7.2823    4.7573   13.3945 H   0  0  0  0  0  0  0  0  0  0  0  0
    3.3748    3.5795   14.9088 H   0  0  0  0  0  0  0  0  0  0  0  0
    2.8141    2.6595   13.5261 H   0  0  0  0  0  0  0  0  0  0  0  0
    2.9494    4.4044   13.4215 H   0  0  0  0  0  0  0  0  0  0  0  0
    6.0071    1.6785   14.9336 H   0  0  0  0  0  0  0  0  0  0  0  0
    7.0321    1.6237   13.5117 H   0  0  0  0  0  0  0  0  0  0  0  0
    5.4624    0.8514   13.4855 H   0  0  0  0  0  0  0  0  0  0  0  0
  1  2  1  0  0  0  0
  1 14  1  0  0  0  0
  1 30  1  0  0  0  0
  3  1  1  0  0  0  0
  3 12  1  0  0  0  0
  4  3  2  0  0  0  0
  5 37  1  0  0  0  0
  5  4  1  0  0  0  0
  5  6  1  0  0  0  0
  6  1  1  0  0  0  0
  6  8  1  0  0  0  0
  7 38  1  0  0  0  0
  7  6  1  0  0  0  0
  8 41  1  0  0  0  0
  8 43  1  0  0  0  0
  9  4  1  0  0  0  0
  9 10  2  0  0  0  0
 10 11  1  0  0  0  0
 11 12  2  0  0  0  0
 11 46  1  0  0  0  0
 12 13  1  0  0  0  0
 13 47  1  0  0  0  0
 14 13  1  0  0  0  0
 14 16  1  0  0  0  0
 15 50  1  0  0  0  0
 15 14  1  0  0  0  0
 16 54  1  0  0  0  0
 16 53  1  0  0  0  0
 17  1  1  0  0  0  0
 19 18  2  0  0  0  0
 19 17  1  0  0  0  0
 20 19  1  0  0  0  0
 21 20  1  0  0  0  0
 21 55  1  0  0  0  0
 22 21  2  0  0  0  0
 23 28  2  0  0  0  0
 23 22  1  0  0  0  0
 24 23  1  0  0  0  0
 25 24  1  0  0  0  0
 26 24  1  0  0  0  0
 27 24  1  0  0  0  0
 28 29  1  0  0  0  0
 29 58  1  0  0  0  0
 29 20  2  0  0  0  0
 30 31  3  0  0  0  0
 31 32  1  0  0  0  0
 32 33  1  0  0  0  0
 32 34  1  0  0  0  0
 32 35  1  0  0  0  0
 33 59  1  0  0  0  0
 34 62  1  0  0  0  0
 35 65  1  0  0  0  0
 36  5  1  0  0  0  0
 39  7  1  0  0  0  0
 40  7  1  0  0  0  0
 42  8  1  0  0  0  0
 44  9  1  0  0  0  0
 45 10  1  0  0  0  0
 48 13  1  0  0  0  0
 49 15  1  0  0  0  0
 51 15  1  0  0  0  0
 52 16  1  0  0  0  0
 56 22  1  0  0  0  0
 57 28  1  0  0  0  0
 60 33  1  0  0  0  0
 61 33  1  0  0  0  0
 63 34  1  0  0  0  0
 64 34  1  0  0  0  0
 66 35  1  0  0  0  0
 67 35  1  0  0  0  0
M  END
$$$$
