CSD_code = FECTIT | q = 0 | S = 0 | Stoichiometry = C18H9ClN3O3ReS3 | MND = 6
 OpenBabel04212202033D

 38 42  0  0  0  0  0  0  0  0999 V2000
    2.3730    3.7459   17.8339 Re  0  0  0  0  0  0  0  0  0  0  0  0
    0.2436    3.8069   17.9241 N   0  0  0  0  0  0  0  0  0  0  0  0
    1.8916    5.4495   19.2608 N   0  0  0  0  0  0  0  0  0  0  0  0
    4.3372    6.2176   18.0997 N   0  0  0  0  0  0  0  0  0  0  0  0
    5.3548    3.4307   18.5640 O   0  0  0  0  0  1  0  0  0  0  0  0
    2.3937    1.1235   16.2086 O   0  0  0  0  0  1  0  0  0  0  0  0
    2.6714    5.5958   15.3768 O   0  0  0  0  0  1  0  0  0  0  0  0
   -1.8896    4.1672   19.2913 S   0  0  0  0  0  0  0  0  0  0  0  0
    5.3153    7.3167   20.1964 S   0  0  0  0  0  0  0  0  0  0  0  0
    1.7748    8.5076   23.6542 S   0  0  0  0  0  0  0  0  0  0  0  0
    2.0987    2.5959   19.9033 Cl  0  0  0  0  0  0  0  0  0  0  0  0
    4.2815    3.5935   18.2055 C   0  0  0  0  0  2  0  0  0  0  0  0
    2.4291    2.1176   16.7787 C   0  0  0  0  0  2  0  0  0  0  0  0
    2.5643    4.8930   16.2767 C   0  0  0  0  0  2  0  0  0  0  0  0
   -0.7212    3.0766   17.3186 C   0  0  0  0  0  0  0  0  0  0  0  0
   -0.4810    2.5016   16.4411 H   0  0  0  0  0  0  0  0  0  0  0  0
   -1.9401    3.1445   17.9108 C   0  0  0  0  0  0  0  0  0  0  0  0
   -2.8502    2.6564   17.6283 H   0  0  0  0  0  0  0  0  0  0  0  0
   -0.2091    4.4385   18.9829 C   0  0  0  0  0  0  0  0  0  0  0  0
    0.6475    5.3075   19.7525 C   0  0  0  0  0  0  0  0  0  0  0  0
    0.1982    5.9505   20.8980 C   0  0  0  0  0  0  0  0  0  0  0  0
   -0.8123    5.7799   21.2320 H   0  0  0  0  0  0  0  0  0  0  0  0
    1.0705    6.7796   21.6050 C   0  0  0  0  0  0  0  0  0  0  0  0
    2.3458    6.9534   21.0632 C   0  0  0  0  0  0  0  0  0  0  0  0
    3.0568    7.6046   21.5489 H   0  0  0  0  0  0  0  0  0  0  0  0
    2.7148    6.2931   19.8963 C   0  0  0  0  0  0  0  0  0  0  0  0
    4.0170    6.5339   19.3110 C   0  0  0  0  0  0  0  0  0  0  0  0
    6.2904    7.1716   18.7961 C   0  0  0  0  0  0  0  0  0  0  0  0
    7.2984    7.5334   18.7955 H   0  0  0  0  0  0  0  0  0  0  0  0
    5.5978    6.5655   17.7915 C   0  0  0  0  0  0  0  0  0  0  0  0
    5.9712    6.3500   16.8077 H   0  0  0  0  0  0  0  0  0  0  0  0
    0.6767    7.4396   22.8247 C   0  0  0  0  0  0  0  0  0  0  0  0
   -0.5160    7.3583   23.4998 C   0  0  0  0  0  0  0  0  0  0  0  0
   -1.3455    6.7549   23.1793 H   0  0  0  0  0  0  0  0  0  0  0  0
   -0.5475    8.1424   24.6655 C   0  0  0  0  0  0  0  0  0  0  0  0
   -1.3969    8.2034   25.3215 H   0  0  0  0  0  0  0  0  0  0  0  0
    0.6159    8.8165   24.8742 C   0  0  0  0  0  0  0  0  0  0  0  0
    0.8642    9.4803   25.6784 H   0  0  0  0  0  0  0  0  0  0  0  0
  1  2  1  0  0  0  0
  1 12  1  0  0  0  0
  1  3  1  0  0  0  0
  1 11  1  0  0  0  0
  2 19  1  0  0  0  0
  3 20  1  0  0  0  0
  3 26  1  0  0  0  0
  4 27  2  0  0  0  0
  6 13  1  0  0  0  0
  7 14  1  0  0  0  0
 10 37  1  0  0  0  0
 12  5  1  0  0  0  0
 13  1  1  0  0  0  0
 14  1  1  0  0  0  0
 15 17  2  0  0  0  0
 15  2  1  0  0  0  0
 16 15  1  0  0  0  0
 17  8  1  0  0  0  0
 18 17  1  0  0  0  0
 19  8  1  0  0  0  0
 19 20  2  0  0  0  0
 20 21  1  0  0  0  0
 21 22  1  0  0  0  0
 21 23  2  0  0  0  0
 23 32  1  0  0  0  0
 24 25  1  0  0  0  0
 24 23  1  0  0  0  0
 26 24  2  0  0  0  0
 27 26  1  0  0  0  0
 27  9  1  0  0  0  0
 28  9  1  0  0  0  0
 29 28  1  0  0  0  0
 30  4  1  0  0  0  0
 30 28  2  0  0  0  0
 31 30  1  0  0  0  0
 32 33  2  0  0  0  0
 32 10  1  0  0  0  0
 33 35  1  0  0  0  0
 34 33  1  0  0  0  0
 35 37  2  0  0  0  0
 35 36  1  0  0  0  0
 37 38  1  0  0  0  0
M  END
$$$$
