CSD_code = FECVAN | q = 0 | S = 0 | Stoichiometry = C19H12ClN4O3ReS2 | MND = 6
 OpenBabel04212202033D

 42 46  0  0  0  0  0  0  0  0999 V2000
   12.3091    3.6497    9.1595 Re  0  0  0  0  0  0  0  0  0  0  0  0
   12.1161    1.3826    8.5009 Cl  0  0  0  0  0  0  0  0  0  0  0  0
   15.6958    1.2999   11.0466 S   0  0  0  0  0  0  0  0  0  0  0  0
   13.3363    6.2018    6.6225 S   0  0  0  0  0  0  0  0  0  0  0  0
   10.4944    4.2723    6.7371 O   0  0  0  0  0  1  0  0  0  0  0  0
    9.8845    3.3113   11.0377 O   0  0  0  0  0  1  0  0  0  0  0  0
   12.9253    6.5537   10.0202 O   0  0  0  0  0  1  0  0  0  0  0  0
   13.6929    2.8108   10.5570 N   0  0  0  0  0  0  0  0  0  0  0  0
   14.2146    3.3728    7.9693 N   0  0  0  0  0  0  0  0  0  0  0  0
   13.2018    4.4373    4.7628 N   0  0  0  0  0  0  0  0  0  0  0  0
   18.4021    0.7589    6.2329 N   0  0  0  0  0  0  0  0  0  0  0  0
   11.1598    4.1104    7.6537 C   0  0  0  0  0  2  0  0  0  0  0  0
   10.7653    3.5008   10.3316 C   0  0  0  0  0  2  0  0  0  0  0  0
   12.6781    5.4799    9.6915 C   0  0  0  0  0  2  0  0  0  0  0  0
   13.6146    2.4959   11.8704 C   0  0  0  0  0  0  0  0  0  0  0  0
   12.8020    2.8813   12.4617 H   0  0  0  0  0  0  0  0  0  0  0  0
   14.6085    1.6894   12.3197 C   0  0  0  0  0  0  0  0  0  0  0  0
   14.7623    1.2989   13.3047 H   0  0  0  0  0  0  0  0  0  0  0  0
   14.7295    2.2564    9.9762 C   0  0  0  0  0  0  0  0  0  0  0  0
   15.0136    2.4756    8.5776 C   0  0  0  0  0  0  0  0  0  0  0  0
   16.0290    1.7859    7.9305 C   0  0  0  0  0  0  0  0  0  0  0  0
   16.5863    1.0544    8.4918 H   0  0  0  0  0  0  0  0  0  0  0  0
   16.2371    1.9839    6.5640 C   0  0  0  0  0  0  0  0  0  0  0  0
   15.4030    2.9213    5.9431 C   0  0  0  0  0  0  0  0  0  0  0  0
   15.5047    3.1397    4.8936 H   0  0  0  0  0  0  0  0  0  0  0  0
   14.4327    3.5993    6.6684 C   0  0  0  0  0  0  0  0  0  0  0  0
   13.6463    4.6014    5.9609 C   0  0  0  0  0  0  0  0  0  0  0  0
   12.5523    5.5238    4.3056 C   0  0  0  0  0  0  0  0  0  0  0  0
   12.1114    5.4928    3.3263 H   0  0  0  0  0  0  0  0  0  0  0  0
   12.5228    6.5817    5.1614 C   0  0  0  0  0  0  0  0  0  0  0  0
   12.0823    7.5473    5.0205 H   0  0  0  0  0  0  0  0  0  0  0  0
   17.2083    1.2632    5.7792 C   0  0  0  0  0  0  0  0  0  0  0  0
   17.0922    0.9206    4.4391 C   0  0  0  0  0  0  0  0  0  0  0  0
   16.2555    1.1412    3.8069 H   0  0  0  0  0  0  0  0  0  0  0  0
   18.2307    0.1917    4.0883 C   0  0  0  0  0  0  0  0  0  0  0  0
   18.4508   -0.2324    3.1294 H   0  0  0  0  0  0  0  0  0  0  0  0
   19.0201    0.1243    5.2100 C   0  0  0  0  0  0  0  0  0  0  0  0
   19.9833   -0.3285    5.3441 H   0  0  0  0  0  0  0  0  0  0  0  0
   19.0022    0.9477    7.5249 C   0  0  0  0  0  0  0  0  0  0  0  0
   18.7427    1.9273    7.9267 H   0  0  0  0  0  0  0  0  0  0  0  0
   20.0861    0.8886    7.4254 H   0  0  0  0  0  0  0  0  0  0  0  0
   18.6832    0.1750    8.2305 H   0  0  0  0  0  0  0  0  0  0  0  0
  1 14  1  0  0  0  0
  1 13  1  0  0  0  0
  1  8  1  0  0  0  0
  2  1  1  0  0  0  0
  3 17  1  0  0  0  0
  5 12  1  0  0  0  0
  8 15  1  0  0  0  0
  9 20  1  0  0  0  0
  9  1  1  0  0  0  0
 10 27  2  0  0  0  0
 11 39  1  0  0  0  0
 12  1  1  0  0  0  0
 13  6  1  0  0  0  0
 14  7  1  0  0  0  0
 15 17  2  0  0  0  0
 15 16  1  0  0  0  0
 17 18  1  0  0  0  0
 19  8  1  0  0  0  0
 19  3  1  0  0  0  0
 20 19  2  0  0  0  0
 21 22  1  0  0  0  0
 21 20  1  0  0  0  0
 23 21  2  0  0  0  0
 24 23  1  0  0  0  0
 24 26  2  0  0  0  0
 25 24  1  0  0  0  0
 26  9  1  0  0  0  0
 27  4  1  0  0  0  0
 27 26  1  0  0  0  0
 28 10  1  0  0  0  0
 28 30  2  0  0  0  0
 29 28  1  0  0  0  0
 30  4  1  0  0  0  0
 31 30  1  0  0  0  0
 32 11  1  0  0  0  0
 32 23  1  0  0  0  0
 33 32  2  0  0  0  0
 34 33  1  0  0  0  0
 35 33  1  0  0  0  0
 35 37  2  0  0  0  0
 36 35  1  0  0  0  0
 37 38  1  0  0  0  0
 37 11  1  0  0  0  0
 39 40  1  0  0  0  0
 39 42  1  0  0  0  0
 41 39  1  0  0  0  0
M  END
$$$$
