CSD_code = FECYOE | q = 0 | S = 0 | Stoichiometry = C11H12BrMnN2O3 | MND = 6
 OpenBabel04212202033D

 30 31  0  0  0  0  0  0  0  0999 V2000
   -0.4760    2.6925    9.9986 Mn  0  0  0  0  0  0  0  0  0  0  0  0
   -2.7320    1.8126   10.2809 Br  0  0  0  0  0  0  0  0  0  0  0  0
   -1.2202    3.8837    8.4789 N   0  0  0  0  0  0  0  0  0  0  0  0
   -1.1036    4.5817   11.1325 N   0  0  0  0  0  4  0  0  0  0  0  0
   -1.0306    3.6836    7.1727 C   0  0  0  0  0  3  0  0  0  0  0  0
   -0.4340    2.8236    6.8950 H   0  0  0  0  0  0  0  0  0  0  0  0
   -1.5588    4.5079    6.1973 C   0  0  0  0  0  0  0  0  0  0  0  0
   -1.3779    4.2913    5.1572 H   0  0  0  0  0  0  0  0  0  0  0  0
   -2.3171    5.6024    6.5838 C   0  0  0  0  0  0  0  0  0  0  0  0
   -2.7443    6.2697    5.8516 H   0  0  0  0  0  0  0  0  0  0  0  0
   -2.5155    5.8157    7.9355 C   0  0  0  0  0  0  0  0  0  0  0  0
   -3.1042    6.6491    8.2863 H   0  0  0  0  0  0  0  0  0  0  0  0
   -1.9589    4.9357    8.8548 C   0  0  0  0  0  0  0  0  0  0  0  0
   -2.2242    5.0881   10.3254 C   0  0  0  0  0  0  0  0  0  0  0  0
   -2.4470    6.1370   10.5727 H   0  0  0  0  0  0  0  0  0  0  0  0
   -3.1171    4.4903   10.5539 H   0  0  0  0  0  0  0  0  0  0  0  0
   -0.0579    5.6104   11.1665 C   0  0  0  0  0  0  0  0  0  0  0  0
   -0.4321    6.5248   11.6472 H   0  0  0  0  0  0  0  0  0  0  0  0
    0.2677    5.8610   10.1561 H   0  0  0  0  0  0  0  0  0  0  0  0
    0.8023    5.2505   11.7299 H   0  0  0  0  0  0  0  0  0  0  0  0
   -1.5677    4.3600   12.5071 C   0  0  0  0  0  0  0  0  0  0  0  0
   -0.7322    4.0380   13.1282 H   0  0  0  0  0  0  0  0  0  0  0  0
   -2.3350    3.5862   12.5282 H   0  0  0  0  0  0  0  0  0  0  0  0
   -1.9849    5.2825   12.9305 H   0  0  0  0  0  0  0  0  0  0  0  0
    1.1696    3.2838    9.7289 C   0  0  0  0  0  2  0  0  0  0  0  0
   -0.0856    1.2568    9.0202 C   0  0  0  0  0  2  0  0  0  0  0  0
    0.0652    1.8206   11.4574 C   0  0  0  0  0  2  0  0  0  0  0  0
    2.2653    3.5859    9.5369 O   0  0  0  0  0  1  0  0  0  0  0  0
    0.1840    0.3149    8.4196 O   0  0  0  0  0  1  0  0  0  0  0  0
    0.4338    1.2426   12.3795 O   0  0  0  0  0  1  0  0  0  0  0  0
  1  2  1  0  0  0  0
  1  4  1  0  0  0  0
  1 27  1  0  0  0  0
  3 13  1  0  0  0  0
  3  1  1  0  0  0  0
  4 17  1  0  0  0  0
  4 21  1  0  0  0  0
  5  3  1  0  0  0  0
  6  5  1  0  0  0  0
  7  9  2  0  0  0  0
  7  5  1  0  0  0  0
  8  7  1  0  0  0  0
  9 11  1  0  0  0  0
 10  9  1  0  0  0  0
 11 12  1  0  0  0  0
 11 13  2  0  0  0  0
 13 14  1  0  0  0  0
 14 16  1  0  0  0  0
 14 15  1  0  0  0  0
 14  4  1  0  0  0  0
 17 18  1  0  0  0  0
 17 20  1  0  0  0  0
 19 17  1  0  0  0  0
 21 23  1  0  0  0  0
 21 24  1  0  0  0  0
 21 22  1  0  0  0  0
 25  1  1  0  0  0  0
 26  1  1  0  0  0  0
 27 30  1  0  0  0  0
 28 25  1  0  0  0  0
 29 26  1  0  0  0  0
M  END
$$$$
