CSD_code = FEFWEU | q = 0 | S = 0 | Stoichiometry = C20H20Cl2N2Pd | MND = 4
 OpenBabel04212202033D

 45 48  0  0  0  0  0  0  0  0999 V2000
    0.5513    9.0205    7.9738 C   0  0  0  0  0  0  0  0  0  0  0  0
   -0.2256    8.5742    7.3705 H   0  0  0  0  0  0  0  0  0  0  0  0
    1.2285    8.2809    8.9074 C   0  0  0  0  0  0  0  0  0  0  0  0
    0.9781    7.2421    9.0612 H   0  0  0  0  0  0  0  0  0  0  0  0
    2.2715    8.8577    9.6448 C   0  0  0  0  0  0  0  0  0  0  0  0
    2.8266    8.2509   10.3433 H   0  0  0  0  0  0  0  0  0  0  0  0
    2.5991   10.1775    9.4805 C   0  0  0  0  0  0  0  0  0  0  0  0
    3.4136   10.6290   10.0330 H   0  0  0  0  0  0  0  0  0  0  0  0
    1.8761   10.9784    8.5742 C   0  0  0  0  0  0  0  0  0  0  0  0
    0.8684   10.3740    7.7676 C   0  0  0  0  0  0  0  0  0  0  0  0
    0.2458   11.1622    6.7715 C   0  0  0  0  0  0  0  0  0  0  0  0
   -0.5342   10.7269    6.1646 H   0  0  0  0  0  0  0  0  0  0  0  0
    0.6658   12.4434    6.5714 C   0  0  0  0  0  0  0  0  0  0  0  0
    0.2544   13.0608    5.7882 H   0  0  0  0  0  0  0  0  0  0  0  0
    1.6422   12.9928    7.4332 C   0  0  0  0  0  0  0  0  0  0  0  0
    2.1754   14.3107    7.2658 C   0  0  0  0  0  0  0  0  0  0  0  0
    1.8684   14.9247    6.4212 H   0  0  0  0  0  0  0  0  0  0  0  0
    3.6993   15.9490    8.0179 C   0  0  0  0  0  0  0  0  0  0  0  0
    2.9611   17.1241    8.2222 C   0  0  0  0  0  0  0  0  0  0  0  0
    3.6384   18.3332    8.1764 C   0  0  0  0  0  0  0  0  0  0  0  0
    3.0900   19.2484    8.3446 H   0  0  0  0  0  0  0  0  0  0  0  0
    4.9990   18.3850    7.9315 C   0  0  0  0  0  0  0  0  0  0  0  0
    5.5025   19.3391    7.8947 H   0  0  0  0  0  0  0  0  0  0  0  0
    5.7176   17.2159    7.7623 C   0  0  0  0  0  0  0  0  0  0  0  0
    6.7847   17.2550    7.6030 H   0  0  0  0  0  0  0  0  0  0  0  0
    5.0863   15.9839    7.8181 C   0  0  0  0  0  0  0  0  0  0  0  0
    1.5010   17.0908    8.5964 C   0  0  0  0  0  0  0  0  0  0  0  0
    1.1125   18.1105    8.5555 H   0  0  0  0  0  0  0  0  0  0  0  0
    0.9233   16.4924    7.8880 H   0  0  0  0  0  0  0  0  0  0  0  0
    1.2907   16.5425   10.0119 C   0  0  0  0  0  0  0  0  0  0  0  0
    1.9202   17.0792   10.7180 H   0  0  0  0  0  0  0  0  0  0  0  0
    1.5446   15.4692   10.0808 H   0  0  0  0  0  0  0  0  0  0  0  0
    0.2501   16.6601   10.3066 H   0  0  0  0  0  0  0  0  0  0  0  0
    5.8589   14.7060    7.6486 C   0  0  0  0  0  0  0  0  0  0  0  0
    5.4886   13.9523    8.3694 H   0  0  0  0  0  0  0  0  0  0  0  0
    6.9096   14.8959    7.8718 H   0  0  0  0  0  0  0  0  0  0  0  0
    5.7381   14.1504    6.2280 C   0  0  0  0  0  0  0  0  0  0  0  0
    6.3326   13.2456    6.1261 H   0  0  0  0  0  0  0  0  0  0  0  0
    6.0947   14.8819    5.5054 H   0  0  0  0  0  0  0  0  0  0  0  0
    4.7039   13.9083    5.9894 H   0  0  0  0  0  0  0  0  0  0  0  0
    2.8730   12.4822   11.6065 Cl  0  0  0  0  0  0  0  0  0  0  0  0
    4.4086   15.0442   10.8755 Cl  0  0  0  0  0  0  0  0  0  0  0  0
    2.1740   12.2932    8.4469 N   0  0  0  0  0  0  0  0  0  0  0  0
    3.0862   14.6970    8.0991 N   0  0  0  0  0  0  0  0  0  0  0  0
    3.1958   13.5723    9.7006 Pd  0  0  0  0  0  0  0  0  0  0  0  0
  1  3  1  0  0  0  0
  2  1  1  0  0  0  0
  3  4  1  0  0  0  0
  3  5  2  0  0  0  0
  5  6  1  0  0  0  0
  7  5  1  0  0  0  0
  7  8  1  0  0  0  0
  9  7  2  0  0  0  0
 10  1  2  0  0  0  0
 10  9  1  0  0  0  0
 11 10  1  0  0  0  0
 12 11  1  0  0  0  0
 13 11  2  0  0  0  0
 13 15  1  0  0  0  0
 14 13  1  0  0  0  0
 15 43  1  0  0  0  0
 16 15  2  0  0  0  0
 16 44  1  0  0  0  0
 17 16  1  0  0  0  0
 18 44  1  0  0  0  0
 18 19  1  0  0  0  0
 19 27  1  0  0  0  0
 20 19  2  0  0  0  0
 20 21  1  0  0  0  0
 22 20  1  0  0  0  0
 23 22  1  0  0  0  0
 24 26  1  0  0  0  0
 24 22  2  0  0  0  0
 25 24  1  0  0  0  0
 26 18  2  0  0  0  0
 27 30  1  0  0  0  0
 28 27  1  0  0  0  0
 29 27  1  0  0  0  0
 30 32  1  0  0  0  0
 30 33  1  0  0  0  0
 30 31  1  0  0  0  0
 34 26  1  0  0  0  0
 34 36  1  0  0  0  0
 34 35  1  0  0  0  0
 37 34  1  0  0  0  0
 38 37  1  0  0  0  0
 39 37  1  0  0  0  0
 40 37  1  0  0  0  0
 43  9  1  0  0  0  0
 43 45  1  0  0  0  0
 44 45  1  0  0  0  0
 45 42  1  0  0  0  0
 45 41  1  0  0  0  0
M  END
$$$$
