CSD_code = FEGXUL | q = 0 | S = 0 | Stoichiometry = C21H25Br2N3Ni | MND = 4
 OpenBabel04212202033D

 52 55  0  0  1  0  0  0  0  0999 V2000
    8.1027    6.8541    2.3784 C   0  0  2  0  0  3  0  0  0  0  0  0
    6.2231    5.6158    3.2241 C   0  0  1  0  0  3  0  0  0  0  0  0
    7.1045    3.5934    3.4183 C   0  0  0  0  0  0  0  0  0  0  0  0
    7.1149    2.5456    3.6358 H   0  0  0  0  0  0  0  0  0  0  0  0
    8.0962    4.4196    3.0218 C   0  0  0  0  0  0  0  0  0  0  0  0
    9.1155    4.2022    2.7891 H   0  0  0  0  0  0  0  0  0  0  0  0
    4.6777    3.7473    3.7679 C   0  0  0  0  0  0  0  0  0  0  0  0
    3.9878    4.0139    4.9519 C   0  0  0  0  0  0  0  0  0  0  0  0
    2.7663    3.3834    5.1534 C   0  0  0  0  0  0  0  0  0  0  0  0
    2.2100    3.5814    6.0555 H   0  0  0  0  0  0  0  0  0  0  0  0
    2.2527    2.5114    4.2156 C   0  0  0  0  0  0  0  0  0  0  0  0
    1.3044    2.0265    4.3915 H   0  0  0  0  0  0  0  0  0  0  0  0
    2.9437    2.2719    3.0447 C   0  0  0  0  0  0  0  0  0  0  0  0
    2.5248    1.6034    2.3099 H   0  0  0  0  0  0  0  0  0  0  0  0
    4.1619    2.8871    2.7909 C   0  0  0  0  0  0  0  0  0  0  0  0
    4.8589    2.6208    1.4763 C   0  0  0  0  0  0  0  0  0  0  0  0
    5.7437    3.2579    1.3917 H   0  0  0  0  0  0  0  0  0  0  0  0
    5.3115    1.1596    1.3961 C   0  0  0  0  0  0  0  0  0  0  0  0
    5.9682    0.9039    2.2255 H   0  0  0  0  0  0  0  0  0  0  0  0
    5.8489    0.9873    0.4664 H   0  0  0  0  0  0  0  0  0  0  0  0
    4.4549    0.4913    1.4251 H   0  0  0  0  0  0  0  0  0  0  0  0
    3.9436    2.9648    0.2986 C   0  0  0  0  0  0  0  0  0  0  0  0
    4.4957    2.8725   -0.6338 H   0  0  0  0  0  0  0  0  0  0  0  0
    3.5828    3.9853    0.3898 H   0  0  0  0  0  0  0  0  0  0  0  0
    3.0879    2.2976    0.2551 H   0  0  0  0  0  0  0  0  0  0  0  0
    4.4925    4.9996    5.9765 C   0  0  0  0  0  0  0  0  0  0  0  0
    5.5204    5.2894    5.7333 H   0  0  0  0  0  0  0  0  0  0  0  0
    3.6149    6.2531    5.9098 C   0  0  0  0  0  0  0  0  0  0  0  0
    3.6516    6.6796    4.8943 H   0  0  0  0  0  0  0  0  0  0  0  0
    3.9711    7.0008    6.6141 H   0  0  0  0  0  0  0  0  0  0  0  0
    2.5775    6.0165    6.1327 H   0  0  0  0  0  0  0  0  0  0  0  0
    4.5060    4.4129    7.3884 C   0  0  0  0  0  0  0  0  0  0  0  0
    4.9782    5.1172    8.0689 H   0  0  0  0  0  0  0  0  0  0  0  0
    5.0680    3.4811    7.4098 H   0  0  0  0  0  0  0  0  0  0  0  0
    3.4995    4.2176    7.7478 H   0  0  0  0  0  0  0  0  0  0  0  0
    9.4466    7.2095    2.4863 C   0  0  0  0  0  0  0  0  0  0  0  0
    9.8094    8.4149    1.8891 C   0  0  0  0  0  0  0  0  0  0  0  0
   10.8380    8.7392    1.9481 H   0  0  0  0  0  0  0  0  0  0  0  0
    8.8681    9.1999    1.2495 C   0  0  0  0  0  0  0  0  0  0  0  0
    9.1436   10.1322    0.7844 H   0  0  0  0  0  0  0  0  0  0  0  0
    7.5492    8.7755    1.2512 C   0  0  0  0  0  0  0  0  0  0  0  0
    6.7606    9.3626    0.8005 H   0  0  0  0  0  0  0  0  0  0  0  0
   10.4639    6.4124    3.2399 C   0  0  0  0  0  0  0  0  0  0  0  0
   10.0264    5.9630    4.1285 H   0  0  0  0  0  0  0  0  0  0  0  0
   11.2787    7.0631    3.5482 H   0  0  0  0  0  0  0  0  0  0  0  0
   10.8868    5.6258    2.6142 H   0  0  0  0  0  0  0  0  0  0  0  0
    6.3249    8.1817    4.8829 Br  0  0  0  0  0  0  0  0  0  0  0  0
    3.7230    6.5485    1.7568 Br  0  0  0  0  0  0  0  0  0  0  0  0
    7.1799    7.6350    1.8072 N   0  0  0  0  0  0  0  0  0  0  0  0
    7.5440    5.6702    2.8971 N   0  0  0  0  0  0  0  0  0  0  0  0
    5.9561    4.3387    3.5315 N   0  0  0  0  0  0  0  0  0  0  0  0
    5.2821    7.1534    3.1820 Ni  0  0  0  0  0  0  0  0  0  0  0  0
  1 36  1  1  0  0  0
  1 50  1  0  0  0  0
  2 50  1  1  0  0  0
  2 51  1  0  0  0  0
  3 51  1  0  0  0  0
  3  4  1  0  0  0  0
  5  3  2  0  0  0  0
  6  5  1  0  0  0  0
  7  8  1  0  0  0  0
  8  9  2  0  0  0  0
  8 26  1  0  0  0  0
  9 10  1  0  0  0  0
 11 12  1  0  0  0  0
 11  9  1  0  0  0  0
 13 11  2  0  0  0  0
 14 13  1  0  0  0  0
 15 13  1  0  0  0  0
 15  7  2  0  0  0  0
 16 15  1  0  0  0  0
 17 16  1  0  0  0  0
 18 21  1  0  0  0  0
 18 16  1  0  0  0  0
 18 19  1  0  0  0  0
 20 18  1  0  0  0  0
 22 24  1  0  0  0  0
 22 16  1  0  0  0  0
 23 22  1  0  0  0  0
 25 22  1  0  0  0  0
 26 32  1  0  0  0  0
 27 26  1  0  0  0  0
 28 26  1  0  0  0  0
 28 31  1  0  0  0  0
 28 30  1  0  0  0  0
 29 28  1  0  0  0  0
 32 34  1  0  0  0  0
 32 35  1  0  0  0  0
 32 33  1  0  0  0  0
 36 43  1  0  0  0  0
 37 38  1  0  0  0  0
 37 36  2  0  0  0  0
 39 41  2  0  0  0  0
 39 37  1  0  0  0  0
 40 39  1  0  0  0  0
 41 49  1  0  0  0  0
 42 41  1  0  0  0  0
 43 45  1  0  0  0  0
 43 44  1  0  0  0  0
 46 43  1  0  0  0  0
 48 52  1  0  0  0  0
 49  1  1  0  0  0  0
 49 52  1  0  0  0  0
 50  5  1  0  0  0  0
 51  7  1  0  0  0  0
 52  2  1  0  0  0  0
 52 47  1  0  0  0  0
M  END
$$$$
