CSD_code = FEHDIG | q = 0 | S = 0 | Stoichiometry = C16H11ClHgN2 | MND = 2
 OpenBabel04212202033D

 31 33  0  0  0  0  0  0  0  0999 V2000
   -1.6315    7.1812    5.2498 Hg  0  0  0  0  0  0  0  0  0  0  0  0
   -2.0072    5.5228    6.8524 Cl  0  0  0  0  0  0  0  0  0  0  0  0
    0.7980    8.2195    5.5917 N   0  0  0  0  0  0  0  0  0  0  0  0
   -3.4133    6.9077    3.2886 N   0  0  0  0  0  0  0  0  0  0  0  0
   -0.1492    9.5260    3.8134 C   0  0  0  0  0  0  0  0  0  0  0  0
   -1.3256    8.7676    3.7887 C   0  0  0  0  0  0  0  0  0  0  0  0
   -2.1992    8.8937    2.7023 C   0  0  0  0  0  0  0  0  0  0  0  0
   -1.8934    9.7699    1.6598 C   0  0  0  0  0  0  0  0  0  0  0  0
   -0.7264   10.5091    1.6913 C   0  0  0  0  0  0  0  0  0  0  0  0
    0.1410   10.3957    2.7610 C   0  0  0  0  0  0  0  0  0  0  0  0
    0.7927    9.3892    4.9427 C   0  0  0  0  0  0  0  0  0  0  0  0
    1.6431   10.4270    5.3282 C   0  0  0  0  0  0  0  0  0  0  0  0
    2.5217   10.2289    6.3777 C   0  0  0  0  0  0  0  0  0  0  0  0
    2.5361    9.0008    7.0202 C   0  0  0  0  0  0  0  0  0  0  0  0
    1.6431    8.0318    6.5925 C   0  0  0  0  0  0  0  0  0  0  0  0
   -3.4325    8.0831    2.6504 C   0  0  0  0  0  0  0  0  0  0  0  0
   -4.5737    8.5126    1.9711 C   0  0  0  0  0  0  0  0  0  0  0  0
   -5.6886    7.6950    1.9357 C   0  0  0  0  0  0  0  0  0  0  0  0
   -5.6420    6.4659    2.5749 C   0  0  0  0  0  0  0  0  0  0  0  0
   -4.4798    6.1252    3.2474 C   0  0  0  0  0  0  0  0  0  0  0  0
   -2.5458    9.8459    0.8026 H   0  0  0  0  0  0  0  0  0  0  0  0
   -0.4850   11.1688    0.8707 H   0  0  0  0  0  0  0  0  0  0  0  0
    1.0641   10.9558    2.7551 H   0  0  0  0  0  0  0  0  0  0  0  0
    1.5995   11.3826    4.8302 H   0  0  0  0  0  0  0  0  0  0  0  0
    3.1842   11.0225    6.6921 H   0  0  0  0  0  0  0  0  0  0  0  0
    3.2118    8.8024    7.8367 H   0  0  0  0  0  0  0  0  0  0  0  0
    1.6010    7.0599    7.0665 H   0  0  0  0  0  0  0  0  0  0  0  0
   -4.5960    9.4825    1.4999 H   0  0  0  0  0  0  0  0  0  0  0  0
   -6.5826    8.0133    1.4193 H   0  0  0  0  0  0  0  0  0  0  0  0
   -6.4857    5.7946    2.5628 H   0  0  0  0  0  0  0  0  0  0  0  0
   -4.3925    5.1846    3.7750 H   0  0  0  0  0  0  0  0  0  0  0  0
  1  2  1  0  0  0  0
  3 15  1  0  0  0  0
  5 11  1  0  0  0  0
  6  5  1  0  0  0  0
  6  1  1  0  0  0  0
  7  6  2  0  0  0  0
  8  9  2  0  0  0  0
  8  7  1  0  0  0  0
  9 10  1  0  0  0  0
 10  5  2  0  0  0  0
 11 12  1  0  0  0  0
 11  3  2  0  0  0  0
 12 13  2  0  0  0  0
 13 25  1  0  0  0  0
 13 14  1  0  0  0  0
 14 26  1  0  0  0  0
 15 14  2  0  0  0  0
 15 27  1  0  0  0  0
 16  7  1  0  0  0  0
 16  4  2  0  0  0  0
 17 16  1  0  0  0  0
 18 17  2  0  0  0  0
 18 19  1  0  0  0  0
 19 20  2  0  0  0  0
 20  4  1  0  0  0  0
 20 31  1  0  0  0  0
 21  8  1  0  0  0  0
 22  9  1  0  0  0  0
 23 10  1  0  0  0  0
 24 12  1  0  0  0  0
 28 17  1  0  0  0  0
 29 18  1  0  0  0  0
 30 19  1  0  0  0  0
M  END
$$$$
