CSD_code = FEHJEK | q = 0 | S = 0 | Stoichiometry = C15H11BrFeN2O3S | MND = 6
 OpenBabel04212202033D

 34 37  0  0  1  0  0  0  0  0999 V2000
    9.1030    1.4938    2.6959 C   0  0  1  0  0  3  0  0  0  0  0  0
    7.7570    1.8704    2.7250 C   0  0  0  0  0  0  0  0  0  0  0  0
    7.1125    1.6226    1.8982 H   0  0  0  0  0  0  0  0  0  0  0  0
    7.3072    2.5870    3.8115 C   0  0  0  0  0  0  0  0  0  0  0  0
    6.2914    2.9479    3.8483 H   0  0  0  0  0  0  0  0  0  0  0  0
    8.1648    2.7981    4.8836 C   0  0  0  0  0  0  0  0  0  0  0  0
    7.8215    3.3108    5.7671 H   0  0  0  0  0  0  0  0  0  0  0  0
    9.4806    2.3551    4.8093 C   0  0  0  0  0  0  0  0  0  0  0  0
   10.3107    2.3276    6.0299 C   0  0  0  0  0  0  0  0  0  0  0  0
    9.6747    1.9297    7.2091 C   0  0  0  0  0  0  0  0  0  0  0  0
    8.6184    1.7086    7.1856 H   0  0  0  0  0  0  0  0  0  0  0  0
   10.3733    1.7700    8.3899 C   0  0  0  0  0  0  0  0  0  0  0  0
    9.8515    1.4542    9.2802 H   0  0  0  0  0  0  0  0  0  0  0  0
   11.7387    1.9996    8.4253 C   0  0  0  0  0  0  0  0  0  0  0  0
   12.2931    1.8689    9.3414 H   0  0  0  0  0  0  0  0  0  0  0  0
   12.3872    2.4013    7.2731 C   0  0  0  0  0  0  0  0  0  0  0  0
   13.4492    2.5926    7.2753 H   0  0  0  0  0  0  0  0  0  0  0  0
   11.6848    2.5654    6.0882 C   0  0  0  0  0  0  0  0  0  0  0  0
   11.8156    4.7348    4.4219 C   0  0  0  0  0  0  0  0  0  0  0  0
   12.3152    5.2041    3.5802 H   0  0  0  0  0  0  0  0  0  0  0  0
   11.9475    5.3254    5.3237 H   0  0  0  0  0  0  0  0  0  0  0  0
   10.7632    4.6028    4.1899 H   0  0  0  0  0  0  0  0  0  0  0  0
   11.0173    0.4736    1.7073 C   0  0  0  0  0  0  0  0  0  0  0  0
   12.0653    0.0981    3.9671 C   0  0  0  0  0  2  0  0  0  0  0  0
   13.4418    1.1603    2.3845 C   0  0  0  0  0  2  0  0  0  0  0  0
    9.9615    1.8081    3.6796 N   0  0  0  0  0  0  0  0  0  0  0  0
    9.6455    0.7598    1.6924 N   0  0  0  0  0  0  0  0  0  0  0  0
    9.0648    0.3966    0.9451 H   0  0  0  0  0  0  0  0  0  0  0  0
   12.6295    3.1230    4.6796 S   0  0  2  0  0  3  0  0  0  0  0  0
   11.4901   -0.2901    0.9111 O   0  0  0  0  0  0  0  0  0  0  0  0
   12.2227   -0.8999    4.5070 O   0  0  0  0  0  1  0  0  0  0  0  0
   14.4400    0.8176    1.9591 O   0  0  0  0  0  1  0  0  0  0  0  0
   11.6068    3.2347    1.4593 Br  0  0  0  0  0  0  0  0  0  0  0  0
   11.8609    1.5475    3.0392 Fe  0  0  0  0  0  0  0  0  0  0  0  0
  1  2  1  1  0  0  0
  1 26  1  0  0  0  0
  2  4  2  0  0  0  0
  3  2  1  0  0  0  0
  4  5  1  0  0  0  0
  4  6  1  0  0  0  0
  6  7  1  0  0  0  0
  8  6  2  0  0  0  0
  8  9  1  0  0  0  0
  9 18  2  0  0  0  0
  9 10  1  0  0  0  0
 10 12  2  0  0  0  0
 11 10  1  0  0  0  0
 12 14  1  0  0  0  0
 12 13  1  0  0  0  0
 14 15  1  0  0  0  0
 16 17  1  0  0  0  0
 16 14  2  0  0  0  0
 18 16  1  0  0  0  0
 19 21  1  0  0  0  0
 20 19  1  0  0  0  0
 22 19  1  0  0  0  0
 23 34  1  0  0  0  0
 24 31  1  0  0  0  0
 25 34  1  0  0  0  0
 26  8  1  0  0  0  0
 27 23  1  0  0  0  0
 27  1  1  0  0  0  0
 28 27  1  0  0  0  0
 29 19  1  6  0  0  0
 29 18  1  0  0  0  0
 30 23  2  0  0  0  0
 32 25  1  0  0  0  0
 33 34  1  0  0  0  0
 34 26  1  0  0  0  0
 34 24  1  0  0  0  0
 34 29  1  0  0  0  0
M  END
$$$$
