CSD_code = FEHPAL | q = 0 | S = 0 | Stoichiometry = C15H15ClFNPd | MND = 3
 OpenBabel04212202033D

 34 36  0  0  0  0  0  0  0  0999 V2000
    1.0870   16.5490    4.6933 Pd  0  0  0  0  0  0  0  0  0  0  0  0
   -0.4977   18.0241    4.2123 Cl  0  0  0  0  0  0  0  0  0  0  0  0
    2.4677   15.2245    5.1229 N   0  0  0  0  0  0  0  0  0  0  0  0
    2.1693   13.9266    5.1776 C   0  0  0  0  0  0  0  0  0  0  0  0
    3.1322   13.0097    5.5739 C   0  0  0  0  0  0  0  0  0  0  0  0
    2.9095   11.9584    5.6333 H   0  0  0  0  0  0  0  0  0  0  0  0
    4.4042   13.4666    5.8986 C   0  0  0  0  0  0  0  0  0  0  0  0
    5.1609   12.7654    6.2164 H   0  0  0  0  0  0  0  0  0  0  0  0
    4.7003   14.8122    5.7982 C   0  0  0  0  0  0  0  0  0  0  0  0
    5.6880   15.1760    6.0274 H   0  0  0  0  0  0  0  0  0  0  0  0
    3.6979   15.6935    5.3958 C   0  0  0  0  0  0  0  0  0  0  0  0
    3.8204   17.1305    5.1885 C   0  0  0  0  0  0  0  0  0  0  0  0
    2.6429   17.7821    4.7458 C   0  0  0  0  0  0  0  0  0  0  0  0
    2.6833   19.1447    4.4898 C   0  0  0  0  0  0  0  0  0  0  0  0
    1.8076   19.6823    4.1516 H   0  0  0  0  0  0  0  0  0  0  0  0
    3.8743   19.8299    4.6722 C   0  0  0  0  0  0  0  0  0  0  0  0
    3.9121   21.1528    4.4180 F   0  0  0  0  0  0  0  0  0  0  0  0
    5.0325   19.2084    5.1098 C   0  0  0  0  0  0  0  0  0  0  0  0
    5.9335   19.7862    5.2419 H   0  0  0  0  0  0  0  0  0  0  0  0
    5.0002   17.8529    5.3665 C   0  0  0  0  0  0  0  0  0  0  0  0
    5.8969   17.3580    5.7076 H   0  0  0  0  0  0  0  0  0  0  0  0
    0.7621   13.5646    4.7142 C   0  0  0  0  0  0  0  0  0  0  0  0
    0.7289   13.7446    3.1834 C   0  0  0  0  0  0  0  0  0  0  0  0
    0.9764   14.7869    2.9065 H   0  0  0  0  0  0  0  0  0  0  0  0
   -0.2642   13.5122    2.8036 H   0  0  0  0  0  0  0  0  0  0  0  0
    1.4470   13.0821    2.7030 H   0  0  0  0  0  0  0  0  0  0  0  0
    0.3920   12.1221    5.0676 C   0  0  0  0  0  0  0  0  0  0  0  0
    0.4604   11.9563    6.1405 H   0  0  0  0  0  0  0  0  0  0  0  0
    1.0398   11.4138    4.5576 H   0  0  0  0  0  0  0  0  0  0  0  0
   -0.6297   11.9184    4.7553 H   0  0  0  0  0  0  0  0  0  0  0  0
   -0.2717   14.5225    5.3465 C   0  0  0  0  0  0  0  0  0  0  0  0
   -0.0821   14.6570    6.4197 H   0  0  0  0  0  0  0  0  0  0  0  0
   -1.2727   14.1036    5.2348 H   0  0  0  0  0  0  0  0  0  0  0  0
   -0.2966   15.5197    4.8226 H   0  0  0  0  0  0  0  0  0  0  0  0
  1 13  2  0  0  0  0
  1  3  1  0  0  0  0
  2  1  1  0  0  0  0
  3  4  1  0  0  0  0
  3 11  1  0  0  0  0
  4  5  2  0  0  0  0
  5  6  1  0  0  0  0
  5  7  1  0  0  0  0
  7  8  1  0  0  0  0
  9  7  2  0  0  0  0
  9 10  1  0  0  0  0
 11  9  1  0  0  0  0
 12 20  1  0  0  0  0
 12 11  2  0  0  0  0
 13 12  1  0  0  0  0
 14 16  2  0  0  0  0
 14 13  1  0  0  0  0
 15 14  1  0  0  0  0
 16 18  1  0  0  0  0
 17 16  1  0  0  0  0
 18 19  1  0  0  0  0
 18 20  2  0  0  0  0
 20 21  1  0  0  0  0
 22 27  1  0  0  0  0
 22  4  1  0  0  0  0
 22 31  1  0  0  0  0
 23 22  1  0  0  0  0
 24 23  1  0  0  0  0
 25 23  1  0  0  0  0
 26 23  1  0  0  0  0
 27 28  1  0  0  0  0
 29 27  1  0  0  0  0
 30 27  1  0  0  0  0
 31 32  1  0  0  0  0
 33 31  1  0  0  0  0
 34 31  1  0  0  0  0
M  END
$$$$
