CSD_code = FEJDUV | q = 0 | S = 0 | Stoichiometry = C14H30Cl2N2Zn | MND = 4
 OpenBabel04212202033D

 49 50  0  0  1  0  0  0  0  0999 V2000
    2.0944   10.1578    5.5088 C   0  0  0  0  0  0  0  0  0  0  0  0
    2.5663   10.0690    6.4876 H   0  0  0  0  0  0  0  0  0  0  0  0
    2.6791   10.8548    4.9077 H   0  0  0  0  0  0  0  0  0  0  0  0
    3.8108    9.7425    2.4775 C   0  0  0  0  0  0  0  0  0  0  0  0
    2.9130   10.3383    2.6251 H   0  0  0  0  0  0  0  0  0  0  0  0
    3.9981    9.6772    1.4086 H   0  0  0  0  0  0  0  0  0  0  0  0
    4.6519   10.2580    2.9331 H   0  0  0  0  0  0  0  0  0  0  0  0
    4.4917    8.7583    5.2888 C   0  0  0  0  0  0  0  0  0  0  0  0
    4.2492    8.5510    6.3321 H   0  0  0  0  0  0  0  0  0  0  0  0
    4.5941    9.8404    5.1591 H   0  0  0  0  0  0  0  0  0  0  0  0
    2.0516    8.7845    4.8196 C   0  0  2  0  0  0  0  0  0  0  0  0
    1.5150    8.9210    3.8747 H   0  0  0  0  0  0  0  0  0  0  0  0
    1.2113    7.8207    5.6948 C   0  0  1  0  0  0  0  0  0  0  0  0
    1.7004    7.7679    6.6738 H   0  0  0  0  0  0  0  0  0  0  0  0
   -0.1918    8.4141    5.8778 C   0  0  0  0  0  0  0  0  0  0  0  0
   -0.6676    8.5374    4.9033 H   0  0  0  0  0  0  0  0  0  0  0  0
   -0.7997    7.7386    6.4802 H   0  0  0  0  0  0  0  0  0  0  0  0
   -0.9527    5.9078    3.8747 C   0  0  0  0  0  0  0  0  0  0  0  0
   -1.1592    4.9364    4.3136 H   0  0  0  0  0  0  0  0  0  0  0  0
   -1.2770    5.8748    2.8367 H   0  0  0  0  0  0  0  0  0  0  0  0
   -1.5506    6.6529    4.3898 H   0  0  0  0  0  0  0  0  0  0  0  0
    0.5430    6.2314    3.8830 C   0  0  0  0  0  0  0  0  0  0  0  0
    1.0647    5.4156    3.3758 H   0  0  0  0  0  0  0  0  0  0  0  0
    0.7055    7.1283    3.2856 H   0  0  0  0  0  0  0  0  0  0  0  0
    3.3826    8.2223    4.4760 N   0  0  0  0  0  4  0  0  0  0  0  0
    1.2133    6.4331    5.1846 N   0  0  0  0  0  4  0  0  0  0  0  0
    3.3483    6.0871    5.0131 Zn  0  0  0  0  0  0  0  0  0  0  0  0
    3.9919    5.9466    7.1563 Cl  0  0  0  0  0  0  0  0  0  0  0  0
    3.8538    4.8603    3.2315 Cl  0  0  0  0  0  0  0  0  0  0  0  0
    3.6521    8.3281    3.0308 C   0  0  0  0  0  0  0  0  0  0  0  0
    2.8382    7.8233    2.5063 H   0  0  0  0  0  0  0  0  0  0  0  0
    4.5538    7.7551    2.8171 H   0  0  0  0  0  0  0  0  0  0  0  0
    0.6931   10.7275    5.7017 C   0  0  0  0  0  0  0  0  0  0  0  0
    0.2086   10.8654    4.7320 H   0  0  0  0  0  0  0  0  0  0  0  0
    0.7634   11.7052    6.1810 H   0  0  0  0  0  0  0  0  0  0  0  0
    5.8363    8.1110    4.9825 C   0  0  0  0  0  0  0  0  0  0  0  0
    5.7523    7.0235    4.9609 H   0  0  0  0  0  0  0  0  0  0  0  0
    6.5360    8.3744    5.7720 H   0  0  0  0  0  0  0  0  0  0  0  0
    6.2488    8.4501    4.0358 H   0  0  0  0  0  0  0  0  0  0  0  0
    1.0706    4.0405    5.8799 C   0  0  0  0  0  0  0  0  0  0  0  0
    0.5820    3.6997    4.9718 H   0  0  0  0  0  0  0  0  0  0  0  0
    0.7495    3.4074    6.7036 H   0  0  0  0  0  0  0  0  0  0  0  0
    2.1472    3.9149    5.7590 H   0  0  0  0  0  0  0  0  0  0  0  0
   -0.1328    9.7775    6.5556 C   0  0  0  0  0  0  0  0  0  0  0  0
    0.3219    9.6805    7.5432 H   0  0  0  0  0  0  0  0  0  0  0  0
   -1.1438   10.1670    6.6873 H   0  0  0  0  0  0  0  0  0  0  0  0
    0.7380    5.4890    6.2099 C   0  0  0  0  0  0  0  0  0  0  0  0
   -0.3423    5.5901    6.3634 H   0  0  0  0  0  0  0  0  0  0  0  0
    1.2410    5.7441    7.1449 H   0  0  0  0  0  0  0  0  0  0  0  0
  1 33  1  0  0  0  0
  1  2  1  0  0  0  0
  3  1  1  0  0  0  0
  4  5  1  0  0  0  0
  4  7  1  0  0  0  0
  4 30  1  0  0  0  0
  6  4  1  0  0  0  0
  8  9  1  0  0  0  0
 10  8  1  0  0  0  0
 11 12  1  6  0  0  0
 11  1  1  0  0  0  0
 11 13  1  0  0  0  0
 13 15  1  0  0  0  0
 13 14  1  1  0  0  0
 15 17  1  0  0  0  0
 15 44  1  0  0  0  0
 16 15  1  0  0  0  0
 18 22  1  0  0  0  0
 18 19  1  0  0  0  0
 18 21  1  0  0  0  0
 20 18  1  0  0  0  0
 22 26  1  0  0  0  0
 23 22  1  0  0  0  0
 24 22  1  0  0  0  0
 25 11  1  0  0  0  0
 25 27  1  0  0  0  0
 25  8  1  0  0  0  0
 26 13  1  0  0  0  0
 26 47  1  0  0  0  0
 27 26  1  0  0  0  0
 27 28  1  0  0  0  0
 29 27  1  0  0  0  0
 30 25  1  0  0  0  0
 31 30  1  0  0  0  0
 32 30  1  0  0  0  0
 33 35  1  0  0  0  0
 33 44  1  0  0  0  0
 34 33  1  0  0  0  0
 36  8  1  0  0  0  0
 36 38  1  0  0  0  0
 37 36  1  0  0  0  0
 39 36  1  0  0  0  0
 40 47  1  0  0  0  0
 40 42  1  0  0  0  0
 41 40  1  0  0  0  0
 43 40  1  0  0  0  0
 44 46  1  0  0  0  0
 44 45  1  0  0  0  0
 47 48  1  0  0  0  0
 47 49  1  0  0  0  0
M  END
$$$$
