CSD_code = FEJFOR | q = 0 | S = 0 | Stoichiometry = C10H22Cl2N2Zn | MND = 4
 OpenBabel04212202033D

 37 38  0  0  1  0  0  0  0  0999 V2000
    0.4234   10.1507   14.9714 C   0  0  0  0  0  0  0  0  0  0  0  0
    0.8854   10.1411   15.9586 H   0  0  0  0  0  0  0  0  0  0  0  0
   -0.4212    9.4716   15.0066 H   0  0  0  0  0  0  0  0  0  0  0  0
    0.0840   11.1694   14.7627 H   0  0  0  0  0  0  0  0  0  0  0  0
    2.5642   10.5969   14.0643 C   0  0  0  0  0  0  0  0  0  0  0  0
    2.3014   11.6066   13.7296 H   0  0  0  0  0  0  0  0  0  0  0  0
    3.3833   10.2167   13.4580 H   0  0  0  0  0  0  0  0  0  0  0  0
    2.9182   10.6508   15.0918 H   0  0  0  0  0  0  0  0  0  0  0  0
    0.9430    9.5878   12.5924 C   0  0  2  0  0  0  0  0  0  0  0  0
    1.8350    9.7974   11.9928 H   0  0  0  0  0  0  0  0  0  0  0  0
   -0.1051   10.6205   12.1396 C   0  0  0  0  0  0  0  0  0  0  0  0
   -0.0373   10.6734   11.0495 H   0  0  0  0  0  0  0  0  0  0  0  0
    0.1682   11.6063   12.5208 H   0  0  0  0  0  0  0  0  0  0  0  0
   -1.5531   10.2982   12.5023 C   0  0  0  0  0  0  0  0  0  0  0  0
   -1.7328   10.4222   13.5677 H   0  0  0  0  0  0  0  0  0  0  0  0
   -2.2055   11.0012   11.9795 H   0  0  0  0  0  0  0  0  0  0  0  0
   -1.9040    8.8746   12.0945 C   0  0  0  0  0  0  0  0  0  0  0  0
   -1.8816    8.7935   11.0041 H   0  0  0  0  0  0  0  0  0  0  0  0
   -2.9157    8.6352   12.4241 H   0  0  0  0  0  0  0  0  0  0  0  0
   -0.9260    7.8619   12.6863 C   0  0  0  0  0  0  0  0  0  0  0  0
   -0.9612    7.8685   13.7746 H   0  0  0  0  0  0  0  0  0  0  0  0
   -1.2368    6.8732   12.3514 H   0  0  0  0  0  0  0  0  0  0  0  0
    0.4900    8.1588   12.1927 C   0  0  2  0  0  0  0  0  0  0  0  0
    0.4513    8.1492   11.0886 H   0  0  0  0  0  0  0  0  0  0  0  0
    0.9952    5.7886   12.5863 C   0  0  0  0  0  0  0  0  0  0  0  0
    0.5870    5.5390   11.6004 H   0  0  0  0  0  0  0  0  0  0  0  0
    0.2392    5.6396   13.3523 H   0  0  0  0  0  0  0  0  0  0  0  0
    1.8225    5.1134   12.8010 H   0  0  0  0  0  0  0  0  0  0  0  0
    2.6721    7.2291   11.7499 C   0  0  0  0  0  0  0  0  0  0  0  0
    3.4270    6.5354   12.1127 H   0  0  0  0  0  0  0  0  0  0  0  0
    3.1140    8.2207   11.7642 H   0  0  0  0  0  0  0  0  0  0  0  0
    2.4085    6.9676   10.7181 H   0  0  0  0  0  0  0  0  0  0  0  0
    4.2248    7.6118   14.8468 Cl  0  0  0  0  0  0  0  0  0  0  0  0
    0.4309    6.8687   15.9588 Cl  0  0  0  0  0  0  0  0  0  0  0  0
    1.4134    9.6910   13.9945 N   0  0  0  0  0  4  0  0  0  0  0  0
    1.4978    7.1651   12.6230 N   0  0  0  0  0  4  0  0  0  0  0  0
    2.0290    7.6838   14.6532 Zn  0  0  0  0  0  0  0  0  0  0  0  0
  1  3  1  0  0  0  0
  1  2  1  0  0  0  0
  4  1  1  0  0  0  0
  5  8  1  0  0  0  0
  6  5  1  0  0  0  0
  7  5  1  0  0  0  0
  9 10  1  6  0  0  0
  9 35  1  0  0  0  0
 11 14  1  0  0  0  0
 11 13  1  0  0  0  0
 11  9  1  0  0  0  0
 12 11  1  0  0  0  0
 14 15  1  0  0  0  0
 16 14  1  0  0  0  0
 17 19  1  0  0  0  0
 17 14  1  0  0  0  0
 17 20  1  0  0  0  0
 18 17  1  0  0  0  0
 20 21  1  0  0  0  0
 22 20  1  0  0  0  0
 23 24  1  6  0  0  0
 23  9  1  0  0  0  0
 23 36  1  0  0  0  0
 23 20  1  0  0  0  0
 25 36  1  0  0  0  0
 25 28  1  0  0  0  0
 25 27  1  0  0  0  0
 26 25  1  0  0  0  0
 29 31  1  0  0  0  0
 29 30  1  0  0  0  0
 29 36  1  0  0  0  0
 32 29  1  0  0  0  0
 35  5  1  0  0  0  0
 35 37  1  0  0  0  0
 35  1  1  0  0  0  0
 36 37  1  0  0  0  0
 37 33  1  0  0  0  0
 37 34  1  0  0  0  0
M  END
$$$$
