CSD_code = FEJJAG | q = 1 | S = 0 | Stoichiometry = C24H23ClFeN5(1+) | MND = 6
 OpenBabel04212202033D

 54 61  0  0  1  0  0  0  0  0999 V2000
    7.3412    4.6144    5.8147 Fe  0  0  0  0  0  0  0  0  0  0  0  0
    5.7247    5.6247    6.8539 Cl  0  0  0  0  0  0  0  0  0  0  0  0
    8.8369    3.6979    4.9294 N   0  0  0  0  0  4  0  0  0  0  0  0
    7.2968    6.1654    4.6440 N   0  0  0  0  0  0  0  0  0  0  0  0
    8.6746    5.3089    6.9306 N   0  0  0  0  0  0  0  0  0  0  0  0
    7.0392    3.3246    3.3601 C   0  0  0  0  0  0  0  0  0  0  0  0
    7.1694    3.0283    6.8554 N   0  0  0  0  0  0  0  0  0  0  0  0
    6.1534    3.8236    4.3835 N   0  0  0  0  0  4  0  0  0  0  0  0
    8.4082    3.3470    3.6041 C   0  0  0  0  0  0  0  0  0  0  0  0
   11.0243    5.7100    7.0446 C   0  0  0  0  0  0  0  0  0  0  0  0
   11.9916    5.6566    6.5698 H   0  0  0  0  0  0  0  0  0  0  0  0
    8.0638    2.0724    6.5873 C   0  0  1  0  0  3  0  0  0  0  0  0
    9.1871    2.4786    5.6825 C   0  0  0  0  0  0  0  0  0  0  0  0
   10.0591    2.6844    6.3104 H   0  0  0  0  0  0  0  0  0  0  0  0
    9.4499    1.6610    5.0033 H   0  0  0  0  0  0  0  0  0  0  0  0
    7.9926    0.8058    7.1427 C   0  0  0  0  0  0  0  0  0  0  0  0
    8.7365    0.0665    6.8909 H   0  0  0  0  0  0  0  0  0  0  0  0
    5.3612    4.9605    3.8975 C   0  0  0  0  0  0  0  0  0  0  0  0
    4.6064    5.1798    4.6602 H   0  0  0  0  0  0  0  0  0  0  0  0
    4.8633    4.7640    2.9428 H   0  0  0  0  0  0  0  0  0  0  0  0
    9.2970    2.9622    2.6081 C   0  0  0  0  0  0  0  0  0  0  0  0
   10.3597    2.9831    2.7944 H   0  0  0  0  0  0  0  0  0  0  0  0
    9.6218    6.2703    8.8903 C   0  0  0  0  0  0  0  0  0  0  0  0
    9.4666    6.6638    9.8810 H   0  0  0  0  0  0  0  0  0  0  0  0
    6.2529    6.1588    3.8054 C   0  0  1  0  0  3  0  0  0  0  0  0
    9.9311    4.6689    4.9941 C   0  0  0  0  0  0  0  0  0  0  0  0
    9.7416    5.4429    4.2467 H   0  0  0  0  0  0  0  0  0  0  0  0
   10.9102    4.2230    4.7845 H   0  0  0  0  0  0  0  0  0  0  0  0
    7.4577    2.4816    1.1474 C   0  0  0  0  0  0  0  0  0  0  0  0
    7.0852    2.1314    0.1981 H   0  0  0  0  0  0  0  0  0  0  0  0
    8.0364    7.2725    4.6989 C   0  0  0  0  0  0  0  0  0  0  0  0
    8.8332    7.2815    5.4258 H   0  0  0  0  0  0  0  0  0  0  0  0
    8.5466    5.7936    8.1613 C   0  0  0  0  0  3  0  0  0  0  0  0
    7.5393    5.8105    8.5465 H   0  0  0  0  0  0  0  0  0  0  0  0
    8.8222    2.5477    1.3769 C   0  0  0  0  0  0  0  0  0  0  0  0
    9.5162    2.2604    0.6034 H   0  0  0  0  0  0  0  0  0  0  0  0
    5.9653    7.2197    2.9622 C   0  0  0  0  0  0  0  0  0  0  0  0
    5.1161    7.1604    2.3006 H   0  0  0  0  0  0  0  0  0  0  0  0
   10.8861    6.2343    8.3239 C   0  0  0  0  0  0  0  0  0  0  0  0
   11.7471    6.5991    8.8604 H   0  0  0  0  0  0  0  0  0  0  0  0
    6.5695    2.8681    2.1347 C   0  0  0  0  0  0  0  0  0  0  0  0
    5.5071    2.8109    1.9514 H   0  0  0  0  0  0  0  0  0  0  0  0
    7.8089    8.3815    3.9076 C   0  0  0  0  0  0  0  0  0  0  0  0
    8.4392    9.2497    4.0065 H   0  0  0  0  0  0  0  0  0  0  0  0
    6.0455    1.5112    8.3133 C   0  0  0  0  0  0  0  0  0  0  0  0
    5.2315    1.3395    8.9977 H   0  0  0  0  0  0  0  0  0  0  0  0
    9.8989    5.2628    6.3779 C   0  0  0  0  0  0  0  0  0  0  0  0
    6.1831    2.7451    7.7062 C   0  0  0  0  0  0  0  0  0  0  0  0
    5.4959    3.5551    7.8953 H   0  0  0  0  0  0  0  0  0  0  0  0
    6.9634    0.5133    8.0241 C   0  0  0  0  0  0  0  0  0  0  0  0
    6.8854   -0.4640    8.4724 H   0  0  0  0  0  0  0  0  0  0  0  0
    6.7587    8.3539    3.0032 C   0  0  0  0  0  0  0  0  0  0  0  0
    6.5517    9.1969    2.3642 H   0  0  0  0  0  0  0  0  0  0  0  0
    5.5068    3.0886    4.6691 H   0  0  0  0  0  0  0  0  0  0  0  0
  1  2  1  0  0  0  0
  1  7  1  0  0  0  0
  1  5  1  0  0  0  0
  3 26  1  0  0  0  0
  3 13  1  0  0  0  0
  3  1  1  0  0  0  0
  4 31  1  0  0  0  0
  4  1  1  0  0  0  0
  5 33  1  0  0  0  0
  6  9  1  0  0  0  0
  6  8  1  0  0  0  0
  7 48  1  0  0  0  0
  8 54  1  0  0  0  0
  8  1  1  0  0  0  0
  9  3  1  0  0  0  0
 10 39  1  0  0  0  0
 11 10  1  0  0  0  0
 12  7  1  0  0  0  0
 12 16  1  1  0  0  0
 13 14  1  0  0  0  0
 13 12  1  0  0  0  0
 15 13  1  0  0  0  0
 16 50  2  0  0  0  0
 17 16  1  0  0  0  0
 18  8  1  0  0  0  0
 18 19  1  0  0  0  0
 20 18  1  0  0  0  0
 21 22  1  0  0  0  0
 21  9  2  0  0  0  0
 23 24  1  0  0  0  0
 25 37  1  1  0  0  0
 25 18  1  0  0  0  0
 25  4  1  0  0  0  0
 26 47  1  0  0  0  0
 27 26  1  0  0  0  0
 28 26  1  0  0  0  0
 29 35  2  0  0  0  0
 29 41  1  0  0  0  0
 30 29  1  0  0  0  0
 31 32  1  0  0  0  0
 33 34  1  0  0  0  0
 33 23  1  0  0  0  0
 35 21  1  0  0  0  0
 36 35  1  0  0  0  0
 37 52  2  0  0  0  0
 38 37  1  0  0  0  0
 39 40  1  0  0  0  0
 39 23  2  0  0  0  0
 41  6  2  0  0  0  0
 42 41  1  0  0  0  0
 43 44  1  0  0  0  0
 43 31  2  0  0  0  0
 45 46  1  0  0  0  0
 47  5  1  0  0  0  0
 47 10  2  0  0  0  0
 48 49  1  0  0  0  0
 48 45  2  0  0  0  0
 50 45  1  0  0  0  0
 50 51  1  0  0  0  0
 52 43  1  0  0  0  0
 53 52  1  0  0  0  0
M  END
$$$$
