CSD_code = FEJKUB | q = 0 | S = 0 | Stoichiometry = C23H18Br2Cl2N2O2Pd | MND = 4
 OpenBabel04212202033D

 50 56  0  0  1  0  0  0  0  0999 V2000
    4.6593    6.4361    2.3774 Pd  0  0  0  0  0  0  0  0  0  0  0  0
    6.3020    1.0075   -1.4856 Br  0  0  0  0  0  0  0  0  0  0  0  0
    8.8256    0.9826    2.3382 Br  0  0  0  0  0  0  0  0  0  0  0  0
    3.5368    8.0495    1.3400 Cl  0  0  0  0  0  0  0  0  0  0  0  0
    4.3914    7.4306    4.3460 Cl  0  0  0  0  0  0  0  0  0  0  0  0
    8.0680    4.5345    4.0848 O   0  0  0  0  0  0  0  0  0  0  0  0
    3.6105    3.9489   -0.9121 O   0  0  0  0  0  0  0  0  0  0  0  0
    4.5290    5.0963    0.7704 N   0  0  2  0  0  0  0  0  0  0  0  0
    6.1928    5.1661    3.0478 N   0  0  1  0  0  0  0  0  0  0  0  0
    6.3411    3.8580    2.7154 C   0  0  1  0  0  3  0  0  0  0  0  0
    6.2824    3.4035    1.2902 C   0  0  2  0  0  0  0  0  0  0  0  0
    3.4417    4.8677    0.0646 C   0  0  2  0  0  3  0  0  0  0  0  0
    5.5190    4.2729    0.3399 C   0  0  1  0  0  3  0  0  0  0  0  0
    5.5324    2.0602    1.1036 C   0  0  0  0  0  0  0  0  0  0  0  0
    5.0508    2.0058   -0.3512 C   0  0  1  0  0  0  0  0  0  0  0  0
    7.5335    6.8903    4.1834 C   0  0  0  0  0  0  0  0  0  0  0  0
    7.6017    3.3753    3.4016 C   0  0  1  0  0  0  0  0  0  0  0  0
    4.9478    3.4706   -0.8101 C   0  0  1  0  0  0  0  0  0  0  0  0
    2.1199    5.3770    0.3454 C   0  0  0  0  0  0  0  0  0  0  0  0
    7.7946    3.3167    0.9623 C   0  0  0  0  0  0  0  0  0  0  0  0
    8.5185    2.9185    2.2540 C   0  0  2  0  0  0  0  0  0  0  0  0
    7.2078    5.5371    3.7993 C   0  0  2  0  0  3  0  0  0  0  0  0
    0.4530    6.0850    1.9296 C   0  0  0  0  0  0  0  0  0  0  0  0
    8.2088    7.1366    5.3806 C   0  0  0  0  0  0  0  0  0  0  0  0
    1.7222    5.6076    1.6717 C   0  0  0  0  0  0  0  0  0  0  0  0
    7.2260    7.9581    3.3258 C   0  0  0  0  0  0  0  0  0  0  0  0
   -0.0529    6.0645   -0.4209 C   0  0  0  0  0  0  0  0  0  0  0  0
   -0.4296    6.3279    0.8866 C   0  0  0  0  0  0  0  0  0  0  0  0
    7.5473    9.2475    3.6999 C   0  0  0  0  0  0  0  0  0  0  0  0
    1.2118    5.5828   -0.6952 C   0  0  0  0  0  0  0  0  0  0  0  0
    8.5202    8.4324    5.7421 C   0  0  0  0  0  0  0  0  0  0  0  0
    8.1794    9.4884    4.9115 C   0  0  0  0  0  0  0  0  0  0  0  0
   -0.7450    6.2431   -1.2299 H   0  0  0  0  0  0  0  0  0  0  0  0
   -1.4149    6.7158    1.0960 H   0  0  0  0  0  0  0  0  0  0  0  0
    0.1509    6.2720    2.9487 H   0  0  0  0  0  0  0  0  0  0  0  0
    2.3974    5.3734    2.5071 H   0  0  0  0  0  0  0  0  0  0  0  0
    1.5225    5.3898   -1.7104 H   0  0  0  0  0  0  0  0  0  0  0  0
    6.7692    7.7732    2.3431 H   0  0  0  0  0  0  0  0  0  0  0  0
    7.3009   10.0692    3.0451 H   0  0  0  0  0  0  0  0  0  0  0  0
    8.4136   10.5009    5.2032 H   0  0  0  0  0  0  0  0  0  0  0  0
    9.0228    8.6211    6.6786 H   0  0  0  0  0  0  0  0  0  0  0  0
    8.4536    6.3077    6.0266 H   0  0  0  0  0  0  0  0  0  0  0  0
    9.5077    3.3702    2.3344 H   0  0  0  0  0  0  0  0  0  0  0  0
    4.0950    1.4914   -0.4554 H   0  0  0  0  0  0  0  0  0  0  0  0
    6.1535    1.2041    1.3643 H   0  0  0  0  0  0  0  0  0  0  0  0
    4.6637    2.0651    1.7675 H   0  0  0  0  0  0  0  0  0  0  0  0
    7.9982    2.6252    0.1456 H   0  0  0  0  0  0  0  0  0  0  0  0
    8.1300    4.3118    0.6575 H   0  0  0  0  0  0  0  0  0  0  0  0
    5.4393    3.6339   -1.7768 H   0  0  0  0  0  0  0  0  0  0  0  0
    7.4491    2.5840    4.1455 H   0  0  0  0  0  0  0  0  0  0  0  0
  1  5  1  0  0  0  0
  2 15  1  0  0  0  0
  4  1  1  0  0  0  0
  7 18  1  0  0  0  0
  7 12  1  0  0  0  0
  8  1  1  1  0  0  0
  9  1  1  6  0  0  0
  9 22  1  0  0  0  0
 10  9  1  0  0  0  0
 10 17  1  0  0  0  0
 11 10  1  0  0  0  0
 12 19  1  0  0  0  0
 12  8  1  0  0  0  0
 13  8  1  0  0  0  0
 13 11  1  0  0  0  0
 14 11  1  0  0  0  0
 14 45  1  0  0  0  0
 14 46  1  0  0  0  0
 15 14  1  0  0  0  0
 16 24  1  0  0  0  0
 17  6  1  0  0  0  0
 17 50  1  0  0  0  0
 18 15  1  0  0  0  0
 18 13  1  0  0  0  0
 19 25  1  0  0  0  0
 20 11  1  0  0  0  0
 20 21  1  0  0  0  0
 21 43  1  0  0  0  0
 21  3  1  0  0  0  0
 21 17  1  0  0  0  0
 22  6  1  0  0  0  0
 22 16  1  0  0  0  0
 23 35  1  0  0  0  0
 24 31  2  0  0  0  0
 24 42  1  0  0  0  0
 25 23  2  0  0  0  0
 25 36  1  0  0  0  0
 26 29  1  0  0  0  0
 26 16  2  0  0  0  0
 27 28  2  0  0  0  0
 28 34  1  0  0  0  0
 28 23  1  0  0  0  0
 29 32  2  0  0  0  0
 30 27  1  0  0  0  0
 30 19  2  0  0  0  0
 31 41  1  0  0  0  0
 32 40  1  0  0  0  0
 32 31  1  0  0  0  0
 33 27  1  0  0  0  0
 37 30  1  0  0  0  0
 38 26  1  0  0  0  0
 39 29  1  0  0  0  0
 44 15  1  0  0  0  0
 47 20  1  0  0  0  0
 48 20  1  0  0  0  0
 49 18  1  0  0  0  0
M  END
$$$$
