CSD_code = FEJPUI | q = 0 | S = 0 | Stoichiometry = C14H28Cl2N8NiO6 | MND = 6
 OpenBabel04212202033D

 59 62  0  0  1  0  0  0  0  0999 V2000
   -0.0001   13.5370   -0.0000 Ni  0  0  0  0  0  0  0  0  0  0  0  0
    0.9905   13.8914   -1.7949 Cl  0  0  0  0  0  0  0  0  0  0  0  0
    1.9746   12.6272    0.8988 O   0  0  0  0  0  0  0  0  0  0  0  0
    1.8956   12.6268    1.8584 H   0  0  0  0  0  0  0  0  0  0  0  0
    2.7799   13.0870    0.6458 H   0  0  0  0  0  0  0  0  0  0  0  0
   -1.0827   18.7724   -1.7392 O   0  0  0  0  0  0  0  0  0  0  0  0
    0.7019   19.9379   -1.4475 O   0  0  0  0  0  0  0  0  0  0  0  0
    0.4082   15.7124    0.5844 N   0  0  1  0  0  4  0  0  0  0  0  0
    0.0656   17.5059    2.1801 N   0  0  1  0  0  0  0  0  0  0  0  0
    2.2337   17.2026    1.1920 N   0  0  1  0  0  0  0  0  0  0  0  0
   -0.0141   18.9907   -1.2110 N   0  0  0  0  0  0  0  0  0  0  0  0
   -0.2918   16.1529    1.8081 C   0  0  0  0  0  0  0  0  0  0  0  0
   -1.3688   16.0931    1.6392 H   0  0  0  0  0  0  0  0  0  0  0  0
   -0.0321   15.4867    2.6328 H   0  0  0  0  0  0  0  0  0  0  0  0
    1.5026   17.5841    2.3907 C   0  0  0  0  0  0  0  0  0  0  0  0
    1.7737   18.6050    2.6693 H   0  0  0  0  0  0  0  0  0  0  0  0
    1.7770   16.9093    3.2049 H   0  0  0  0  0  0  0  0  0  0  0  0
    1.8588   15.8539    0.8217 C   0  0  0  0  0  0  0  0  0  0  0  0
    2.1425   15.1932    1.6458 H   0  0  0  0  0  0  0  0  0  0  0  0
    2.3937   15.5713   -0.0891 H   0  0  0  0  0  0  0  0  0  0  0  0
    0.0276   16.6172   -0.5100 C   0  0  0  0  0  0  0  0  0  0  0  0
   -1.0496   16.5423   -0.6697 H   0  0  0  0  0  0  0  0  0  0  0  0
    0.5399   16.2983   -1.4217 H   0  0  0  0  0  0  0  0  0  0  0  0
    0.4129   18.0618   -0.1579 C   0  0  1  0  0  0  0  0  0  0  0  0
    1.9221   18.1256    0.1125 C   0  0  0  0  0  0  0  0  0  0  0  0
    2.4855   17.8343   -0.7780 H   0  0  0  0  0  0  0  0  0  0  0  0
    2.2307   19.1331    0.4015 H   0  0  0  0  0  0  0  0  0  0  0  0
   -0.3286   18.4378    1.1512 C   0  0  0  0  0  0  0  0  0  0  0  0
   -0.0664   19.4527    1.4643 H   0  0  0  0  0  0  0  0  0  0  0  0
   -1.4102   18.3778    1.0013 H   0  0  0  0  0  0  0  0  0  0  0  0
   -0.9904   13.1812    1.7947 Cl  0  0  0  0  0  0  0  0  0  0  0  0
   -1.9749   14.4468   -0.8986 O   0  0  0  0  0  0  0  0  0  0  0  0
   -1.8963   14.4469   -1.8582 H   0  0  0  0  0  0  0  0  0  0  0  0
   -2.7802   13.9872   -0.6452 H   0  0  0  0  0  0  0  0  0  0  0  0
    1.0825    8.3017    1.7395 O   0  0  0  0  0  0  0  0  0  0  0  0
   -0.7021    7.1361    1.4475 O   0  0  0  0  0  0  0  0  0  0  0  0
   -0.4083   11.3616   -0.5842 N   0  0  2  0  0  4  0  0  0  0  0  0
   -0.0654    9.5682   -2.1801 N   0  0  2  0  0  0  0  0  0  0  0  0
   -2.2336    9.8712   -1.1921 N   0  0  2  0  0  0  0  0  0  0  0  0
    0.0145    8.0828    1.2104 N   0  0  0  0  0  0  0  0  0  0  0  0
    0.2919   10.9213   -1.8079 C   0  0  0  0  0  0  0  0  0  0  0  0
    1.3688   10.9811   -1.6390 H   0  0  0  0  0  0  0  0  0  0  0  0
    0.0323   11.5875   -2.6326 H   0  0  0  0  0  0  0  0  0  0  0  0
   -1.5024    9.4900   -2.3908 C   0  0  0  0  0  0  0  0  0  0  0  0
   -1.7734    8.4691   -2.6695 H   0  0  0  0  0  0  0  0  0  0  0  0
   -1.7768   10.1648   -3.2049 H   0  0  0  0  0  0  0  0  0  0  0  0
   -1.8588   11.2200   -0.8217 C   0  0  0  0  0  0  0  0  0  0  0  0
   -2.1425   11.8808   -1.6458 H   0  0  0  0  0  0  0  0  0  0  0  0
   -2.3938   11.5024    0.0891 H   0  0  0  0  0  0  0  0  0  0  0  0
   -0.0277   10.4567    0.5101 C   0  0  0  0  0  0  0  0  0  0  0  0
    1.0495   10.5316    0.6699 H   0  0  0  0  0  0  0  0  0  0  0  0
   -0.5401   10.7756    1.4217 H   0  0  0  0  0  0  0  0  0  0  0  0
   -0.4128    9.0121    0.1577 C   0  0  2  0  0  0  0  0  0  0  0  0
   -1.9220    8.9482   -0.1127 C   0  0  0  0  0  0  0  0  0  0  0  0
   -2.4855    9.2394    0.7778 H   0  0  0  0  0  0  0  0  0  0  0  0
   -2.2305    7.9407   -0.4018 H   0  0  0  0  0  0  0  0  0  0  0  0
    0.3287    8.6362   -1.1513 C   0  0  0  0  0  0  0  0  0  0  0  0
    0.0667    7.6213   -1.4645 H   0  0  0  0  0  0  0  0  0  0  0  0
    1.4104    8.6963   -1.0013 H   0  0  0  0  0  0  0  0  0  0  0  0
  1 31  1  0  0  0  0
  2  1  1  0  0  0  0
  3  4  1  0  0  0  0
  5  3  1  0  0  0  0
  6 11  2  0  0  0  0
  7 11  2  0  0  0  0
  8  1  1  6  0  0  0
  8 18  1  0  0  0  0
  8 12  1  0  0  0  0
  9 28  1  6  0  0  0
  9 15  1  0  0  0  0
 10 25  1  6  0  0  0
 10 15  1  0  0  0  0
 12  9  1  0  0  0  0
 12 14  1  0  0  0  0
 13 12  1  0  0  0  0
 15 16  1  0  0  0  0
 15 17  1  0  0  0  0
 18 10  1  0  0  0  0
 18 19  1  0  0  0  0
 20 18  1  0  0  0  0
 21 24  1  0  0  0  0
 21  8  1  0  0  0  0
 22 21  1  0  0  0  0
 23 21  1  0  0  0  0
 24 11  1  6  0  0  0
 24 25  1  0  0  0  0
 24 28  1  0  0  0  0
 25 27  1  0  0  0  0
 26 25  1  0  0  0  0
 28 29  1  0  0  0  0
 30 28  1  0  0  0  0
 32 34  1  0  0  0  0
 33 32  1  0  0  0  0
 37  1  1  1  0  0  0
 37 50  1  0  0  0  0
 38 44  1  1  0  0  0
 38 41  1  0  0  0  0
 38 57  1  0  0  0  0
 39 44  1  6  0  0  0
 39 47  1  0  0  0  0
 39 54  1  0  0  0  0
 40 36  2  0  0  0  0
 40 35  2  0  0  0  0
 41 42  1  0  0  0  0
 41 37  1  0  0  0  0
 43 41  1  0  0  0  0
 45 44  1  0  0  0  0
 46 44  1  0  0  0  0
 47 37  1  0  0  0  0
 47 49  1  0  0  0  0
 48 47  1  0  0  0  0
 50 51  1  0  0  0  0
 50 52  1  0  0  0  0
 53 50  1  0  0  0  0
 53 40  1  1  0  0  0
 54 53  1  0  0  0  0
 54 55  1  0  0  0  0
 56 54  1  0  0  0  0
 57 59  1  0  0  0  0
 57 53  1  0  0  0  0
 58 57  1  0  0  0  0
M  END
$$$$
