CSD_code = FEKDUV | q = 0 | S = 0 | Stoichiometry = C21H35INOPPt | MND = 4
 OpenBabel04212202033D

 61 62  0  0  0  0  0  0  0  0999 V2000
    1.7699   -1.4527    2.2692 Pt  0  0  0  0  0  0  0  0  0  0  0  0
    2.0405   -3.3361    0.4327 I   0  0  0  0  0 15  0  0  0  0  0  0
    1.3150    0.5728    3.3482 P   0  0  0  0  0  4  0  0  0  0  0  0
   -0.9883   -2.7153    2.3577 O   0  0  0  0  0  1  0  0  0  0  0  0
    3.8211   -2.6602    4.2141 N   0  0  0  0  0  0  0  0  0  0  0  0
    0.0129   -2.1730    2.4065 C   0  0  0  0  0  2  0  0  0  0  0  0
    3.8127   -1.0531    2.1972 C   0  0  0  0  0  0  0  0  0  0  0  0
    4.3664   -1.4511    1.3417 H   0  0  0  0  0  0  0  0  0  0  0  0
    4.2389   -0.0839    2.4726 H   0  0  0  0  0  0  0  0  0  0  0  0
    3.8560   -1.9558    3.2975 C   0  0  0  0  0  0  0  0  0  0  0  0
    2.1565    2.0045    2.5157 C   0  0  0  0  0  0  0  0  0  0  0  0
    3.2077    1.8774    2.8115 H   0  0  0  0  0  0  0  0  0  0  0  0
    2.1052    1.8832    0.9911 C   0  0  0  0  0  0  0  0  0  0  0  0
    2.3650    0.8611    0.6840 H   0  0  0  0  0  0  0  0  0  0  0  0
    1.1002    2.0927    0.6248 H   0  0  0  0  0  0  0  0  0  0  0  0
    3.0723    2.8897    0.3745 C   0  0  0  0  0  0  0  0  0  0  0  0
    3.0398    2.8151   -0.7135 H   0  0  0  0  0  0  0  0  0  0  0  0
    4.0924    2.6639    0.6937 H   0  0  0  0  0  0  0  0  0  0  0  0
    2.7024    4.3065    0.8094 C   0  0  0  0  0  0  0  0  0  0  0  0
    3.4149    5.0202    0.3928 H   0  0  0  0  0  0  0  0  0  0  0  0
    1.7137    4.5568    0.4175 H   0  0  0  0  0  0  0  0  0  0  0  0
    2.6858    4.4252    2.3319 C   0  0  0  0  0  0  0  0  0  0  0  0
    3.6926    4.2555    2.7211 H   0  0  0  0  0  0  0  0  0  0  0  0
    2.3832    5.4334    2.6219 H   0  0  0  0  0  0  0  0  0  0  0  0
    1.7251    3.4044    2.9431 C   0  0  0  0  0  0  0  0  0  0  0  0
    0.7176    3.6116    2.5794 H   0  0  0  0  0  0  0  0  0  0  0  0
    1.7258    3.4973    4.0316 H   0  0  0  0  0  0  0  0  0  0  0  0
    1.7764    0.6738    5.1426 C   0  0  0  0  0  0  0  0  0  0  0  0
    1.2862    1.5579    5.5703 H   0  0  0  0  0  0  0  0  0  0  0  0
    3.2833    0.7977    5.3701 C   0  0  0  0  0  0  0  0  0  0  0  0
    3.7939   -0.0505    4.9113 H   0  0  0  0  0  0  0  0  0  0  0  0
    3.6640    1.7209    4.9264 H   0  0  0  0  0  0  0  0  0  0  0  0
    3.5952    0.7959    6.8651 C   0  0  0  0  0  0  0  0  0  0  0  0
    4.6735    0.8850    7.0087 H   0  0  0  0  0  0  0  0  0  0  0  0
    3.1210    1.6592    7.3403 H   0  0  0  0  0  0  0  0  0  0  0  0
    3.0860   -0.4882    7.5092 C   0  0  0  0  0  0  0  0  0  0  0  0
    3.5798   -1.3445    7.0465 H   0  0  0  0  0  0  0  0  0  0  0  0
    3.3228   -0.4927    8.5744 H   0  0  0  0  0  0  0  0  0  0  0  0
    1.5801   -0.6065    7.3072 C   0  0  0  0  0  0  0  0  0  0  0  0
    1.0765    0.2283    7.8032 H   0  0  0  0  0  0  0  0  0  0  0  0
    1.2135   -1.5321    7.7534 H   0  0  0  0  0  0  0  0  0  0  0  0
    1.2438   -0.5936    5.8194 C   0  0  0  0  0  0  0  0  0  0  0  0
    0.1606   -0.6660    5.6922 H   0  0  0  0  0  0  0  0  0  0  0  0
    1.7026   -1.4670    5.3419 H   0  0  0  0  0  0  0  0  0  0  0  0
   -0.5370    0.8102    3.3592 C   0  0  0  0  0  0  0  0  0  0  0  0
   -0.8959   -0.1493    3.7624 H   0  0  0  0  0  0  0  0  0  0  0  0
   -1.1382    1.9122    4.2308 C   0  0  0  0  0  0  0  0  0  0  0  0
   -0.7783    1.8399    5.2582 H   0  0  0  0  0  0  0  0  0  0  0  0
   -0.8744    2.8971    3.8458 H   0  0  0  0  0  0  0  0  0  0  0  0
   -2.6616    1.7670    4.2319 C   0  0  0  0  0  0  0  0  0  0  0  0
   -3.1009    2.5562    4.8451 H   0  0  0  0  0  0  0  0  0  0  0  0
   -2.9320    0.8079    4.6800 H   0  0  0  0  0  0  0  0  0  0  0  0
   -3.2236    1.8379    2.8149 C   0  0  0  0  0  0  0  0  0  0  0  0
   -4.3061    1.7039    2.8409 H   0  0  0  0  0  0  0  0  0  0  0  0
   -3.0203    2.8252    2.3931 H   0  0  0  0  0  0  0  0  0  0  0  0
   -2.5880    0.7695    1.9293 C   0  0  0  0  0  0  0  0  0  0  0  0
   -2.9680    0.8538    0.9098 H   0  0  0  0  0  0  0  0  0  0  0  0
   -2.8523   -0.2224    2.3024 H   0  0  0  0  0  0  0  0  0  0  0  0
   -1.0710    0.9315    1.9313 C   0  0  0  0  0  0  0  0  0  0  0  0
   -0.8264    1.9163    1.5295 H   0  0  0  0  0  0  0  0  0  0  0  0
   -0.6042    0.1751    1.2872 H   0  0  0  0  0  0  0  0  0  0  0  0
  1  6  1  0  0  0  0
  1  3  1  0  0  0  0
  3 45  1  0  0  0  0
  3 28  1  0  0  0  0
  4  6  1  0  0  0  0
  7  1  1  0  0  0  0
  7  9  1  0  0  0  0
  7 10  1  0  0  0  0
  8  7  1  0  0  0  0
 10  5  3  0  0  0  0
 11 12  1  0  0  0  0
 11 25  1  0  0  0  0
 11  3  1  0  0  0  0
 13 11  1  0  0  0  0
 14 13  1  0  0  0  0
 15 13  1  0  0  0  0
 16 18  1  0  0  0  0
 16 19  1  0  0  0  0
 16 13  1  0  0  0  0
 17 16  1  0  0  0  0
 19 22  1  0  0  0  0
 20 19  1  0  0  0  0
 21 19  1  0  0  0  0
 22 24  1  0  0  0  0
 22 23  1  0  0  0  0
 22 25  1  0  0  0  0
 25 27  1  0  0  0  0
 26 25  1  0  0  0  0
 28 30  1  0  0  0  0
 28 29  1  0  0  0  0
 28 42  1  0  0  0  0
 30 33  1  0  0  0  0
 31 30  1  0  0  0  0
 32 30  1  0  0  0  0
 33 34  1  0  0  0  0
 33 35  1  0  0  0  0
 33 36  1  0  0  0  0
 36 38  1  0  0  0  0
 37 36  1  0  0  0  0
 39 36  1  0  0  0  0
 39 41  1  0  0  0  0
 39 40  1  0  0  0  0
 42 39  1  0  0  0  0
 43 42  1  0  0  0  0
 44 42  1  0  0  0  0
 45 46  1  0  0  0  0
 45 47  1  0  0  0  0
 47 50  1  0  0  0  0
 47 48  1  0  0  0  0
 49 47  1  0  0  0  0
 50 52  1  0  0  0  0
 50 51  1  0  0  0  0
 53 54  1  0  0  0  0
 53 50  1  0  0  0  0
 55 53  1  0  0  0  0
 56 59  1  0  0  0  0
 56 58  1  0  0  0  0
 56 53  1  0  0  0  0
 57 56  1  0  0  0  0
 59 45  1  0  0  0  0
 60 59  1  0  0  0  0
 61 59  1  0  0  0  0
M  END
$$$$
