CSD_code = FEKMOY | q = 0 | S = 0 | Stoichiometry = C24H26Cl2N2O2Ti | MND = 6
 OpenBabel04212202033D

 57 62  0  0  1  0  0  0  0  0999 V2000
    4.2007    4.2456   21.4469 Ti  0  0  0  0  0  0  0  0  0  0  0  0
    5.2452    5.9151   22.4653 Cl  0  0  0  0  0  0  0  0  0  0  0  0
    5.6444    4.2189   19.6978 Cl  0  0  0  0  0  0  0  0  0  0  0  0
    5.5123    2.7115   22.1176 N   0  0  0  0  0  0  0  0  0  0  0  0
    3.2666    2.3648   20.5397 N   0  0  1  0  0  4  0  0  0  0  0  0
    3.2640    3.7687   22.8639 O   0  0  0  0  0  0  0  0  0  0  0  0
    3.0021    5.1236   20.6047 O   0  0  0  0  0  0  0  0  0  0  0  0
    3.1187    2.6161   23.4876 C   0  0  0  0  0  0  0  0  0  0  0  0
    3.5058    2.4501   24.8311 C   0  0  0  0  0  0  0  0  0  0  0  0
    3.4040    1.1953   25.4035 C   0  0  0  0  0  0  0  0  0  0  0  0
    2.9275    0.0942   24.6986 C   0  0  0  0  0  0  0  0  0  0  0  0
    2.5353    0.2709   23.3807 C   0  0  0  0  0  0  0  0  0  0  0  0
    2.6285    1.5108   22.7688 C   0  0  0  0  0  0  0  0  0  0  0  0
    4.0185    3.6344   25.5957 C   0  0  0  0  0  0  0  0  0  0  0  0
    2.8416   -1.2470   25.3641 C   0  0  0  0  0  0  0  0  0  0  0  0
    2.1981    1.7565   21.3513 C   0  0  0  0  0  0  0  0  0  0  0  0
    1.8375    4.9112   20.0266 C   0  0  0  0  0  0  0  0  0  0  0  0
    0.8094    5.8671   20.1364 C   0  0  0  0  0  0  0  0  0  0  0  0
   -0.4042    5.6217   19.5239 C   0  0  0  0  0  0  0  0  0  0  0  0
   -0.6387    4.4538   18.8033 C   0  0  0  0  0  0  0  0  0  0  0  0
    0.3750    3.5119   18.7164 C   0  0  0  0  0  0  0  0  0  0  0  0
    1.6092    3.7193   19.3163 C   0  0  0  0  0  0  0  0  0  0  0  0
    1.0946    7.1080   20.9255 C   0  0  0  0  0  0  0  0  0  0  0  0
   -1.9654    4.2321   18.1407 C   0  0  0  0  0  0  0  0  0  0  0  0
    2.7264    2.7129   19.2130 C   0  0  0  0  0  0  0  0  0  0  0  0
    4.3848    1.4284   20.4302 C   0  0  0  0  0  0  0  0  0  0  0  0
    5.2385    1.4836   21.6676 C   0  0  1  0  0  3  0  0  0  0  0  0
    5.7705    0.3480   22.2682 C   0  0  0  0  0  0  0  0  0  0  0  0
    6.6046    0.4961   23.3623 C   0  0  0  0  0  0  0  0  0  0  0  0
    6.9025    1.7755   23.8063 C   0  0  0  0  0  0  0  0  0  0  0  0
    6.3313    2.8565   23.1550 C   0  0  0  0  0  0  0  0  0  0  0  0
    3.7101    1.0668   26.4325 H   0  0  0  0  0  0  0  0  0  0  0  0
    2.1508   -0.5692   22.8179 H   0  0  0  0  0  0  0  0  0  0  0  0
    4.8771    3.3607   26.2057 H   0  0  0  0  0  0  0  0  0  0  0  0
    3.2417    4.0176   26.2577 H   0  0  0  0  0  0  0  0  0  0  0  0
    4.2977    4.4307   24.9038 H   0  0  0  0  0  0  0  0  0  0  0  0
    2.5172   -2.0101   24.6615 H   0  0  0  0  0  0  0  0  0  0  0  0
    2.1320   -1.2154   26.1900 H   0  0  0  0  0  0  0  0  0  0  0  0
    3.8101   -1.5348   25.7707 H   0  0  0  0  0  0  0  0  0  0  0  0
    1.3516    2.4562   21.3519 H   0  0  0  0  0  0  0  0  0  0  0  0
    1.8686    0.8126   20.8858 H   0  0  0  0  0  0  0  0  0  0  0  0
   -1.1929    6.3562   19.6073 H   0  0  0  0  0  0  0  0  0  0  0  0
    0.2065    2.5967   18.1652 H   0  0  0  0  0  0  0  0  0  0  0  0
    0.1807    7.6507   21.1519 H   0  0  0  0  0  0  0  0  0  0  0  0
    1.6061    6.8413   21.8545 H   0  0  0  0  0  0  0  0  0  0  0  0
    1.7638    7.7612   20.3633 H   0  0  0  0  0  0  0  0  0  0  0  0
   -2.0143    3.2458   17.6870 H   0  0  0  0  0  0  0  0  0  0  0  0
   -2.7743    4.3248   18.8639 H   0  0  0  0  0  0  0  0  0  0  0  0
   -2.1282    4.9780   17.3635 H   0  0  0  0  0  0  0  0  0  0  0  0
    3.5466    3.1470   18.6260 H   0  0  0  0  0  0  0  0  0  0  0  0
    2.3607    1.8060   18.7048 H   0  0  0  0  0  0  0  0  0  0  0  0
    4.0341    0.4010   20.2436 H   0  0  0  0  0  0  0  0  0  0  0  0
    5.0215    1.7526   19.5947 H   0  0  0  0  0  0  0  0  0  0  0  0
    5.5265   -0.6310   21.8862 H   0  0  0  0  0  0  0  0  0  0  0  0
    7.0206   -0.3703   23.8537 H   0  0  0  0  0  0  0  0  0  0  0  0
    7.5622    1.9346   24.6438 H   0  0  0  0  0  0  0  0  0  0  0  0
    6.5343    3.8791   23.4591 H   0  0  0  0  0  0  0  0  0  0  0  0
  1  4  1  0  0  0  0
  1  2  1  0  0  0  0
  1  6  1  0  0  0  0
  3  1  1  0  0  0  0
  4 31  1  0  0  0  0
  5 25  1  6  0  0  0
  5 16  1  0  0  0  0
  5  1  1  0  0  0  0
  6  8  1  0  0  0  0
  7  1  1  0  0  0  0
  8  9  1  0  0  0  0
  9 10  2  0  0  0  0
  9 14  1  0  0  0  0
 10 32  1  0  0  0  0
 11 15  1  0  0  0  0
 11 10  1  0  0  0  0
 12 11  2  0  0  0  0
 13 12  1  0  0  0  0
 13  8  2  0  0  0  0
 14 34  1  0  0  0  0
 14 35  1  0  0  0  0
 15 39  1  0  0  0  0
 15 38  1  0  0  0  0
 16 40  1  0  0  0  0
 16 13  1  0  0  0  0
 17 18  1  0  0  0  0
 17  7  1  0  0  0  0
 18 23  1  0  0  0  0
 19 42  1  0  0  0  0
 19 18  2  0  0  0  0
 20 19  1  0  0  0  0
 21 20  2  0  0  0  0
 21 22  1  0  0  0  0
 22 17  2  0  0  0  0
 23 44  1  0  0  0  0
 23 45  1  0  0  0  0
 24 20  1  0  0  0  0
 24 48  1  0  0  0  0
 25 22  1  0  0  0  0
 26  5  1  0  0  0  0
 26 27  1  0  0  0  0
 27  4  1  0  0  0  0
 27 28  1  6  0  0  0
 28 29  2  0  0  0  0
 29 30  1  0  0  0  0
 29 55  1  0  0  0  0
 30 56  1  0  0  0  0
 31 57  1  0  0  0  0
 31 30  2  0  0  0  0
 33 12  1  0  0  0  0
 36 14  1  0  0  0  0
 37 15  1  0  0  0  0
 41 16  1  0  0  0  0
 43 21  1  0  0  0  0
 46 23  1  0  0  0  0
 47 24  1  0  0  0  0
 49 24  1  0  0  0  0
 50 25  1  0  0  0  0
 51 25  1  0  0  0  0
 52 26  1  0  0  0  0
 53 26  1  0  0  0  0
 54 28  1  0  0  0  0
M  END
$$$$
