CSD_code = FEKQAQ | q = 0 | S = 0 | Stoichiometry = C26H18Cl5N6O6Y | MND = 7
 OpenBabel04212202033D

 62 67  0  0  0  0  0  0  0  0999 V2000
  -11.9212   -7.2840  -22.7918 Y   0  0  0  0  0  0  0  0  0  0  0  0
  -11.9163   -7.2904  -25.2510 Cl  0  0  0  0  0  0  0  0  0  0  0  0
   -9.0185   -7.8078  -23.6250 Cl  0  0  0  0  0  0  0  0  0  0  0  0
   -9.6141   -3.6972  -20.3203 Cl  0  0  0  0  0  0  0  0  0  0  0  0
  -10.4040   -5.8222  -22.1338 O   0  0  0  0  0  0  0  0  0  0  0  0
  -11.0926   -8.3751  -20.7129 N   0  0  0  0  0  0  0  0  0  0  0  0
   -8.5353   -4.7651  -21.1418 C   0  0  0  0  0  0  0  0  0  0  0  0
  -11.0435  -11.7785  -24.2799 C   0  0  0  0  0  0  0  0  0  0  0  0
  -11.0997  -12.2811  -25.2322 H   0  0  0  0  0  0  0  0  0  0  0  0
  -11.1576   -9.7239  -23.0732 N   0  0  0  0  0  0  0  0  0  0  0  0
  -10.7581  -11.7817  -21.9151 C   0  0  0  0  0  0  0  0  0  0  0  0
  -10.5878  -12.2924  -20.9796 H   0  0  0  0  0  0  0  0  0  0  0  0
   -6.3474   -5.5652  -21.6521 C   0  0  0  0  0  0  0  0  0  0  0  0
   -8.2384   -6.6271  -22.6318 C   0  0  0  0  0  0  0  0  0  0  0  0
   -9.1396   -5.7413  -21.9802 C   0  0  0  0  0  0  0  0  0  0  0  0
  -10.9357  -10.4008  -21.9357 C   0  0  0  0  0  0  0  0  0  0  0  0
  -10.9422   -9.6322  -20.6945 C   0  0  0  0  0  3  0  0  0  0  0  0
  -10.8432  -10.1994  -19.7622 H   0  0  0  0  0  0  0  0  0  0  0  0
  -11.2062  -10.3982  -24.2103 C   0  0  0  0  0  0  0  0  0  0  0  0
  -11.3835   -9.8113  -25.1051 H   0  0  0  0  0  0  0  0  0  0  0  0
   -4.2402   -6.2858  -22.0645 O   0  0  0  0  0  0  0  0  0  0  0  0
  -10.8161  -12.4822  -23.1100 C   0  0  0  0  0  0  0  0  0  0  0  0
  -10.6892  -13.5543  -23.1226 H   0  0  0  0  0  0  0  0  0  0  0  0
  -11.2301   -7.6309  -19.4952 C   0  0  0  0  0  0  0  0  0  0  0  0
  -10.4547   -6.8572  -19.4815 H   0  0  0  0  0  0  0  0  0  0  0  0
  -11.1382   -8.2636  -18.6005 H   0  0  0  0  0  0  0  0  0  0  0  0
   -6.8789   -6.5533  -22.4843 C   0  0  0  0  0  0  0  0  0  0  0  0
   -6.2140   -7.2333  -22.9934 H   0  0  0  0  0  0  0  0  0  0  0  0
   -7.1788   -4.6676  -20.9782 C   0  0  0  0  0  0  0  0  0  0  0  0
   -6.7395   -3.9165  -20.3392 H   0  0  0  0  0  0  0  0  0  0  0  0
   -4.9354   -5.4761  -21.4810 N   0  0  0  0  0  0  0  0  0  0  0  0
   -4.5047   -4.6003  -20.7552 O   0  0  0  0  0  0  0  0  0  0  0  0
  -12.7484   -6.1937  -20.7128 N   0  0  0  0  0  0  0  0  0  0  0  0
  -12.7977   -2.7899  -24.2797 C   0  0  0  0  0  0  0  0  0  0  0  0
  -12.7414   -2.2873  -25.2319 H   0  0  0  0  0  0  0  0  0  0  0  0
  -12.6835   -4.8446  -23.0733 N   0  0  0  0  0  0  0  0  0  0  0  0
  -13.0831   -2.7870  -21.9149 C   0  0  0  0  0  0  0  0  0  0  0  0
  -13.2534   -2.2765  -20.9794 H   0  0  0  0  0  0  0  0  0  0  0  0
  -12.9055   -4.1680  -21.9356 C   0  0  0  0  0  0  0  0  0  0  0  0
  -12.8988   -4.9366  -20.6945 C   0  0  0  0  0  0  0  0  0  0  0  0
  -12.9981   -4.3696  -19.7621 H   0  0  0  0  0  0  0  0  0  0  0  0
  -12.6349   -4.1701  -24.2102 C   0  0  0  0  0  0  0  0  0  0  0  0
  -12.4577   -4.7567  -25.1051 H   0  0  0  0  0  0  0  0  0  0  0  0
  -13.0251   -2.0863  -23.1098 C   0  0  0  0  0  0  0  0  0  0  0  0
  -13.1520   -1.0143  -23.1223 H   0  0  0  0  0  0  0  0  0  0  0  0
  -12.6110   -6.9381  -19.4952 C   0  0  0  0  0  0  0  0  0  0  0  0
  -13.3864   -7.7117  -19.4815 H   0  0  0  0  0  0  0  0  0  0  0  0
  -12.7028   -6.3054  -18.6005 H   0  0  0  0  0  0  0  0  0  0  0  0
  -14.8228   -6.7605  -23.6240 Cl  0  0  0  0  0  0  0  0  0  0  0  0
  -14.2270  -10.8721  -20.3204 Cl  0  0  0  0  0  0  0  0  0  0  0  0
  -13.4371   -8.7469  -22.1338 O   0  0  0  0  0  0  0  0  0  0  0  0
  -15.3058   -9.8041  -21.1419 C   0  0  0  0  0  0  0  0  0  0  0  0
  -17.4937   -9.0038  -21.6519 C   0  0  0  0  0  0  0  0  0  0  0  0
  -15.6028   -7.9419  -22.6315 C   0  0  0  0  0  0  0  0  0  0  0  0
  -14.7015   -8.8278  -21.9801 C   0  0  0  0  0  0  0  0  0  0  0  0
  -19.6009   -8.2833  -22.0645 O   0  0  0  0  0  0  0  0  0  0  0  0
  -16.9622   -8.0157  -22.4841 C   0  0  0  0  0  0  0  0  0  0  0  0
  -17.6270   -7.3356  -22.9931 H   0  0  0  0  0  0  0  0  0  0  0  0
  -16.6623   -9.9015  -20.9781 C   0  0  0  0  0  0  0  0  0  0  0  0
  -17.1016  -10.6526  -20.3392 H   0  0  0  0  0  0  0  0  0  0  0  0
  -18.9057   -9.0925  -21.4805 N   0  0  0  0  0  0  0  0  0  0  0  0
  -19.3364   -9.9691  -20.7555 O   0  0  0  0  0  0  0  0  0  0  0  0
  1  5  1  0  0  0  0
  1 51  1  0  0  0  0
  1  6  1  0  0  0  0
  1 33  1  0  0  0  0
  2  1  1  0  0  0  0
  3 14  1  0  0  0  0
  5 15  1  0  0  0  0
  6 17  1  0  0  0  0
  6 24  1  0  0  0  0
  7 29  1  0  0  0  0
  7  4  1  0  0  0  0
  8 19  2  0  0  0  0
  8 22  1  0  0  0  0
  9  8  1  0  0  0  0
 10 16  2  0  0  0  0
 11 12  1  0  0  0  0
 13 31  1  0  0  0  0
 13 29  2  0  0  0  0
 14 27  2  0  0  0  0
 14 15  1  0  0  0  0
 15  7  2  0  0  0  0
 16 11  1  0  0  0  0
 16 17  1  0  0  0  0
 17 18  1  0  0  0  0
 19 10  1  0  0  0  0
 20 19  1  0  0  0  0
 21 31  2  0  0  0  0
 22 11  2  0  0  0  0
 23 22  1  0  0  0  0
 24 25  1  0  0  0  0
 24 26  1  0  0  0  0
 27 13  1  0  0  0  0
 28 27  1  0  0  0  0
 29 30  1  0  0  0  0
 31 32  2  0  0  0  0
 33 40  1  0  0  0  0
 33 46  1  0  0  0  0
 34 42  2  0  0  0  0
 34 44  1  0  0  0  0
 35 34  1  0  0  0  0
 36  1  1  0  0  0  0
 36 39  1  0  0  0  0
 37 38  1  0  0  0  0
 39 37  1  0  0  0  0
 39 40  2  0  0  0  0
 40 41  1  0  0  0  0
 42 36  1  0  0  0  0
 43 42  1  0  0  0  0
 44 37  2  0  0  0  0
 45 44  1  0  0  0  0
 46 24  1  0  0  0  0
 46 47  1  0  0  0  0
 46 48  1  0  0  0  0
 49 54  1  0  0  0  0
 51 55  1  0  0  0  0
 52 59  1  0  0  0  0
 52 50  1  0  0  0  0
 53 61  1  0  0  0  0
 53 59  2  0  0  0  0
 54 57  2  0  0  0  0
 54 55  1  0  0  0  0
 55 52  2  0  0  0  0
 56 61  2  0  0  0  0
 57 53  1  0  0  0  0
 58 57  1  0  0  0  0
 59 60  1  0  0  0  0
 61 62  2  0  0  0  0
M  END
$$$$
