CSD_code = FEKRAP | q = 0 | S = 0 | Stoichiometry = C20H23ClN4Zn | MND = 5
 OpenBabel04212202033D

 49 54  0  0  0  0  0  0  0  0999 V2000
    2.2588    0.1886    9.3240 Zn  0  0  0  0  0  0  0  0  0  0  0  0
    2.2734    0.9069    7.2704 Cl  0  0  0  0  0  0  0  0  0  0  0  0
    1.5608   -1.6526    9.6903 N   0  0  0  0  0  0  0  0  0  0  0  0
    4.0040   -0.2966   10.1779 N   0  0  0  0  0  0  0  0  0  0  0  0
    2.7448    2.0591   10.3811 N   0  0  0  0  0  4  0  0  0  0  0  0
    0.1689    0.6298    9.8622 N   0  0  0  0  0  4  0  0  0  0  0  0
   -0.5033   -0.5488    9.3949 C   0  0  0  0  0  0  0  0  0  0  0  0
   -1.8267   -0.5152    8.9972 C   0  0  0  0  0  0  0  0  0  0  0  0
   -2.4550   -1.6688    8.5570 C   0  0  0  0  0  0  0  0  0  0  0  0
   -1.7459   -2.8573    8.5129 C   0  0  0  0  0  0  0  0  0  0  0  0
   -0.4192   -2.9004    8.8946 C   0  0  0  0  0  0  0  0  0  0  0  0
    0.2285   -1.7478    9.3472 C   0  0  0  0  0  0  0  0  0  0  0  0
    2.2748   -2.6893   10.0642 C   0  0  0  0  0  3  0  0  0  0  0  0
    3.6171   -2.6571   10.4305 C   0  0  0  0  0  0  0  0  0  0  0  0
    4.4020   -1.5090   10.4870 C   0  0  0  0  0  0  0  0  0  0  0  0
    4.8278    0.8057   10.2685 C   0  0  0  0  0  0  0  0  0  0  0  0
    6.2244    0.7890   10.2245 C   0  0  0  0  0  0  0  0  0  0  0  0
    6.9429    1.9681   10.2576 C   0  0  0  0  0  0  0  0  0  0  0  0
    6.2932    3.1892   10.3200 C   0  0  0  0  0  0  0  0  0  0  0  0
    4.9087    3.2246   10.3567 C   0  0  0  0  0  0  0  0  0  0  0  0
    4.1792    2.0507   10.3374 C   0  0  0  0  0  0  0  0  0  0  0  0
    2.2352    2.0297   11.7562 C   0  0  0  0  0  0  0  0  0  0  0  0
    0.7104    2.0808   11.7993 C   0  0  0  0  0  0  0  0  0  0  0  0
    0.0295    0.8048   11.3118 C   0  0  0  0  0  0  0  0  0  0  0  0
    4.2438   -3.9505   10.8984 C   0  0  0  0  0  0  0  0  0  0  0  0
    4.0850   -4.1326   12.4091 C   0  0  0  0  0  0  0  0  0  0  0  0
    2.4193    2.9155    9.9341 H   0  0  0  0  0  0  0  0  0  0  0  0
   -0.2463    1.4366    9.3977 H   0  0  0  0  0  0  0  0  0  0  0  0
   -2.3676    0.4215    9.0200 H   0  0  0  0  0  0  0  0  0  0  0  0
   -3.4867   -1.6366    8.2427 H   0  0  0  0  0  0  0  0  0  0  0  0
   -2.2272   -3.7576    8.1608 H   0  0  0  0  0  0  0  0  0  0  0  0
    0.1289   -3.8258    8.8052 H   0  0  0  0  0  0  0  0  0  0  0  0
    1.7782   -3.6578   10.1516 H   0  0  0  0  0  0  0  0  0  0  0  0
    5.4147   -1.6409   10.8734 H   0  0  0  0  0  0  0  0  0  0  0  0
    6.7484   -0.1493   10.1258 H   0  0  0  0  0  0  0  0  0  0  0  0
    8.0216    1.9345   10.2173 H   0  0  0  0  0  0  0  0  0  0  0  0
    6.8583    4.1084   10.3305 H   0  0  0  0  0  0  0  0  0  0  0  0
    4.3916    4.1743   10.3887 H   0  0  0  0  0  0  0  0  0  0  0  0
    2.5879    1.1065   12.2229 H   0  0  0  0  0  0  0  0  0  0  0  0
    2.6384    2.8774   12.3311 H   0  0  0  0  0  0  0  0  0  0  0  0
    0.4060    2.2538   12.8333 H   0  0  0  0  0  0  0  0  0  0  0  0
    0.3597    2.9284   11.2038 H   0  0  0  0  0  0  0  0  0  0  0  0
   -1.0346    0.8373   11.5919 H   0  0  0  0  0  0  0  0  0  0  0  0
    0.4805   -0.0641   11.7975 H   0  0  0  0  0  0  0  0  0  0  0  0
    3.7771   -4.7937   10.3858 H   0  0  0  0  0  0  0  0  0  0  0  0
    5.3062   -3.9584   10.6471 H   0  0  0  0  0  0  0  0  0  0  0  0
    4.5387   -5.0670   12.7326 H   0  0  0  0  0  0  0  0  0  0  0  0
    4.5627   -3.3131   12.9419 H   0  0  0  0  0  0  0  0  0  0  0  0
    3.0315   -4.1469   12.6801 H   0  0  0  0  0  0  0  0  0  0  0  0
  1  3  1  0  0  0  0
  1  6  1  0  0  0  0
  1  4  1  0  0  0  0
  1  5  1  0  0  0  0
  2  1  1  0  0  0  0
  3 13  1  0  0  0  0
  4 16  1  0  0  0  0
  4 15  1  0  0  0  0
  5 22  1  0  0  0  0
  6 24  1  0  0  0  0
  7  6  1  0  0  0  0
  8 29  1  0  0  0  0
  8  7  2  0  0  0  0
  9  8  1  0  0  0  0
 10  9  2  0  0  0  0
 10 11  1  0  0  0  0
 11 12  2  0  0  0  0
 12  7  1  0  0  0  0
 12  3  1  0  0  0  0
 13 33  1  0  0  0  0
 13 14  1  0  0  0  0
 14 15  2  0  0  0  0
 14 25  1  0  0  0  0
 15 34  1  0  0  0  0
 16 21  1  0  0  0  0
 17 18  1  0  0  0  0
 17 16  2  0  0  0  0
 18 19  2  0  0  0  0
 19 37  1  0  0  0  0
 19 20  1  0  0  0  0
 20 38  1  0  0  0  0
 21 20  2  0  0  0  0
 21  5  1  0  0  0  0
 22 23  1  0  0  0  0
 22 39  1  0  0  0  0
 22 40  1  0  0  0  0
 23 41  1  0  0  0  0
 24 43  1  0  0  0  0
 24 44  1  0  0  0  0
 24 23  1  0  0  0  0
 25 26  1  0  0  0  0
 26 49  1  0  0  0  0
 26 47  1  0  0  0  0
 26 48  1  0  0  0  0
 27  5  1  0  0  0  0
 28  6  1  0  0  0  0
 30  9  1  0  0  0  0
 31 10  1  0  0  0  0
 32 11  1  0  0  0  0
 35 17  1  0  0  0  0
 36 18  1  0  0  0  0
 42 23  1  0  0  0  0
 45 25  1  0  0  0  0
 46 25  1  0  0  0  0
M  END
$$$$
