CSD_code = FELNUH | q = 0 | S = 0 | Stoichiometry = C13H19Cl2NPdSe | MND = 4
 OpenBabel04212202033D

 37 38  0  0  0  0  0  0  0  0999 V2000
    2.0541    5.1149    9.2808 Pd  0  0  0  0  0  0  0  0  0  0  0  0
    3.3012    3.8925   10.8382 Se  0  0  0  0  0  0  0  0  0  0  0  0
    0.7575    6.2188    7.7981 Cl  0  0  0  0  0  0  0  0  0  0  0  0
    0.2770    3.9056    9.9447 Cl  0  0  0  0  0  0  0  0  0  0  0  0
    4.9121    5.0538   10.6998 C   0  0  0  0  0  0  0  0  0  0  0  0
    4.7785    5.8301   11.4569 H   0  0  0  0  0  0  0  0  0  0  0  0
    5.7986    4.4697   10.9532 H   0  0  0  0  0  0  0  0  0  0  0  0
    5.0479    5.6293    9.2970 C   0  0  0  0  0  0  0  0  0  0  0  0
    5.2839    4.8062    8.6117 H   0  0  0  0  0  0  0  0  0  0  0  0
    5.8969    6.3251    9.2901 H   0  0  0  0  0  0  0  0  0  0  0  0
    3.8893    2.5402    9.5802 C   0  0  0  0  0  0  0  0  0  0  0  0
    3.8282    6.2787    8.7912 N   0  0  0  0  0  4  0  0  0  0  0  0
    3.5037    7.5462    9.4731 C   0  0  0  0  0  0  0  0  0  0  0  0
    3.4346    7.3663   10.5546 H   0  0  0  0  0  0  0  0  0  0  0  0
    2.5127    7.8540    9.1093 H   0  0  0  0  0  0  0  0  0  0  0  0
    5.3473    0.7114    9.0547 C   0  0  0  0  0  0  0  0  0  0  0  0
    6.1478    0.0433    9.3354 H   0  0  0  0  0  0  0  0  0  0  0  0
    4.9159    1.6788    9.9447 C   0  0  0  0  0  0  0  0  0  0  0  0
    5.3697    1.7676   10.9221 H   0  0  0  0  0  0  0  0  0  0  0  0
    3.2748    2.4201    8.3384 C   0  0  0  0  0  0  0  0  0  0  0  0
    2.4392    3.0800    8.0601 H   0  0  0  0  0  0  0  0  0  0  0  0
    4.4988    8.6712    9.1807 C   0  0  0  0  0  0  0  0  0  0  0  0
    4.1556    9.5770    9.6822 H   0  0  0  0  0  0  0  0  0  0  0  0
    5.4875    8.4322    9.5798 H   0  0  0  0  0  0  0  0  0  0  0  0
    4.9443    7.5957    6.9727 C   0  0  0  0  0  0  0  0  0  0  0  0
    4.9228    7.7338    5.8913 H   0  0  0  0  0  0  0  0  0  0  0  0
    5.9576    7.2902    7.2444 H   0  0  0  0  0  0  0  0  0  0  0  0
    4.5841    8.9019    7.6747 C   0  0  0  0  0  0  0  0  0  0  0  0
    5.3240    9.6721    7.4500 H   0  0  0  0  0  0  0  0  0  0  0  0
    3.6147    9.2465    7.3101 H   0  0  0  0  0  0  0  0  0  0  0  0
    3.7097    1.4432    7.4579 C   0  0  0  0  0  0  0  0  0  0  0  0
    3.2339    1.3450    6.4939 H   0  0  0  0  0  0  0  0  0  0  0  0
    3.9284    6.5139    7.3420 C   0  0  0  0  0  0  0  0  0  0  0  0
    4.1775    5.5648    6.8540 H   0  0  0  0  0  0  0  0  0  0  0  0
    2.9352    6.8233    6.9981 H   0  0  0  0  0  0  0  0  0  0  0  0
    4.7456    0.5941    7.8121 C   0  0  0  0  0  0  0  0  0  0  0  0
    5.0795   -0.1657    7.1219 H   0  0  0  0  0  0  0  0  0  0  0  0
  1  4  1  0  0  0  0
  3  1  1  0  0  0  0
  5  2  1  0  0  0  0
  5  7  1  0  0  0  0
  5  6  1  0  0  0  0
  8  5  1  0  0  0  0
  9  8  1  0  0  0  0
 10  8  1  0  0  0  0
 11 18  1  0  0  0  0
 11  2  1  0  0  0  0
 12  1  1  0  0  0  0
 12  8  1  0  0  0  0
 12 13  1  0  0  0  0
 13 14  1  0  0  0  0
 15 13  1  0  0  0  0
 16 17  1  0  0  0  0
 16 18  2  0  0  0  0
 18 19  1  0  0  0  0
 20 11  2  0  0  0  0
 21 20  1  0  0  0  0
 22 13  1  0  0  0  0
 22 24  1  0  0  0  0
 22 23  1  0  0  0  0
 25 27  1  0  0  0  0
 25 33  1  0  0  0  0
 25 28  1  0  0  0  0
 26 25  1  0  0  0  0
 28 22  1  0  0  0  0
 29 28  1  0  0  0  0
 30 28  1  0  0  0  0
 31 36  2  0  0  0  0
 31 20  1  0  0  0  0
 32 31  1  0  0  0  0
 33 12  1  0  0  0  0
 34 33  1  0  0  0  0
 35 33  1  0  0  0  0
 36 16  1  0  0  0  0
 37 36  1  0  0  0  0
M  END
$$$$
