CSD_code = FELPET | q = 0 | S = 0 | Stoichiometry = C11H16Cl2N2OPdS | MND = 4
 OpenBabel04212202033D

 34 36  0  0  0  0  0  0  0  0999 V2000
    3.3561    7.5178    0.2919 Pd  0  0  0  0  0  0  0  0  0  0  0  0
    1.8314    8.5460    1.7302 S   0  0  2  0  0  3  0  0  0  0  0  0
    1.5966    6.5846   -0.6836 N   0  0  0  0  0  4  0  0  0  0  0  0
    5.0633    8.7689    1.0222 Cl  0  0  0  0  0  0  0  0  0  0  0  0
    4.8085    6.4025   -0.9793 Cl  0  0  0  0  0  0  0  0  0  0  0  0
    1.0587    6.3119    2.9537 N   0  0  0  0  0  0  0  0  0  0  0  0
    0.8227    5.4404   -3.2339 O   0  0  0  0  0  0  0  0  0  0  0  0
    3.3701    6.8707    3.2830 C   0  0  0  0  0  0  0  0  0  0  0  0
    4.1848    7.5635    3.0995 H   0  0  0  0  0  0  0  0  0  0  0  0
    3.5297    5.7458    4.0720 C   0  0  0  0  0  0  0  0  0  0  0  0
    4.4914    5.5252    4.5095 H   0  0  0  0  0  0  0  0  0  0  0  0
    2.4420    4.9058    4.2907 C   0  0  0  0  0  0  0  0  0  0  0  0
    2.5353    4.0191    4.8965 H   0  0  0  0  0  0  0  0  0  0  0  0
    1.2313    5.2376    3.7128 C   0  0  0  0  0  0  0  0  0  0  0  0
    0.3472    4.6292    3.8507 H   0  0  0  0  0  0  0  0  0  0  0  0
    2.1027    7.0934    2.7347 C   0  0  0  0  0  0  0  0  0  0  0  0
    0.2922    8.0900    0.8532 C   0  0  0  0  0  0  0  0  0  0  0  0
   -0.5038    8.0455    1.5961 H   0  0  0  0  0  0  0  0  0  0  0  0
    0.1092    8.9259    0.1768 H   0  0  0  0  0  0  0  0  0  0  0  0
    0.3798    6.7552    0.1220 C   0  0  0  0  0  0  0  0  0  0  0  0
    0.3692    5.9640    0.8775 H   0  0  0  0  0  0  0  0  0  0  0  0
   -0.5277    6.6554   -0.4870 H   0  0  0  0  0  0  0  0  0  0  0  0
    1.8132    5.1704   -1.0299 C   0  0  0  0  0  0  0  0  0  0  0  0
    1.7724    4.5641   -0.1210 H   0  0  0  0  0  0  0  0  0  0  0  0
    2.8188    5.0935   -1.4593 H   0  0  0  0  0  0  0  0  0  0  0  0
    0.7955    4.6635   -2.0576 C   0  0  0  0  0  0  0  0  0  0  0  0
    1.0547    3.6489   -2.3632 H   0  0  0  0  0  0  0  0  0  0  0  0
   -0.2224    4.6539   -1.6353 H   0  0  0  0  0  0  0  0  0  0  0  0
    0.5785    6.8001   -2.9617 C   0  0  0  0  0  0  0  0  0  0  0  0
   -0.4587    6.9337   -2.6124 H   0  0  0  0  0  0  0  0  0  0  0  0
    0.6903    7.3230   -3.9129 H   0  0  0  0  0  0  0  0  0  0  0  0
    1.5819    7.3595   -1.9432 C   0  0  0  0  0  0  0  0  0  0  0  0
    1.3555    8.4122   -1.7333 H   0  0  0  0  0  0  0  0  0  0  0  0
    2.5891    7.2853   -2.3790 H   0  0  0  0  0  0  0  0  0  0  0  0
  1  4  1  0  0  0  0
  1  2  1  0  0  0  0
  2 16  1  1  0  0  0
  3 20  1  0  0  0  0
  3  1  1  0  0  0  0
  5  1  1  0  0  0  0
  6 14  1  0  0  0  0
  7 29  1  0  0  0  0
  7 26  1  0  0  0  0
  8 10  2  0  0  0  0
  9  8  1  0  0  0  0
 10 12  1  0  0  0  0
 10 11  1  0  0  0  0
 12 13  1  0  0  0  0
 14 15  1  0  0  0  0
 14 12  2  0  0  0  0
 16  6  2  0  0  0  0
 16  8  1  0  0  0  0
 17 18  1  0  0  0  0
 17  2  1  0  0  0  0
 19 17  1  0  0  0  0
 20 17  1  0  0  0  0
 20 21  1  0  0  0  0
 22 20  1  0  0  0  0
 23  3  1  0  0  0  0
 23 24  1  0  0  0  0
 25 23  1  0  0  0  0
 26 28  1  0  0  0  0
 26 23  1  0  0  0  0
 27 26  1  0  0  0  0
 29 30  1  0  0  0  0
 29 32  1  0  0  0  0
 31 29  1  0  0  0  0
 32 33  1  0  0  0  0
 32  3  1  0  0  0  0
 34 32  1  0  0  0  0
M  END
$$$$
