CSD_code = FELQEU | q = 1 | S = 0 | Stoichiometry = C24H28Cl2N8Rh(1+) | MND = 6
 OpenBabel04212202033D

 63 68  0  0  0  0  0  0  0  0999 V2000
    5.5755    3.5079    9.4366 Rh  0  0  0  0  0  0  0  0  0  0  0  0
    6.3074    5.0793    7.9838 Cl  0  0  0  0  0  0  0  0  0  0  0  0
    4.9416    1.5683    7.4642 N   0  0  0  0  0  0  0  0  0  0  0  0
    5.9498    1.9849    8.1419 N   0  0  0  0  0  0  0  0  0  0  0  0
    3.8841    3.4368    8.4025 N   0  0  0  0  0  0  0  0  0  0  0  0
    2.7250    2.3428    6.8674 N   0  0  0  0  0  0  0  0  0  0  0  0
    7.0632    1.1650    8.1843 C   0  0  0  0  0  0  0  0  0  0  0  0
    3.8863    2.3902    7.5548 C   0  0  0  0  0  0  0  0  0  0  0  0
    6.9413   -0.2301    8.1795 C   0  0  0  0  0  0  0  0  0  0  0  0
    5.9562   -0.6672    8.1149 H   0  0  0  0  0  0  0  0  0  0  0  0
    9.4500    0.9465    8.3427 C   0  0  0  0  0  0  0  0  0  0  0  0
   10.4288    1.4013    8.3733 H   0  0  0  0  0  0  0  0  0  0  0  0
    9.3382   -0.4430    8.3831 C   0  0  0  0  0  0  0  0  0  0  0  0
    8.0673   -1.0139    8.2921 C   0  0  0  0  0  0  0  0  0  0  0  0
    7.9695   -2.0891    8.3084 H   0  0  0  0  0  0  0  0  0  0  0  0
    2.7078    4.0732    8.2393 C   0  0  0  0  0  0  0  0  0  0  0  0
    2.4577    4.9580    8.7920 H   0  0  0  0  0  0  0  0  0  0  0  0
   10.5470   -1.3092    8.4890 C   0  0  0  0  0  0  0  0  0  0  0  0
   10.7801   -1.7303    7.5108 H   0  0  0  0  0  0  0  0  0  0  0  0
   10.3734   -2.1405    9.1688 H   0  0  0  0  0  0  0  0  0  0  0  0
   11.4115   -0.7439    8.8257 H   0  0  0  0  0  0  0  0  0  0  0  0
    8.3336    1.7482    8.2498 C   0  0  0  0  0  0  0  0  0  0  0  0
    8.4215    2.8221    8.1701 H   0  0  0  0  0  0  0  0  0  0  0  0
    1.9790    3.3954    7.2898 C   0  0  0  0  0  0  0  0  0  0  0  0
    1.0075    3.6013    6.8891 H   0  0  0  0  0  0  0  0  0  0  0  0
    2.3402    1.3056    5.9414 C   0  0  0  0  0  0  0  0  0  0  0  0
    3.2336    0.9918    5.3979 H   0  0  0  0  0  0  0  0  0  0  0  0
    1.6173    1.7236    5.2386 H   0  0  0  0  0  0  0  0  0  0  0  0
    1.7368    0.1200    6.6890 C   0  0  0  0  0  0  0  0  0  0  0  0
    2.4578   -0.2881    7.3935 H   0  0  0  0  0  0  0  0  0  0  0  0
    1.4620   -0.6549    5.9802 H   0  0  0  0  0  0  0  0  0  0  0  0
    0.8473    0.4230    7.2359 H   0  0  0  0  0  0  0  0  0  0  0  0
    4.8434    5.0793   10.8893 Cl  0  0  0  0  0  0  0  0  0  0  0  0
    6.2093    1.5683   11.4090 N   0  0  0  0  0  0  0  0  0  0  0  0
    5.2011    1.9849   10.7313 N   0  0  0  0  0  0  0  0  0  0  0  0
    7.2668    3.4368   10.4706 N   0  0  0  0  0  0  0  0  0  0  0  0
    8.4259    2.3428   12.0058 N   0  0  0  0  0  0  0  0  0  0  0  0
    4.0877    1.1650   10.6889 C   0  0  0  0  0  0  0  0  0  0  0  0
    7.2646    2.3902   11.3184 C   0  0  0  0  0  0  0  0  0  0  0  0
    4.2096   -0.2301   10.6937 C   0  0  0  0  0  0  0  0  0  0  0  0
    5.1947   -0.6672   10.7582 H   0  0  0  0  0  0  0  0  0  0  0  0
    1.7009    0.9464   10.5305 C   0  0  0  0  0  0  0  0  0  0  0  0
    0.7221    1.4013   10.4998 H   0  0  0  0  0  0  0  0  0  0  0  0
    1.8127   -0.4430   10.4901 C   0  0  0  0  0  0  0  0  0  0  0  0
    3.0836   -1.0139   10.5811 C   0  0  0  0  0  0  0  0  0  0  0  0
    3.1814   -2.0891   10.5647 H   0  0  0  0  0  0  0  0  0  0  0  0
    8.4431    4.0732   10.6339 C   0  0  0  0  0  0  0  0  0  0  0  0
    8.6933    4.9580   10.0812 H   0  0  0  0  0  0  0  0  0  0  0  0
    0.6039   -1.3092   10.3841 C   0  0  0  0  0  0  0  0  0  0  0  0
    0.3708   -1.7303   11.3624 H   0  0  0  0  0  0  0  0  0  0  0  0
    0.7775   -2.1405    9.7044 H   0  0  0  0  0  0  0  0  0  0  0  0
   -0.2606   -0.7439   10.0475 H   0  0  0  0  0  0  0  0  0  0  0  0
    2.8173    1.7482   10.6234 C   0  0  0  0  0  0  0  0  0  0  0  0
    2.7294    2.8221   10.7031 H   0  0  0  0  0  0  0  0  0  0  0  0
    9.1719    3.3954   11.5834 C   0  0  0  0  0  0  0  0  0  0  0  0
   10.1434    3.6013   11.9841 H   0  0  0  0  0  0  0  0  0  0  0  0
    8.8107    1.3056   12.9318 C   0  0  0  0  0  0  0  0  0  0  0  0
    7.9173    0.9918   13.4752 H   0  0  0  0  0  0  0  0  0  0  0  0
    9.5336    1.7236   13.6345 H   0  0  0  0  0  0  0  0  0  0  0  0
    9.4141    0.1200   12.1841 C   0  0  0  0  0  0  0  0  0  0  0  0
    8.6931   -0.2882   11.4796 H   0  0  0  0  0  0  0  0  0  0  0  0
    9.6889   -0.6549   12.8930 H   0  0  0  0  0  0  0  0  0  0  0  0
   10.3036    0.4230   11.6373 H   0  0  0  0  0  0  0  0  0  0  0  0
  1 36  1  0  0  0  0
  1 35  1  0  0  0  0
  1 33  1  0  0  0  0
  2  1  1  0  0  0  0
  3  8  2  0  0  0  0
  3  4  1  0  0  0  0
  4  7  1  0  0  0  0
  4  1  1  0  0  0  0
  5  1  1  0  0  0  0
  6 24  1  0  0  0  0
  6  8  1  0  0  0  0
  7 22  1  0  0  0  0
  8  5  1  0  0  0  0
  9  7  2  0  0  0  0
  9 14  1  0  0  0  0
 10  9  1  0  0  0  0
 11 12  1  0  0  0  0
 11 13  1  0  0  0  0
 13 18  1  0  0  0  0
 14 15  1  0  0  0  0
 14 13  2  0  0  0  0
 16  5  1  0  0  0  0
 16 17  1  0  0  0  0
 18 21  1  0  0  0  0
 18 20  1  0  0  0  0
 19 18  1  0  0  0  0
 22 11  2  0  0  0  0
 23 22  1  0  0  0  0
 24 16  2  0  0  0  0
 25 24  1  0  0  0  0
 26 29  1  0  0  0  0
 26  6  1  0  0  0  0
 27 26  1  0  0  0  0
 28 26  1  0  0  0  0
 29 32  1  0  0  0  0
 29 30  1  0  0  0  0
 31 29  1  0  0  0  0
 35 34  1  0  0  0  0
 36 47  1  0  0  0  0
 36 39  1  0  0  0  0
 37 57  1  0  0  0  0
 38 40  1  0  0  0  0
 38 35  1  0  0  0  0
 39 34  2  0  0  0  0
 39 37  1  0  0  0  0
 40 41  1  0  0  0  0
 42 53  1  0  0  0  0
 43 42  1  0  0  0  0
 44 42  2  0  0  0  0
 44 45  1  0  0  0  0
 45 40  2  0  0  0  0
 46 45  1  0  0  0  0
 47 55  2  0  0  0  0
 48 47  1  0  0  0  0
 49 44  1  0  0  0  0
 49 50  1  0  0  0  0
 51 49  1  0  0  0  0
 52 49  1  0  0  0  0
 53 38  2  0  0  0  0
 53 54  1  0  0  0  0
 55 56  1  0  0  0  0
 55 37  1  0  0  0  0
 57 58  1  0  0  0  0
 57 59  1  0  0  0  0
 60 62  1  0  0  0  0
 60 57  1  0  0  0  0
 61 60  1  0  0  0  0
 63 60  1  0  0  0  0
M  END
$$$$
