CSD_code = FEMZUS | q = 0 | S = 0 | Stoichiometry = C35H21ClCoN5O4 | MND = 6
 OpenBabel04212202033D

 67 75  0  0  1  0  0  0  0  0999 V2000
    3.4153    3.2352    2.3459 Co  0  0  0  0  0  0  0  0  0  0  0  0
    3.3792    1.1240    2.9990 Cl  0  0  0  0  0  0  0  0  0  0  0  0
    3.4675    5.2292    1.6358 N   0  0  0  0  0  4  0  0  0  0  0  0
    4.3268    5.3261    0.5117 C   0  0  1  0  0  3  0  0  0  0  0  0
    3.7295    5.3180   -0.7965 C   0  0  0  0  0  0  0  0  0  0  0  0
    4.5995    4.9281   -1.7353 C   0  0  0  0  0  3  0  0  0  0  0  0
    5.8884    4.7443   -1.6354 C   0  0  1  0  0  3  0  0  0  0  0  0
    6.6829    5.2797   -0.3126 C   0  0  1  0  0  0  0  0  0  0  0  0
    5.6886    5.4714    0.6825 C   0  0  0  0  0  3  0  0  0  0  0  0
    6.9997    4.1056   -1.2386 C   0  0  0  0  0  2  0  0  0  0  0  0
    1.3565    3.4540    0.6036 O   0  0  0  0  0  1  0  0  0  0  0  0
    2.4540    2.8607    0.7405 N   0  0  0  0  0  0  0  0  0  0  0  0
    3.0957    2.2067   -0.1965 C   0  0  2  0  0  3  0  0  0  0  0  0
    4.4710    1.9428    0.1510 C   0  0  2  0  0  3  0  0  0  0  0  0
    4.8784    2.5968    1.2058 N   0  0  0  0  0  0  0  0  0  0  0  0
    6.0483    2.6184    1.6445 O   0  0  0  0  0  1  0  0  0  0  0  0
    5.5285    4.4198    3.6896 O   0  0  0  0  0  1  0  0  0  0  0  0
    4.4095    3.8763    3.8599 N   0  0  0  0  0  0  0  0  0  0  0  0
    3.8225    3.6488    5.0091 C   0  0  0  0  0  0  0  0  0  0  0  0
    2.4368    3.2838    4.8595 C   0  0  0  0  0  0  0  0  0  0  0  0
    2.0423    3.2724    3.5460 N   0  0  0  0  0  0  0  0  0  0  0  0
    0.8687    3.1257    3.2201 O   0  0  0  0  0  1  0  0  0  0  0  0
    2.5104    1.9899   -1.5243 C   0  0  0  0  0  0  0  0  0  0  0  0
    3.3369    2.1624   -2.6696 C   0  0  0  0  0  0  0  0  0  0  0  0
    2.5970    1.9492   -3.7841 C   0  0  0  0  0  3  0  0  0  0  0  0
    1.3638    1.6503   -3.8647 C   0  0  0  0  0  3  0  0  0  0  0  0
    0.4797    1.4918   -2.8420 C   0  0  0  0  0  0  0  0  0  0  0  0
    1.1477    1.6808   -1.6237 C   0  0  0  0  0  0  0  0  0  0  0  0
    5.3849    1.0423   -0.5639 C   0  0  0  0  0  0  0  0  0  0  0  0
    4.8749   -0.0145   -1.3145 C   0  0  0  0  0  0  0  0  0  0  0  0
    5.7623   -0.8854   -1.9490 C   0  0  0  0  0  0  0  0  0  0  0  0
    7.0783   -0.6251   -1.7871 C   0  0  0  0  0  3  0  0  0  0  0  0
    7.6672    0.3496   -1.0689 C   0  0  0  0  0  0  0  0  0  0  0  0
    6.7585    1.1954   -0.4220 C   0  0  0  0  0  0  0  0  0  0  0  0
    4.4512    3.5924    6.3167 C   0  0  0  0  0  0  0  0  0  0  0  0
    3.6453    3.4276    7.4549 C   0  0  0  0  0  0  0  0  0  0  0  0
    4.2590    3.2326    8.6801 C   0  0  0  0  0  0  0  0  0  0  0  0
    5.6411    3.2133    8.7913 C   0  0  0  0  0  0  0  0  0  0  0  0
    6.4326    3.3983    7.6722 C   0  0  0  0  0  0  0  0  0  0  0  0
    5.8400    3.5813    6.4392 C   0  0  0  0  0  0  0  0  0  0  0  0
    1.6286    3.0496    5.9677 C   0  0  2  0  0  3  0  0  0  0  0  0
    0.3808    2.3989    5.8919 C   0  0  0  0  0  0  0  0  0  0  0  0
   -0.3202    2.0709    7.0129 C   0  0  0  0  0  0  0  0  0  0  0  0
    0.1679    2.4105    8.3066 C   0  0  0  0  0  0  0  0  0  0  0  0
    1.3225    3.0805    8.4542 C   0  0  0  0  0  0  0  0  0  0  0  0
    2.1330    3.5509    7.2969 C   0  0  1  0  0  0  0  0  0  0  0  0
    2.5069    5.4824    1.3945 H   0  0  0  0  0  0  0  0  0  0  0  0
    3.8173    5.7967    2.4062 H   0  0  0  0  0  0  0  0  0  0  0  0
    2.6713    5.4622   -0.9326 H   0  0  0  0  0  0  0  0  0  0  0  0
    7.5571    5.9255   -0.2173 H   0  0  0  0  0  0  0  0  0  0  0  0
    4.3748    2.4403   -2.6065 H   0  0  0  0  0  0  0  0  0  0  0  0
   -0.5696    1.2587   -2.9079 H   0  0  0  0  0  0  0  0  0  0  0  0
    0.5755    1.5920   -0.7124 H   0  0  0  0  0  0  0  0  0  0  0  0
    3.8143   -0.1927   -1.3953 H   0  0  0  0  0  0  0  0  0  0  0  0
    5.3851   -1.7178   -2.5194 H   0  0  0  0  0  0  0  0  0  0  0  0
    8.7274    0.4980   -0.9700 H   0  0  0  0  0  0  0  0  0  0  0  0
    7.1486    1.9765    0.2262 H   0  0  0  0  0  0  0  0  0  0  0  0
    6.0472    5.7829    1.6542 H   0  0  0  0  0  0  0  0  0  0  0  0
    3.6743    3.0896    9.5745 H   0  0  0  0  0  0  0  0  0  0  0  0
    6.0931    3.0596    9.7597 H   0  0  0  0  0  0  0  0  0  0  0  0
    7.5084    3.3929    7.7577 H   0  0  0  0  0  0  0  0  0  0  0  0
    6.4422    3.7079    5.5522 H   0  0  0  0  0  0  0  0  0  0  0  0
    0.0175    2.1095    4.9178 H   0  0  0  0  0  0  0  0  0  0  0  0
   -1.2476    1.5256    6.9313 H   0  0  0  0  0  0  0  0  0  0  0  0
   -0.4056    2.1113    9.1713 H   0  0  0  0  0  0  0  0  0  0  0  0
    1.6664    3.3568    9.4382 H   0  0  0  0  0  0  0  0  0  0  0  0
    1.9591    4.6473    7.2592 H   0  0  0  0  0  0  0  0  0  0  0  0
  1  2  1  0  0  0  0
  1 21  1  0  0  0  0
  1 18  1  0  0  0  0
  3  1  1  0  0  0  0
  3 48  1  0  0  0  0
  4  9  1  0  0  0  0
  4  3  1  1  0  0  0
  5  4  1  0  0  0  0
  6  5  2  0  0  0  0
  7  6  1  1  0  0  0
  7 10  1  0  0  0  0
  7  8  1  0  0  0  0
  8 50  1  6  0  0  0
  8  9  1  0  0  0  0
  9 58  1  0  0  0  0
 10  8  1  0  0  0  0
 11 12  1  0  0  0  0
 12  1  1  0  0  0  0
 13 23  1  6  0  0  0
 13 14  1  0  0  0  0
 13 12  1  0  0  0  0
 14 29  1  6  0  0  0
 14 15  1  0  0  0  0
 15 16  1  0  0  0  0
 15  1  1  0  0  0  0
 17 18  1  0  0  0  0
 18 19  1  0  0  0  0
 19 35  1  0  0  0  0
 20 19  2  0  0  0  0
 21 20  1  0  0  0  0
 22 21  1  0  0  0  0
 24 51  1  0  0  0  0
 24 23  2  0  0  0  0
 25 24  1  0  0  0  0
 26 25  2  0  0  0  0
 26 27  1  0  0  0  0
 27 28  2  0  0  0  0
 28 23  1  0  0  0  0
 28 53  1  0  0  0  0
 29 34  1  0  0  0  0
 30 29  2  0  0  0  0
 31 32  2  0  0  0  0
 31 30  1  0  0  0  0
 32 33  1  0  0  0  0
 33 56  1  0  0  0  0
 33 34  2  0  0  0  0
 34 57  1  0  0  0  0
 35 40  2  0  0  0  0
 35 36  1  0  0  0  0
 36 37  2  0  0  0  0
 37 38  1  0  0  0  0
 37 59  1  0  0  0  0
 38 60  1  0  0  0  0
 39 61  1  0  0  0  0
 39 38  2  0  0  0  0
 40 39  1  0  0  0  0
 41 20  1  6  0  0  0
 41 46  1  0  0  0  0
 42 41  1  0  0  0  0
 42 43  2  0  0  0  0
 43 44  1  0  0  0  0
 44 45  2  0  0  0  0
 44 65  1  0  0  0  0
 45 66  1  0  0  0  0
 46 67  1  6  0  0  0
 46 36  1  0  0  0  0
 46 45  1  0  0  0  0
 47  3  1  0  0  0  0
 49  5  1  0  0  0  0
 52 27  1  0  0  0  0
 54 30  1  0  0  0  0
 55 31  1  0  0  0  0
 62 40  1  0  0  0  0
 63 42  1  0  0  0  0
 64 43  1  0  0  0  0
M  END
$$$$
