CSD_code = FENZON | q = 0 | S = 0 | Stoichiometry = C12H25Cl3O7Ti | MND = 6
 OpenBabel04212202033D

 48 46  0  0  0  0  0  0  0  0999 V2000
    4.9611    3.7686   14.5336 Ti  0  0  0  0  0  0  0  0  0  0  0  0
    6.7949    5.0681   14.2479 Cl  0  0  0  0  0  0  0  0  0  0  0  0
    3.7465    4.9631   13.1068 Cl  0  0  0  0  0  0  0  0  0  0  0  0
    4.2476    5.0691   16.2069 Cl  0  0  0  0  0  0  0  0  0  0  0  0
    5.5210    2.5890   13.1915 O   0  0  0  0  0  0  0  0  0  0  0  0
    6.1450    2.6292   15.7090 O   0  0  0  0  0  0  0  0  0  0  0  0
    4.2892    2.4060   17.5286 O   0  0  0  0  0  0  0  0  0  0  0  0
    1.5745    2.7637   16.7548 O   0  0  0  0  0  0  0  0  0  0  0  0
    1.2158    3.1275   13.8976 O   0  0  0  0  0  0  0  0  0  0  0  0
    2.8901    1.5653   12.3581 O   0  0  0  0  0  0  0  0  0  0  0  0
    3.5807    2.3599   14.9130 O   0  0  0  0  0  0  0  0  0  0  0  0
    6.1729    1.3933   13.7204 C   0  0  0  0  0  3  0  0  0  0  0  0
    7.0233    1.8672   14.8786 C   0  0  0  0  0  0  0  0  0  0  0  0
    6.5315    2.8122   17.0591 C   0  0  0  0  0  0  0  0  0  0  0  0
    5.5699    1.9993   17.9366 C   0  0  0  0  0  0  0  0  0  0  0  0
    3.2114    2.1318   18.3884 C   0  0  0  0  0  0  0  0  0  0  0  0
    2.0995    3.1131   18.0250 C   0  0  0  0  0  0  0  0  0  0  0  0
    0.8497    3.8211   16.1433 C   0  0  0  0  0  0  0  0  0  0  0  0
    0.2089    3.2954   14.8646 C   0  0  0  0  0  0  0  0  0  0  0  0
    0.7687    2.5677   12.6871 C   0  0  0  0  0  0  0  0  0  0  0  0
    1.9713    2.4665   11.7557 C   0  0  0  0  0  0  0  0  0  0  0  0
    4.0924    1.3451   11.6530 C   0  0  0  0  0  0  0  0  0  0  0  0
    5.1437    2.4544   11.8403 C   0  0  0  0  0  0  0  0  0  0  0  0
    6.8285    0.9732   12.9415 H   0  0  0  0  0  0  0  0  0  0  0  0
    7.4169    0.9971   15.4199 H   0  0  0  0  0  0  0  0  0  0  0  0
    7.8674    2.5335   14.5924 H   0  0  0  0  0  0  0  0  0  0  0  0
    6.4135    3.8781   17.2952 H   0  0  0  0  0  0  0  0  0  0  0  0
    7.5715    2.5091   17.2146 H   0  0  0  0  0  0  0  0  0  0  0  0
    5.7419    2.2193   19.0001 H   0  0  0  0  0  0  0  0  0  0  0  0
    5.7066    0.9196   17.7639 H   0  0  0  0  0  0  0  0  0  0  0  0
    2.8640    1.0957   18.2610 H   0  0  0  0  0  0  0  0  0  0  0  0
    3.4982    2.2875   19.4376 H   0  0  0  0  0  0  0  0  0  0  0  0
    2.5358    4.1178   17.9791 H   0  0  0  0  0  0  0  0  0  0  0  0
    1.3002    3.0840   18.7780 H   0  0  0  0  0  0  0  0  0  0  0  0
    0.0671    4.1776   16.8250 H   0  0  0  0  0  0  0  0  0  0  0  0
    1.5307    4.6485   15.9001 H   0  0  0  0  0  0  0  0  0  0  0  0
   -0.5467    4.0125   14.5119 H   0  0  0  0  0  0  0  0  0  0  0  0
   -0.2853    2.3331   15.0701 H   0  0  0  0  0  0  0  0  0  0  0  0
    0.3464    1.5667   12.8678 H   0  0  0  0  0  0  0  0  0  0  0  0
   -0.0022    3.2002   12.2245 H   0  0  0  0  0  0  0  0  0  0  0  0
    2.4147    3.4624   11.6510 H   0  0  0  0  0  0  0  0  0  0  0  0
    1.6587    2.0830   10.7753 H   0  0  0  0  0  0  0  0  0  0  0  0
    4.4926    0.4176   12.0735 H   0  0  0  0  0  0  0  0  0  0  0  0
    3.8919    1.2155   10.5817 H   0  0  0  0  0  0  0  0  0  0  0  0
    4.7514    3.4258   11.5197 H   0  0  0  0  0  0  0  0  0  0  0  0
    6.0265    2.1974   11.2364 H   0  0  0  0  0  0  0  0  0  0  0  0
    3.0935    2.0608   14.1154 H   0  0  0  0  0  0  0  0  0  0  0  0
    2.9145    2.4928   15.6270 H   0  0  0  0  0  0  0  0  0  0  0  0
  1  4  1  0  0  0  0
  2  1  1  0  0  0  0
  3  1  1  0  0  0  0
  5 12  1  0  0  0  0
  6 14  1  0  0  0  0
  7 15  1  0  0  0  0
  7 16  1  0  0  0  0
  8 17  1  0  0  0  0
  9 19  1  0  0  0  0
 11 48  1  0  0  0  0
 12 13  1  0  0  0  0
 13 25  1  0  0  0  0
 13  6  1  0  0  0  0
 14 28  1  0  0  0  0
 14 27  1  0  0  0  0
 14 15  1  0  0  0  0
 15 29  1  0  0  0  0
 16 32  1  0  0  0  0
 17 16  1  0  0  0  0
 17 34  1  0  0  0  0
 18  8  1  0  0  0  0
 18 35  1  0  0  0  0
 19 38  1  0  0  0  0
 19 18  1  0  0  0  0
 20 39  1  0  0  0  0
 20  9  1  0  0  0  0
 21 10  1  0  0  0  0
 21 20  1  0  0  0  0
 22 23  1  0  0  0  0
 22 43  1  0  0  0  0
 22 10  1  0  0  0  0
 23  5  1  0  0  0  0
 24 12  1  0  0  0  0
 26 13  1  0  0  0  0
 30 15  1  0  0  0  0
 31 16  1  0  0  0  0
 33 17  1  0  0  0  0
 36 18  1  0  0  0  0
 37 19  1  0  0  0  0
 40 20  1  0  0  0  0
 41 21  1  0  0  0  0
 42 21  1  0  0  0  0
 44 22  1  0  0  0  0
 45 23  1  0  0  0  0
 46 23  1  0  0  0  0
 47 11  1  0  0  0  0
M  END
$$$$
