CSD_code = FEPNOE | q = 0 | S = 0 | Stoichiometry = C13H15BrNO4P2Re | MND = 6
 OpenBabel04212202033D

 37 38  0  0  0  0  0  0  0  0999 V2000
    1.7419    3.8178    2.7101 Re  0  0  0  0  0  0  0  0  0  0  0  0
   -0.5099    3.4864    3.8950 Br  0  0  0  0  0  0  0  0  0  0  0  0
    0.4212    5.4915    1.5824 P   0  0  0  0  0  4  0  0  0  0  0  0
    0.8750    6.2767    0.5293 H   0  0  0  0  0  0  0  0  0  0  0  0
   -0.6560    4.9579    0.8737 H   0  0  0  0  0  0  0  0  0  0  0  0
    1.9292    5.4972    4.4322 P   0  0  0  0  0  4  0  0  0  0  0  0
    1.8962    4.9591    5.7207 H   0  0  0  0  0  0  0  0  0  0  0  0
    3.0579    6.2730    4.6617 H   0  0  0  0  0  0  0  0  0  0  0  0
    2.2231    7.0638    2.4809 O   0  0  0  0  0  0  0  0  0  0  0  0
    3.0648    1.7038    4.5466 O   0  0  0  0  0  1  0  0  0  0  0  0
    0.9665    1.6945    0.5929 O   0  0  0  0  0  1  0  0  0  0  0  0
    4.3513    4.7231    1.3289 O   0  0  0  0  0  1  0  0  0  0  0  0
    1.7048    9.2762    2.6794 N   0  0  0  0  0  0  0  0  0  0  0  0
    0.9999    9.9176    3.0216 H   0  0  0  0  0  0  0  0  0  0  0  0
   -0.5986    6.7184    2.5100 C   0  0  0  0  0  0  0  0  0  0  0  0
   -1.0739    7.3676    1.7657 H   0  0  0  0  0  0  0  0  0  0  0  0
   -1.3833    6.1500    3.0222 H   0  0  0  0  0  0  0  0  0  0  0  0
    0.1888    7.5566    3.5255 C   0  0  0  0  0  0  0  0  0  0  0  0
   -0.4119    8.4168    3.8411 H   0  0  0  0  0  0  0  0  0  0  0  0
    0.5864    6.7227    4.7495 C   0  0  0  0  0  0  0  0  0  0  0  0
   -0.2770    6.1532    5.1116 H   0  0  0  0  0  0  0  0  0  0  0  0
    0.9329    7.3746    5.5596 H   0  0  0  0  0  0  0  0  0  0  0  0
    1.4749    7.9695    2.8435 C   0  0  0  0  0  0  0  0  0  0  0  0
    2.8138    9.9080    2.0796 C   0  0  0  0  0  0  0  0  0  0  0  0
    3.8961    9.2047    1.5644 C   0  0  0  0  0  0  0  0  0  0  0  0
    3.9173    8.1289    1.6081 H   0  0  0  0  0  0  0  0  0  0  0  0
    4.9482    9.8993    0.9931 C   0  0  0  0  0  0  0  0  0  0  0  0
    5.7864    9.3486    0.5949 H   0  0  0  0  0  0  0  0  0  0  0  0
    4.9321   11.2818    0.9300 C   0  0  0  0  0  0  0  0  0  0  0  0
    5.7567   11.8147    0.4825 H   0  0  0  0  0  0  0  0  0  0  0  0
    3.8518   11.9804    1.4441 C   0  0  0  0  0  0  0  0  0  0  0  0
    3.8298   13.0586    1.3995 H   0  0  0  0  0  0  0  0  0  0  0  0
    2.7958   11.2986    2.0176 C   0  0  0  0  0  0  0  0  0  0  0  0
    1.9528   11.8441    2.4194 H   0  0  0  0  0  0  0  0  0  0  0  0
    2.6014    2.4753    3.8416 C   0  0  0  0  0  2  0  0  0  0  0  0
    1.2910    2.4702    1.3674 C   0  0  0  0  0  2  0  0  0  0  0  0
    3.3942    4.3572    1.8348 C   0  0  0  0  0  2  0  0  0  0  0  0
  1 35  1  0  0  0  0
  1  2  1  0  0  0  0
  1  6  1  0  0  0  0
  3 15  1  0  0  0  0
  3  1  1  0  0  0  0
  4  3  1  0  0  0  0
  5  3  1  0  0  0  0
  6  8  1  0  0  0  0
  6 20  1  0  0  0  0
  6  7  1  0  0  0  0
  9 23  2  0  0  0  0
 11 36  1  0  0  0  0
 12 37  1  0  0  0  0
 13 23  1  0  0  0  0
 13 14  1  0  0  0  0
 15 17  1  0  0  0  0
 15 18  1  0  0  0  0
 16 15  1  0  0  0  0
 18 19  1  0  0  0  0
 18 20  1  0  0  0  0
 20 21  1  0  0  0  0
 20 22  1  0  0  0  0
 23 18  1  0  0  0  0
 24 13  1  0  0  0  0
 25 26  1  0  0  0  0
 25 24  2  0  0  0  0
 27 25  1  0  0  0  0
 28 27  1  0  0  0  0
 29 27  2  0  0  0  0
 29 31  1  0  0  0  0
 30 29  1  0  0  0  0
 31 33  2  0  0  0  0
 32 31  1  0  0  0  0
 33 24  1  0  0  0  0
 33 34  1  0  0  0  0
 35 10  1  0  0  0  0
 36  1  1  0  0  0  0
 37  1  1  0  0  0  0
M  END
$$$$
