CSD_code = FEPREX | q = 0 | S = 0 | Stoichiometry = C12H20ClCoN6O4 | MND = 6
 OpenBabel04212202033D

 44 46  0  0  0  0  0  0  0  0999 V2000
    9.3634    6.1326    8.3921 Co  0  0  0  0  0  0  0  0  0  0  0  0
    9.6166    8.2730    8.1045 Cl  0  0  0  0  0  0  0  0  0  0  0  0
   10.7489    5.6480    5.8997 O   0  0  0  0  0  0  0  0  0  0  0  0
   11.4525    5.6500    6.6609 H   0  0  0  0  0  0  0  0  0  0  0  0
    9.1509    4.2151    8.6368 N   0  0  0  0  0  0  0  0  0  0  0  0
    7.9878    6.6627   10.8762 O   0  0  0  0  0  0  0  0  0  0  0  0
    7.2763    6.6171   10.1219 H   0  0  0  0  0  0  0  0  0  0  0  0
   12.1011    5.6133    8.0428 O   0  0  0  0  0  1  0  0  0  0  0  0
    7.3253    6.3268    6.6276 C   0  0  0  0  0  0  0  0  0  0  0  0
   11.1912    5.9965    8.8692 N   0  0  0  0  0  0  0  0  0  0  0  0
    6.5992    6.4049    8.7750 O   0  0  0  0  0  1  0  0  0  0  0  0
    9.1659    6.4686   10.2383 N   0  0  0  0  0  0  0  0  0  0  0  0
    9.5771    5.9182    6.5287 N   0  0  0  0  0  0  0  0  0  0  0  0
    7.5426    6.3107    7.9097 N   0  0  0  0  0  0  0  0  0  0  0  0
    9.5565    2.0639    8.5591 N   0  0  0  0  0  0  0  0  0  0  0  0
    8.5070    6.1151    5.8341 C   0  0  0  0  0  0  0  0  0  0  0  0
   10.2744    6.5944   10.8876 C   0  0  0  0  0  0  0  0  0  0  0  0
   10.0013    3.2881    8.2431 C   0  0  0  0  0  3  0  0  0  0  0  0
   10.9354    3.4766    7.7489 H   0  0  0  0  0  0  0  0  0  0  0  0
   12.8300    6.3176   10.6753 C   0  0  0  0  0  0  0  0  0  0  0  0
   13.5321    6.0601    9.8854 H   0  0  0  0  0  0  0  0  0  0  0  0
   12.9246    5.6004   11.4898 H   0  0  0  0  0  0  0  0  0  0  0  0
   13.0710    7.3080   11.0571 H   0  0  0  0  0  0  0  0  0  0  0  0
    8.3544    2.2231    9.1843 C   0  0  0  0  0  0  0  0  0  0  0  0
    7.7810    1.3932    9.5413 H   0  0  0  0  0  0  0  0  0  0  0  0
    8.4716    6.1040    4.3432 C   0  0  0  0  0  0  0  0  0  0  0  0
    9.4715    5.9298    3.9552 H   0  0  0  0  0  0  0  0  0  0  0  0
    8.1065    7.0626    3.9793 H   0  0  0  0  0  0  0  0  0  0  0  0
    7.8004    5.3254    3.9846 H   0  0  0  0  0  0  0  0  0  0  0  0
   10.3533    6.9805   12.3259 C   0  0  0  0  0  0  0  0  0  0  0  0
    9.3529    7.1569   12.7114 H   0  0  0  0  0  0  0  0  0  0  0  0
   10.9443    7.8886   12.4290 H   0  0  0  0  0  0  0  0  0  0  0  0
   10.8330    6.1934   12.9056 H   0  0  0  0  0  0  0  0  0  0  0  0
    5.9681    6.5218    6.0319 C   0  0  0  0  0  0  0  0  0  0  0  0
    5.2523    6.6534    6.8403 H   0  0  0  0  0  0  0  0  0  0  0  0
    5.6780    5.6607    5.4312 H   0  0  0  0  0  0  0  0  0  0  0  0
    5.9555    7.4064    5.3976 H   0  0  0  0  0  0  0  0  0  0  0  0
   11.4480    6.3019   10.1057 C   0  0  0  0  0  0  0  0  0  0  0  0
   10.2065    0.8158    8.2745 C   0  0  0  0  0  0  0  0  0  0  0  0
   10.2327    0.1943    9.1703 H   0  0  0  0  0  0  0  0  0  0  0  0
   11.2247    1.0069    7.9411 H   0  0  0  0  0  0  0  0  0  0  0  0
    9.6713    0.2766    7.4898 H   0  0  0  0  0  0  0  0  0  0  0  0
    8.1128    3.5632    9.2291 C   0  0  0  0  0  0  0  0  0  0  0  0
    7.2714    4.0883    9.6357 H   0  0  0  0  0  0  0  0  0  0  0  0
  1  5  1  0  0  0  0
  1 10  1  0  0  0  0
  1 12  1  0  0  0  0
  2  1  1  0  0  0  0
  3 13  1  0  0  0  0
  3  4  1  0  0  0  0
  5 43  1  0  0  0  0
  7  6  1  0  0  0  0
  8 10  1  0  0  0  0
  9 14  1  0  0  0  0
 10 38  1  0  0  0  0
 12  6  1  0  0  0  0
 12 17  1  0  0  0  0
 13  1  1  0  0  0  0
 14  1  1  0  0  0  0
 14 11  1  0  0  0  0
 15 24  1  0  0  0  0
 16 13  1  0  0  0  0
 16  9  2  0  0  0  0
 17 30  1  0  0  0  0
 18 15  1  0  0  0  0
 18  5  1  0  0  0  0
 19 18  1  0  0  0  0
 20 23  1  0  0  0  0
 20 22  1  0  0  0  0
 21 20  1  0  0  0  0
 24 43  2  0  0  0  0
 24 25  1  0  0  0  0
 26 16  1  0  0  0  0
 27 26  1  0  0  0  0
 28 26  1  0  0  0  0
 29 26  1  0  0  0  0
 30 32  1  0  0  0  0
 30 31  1  0  0  0  0
 30 33  1  0  0  0  0
 34  9  1  0  0  0  0
 34 35  1  0  0  0  0
 36 34  1  0  0  0  0
 37 34  1  0  0  0  0
 38 20  1  0  0  0  0
 38 17  2  0  0  0  0
 39 15  1  0  0  0  0
 39 40  1  0  0  0  0
 41 39  1  0  0  0  0
 42 39  1  0  0  0  0
 43 44  1  0  0  0  0
M  END
$$$$
