CSD_code = FEPZIK | q = 0 | S = 0 | Stoichiometry = C18H23ClN2Ni | MND = 7
 OpenBabel04212202033D

 45 47  0  0  1  0  0  0  0  0999 V2000
    6.2177    3.5730    3.2177 Ni  0  0  0  0  0  0  0  0  0  0  0  0
    5.9586    5.2152    1.9527 Cl  0  0  0  0  0 15  0  0  0  0  0  0
    7.0972    2.0075    0.9045 N   0  0  0  0  0  0  0  0  0  0  0  0
    8.6907    3.1738    1.7589 N   0  0  0  0  0  0  0  0  0  0  0  0
    5.0363    4.1815    4.7848 C   0  0  1  0  0  0  0  0  0  0  0  0
    4.8128    2.8147    4.5312 C   0  0  0  0  0  3  0  0  0  0  0  0
    6.0438    2.1390    4.6677 C   0  0  2  0  0  0  0  0  0  0  0  0
    6.9784    3.0399    5.3230 C   0  0  0  0  0  0  0  0  0  0  0  0
    6.3494    4.3223    5.3868 C   0  0  0  0  0  0  0  0  0  0  0  0
    8.2401    2.8493    5.8770 C   0  0  0  0  0  0  0  0  0  0  0  0
    8.8650    3.9251    6.4811 C   0  0  0  0  0  0  0  0  0  0  0  0
    8.2592    5.1789    6.5296 C   0  0  0  0  0  0  0  0  0  0  0  0
    7.0060    5.3938    5.9853 C   0  0  0  0  0  0  0  0  0  0  0  0
    7.4059    2.8121    1.9403 C   0  0  1  0  0  3  0  0  0  0  0  0
    8.1821    1.8592    0.0866 C   0  0  0  0  0  0  0  0  0  0  0  0
    9.1849    2.5918    0.6260 C   0  0  0  0  0  0  0  0  0  0  0  0
    5.7612    1.4976    0.6594 C   0  0  0  0  0  0  0  0  0  0  0  0
    5.7843   -0.0101    0.4350 C   0  0  0  0  0  0  0  0  0  0  0  0
    5.1367    2.2552   -0.5094 C   0  0  0  0  0  0  0  0  0  0  0  0
    9.3872    4.1356    2.5949 C   0  0  0  0  0  0  0  0  0  0  0  0
   10.6590    3.5275    3.1743 C   0  0  0  0  0  0  0  0  0  0  0  0
    9.6554    5.4071    1.7956 C   0  0  0  0  0  0  0  0  0  0  0  0
    4.2732    4.9466    4.8141 H   0  0  0  0  0  0  0  0  0  0  0  0
    3.8683    2.3678    4.2553 H   0  0  0  0  0  0  0  0  0  0  0  0
    6.1769    1.0671    4.6221 H   0  0  0  0  0  0  0  0  0  0  0  0
    8.7143    1.8778    5.8442 H   0  0  0  0  0  0  0  0  0  0  0  0
    9.8386    3.7914    6.9305 H   0  0  0  0  0  0  0  0  0  0  0  0
    8.7769    5.9958    7.0112 H   0  0  0  0  0  0  0  0  0  0  0  0
    6.5411    6.3682    6.0295 H   0  0  0  0  0  0  0  0  0  0  0  0
    8.1660    1.2592   -0.7990 H   0  0  0  0  0  0  0  0  0  0  0  0
   10.1902    2.7353    0.2893 H   0  0  0  0  0  0  0  0  0  0  0  0
    5.1892    1.7307    1.5742 H   0  0  0  0  0  0  0  0  0  0  0  0
    4.7672   -0.3881    0.3834 H   0  0  0  0  0  0  0  0  0  0  0  0
    6.2870   -0.2574   -0.4970 H   0  0  0  0  0  0  0  0  0  0  0  0
    6.2984   -0.5091    1.2533 H   0  0  0  0  0  0  0  0  0  0  0  0
    5.1419    3.3211   -0.2918 H   0  0  0  0  0  0  0  0  0  0  0  0
    5.6938    2.0786   -1.4266 H   0  0  0  0  0  0  0  0  0  0  0  0
    4.1100    1.9328   -0.6560 H   0  0  0  0  0  0  0  0  0  0  0  0
    8.6903    4.3785    3.4137 H   0  0  0  0  0  0  0  0  0  0  0  0
   10.4306    2.6033    3.6993 H   0  0  0  0  0  0  0  0  0  0  0  0
   11.3842    3.3185    2.3909 H   0  0  0  0  0  0  0  0  0  0  0  0
   11.1043    4.2223    3.8802 H   0  0  0  0  0  0  0  0  0  0  0  0
   10.1097    6.1551    2.4387 H   0  0  0  0  0  0  0  0  0  0  0  0
   10.3236    5.2109    0.9601 H   0  0  0  0  0  0  0  0  0  0  0  0
    8.7141    5.7991    1.4168 H   0  0  0  0  0  0  0  0  0  0  0  0
  1  7  1  0  0  0  0
  1  5  1  0  0  0  0
  3 14  1  0  0  0  0
  4 14  1  0  0  0  0
  4 20  1  0  0  0  0
  5 23  1  6  0  0  0
  5  9  1  0  0  0  0
  6  7  1  0  0  0  0
  6  5  1  0  0  0  0
  7 25  1  6  0  0  0
  7  8  1  0  0  0  0
  8  9  2  0  0  0  0
  8 10  1  0  0  0  0
  9 13  1  0  0  0  0
 10 11  2  0  0  0  0
 11 12  1  0  0  0  0
 11 27  1  0  0  0  0
 12 28  1  0  0  0  0
 13 29  1  0  0  0  0
 13 12  2  0  0  0  0
 14  1  1  6  0  0  0
 15 16  2  0  0  0  0
 15  3  1  0  0  0  0
 16  4  1  0  0  0  0
 17  3  1  0  0  0  0
 17 32  1  0  0  0  0
 18 17  1  0  0  0  0
 18 35  1  0  0  0  0
 19 36  1  0  0  0  0
 19 17  1  0  0  0  0
 20 21  1  0  0  0  0
 20 39  1  0  0  0  0
 21 40  1  0  0  0  0
 21 42  1  0  0  0  0
 22 43  1  0  0  0  0
 22 20  1  0  0  0  0
 24  6  1  0  0  0  0
 26 10  1  0  0  0  0
 30 15  1  0  0  0  0
 31 16  1  0  0  0  0
 33 18  1  0  0  0  0
 34 18  1  0  0  0  0
 37 19  1  0  0  0  0
 38 19  1  0  0  0  0
 41 21  1  0  0  0  0
 44 22  1  0  0  0  0
 45 22  1  0  0  0  0
M  END
$$$$
