CSD_code = FEQCEM | q = 0 | S = 0 | Stoichiometry = C28H28Cl2HfSi2 | MND = 12
 OpenBabel04212202033D

 61 66  0  0  1  0  0  0  0  0999 V2000
   -0.0551    4.8287    4.7337 Hf  0  0  0  0  0  0  0  0  0  0  0  0
    1.0804    2.8914    5.2785 Cl  0  0  0  0  0  0  0  0  0  0  0  0
    1.8436    6.1437    4.9924 Cl  0  0  0  0  0  0  0  0  0  0  0  0
   -2.0863    7.8984    5.3901 Si  0  0  0  0  0  0  0  0  0  0  0  0
   -0.8057    7.0715    1.9698 Si  0  0  0  0  0  0  0  0  0  0  0  0
   -1.5705    6.1514    5.8516 C   0  0  2  0  0  0  0  0  0  0  0  0
   -0.6039    5.8657    6.8808 C   0  0  0  0  0  0  0  0  0  0  0  0
    0.0352    6.6117    7.3370 H   0  0  0  0  0  0  0  0  0  0  0  0
   -0.6682    4.5252    7.2545 C   0  0  0  0  0  0  0  0  0  0  0  0
   -0.0913    4.0471    8.0325 H   0  0  0  0  0  0  0  0  0  0  0  0
   -1.7338    3.9169    6.5234 C   0  0  0  0  0  0  0  0  0  0  0  0
   -2.2866    2.6260    6.5513 C   0  0  0  0  0  0  0  0  0  0  0  0
   -1.8253    1.8534    7.1491 H   0  0  0  0  0  0  0  0  0  0  0  0
   -3.4370    2.3795    5.8420 C   0  0  0  0  0  0  0  0  0  0  0  0
   -3.8801    1.3954    5.8641 H   0  0  0  0  0  0  0  0  0  0  0  0
   -4.0765    3.3958    5.1152 C   0  0  0  0  0  0  0  0  0  0  0  0
   -5.0085    3.1748    4.6168 H   0  0  0  0  0  0  0  0  0  0  0  0
   -3.5472    4.6617    5.0393 C   0  0  0  0  0  0  0  0  0  0  0  0
   -4.0598    5.4487    4.5015 H   0  0  0  0  0  0  0  0  0  0  0  0
   -2.3405    4.9379    5.7055 C   0  0  0  0  0  0  0  0  0  0  0  0
   -0.4783    5.3374    2.6341 C   0  0  2  0  0  0  0  0  0  0  0  0
   -1.5132    4.3187    2.7483 C   0  0  0  0  0  0  0  0  0  0  0  0
   -2.5704    4.5431    2.7819 H   0  0  0  0  0  0  0  0  0  0  0  0
   -0.9776    3.0526    2.6028 C   0  0  0  0  0  0  0  0  0  0  0  0
   -1.5237    2.1237    2.6182 H   0  0  0  0  0  0  0  0  0  0  0  0
    0.4135    3.1840    2.3162 C   0  0  0  0  0  0  0  0  0  0  0  0
    1.4017    2.2376    2.0234 C   0  0  0  0  0  0  0  0  0  0  0  0
    1.1627    1.1845    2.0352 H   0  0  0  0  0  0  0  0  0  0  0  0
    2.6703    2.6737    1.7219 C   0  0  0  0  0  0  0  0  0  0  0  0
    3.4438    1.9568    1.4911 H   0  0  0  0  0  0  0  0  0  0  0  0
    2.9806    4.0386    1.7050 C   0  0  0  0  0  0  0  0  0  0  0  0
    3.9853    4.3448    1.4542 H   0  0  0  0  0  0  0  0  0  0  0  0
    2.0324    4.9935    1.9974 C   0  0  0  0  0  0  0  0  0  0  0  0
    2.2816    6.0446    1.9662 H   0  0  0  0  0  0  0  0  0  0  0  0
    0.7306    4.5799    2.3130 C   0  0  0  0  0  0  0  0  0  0  0  0
   -0.5657    9.0455    5.4943 C   0  0  0  0  0  0  0  0  0  0  0  0
    0.3592    8.5130    5.2983 H   0  0  0  0  0  0  0  0  0  0  0  0
   -0.6321    9.8757    4.8007 H   0  0  0  0  0  0  0  0  0  0  0  0
   -0.4929    9.4680    6.4917 H   0  0  0  0  0  0  0  0  0  0  0  0
   -3.2430    8.4422    6.8200 C   0  0  0  0  0  0  0  0  0  0  0  0
   -4.1149    7.8013    6.9119 H   0  0  0  0  0  0  0  0  0  0  0  0
   -2.7104    8.3887    7.7657 H   0  0  0  0  0  0  0  0  0  0  0  0
   -3.5848    9.4653    6.6994 H   0  0  0  0  0  0  0  0  0  0  0  0
    0.5407    8.3528    2.4079 C   0  0  0  0  0  0  0  0  0  0  0  0
    1.2144    8.4800    1.5659 H   0  0  0  0  0  0  0  0  0  0  0  0
    0.1141    9.3254    2.6248 H   0  0  0  0  0  0  0  0  0  0  0  0
    1.1386    8.0481    3.2600 H   0  0  0  0  0  0  0  0  0  0  0  0
   -0.6894    6.8552    0.0675 C   0  0  0  0  0  0  0  0  0  0  0  0
    0.3114    6.5284   -0.2022 H   0  0  0  0  0  0  0  0  0  0  0  0
   -1.3768    6.1017   -0.3054 H   0  0  0  0  0  0  0  0  0  0  0  0
   -0.8827    7.7832   -0.4615 H   0  0  0  0  0  0  0  0  0  0  0  0
   -3.0524    7.9513    3.7368 C   0  0  0  0  0  0  0  0  0  0  0  0
   -2.5764    7.6215    2.4528 C   0  0  0  0  0  0  0  0  0  0  0  0
   -3.4612    7.7207    1.3779 C   0  0  0  0  0  0  0  0  0  0  0  0
   -3.1122    7.4733    0.3893 H   0  0  0  0  0  0  0  0  0  0  0  0
   -4.7743    8.1249    1.5230 C   0  0  0  0  0  0  0  0  0  0  0  0
   -5.4238    8.1833    0.6618 H   0  0  0  0  0  0  0  0  0  0  0  0
   -5.2394    8.4552    2.7810 C   0  0  0  0  0  0  0  0  0  0  0  0
   -6.2599    8.7791    2.9250 H   0  0  0  0  0  0  0  0  0  0  0  0
   -4.3803    8.3663    3.8591 C   0  0  0  0  0  0  0  0  0  0  0  0
   -4.7602    8.6281    4.8326 H   0  0  0  0  0  0  0  0  0  0  0  0
  1  3  1  0  0  0  0
  1  2  1  0  0  0  0
  1  6  1  0  0  0  0
  4 36  1  0  0  0  0
  4  6  1  0  0  0  0
  4 40  1  0  0  0  0
  5 44  1  0  0  0  0
  5 53  1  0  0  0  0
  5 21  1  0  0  0  0
  6 20  1  1  0  0  0
  6  7  1  0  0  0  0
  7  9  2  0  0  0  0
  7  8  1  0  0  0  0
  9 10  1  0  0  0  0
 11 12  1  0  0  0  0
 11  9  1  0  0  0  0
 12 13  1  0  0  0  0
 14 15  1  0  0  0  0
 14 12  2  0  0  0  0
 16 14  1  0  0  0  0
 17 16  1  0  0  0  0
 18 16  2  0  0  0  0
 18 20  1  0  0  0  0
 19 18  1  0  0  0  0
 20 11  2  0  0  0  0
 21 35  1  6  0  0  0
 21 22  1  0  0  0  0
 21  1  1  0  0  0  0
 22 23  1  0  0  0  0
 24 25  1  0  0  0  0
 24 22  2  0  0  0  0
 26 24  1  0  0  0  0
 27 28  1  0  0  0  0
 27 26  2  0  0  0  0
 29 27  1  0  0  0  0
 30 29  1  0  0  0  0
 31 29  2  0  0  0  0
 31 33  1  0  0  0  0
 32 31  1  0  0  0  0
 33 35  2  0  0  0  0
 34 33  1  0  0  0  0
 35 26  1  0  0  0  0
 36 39  1  0  0  0  0
 37 36  1  0  0  0  0
 38 36  1  0  0  0  0
 40 41  1  0  0  0  0
 40 42  1  0  0  0  0
 43 40  1  0  0  0  0
 44 46  1  0  0  0  0
 44 47  1  0  0  0  0
 45 44  1  0  0  0  0
 48  5  1  0  0  0  0
 49 48  1  0  0  0  0
 50 48  1  0  0  0  0
 51 48  1  0  0  0  0
 52 60  1  0  0  0  0
 52  4  1  0  0  0  0
 53 52  2  0  0  0  0
 54 56  2  0  0  0  0
 54 53  1  0  0  0  0
 55 54  1  0  0  0  0
 56 58  1  0  0  0  0
 57 56  1  0  0  0  0
 58 59  1  0  0  0  0
 58 60  2  0  0  0  0
 60 61  1  0  0  0  0
M  END
$$$$
