CSD_code = FEQCAI | q = 0 | S = 0 | Stoichiometry = C28H28Cl2Si2Zr | MND = 12
 OpenBabel04212202033D

 61 66  0  0  1  0  0  0  0  0999 V2000
    4.1947    3.9015    2.9972 Zr  0  0  0  0  0  0  0  0  0  0  0  0
    2.4085    2.4002    2.8249 Cl  0  0  0  0  0  0  0  0  0  0  0  0
    2.7998    5.6639    2.3263 Cl  0  0  0  0  0  0  0  0  0  0  0  0
    4.8746    1.3427    5.7668 Si  0  0  0  0  0  0  0  0  0  0  0  0
    6.2692    0.8257    2.3327 Si  0  0  0  0  0  0  0  0  0  0  0  0
    4.6791    3.1031    5.1437 C   0  0  2  0  0  0  0  0  0  0  0  0
    3.5328    3.9581    5.3510 C   0  0  0  0  0  0  0  0  0  0  0  0
    2.2007    3.6791    5.7087 C   0  0  0  0  0  0  0  0  0  0  0  0
    1.8866    2.6574    5.8768 H   0  0  0  0  0  0  0  0  0  0  0  0
    1.3226    4.7247    5.8607 C   0  0  0  0  0  0  0  0  0  0  0  0
    0.2982    4.5280    6.1400 H   0  0  0  0  0  0  0  0  0  0  0  0
    1.7277    6.0567    5.6692 C   0  0  0  0  0  0  0  0  0  0  0  0
    1.0047    6.8461    5.8086 H   0  0  0  0  0  0  0  0  0  0  0  0
    3.0149    6.3683    5.3081 C   0  0  0  0  0  0  0  0  0  0  0  0
    3.3192    7.3956    5.1603 H   0  0  0  0  0  0  0  0  0  0  0  0
    3.9408    5.3246    5.1324 C   0  0  0  0  0  0  0  0  0  0  0  0
    5.3295    5.3113    4.7915 C   0  0  0  0  0  0  0  0  0  0  0  0
    5.9547    6.1870    4.6660 H   0  0  0  0  0  0  0  0  0  0  0  0
    5.7722    3.9826    4.8779 C   0  0  0  0  0  0  0  0  0  0  0  0
    6.8081    3.6675    4.8676 H   0  0  0  0  0  0  0  0  0  0  0  0
    4.7495    1.5380    7.6749 C   0  0  0  0  0  0  0  0  0  0  0  0
    3.7768    1.9433    7.9412 H   0  0  0  0  0  0  0  0  0  0  0  0
    5.4959    2.2212    8.0690 H   0  0  0  0  0  0  0  0  0  0  0  0
    4.8553    0.5877    8.1889 H   0  0  0  0  0  0  0  0  0  0  0  0
    3.4911    0.1057    5.3161 C   0  0  0  0  0  0  0  0  0  0  0  0
    2.8490   -0.0546    6.1771 H   0  0  0  0  0  0  0  0  0  0  0  0
    3.8881   -0.8611    5.0287 H   0  0  0  0  0  0  0  0  0  0  0  0
    2.8681    0.4698    4.5063 H   0  0  0  0  0  0  0  0  0  0  0  0
    6.6597    0.8198    5.2976 C   0  0  0  0  0  0  0  0  0  0  0  0
    7.5009    0.5817    6.3851 C   0  0  0  0  0  0  0  0  0  0  0  0
    7.0908    0.6202    7.3806 H   0  0  0  0  0  0  0  0  0  0  0  0
    8.8457    0.2978    6.2437 C   0  0  0  0  0  0  0  0  0  0  0  0
    9.4593    0.1208    7.1151 H   0  0  0  0  0  0  0  0  0  0  0  0
    9.3925    0.2542    4.9759 C   0  0  0  0  0  0  0  0  0  0  0  0
   10.4445    0.0526    4.8347 H   0  0  0  0  0  0  0  0  0  0  0  0
    8.5718    0.4590    3.8836 C   0  0  0  0  0  0  0  0  0  0  0  0
    9.0119    0.4037    2.9014 H   0  0  0  0  0  0  0  0  0  0  0  0
    7.2076    0.7320    4.0029 C   0  0  0  0  0  0  0  0  0  0  0  0
    7.4474    0.2370    0.9340 C   0  0  0  0  0  0  0  0  0  0  0  0
    6.9086    0.1880   -0.0083 H   0  0  0  0  0  0  0  0  0  0  0  0
    7.8449   -0.7532    1.1322 H   0  0  0  0  0  0  0  0  0  0  0  0
    8.2834    0.9135    0.7834 H   0  0  0  0  0  0  0  0  0  0  0  0
    4.7533   -0.3287    2.2420 C   0  0  0  0  0  0  0  0  0  0  0  0
    4.6394   -0.7117    1.2324 H   0  0  0  0  0  0  0  0  0  0  0  0
    3.8359    0.1901    2.5004 H   0  0  0  0  0  0  0  0  0  0  0  0
    4.8581   -1.1854    2.8976 H   0  0  0  0  0  0  0  0  0  0  0  0
    5.7438    2.5521    1.8159 C   0  0  1  0  0  0  0  0  0  0  0  0
    4.6997    2.7917    0.8650 C   0  0  0  0  0  0  0  0  0  0  0  0
    4.0684    2.0182    0.4404 H   0  0  0  0  0  0  0  0  0  0  0  0
    4.6622    4.1426    0.5093 C   0  0  0  0  0  0  0  0  0  0  0  0
    4.0010    4.5993   -0.2167 H   0  0  0  0  0  0  0  0  0  0  0  0
    5.7311    4.8022    1.1926 C   0  0  0  0  0  0  0  0  0  0  0  0
    6.1793    6.1354    1.1986 C   0  0  0  0  0  0  0  0  0  0  0  0
    5.6286    6.8946    0.6594 H   0  0  0  0  0  0  0  0  0  0  0  0
    7.3469    6.4391    1.8573 C   0  0  0  0  0  0  0  0  0  0  0  0
    7.7140    7.4546    1.8593 H   0  0  0  0  0  0  0  0  0  0  0  0
    8.1050    5.4430    2.4966 C   0  0  0  0  0  0  0  0  0  0  0  0
    9.0483    5.7147    2.9468 H   0  0  0  0  0  0  0  0  0  0  0  0
    7.6760    4.1386    2.5472 C   0  0  0  0  0  0  0  0  0  0  0  0
    8.2812    3.3722    3.0151 H   0  0  0  0  0  0  0  0  0  0  0  0
    6.4524    3.7971    1.9418 C   0  0  0  0  0  0  0  0  0  0  0  0
  1  6  1  0  0  0  0
  2  1  1  0  0  0  0
  3  1  1  0  0  0  0
  4 21  1  0  0  0  0
  5 38  1  0  0  0  0
  6 19  1  1  0  0  0
  6  7  1  0  0  0  0
  6  4  1  0  0  0  0
  7  8  1  0  0  0  0
  8 10  2  0  0  0  0
  8  9  1  0  0  0  0
 10 11  1  0  0  0  0
 12 13  1  0  0  0  0
 12 10  1  0  0  0  0
 14 12  2  0  0  0  0
 15 14  1  0  0  0  0
 16 14  1  0  0  0  0
 16  7  2  0  0  0  0
 17 19  2  0  0  0  0
 17 16  1  0  0  0  0
 18 17  1  0  0  0  0
 20 19  1  0  0  0  0
 21 22  1  0  0  0  0
 21 23  1  0  0  0  0
 21 24  1  0  0  0  0
 25  4  1  0  0  0  0
 25 26  1  0  0  0  0
 27 25  1  0  0  0  0
 28 25  1  0  0  0  0
 29  4  1  0  0  0  0
 29 30  1  0  0  0  0
 30 31  1  0  0  0  0
 32 30  2  0  0  0  0
 32 33  1  0  0  0  0
 34 32  1  0  0  0  0
 35 34  1  0  0  0  0
 36 38  1  0  0  0  0
 36 34  2  0  0  0  0
 37 36  1  0  0  0  0
 38 29  2  0  0  0  0
 39 41  1  0  0  0  0
 39  5  1  0  0  0  0
 40 39  1  0  0  0  0
 42 39  1  0  0  0  0
 43  5  1  0  0  0  0
 43 45  1  0  0  0  0
 43 46  1  0  0  0  0
 44 43  1  0  0  0  0
 47 48  1  6  0  0  0
 47 61  1  0  0  0  0
 47  5  1  0  0  0  0
 47  1  1  0  0  0  0
 49 48  1  0  0  0  0
 50 48  2  0  0  0  0
 50 52  1  0  0  0  0
 51 50  1  0  0  0  0
 52 53  2  0  0  0  0
 52 61  1  0  0  0  0
 53 55  1  0  0  0  0
 54 53  1  0  0  0  0
 55 56  1  0  0  0  0
 55 57  2  0  0  0  0
 57 59  1  0  0  0  0
 57 58  1  0  0  0  0
 59 60  1  0  0  0  0
 61 59  2  0  0  0  0
M  END
$$$$
