CSD_code = FEQDAH | q = 0 | S = 0 | Stoichiometry = C24H34Cl2NPTi | MND = 8
 OpenBabel04212202033D

 63 66  0  0  1  0  0  0  0  0999 V2000
   11.0185   13.3282    3.4499 Ti  0  0  0  0  0  0  0  0  0  0  0  0
    9.4316   12.6246    4.7968 Cl  0  0  0  0  0  0  0  0  0  0  0  0
   11.0041   15.4059    4.1471 Cl  0  0  0  0  0  0  0  0  0  0  0  0
    8.7932   13.3782    1.1408 P   0  0  0  0  0  4  0  0  0  0  0  0
   10.1291   13.3513    1.9407 N   0  0  0  0  0  2  0  0  0  0  0  0
   13.0059   12.9074    4.6454 C   0  0  0  0  0  0  0  0  0  0  0  0
   13.2675   13.3342    5.6059 H   0  0  0  0  0  0  0  0  0  0  0  0
   12.3648   11.6747    4.4368 C   0  0  0  0  0  0  0  0  0  0  0  0
   12.0539   10.9780    5.2064 H   0  0  0  0  0  0  0  0  0  0  0  0
   12.2958   11.4457    3.0427 C   0  0  2  0  0  0  0  0  0  0  0  0
   11.9687   10.5265    2.5706 H   0  0  0  0  0  0  0  0  0  0  0  0
   12.9176   12.5385    2.3910 C   0  0  0  0  0  0  0  0  0  0  0  0
   13.1247   12.6162    1.3300 H   0  0  0  0  0  0  0  0  0  0  0  0
   13.3461   13.4439    3.3856 C   0  0  0  0  0  0  0  0  0  0  0  0
   13.9284   14.3410    3.2151 H   0  0  0  0  0  0  0  0  0  0  0  0
    8.9324   14.5741   -0.2951 C   0  0  0  0  0  0  0  0  0  0  0  0
    8.5442   14.1210   -1.2083 H   0  0  0  0  0  0  0  0  0  0  0  0
    8.3406   15.4601   -0.0562 H   0  0  0  0  0  0  0  0  0  0  0  0
   10.3857   14.9128   -0.3945 C   0  0  0  0  0  0  0  0  0  0  0  0
   11.1821   14.4587   -1.4360 C   0  0  0  0  0  0  0  0  0  0  0  0
   10.7350   13.9266   -2.2649 H   0  0  0  0  0  0  0  0  0  0  0  0
   12.5481   14.6868   -1.4286 C   0  0  0  0  0  0  0  0  0  0  0  0
   13.1547   14.3295   -2.2483 H   0  0  0  0  0  0  0  0  0  0  0  0
   13.1365   15.3569   -0.3699 C   0  0  0  0  0  0  0  0  0  0  0  0
   14.2048   15.5167   -0.3585 H   0  0  0  0  0  0  0  0  0  0  0  0
   12.3477   15.8303    0.6668 C   0  0  0  0  0  0  0  0  0  0  0  0
   12.7906   16.3730    1.4902 H   0  0  0  0  0  0  0  0  0  0  0  0
   10.9804   15.6168    0.6511 C   0  0  0  0  0  0  0  0  0  0  0  0
   10.3642   16.0140    1.4479 H   0  0  0  0  0  0  0  0  0  0  0  0
    7.3095   13.8626    2.1510 C   0  0  0  0  0  0  0  0  0  0  0  0
    7.2612   13.1034    2.9444 H   0  0  0  0  0  0  0  0  0  0  0  0
    7.5822   15.2086    2.8180 C   0  0  0  0  0  0  0  0  0  0  0  0
    8.5244   15.1478    3.3761 H   0  0  0  0  0  0  0  0  0  0  0  0
    7.6777   15.9934    2.0614 H   0  0  0  0  0  0  0  0  0  0  0  0
    6.4343   15.5596    3.7605 C   0  0  0  0  0  0  0  0  0  0  0  0
    6.3829   14.8111    4.5538 H   0  0  0  0  0  0  0  0  0  0  0  0
    6.6226   16.5286    4.2255 H   0  0  0  0  0  0  0  0  0  0  0  0
    5.1127   15.5932    2.9970 C   0  0  0  0  0  0  0  0  0  0  0  0
    4.2936   15.8256    3.6801 H   0  0  0  0  0  0  0  0  0  0  0  0
    5.1503   16.3817    2.2412 H   0  0  0  0  0  0  0  0  0  0  0  0
    4.8515   14.2521    2.3170 C   0  0  0  0  0  0  0  0  0  0  0  0
    3.9134   14.2928    1.7591 H   0  0  0  0  0  0  0  0  0  0  0  0
    4.7561   13.4753    3.0788 H   0  0  0  0  0  0  0  0  0  0  0  0
    5.9983   13.8910    1.3732 C   0  0  0  0  0  0  0  0  0  0  0  0
    6.0573   14.6353    0.5752 H   0  0  0  0  0  0  0  0  0  0  0  0
    5.8044   12.9191    0.9143 H   0  0  0  0  0  0  0  0  0  0  0  0
    8.4628   11.6923    0.4239 C   0  0  0  0  0  0  0  0  0  0  0  0
    7.5974   11.7036   -0.2461 H   0  0  0  0  0  0  0  0  0  0  0  0
    8.2259   10.7432    1.5976 C   0  0  0  0  0  0  0  0  0  0  0  0
    9.0326   10.8970    2.3297 H   0  0  0  0  0  0  0  0  0  0  0  0
    7.2794   10.9810    2.0883 H   0  0  0  0  0  0  0  0  0  0  0  0
    8.2027    9.2859    1.1428 C   0  0  0  0  0  0  0  0  0  0  0  0
    8.0655    8.6366    2.0093 H   0  0  0  0  0  0  0  0  0  0  0  0
    7.3556    9.1298    0.4695 H   0  0  0  0  0  0  0  0  0  0  0  0
    9.4937    8.9263    0.4166 C   0  0  0  0  0  0  0  0  0  0  0  0
   10.3376    9.0432    1.1000 H   0  0  0  0  0  0  0  0  0  0  0  0
    9.4638    7.8840    0.0932 H   0  0  0  0  0  0  0  0  0  0  0  0
    9.6859    9.8430   -0.7862 C   0  0  0  0  0  0  0  0  0  0  0  0
    8.8602    9.6966   -1.4875 H   0  0  0  0  0  0  0  0  0  0  0  0
   10.6136    9.5938   -1.3051 H   0  0  0  0  0  0  0  0  0  0  0  0
    9.7252   11.3016   -0.3407 C   0  0  0  0  0  0  0  0  0  0  0  0
    9.8502   11.9507   -1.2097 H   0  0  0  0  0  0  0  0  0  0  0  0
   10.5824   11.4669    0.3233 H   0  0  0  0  0  0  0  0  0  0  0  0
  1  3  1  0  0  0  0
  1  2  1  0  0  0  0
  4  5  1  0  0  0  0
  4 30  1  0  0  0  0
  5  1  1  0  0  0  0
  6  7  1  0  0  0  0
  8  6  2  0  0  0  0
  8  9  1  0  0  0  0
 10 11  1  6  0  0  0
 10  1  1  0  0  0  0
 10  8  1  0  0  0  0
 12 10  1  0  0  0  0
 12 14  2  0  0  0  0
 13 12  1  0  0  0  0
 14  6  1  0  0  0  0
 15 14  1  0  0  0  0
 16 18  1  0  0  0  0
 16  4  1  0  0  0  0
 17 16  1  0  0  0  0
 19 16  1  0  0  0  0
 19 28  1  0  0  0  0
 20 22  1  0  0  0  0
 20 19  2  0  0  0  0
 21 20  1  0  0  0  0
 22 24  2  0  0  0  0
 23 22  1  0  0  0  0
 24 25  1  0  0  0  0
 24 26  1  0  0  0  0
 26 27  1  0  0  0  0
 28 26  2  0  0  0  0
 28 29  1  0  0  0  0
 30 32  1  0  0  0  0
 30 31  1  0  0  0  0
 32 33  1  0  0  0  0
 32 35  1  0  0  0  0
 34 32  1  0  0  0  0
 35 37  1  0  0  0  0
 35 36  1  0  0  0  0
 38 39  1  0  0  0  0
 38 35  1  0  0  0  0
 40 38  1  0  0  0  0
 41 38  1  0  0  0  0
 41 43  1  0  0  0  0
 42 41  1  0  0  0  0
 44 30  1  0  0  0  0
 44 41  1  0  0  0  0
 45 44  1  0  0  0  0
 46 44  1  0  0  0  0
 47  4  1  0  0  0  0
 47 49  1  0  0  0  0
 48 47  1  0  0  0  0
 49 51  1  0  0  0  0
 49 50  1  0  0  0  0
 52 49  1  0  0  0  0
 52 53  1  0  0  0  0
 54 52  1  0  0  0  0
 55 56  1  0  0  0  0
 55 52  1  0  0  0  0
 57 55  1  0  0  0  0
 58 61  1  0  0  0  0
 58 55  1  0  0  0  0
 59 58  1  0  0  0  0
 60 58  1  0  0  0  0
 61 63  1  0  0  0  0
 61 47  1  0  0  0  0
 62 61  1  0  0  0  0
M  END
$$$$
