CSD_code = FEQHUH | q = 0 | S = 0 | Stoichiometry = C16H25BrNNiO3P | MND = 4
 OpenBabel04212202033D

 48 49  0  0  0  0  0  0  0  0999 V2000
    1.4406    9.3276    7.9842 Br  0  0  0  0  0  0  0  0  0  0  0  0
    1.7034    7.0631    8.0744 Ni  0  0  2  0  0  0  0  0  0  0  0  0
    2.6515    7.3847    9.9129 P   0  0  0  0  0  4  0  0  0  0  0  0
    3.1744    5.9465   10.4517 O   0  0  0  0  0  0  0  0  0  0  0  0
    0.6380    4.2904    6.7805 O   0  0  0  0  0  0  0  0  0  0  0  0
    2.6056    1.2247    9.8194 O   0  0  0  0  0  0  0  0  0  0  0  0
    1.0171    6.8085    6.4280 N   0  0  0  0  0  2  0  0  0  0  0  0
    2.6641    4.8901    9.7074 C   0  0  0  0  0  0  0  0  0  0  0  0
    1.9311    5.1680    8.5547 C   0  0  0  0  0  0  0  0  0  0  0  0
    1.4066    4.0444    7.8842 C   0  0  0  0  0  0  0  0  0  0  0  0
    1.6593    2.7584    8.3392 C   0  0  0  0  0  0  0  0  0  0  0  0
    1.2759    1.8909    7.8289 H   0  0  0  0  0  0  0  0  0  0  0  0
    2.4239    2.5337    9.4807 C   0  0  0  0  0  0  0  0  0  0  0  0
    2.9266    3.6142   10.1853 C   0  0  0  0  0  0  0  0  0  0  0  0
    3.5073    3.5117   11.0868 H   0  0  0  0  0  0  0  0  0  0  0  0
    0.0665    3.2104    6.0916 C   0  0  0  0  0  0  0  0  0  0  0  0
   -0.5193    3.6510    5.2850 H   0  0  0  0  0  0  0  0  0  0  0  0
   -0.5977    2.6245    6.7355 H   0  0  0  0  0  0  0  0  0  0  0  0
    0.8303    2.5521    5.6636 H   0  0  0  0  0  0  0  0  0  0  0  0
    3.3771    0.9360   10.9586 C   0  0  0  0  0  0  0  0  0  0  0  0
    4.3987    1.3169   10.8589 H   0  0  0  0  0  0  0  0  0  0  0  0
    3.4031   -0.1503   11.0309 H   0  0  0  0  0  0  0  0  0  0  0  0
    2.9239    1.3477   11.8664 H   0  0  0  0  0  0  0  0  0  0  0  0
    4.2387    8.3221   10.0987 C   0  0  0  0  0  0  0  0  0  0  0  0
    4.7215    7.8486   10.9643 H   0  0  0  0  0  0  0  0  0  0  0  0
    4.0858    9.8167   10.3352 C   0  0  0  0  0  0  0  0  0  0  0  0
    3.5683   10.2914    9.5053 H   0  0  0  0  0  0  0  0  0  0  0  0
    5.0721   10.2698   10.4255 H   0  0  0  0  0  0  0  0  0  0  0  0
    3.5332   10.0234   11.2485 H   0  0  0  0  0  0  0  0  0  0  0  0
    5.0590    8.0359    8.8430 C   0  0  0  0  0  0  0  0  0  0  0  0
    5.1442    6.9608    8.6786 H   0  0  0  0  0  0  0  0  0  0  0  0
    6.0609    8.4530    8.9283 H   0  0  0  0  0  0  0  0  0  0  0  0
    4.5760    8.4828    7.9729 H   0  0  0  0  0  0  0  0  0  0  0  0
    1.5079    7.9537   11.2609 C   0  0  0  0  0  0  0  0  0  0  0  0
    1.3269    9.0212   11.1000 H   0  0  0  0  0  0  0  0  0  0  0  0
    0.1997    7.1897   11.0689 C   0  0  0  0  0  0  0  0  0  0  0  0
   -0.1703    7.3229   10.0461 H   0  0  0  0  0  0  0  0  0  0  0  0
   -0.5656    7.5445   11.7569 H   0  0  0  0  0  0  0  0  0  0  0  0
    0.3531    6.1235   11.2381 H   0  0  0  0  0  0  0  0  0  0  0  0
    2.1049    7.7152   12.6406 C   0  0  0  0  0  0  0  0  0  0  0  0
    2.3514    6.6627   12.7682 H   0  0  0  0  0  0  0  0  0  0  0  0
    1.3854    7.9946   13.4088 H   0  0  0  0  0  0  0  0  0  0  0  0
    3.0091    8.3010   12.7900 H   0  0  0  0  0  0  0  0  0  0  0  0
    0.6204    7.0161    5.3714 C   0  0  0  0  0  2  0  0  0  0  0  0
    0.1217    7.2699    4.0568 C   0  0  0  0  0  0  0  0  0  0  0  0
    0.9253    7.6674    3.4372 H   0  0  0  0  0  0  0  0  0  0  0  0
   -0.6791    8.0071    4.1155 H   0  0  0  0  0  0  0  0  0  0  0  0
   -0.2578    6.3492    3.6148 H   0  0  0  0  0  0  0  0  0  0  0  0
  2  1  1  1  0  0  0
  2  9  1  0  0  0  0
  2  3  1  0  0  0  0
  3 24  1  0  0  0  0
  3  4  1  0  0  0  0
  3 34  1  0  0  0  0
  5 10  1  0  0  0  0
  6 20  1  0  0  0  0
  7  2  1  0  0  0  0
  8 14  1  0  0  0  0
  8  4  1  0  0  0  0
  9  8  2  0  0  0  0
 10 11  2  0  0  0  0
 10  9  1  0  0  0  0
 11 13  1  0  0  0  0
 12 11  1  0  0  0  0
 13  6  1  0  0  0  0
 13 14  2  0  0  0  0
 14 15  1  0  0  0  0
 16 18  1  0  0  0  0
 16  5  1  0  0  0  0
 17 16  1  0  0  0  0
 19 16  1  0  0  0  0
 20 22  1  0  0  0  0
 20 23  1  0  0  0  0
 21 20  1  0  0  0  0
 24 26  1  0  0  0  0
 24 25  1  0  0  0  0
 26 28  1  0  0  0  0
 26 29  1  0  0  0  0
 27 26  1  0  0  0  0
 30 32  1  0  0  0  0
 30 24  1  0  0  0  0
 31 30  1  0  0  0  0
 33 30  1  0  0  0  0
 34 40  1  0  0  0  0
 35 34  1  0  0  0  0
 36 39  1  0  0  0  0
 36 34  1  0  0  0  0
 36 38  1  0  0  0  0
 37 36  1  0  0  0  0
 40 41  1  0  0  0  0
 40 43  1  0  0  0  0
 40 42  1  0  0  0  0
 44  7  1  0  0  0  0
 45 47  1  0  0  0  0
 45 44  1  0  0  0  0
 46 45  1  0  0  0  0
 48 45  1  0  0  0  0
M  END
$$$$
