CSD_code = FEQJIV | q = 0 | S = 0 | Stoichiometry = C22H36Cl2P2Zr | MND = 12
 OpenBabel04212202033D

 63 64  0  0  1  0  0  0  0  0999 V2000
   -0.5965    5.5161   10.6355 Zr  0  0  0  0  0  0  0  0  0  0  0  0
   -0.5184    3.8279   12.2760 Cl  0  0  0  0  0  0  0  0  0  0  0  0
    0.4562    8.5676    9.0150 P   0  0  0  0  0  0  0  0  0  0  0  0
    1.0708    7.0858    9.8958 C   0  0  1  0  0  0  0  0  0  0  0  0
    1.1489    7.0485   11.3253 C   0  0  0  0  0  0  0  0  0  0  0  0
    0.9816    7.8997   11.9719 H   0  0  0  0  0  0  0  0  0  0  0  0
    1.7329    5.8222   11.7024 C   0  0  0  0  0  0  0  0  0  0  0  0
    2.0141    5.5283   12.7058 H   0  0  0  0  0  0  0  0  0  0  0  0
    1.9825    5.0802   10.5323 C   0  0  0  0  0  0  0  0  0  0  0  0
    2.4602    4.1096   10.4883 H   0  0  0  0  0  0  0  0  0  0  0  0
    1.5894    5.8480    9.4212 C   0  0  0  0  0  0  0  0  0  0  0  0
    1.7428    5.5581    8.3901 H   0  0  0  0  0  0  0  0  0  0  0  0
    0.5013    7.9112    7.2471 C   0  0  0  0  0  0  0  0  0  0  0  0
    1.4592    7.4095    7.0804 H   0  0  0  0  0  0  0  0  0  0  0  0
    0.3626    9.0698    6.2616 C   0  0  0  0  0  0  0  0  0  0  0  0
    0.2758    8.6883    5.2453 H   0  0  0  0  0  0  0  0  0  0  0  0
    1.2229    9.7333    6.2992 H   0  0  0  0  0  0  0  0  0  0  0  0
   -0.5301    9.6535    6.4822 H   0  0  0  0  0  0  0  0  0  0  0  0
   -0.6312    6.9098    7.0215 C   0  0  0  0  0  0  0  0  0  0  0  0
   -1.5956    7.4151    7.0552 H   0  0  0  0  0  0  0  0  0  0  0  0
   -0.6231    6.1032    7.7636 H   0  0  0  0  0  0  0  0  0  0  0  0
   -0.5309    6.4591    6.0345 H   0  0  0  0  0  0  0  0  0  0  0  0
    2.0381    9.6059    9.0252 C   0  0  0  0  0  0  0  0  0  0  0  0
    1.8184   10.4625    8.3767 H   0  0  0  0  0  0  0  0  0  0  0  0
    2.2544   10.1325   10.4423 C   0  0  0  0  0  0  0  0  0  0  0  0
    2.6151    9.3361   11.0888 H   0  0  0  0  0  0  0  0  0  0  0  0
    1.3265   10.5270   10.8546 H   0  0  0  0  0  0  0  0  0  0  0  0
    2.9966   10.9289   10.4409 H   0  0  0  0  0  0  0  0  0  0  0  0
    3.2899    8.8939    8.5272 C   0  0  0  0  0  0  0  0  0  0  0  0
    4.1594    9.5285    8.6929 H   0  0  0  0  0  0  0  0  0  0  0  0
    3.2372    8.6750    7.4639 H   0  0  0  0  0  0  0  0  0  0  0  0
    3.4408    7.9630    9.0712 H   0  0  0  0  0  0  0  0  0  0  0  0
   -0.6743    3.8280    8.9950 Cl  0  0  0  0  0  0  0  0  0  0  0  0
   -1.6492    8.5676   12.2561 P   0  0  0  0  0  0  0  0  0  0  0  0
   -2.2639    7.0858   11.3753 C   0  0  1  0  0  0  0  0  0  0  0  0
   -2.3419    7.0486    9.9458 C   0  0  0  0  0  0  0  0  0  0  0  0
   -2.1746    7.8999    9.2992 H   0  0  0  0  0  0  0  0  0  0  0  0
   -2.9257    5.8223    9.5686 C   0  0  0  0  0  0  0  0  0  0  0  0
   -3.2070    5.5284    8.5652 H   0  0  0  0  0  0  0  0  0  0  0  0
   -3.1753    5.0802   10.7386 C   0  0  0  0  0  0  0  0  0  0  0  0
   -3.6529    4.1096   10.7826 H   0  0  0  0  0  0  0  0  0  0  0  0
   -2.7823    5.8479   11.8498 C   0  0  0  0  0  0  0  0  0  0  0  0
   -2.9357    5.5580   12.8809 H   0  0  0  0  0  0  0  0  0  0  0  0
   -1.6944    7.9113   14.0240 C   0  0  0  0  0  0  0  0  0  0  0  0
   -2.6523    7.4095   14.1906 H   0  0  0  0  0  0  0  0  0  0  0  0
   -1.5558    9.0698   15.0095 C   0  0  0  0  0  0  0  0  0  0  0  0
   -1.4690    8.6884   16.0258 H   0  0  0  0  0  0  0  0  0  0  0  0
   -2.4161    9.7333   14.9719 H   0  0  0  0  0  0  0  0  0  0  0  0
   -0.6632    9.6536   14.7889 H   0  0  0  0  0  0  0  0  0  0  0  0
   -0.5618    6.9099   14.2497 C   0  0  0  0  0  0  0  0  0  0  0  0
    0.4025    7.4153   14.2162 H   0  0  0  0  0  0  0  0  0  0  0  0
   -0.5698    6.1034   13.5075 H   0  0  0  0  0  0  0  0  0  0  0  0
   -0.6622    6.4592   15.2366 H   0  0  0  0  0  0  0  0  0  0  0  0
   -3.2310    9.6059   12.2459 C   0  0  0  0  0  0  0  0  0  0  0  0
   -3.0114   10.4625   12.8946 H   0  0  0  0  0  0  0  0  0  0  0  0
   -3.4473   10.1326   10.8289 C   0  0  0  0  0  0  0  0  0  0  0  0
   -3.8085    9.3365   10.1823 H   0  0  0  0  0  0  0  0  0  0  0  0
   -2.5192   10.5268   10.4165 H   0  0  0  0  0  0  0  0  0  0  0  0
   -4.1891   10.9295   10.8305 H   0  0  0  0  0  0  0  0  0  0  0  0
   -4.4829    8.8939   12.7438 C   0  0  0  0  0  0  0  0  0  0  0  0
   -5.3524    9.5283   12.5776 H   0  0  0  0  0  0  0  0  0  0  0  0
   -4.4305    8.6754   13.8072 H   0  0  0  0  0  0  0  0  0  0  0  0
   -4.6335    7.9628   12.2000 H   0  0  0  0  0  0  0  0  0  0  0  0
  1 35  1  0  0  0  0
  1  2  1  0  0  0  0
  3 23  1  0  0  0  0
  4  3  1  6  0  0  0
  4  1  1  0  0  0  0
  4  5  1  0  0  0  0
  5  7  2  0  0  0  0
  5  6  1  0  0  0  0
  7  8  1  0  0  0  0
  9  7  1  0  0  0  0
 10  9  1  0  0  0  0
 11  4  1  0  0  0  0
 11  9  2  0  0  0  0
 12 11  1  0  0  0  0
 13  3  1  0  0  0  0
 14 13  1  0  0  0  0
 15 17  1  0  0  0  0
 15 18  1  0  0  0  0
 15 13  1  0  0  0  0
 16 15  1  0  0  0  0
 19 20  1  0  0  0  0
 19 13  1  0  0  0  0
 19 21  1  0  0  0  0
 22 19  1  0  0  0  0
 23 25  1  0  0  0  0
 24 23  1  0  0  0  0
 25 27  1  0  0  0  0
 25 26  1  0  0  0  0
 28 25  1  0  0  0  0
 29 30  1  0  0  0  0
 29 23  1  0  0  0  0
 29 32  1  0  0  0  0
 31 29  1  0  0  0  0
 33  1  1  0  0  0  0
 34 44  1  0  0  0  0
 35 42  1  0  0  0  0
 35 34  1  1  0  0  0
 36 35  1  0  0  0  0
 37 36  1  0  0  0  0
 38 36  2  0  0  0  0
 38 40  1  0  0  0  0
 39 38  1  0  0  0  0
 40 41  1  0  0  0  0
 40 42  2  0  0  0  0
 42 43  1  0  0  0  0
 44 45  1  0  0  0  0
 44 50  1  0  0  0  0
 44 46  1  0  0  0  0
 46 47  1  0  0  0  0
 48 46  1  0  0  0  0
 49 46  1  0  0  0  0
 50 53  1  0  0  0  0
 51 50  1  0  0  0  0
 52 50  1  0  0  0  0
 54 34  1  0  0  0  0
 54 60  1  0  0  0  0
 54 55  1  0  0  0  0
 56 59  1  0  0  0  0
 56 54  1  0  0  0  0
 57 56  1  0  0  0  0
 58 56  1  0  0  0  0
 60 62  1  0  0  0  0
 61 60  1  0  0  0  0
 63 60  1  0  0  0  0
M  END
$$$$
