CSD_code = FEQMAQ | q = 0 | S = 0 | Stoichiometry = C23H15Br2F8FeN3 | MND = 5
 OpenBabel04212202033D

 52 56  0  0  1  0  0  0  0  0999 V2000
   12.1212    4.4647    8.5311 Fe  0  0  0  0  0  0  0  0  0  0  0  0
   13.5000    5.6243    9.9770 Br  0  0  0  0  0  0  0  0  0  0  0  0
   13.6572    2.8440    7.9707 Br  0  0  0  0  0  0  0  0  0  0  0  0
   10.7556    5.5830    8.7880 N   0  0  0  0  0  0  0  0  0  0  0  0
    9.8800    5.3621    9.7991 C   0  0  0  0  0  0  0  0  0  0  0  0
    8.8211    6.2336   10.0360 C   0  0  0  0  0  0  0  0  0  0  0  0
    8.1307    6.0367   10.8393 H   0  0  0  0  0  0  0  0  0  0  0  0
    8.6783    7.3544    9.2316 C   0  0  0  0  0  0  0  0  0  0  0  0
    7.8647    8.0415    9.4003 H   0  0  0  0  0  0  0  0  0  0  0  0
    9.5967    7.5978    8.2211 C   0  0  0  0  0  0  0  0  0  0  0  0
    9.5161    8.4732    7.5984 H   0  0  0  0  0  0  0  0  0  0  0  0
   10.6378    6.6958    8.0226 C   0  0  0  0  0  0  0  0  0  0  0  0
   10.2077    4.1622   10.5215 C   0  0  0  0  0  0  0  0  0  0  0  0
   11.2621    3.5565   10.0602 N   0  0  0  0  0  0  0  0  0  0  0  0
    9.3897    3.6747   11.6688 C   0  0  0  0  0  0  0  0  0  0  0  0
    8.3924    3.4029   11.3242 H   0  0  0  0  0  0  0  0  0  0  0  0
    9.2928    4.4627   12.4137 H   0  0  0  0  0  0  0  0  0  0  0  0
    9.8513    2.8041   12.1286 H   0  0  0  0  0  0  0  0  0  0  0  0
   11.6859    6.7677    7.0402 C   0  0  1  0  0  3  0  0  0  0  0  0
   12.5141    5.7666    7.0984 N   0  0  0  0  0  0  0  0  0  0  0  0
   11.7754    7.8794    6.0505 C   0  0  0  0  0  0  0  0  0  0  0  0
   12.6789    7.7901    5.4519 H   0  0  0  0  0  0  0  0  0  0  0  0
   11.7852    8.8355    6.5711 H   0  0  0  0  0  0  0  0  0  0  0  0
   10.9108    7.8575    5.3880 H   0  0  0  0  0  0  0  0  0  0  0  0
   11.7092    2.3180   10.5138 C   0  0  0  0  0  0  0  0  0  0  0  0
   11.2347    1.1612    9.8813 C   0  0  0  0  0  0  0  0  0  0  0  0
   11.7309   -0.0872   10.2172 C   0  0  0  0  0  0  0  0  0  0  0  0
   11.3794   -0.9794    9.7245 H   0  0  0  0  0  0  0  0  0  0  0  0
   12.7096   -0.1601   11.1923 C   0  0  0  0  0  0  0  0  0  0  0  0
   13.1876   -1.3652   11.5363 F   0  0  0  0  0  0  0  0  0  0  0  0
   13.2073    0.9698   11.8212 C   0  0  0  0  0  0  0  0  0  0  0  0
   13.9863    0.8711   12.5598 H   0  0  0  0  0  0  0  0  0  0  0  0
   12.7082    2.2101   11.4787 C   0  0  0  0  0  0  0  0  0  0  0  0
   13.1018    3.1091   11.9267 H   0  0  0  0  0  0  0  0  0  0  0  0
   10.1893    1.3188    8.8192 C   0  0  0  0  0  0  0  0  0  0  0  0
    8.9742    1.6096    9.3410 F   0  0  0  0  0  0  0  0  0  0  0  0
   10.4531    2.3482    7.9758 F   0  0  0  0  0  0  0  0  0  0  0  0
   10.0212    0.2375    8.0644 F   0  0  0  0  0  0  0  0  0  0  0  0
   13.5270    5.5387    6.1706 C   0  0  0  0  0  0  0  0  0  0  0  0
   13.2374    4.7543    5.0459 C   0  0  0  0  0  0  0  0  0  0  0  0
   14.2323    4.4016    4.1498 C   0  0  0  0  0  0  0  0  0  0  0  0
   14.0182    3.7871    3.2902 H   0  0  0  0  0  0  0  0  0  0  0  0
   15.5200    4.8427    4.3972 C   0  0  0  0  0  0  0  0  0  0  0  0
   16.4894    4.5196    3.5283 F   0  0  0  0  0  0  0  0  0  0  0  0
   15.8358    5.6046    5.5107 C   0  0  0  0  0  0  0  0  0  0  0  0
   16.8565    5.9077    5.6789 H   0  0  0  0  0  0  0  0  0  0  0  0
   14.8381    5.9500    6.3995 C   0  0  0  0  0  0  0  0  0  0  0  0
   15.0612    6.5124    7.2927 H   0  0  0  0  0  0  0  0  0  0  0  0
   11.8249    4.2907    4.8573 C   0  0  0  0  0  0  0  0  0  0  0  0
   11.0091    5.2928    4.4533 F   0  0  0  0  0  0  0  0  0  0  0  0
   11.2658    3.8404    6.0095 F   0  0  0  0  0  0  0  0  0  0  0  0
   11.6922    3.3181    3.9612 F   0  0  0  0  0  0  0  0  0  0  0  0
  1  4  1  0  0  0  0
  1  2  1  0  0  0  0
  1 14  1  0  0  0  0
  3  1  1  0  0  0  0
  4  5  1  0  0  0  0
  5  6  1  0  0  0  0
  5 13  2  0  0  0  0
  6  7  1  0  0  0  0
  8  9  1  0  0  0  0
  8  6  2  0  0  0  0
 10  8  1  0  0  0  0
 11 10  1  0  0  0  0
 12 10  2  0  0  0  0
 12  4  1  0  0  0  0
 13 15  1  0  0  0  0
 14 25  1  0  0  0  0
 14 13  1  0  0  0  0
 15 18  1  0  0  0  0
 15 17  1  0  0  0  0
 16 15  1  0  0  0  0
 19 21  1  6  0  0  0
 19 20  1  0  0  0  0
 19 12  1  0  0  0  0
 20  1  1  0  0  0  0
 21 23  1  0  0  0  0
 22 21  1  0  0  0  0
 24 21  1  0  0  0  0
 25 33  1  0  0  0  0
 26 27  1  0  0  0  0
 26 25  2  0  0  0  0
 27 29  2  0  0  0  0
 28 27  1  0  0  0  0
 29 30  1  0  0  0  0
 29 31  1  0  0  0  0
 31 32  1  0  0  0  0
 33 31  2  0  0  0  0
 33 34  1  0  0  0  0
 35 36  1  0  0  0  0
 35 26  1  0  0  0  0
 37 35  1  0  0  0  0
 38 35  1  0  0  0  0
 39 47  1  0  0  0  0
 39 20  1  0  0  0  0
 40 39  2  0  0  0  0
 41 43  2  0  0  0  0
 41 40  1  0  0  0  0
 42 41  1  0  0  0  0
 43 45  1  0  0  0  0
 44 43  1  0  0  0  0
 45 46  1  0  0  0  0
 45 47  2  0  0  0  0
 47 48  1  0  0  0  0
 49 40  1  0  0  0  0
 49 51  1  0  0  0  0
 50 49  1  0  0  0  0
 52 49  1  0  0  0  0
M  END
$$$$
