CSD_code = FEQPOG | q = 0 | S = 0 | Stoichiometry = C9H10Cl5NO3PtS | MND = 6
 OpenBabel04212202033D

 30 31  0  0  0  0  0  0  0  0999 V2000
    3.4939    1.5350    3.3858 Pt  0  0  0  0  0  0  0  0  0  0  0  0
    3.4875    0.9631    1.0899 Cl  0  0  0  0  0  0  0  0  0  0  0  0
    3.5144    2.2172    5.6455 Cl  0  0  0  0  0  0  0  0  0  0  0  0
    3.2873   -0.6915    4.0313 Cl  0  0  0  0  0  0  0  0  0  0  0  0
    5.0944    5.6860    1.6748 Cl  0  0  0  0  0  0  0  0  0  0  0  0
    0.1185    7.1925    0.3122 Cl  0  0  0  0  0  0  0  0  0  0  0  0
    5.7982    1.2047    3.4579 S   0  0  0  0  0  0  0  0  0  0  0  0
    6.5955    2.3445    3.0974 O   0  0  0  0  0  1  0  0  0  0  0  0
    3.8260    3.4646    2.8293 O   0  0  0  0  0  0  0  0  0  0  0  0
    0.6696    0.8137    3.8215 O   0  0  0  0  0  0  0  0  0  0  0  0
    1.2336    0.0354    4.0447 H   0  0  0  0  0  0  0  0  0  0  0  0
    1.4799    1.7898    3.3084 N   0  0  0  0  0  0  0  0  0  0  0  0
    6.3507    0.6169    5.0813 C   0  0  0  0  0  0  0  0  0  0  0  0
    7.4187    0.4363    5.0292 H   0  0  0  0  0  0  0  0  0  0  0  0
    5.8009   -0.2849    5.3255 H   0  0  0  0  0  0  0  0  0  0  0  0
    6.1326    1.3942    5.8064 H   0  0  0  0  0  0  0  0  0  0  0  0
    6.3091   -0.1904    2.4184 C   0  0  0  0  0  0  0  0  0  0  0  0
    5.7952   -1.0818    2.7593 H   0  0  0  0  0  0  0  0  0  0  0  0
    7.3859   -0.2909    2.4975 H   0  0  0  0  0  0  0  0  0  0  0  0
    6.0242    0.0369    1.3960 H   0  0  0  0  0  0  0  0  0  0  0  0
    0.9047    2.8302    2.8209 C   0  0  0  0  0  3  0  0  0  0  0  0
   -0.1835    2.8231    2.8381 H   0  0  0  0  0  0  0  0  0  0  0  0
    1.5303    3.9795    2.2528 C   0  0  0  0  0  0  0  0  0  0  0  0
    2.9364    4.2091    2.2752 C   0  0  0  0  0  0  0  0  0  0  0  0
    3.4016    5.4063    1.6517 C   0  0  0  0  0  0  0  0  0  0  0  0
    2.5532    6.3076    1.0617 C   0  0  0  0  0  0  0  0  0  0  0  0
    2.9502    7.1973    0.6002 H   0  0  0  0  0  0  0  0  0  0  0  0
    1.1778    6.0574    1.0599 C   0  0  0  0  0  0  0  0  0  0  0  0
    0.6763    4.9237    1.6437 C   0  0  0  0  0  0  0  0  0  0  0  0
   -0.3858    4.7377    1.6321 H   0  0  0  0  0  0  0  0  0  0  0  0
  1  7  1  0  0  0  0
  1  4  1  0  0  0  0
  1  3  1  0  0  0  0
  2  1  1  0  0  0  0
  6 28  1  0  0  0  0
  7 13  1  0  0  0  0
  8  7  1  0  0  0  0
  9  1  1  0  0  0  0
 10 11  1  0  0  0  0
 12  1  1  0  0  0  0
 12 10  1  0  0  0  0
 13 15  1  0  0  0  0
 13 16  1  0  0  0  0
 14 13  1  0  0  0  0
 17 19  1  0  0  0  0
 17 18  1  0  0  0  0
 17  7  1  0  0  0  0
 20 17  1  0  0  0  0
 21 22  1  0  0  0  0
 21 12  1  0  0  0  0
 23 24  1  0  0  0  0
 23 21  1  0  0  0  0
 24  9  1  0  0  0  0
 25  5  1  0  0  0  0
 25 24  2  0  0  0  0
 26 25  1  0  0  0  0
 27 26  1  0  0  0  0
 28 26  2  0  0  0  0
 28 29  1  0  0  0  0
 29 23  2  0  0  0  0
 30 29  1  0  0  0  0
M  END
$$$$
