CSD_code = FEQTIG | q = 0 | S = 0 | Stoichiometry = C33H25Cl2NO2PReS | MND = 6
 OpenBabel04212202033D

 66 72  0  0  0  0  0  0  0  0999 V2000
    8.2813    0.9547    5.1507 C   0  0  0  0  0  0  0  0  0  0  0  0
    7.3941    1.4734    6.0851 C   0  0  0  0  0  0  0  0  0  0  0  0
    7.3623    2.5355    6.2688 H   0  0  0  0  0  0  0  0  0  0  0  0
    6.5671    0.6044    6.7637 C   0  0  0  0  0  0  0  0  0  0  0  0
    5.8713    0.9884    7.4941 H   0  0  0  0  0  0  0  0  0  0  0  0
    6.6164   -0.7703    6.5200 C   0  0  0  0  0  0  0  0  0  0  0  0
    5.9570   -1.4280    7.0666 H   0  0  0  0  0  0  0  0  0  0  0  0
    7.4904   -1.2919    5.5958 C   0  0  0  0  0  0  0  0  0  0  0  0
    7.5289   -2.3544    5.4056 H   0  0  0  0  0  0  0  0  0  0  0  0
    8.3373   -0.4312    4.8901 C   0  0  0  0  0  0  0  0  0  0  0  0
    9.2958   -0.7394    3.8922 C   0  0  0  0  0  0  0  0  0  0  0  0
    9.5157   -1.7426    3.5715 H   0  0  0  0  0  0  0  0  0  0  0  0
    9.9513    0.3654    3.4269 C   0  0  0  0  0  0  0  0  0  0  0  0
   10.8883   -0.4063    1.4709 C   0  0  0  0  0  3  0  0  0  0  0  0
   10.0186   -1.0626    1.3948 H   0  0  0  0  0  0  0  0  0  0  0  0
   11.8324   -0.5277    0.4064 C   0  0  0  0  0  0  0  0  0  0  0  0
   11.6582   -1.5477   -0.5394 C   0  0  0  0  0  0  0  0  0  0  0  0
   10.8324   -2.2327   -0.4096 H   0  0  0  0  0  0  0  0  0  0  0  0
   12.5172   -1.6925   -1.6019 C   0  0  0  0  0  0  0  0  0  0  0  0
   12.3734   -2.4901   -2.3140 H   0  0  0  0  0  0  0  0  0  0  0  0
   13.5711   -0.7948   -1.7643 C   0  0  0  0  0  0  0  0  0  0  0  0
   14.2401   -0.9002   -2.6055 H   0  0  0  0  0  0  0  0  0  0  0  0
   13.7658    0.2267   -0.8662 C   0  0  0  0  0  0  0  0  0  0  0  0
   14.5757    0.9299   -0.9894 H   0  0  0  0  0  0  0  0  0  0  0  0
   12.9179    0.3812    0.2458 C   0  0  0  0  0  0  0  0  0  0  0  0
   13.7808   -1.4613    2.9458 C   0  0  0  0  0  0  0  0  0  0  0  0
   12.6763   -2.0268    3.5818 C   0  0  0  0  0  0  0  0  0  0  0  0
   12.2293   -1.5078    4.4202 H   0  0  0  0  0  0  0  0  0  0  0  0
   12.1660   -3.2315    3.1386 C   0  0  0  0  0  0  0  0  0  0  0  0
   11.3204   -3.6779    3.6416 H   0  0  0  0  0  0  0  0  0  0  0  0
   12.7385   -3.8693    2.0482 C   0  0  0  0  0  0  0  0  0  0  0  0
   12.3334   -4.8070    1.6984 H   0  0  0  0  0  0  0  0  0  0  0  0
   13.8282   -3.3045    1.4072 C   0  0  0  0  0  0  0  0  0  0  0  0
   14.2718   -3.7989    0.5561 H   0  0  0  0  0  0  0  0  0  0  0  0
   14.3513   -2.1033    1.8521 C   0  0  0  0  0  0  0  0  0  0  0  0
   15.2009   -1.6616    1.3504 H   0  0  0  0  0  0  0  0  0  0  0  0
   14.5721    0.0660    5.2694 C   0  0  0  0  0  0  0  0  0  0  0  0
   14.6043    1.2631    5.9802 C   0  0  0  0  0  0  0  0  0  0  0  0
   14.4355    2.1949    5.4561 H   0  0  0  0  0  0  0  0  0  0  0  0
   14.8317    1.2464    7.3439 C   0  0  0  0  0  0  0  0  0  0  0  0
   14.8522    2.1734    7.8961 H   0  0  0  0  0  0  0  0  0  0  0  0
   15.0260    0.0413    8.0006 C   0  0  0  0  0  0  0  0  0  0  0  0
   15.1996    0.0282    9.0664 H   0  0  0  0  0  0  0  0  0  0  0  0
   14.9914   -1.1499    7.2942 C   0  0  0  0  0  0  0  0  0  0  0  0
   15.1392   -2.0889    7.8077 H   0  0  0  0  0  0  0  0  0  0  0  0
   14.7655   -1.1435    5.9291 C   0  0  0  0  0  0  0  0  0  0  0  0
   14.7323   -2.0755    5.3808 H   0  0  0  0  0  0  0  0  0  0  0  0
   15.9940    0.3363    2.8011 C   0  0  0  0  0  0  0  0  0  0  0  0
   17.0210   -0.4178    3.3639 C   0  0  0  0  0  0  0  0  0  0  0  0
   16.8207   -1.0502    4.2173 H   0  0  0  0  0  0  0  0  0  0  0  0
   18.2953   -0.3498    2.8332 C   0  0  0  0  0  0  0  0  0  0  0  0
   19.0907   -0.9337    3.2723 H   0  0  0  0  0  0  0  0  0  0  0  0
   18.5537    0.4675    1.7437 C   0  0  0  0  0  0  0  0  0  0  0  0
   19.5517    0.5201    1.3346 H   0  0  0  0  0  0  0  0  0  0  0  0
   17.5352    1.2219    1.1870 C   0  0  0  0  0  0  0  0  0  0  0  0
   17.7377    1.8675    0.3456 H   0  0  0  0  0  0  0  0  0  0  0  0
   16.2563    1.1593    1.7123 C   0  0  0  0  0  0  0  0  0  0  0  0
   15.4689    1.7681    1.2948 H   0  0  0  0  0  0  0  0  0  0  0  0
   10.9502    0.4048    2.4752 N   0  0  0  0  0  0  0  0  0  0  0  0
   13.1156    1.3339    1.1013 O   0  0  0  0  0  0  0  0  0  0  0  0
   12.1247    2.0884    4.4038 O   0  0  0  0  0  1  0  0  0  0  0  0
   14.3125    0.1872    3.4788 P   0  0  0  0  0  4  0  0  0  0  0  0
    9.4167    1.8461    4.1800 S   0  0  0  0  0  0  0  0  0  0  0  0
   11.1883    3.4362    1.8179 Cl  0  0  0  0  0  0  0  0  0  0  0  0
   14.2707    3.4887    2.9210 Cl  0  0  0  0  0  0  0  0  0  0  0  0
   12.6065    1.9049    2.8273 Re  0  0  0  0  0  0  0  0  0  0  0  0
  1  2  1  0  0  0  0
  2  3  1  0  0  0  0
  2  4  2  0  0  0  0
  4  5  1  0  0  0  0
  6  4  1  0  0  0  0
  6  7  1  0  0  0  0
  8  6  2  0  0  0  0
  9  8  1  0  0  0  0
 10  1  2  0  0  0  0
 10  8  1  0  0  0  0
 11 10  1  0  0  0  0
 12 11  1  0  0  0  0
 13 11  2  0  0  0  0
 13 63  1  0  0  0  0
 14 59  1  0  0  0  0
 15 14  1  0  0  0  0
 16 14  1  0  0  0  0
 17 18  1  0  0  0  0
 17 16  2  0  0  0  0
 19 17  1  0  0  0  0
 20 19  1  0  0  0  0
 21 19  2  0  0  0  0
 21 23  1  0  0  0  0
 22 21  1  0  0  0  0
 23 25  2  0  0  0  0
 24 23  1  0  0  0  0
 25 16  1  0  0  0  0
 25 60  1  0  0  0  0
 26 62  1  0  0  0  0
 26 27  1  0  0  0  0
 27 28  1  0  0  0  0
 29 27  2  0  0  0  0
 29 30  1  0  0  0  0
 31 29  1  0  0  0  0
 32 31  1  0  0  0  0
 33 35  1  0  0  0  0
 33 31  2  0  0  0  0
 34 33  1  0  0  0  0
 35 26  2  0  0  0  0
 36 35  1  0  0  0  0
 37 46  2  0  0  0  0
 37 38  1  0  0  0  0
 38 40  2  0  0  0  0
 39 38  1  0  0  0  0
 40 41  1  0  0  0  0
 40 42  1  0  0  0  0
 42 43  1  0  0  0  0
 44 45  1  0  0  0  0
 44 42  2  0  0  0  0
 46 44  1  0  0  0  0
 47 46  1  0  0  0  0
 48 49  1  0  0  0  0
 48 62  1  0  0  0  0
 49 50  1  0  0  0  0
 51 52  1  0  0  0  0
 51 49  2  0  0  0  0
 53 51  1  0  0  0  0
 54 53  1  0  0  0  0
 55 57  1  0  0  0  0
 55 53  2  0  0  0  0
 56 55  1  0  0  0  0
 57 48  2  0  0  0  0
 58 57  1  0  0  0  0
 59 66  1  0  0  0  0
 59 13  1  0  0  0  0
 60 66  1  0  0  0  0
 62 37  1  0  0  0  0
 63  1  1  0  0  0  0
 64 66  1  0  0  0  0
 66 65  1  0  0  0  0
 66 62  1  0  0  0  0
 66 61  1  0  0  0  0
M  END
$$$$
