CSD_code = FEQXUX | q = 1 | S = 0 | Stoichiometry = C31H23ClN5O2Ru(1+) | MND = 6
 OpenBabel04212202033D

 63 71  0  0  1  0  0  0  0  0999 V2000
    6.4423    3.4030   12.1773 Ru  0  0  0  0  0  0  0  0  0  0  0  0
    8.4945    3.2928   11.0391 Cl  0  0  0  0  0  0  0  0  0  0  0  0
   11.3449    1.0464   15.9789 O   0  0  0  0  0  0  0  0  0  0  0  0
    8.9685   -3.7731   17.2035 O   0  0  0  0  0  0  0  0  0  0  0  0
    7.2862    4.7582   13.4147 N   0  0  0  0  0  0  0  0  0  0  0  0
    7.2682    2.2114   13.3896 N   0  0  0  0  0  0  0  0  0  0  0  0
    5.9410    1.6620   11.2874 N   0  0  0  0  0  0  0  0  0  0  0  0
    5.5865    4.6697   10.8875 N   0  0  0  0  0  0  0  0  0  0  0  0
    4.6445    3.6102   13.0205 N   0  0  0  0  0  0  0  0  0  0  0  0
    7.2638    6.0860   13.3361 C   0  0  0  0  0  3  0  0  0  0  0  0
    7.9662    6.9055   14.2000 C   0  0  0  0  0  0  0  0  0  0  0  0
    8.7340    6.3220   15.1992 C   0  0  0  0  0  0  0  0  0  0  0  0
    8.7657    4.9433   15.2898 C   0  0  0  0  0  0  0  0  0  0  0  0
    8.0362    4.1762   14.3839 C   0  0  0  0  0  0  0  0  0  0  0  0
    8.0413    2.7123   14.3662 C   0  0  2  0  0  3  0  0  0  0  0  0
    8.7767    1.8698   15.1891 C   0  0  0  0  0  0  0  0  0  0  0  0
    8.7357    0.4899   14.9739 C   0  0  0  0  0  0  0  0  0  0  0  0
    7.9759    0.0081   13.9026 C   0  0  0  0  0  0  0  0  0  0  0  0
    7.2557    0.8967   13.1167 C   0  0  0  0  0  0  0  0  0  0  0  0
    6.4796    0.5859   11.9144 C   0  0  2  0  0  3  0  0  0  0  0  0
    6.3126   -0.7015   11.4085 C   0  0  0  0  0  0  0  0  0  0  0  0
    5.5957   -0.8905   10.2420 C   0  0  0  0  0  0  0  0  0  0  0  0
    5.0544    0.2195    9.6070 C   0  0  0  0  0  0  0  0  0  0  0  0
    5.2526    1.4685   10.1657 C   0  0  0  0  0  0  0  0  0  0  0  0
    9.4836   -0.4457   15.8186 C   0  0  0  0  0  0  0  0  0  0  0  0
   10.7717   -0.1485   16.2928 C   0  0  0  0  0  0  0  0  0  0  0  0
   11.4513   -1.0916   17.0526 C   0  0  0  0  0  0  0  0  0  0  0  0
   10.8755   -2.3062   17.3706 C   0  0  0  0  0  0  0  0  0  0  0  0
    9.5941   -2.6045   16.9205 C   0  0  0  0  0  0  0  0  0  0  0  0
    8.9173   -1.6745   16.1433 C   0  0  0  0  0  0  0  0  0  0  0  0
    6.1687    5.1636    9.7928 C   0  0  0  0  0  3  0  0  0  0  0  0
    5.5345    6.0479    8.9411 C   0  0  0  0  0  0  0  0  0  0  0  0
    4.2342    6.4467    9.2280 C   0  0  0  0  0  0  0  0  0  0  0  0
    3.6215    5.9400   10.3588 C   0  0  0  0  0  0  0  0  0  0  0  0
    4.3180    5.0500   11.1762 C   0  0  0  0  0  0  0  0  0  0  0  0
    3.7820    4.4448   12.3910 C   0  0  1  0  0  3  0  0  0  0  0  0
    2.5014    4.6745   12.8932 C   0  0  0  0  0  0  0  0  0  0  0  0
    2.0968    4.0406   14.0519 C   0  0  0  0  0  0  0  0  0  0  0  0
    2.9895    3.1838   14.6869 C   0  0  0  0  0  0  0  0  0  0  0  0
    4.2427    3.0019   14.1389 C   0  0  0  0  0  0  0  0  0  0  0  0
    6.6626    6.5119   12.5407 H   0  0  0  0  0  0  0  0  0  0  0  0
    7.9187    7.9760   14.0861 H   0  0  0  0  0  0  0  0  0  0  0  0
    9.2998    6.9306   15.8865 H   0  0  0  0  0  0  0  0  0  0  0  0
    9.3593    4.4575   16.0463 H   0  0  0  0  0  0  0  0  0  0  0  0
    9.3900    2.2672   15.9780 H   0  0  0  0  0  0  0  0  0  0  0  0
    7.9888   -1.0439   13.6722 H   0  0  0  0  0  0  0  0  0  0  0  0
    6.7510   -1.5414   11.9217 H   0  0  0  0  0  0  0  0  0  0  0  0
    5.4660   -1.8793    9.8318 H   0  0  0  0  0  0  0  0  0  0  0  0
    4.4950    0.1206    8.6914 H   0  0  0  0  0  0  0  0  0  0  0  0
    4.8483    2.3548    9.6898 H   0  0  0  0  0  0  0  0  0  0  0  0
   12.4497   -0.8681   17.4026 H   0  0  0  0  0  0  0  0  0  0  0  0
   11.4226   -3.0203   17.9692 H   0  0  0  0  0  0  0  0  0  0  0  0
    7.9188   -1.9178   15.8172 H   0  0  0  0  0  0  0  0  0  0  0  0
    7.1824    4.8268    9.6089 H   0  0  0  0  0  0  0  0  0  0  0  0
    6.0501    6.4170    8.0699 H   0  0  0  0  0  0  0  0  0  0  0  0
    3.7117    7.1359    8.5842 H   0  0  0  0  0  0  0  0  0  0  0  0
    2.6142    6.2315   10.6057 H   0  0  0  0  0  0  0  0  0  0  0  0
    1.8308    5.3429   12.3797 H   0  0  0  0  0  0  0  0  0  0  0  0
    1.1105    4.2069   14.4539 H   0  0  0  0  0  0  0  0  0  0  0  0
    2.7164    2.6668   15.5920 H   0  0  0  0  0  0  0  0  0  0  0  0
    4.9596    2.3414   14.6122 H   0  0  0  0  0  0  0  0  0  0  0  0
   12.2665    1.0482   16.2661 H   0  0  0  0  0  0  0  0  0  0  0  0
    9.5349   -4.3360   17.7452 H   0  0  0  0  0  0  0  0  0  0  0  0
  1  9  1  0  0  0  0
  1  6  1  0  0  0  0
  1  5  1  0  0  0  0
  2  1  1  0  0  0  0
  3 62  1  0  0  0  0
  3 26  1  0  0  0  0
  4 63  1  0  0  0  0
  5 14  1  0  0  0  0
  6 15  1  0  0  0  0
  7 20  1  0  0  0  0
  7  1  1  0  0  0  0
  8 35  1  0  0  0  0
  8  1  1  0  0  0  0
  9 40  1  0  0  0  0
 10  5  1  0  0  0  0
 10 11  1  0  0  0  0
 11 12  2  0  0  0  0
 12 13  1  0  0  0  0
 12 43  1  0  0  0  0
 13 44  1  0  0  0  0
 14 13  2  0  0  0  0
 15 14  1  6  0  0  0
 15 16  1  0  0  0  0
 16 45  1  0  0  0  0
 17 16  2  0  0  0  0
 17 25  1  0  0  0  0
 18 17  1  0  0  0  0
 19  6  1  0  0  0  0
 19 18  2  0  0  0  0
 20 21  1  6  0  0  0
 20 19  1  0  0  0  0
 21 47  1  0  0  0  0
 22 21  2  0  0  0  0
 23 24  2  0  0  0  0
 23 22  1  0  0  0  0
 24  7  1  0  0  0  0
 25 30  2  0  0  0  0
 25 26  1  0  0  0  0
 26 27  2  0  0  0  0
 27 28  1  0  0  0  0
 27 51  1  0  0  0  0
 28 52  1  0  0  0  0
 29  4  1  0  0  0  0
 29 28  2  0  0  0  0
 30 29  1  0  0  0  0
 31  8  1  0  0  0  0
 32 33  2  0  0  0  0
 32 31  1  0  0  0  0
 33 34  1  0  0  0  0
 34 57  1  0  0  0  0
 34 35  2  0  0  0  0
 36 35  1  6  0  0  0
 36 37  1  0  0  0  0
 36  9  1  0  0  0  0
 37 38  2  0  0  0  0
 38 59  1  0  0  0  0
 38 39  1  0  0  0  0
 39 60  1  0  0  0  0
 40 61  1  0  0  0  0
 40 39  2  0  0  0  0
 41 10  1  0  0  0  0
 42 11  1  0  0  0  0
 46 18  1  0  0  0  0
 48 22  1  0  0  0  0
 49 23  1  0  0  0  0
 50 24  1  0  0  0  0
 53 30  1  0  0  0  0
 54 31  1  0  0  0  0
 55 32  1  0  0  0  0
 56 33  1  0  0  0  0
 58 37  1  0  0  0  0
M  END
$$$$
