CSD_code = FERGAL | q = 0 | S = 0 | Stoichiometry = C26H21ClO5P2Pd | MND = 4
 OpenBabel04212202033D

 56 61  0  0  0  0  0  0  0  0999 V2000
    5.7789    5.9387    5.7283 Pd  0  0  2  0  0  0  0  0  0  0  0  0
    4.2462    7.0633    4.5714 P   0  0  0  0  0  4  0  0  0  0  0  0
    4.8653    4.0224    6.3252 P   0  0  0  0  0  4  0  0  0  0  0  0
    7.2427    4.9715    7.1873 Cl  0  0  0  0  0  0  0  0  0  0  0  0
    7.0903    9.4423    4.0170 O   0  0  0  0  0  0  0  0  0  0  0  0
    6.9499    7.5084    5.0793 O   0  0  0  0  0  0  0  0  0  0  0  0
    3.2039    4.3256    4.3395 O   0  0  0  0  0  0  0  0  0  0  0  0
    3.9341    2.0773    7.9034 O   0  0  0  0  0  0  0  0  0  0  0  0
    5.5421    1.5843    5.2115 O   0  0  0  0  0  0  0  0  0  0  0  0
    4.9094    8.7502    4.7632 C   0  0  0  0  0  0  0  0  0  0  0  0
    4.5003    9.4811    4.0614 H   0  0  0  0  0  0  0  0  0  0  0  0
    4.7298    9.0845    5.7926 H   0  0  0  0  0  0  0  0  0  0  0  0
    6.4690    8.5736    4.5855 C   0  0  0  0  0  0  0  0  0  0  0  0
    2.6426    7.0719    5.4274 C   0  0  0  0  0  0  0  0  0  0  0  0
    2.7594    6.9822    6.8156 C   0  0  0  0  0  0  0  0  0  0  0  0
    3.7605    6.9484    7.2671 H   0  0  0  0  0  0  0  0  0  0  0  0
    1.6281    6.9259    7.6048 C   0  0  0  0  0  0  0  0  0  0  0  0
    1.7179    6.8555    8.6785 H   0  0  0  0  0  0  0  0  0  0  0  0
    0.3741    6.9489    7.0110 C   0  0  0  0  0  0  0  0  0  0  0  0
   -0.5124    6.8976    7.6250 H   0  0  0  0  0  0  0  0  0  0  0  0
    0.2565    7.0303    5.6342 C   0  0  0  0  0  0  0  0  0  0  0  0
   -0.7212    7.0415    5.1758 H   0  0  0  0  0  0  0  0  0  0  0  0
    1.3878    7.0900    4.8370 C   0  0  0  0  0  0  0  0  0  0  0  0
    1.2933    7.1376    3.7623 H   0  0  0  0  0  0  0  0  0  0  0  0
    4.0575    6.8620    2.7846 C   0  0  0  0  0  0  0  0  0  0  0  0
    3.2864    7.7117    1.9991 C   0  0  0  0  0  0  0  0  0  0  0  0
    2.7344    8.5222    2.4549 H   0  0  0  0  0  0  0  0  0  0  0  0
    3.2441    7.5211    0.6294 C   0  0  0  0  0  0  0  0  0  0  0  0
    2.6461    8.1768    0.0138 H   0  0  0  0  0  0  0  0  0  0  0  0
    3.9773    6.5001    0.0447 C   0  0  0  0  0  0  0  0  0  0  0  0
    3.9440    6.3619   -1.0257 H   0  0  0  0  0  0  0  0  0  0  0  0
    4.7633    5.6666    0.8251 C   0  0  0  0  0  0  0  0  0  0  0  0
    5.3457    4.8834    0.3633 H   0  0  0  0  0  0  0  0  0  0  0  0
    4.8043    5.8465    2.1954 C   0  0  0  0  0  0  0  0  0  0  0  0
    5.4170    5.2116    2.8336 H   0  0  0  0  0  0  0  0  0  0  0  0
    3.2305    3.7679    5.5765 C   0  0  0  0  0  0  0  0  0  0  0  0
    2.0049    3.2391    5.8701 C   0  0  0  0  0  0  0  0  0  0  0  0
    1.7222    2.7365    6.7714 H   0  0  0  0  0  0  0  0  0  0  0  0
    1.1933    3.4730    4.7353 C   0  0  0  0  0  0  0  0  0  0  0  0
    0.1691    3.1871    4.6113 H   0  0  0  0  0  0  0  0  0  0  0  0
    1.9759    4.1330    3.8398 C   0  0  0  0  0  0  0  0  0  0  0  0
    1.7852    4.4967    2.8489 H   0  0  0  0  0  0  0  0  0  0  0  0
    4.6740    3.2111    7.9108 C   0  0  0  0  0  0  0  0  0  0  0  0
    5.1155    3.4806    9.1784 C   0  0  0  0  0  0  0  0  0  0  0  0
    5.7320    4.3057    9.4708 H   0  0  0  0  0  0  0  0  0  0  0  0
    4.6165    2.4394    9.9898 C   0  0  0  0  0  0  0  0  0  0  0  0
    4.7647    2.3173   11.0429 H   0  0  0  0  0  0  0  0  0  0  0  0
    3.9113    1.6198    9.1600 C   0  0  0  0  0  0  0  0  0  0  0  0
    3.3733    0.7096    9.3420 H   0  0  0  0  0  0  0  0  0  0  0  0
    5.8281    2.8999    5.2955 C   0  0  0  0  0  0  0  0  0  0  0  0
    6.8348    3.2293    4.4210 C   0  0  0  0  0  0  0  0  0  0  0  0
    7.2844    4.2117    4.2967 H   0  0  0  0  0  0  0  0  0  0  0  0
    7.1911    2.0239    3.7780 C   0  0  0  0  0  0  0  0  0  0  0  0
    7.9507    1.8882    3.0359 H   0  0  0  0  0  0  0  0  0  0  0  0
    6.3745    1.0646    4.3002 C   0  0  0  0  0  0  0  0  0  0  0  0
    6.2998    0.0113    4.1119 H   0  0  0  0  0  0  0  0  0  0  0  0
  1  3  1  0  0  0  0
  1  4  1  1  0  0  0
  2 10  1  0  0  0  0
  2 14  1  0  0  0  0
  2  1  1  0  0  0  0
  3 43  1  0  0  0  0
  5 13  2  0  0  0  0
  6  1  1  0  0  0  0
  7 36  1  0  0  0  0
  8 43  1  0  0  0  0
  8 48  1  0  0  0  0
  9 50  1  0  0  0  0
 10 12  1  0  0  0  0
 11 10  1  0  0  0  0
 13 10  1  0  0  0  0
 13  6  1  0  0  0  0
 14 15  1  0  0  0  0
 15 16  1  0  0  0  0
 15 17  2  0  0  0  0
 17 18  1  0  0  0  0
 19 17  1  0  0  0  0
 19 20  1  0  0  0  0
 21 19  2  0  0  0  0
 22 21  1  0  0  0  0
 23 14  2  0  0  0  0
 23 21  1  0  0  0  0
 24 23  1  0  0  0  0
 25  2  1  0  0  0  0
 26 27  1  0  0  0  0
 26 25  2  0  0  0  0
 28 26  1  0  0  0  0
 29 28  1  0  0  0  0
 30 28  2  0  0  0  0
 30 32  1  0  0  0  0
 31 30  1  0  0  0  0
 32 34  2  0  0  0  0
 33 32  1  0  0  0  0
 34 25  1  0  0  0  0
 34 35  1  0  0  0  0
 36 37  2  0  0  0  0
 36  3  1  0  0  0  0
 37 38  1  0  0  0  0
 39 37  1  0  0  0  0
 40 39  1  0  0  0  0
 41  7  1  0  0  0  0
 41 39  2  0  0  0  0
 42 41  1  0  0  0  0
 43 44  2  0  0  0  0
 44 45  1  0  0  0  0
 44 46  1  0  0  0  0
 46 47  1  0  0  0  0
 48 49  1  0  0  0  0
 48 46  2  0  0  0  0
 50  3  1  0  0  0  0
 51 50  2  0  0  0  0
 52 51  1  0  0  0  0
 53 55  2  0  0  0  0
 53 51  1  0  0  0  0
 54 53  1  0  0  0  0
 55  9  1  0  0  0  0
 56 55  1  0  0  0  0
M  END
$$$$
