CSD_code = FESTAZ | q = 0 | S = 0 | Stoichiometry = C30H31ClO2PRhS | MND = 4
 OpenBabel04212202033D

 67 73  0  0  1  0  0  0  0  0999 V2000
    9.7884   12.4085   19.6932 Rh  0  0  1  0  0  0  0  0  0  0  0  0
   11.1952   12.3073   21.4612 Cl  0  0  0  0  0  0  0  0  0  0  0  0
    8.2957   12.3977   18.0182 P   0  0  0  0  0  4  0  0  0  0  0  0
    8.3832    8.5955   21.8072 C   0  0  1  0  0  0  0  0  0  0  0  0
    9.2492    9.7048   21.2552 C   0  0  0  0  0  0  0  0  0  0  0  0
    9.6588    9.4220   20.2787 H   0  0  0  0  0  0  0  0  0  0  0  0
   10.0720    9.9491   21.9275 H   0  0  0  0  0  0  0  0  0  0  0  0
    8.3160   11.2567   21.0379 S   0  0  2  0  0  3  0  0  0  0  0  0
    6.9865   10.4750   19.9836 C   0  0  1  0  0  0  0  0  0  0  0  0
    7.5212    9.9843   19.1513 H   0  0  0  0  0  0  0  0  0  0  0  0
    6.3098    9.5493   20.7529 O   0  0  0  0  0  0  0  0  0  0  0  0
    7.0515    8.3753   21.0489 C   0  0  2  0  0  0  0  0  0  0  0  0
    7.2437    7.8609   20.0927 H   0  0  0  0  0  0  0  0  0  0  0  0
    6.2364    7.5131   22.0292 C   0  0  0  0  0  0  0  0  0  0  0  0
    5.3420    8.0580   22.3246 H   0  0  0  0  0  0  0  0  0  0  0  0
    5.9261    6.5700   21.5822 H   0  0  0  0  0  0  0  0  0  0  0  0
    7.1977    7.3046   23.2056 C   0  0  1  0  0  0  0  0  0  0  0  0
    6.7018    6.9775   24.1174 H   0  0  0  0  0  0  0  0  0  0  0  0
    8.2902    6.3483   22.7131 C   0  0  0  0  0  0  0  0  0  0  0  0
    7.8610    5.4792   22.2152 H   0  0  0  0  0  0  0  0  0  0  0  0
    8.9018    5.9860   23.5376 H   0  0  0  0  0  0  0  0  0  0  0  0
    9.0990    7.2289   21.7426 C   0  0  0  0  0  0  0  0  0  0  0  0
   10.1386    7.3311   22.0507 H   0  0  0  0  0  0  0  0  0  0  0  0
    9.0980    6.8311   20.7269 H   0  0  0  0  0  0  0  0  0  0  0  0
    7.9359    8.6578   23.2909 C   0  0  0  0  0  0  0  0  0  0  0  0
    9.0895    8.6777   24.2942 C   0  0  0  0  0  0  0  0  0  0  0  0
    9.6096    9.6317   24.2408 H   0  0  0  0  0  0  0  0  0  0  0  0
    9.8160    7.8894   24.1361 H   0  0  0  0  0  0  0  0  0  0  0  0
    8.6897    8.5713   25.3005 H   0  0  0  0  0  0  0  0  0  0  0  0
    7.0238    9.8283   23.6583 C   0  0  0  0  0  0  0  0  0  0  0  0
    7.6079   10.7420   23.7414 H   0  0  0  0  0  0  0  0  0  0  0  0
    6.5631    9.6331   24.6254 H   0  0  0  0  0  0  0  0  0  0  0  0
    6.2387    9.9969   22.9313 H   0  0  0  0  0  0  0  0  0  0  0  0
    6.5389   12.4590   18.5157 C   0  0  0  0  0  0  0  0  0  0  0  0
    6.0741   11.5422   19.4692 C   0  0  0  0  0  0  0  0  0  0  0  0
    4.7725   11.6370   19.9381 C   0  0  0  0  0  0  0  0  0  0  0  0
    4.4324   10.9254   20.6733 H   0  0  0  0  0  0  0  0  0  0  0  0
    3.9253   12.6227   19.4633 C   0  0  0  0  0  0  0  0  0  0  0  0
    2.9132   12.6846   19.8338 H   0  0  0  0  0  0  0  0  0  0  0  0
    4.3785   13.5285   18.5199 C   0  0  0  0  0  0  0  0  0  0  0  0
    3.7214   14.2996   18.1462 H   0  0  0  0  0  0  0  0  0  0  0  0
    5.6799   13.4525   18.0569 C   0  0  0  0  0  0  0  0  0  0  0  0
    6.0337   14.1678   17.3285 H   0  0  0  0  0  0  0  0  0  0  0  0
    8.4164   13.7507   16.8098 C   0  0  0  0  0  0  0  0  0  0  0  0
    8.3290   13.5971   15.4324 C   0  0  0  0  0  0  0  0  0  0  0  0
    8.1559   12.6205   15.0033 H   0  0  0  0  0  0  0  0  0  0  0  0
    8.4755   14.7009   14.6088 C   0  0  0  0  0  0  0  0  0  0  0  0
    8.4132   14.5801   13.5371 H   0  0  0  0  0  0  0  0  0  0  0  0
    8.7060   15.9534   15.1519 C   0  0  0  0  0  0  0  0  0  0  0  0
    8.8226   16.8087   14.5031 H   0  0  0  0  0  0  0  0  0  0  0  0
    8.7988   16.1098   16.5270 C   0  0  0  0  0  0  0  0  0  0  0  0
    8.9873   17.0851   16.9502 H   0  0  0  0  0  0  0  0  0  0  0  0
    8.6620   15.0112   17.3520 C   0  0  0  0  0  0  0  0  0  0  0  0
    8.7505   15.1063   18.4304 H   0  0  0  0  0  0  0  0  0  0  0  0
    8.3434   10.8934   16.9874 C   0  0  0  0  0  0  0  0  0  0  0  0
    7.2682   10.4669   16.2140 C   0  0  0  0  0  0  0  0  0  0  0  0
    6.3503   11.0393   16.2093 H   0  0  0  0  0  0  0  0  0  0  0  0
    7.3793    9.3087   15.4655 C   0  0  0  0  0  0  0  0  0  0  0  0
    6.5460    8.9764   14.8638 H   0  0  0  0  0  0  0  0  0  0  0  0
    8.5544    8.5734   15.4878 C   0  0  0  0  0  0  0  0  0  0  0  0
    8.6340    7.6696   14.9021 H   0  0  0  0  0  0  0  0  0  0  0  0
    9.6247    8.9912   16.2636 C   0  0  0  0  0  0  0  0  0  0  0  0
   10.5371    8.4137   16.2841 H   0  0  0  0  0  0  0  0  0  0  0  0
    9.5185   10.1481   17.0139 C   0  0  0  0  0  0  0  0  0  0  0  0
   10.3415   10.4936   17.6396 H   0  0  0  0  0  0  0  0  0  0  0  0
   11.0497   13.3249   18.7274 C   0  0  0  0  0  2  0  0  0  0  0  0
   11.8341   13.8972   18.1185 O   0  0  0  0  0  1  0  0  0  0  0  0
  1  8  1  0  0  0  0
  1  2  1  6  0  0  0
  3 34  1  0  0  0  0
  3  1  1  0  0  0  0
  4  5  1  6  0  0  0
  4 25  1  0  0  0  0
  5  7  1  0  0  0  0
  6  5  1  0  0  0  0
  8  5  1  6  0  0  0
  9 10  1  6  0  0  0
  9 11  1  0  0  0  0
  9  8  1  0  0  0  0
 11 12  1  0  0  0  0
 12 13  1  6  0  0  0
 12  4  1  0  0  0  0
 12 14  1  0  0  0  0
 14 15  1  0  0  0  0
 14 17  1  0  0  0  0
 16 14  1  0  0  0  0
 17 25  1  0  0  0  0
 17 18  1  1  0  0  0
 19 17  1  0  0  0  0
 19 21  1  0  0  0  0
 20 19  1  0  0  0  0
 22  4  1  0  0  0  0
 22 23  1  0  0  0  0
 22 19  1  0  0  0  0
 24 22  1  0  0  0  0
 25 30  1  0  0  0  0
 25 26  1  0  0  0  0
 26 29  1  0  0  0  0
 27 26  1  0  0  0  0
 28 26  1  0  0  0  0
 30 31  1  0  0  0  0
 30 32  1  0  0  0  0
 33 30  1  0  0  0  0
 34 35  1  0  0  0  0
 35 36  2  0  0  0  0
 35  9  1  0  0  0  0
 36 37  1  0  0  0  0
 38 39  1  0  0  0  0
 38 36  1  0  0  0  0
 40 38  2  0  0  0  0
 41 40  1  0  0  0  0
 42 34  2  0  0  0  0
 42 40  1  0  0  0  0
 43 42  1  0  0  0  0
 44 53  1  0  0  0  0
 44  3  1  0  0  0  0
 45 44  2  0  0  0  0
 46 45  1  0  0  0  0
 47 49  2  0  0  0  0
 47 45  1  0  0  0  0
 48 47  1  0  0  0  0
 49 51  1  0  0  0  0
 50 49  1  0  0  0  0
 51 52  1  0  0  0  0
 51 53  2  0  0  0  0
 53 54  1  0  0  0  0
 55 64  1  0  0  0  0
 55  3  1  0  0  0  0
 56 55  2  0  0  0  0
 57 56  1  0  0  0  0
 58 60  2  0  0  0  0
 58 56  1  0  0  0  0
 59 58  1  0  0  0  0
 60 62  1  0  0  0  0
 61 60  1  0  0  0  0
 62 63  1  0  0  0  0
 62 64  2  0  0  0  0
 64 65  1  0  0  0  0
 66  1  1  0  0  0  0
 67 66  1  0  0  0  0
M  END
$$$$
