CSD_code = FETFUF | q = 0 | S = 0 | Stoichiometry = C20H46FP2Rh | MND = 5
 OpenBabel04212202033D

 70 67  0  0  0  0  0  0  0  0999 V2000
   14.1683    1.0466    1.1012 Rh  0  0  0  0  0  0  0  0  0  0  0  0
   15.3267   -0.3734    2.5141 P   0  0  0  0  0  0  0  0  0  0  0  0
   12.8643    1.9926   -0.5613 P   0  0  0  0  0  0  0  0  0  0  0  0
   13.1446   -0.5682    0.6575 F   0  0  0  0  0  0  0  0  0  0  0  0
   15.6638    2.5488    1.0869 C   0  0  0  0  0  3  0  0  0  0  0  0
   16.6377    2.1873    1.3973 H   0  0  0  0  0  0  0  0  0  0  0  0
   15.6898    3.1075    0.1576 H   0  0  0  0  0  0  0  0  0  0  0  0
   14.7058    2.8562    2.0525 C   0  0  0  0  0  0  0  0  0  0  0  0
   13.9988    3.6558    1.8662 H   0  0  0  0  0  0  0  0  0  0  0  0
   14.9471    2.7266    3.1011 H   0  0  0  0  0  0  0  0  0  0  0  0
   16.5416   -1.4492    1.5776 C   0  0  0  0  0  0  0  0  0  0  0  0
   17.0919   -2.0774    2.2854 H   0  0  0  0  0  0  0  0  0  0  0  0
   14.1670   -1.6477    3.2405 C   0  0  0  0  0  0  0  0  0  0  0  0
   13.8071   -2.1473    2.3345 H   0  0  0  0  0  0  0  0  0  0  0  0
   16.4116    0.2962    3.9061 C   0  0  0  0  0  0  0  0  0  0  0  0
   16.8735    1.1849    3.4565 H   0  0  0  0  0  0  0  0  0  0  0  0
   15.8221   -2.3402    0.5699 C   0  0  0  0  0  0  0  0  0  0  0  0
   15.2894   -3.1520    1.0581 H   0  0  0  0  0  0  0  0  0  0  0  0
   16.5409   -2.7771   -0.1227 H   0  0  0  0  0  0  0  0  0  0  0  0
   15.1070   -1.7527   -0.0023 H   0  0  0  0  0  0  0  0  0  0  0  0
   17.5169   -0.5388    0.8349 C   0  0  0  0  0  0  0  0  0  0  0  0
   18.0577    0.1162    1.5154 H   0  0  0  0  0  0  0  0  0  0  0  0
   16.9633    0.0782    0.1258 H   0  0  0  0  0  0  0  0  0  0  0  0
   18.2459   -1.1295    0.2807 H   0  0  0  0  0  0  0  0  0  0  0  0
   12.9492   -0.9653    3.8617 C   0  0  0  0  0  0  0  0  0  0  0  0
   12.6335   -0.1389    3.2206 H   0  0  0  0  0  0  0  0  0  0  0  0
   13.1559   -0.5814    4.8568 H   0  0  0  0  0  0  0  0  0  0  0  0
   12.1233   -1.6711    3.9356 H   0  0  0  0  0  0  0  0  0  0  0  0
   14.7580   -2.6980    4.1725 C   0  0  0  0  0  0  0  0  0  0  0  0
   15.0388   -2.2677    5.1310 H   0  0  0  0  0  0  0  0  0  0  0  0
   15.6284   -3.1802    3.7330 H   0  0  0  0  0  0  0  0  0  0  0  0
   14.0108   -3.4681    4.3645 H   0  0  0  0  0  0  0  0  0  0  0  0
   17.5408   -0.5917    4.4229 C   0  0  0  0  0  0  0  0  0  0  0  0
   18.2879   -0.7845    3.6578 H   0  0  0  0  0  0  0  0  0  0  0  0
   17.1697   -1.5419    4.7944 H   0  0  0  0  0  0  0  0  0  0  0  0
   18.0392   -0.0821    5.2481 H   0  0  0  0  0  0  0  0  0  0  0  0
   15.5486    0.7733    5.0736 C   0  0  0  0  0  0  0  0  0  0  0  0
   14.6505    1.2740    4.7168 H   0  0  0  0  0  0  0  0  0  0  0  0
   16.1075    1.4720    5.6964 H   0  0  0  0  0  0  0  0  0  0  0  0
   15.2506   -0.0638    5.6998 H   0  0  0  0  0  0  0  0  0  0  0  0
   11.1060    1.3720   -0.4449 C   0  0  0  0  0  0  0  0  0  0  0  0
   11.2532    0.2950   -0.5815 H   0  0  0  0  0  0  0  0  0  0  0  0
   12.8170    3.8628   -0.8308 C   0  0  0  0  0  0  0  0  0  0  0  0
   13.8457    4.1720   -0.6044 H   0  0  0  0  0  0  0  0  0  0  0  0
   13.3890    1.3847   -2.2552 C   0  0  0  0  0  0  0  0  0  0  0  0
   12.8711    1.9609   -3.0278 H   0  0  0  0  0  0  0  0  0  0  0  0
   10.5732    1.5533    0.9756 C   0  0  0  0  0  0  0  0  0  0  0  0
   10.2229    2.5659    1.1566 H   0  0  0  0  0  0  0  0  0  0  0  0
   11.3673    1.3201    1.6901 H   0  0  0  0  0  0  0  0  0  0  0  0
    9.7437    0.8711    1.1549 H   0  0  0  0  0  0  0  0  0  0  0  0
   10.1146    1.8656   -1.4911 C   0  0  0  0  0  0  0  0  0  0  0  0
   10.5033    1.7397   -2.4992 H   0  0  0  0  0  0  0  0  0  0  0  0
    9.8627    2.9126   -1.3403 H   0  0  0  0  0  0  0  0  0  0  0  0
    9.1919    1.2905   -1.4130 H   0  0  0  0  0  0  0  0  0  0  0  0
   12.4880    4.3743   -2.2311 C   0  0  0  0  0  0  0  0  0  0  0  0
   13.2566    4.1044   -2.9508 H   0  0  0  0  0  0  0  0  0  0  0  0
   12.4327    5.4630   -2.2040 H   0  0  0  0  0  0  0  0  0  0  0  0
   11.5307    4.0012   -2.5832 H   0  0  0  0  0  0  0  0  0  0  0  0
   11.9055    4.5370    0.1939 C   0  0  0  0  0  0  0  0  0  0  0  0
   12.0154    4.0836    1.1767 H   0  0  0  0  0  0  0  0  0  0  0  0
   10.8634    4.4605   -0.1056 H   0  0  0  0  0  0  0  0  0  0  0  0
   12.1506    5.5962    0.2762 H   0  0  0  0  0  0  0  0  0  0  0  0
   13.0841   -0.0956   -2.4614 C   0  0  0  0  0  0  0  0  0  0  0  0
   12.0215   -0.2698   -2.6098 H   0  0  0  0  0  0  0  0  0  0  0  0
   13.4127   -0.6741   -1.6027 H   0  0  0  0  0  0  0  0  0  0  0  0
   13.6104   -0.4612   -3.3428 H   0  0  0  0  0  0  0  0  0  0  0  0
   14.8947    1.6162   -2.3617 C   0  0  0  0  0  0  0  0  0  0  0  0
   15.1442    2.6718   -2.2654 H   0  0  0  0  0  0  0  0  0  0  0  0
   15.2767    1.2605   -3.3180 H   0  0  0  0  0  0  0  0  0  0  0  0
   15.3951    1.0661   -1.5606 H   0  0  0  0  0  0  0  0  0  0  0  0
  1  8  1  0  0  0  0
  2 13  1  0  0  0  0
  2 15  1  0  0  0  0
  3 41  1  0  0  0  0
  4  1  1  0  0  0  0
  5  6  1  0  0  0  0
  5  8  1  0  0  0  0
  7  5  1  0  0  0  0
  8 10  1  0  0  0  0
  9  8  1  0  0  0  0
 11 12  1  0  0  0  0
 11  2  1  0  0  0  0
 13 25  1  0  0  0  0
 13 29  1  0  0  0  0
 14 13  1  0  0  0  0
 15 33  1  0  0  0  0
 15 37  1  0  0  0  0
 16 15  1  0  0  0  0
 17 18  1  0  0  0  0
 17 11  1  0  0  0  0
 19 17  1  0  0  0  0
 20 17  1  0  0  0  0
 21 22  1  0  0  0  0
 21 11  1  0  0  0  0
 23 21  1  0  0  0  0
 24 21  1  0  0  0  0
 25 28  1  0  0  0  0
 25 27  1  0  0  0  0
 26 25  1  0  0  0  0
 29 32  1  0  0  0  0
 29 30  1  0  0  0  0
 31 29  1  0  0  0  0
 33 35  1  0  0  0  0
 33 36  1  0  0  0  0
 34 33  1  0  0  0  0
 37 39  1  0  0  0  0
 37 40  1  0  0  0  0
 38 37  1  0  0  0  0
 41 47  1  0  0  0  0
 42 41  1  0  0  0  0
 43 44  1  0  0  0  0
 43  3  1  0  0  0  0
 43 59  1  0  0  0  0
 45  3  1  0  0  0  0
 46 45  1  0  0  0  0
 47 50  1  0  0  0  0
 47 48  1  0  0  0  0
 47 49  1  0  0  0  0
 51 54  1  0  0  0  0
 51 53  1  0  0  0  0
 51 41  1  0  0  0  0
 52 51  1  0  0  0  0
 55 57  1  0  0  0  0
 55 43  1  0  0  0  0
 56 55  1  0  0  0  0
 58 55  1  0  0  0  0
 59 62  1  0  0  0  0
 59 60  1  0  0  0  0
 61 59  1  0  0  0  0
 63 45  1  0  0  0  0
 63 65  1  0  0  0  0
 64 63  1  0  0  0  0
 66 63  1  0  0  0  0
 67 68  1  0  0  0  0
 67 45  1  0  0  0  0
 67 70  1  0  0  0  0
 69 67  1  0  0  0  0
M  END
$$$$
