CSD_code = FEVNAY | q = 0 | S = 0 | Stoichiometry = C24H16Cl2N4O2Zn | MND = 4
 OpenBabel04212202033D

 49 56  0  0  1  0  0  0  0  0999 V2000
    8.5242    6.4138    9.6523 Zn  0  0  0  0  0  0  0  0  0  0  0  0
    7.1941    3.3538   10.2182 O   0  0  0  0  0  0  0  0  0  0  0  0
    6.9609    7.9874    9.4585 N   0  0  0  0  0  0  0  0  0  0  0  0
    6.4035    5.9233   10.1511 N   0  0  2  0  0  0  0  0  0  0  0  0
    9.7557    4.5540    9.6790 N   0  0  1  0  0  0  0  0  0  0  0  0
    8.3965    4.9854    7.9418 N   0  0  0  0  0  0  0  0  0  0  0  0
    6.0691    7.2142   10.0934 C   0  0  1  0  0  3  0  0  0  0  0  0
    9.4522    4.3074    8.3972 C   0  0  1  0  0  3  0  0  0  0  0  0
    6.4485    5.9478    4.9660 C   0  0  0  0  0  0  0  0  0  0  0  0
    6.7811    5.5292    4.0384 H   0  0  0  0  0  0  0  0  0  0  0  0
    5.6473    5.0866   10.8273 C   0  0  1  0  0  3  0  0  0  0  0  0
    6.0980    3.7182   10.9136 C   0  0  0  0  0  0  0  0  0  0  0  0
    4.8936    7.7353   10.6889 C   0  0  0  0  0  0  0  0  0  0  0  0
   10.7898    3.9626   10.2125 C   0  0  0  0  0  3  0  0  0  0  0  0
   10.9999    4.2110   11.2439 H   0  0  0  0  0  0  0  0  0  0  0  0
   10.2168    3.4324    7.5861 C   0  0  0  0  0  0  0  0  0  0  0  0
    6.7421    9.2714    9.3731 C   0  0  0  0  0  0  0  0  0  0  0  0
    7.5023    9.8506    8.8670 H   0  0  0  0  0  0  0  0  0  0  0  0
    8.0616    4.8902    6.6738 C   0  0  0  0  0  0  0  0  0  0  0  0
    4.0742    6.8199   11.3882 C   0  0  0  0  0  0  0  0  0  0  0  0
    3.1711    7.1740   11.8647 H   0  0  0  0  0  0  0  0  0  0  0  0
    4.4525    5.5118   11.4684 C   0  0  0  0  0  0  0  0  0  0  0  0
    3.8602    4.7948   12.0128 H   0  0  0  0  0  0  0  0  0  0  0  0
    6.9580    5.7042    6.2240 C   0  0  0  0  0  0  0  0  0  0  0  0
    5.6370    2.6427   11.6433 C   0  0  0  0  0  0  0  0  0  0  0  0
    4.7913    2.6178   12.2993 H   0  0  0  0  0  0  0  0  0  0  0  0
    7.4405    2.0752   10.4961 C   0  0  0  0  0  0  0  0  0  0  0  0
    8.2890    1.6187   10.0233 H   0  0  0  0  0  0  0  0  0  0  0  0
    6.2769    6.4292    7.1339 O   0  0  0  0  0  0  0  0  0  0  0  0
    4.6723    9.1199   10.5718 C   0  0  0  0  0  0  0  0  0  0  0  0
    3.7916    9.5587   11.0194 H   0  0  0  0  0  0  0  0  0  0  0  0
    6.5144    1.5769   11.3687 C   0  0  0  0  0  0  0  0  0  0  0  0
    6.4684    0.5833   11.7648 H   0  0  0  0  0  0  0  0  0  0  0  0
    9.8280    3.3160    6.2321 C   0  0  0  0  0  0  0  0  0  0  0  0
   10.3864    2.6649    5.5745 H   0  0  0  0  0  0  0  0  0  0  0  0
    8.7700    4.0464    5.7764 C   0  0  0  0  0  0  0  0  0  0  0  0
    8.4635    3.9953    4.7445 H   0  0  0  0  0  0  0  0  0  0  0  0
   11.3184    2.7959    8.1870 C   0  0  0  0  0  0  0  0  0  0  0  0
   11.9329    2.1273    7.6004 H   0  0  0  0  0  0  0  0  0  0  0  0
    5.5969    9.8867    9.9091 C   0  0  0  0  0  0  0  0  0  0  0  0
    5.4686   10.9531    9.8100 H   0  0  0  0  0  0  0  0  0  0  0  0
   11.6013    3.0593    9.5033 C   0  0  0  0  0  0  0  0  0  0  0  0
   12.4446    2.6004    9.9951 H   0  0  0  0  0  0  0  0  0  0  0  0
    5.4050    6.8767    5.1383 C   0  0  0  0  0  0  0  0  0  0  0  0
    4.7844    7.3002    4.3756 H   0  0  0  0  0  0  0  0  0  0  0  0
    5.3533    7.1307    6.4800 C   0  0  0  0  0  0  0  0  0  0  0  0
    4.7153    7.7721    7.0573 H   0  0  0  0  0  0  0  0  0  0  0  0
   10.0707    7.4306    8.3156 Cl  0  0  0  0  0  0  0  0  0  0  0  0
    8.6552    6.8221   11.8954 Cl  0  0  0  0  0  0  0  0  0  0  0  0
  1  5  1  0  0  0  0
  1  4  1  0  0  0  0
  1 49  1  0  0  0  0
  2 27  1  0  0  0  0
  2 12  1  0  0  0  0
  3  1  1  0  0  0  0
  3  7  1  0  0  0  0
  4 11  1  0  0  0  0
  5 14  1  0  0  0  0
  6  8  1  0  0  0  0
  6  1  1  0  0  0  0
  7  4  1  0  0  0  0
  7 13  1  0  0  0  0
  8  5  1  0  0  0  0
  9 44  1  0  0  0  0
  9 24  2  0  0  0  0
 10  9  1  0  0  0  0
 11 12  1  0  0  0  0
 11 22  1  0  0  0  0
 12 25  2  0  0  0  0
 13 20  1  0  0  0  0
 14 15  1  0  0  0  0
 16 38  1  0  0  0  0
 16  8  1  0  0  0  0
 17  3  1  0  0  0  0
 17 40  2  0  0  0  0
 18 17  1  0  0  0  0
 19  6  1  0  0  0  0
 20 22  2  0  0  0  0
 20 21  1  0  0  0  0
 22 23  1  0  0  0  0
 24 19  1  0  0  0  0
 24 29  1  0  0  0  0
 25 26  1  0  0  0  0
 27 32  2  0  0  0  0
 28 27  1  0  0  0  0
 30 13  2  0  0  0  0
 30 31  1  0  0  0  0
 32 25  1  0  0  0  0
 32 33  1  0  0  0  0
 34 16  2  0  0  0  0
 35 34  1  0  0  0  0
 36 34  1  0  0  0  0
 36 19  2  0  0  0  0
 37 36  1  0  0  0  0
 38 42  2  0  0  0  0
 39 38  1  0  0  0  0
 40 30  1  0  0  0  0
 41 40  1  0  0  0  0
 42 43  1  0  0  0  0
 42 14  1  0  0  0  0
 44 46  2  0  0  0  0
 45 44  1  0  0  0  0
 46 47  1  0  0  0  0
 46 29  1  0  0  0  0
 48  1  1  0  0  0  0
M  END
$$$$
