CSD_code = FEVPUR | q = 0 | S = 0 | Stoichiometry = C12H8Cl2N2O4Pt | MND = 6
 OpenBabel04212202033D

 29 32  0  0  0  0  0  0  0  0999 V2000
    1.9794    0.5804    3.0898 Pt  0  0  0  0  0  0  0  0  0  0  0  0
    2.3580   -0.4726    1.0327 Cl  0  0  0  0  0  0  0  0  0  0  0  0
    1.6131    1.6384    5.1475 Cl  0  0  0  0  0  0  0  0  0  0  0  0
    0.0981    2.6586    2.1908 N   0  0  0  0  0  0  0  0  0  0  0  0
    2.1895   -2.1924    4.0585 N   0  0  0  0  0  0  0  0  0  0  0  0
   -0.0112    1.4618    2.4758 O   0  0  0  0  0  0  0  0  0  0  0  0
    1.2465   -1.4381    3.7993 O   0  0  0  0  0  0  0  0  0  0  0  0
   -0.8521    3.3875    2.0566 O   0  0  0  0  0  1  0  0  0  0  0  0
    2.0488   -3.3755    4.2397 O   0  0  0  0  0  1  0  0  0  0  0  0
    2.5027    2.3207    2.2475 C   0  0  0  0  0  0  0  0  0  0  0  0
    3.7613    2.7671    1.8836 C   0  0  0  0  0  0  0  0  0  0  0  0
    3.9260    4.0231    1.3154 C   0  0  0  0  0  0  0  0  0  0  0  0
    2.8389    4.8595    1.0984 C   0  0  0  0  0  0  0  0  0  0  0  0
    1.5707    4.4210    1.4119 C   0  0  0  0  0  0  0  0  0  0  0  0
    1.4115    3.1517    1.9660 C   0  0  0  0  0  0  0  0  0  0  0  0
    3.6324   -0.2485    3.8596 C   0  0  0  0  0  0  0  0  0  0  0  0
    4.8537    0.3420    4.1349 C   0  0  0  0  0  0  0  0  0  0  0  0
    5.8941   -0.4071    4.6673 C   0  0  0  0  0  0  0  0  0  0  0  0
    5.7380   -1.7606    4.9364 C   0  0  0  0  0  0  0  0  0  0  0  0
    4.5190   -2.3621    4.7110 C   0  0  0  0  0  0  0  0  0  0  0  0
    3.4737   -1.5992    4.1923 C   0  0  0  0  0  0  0  0  0  0  0  0
    4.6227    2.1309    2.0152 H   0  0  0  0  0  0  0  0  0  0  0  0
    4.9164    4.3496    1.0368 H   0  0  0  0  0  0  0  0  0  0  0  0
    2.9828    5.8374    0.6671 H   0  0  0  0  0  0  0  0  0  0  0  0
    0.6918    5.0204    1.2271 H   0  0  0  0  0  0  0  0  0  0  0  0
    4.9985    1.3971    3.9620 H   0  0  0  0  0  0  0  0  0  0  0  0
    6.8372    0.0746    4.8766 H   0  0  0  0  0  0  0  0  0  0  0  0
    6.5586   -2.3328    5.3389 H   0  0  0  0  0  0  0  0  0  0  0  0
    4.3388   -3.4021    4.9386 H   0  0  0  0  0  0  0  0  0  0  0  0
  1  7  1  0  0  0  0
  1 16  1  0  0  0  0
  1  3  1  0  0  0  0
  2  1  1  0  0  0  0
  4  6  1  0  0  0  0
  5 21  1  0  0  0  0
  5  9  1  0  0  0  0
  6  1  1  0  0  0  0
  7  5  1  0  0  0  0
  8  4  1  0  0  0  0
 10  1  1  0  0  0  0
 11 22  1  0  0  0  0
 11 10  2  0  0  0  0
 12 11  1  0  0  0  0
 13 12  2  0  0  0  0
 13 14  1  0  0  0  0
 14 15  2  0  0  0  0
 15  4  1  0  0  0  0
 15 10  1  0  0  0  0
 16 17  2  0  0  0  0
 16 21  1  0  0  0  0
 17 18  1  0  0  0  0
 18 27  1  0  0  0  0
 18 19  2  0  0  0  0
 19 28  1  0  0  0  0
 20 19  1  0  0  0  0
 20 29  1  0  0  0  0
 21 20  2  0  0  0  0
 23 12  1  0  0  0  0
 24 13  1  0  0  0  0
 25 14  1  0  0  0  0
 26 17  1  0  0  0  0
M  END
$$$$
