CSD_code = FEVSAD | q = 0 | S = 0 | Stoichiometry = C18H30F4I2NiP2 | MND = 4
 OpenBabel04212202033D

 57 57  0  0  0  0  0  0  0  0999 V2000
    1.8226    2.4582    6.5909 I   0  0  0  0  0  0  0  0  0  0  0  0
    7.7022    5.5314   12.6694 I   0  0  0  0  0  0  0  0  0  0  0  0
    6.4216    5.1580   10.6245 Ni  0  0  0  0  0  0  0  0  0  0  0  0
    5.1774    6.9396   11.0090 P   0  0  0  0  0  4  0  0  0  0  0  0
    7.9026    3.6920    9.8903 P   0  0  0  0  0  4  0  0  0  0  0  0
    2.7592    2.1885    9.6377 F   0  0  0  0  0  0  0  0  0  0  0  0
    4.7380    3.5369   11.0614 F   0  0  0  0  0  0  0  0  0  0  0  0
    5.8645    5.9773    7.2225 F   0  0  0  0  0  0  0  0  0  0  0  0
    3.9295    4.7190    5.8261 F   0  0  0  0  0  0  0  0  0  0  0  0
    3.6959    8.3873   12.9638 C   0  0  0  0  0  0  0  0  0  0  0  0
    2.9173    8.6496   12.2518 H   0  0  0  0  0  0  0  0  0  0  0  0
    4.4413    9.1785   12.9741 H   0  0  0  0  0  0  0  0  0  0  0  0
    3.2433    8.3412   13.9524 H   0  0  0  0  0  0  0  0  0  0  0  0
    7.3010    8.2265    9.8184 C   0  0  0  0  0  0  0  0  0  0  0  0
    6.8001    8.2439    8.8516 H   0  0  0  0  0  0  0  0  0  0  0  0
    7.8123    7.2625    9.9239 H   0  0  0  0  0  0  0  0  0  0  0  0
    8.0527    9.0124    9.8336 H   0  0  0  0  0  0  0  0  0  0  0  0
    3.8622    7.4974    9.8301 C   0  0  0  0  0  0  0  0  0  0  0  0
    3.6695    8.5544   10.0347 H   0  0  0  0  0  0  0  0  0  0  0  0
    4.2815    7.4341    8.8226 H   0  0  0  0  0  0  0  0  0  0  0  0
    7.3952    1.6780   11.7586 C   0  0  0  0  0  0  0  0  0  0  0  0
    6.7990    1.1362   11.0254 H   0  0  0  0  0  0  0  0  0  0  0  0
    6.7419    2.3628   12.2976 H   0  0  0  0  0  0  0  0  0  0  0  0
    7.7924    0.9612   12.4738 H   0  0  0  0  0  0  0  0  0  0  0  0
    4.1149    4.4024    7.1156 C   0  0  0  0  0  0  0  0  0  0  0  0
    6.3037    8.3989   10.9591 C   0  0  0  0  0  0  0  0  0  0  0  0
    5.7174    9.3119   10.8305 H   0  0  0  0  0  0  0  0  0  0  0  0
    6.8337    8.4477   11.9141 H   0  0  0  0  0  0  0  0  0  0  0  0
    8.4633    1.6376    7.9517 C   0  0  0  0  0  0  0  0  0  0  0  0
    8.1209    1.1922    7.0190 H   0  0  0  0  0  0  0  0  0  0  0  0
    8.5982    0.8339    8.6709 H   0  0  0  0  0  0  0  0  0  0  0  0
    9.4267    2.1061    7.7654 H   0  0  0  0  0  0  0  0  0  0  0  0
    3.3159    3.4321    7.7021 C   0  0  0  0  0  0  0  0  0  0  0  0
    3.5179    3.1186    9.0418 C   0  0  0  0  0  0  0  0  0  0  0  0
    7.4319    2.6505    8.4318 C   0  0  0  0  0  0  0  0  0  0  0  0
    6.5016    2.1334    8.6887 H   0  0  0  0  0  0  0  0  0  0  0  0
    7.1960    3.3459    7.6211 H   0  0  0  0  0  0  0  0  0  0  0  0
    5.1085    5.0459    7.8456 C   0  0  0  0  0  0  0  0  0  0  0  0
    9.4739    4.4954    9.3565 C   0  0  0  0  0  0  0  0  0  0  0  0
    9.7782    5.1620   10.1695 H   0  0  0  0  0  0  0  0  0  0  0  0
   10.2418    3.7227    9.2595 H   0  0  0  0  0  0  0  0  0  0  0  0
    2.5585    6.7127    9.9043 C   0  0  0  0  0  0  0  0  0  0  0  0
    1.8884    7.0282    9.1064 H   0  0  0  0  0  0  0  0  0  0  0  0
    2.0541    6.8794   10.8533 H   0  0  0  0  0  0  0  0  0  0  0  0
    2.7301    5.6441    9.7955 H   0  0  0  0  0  0  0  0  0  0  0  0
    4.5063    3.7875    9.7367 C   0  0  0  0  0  0  0  0  0  0  0  0
    4.3353    7.0415   12.6458 C   0  0  0  0  0  0  0  0  0  0  0  0
    3.5869    6.2426   12.6686 H   0  0  0  0  0  0  0  0  0  0  0  0
    5.0846    6.8041   13.4051 H   0  0  0  0  0  0  0  0  0  0  0  0
    8.5298    2.4453   11.0925 C   0  0  0  0  0  0  0  0  0  0  0  0
    9.2016    1.7704   10.5565 H   0  0  0  0  0  0  0  0  0  0  0  0
    9.1116    2.9783   11.8483 H   0  0  0  0  0  0  0  0  0  0  0  0
    5.3368    4.7537    9.1801 C   0  0  0  0  0  0  0  0  0  0  0  0
    9.3196    5.2821    8.0597 C   0  0  0  0  0  0  0  0  0  0  0  0
    9.2273    4.6172    7.2038 H   0  0  0  0  0  0  0  0  0  0  0  0
   10.1864    5.9202    7.9000 H   0  0  0  0  0  0  0  0  0  0  0  0
    8.4341    5.9157    8.0924 H   0  0  0  0  0  0  0  0  0  0  0  0
  1 33  1  0  0  0  0
  3  4  1  0  0  0  0
  3  2  1  0  0  0  0
  4 47  1  0  0  0  0
  5  3  1  0  0  0  0
  5 50  1  0  0  0  0
  8 38  1  0  0  0  0
  9 25  1  0  0  0  0
 10 12  1  0  0  0  0
 10 13  1  0  0  0  0
 11 10  1  0  0  0  0
 14 17  1  0  0  0  0
 14 16  1  0  0  0  0
 14 26  1  0  0  0  0
 15 14  1  0  0  0  0
 18 42  1  0  0  0  0
 18 19  1  0  0  0  0
 18  4  1  0  0  0  0
 20 18  1  0  0  0  0
 21 23  1  0  0  0  0
 21 24  1  0  0  0  0
 22 21  1  0  0  0  0
 25 33  2  0  0  0  0
 25 38  1  0  0  0  0
 26  4  1  0  0  0  0
 26 28  1  0  0  0  0
 27 26  1  0  0  0  0
 29 35  1  0  0  0  0
 29 31  1  0  0  0  0
 30 29  1  0  0  0  0
 32 29  1  0  0  0  0
 33 34  1  0  0  0  0
 34  6  1  0  0  0  0
 34 46  2  0  0  0  0
 35 36  1  0  0  0  0
 35  5  1  0  0  0  0
 37 35  1  0  0  0  0
 38 53  2  0  0  0  0
 39  5  1  0  0  0  0
 39 40  1  0  0  0  0
 41 39  1  0  0  0  0
 42 44  1  0  0  0  0
 43 42  1  0  0  0  0
 45 42  1  0  0  0  0
 46  7  1  0  0  0  0
 47 48  1  0  0  0  0
 47 10  1  0  0  0  0
 47 49  1  0  0  0  0
 50 21  1  0  0  0  0
 50 52  1  0  0  0  0
 51 50  1  0  0  0  0
 53 46  1  0  0  0  0
 53  3  1  0  0  0  0
 54 57  1  0  0  0  0
 54 39  1  0  0  0  0
 55 54  1  0  0  0  0
 56 54  1  0  0  0  0
M  END
$$$$
