CSD_code = FEVSEH | q = 0 | S = 0 | Stoichiometry = C26H30F4I2NiP2 | MND = 4
 OpenBabel04212202033D

 65 67  0  0  0  0  0  0  0  0999 V2000
    5.6227   12.5571    3.0866 I   0  0  0  0  0  0  0  0  0  0  0  0
    2.1294    4.4172    2.3154 I   0  0  0  0  0  0  0  0  0  0  0  0
    5.4434   10.1388    3.3069 Ni  0  0  0  0  0  0  0  0  0  0  0  0
    4.9261   10.3731    5.4108 P   0  0  0  0  0  4  0  0  0  0  0  0
    6.5194    9.6080    1.4596 P   0  0  0  0  0  4  0  0  0  0  0  0
    1.6931    7.5366    1.7991 F   0  0  0  0  0  0  0  0  0  0  0  0
    3.2906    9.7216    2.3959 F   0  0  0  0  0  0  0  0  0  0  0  0
    4.9190    4.7490    3.8288 F   0  0  0  0  0  0  0  0  0  0  0  0
    6.4496    6.8900    4.3995 F   0  0  0  0  0  0  0  0  0  0  0  0
    3.9884    9.2227    7.8402 C   0  0  0  0  0  0  0  0  0  0  0  0
    3.1727    9.9412    7.8901 H   0  0  0  0  0  0  0  0  0  0  0  0
    4.8361    9.6291    8.3870 H   0  0  0  0  0  0  0  0  0  0  0  0
    3.6723    8.3100    8.3420 H   0  0  0  0  0  0  0  0  0  0  0  0
    3.2865    6.1014    2.7972 C   0  0  0  0  0  0  0  0  0  0  0  0
    3.9418   12.5462    6.9250 C   0  0  0  0  0  0  0  0  0  0  0  0
    4.8825   12.5554    7.4544 H   0  0  0  0  0  0  0  0  0  0  0  0
    8.7753   11.2714    1.2711 C   0  0  0  0  0  0  0  0  0  0  0  0
    9.2925   12.0471    0.7113 H   0  0  0  0  0  0  0  0  0  0  0  0
    9.4586   10.4364    1.4097 H   0  0  0  0  0  0  0  0  0  0  0  0
    8.5219   11.6804    2.2473 H   0  0  0  0  0  0  0  0  0  0  0  0
    2.9591   13.4621    7.2560 C   0  0  0  0  0  0  0  0  0  0  0  0
    3.1413   14.1787    8.0431 H   0  0  0  0  0  0  0  0  0  0  0  0
    2.8600    7.3730    2.4360 C   0  0  0  0  0  0  0  0  0  0  0  0
    8.3943    7.8224    0.2749 C   0  0  0  0  0  0  0  0  0  0  0  0
    7.6765    7.7037   -0.5352 H   0  0  0  0  0  0  0  0  0  0  0  0
    8.9251    6.8800    0.4004 H   0  0  0  0  0  0  0  0  0  0  0  0
    9.1199    8.5768   -0.0170 H   0  0  0  0  0  0  0  0  0  0  0  0
    4.3519    8.9118    6.3950 C   0  0  0  0  0  0  0  0  0  0  0  0
    3.4796    8.4976    5.8774 H   0  0  0  0  0  0  0  0  0  0  0  0
    5.1474    8.1623    6.3562 H   0  0  0  0  0  0  0  0  0  0  0  0
    3.6672    8.4521    2.7335 C   0  0  0  0  0  0  0  0  0  0  0  0
    7.6965    8.1904    1.5789 C   0  0  0  0  0  0  0  0  0  0  0  0
    8.4313    8.4498    2.3481 H   0  0  0  0  0  0  0  0  0  0  0  0
    7.1414    7.3301    1.9588 H   0  0  0  0  0  0  0  0  0  0  0  0
    1.7504   13.4674    6.5803 C   0  0  0  0  0  0  0  0  0  0  0  0
    0.9904   14.1887    6.8406 H   0  0  0  0  0  0  0  0  0  0  0  0
    3.9350    7.4321   -0.8641 C   0  0  0  0  0  0  0  0  0  0  0  0
    3.6960    6.3926   -1.0363 H   0  0  0  0  0  0  0  0  0  0  0  0
    1.5200   12.5555    5.5634 C   0  0  0  0  0  0  0  0  0  0  0  0
    0.5830   12.5639    5.0271 H   0  0  0  0  0  0  0  0  0  0  0  0
    3.7114   11.6273    5.9091 C   0  0  0  0  0  0  0  0  0  0  0  0
    4.9010    8.3600    3.3696 C   0  0  0  0  0  0  0  0  0  0  0  0
    3.1949    8.4272   -1.4802 C   0  0  0  0  0  0  0  0  0  0  0  0
    2.3771    8.1640   -2.1338 H   0  0  0  0  0  0  0  0  0  0  0  0
    2.4986   11.6399    5.2275 C   0  0  0  0  0  0  0  0  0  0  0  0
    2.3323   10.9415    4.4178 H   0  0  0  0  0  0  0  0  0  0  0  0
    7.5126   10.8553    0.5271 C   0  0  0  0  0  0  0  0  0  0  0  0
    7.7471   10.4233   -0.4500 H   0  0  0  0  0  0  0  0  0  0  0  0
    6.8855   11.7361    0.3729 H   0  0  0  0  0  0  0  0  0  0  0  0
    4.5303   10.0946   -0.3894 C   0  0  0  0  0  0  0  0  0  0  0  0
    4.7352   11.1344   -0.1747 H   0  0  0  0  0  0  0  0  0  0  0  0
    4.4958    5.9686    3.4633 C   0  0  0  0  0  0  0  0  0  0  0  0
    5.2898    9.0987    0.2220 C   0  0  0  0  0  0  0  0  0  0  0  0
    4.9717    7.7634   -0.0100 C   0  0  0  0  0  0  0  0  0  0  0  0
    5.5241    6.9744    0.4814 H   0  0  0  0  0  0  0  0  0  0  0  0
    6.5228   10.8300    6.2077 C   0  0  0  0  0  0  0  0  0  0  0  0
    6.6826   11.8994    6.0415 H   0  0  0  0  0  0  0  0  0  0  0  0
    6.4822   10.6359    7.2821 H   0  0  0  0  0  0  0  0  0  0  0  0
    7.6446   10.0300    5.5499 C   0  0  0  0  0  0  0  0  0  0  0  0
    7.6083   10.1699    4.4581 H   0  0  0  0  0  0  0  0  0  0  0  0
    7.5458    8.9658    5.7576 H   0  0  0  0  0  0  0  0  0  0  0  0
    8.6189   10.3629    5.9017 H   0  0  0  0  0  0  0  0  0  0  0  0
    5.2814    7.0809    3.7442 C   0  0  0  0  0  0  0  0  0  0  0  0
    3.4938    9.7584   -1.2397 C   0  0  0  0  0  0  0  0  0  0  0  0
    2.9077   10.5379   -1.7028 H   0  0  0  0  0  0  0  0  0  0  0  0
  1  3  1  0  0  0  0
  2 14  1  0  0  0  0
  3 42  1  0  0  0  0
  3  4  1  0  0  0  0
  4 41  1  0  0  0  0
  4 56  1  0  0  0  0
  4 28  1  0  0  0  0
  5 32  1  0  0  0  0
  5  3  1  0  0  0  0
  6 23  1  0  0  0  0
  7 31  1  0  0  0  0
 10 11  1  0  0  0  0
 10 13  1  0  0  0  0
 10 12  1  0  0  0  0
 14 52  1  0  0  0  0
 15 21  1  0  0  0  0
 15 16  1  0  0  0  0
 17 19  1  0  0  0  0
 17 20  1  0  0  0  0
 18 17  1  0  0  0  0
 21 22  1  0  0  0  0
 23 31  1  0  0  0  0
 23 14  2  0  0  0  0
 24 26  1  0  0  0  0
 24 32  1  0  0  0  0
 25 24  1  0  0  0  0
 27 24  1  0  0  0  0
 28 10  1  0  0  0  0
 29 28  1  0  0  0  0
 30 28  1  0  0  0  0
 31 42  2  0  0  0  0
 32 34  1  0  0  0  0
 32 33  1  0  0  0  0
 35 36  1  0  0  0  0
 35 21  2  0  0  0  0
 37 54  1  0  0  0  0
 38 37  1  0  0  0  0
 39 35  1  0  0  0  0
 40 39  1  0  0  0  0
 41 15  2  0  0  0  0
 42 63  1  0  0  0  0
 43 64  1  0  0  0  0
 43 37  2  0  0  0  0
 44 43  1  0  0  0  0
 45 39  2  0  0  0  0
 45 41  1  0  0  0  0
 46 45  1  0  0  0  0
 47 17  1  0  0  0  0
 47  5  1  0  0  0  0
 48 47  1  0  0  0  0
 49 47  1  0  0  0  0
 50 51  1  0  0  0  0
 50 53  1  0  0  0  0
 52 63  2  0  0  0  0
 52  8  1  0  0  0  0
 53  5  1  0  0  0  0
 54 53  2  0  0  0  0
 54 55  1  0  0  0  0
 56 58  1  0  0  0  0
 57 56  1  0  0  0  0
 59 61  1  0  0  0  0
 59 62  1  0  0  0  0
 59 56  1  0  0  0  0
 60 59  1  0  0  0  0
 63  9  1  0  0  0  0
 64 50  2  0  0  0  0
 65 64  1  0  0  0  0
M  END
$$$$
