CSD_code = FEVWEL | q = 0 | S = 0 | Stoichiometry = C19H19Cl2NTi | MND = 8
 OpenBabel04212202033D

 42 45  0  0  1  0  0  0  0  0999 V2000
    4.1515    3.5427    2.9444 Ti  0  0  0  0  0  0  0  0  0  0  0  0
    2.1430    2.9354    2.3934 Cl  0  0  0  0  0  0  0  0  0  0  0  0
    4.9258    1.5812    3.4712 Cl  0  0  0  0  0  0  0  0  0  0  0  0
    3.8212    4.3704    4.5095 N   0  0  0  0  0  0  0  0  0  0  0  0
    5.2271    5.5108    2.6719 C   0  0  1  0  0  0  0  0  0  0  0  0
    6.1726    4.4907    2.4172 C   0  0  0  0  0  0  0  0  0  0  0  0
    7.0919    4.3385    2.9739 H   0  0  0  0  0  0  0  0  0  0  0  0
    5.7717    3.7508    1.2863 C   0  0  0  0  0  0  0  0  0  0  0  0
    6.3453    2.9674    0.8057 H   0  0  0  0  0  0  0  0  0  0  0  0
    4.5819    4.3466    0.7729 C   0  0  0  0  0  0  0  0  0  0  0  0
    3.7847    4.0645   -0.3528 C   0  0  0  0  0  0  0  0  0  0  0  0
    4.0522    3.2528   -1.0173 H   0  0  0  0  0  0  0  0  0  0  0  0
    2.6810    4.8419   -0.5936 C   0  0  0  0  0  0  0  0  0  0  0  0
    2.0585    4.6386   -1.4522 H   0  0  0  0  0  0  0  0  0  0  0  0
    2.3375    5.9114    0.2536 C   0  0  0  0  0  0  0  0  0  0  0  0
    1.4610    6.4974    0.0199 H   0  0  0  0  0  0  0  0  0  0  0  0
    3.0911    6.2239    1.3563 C   0  0  0  0  0  0  0  0  0  0  0  0
    2.8329    7.0688    1.9821 H   0  0  0  0  0  0  0  0  0  0  0  0
    4.2337    5.4492    1.6410 C   0  0  0  0  0  0  0  0  0  0  0  0
    5.1472    6.3336    3.9233 C   0  0  0  0  0  0  0  0  0  0  0  0
    5.0131    7.3968    3.7070 H   0  0  0  0  0  0  0  0  0  0  0  0
    6.0662    6.2052    4.5023 H   0  0  0  0  0  0  0  0  0  0  0  0
    3.9432    5.7988    4.7306 C   0  0  0  0  0  0  0  0  0  0  0  0
    4.0724    6.0139    5.8009 H   0  0  0  0  0  0  0  0  0  0  0  0
    3.0255    6.3042    4.3850 H   0  0  0  0  0  0  0  0  0  0  0  0
    3.1885    3.6393    5.5969 C   0  0  2  0  0  0  0  0  0  0  0  0
    3.1475    2.5784    5.2854 H   0  0  0  0  0  0  0  0  0  0  0  0
    1.7428    4.1085    5.8095 C   0  0  0  0  0  0  0  0  0  0  0  0
    1.7093    5.1166    6.2168 H   0  0  0  0  0  0  0  0  0  0  0  0
    1.2215    3.4328    6.4822 H   0  0  0  0  0  0  0  0  0  0  0  0
    1.2357    4.0969    4.8435 H   0  0  0  0  0  0  0  0  0  0  0  0
    4.0788    3.7159    6.8277 C   0  0  0  0  0  0  0  0  0  0  0  0
    5.4373    3.4647    6.6458 C   0  0  0  0  0  0  0  0  0  0  0  0
    5.7931    3.2138    5.6495 H   0  0  0  0  0  0  0  0  0  0  0  0
    6.3135    3.5259    7.7125 C   0  0  0  0  0  0  0  0  0  0  0  0
    7.3637    3.3246    7.5599 H   0  0  0  0  0  0  0  0  0  0  0  0
    5.8445    3.8389    8.9790 C   0  0  0  0  0  0  0  0  0  0  0  0
    6.5268    3.8853    9.8146 H   0  0  0  0  0  0  0  0  0  0  0  0
    4.4972    4.0855    9.1675 C   0  0  0  0  0  0  0  0  0  0  0  0
    4.1241    4.3259   10.1523 H   0  0  0  0  0  0  0  0  0  0  0  0
    3.6165    4.0258    8.0984 C   0  0  0  0  0  0  0  0  0  0  0  0
    2.5691    4.2191    8.2690 H   0  0  0  0  0  0  0  0  0  0  0  0
  1  3  1  0  0  0  0
  1  4  1  0  0  0  0
  2  1  1  0  0  0  0
  4 23  1  0  0  0  0
  4 26  1  0  0  0  0
  5 19  1  6  0  0  0
  5  1  1  0  0  0  0
  5 20  1  0  0  0  0
  6  5  1  0  0  0  0
  6  7  1  0  0  0  0
  8  6  2  0  0  0  0
  9  8  1  0  0  0  0
 10  8  1  0  0  0  0
 10 19  1  0  0  0  0
 11 10  2  0  0  0  0
 12 11  1  0  0  0  0
 13 11  1  0  0  0  0
 13 15  2  0  0  0  0
 14 13  1  0  0  0  0
 15 17  1  0  0  0  0
 16 15  1  0  0  0  0
 17 19  2  0  0  0  0
 17 18  1  0  0  0  0
 20 22  1  0  0  0  0
 20 23  1  0  0  0  0
 21 20  1  0  0  0  0
 23 24  1  0  0  0  0
 25 23  1  0  0  0  0
 26 27  1  6  0  0  0
 26 28  1  0  0  0  0
 26 32  1  0  0  0  0
 28 29  1  0  0  0  0
 28 30  1  0  0  0  0
 31 28  1  0  0  0  0
 32 41  1  0  0  0  0
 33 32  2  0  0  0  0
 33 35  1  0  0  0  0
 34 33  1  0  0  0  0
 35 37  2  0  0  0  0
 36 35  1  0  0  0  0
 37 39  1  0  0  0  0
 37 38  1  0  0  0  0
 39 40  1  0  0  0  0
 41 42  1  0  0  0  0
 41 39  2  0  0  0  0
M  END
$$$$
