CSD_code = FEWBIU | q = 0 | S = 0 | Stoichiometry = C23H26BrCl2FeN5O | MND = 6
 OpenBabel04212202033D

 59 64  0  0  1  0  0  0  0  0999 V2000
    0.9766   13.9387    4.7376 C   0  0  0  0  0  0  0  0  0  0  0  0
    0.7372   14.9947    4.9136 H   0  0  0  0  0  0  0  0  0  0  0  0
    1.0190   13.7745    3.6557 H   0  0  0  0  0  0  0  0  0  0  0  0
    2.3226   13.5874    5.3016 C   0  0  2  0  0  3  0  0  0  0  0  0
    3.3219   14.5191    5.5022 C   0  0  0  0  0  0  0  0  0  0  0  0
    3.1365   15.5594    5.2817 H   0  0  0  0  0  0  0  0  0  0  0  0
    4.5532   14.1007    5.9876 C   0  0  0  0  0  0  0  0  0  0  0  0
    5.3452   14.8106    6.1636 H   0  0  0  0  0  0  0  0  0  0  0  0
    4.7324   12.7469    6.2311 C   0  0  0  0  0  0  0  0  0  0  0  0
    5.6722   12.3642    6.5931 H   0  0  0  0  0  0  0  0  0  0  0  0
    3.6814   11.8808    6.0113 C   0  0  0  0  0  0  0  0  0  0  0  0
    3.7803   10.8207    6.1814 H   0  0  0  0  0  0  0  0  0  0  0  0
   -1.0724   12.7092    4.3194 C   0  0  0  0  0  0  0  0  0  0  0  0
   -1.3967   13.5798    3.7332 H   0  0  0  0  0  0  0  0  0  0  0  0
   -1.9313   12.2988    4.8557 H   0  0  0  0  0  0  0  0  0  0  0  0
   -0.5367   11.6285    3.4216 C   0  0  1  0  0  3  0  0  0  0  0  0
   -1.1467   11.3095    2.2245 C   0  0  0  0  0  0  0  0  0  0  0  0
   -2.0545   11.8165    1.9390 H   0  0  0  0  0  0  0  0  0  0  0  0
   -0.5884   10.3278    1.4145 C   0  0  0  0  0  0  0  0  0  0  0  0
   -1.0683   10.0217    0.4992 H   0  0  0  0  0  0  0  0  0  0  0  0
    0.6337    9.7970    1.7867 C   0  0  0  0  0  0  0  0  0  0  0  0
    1.1633    9.0953    1.1632 H   0  0  0  0  0  0  0  0  0  0  0  0
    1.1877   10.1955    2.9925 C   0  0  0  0  0  0  0  0  0  0  0  0
   -0.5951   13.5782    6.5461 C   0  0  0  0  0  0  0  0  0  0  0  0
   -1.4344   12.9319    6.8224 H   0  0  0  0  0  0  0  0  0  0  0  0
   -0.9471   14.6123    6.4370 H   0  0  0  0  0  0  0  0  0  0  0  0
    0.4186   13.4622    7.6470 C   0  0  1  0  0  3  0  0  0  0  0  0
    0.6602   14.5073    8.5165 C   0  0  0  0  0  0  0  0  0  0  0  0
    0.1408   15.4450    8.3986 H   0  0  0  0  0  0  0  0  0  0  0  0
    1.5758   14.3152    9.5446 C   0  0  0  0  0  0  0  0  0  0  0  0
    1.7911   15.1100   10.2421 H   0  0  0  0  0  0  0  0  0  0  0  0
    2.1977   13.0964    9.6658 C   0  0  0  0  0  0  0  0  0  0  0  0
    2.9071   12.9002   10.4504 H   0  0  0  0  0  0  0  0  0  0  0  0
    1.9027   12.0756    8.7459 C   0  0  0  0  0  0  0  0  0  0  0  0
    3.4286   10.3969    9.7059 C   0  0  0  0  0  0  0  0  0  0  0  0
    3.7348    8.9034    9.6236 C   0  0  0  0  0  0  0  0  0  0  0  0
    2.4466    8.0755    9.6334 C   0  0  0  0  0  0  0  0  0  0  0  0
    2.6976    7.0252    9.7611 H   0  0  0  0  0  0  0  0  0  0  0  0
    1.8990    8.1726    8.7010 H   0  0  0  0  0  0  0  0  0  0  0  0
    1.8022    8.3752   10.4574 H   0  0  0  0  0  0  0  0  0  0  0  0
    4.5268    8.6416    8.3359 C   0  0  0  0  0  0  0  0  0  0  0  0
    5.3813    9.3122    8.2695 H   0  0  0  0  0  0  0  0  0  0  0  0
    3.8973    8.7685    7.4601 H   0  0  0  0  0  0  0  0  0  0  0  0
    4.8936    7.6183    8.3405 H   0  0  0  0  0  0  0  0  0  0  0  0
    4.5942    8.5340   10.8364 C   0  0  0  0  0  0  0  0  0  0  0  0
    4.0454    8.7099   11.7585 H   0  0  0  0  0  0  0  0  0  0  0  0
    5.4959    9.1404   10.8600 H   0  0  0  0  0  0  0  0  0  0  0  0
    4.8756    7.4853   10.7904 H   0  0  0  0  0  0  0  0  0  0  0  0
   -0.0435   13.0535    5.3018 N   0  0  2  0  0  4  0  0  0  0  0  0
    2.4845   12.2816    5.5749 N   0  0  0  0  0  0  0  0  0  0  0  0
    0.5836   11.0129    3.8579 N   0  0  0  0  0  0  0  0  0  0  0  0
    1.0323   12.2752    7.7438 N   0  0  0  0  0  0  0  0  0  0  0  0
    2.4549   10.8273    8.8318 N   0  0  0  0  0  0  0  0  0  0  0  0
    4.0074   11.1402   10.4685 O   0  0  0  0  0  0  0  0  0  0  0  0
   -1.1030   10.4861    6.2949 Cl  0  0  0  0  0  0  0  0  0  0  0  0
    1.7147    9.3639    6.2519 Cl  0  0  0  0  0  0  0  0  0  0  0  0
    0.8630   11.3325    5.7665 Fe  0  0  0  0  0  0  0  0  0  0  0  0
    2.9707    9.6965    3.3381 Br  0  0  0  0  0  0  0  0  0  0  0  0
    2.1222   10.1670    8.1160 H   0  0  0  0  0  0  0  0  0  0  0  0
  1  2  1  0  0  0  0
  1  4  1  0  0  0  0
  1 49  1  0  0  0  0
  3  1  1  0  0  0  0
  4  5  1  6  0  0  0
  4 50  1  0  0  0  0
  5  7  2  0  0  0  0
  6  5  1  0  0  0  0
  7  8  1  0  0  0  0
  7  9  1  0  0  0  0
  9 10  1  0  0  0  0
 11 12  1  0  0  0  0
 11  9  2  0  0  0  0
 13 15  1  0  0  0  0
 14 13  1  0  0  0  0
 16 17  1  6  0  0  0
 16 51  1  0  0  0  0
 16 13  1  0  0  0  0
 18 17  1  0  0  0  0
 19 21  1  0  0  0  0
 19 17  2  0  0  0  0
 20 19  1  0  0  0  0
 21 23  2  0  0  0  0
 22 21  1  0  0  0  0
 23 58  1  0  0  0  0
 23 51  1  0  0  0  0
 24 25  1  0  0  0  0
 24 27  1  0  0  0  0
 26 24  1  0  0  0  0
 27 52  1  0  0  0  0
 27 28  1  1  0  0  0
 28 30  2  0  0  0  0
 29 28  1  0  0  0  0
 30 32  1  0  0  0  0
 30 31  1  0  0  0  0
 32 33  1  0  0  0  0
 34 53  1  0  0  0  0
 34 32  2  0  0  0  0
 35 54  2  0  0  0  0
 36 37  1  0  0  0  0
 36 35  1  0  0  0  0
 36 45  1  0  0  0  0
 37 38  1  0  0  0  0
 37 40  1  0  0  0  0
 39 37  1  0  0  0  0
 41 44  1  0  0  0  0
 41 36  1  0  0  0  0
 42 41  1  0  0  0  0
 43 41  1  0  0  0  0
 45 47  1  0  0  0  0
 45 46  1  0  0  0  0
 48 45  1  0  0  0  0
 49 13  1  6  0  0  0
 49 57  1  0  0  0  0
 49 24  1  0  0  0  0
 50 57  1  0  0  0  0
 50 11  1  0  0  0  0
 51 57  1  0  0  0  0
 52 34  1  0  0  0  0
 53 35  1  0  0  0  0
 57 56  1  0  0  0  0
 57 55  1  0  0  0  0
 57 52  1  0  0  0  0
 59 53  1  0  0  0  0
M  END
$$$$
