CSD_code = FEWBOZ | q = 0 | S = 0 | Stoichiometry = C30H33ClO2PRh | MND = 6
 OpenBabel04212202033D

 68 70  0  0  1  0  0  0  0  0999 V2000
   12.5848    3.8122    2.1426 Rh  0  0  0  0  0  0  0  0  0  0  0  0
   10.6915    4.3959    0.9960 P   0  0  0  0  0  0  0  0  0  0  0  0
   13.4209    5.8446    1.5879 Cl  0  0  0  0  0 15  0  0  0  0  0  0
   11.1121    5.0414    4.2246 O   0  0  0  0  0  0  0  0  0  0  0  0
    9.2181    6.3405    4.6366 O   0  0  0  0  0  0  0  0  0  0  0  0
    9.2409    3.8644    1.9646 C   0  0  0  0  0  0  0  0  0  0  0  0
    8.4567    2.7757    1.5981 C   0  0  0  0  0  0  0  0  0  0  0  0
    8.6277    2.2882    0.6490 H   0  0  0  0  0  0  0  0  0  0  0  0
    7.4581    2.3087    2.4348 C   0  0  0  0  0  0  0  0  0  0  0  0
    6.8527    1.4679    2.1290 H   0  0  0  0  0  0  0  0  0  0  0  0
    7.2446    2.9129    3.6608 C   0  0  0  0  0  0  0  0  0  0  0  0
    6.4689    2.5497    4.3183 H   0  0  0  0  0  0  0  0  0  0  0  0
    8.0402    3.9765    4.0532 C   0  0  0  0  0  0  0  0  0  0  0  0
    7.8959    4.4494    5.0112 H   0  0  0  0  0  0  0  0  0  0  0  0
    9.0395    4.4523    3.2198 C   0  0  0  0  0  0  0  0  0  0  0  0
    9.9244    5.5838    3.6920 C   0  0  0  0  0  0  0  0  0  0  0  0
   10.2018    6.2489    2.8435 H   0  0  0  0  0  0  0  0  0  0  0  0
   11.9792    6.0660    4.6981 C   0  0  0  0  0  0  0  0  0  0  0  0
   12.3080    6.6870    3.8528 H   0  0  0  0  0  0  0  0  0  0  0  0
   12.8417    5.5505    5.1212 H   0  0  0  0  0  0  0  0  0  0  0  0
   11.2742    6.9316    5.7399 C   0  0  0  0  0  0  0  0  0  0  0  0
   11.0349    6.3277    6.6169 H   0  0  0  0  0  0  0  0  0  0  0  0
   11.9107    7.7643    6.0352 H   0  0  0  0  0  0  0  0  0  0  0  0
    9.9786    7.4344    5.1092 C   0  0  0  0  0  0  0  0  0  0  0  0
    9.3418    7.9511    5.8295 H   0  0  0  0  0  0  0  0  0  0  0  0
   10.2077    8.1127    4.2718 H   0  0  0  0  0  0  0  0  0  0  0  0
   10.1908    6.0467    0.3738 C   0  0  0  0  0  0  0  0  0  0  0  0
    8.9524    6.6228    0.6370 C   0  0  0  0  0  0  0  0  0  0  0  0
    8.2443    6.1229    1.2846 H   0  0  0  0  0  0  0  0  0  0  0  0
    8.6263    7.8453    0.0766 C   0  0  0  0  0  0  0  0  0  0  0  0
    7.6644    8.2895    0.2890 H   0  0  0  0  0  0  0  0  0  0  0  0
    9.5256    8.4971   -0.7507 C   0  0  0  0  0  0  0  0  0  0  0  0
    9.2675    9.4539   -1.1807 H   0  0  0  0  0  0  0  0  0  0  0  0
   10.7539    7.9189   -1.0268 C   0  0  0  0  0  0  0  0  0  0  0  0
   11.4567    8.4222   -1.6740 H   0  0  0  0  0  0  0  0  0  0  0  0
   11.0841    6.6963   -0.4729 C   0  0  0  0  0  0  0  0  0  0  0  0
   12.0439    6.2441   -0.6766 H   0  0  0  0  0  0  0  0  0  0  0  0
   10.5294    3.5831   -0.6328 C   0  0  0  0  0  0  0  0  0  0  0  0
    9.3532    3.6303   -1.3746 C   0  0  0  0  0  0  0  0  0  0  0  0
    8.4778    4.1164   -0.9657 H   0  0  0  0  0  0  0  0  0  0  0  0
    9.3106    3.0642   -2.6352 C   0  0  0  0  0  0  0  0  0  0  0  0
    8.3936    3.0922   -3.2058 H   0  0  0  0  0  0  0  0  0  0  0  0
   10.4426    2.4710   -3.1728 C   0  0  0  0  0  0  0  0  0  0  0  0
   10.4033    2.0318   -4.1588 H   0  0  0  0  0  0  0  0  0  0  0  0
   11.6258    2.4564   -2.4534 C   0  0  0  0  0  0  0  0  0  0  0  0
   12.5137    2.0145   -2.8817 H   0  0  0  0  0  0  0  0  0  0  0  0
   11.6689    3.0144   -1.1882 C   0  0  0  0  0  0  0  0  0  0  0  0
   12.5907    3.0321   -0.6146 H   0  0  0  0  0  0  0  0  0  0  0  0
   11.8553    2.1386    3.2747 C   0  0  0  0  0  3  0  0  0  0  0  0
   10.8488    2.3801    3.6079 H   0  0  0  0  0  0  0  0  0  0  0  0
   12.0202    1.7565    1.9473 C   0  0  2  0  0  0  0  0  0  0  0  0
   11.1202    1.6465    1.3406 H   0  0  0  0  0  0  0  0  0  0  0  0
   13.1722    0.9093    1.4519 C   0  0  0  0  0  0  0  0  0  0  0  0
   13.1292    0.8782    0.3611 H   0  0  0  0  0  0  0  0  0  0  0  0
   13.0336   -0.1191    1.8050 H   0  0  0  0  0  0  0  0  0  0  0  0
   14.5519    1.4358    1.8920 C   0  0  0  0  0  0  0  0  0  0  0  0
   14.8786    0.9251    2.7998 H   0  0  0  0  0  0  0  0  0  0  0  0
   15.2822    1.2074    1.1130 H   0  0  0  0  0  0  0  0  0  0  0  0
   14.5590    2.9275    2.1499 C   0  0  0  0  0  3  0  0  0  0  0  0
   15.1541    3.5145    1.4499 H   0  0  0  0  0  0  0  0  0  0  0  0
   14.3008    3.4824    3.3945 C   0  0  0  0  0  3  0  0  0  0  0  0
   14.7435    4.4548    3.6122 H   0  0  0  0  0  0  0  0  0  0  0  0
   13.9389    2.6828    4.6233 C   0  0  0  0  0  0  0  0  0  0  0  0
   14.8284    2.1501    4.9802 H   0  0  0  0  0  0  0  0  0  0  0  0
   13.6421    3.3783    5.4106 H   0  0  0  0  0  0  0  0  0  0  0  0
   12.7878    1.6905    4.3786 C   0  0  0  0  0  0  0  0  0  0  0  0
   12.2138    1.5836    5.3007 H   0  0  0  0  0  0  0  0  0  0  0  0
   13.1839    0.7043    4.1272 H   0  0  0  0  0  0  0  0  0  0  0  0
  2  6  1  0  0  0  0
  4 18  1  0  0  0  0
  5 24  1  0  0  0  0
  6 15  1  0  0  0  0
  7  6  2  0  0  0  0
  7  9  1  0  0  0  0
  8  7  1  0  0  0  0
  9 11  2  0  0  0  0
 10  9  1  0  0  0  0
 11 13  1  0  0  0  0
 11 12  1  0  0  0  0
 13 14  1  0  0  0  0
 15 16  1  0  0  0  0
 15 13  2  0  0  0  0
 16  4  1  0  0  0  0
 16  5  1  0  0  0  0
 17 16  1  0  0  0  0
 18 20  1  0  0  0  0
 18 21  1  0  0  0  0
 19 18  1  0  0  0  0
 21 23  1  0  0  0  0
 21 22  1  0  0  0  0
 24 21  1  0  0  0  0
 24 25  1  0  0  0  0
 26 24  1  0  0  0  0
 27 28  1  0  0  0  0
 27  2  1  0  0  0  0
 28 29  1  0  0  0  0
 30 31  1  0  0  0  0
 30 28  2  0  0  0  0
 32 30  1  0  0  0  0
 33 32  1  0  0  0  0
 34 32  2  0  0  0  0
 34 36  1  0  0  0  0
 35 34  1  0  0  0  0
 36 27  2  0  0  0  0
 37 36  1  0  0  0  0
 38  2  1  0  0  0  0
 39 40  1  0  0  0  0
 39 38  2  0  0  0  0
 41 39  1  0  0  0  0
 42 41  1  0  0  0  0
 43 41  2  0  0  0  0
 43 45  1  0  0  0  0
 44 43  1  0  0  0  0
 45 47  2  0  0  0  0
 46 45  1  0  0  0  0
 47 38  1  0  0  0  0
 47 48  1  0  0  0  0
 49 50  1  0  0  0  0
 49 66  1  0  0  0  0
 51 52  1  6  0  0  0
 51  1  1  0  0  0  0
 51 49  1  0  0  0  0
 53 55  1  0  0  0  0
 53 56  1  0  0  0  0
 53 51  1  0  0  0  0
 54 53  1  0  0  0  0
 56 59  1  0  0  0  0
 56 57  1  0  0  0  0
 58 56  1  0  0  0  0
 59 61  1  0  0  0  0
 60 59  1  0  0  0  0
 61 62  1  0  0  0  0
 61 63  1  0  0  0  0
 63 64  1  0  0  0  0
 63 65  1  0  0  0  0
 66 63  1  0  0  0  0
 66 67  1  0  0  0  0
 68 66  1  0  0  0  0
M  END
$$$$
