CSD_code = FEWRIK | q = 1 | S = 0 | Stoichiometry = C23H27BrFeN5(1+) | MND = 6
 OpenBabel04212202033D

 57 64  0  0  1  0  0  0  0  0999 V2000
  -10.8049    8.8665   19.0330 C   0  0  0  0  0  0  0  0  0  0  0  0
  -11.7168    8.9107   19.6292 H   0  0  0  0  0  0  0  0  0  0  0  0
  -10.6751    9.8468   18.5661 H   0  0  0  0  0  0  0  0  0  0  0  0
   -9.6203    8.5488   19.9499 C   0  0  0  0  0  0  0  0  0  0  0  0
   -9.2048    9.4708   20.3810 H   0  0  0  0  0  0  0  0  0  0  0  0
   -9.9249    7.8954   20.7666 H   0  0  0  0  0  0  0  0  0  0  0  0
   -8.2354    8.7111   18.0258 C   0  0  0  0  0  0  0  0  0  0  0  0
   -7.1627    8.5997   17.8539 H   0  0  0  0  0  0  0  0  0  0  0  0
   -8.4046    9.7583   18.2935 H   0  0  0  0  0  0  0  0  0  0  0  0
   -8.9109    8.4141   16.6618 C   0  0  1  0  0  0  0  0  0  0  0  0
  -10.4578    8.3142   16.7035 C   0  0  0  0  0  0  0  0  0  0  0  0
  -10.8952    9.2913   16.4571 H   0  0  0  0  0  0  0  0  0  0  0  0
  -10.7692    7.6038   15.9337 H   0  0  0  0  0  0  0  0  0  0  0  0
   -8.5342    9.5560   15.7130 C   0  0  0  0  0  0  0  0  0  0  0  0
   -7.4566    9.6250   15.5889 H   0  0  0  0  0  0  0  0  0  0  0  0
   -8.8863   10.5045   16.1132 H   0  0  0  0  0  0  0  0  0  0  0  0
   -8.9940    9.4154   14.7389 H   0  0  0  0  0  0  0  0  0  0  0  0
   -8.3433    7.0812   16.2162 C   0  0  1  0  0  3  0  0  0  0  0  0
   -7.9015    4.9171   16.8332 C   0  0  0  0  0  0  0  0  0  0  0  0
   -8.0090    4.1526   17.5838 H   0  0  0  0  0  0  0  0  0  0  0  0
   -7.2155    4.6584   15.6638 C   0  0  0  0  0  0  0  0  0  0  0  0
   -6.7803    3.6875   15.4977 H   0  0  0  0  0  0  0  0  0  0  0  0
   -7.1321    5.6620   14.7130 C   0  0  0  0  0  0  0  0  0  0  0  0
   -6.6374    5.4965   13.7695 H   0  0  0  0  0  0  0  0  0  0  0  0
   -7.6918    6.8948   15.0051 C   0  0  0  0  0  0  0  0  0  0  0  0
   -7.6244    7.6943   14.2883 H   0  0  0  0  0  0  0  0  0  0  0  0
  -12.2904    7.2986   17.9926 C   0  0  0  0  0  0  0  0  0  0  0  0
  -12.4068    6.5868   17.1716 H   0  0  0  0  0  0  0  0  0  0  0  0
  -13.0534    8.0802   17.8820 H   0  0  0  0  0  0  0  0  0  0  0  0
  -12.4475    6.5689   19.2972 C   0  0  2  0  0  3  0  0  0  0  0  0
  -11.3739    5.5733   21.0552 C   0  0  0  0  0  0  0  0  0  0  0  0
  -10.4346    5.3034   21.5127 H   0  0  0  0  0  0  0  0  0  0  0  0
  -12.5683    5.2786   21.6864 C   0  0  0  0  0  0  0  0  0  0  0  0
  -12.5642    4.7684   22.6352 H   0  0  0  0  0  0  0  0  0  0  0  0
  -13.7546    5.6427   21.0694 C   0  0  0  0  0  0  0  0  0  0  0  0
  -14.7073    5.4149   21.5196 H   0  0  0  0  0  0  0  0  0  0  0  0
  -13.6867    6.3167   19.8607 C   0  0  0  0  0  0  0  0  0  0  0  0
  -14.5811    6.6331   19.3485 H   0  0  0  0  0  0  0  0  0  0  0  0
   -7.5193    7.3317   19.9204 C   0  0  0  0  0  0  0  0  0  0  0  0
   -7.2522    8.0153   20.7349 H   0  0  0  0  0  0  0  0  0  0  0  0
   -6.6488    7.2383   19.2641 H   0  0  0  0  0  0  0  0  0  0  0  0
   -7.7962    5.9527   20.4517 C   0  0  2  0  0  3  0  0  0  0  0  0
   -8.8306    3.9334   20.1124 C   0  0  0  0  0  0  0  0  0  0  0  0
   -9.5139    3.3570   19.5088 H   0  0  0  0  0  0  0  0  0  0  0  0
   -8.1997    3.3676   21.2045 C   0  0  0  0  0  0  0  0  0  0  0  0
   -8.3818    2.3354   21.4532 H   0  0  0  0  0  0  0  0  0  0  0  0
   -7.3448    4.1516   21.9637 C   0  0  0  0  0  0  0  0  0  0  0  0
   -6.8444    3.7536   22.8314 H   0  0  0  0  0  0  0  0  0  0  0  0
   -7.1423    5.4672   21.5711 C   0  0  0  0  0  0  0  0  0  0  0  0
   -6.4755    6.1107   22.1230 H   0  0  0  0  0  0  0  0  0  0  0  0
  -10.8703    4.4558   17.5068 Br  0  0  0  0  0  0  0  0  0  0  0  0
   -9.7238    6.2241   18.5698 Fe  0  0  0  0  0  0  0  0  0  0  0  0
  -10.9357    7.8356   17.9834 N   0  0  2  0  0  4  0  0  0  0  0  0
   -8.6437    7.8407   19.1373 N   0  0  1  0  0  4  0  0  0  0  0  0
   -8.4726    6.0906   17.1007 N   0  0  0  0  0  0  0  0  0  0  0  0
  -11.3020    6.1838   19.8773 N   0  0  0  0  0  0  0  0  0  0  0  0
   -8.6480    5.2013   19.7373 N   0  0  0  0  0  0  0  0  0  0  0  0
  1  2  1  0  0  0  0
  1  4  1  0  0  0  0
  3  1  1  0  0  0  0
  4  5  1  0  0  0  0
  4  6  1  0  0  0  0
  7  9  1  0  0  0  0
  8  7  1  0  0  0  0
 10 14  1  6  0  0  0
 10 11  1  0  0  0  0
 10  7  1  0  0  0  0
 12 11  1  0  0  0  0
 13 11  1  0  0  0  0
 14 16  1  0  0  0  0
 15 14  1  0  0  0  0
 17 14  1  0  0  0  0
 18 25  1  1  0  0  0
 18 10  1  0  0  0  0
 18 55  1  0  0  0  0
 19 55  1  0  0  0  0
 19 20  1  0  0  0  0
 21 19  2  0  0  0  0
 22 21  1  0  0  0  0
 23 25  2  0  0  0  0
 23 21  1  0  0  0  0
 24 23  1  0  0  0  0
 26 25  1  0  0  0  0
 27 30  1  0  0  0  0
 28 27  1  0  0  0  0
 29 27  1  0  0  0  0
 30 37  1  1  0  0  0
 30 56  1  0  0  0  0
 31 32  1  0  0  0  0
 31 33  2  0  0  0  0
 33 34  1  0  0  0  0
 35 36  1  0  0  0  0
 35 33  1  0  0  0  0
 37 35  2  0  0  0  0
 38 37  1  0  0  0  0
 39 42  1  0  0  0  0
 39 40  1  0  0  0  0
 41 39  1  0  0  0  0
 42 49  1  6  0  0  0
 43 45  2  0  0  0  0
 44 43  1  0  0  0  0
 45 46  1  0  0  0  0
 45 47  1  0  0  0  0
 47 48  1  0  0  0  0
 49 47  2  0  0  0  0
 49 50  1  0  0  0  0
 51 52  1  0  0  0  0
 52 54  1  0  0  0  0
 52 57  1  0  0  0  0
 52 56  1  0  0  0  0
 53 11  1  6  0  0  0
 53 27  1  0  0  0  0
 53 52  1  0  0  0  0
 53  1  1  0  0  0  0
 54  7  1  6  0  0  0
 54 39  1  0  0  0  0
 54  4  1  0  0  0  0
 55 52  1  0  0  0  0
 56 31  1  0  0  0  0
 57 43  1  0  0  0  0
 57 42  1  0  0  0  0
M  END
$$$$
