CSD_code = FEXDER | q = 0 | S = 0 | Stoichiometry = C6H15IO2PdS2 | MND = 4
 OpenBabel04212202033D

 27 27  0  0  0  0  0  0  0  0999 V2000
    7.2336   -6.8012    2.5027 I   0  0  0  0  0  0  0  0  0  0  0  0
    8.0455   -5.8363    4.7994 Pd  0  0  2  0  0  0  0  0  0  0  0  0
    8.4485   -6.9360    7.1569 S   0  0  1  0  0  0  0  0  0  0  0  0
    6.3336   -3.5978    4.8917 S   0  0  0  0  0  0  0  0  0  0  0  0
    9.1045   -7.5703    8.2873 O   0  0  0  0  0  1  0  0  0  0  0  0
    6.3448   -3.7750    6.3233 O   0  0  0  0  0  1  0  0  0  0  0  0
    8.9993   -5.3725    6.5923 C   0  0  0  0  0  0  0  0  0  0  0  0
    8.4009   -7.7078    5.5878 C   0  0  0  0  0  0  0  0  0  0  0  0
    6.6975   -6.7044    7.5789 C   0  0  0  0  0  0  0  0  0  0  0  0
    5.0379   -4.6435    4.1873 C   0  0  0  0  0  0  0  0  0  0  0  0
    5.6231   -1.9391    4.5703 C   0  0  0  0  0  0  0  0  0  0  0  0
    7.8801   -3.8207    4.1575 C   0  0  0  0  0  0  0  0  0  0  0  0
    8.6689   -4.5773    7.2555 H   0  0  0  0  0  0  0  0  0  0  0  0
   10.0881   -5.3932    6.4986 H   0  0  0  0  0  0  0  0  0  0  0  0
    9.3936   -8.0812    5.3216 H   0  0  0  0  0  0  0  0  0  0  0  0
    7.6636   -8.5119    5.5601 H   0  0  0  0  0  0  0  0  0  0  0  0
    6.3309   -7.6362    7.9966 H   0  0  0  0  0  0  0  0  0  0  0  0
    6.6204   -5.9071    8.3098 H   0  0  0  0  0  0  0  0  0  0  0  0
    6.1632   -6.4355    6.6667 H   0  0  0  0  0  0  0  0  0  0  0  0
    5.2510   -5.6816    4.4517 H   0  0  0  0  0  0  0  0  0  0  0  0
    4.0958   -4.3254    4.6199 H   0  0  0  0  0  0  0  0  0  0  0  0
    5.0340   -4.5415    3.1077 H   0  0  0  0  0  0  0  0  0  0  0  0
    6.3276   -1.1971    4.9283 H   0  0  0  0  0  0  0  0  0  0  0  0
    5.4696   -1.8309    3.5038 H   0  0  0  0  0  0  0  0  0  0  0  0
    4.6888   -1.8478    5.1100 H   0  0  0  0  0  0  0  0  0  0  0  0
    7.7647   -3.6205    3.0934 H   0  0  0  0  0  0  0  0  0  0  0  0
    8.5597   -3.1094    4.6276 H   0  0  0  0  0  0  0  0  0  0  0  0
  2  1  1  6  0  0  0
  2  8  1  0  0  0  0
  2  7  1  0  0  0  0
  3  9  1  0  0  0  0
  3  5  1  1  0  0  0
  4  6  1  0  0  0  0
  7  3  1  0  0  0  0
  7 13  1  0  0  0  0
  8  3  1  0  0  0  0
  9 17  1  0  0  0  0
  9 18  1  0  0  0  0
 10 20  1  0  0  0  0
 10 21  1  0  0  0  0
 10  4  1  0  0  0  0
 11  4  1  0  0  0  0
 11 23  1  0  0  0  0
 11 25  1  0  0  0  0
 12 27  1  0  0  0  0
 12  2  1  0  0  0  0
 12  4  1  0  0  0  0
 14  7  1  0  0  0  0
 15  8  1  0  0  0  0
 16  8  1  0  0  0  0
 19  9  1  0  0  0  0
 22 10  1  0  0  0  0
 24 11  1  0  0  0  0
 26 12  1  0  0  0  0
M  END
$$$$
