CSD_code = FEXQEH | q = 0 | S = 0 | Stoichiometry = C18H15Cl3F2N3O2Rh | MND = 6
 OpenBabel04212202033D

 44 47  0  0  1  0  0  0  0  0999 V2000
    4.7250    3.5238    0.5468 Rh  0  0  0  0  0  0  0  0  0  0  0  0
    5.6819    5.6074    0.6720 Cl  0  0  0  0  0  0  0  0  0  0  0  0
    4.2271    3.8115   -1.6088 Cl  0  0  0  0  0  0  0  0  0  0  0  0
    3.7174    1.4189    0.5883 Cl  0  0  0  0  0  0  0  0  0  0  0  0
    8.6679    4.7313   -3.5079 F   0  0  0  0  0  0  0  0  0  0  0  0
   10.5782    2.8485   -3.2471 F   0  0  0  0  0  0  0  0  0  0  0  0
    5.0320    3.0918    2.6545 O   0  0  0  0  0  0  0  0  0  0  0  0
    2.8844    4.6123    0.8847 O   0  0  0  0  0  0  0  0  0  0  0  0
    3.1616    5.4938    0.5687 H   0  0  0  0  0  0  0  0  0  0  0  0
    4.7927    1.3652    4.0429 N   0  0  0  0  0  0  0  0  0  0  0  0
    4.1661    1.9625    4.5710 H   0  0  0  0  0  0  0  0  0  0  0  0
    6.4107    2.6377    0.2417 N   0  0  0  0  0  0  0  0  0  0  0  0
    7.9999    1.1186    0.4640 N   0  0  0  0  0  0  0  0  0  0  0  0
    8.5223    0.3464    0.8421 H   0  0  0  0  0  0  0  0  0  0  0  0
    7.3478    2.8668   -0.7363 C   0  0  0  0  0  0  0  0  0  0  0  0
    7.4288    3.8509   -1.7189 C   0  0  0  0  0  0  0  0  0  0  0  0
    6.6686    4.6069   -1.8357 H   0  0  0  0  0  0  0  0  0  0  0  0
    8.5295    3.8108   -2.5459 C   0  0  0  0  0  0  0  0  0  0  0  0
    9.5297    2.8330   -2.4120 C   0  0  0  0  0  0  0  0  0  0  0  0
    9.4695    1.8603   -1.4367 C   0  0  0  0  0  0  0  0  0  0  0  0
   10.2516    1.1250   -1.3460 H   0  0  0  0  0  0  0  0  0  0  0  0
    8.3643    1.8964   -0.5997 C   0  0  0  0  0  0  0  0  0  0  0  0
    6.8217    1.5968    0.9546 C   0  0  1  0  0  3  0  0  0  0  0  0
    6.1803    1.0435    2.1276 C   0  0  0  0  0  0  0  0  0  0  0  0
    6.4204   -0.2374    2.5465 C   0  0  0  0  0  0  0  0  0  0  0  0
    7.0407   -0.8983    1.9589 H   0  0  0  0  0  0  0  0  0  0  0  0
    5.8316   -0.7626    3.7263 C   0  0  0  0  0  0  0  0  0  0  0  0
    6.0440   -2.0766    4.1685 C   0  0  0  0  0  3  0  0  0  0  0  0
    6.6809   -2.7229    3.5828 H   0  0  0  0  0  0  0  0  0  0  0  0
    5.4539   -2.5469    5.3216 C   0  0  0  0  0  0  0  0  0  0  0  0
    5.6736   -3.9478    5.7992 C   0  0  0  0  0  0  0  0  0  0  0  0
    6.3275   -4.4933    5.1248 H   0  0  0  0  0  0  0  0  0  0  0  0
    4.7238   -4.4760    5.8667 H   0  0  0  0  0  0  0  0  0  0  0  0
    6.1211   -3.9430    6.7921 H   0  0  0  0  0  0  0  0  0  0  0  0
    4.6294   -1.6852    6.0574 C   0  0  0  0  0  0  0  0  0  0  0  0
    4.1637   -2.0500    6.9606 H   0  0  0  0  0  0  0  0  0  0  0  0
    4.4011   -0.3904    5.6502 C   0  0  0  0  0  0  0  0  0  0  0  0
    3.7600    0.2611    6.2252 H   0  0  0  0  0  0  0  0  0  0  0  0
    4.9967    0.0826    4.4827 C   0  0  0  0  0  0  0  0  0  0  0  0
    5.2984    1.9064    2.9036 C   0  0  0  0  0  0  0  0  0  0  0  0
    2.3997    4.7444    2.2116 C   0  0  0  0  0  0  0  0  0  0  0  0
    1.5415    5.4228    2.2193 H   0  0  0  0  0  0  0  0  0  0  0  0
    3.1739    5.1184    2.8882 H   0  0  0  0  0  0  0  0  0  0  0  0
    2.0783    3.7535    2.5335 H   0  0  0  0  0  0  0  0  0  0  0  0
  1  4  1  0  0  0  0
  1  2  1  0  0  0  0
  1  7  1  0  0  0  0
  3  1  1  0  0  0  0
  5 18  1  0  0  0  0
  6 19  1  0  0  0  0
  7 40  1  0  0  0  0
  8 41  1  0  0  0  0
  9  8  1  0  0  0  0
 10 39  1  0  0  0  0
 10 11  1  0  0  0  0
 12  1  1  0  0  0  0
 12 23  1  0  0  0  0
 13 14  1  0  0  0  0
 13 23  1  0  0  0  0
 15 22  1  0  0  0  0
 15 12  1  0  0  0  0
 16 15  2  0  0  0  0
 17 16  1  0  0  0  0
 18 19  2  0  0  0  0
 18 16  1  0  0  0  0
 19 20  1  0  0  0  0
 20 21  1  0  0  0  0
 20 22  2  0  0  0  0
 22 13  1  0  0  0  0
 23 24  1  1  0  0  0
 24 25  1  0  0  0  0
 24 40  2  0  0  0  0
 25 27  2  0  0  0  0
 26 25  1  0  0  0  0
 27 28  1  0  0  0  0
 27 39  1  0  0  0  0
 28 30  1  0  0  0  0
 29 28  1  0  0  0  0
 30 31  1  0  0  0  0
 30 35  2  0  0  0  0
 31 33  1  0  0  0  0
 31 34  1  0  0  0  0
 32 31  1  0  0  0  0
 35 36  1  0  0  0  0
 37 35  1  0  0  0  0
 37 38  1  0  0  0  0
 39 37  2  0  0  0  0
 40 10  1  0  0  0  0
 41 42  1  0  0  0  0
 41 44  1  0  0  0  0
 41 43  1  0  0  0  0
M  END
$$$$
