CSD_code = FEXSAC | q = 0 | S = 0 | Stoichiometry = C18H23ClN2Pt | MND = 6
 OpenBabel04212202033D

 45 44  0  0  1  0  0  0  0  0999 V2000
    1.4088    2.9340    2.0433 Pt  0  0  0  0  0  0  0  0  0  0  0  0
    2.7413    1.0057    2.7333 Cl  0  0  0  0  0 15  0  0  0  0  0  0
    0.1724    2.3399    3.8557 N   0  0  0  0  0  0  0  0  0  0  0  0
    2.2686    4.0143    3.7951 N   0  0  0  0  0  0  0  0  0  0  0  0
   -0.7563    1.3923    3.8536 C   0  0  0  0  0  0  0  0  0  0  0  0
   -1.2522    0.8661    5.0458 C   0  0  0  0  0  0  0  0  0  0  0  0
   -0.7657    1.3341    6.2542 C   0  0  0  0  0  0  0  0  0  0  0  0
    0.2188    2.3063    6.2447 C   0  0  0  0  0  0  0  0  0  0  0  0
    0.6720    2.7791    5.0154 C   0  0  0  0  0  0  0  0  0  0  0  0
   -1.2137    0.8961    2.5266 C   0  0  0  0  0  0  0  0  0  0  0  0
    1.7613    3.7337    4.9229 C   0  0  0  0  0  0  0  0  0  0  0  0
    3.4061    4.8939    3.7042 C   0  0  1  0  0  0  0  0  0  0  0  0
    4.6267    4.0469    3.3411 C   0  0  0  0  0  0  0  0  0  0  0  0
    3.0667    5.9618    2.6842 C   0  0  0  0  0  0  0  0  0  0  0  0
    2.2618    7.0224    3.0851 C   0  0  0  0  0  0  0  0  0  0  0  0
    1.8925    8.0077    2.1886 C   0  0  0  0  0  0  0  0  0  0  0  0
    2.3256    7.9445    0.8750 C   0  0  0  0  0  0  0  0  0  0  0  0
    3.1280    6.8930    0.4691 C   0  0  0  0  0  0  0  0  0  0  0  0
    3.4958    5.9035    1.3659 C   0  0  0  0  0  0  0  0  0  0  0  0
    0.1602    4.5232    1.5888 C   0  0  0  0  0  0  0  0  0  0  0  0
    1.1239    2.0809    0.1638 C   0  0  0  0  0  0  0  0  0  0  0  0
    2.2613    2.9328    0.1414 C   0  0  0  0  0  3  0  0  0  0  0  0
   -2.0070    0.0958    5.0175 H   0  0  0  0  0  0  0  0  0  0  0  0
   -1.1392    0.9397    7.1874 H   0  0  0  0  0  0  0  0  0  0  0  0
    0.6434    2.6850    7.1615 H   0  0  0  0  0  0  0  0  0  0  0  0
   -2.1612    0.3694    2.5991 H   0  0  0  0  0  0  0  0  0  0  0  0
   -0.4577    0.2129    2.1374 H   0  0  0  0  0  0  0  0  0  0  0  0
   -1.2962    1.7281    1.8289 H   0  0  0  0  0  0  0  0  0  0  0  0
    2.1480    4.1484    5.8586 H   0  0  0  0  0  0  0  0  0  0  0  0
    3.5845    5.3823    4.6790 H   0  0  0  0  0  0  0  0  0  0  0  0
    5.4614    4.6846    3.0625 H   0  0  0  0  0  0  0  0  0  0  0  0
    4.3799    3.3757    2.5206 H   0  0  0  0  0  0  0  0  0  0  0  0
    4.9133    3.4347    4.1934 H   0  0  0  0  0  0  0  0  0  0  0  0
    1.9197    7.0754    4.1101 H   0  0  0  0  0  0  0  0  0  0  0  0
    1.2657    8.8249    2.5146 H   0  0  0  0  0  0  0  0  0  0  0  0
    2.0378    8.7122    0.1719 H   0  0  0  0  0  0  0  0  0  0  0  0
    3.4694    6.8395   -0.5546 H   0  0  0  0  0  0  0  0  0  0  0  0
    4.1232    5.0942    1.0317 H   0  0  0  0  0  0  0  0  0  0  0  0
   -0.1297    5.0163    2.5196 H   0  0  0  0  0  0  0  0  0  0  0  0
   -0.7519    4.1914    1.0893 H   0  0  0  0  0  0  0  0  0  0  0  0
    0.6343    5.2695    0.9526 H   0  0  0  0  0  0  0  0  0  0  0  0
    0.2320    2.3857   -0.3779 H   0  0  0  0  0  0  0  0  0  0  0  0
    1.2887    1.0064    0.1891 H   0  0  0  0  0  0  0  0  0  0  0  0
    3.2464    2.4715    0.1540 H   0  0  0  0  0  0  0  0  0  0  0  0
    2.2065    3.8686   -0.4077 H   0  0  0  0  0  0  0  0  0  0  0  0
  3  9  1  0  0  0  0
  4 11  2  0  0  0  0
  5  3  2  0  0  0  0
  5  6  1  0  0  0  0
  6  7  2  0  0  0  0
  7 24  1  0  0  0  0
  8  7  1  0  0  0  0
  8 25  1  0  0  0  0
  9  8  2  0  0  0  0
 10 26  1  0  0  0  0
 10  5  1  0  0  0  0
 11  9  1  0  0  0  0
 11 29  1  0  0  0  0
 12  4  1  0  0  0  0
 12 30  1  1  0  0  0
 13 12  1  0  0  0  0
 13 33  1  0  0  0  0
 14 15  1  0  0  0  0
 14 12  1  0  0  0  0
 15 34  1  0  0  0  0
 16 35  1  0  0  0  0
 16 15  2  0  0  0  0
 17 16  1  0  0  0  0
 18 17  2  0  0  0  0
 18 19  1  0  0  0  0
 19 14  2  0  0  0  0
 20  1  1  0  0  0  0
 20 39  1  0  0  0  0
 21 43  1  0  0  0  0
 21  1  1  0  0  0  0
 22 44  1  0  0  0  0
 22 21  1  0  0  0  0
 23  6  1  0  0  0  0
 27 10  1  0  0  0  0
 28 10  1  0  0  0  0
 31 13  1  0  0  0  0
 32 13  1  0  0  0  0
 36 17  1  0  0  0  0
 37 18  1  0  0  0  0
 38 19  1  0  0  0  0
 40 20  1  0  0  0  0
 41 20  1  0  0  0  0
 42 21  1  0  0  0  0
 45 22  1  0  0  0  0
M  END
$$$$
