CSD_code = FEXTUY | q = 0 | S = 0 | Stoichiometry = C6H13Cl2N3NiO2S | MND = 6
 OpenBabel04212202033D

 28 29  0  0  1  0  0  0  0  0999 V2000
    1.1604    9.5767   11.0584 Ni  0  0  0  0  0  0  0  0  0  0  0  0
   -0.2766   10.5616    8.8198 S   0  0  0  0  0  0  0  0  0  0  0  0
    0.5286   10.9054   12.5028 Cl  0  0  0  0  0  0  0  0  0  0  0  0
   -0.2399    8.1682   11.6188 Cl  0  0  0  0  0  0  0  0  0  0  0  0
    1.7320    8.3893    9.5088 O   0  0  0  0  0  0  0  0  0  0  0  0
    3.1565    9.2216   12.1765 O   0  0  0  0  0  0  0  0  0  0  0  0
    2.4802   11.1481   10.2472 N   0  0  2  0  0  4  0  0  0  0  0  0
    2.0002   11.9011   10.7506 H   0  0  0  0  0  0  0  0  0  0  0  0
    1.3986    7.0454    7.7562 N   0  0  0  0  0  0  0  0  0  0  0  0
    1.9669    6.3343    8.1904 H   0  0  0  0  0  0  0  0  0  0  0  0
    0.8233    6.7776    6.9773 H   0  0  0  0  0  0  0  0  0  0  0  0
    4.6307   10.6749   13.0485 N   0  0  0  0  0  0  0  0  0  0  0  0
    4.5711   10.2101   13.9411 H   0  0  0  0  0  0  0  0  0  0  0  0
    5.0535   11.5854   13.0200 H   0  0  0  0  0  0  0  0  0  0  0  0
    1.1415    8.1592    8.4733 C   0  0  2  0  0  3  0  0  0  0  0  0
    0.1269    9.0898    7.8254 C   0  0  0  0  0  0  0  0  0  0  0  0
   -0.8208    8.5596    7.7210 H   0  0  0  0  0  0  0  0  0  0  0  0
    0.4728    9.4072    6.8407 H   0  0  0  0  0  0  0  0  0  0  0  0
    1.0311   11.7431    8.3354 C   0  0  0  0  0  0  0  0  0  0  0  0
    0.6917   12.6777    8.7837 H   0  0  0  0  0  0  0  0  0  0  0  0
    1.0148   11.8444    7.2498 H   0  0  0  0  0  0  0  0  0  0  0  0
    2.4372   11.4067    8.8148 C   0  0  0  0  0  0  0  0  0  0  0  0
    3.0924   12.2531    8.5429 H   0  0  0  0  0  0  0  0  0  0  0  0
    2.8097   10.5162    8.2951 H   0  0  0  0  0  0  0  0  0  0  0  0
    3.8394   11.0290   10.7619 C   0  0  0  0  0  0  0  0  0  0  0  0
    4.3261   12.0058   10.8930 H   0  0  0  0  0  0  0  0  0  0  0  0
    4.4270   10.4362   10.0516 H   0  0  0  0  0  0  0  0  0  0  0  0
    3.8192   10.2310   12.0688 C   0  0  1  0  0  3  0  0  0  0  0  0
  1  4  1  0  0  0  0
  1  6  1  0  0  0  0
  1  3  1  0  0  0  0
  5  1  1  0  0  0  0
  7  8  1  1  0  0  0
  7 25  1  0  0  0  0
  7  1  1  0  0  0  0
  9 10  1  0  0  0  0
 11  9  1  0  0  0  0
 12 13  1  0  0  0  0
 14 12  1  0  0  0  0
 15  9  1  6  0  0  0
 15  5  1  0  0  0  0
 16 15  1  0  0  0  0
 16  2  1  0  0  0  0
 17 16  1  0  0  0  0
 18 16  1  0  0  0  0
 19 20  1  0  0  0  0
 19 22  1  0  0  0  0
 19  2  1  0  0  0  0
 21 19  1  0  0  0  0
 22  7  1  0  0  0  0
 23 22  1  0  0  0  0
 24 22  1  0  0  0  0
 25 26  1  0  0  0  0
 25 28  1  0  0  0  0
 27 25  1  0  0  0  0
 28  6  1  0  0  0  0
 28 12  1  6  0  0  0
M  END
$$$$
