CSD_code = FEXXEM | q = 0 | S = 0 | Stoichiometry = C16H12Cl2N2Pt | MND = 4
 OpenBabel04212202033D

 33 36  0  0  0  0  0  0  0  0999 V2000
    3.2859    1.1873   10.9878 Pt  0  0  0  0  0  0  0  0  0  0  0  0
    3.9466   -0.4888   12.2972 Cl  0  0  0  0  0  0  0  0  0  0  0  0
    3.9528   -0.0191    9.2248 Cl  0  0  0  0  0  0  0  0  0  0  0  0
    2.7954    2.4021   12.5107 N   0  0  0  0  0  0  0  0  0  0  0  0
    2.8420    2.1410   13.8149 C   0  0  0  0  0  0  0  0  0  0  0  0
    3.1188    1.1293   14.0826 H   0  0  0  0  0  0  0  0  0  0  0  0
    2.5634    3.0998   14.7698 C   0  0  0  0  0  0  0  0  0  0  0  0
    2.6154    2.8453   15.8155 H   0  0  0  0  0  0  0  0  0  0  0  0
    2.2199    4.3877   14.3634 C   0  0  0  0  0  0  0  0  0  0  0  0
    2.0000    5.1530   15.0914 H   0  0  0  0  0  0  0  0  0  0  0  0
    2.1674    4.6661   13.0143 C   0  0  0  0  0  0  0  0  0  0  0  0
    1.9080    5.6478   12.6505 H   0  0  0  0  0  0  0  0  0  0  0  0
    2.4611    3.6515   12.0971 C   0  0  0  0  0  0  0  0  0  0  0  0
    2.4116    3.8067   10.6776 C   0  0  0  0  0  0  0  0  0  0  0  0
    2.1093    4.7485   10.2305 H   0  0  0  0  0  0  0  0  0  0  0  0
    2.6811    2.7623    9.9492 N   0  0  0  0  0  0  0  0  0  0  0  0
    2.6274    2.8394    8.5567 C   0  0  0  0  0  0  0  0  0  0  0  0
    3.2428    3.8638    7.8733 C   0  0  0  0  0  0  0  0  0  0  0  0
    3.7975    4.6200    8.4117 H   0  0  0  0  0  0  0  0  0  0  0  0
    3.2245    3.9001    6.4670 C   0  0  0  0  0  0  0  0  0  0  0  0
    3.8722    4.9214    5.7397 C   0  0  0  0  0  0  0  0  0  0  0  0
    4.3949    5.6954    6.2833 H   0  0  0  0  0  0  0  0  0  0  0  0
    3.8410    4.9300    4.3735 C   0  0  0  0  0  0  0  0  0  0  0  0
    4.3408    5.7127    3.8222 H   0  0  0  0  0  0  0  0  0  0  0  0
    3.1631    3.9198    3.6731 C   0  0  0  0  0  0  0  0  0  0  0  0
    3.1523    3.9412    2.5934 H   0  0  0  0  0  0  0  0  0  0  0  0
    2.5255    2.9171    4.3500 C   0  0  0  0  0  0  0  0  0  0  0  0
    2.0049    2.1362    3.8149 H   0  0  0  0  0  0  0  0  0  0  0  0
    2.5382    2.8779    5.7584 C   0  0  0  0  0  0  0  0  0  0  0  0
    1.8966    1.8535    6.4889 C   0  0  0  0  0  0  0  0  0  0  0  0
    1.3732    1.0799    5.9474 H   0  0  0  0  0  0  0  0  0  0  0  0
    1.9420    1.8243    7.8505 C   0  0  0  0  0  0  0  0  0  0  0  0
    1.4540    1.0429    8.4139 H   0  0  0  0  0  0  0  0  0  0  0  0
  1  2  1  0  0  0  0
  1  4  1  0  0  0  0
  3  1  1  0  0  0  0
  4  5  1  0  0  0  0
  5  6  1  0  0  0  0
  5  7  2  0  0  0  0
  7  8  1  0  0  0  0
  9  7  1  0  0  0  0
  9 10  1  0  0  0  0
 11  9  2  0  0  0  0
 12 11  1  0  0  0  0
 13  4  1  0  0  0  0
 13 11  1  0  0  0  0
 14 13  2  0  0  0  0
 15 14  1  0  0  0  0
 16 14  1  0  0  0  0
 16  1  1  0  0  0  0
 17 16  1  0  0  0  0
 18 19  1  0  0  0  0
 18 17  1  0  0  0  0
 20 18  2  0  0  0  0
 21 22  1  0  0  0  0
 21 20  1  0  0  0  0
 23 21  2  0  0  0  0
 24 23  1  0  0  0  0
 25 27  2  0  0  0  0
 25 23  1  0  0  0  0
 26 25  1  0  0  0  0
 27 29  1  0  0  0  0
 28 27  1  0  0  0  0
 29 20  1  0  0  0  0
 29 30  2  0  0  0  0
 30 32  1  0  0  0  0
 31 30  1  0  0  0  0
 32 33  1  0  0  0  0
 32 17  2  0  0  0  0
M  END
$$$$
