CSD_code = FEXYOZ | q = 0 | S = 0 | Stoichiometry = C28H29ClIrNO | MND = 8
 OpenBabel04212202033D

 61 65  0  0  1  0  0  0  0  0999 V2000
    7.1868    2.2368    2.8807 Ir  0  0  1  0  0  0  0  0  0  0  0  0
    5.0845    2.0901    3.9159 Cl  0  0  0  0  0 15  0  0  0  0  0  0
    6.9915    0.3278    2.2719 N   0  0  0  0  0  0  0  0  0  0  0  0
    9.0264   -3.7799    5.3967 O   0  0  0  0  0  0  0  0  0  0  0  0
    6.2162    2.4625    1.1136 C   0  0  0  0  0  0  0  0  0  0  0  0
    5.7651    3.6227    0.5458 C   0  0  0  0  0  0  0  0  0  0  0  0
    5.8825    4.5685    1.0542 H   0  0  0  0  0  0  0  0  0  0  0  0
    5.1222    3.6338   -0.7131 C   0  0  0  0  0  0  0  0  0  0  0  0
    4.6824    4.8338   -1.3088 C   0  0  0  0  0  0  0  0  0  0  0  0
    4.8447    5.7630   -0.7814 H   0  0  0  0  0  0  0  0  0  0  0  0
    4.0607    4.8273   -2.5262 C   0  0  0  0  0  0  0  0  0  0  0  0
    3.7261    5.7527   -2.9722 H   0  0  0  0  0  0  0  0  0  0  0  0
    3.8481    3.6188   -3.2102 C   0  0  0  0  0  0  0  0  0  0  0  0
    3.3549    3.6336   -4.1711 H   0  0  0  0  0  0  0  0  0  0  0  0
    4.2599    2.4378   -2.6621 C   0  0  0  0  0  0  0  0  0  0  0  0
    4.0987    1.5036   -3.1813 H   0  0  0  0  0  0  0  0  0  0  0  0
    4.9054    2.4092   -1.4057 C   0  0  0  0  0  0  0  0  0  0  0  0
    5.3306    1.2126   -0.8107 C   0  0  0  0  0  0  0  0  0  0  0  0
    5.1450    0.2724   -1.3117 H   0  0  0  0  0  0  0  0  0  0  0  0
    5.9714    1.2349    0.4118 C   0  0  0  0  0  0  0  0  0  0  0  0
    6.4228    0.0870    1.1293 C   0  0  0  0  0  3  0  0  0  0  0  0
    6.2686   -0.9278    0.7758 H   0  0  0  0  0  0  0  0  0  0  0  0
    7.4835   -0.7151    3.0650 C   0  0  0  0  0  0  0  0  0  0  0  0
    8.2927   -1.7167    2.5252 C   0  0  0  0  0  0  0  0  0  0  0  0
    8.5461   -1.6899    1.4753 H   0  0  0  0  0  0  0  0  0  0  0  0
    8.7917   -2.7143    3.3322 C   0  0  0  0  0  0  0  0  0  0  0  0
    9.4281   -3.4871    2.9312 H   0  0  0  0  0  0  0  0  0  0  0  0
    8.4839   -2.7499    4.6946 C   0  0  0  0  0  0  0  0  0  0  0  0
    7.6695   -1.7560    5.2313 C   0  0  0  0  0  0  0  0  0  0  0  0
    7.4048   -1.7586    6.2768 H   0  0  0  0  0  0  0  0  0  0  0  0
    7.1835   -0.7461    4.4239 C   0  0  0  0  0  0  0  0  0  0  0  0
    6.5401    0.0182    4.8332 H   0  0  0  0  0  0  0  0  0  0  0  0
    8.7403   -3.8840    6.7708 C   0  0  0  0  0  0  0  0  0  0  0  0
    9.1102   -3.0158    7.3258 H   0  0  0  0  0  0  0  0  0  0  0  0
    9.2612   -4.7767    7.1130 H   0  0  0  0  0  0  0  0  0  0  0  0
    7.6669   -4.0006    6.9502 H   0  0  0  0  0  0  0  0  0  0  0  0
    7.8869    4.0199    3.9933 C   0  0  1  0  0  0  0  0  0  0  0  0
    8.3482    2.9073    4.8097 C   0  0  0  0  0  0  0  0  0  0  0  0
    9.2463    2.1557    4.0555 C   0  0  0  0  0  0  0  0  0  0  0  0
    9.3378    2.7565    2.7393 C   0  0  2  0  0  0  0  0  0  0  0  0
    8.5946    3.9818    2.7605 C   0  0  2  0  0  3  0  0  0  0  0  0
    7.0804    5.1565    4.5401 C   0  0  0  0  0  0  0  0  0  0  0  0
    6.2104    4.7817    5.0761 H   0  0  0  0  0  0  0  0  0  0  0  0
    6.7334    5.8126    3.7458 H   0  0  0  0  0  0  0  0  0  0  0  0
    7.6845    5.7426    5.2357 H   0  0  0  0  0  0  0  0  0  0  0  0
    7.9487    2.7107    6.2348 C   0  0  0  0  0  0  0  0  0  0  0  0
    8.3397    1.7748    6.6273 H   0  0  0  0  0  0  0  0  0  0  0  0
    6.8627    2.6976    6.3247 H   0  0  0  0  0  0  0  0  0  0  0  0
    8.3274    3.5297    6.8485 H   0  0  0  0  0  0  0  0  0  0  0  0
   10.0716    0.9951    4.5075 C   0  0  0  0  0  0  0  0  0  0  0  0
   11.0788    1.3350    4.7575 H   0  0  0  0  0  0  0  0  0  0  0  0
   10.1567    0.2403    3.7272 H   0  0  0  0  0  0  0  0  0  0  0  0
    9.6415    0.5220    5.3870 H   0  0  0  0  0  0  0  0  0  0  0  0
   10.3535    2.3868    1.7043 C   0  0  0  0  0  0  0  0  0  0  0  0
   11.3101    2.8613    1.9336 H   0  0  0  0  0  0  0  0  0  0  0  0
   10.0383    2.7172    0.7169 H   0  0  0  0  0  0  0  0  0  0  0  0
   10.5104    1.3103    1.6752 H   0  0  0  0  0  0  0  0  0  0  0  0
    8.6892    5.0626    1.7293 C   0  0  0  0  0  0  0  0  0  0  0  0
    7.9154    5.8114    1.8740 H   0  0  0  0  0  0  0  0  0  0  0  0
    8.5972    4.6620    0.7217 H   0  0  0  0  0  0  0  0  0  0  0  0
    9.6595    5.5556    1.8127 H   0  0  0  0  0  0  0  0  0  0  0  0
  1  5  1  6  0  0  0
  1 37  1  0  0  0  0
  3  1  1  0  0  0  0
  3 23  1  0  0  0  0
  4 33  1  0  0  0  0
  6  7  1  0  0  0  0
  6  5  1  0  0  0  0
  8  6  2  0  0  0  0
  9 10  1  0  0  0  0
  9  8  1  0  0  0  0
 11  9  2  0  0  0  0
 12 11  1  0  0  0  0
 13 15  2  0  0  0  0
 13 11  1  0  0  0  0
 14 13  1  0  0  0  0
 15 17  1  0  0  0  0
 16 15  1  0  0  0  0
 17 18  2  0  0  0  0
 17  8  1  0  0  0  0
 18 20  1  0  0  0  0
 19 18  1  0  0  0  0
 20  5  2  0  0  0  0
 20 21  1  0  0  0  0
 21  3  1  0  0  0  0
 22 21  1  0  0  0  0
 23 31  1  0  0  0  0
 24 23  2  0  0  0  0
 24 26  1  0  0  0  0
 25 24  1  0  0  0  0
 26 28  2  0  0  0  0
 27 26  1  0  0  0  0
 28 29  1  0  0  0  0
 28  4  1  0  0  0  0
 29 30  1  0  0  0  0
 31 32  1  0  0  0  0
 31 29  2  0  0  0  0
 33 36  1  0  0  0  0
 33 35  1  0  0  0  0
 33 34  1  0  0  0  0
 37 42  1  1  0  0  0
 37 38  1  0  0  0  0
 38 46  1  0  0  0  0
 39 50  1  0  0  0  0
 39 38  2  0  0  0  0
 40 54  1  6  0  0  0
 40 41  1  0  0  0  0
 40  1  1  0  0  0  0
 40 39  1  0  0  0  0
 41 58  1  1  0  0  0
 41 37  1  0  0  0  0
 42 43  1  0  0  0  0
 42 45  1  0  0  0  0
 44 42  1  0  0  0  0
 46 48  1  0  0  0  0
 46 47  1  0  0  0  0
 46 49  1  0  0  0  0
 50 51  1  0  0  0  0
 50 53  1  0  0  0  0
 52 50  1  0  0  0  0
 54 55  1  0  0  0  0
 56 54  1  0  0  0  0
 57 54  1  0  0  0  0
 58 61  1  0  0  0  0
 58 59  1  0  0  0  0
 60 58  1  0  0  0  0
M  END
$$$$
