CSD_code = FEYBUI | q = 0 | S = 0 | Stoichiometry = C25H29BrN2Pt | MND = 4
 OpenBabel04212202033D

 58 61  0  0  0  0  0  0  0  0999 V2000
    3.3503    2.7895   16.6091 C   0  0  0  0  0  0  0  0  0  0  0  0
    2.8845    2.7866   17.6001 H   0  0  0  0  0  0  0  0  0  0  0  0
    3.8322    3.7674   16.4606 H   0  0  0  0  0  0  0  0  0  0  0  0
    4.4062    1.6743   16.5815 C   0  0  0  0  0  0  0  0  0  0  0  0
    5.1550    1.8515   17.3672 H   0  0  0  0  0  0  0  0  0  0  0  0
    4.9158    1.6630   15.6122 H   0  0  0  0  0  0  0  0  0  0  0  0
    2.7274    3.0723   14.3044 C   0  0  0  0  0  0  0  0  0  0  0  0
    2.8727    4.1609   14.3504 H   0  0  0  0  0  0  0  0  0  0  0  0
    1.9598    2.8527   13.5639 H   0  0  0  0  0  0  0  0  0  0  0  0
    3.6585    2.6089   13.9770 H   0  0  0  0  0  0  0  0  0  0  0  0
    1.0406    3.1222   15.9862 C   0  0  0  0  0  0  0  0  0  0  0  0
    0.7123    2.7056   16.9391 H   0  0  0  0  0  0  0  0  0  0  0  0
    0.2958    2.8774   15.2297 H   0  0  0  0  0  0  0  0  0  0  0  0
    1.1047    4.2149   16.0794 H   0  0  0  0  0  0  0  0  0  0  0  0
    3.9892   -0.2882   17.8105 C   0  0  0  0  0  3  0  0  0  0  0  0
    4.8058    0.0201   18.4691 H   0  0  0  0  0  0  0  0  0  0  0  0
    3.2586   -1.4766   18.2012 C   0  0  0  0  0  0  0  0  0  0  0  0
    1.8770   -1.5482   18.0064 C   0  0  0  0  0  0  0  0  0  0  0  0
    1.3620   -0.7109   17.5409 H   0  0  0  0  0  0  0  0  0  0  0  0
    1.1620   -2.6506   18.4244 C   0  0  0  0  0  0  0  0  0  0  0  0
    0.0956   -2.6933   18.2657 H   0  0  0  0  0  0  0  0  0  0  0  0
    1.8163   -3.7027   19.0473 C   0  0  0  0  0  0  0  0  0  0  0  0
    1.2625   -4.5739   19.3634 H   0  0  0  0  0  0  0  0  0  0  0  0
    3.1787   -3.6346   19.2699 C   0  0  0  0  0  0  0  0  0  0  0  0
    3.6905   -4.4557   19.7504 H   0  0  0  0  0  0  0  0  0  0  0  0
    3.9162   -2.5302   18.8590 C   0  0  0  0  0  0  0  0  0  0  0  0
    5.3663   -2.4857   19.0957 C   0  0  0  0  0  0  0  0  0  0  0  0
    5.8814   -2.7615   20.3598 C   0  0  0  0  0  0  0  0  0  0  0  0
    5.2061   -3.0124   21.1651 H   0  0  0  0  0  0  0  0  0  0  0  0
    7.2403   -2.6870   20.5974 C   0  0  0  0  0  0  0  0  0  0  0  0
    7.6209   -2.8918   21.5881 H   0  0  0  0  0  0  0  0  0  0  0  0
    8.1261   -2.3489   19.5811 C   0  0  0  0  0  0  0  0  0  0  0  0
    7.6125   -2.0984   18.3139 C   0  0  0  0  0  0  0  0  0  0  0  0
    8.2875   -1.8500   17.5069 H   0  0  0  0  0  0  0  0  0  0  0  0
    6.2536   -2.1628   18.0719 C   0  0  0  0  0  0  0  0  0  0  0  0
    5.8682   -1.9902   17.0779 H   0  0  0  0  0  0  0  0  0  0  0  0
    9.5951   -2.2343   19.8507 C   0  0  0  0  0  0  0  0  0  0  0  0
    9.8443   -1.2070   20.1204 H   0  0  0  0  0  0  0  0  0  0  0  0
   10.1743   -2.4991   18.9691 H   0  0  0  0  0  0  0  0  0  0  0  0
    9.8906   -2.8785   20.6754 H   0  0  0  0  0  0  0  0  0  0  0  0
    2.7606   -1.7541   15.1110 C   0  0  0  0  0  0  0  0  0  0  0  0
    4.0767   -2.1742   14.9467 C   0  0  0  0  0  0  0  0  0  0  0  0
    4.8821   -1.4496   14.8676 H   0  0  0  0  0  0  0  0  0  0  0  0
    4.3879   -3.5210   14.8703 C   0  0  0  0  0  0  0  0  0  0  0  0
    5.4188   -3.8268   14.7480 H   0  0  0  0  0  0  0  0  0  0  0  0
    3.3949   -4.4877   14.9520 C   0  0  0  0  0  0  0  0  0  0  0  0
    2.0800   -4.0681   15.0858 C   0  0  0  0  0  0  0  0  0  0  0  0
    1.2868   -4.8018   15.1310 H   0  0  0  0  0  0  0  0  0  0  0  0
    1.7652   -2.7225   15.1594 C   0  0  0  0  0  0  0  0  0  0  0  0
    0.7261   -2.4346   15.2522 H   0  0  0  0  0  0  0  0  0  0  0  0
    3.7471   -5.9448   14.8975 C   0  0  0  0  0  0  0  0  0  0  0  0
    4.3785   -6.1556   14.0356 H   0  0  0  0  0  0  0  0  0  0  0  0
    2.8513   -6.5573   14.8312 H   0  0  0  0  0  0  0  0  0  0  0  0
    4.2973   -6.2338   15.7936 H   0  0  0  0  0  0  0  0  0  0  0  0
    2.3198    2.5387   15.6012 N   0  0  0  0  0  4  0  0  0  0  0  0
    3.7222    0.4173   16.7738 N   0  0  0  0  0  0  0  0  0  0  0  0
    0.6849    0.2359   13.6985 Br  0  0  0  0  0  0  0  0  0  0  0  0
    2.3650    0.2035   15.3461 Pt  0  0  2  0  0  0  0  0  0  0  0  0
  1  2  1  0  0  0  0
  3  1  1  0  0  0  0
  4  1  1  0  0  0  0
  4 56  1  0  0  0  0
  4  5  1  0  0  0  0
  6  4  1  0  0  0  0
  7  8  1  0  0  0  0
  7 55  1  0  0  0  0
  9  7  1  0  0  0  0
 10  7  1  0  0  0  0
 11 14  1  0  0  0  0
 11 12  1  0  0  0  0
 13 11  1  0  0  0  0
 15 17  1  0  0  0  0
 15 16  1  0  0  0  0
 17 26  1  0  0  0  0
 18 17  2  0  0  0  0
 18 20  1  0  0  0  0
 19 18  1  0  0  0  0
 20 22  2  0  0  0  0
 21 20  1  0  0  0  0
 22 24  1  0  0  0  0
 22 23  1  0  0  0  0
 24 25  1  0  0  0  0
 26 27  1  0  0  0  0
 26 24  2  0  0  0  0
 27 28  1  0  0  0  0
 28 30  2  0  0  0  0
 28 29  1  0  0  0  0
 30 31  1  0  0  0  0
 32 37  1  0  0  0  0
 32 30  1  0  0  0  0
 33 32  2  0  0  0  0
 34 33  1  0  0  0  0
 35 33  1  0  0  0  0
 35 27  2  0  0  0  0
 36 35  1  0  0  0  0
 37 38  1  0  0  0  0
 37 40  1  0  0  0  0
 39 37  1  0  0  0  0
 41 49  1  0  0  0  0
 41 58  1  0  0  0  0
 42 41  2  0  0  0  0
 43 42  1  0  0  0  0
 44 42  1  0  0  0  0
 44 46  2  0  0  0  0
 45 44  1  0  0  0  0
 46 47  1  0  0  0  0
 47 48  1  0  0  0  0
 47 49  2  0  0  0  0
 49 50  1  0  0  0  0
 51 46  1  0  0  0  0
 51 54  1  0  0  0  0
 52 51  1  0  0  0  0
 53 51  1  0  0  0  0
 55 11  1  0  0  0  0
 55  1  1  0  0  0  0
 56 15  1  0  0  0  0
 58 57  1  1  0  0  0
 58 55  1  0  0  0  0
 58 56  1  0  0  0  0
M  END
$$$$
