CSD_code = FEYCAQ | q = 0 | S = 0 | Stoichiometry = C24H32Br2N2Ni | MND = 4
 OpenBabel04212202033D

 61 63  0  0  0  0  0  0  0  0999 V2000
    3.5400   12.1126    9.2032 Br  0  0  0  0  0  0  0  0  0  0  0  0
    3.3403   14.5705    7.0918 Br  0  0  0  0  0  0  0  0  0  0  0  0
    4.9564   13.3654    8.0297 Ni  0  0  0  0  0  0  0  0  0  0  0  0
    6.4555   12.1304    8.1000 N   0  0  0  0  0  0  0  0  0  0  0  0
    6.2975   10.7351    8.1857 C   0  0  0  0  0  0  0  0  0  0  0  0
    5.6769   10.0755    7.1161 C   0  0  0  0  0  0  0  0  0  0  0  0
    5.2031   10.8398    5.9105 C   0  0  0  0  0  0  0  0  0  0  0  0
    4.3624   10.3084    5.4618 H   0  0  0  0  0  0  0  0  0  0  0  0
    4.8335   11.8379    6.2170 H   0  0  0  0  0  0  0  0  0  0  0  0
    6.3031   11.0146    4.8636 C   0  0  0  0  0  0  0  0  0  0  0  0
    7.1388   11.5871    5.2621 H   0  0  0  0  0  0  0  0  0  0  0  0
    5.9133   11.5391    3.9943 H   0  0  0  0  0  0  0  0  0  0  0  0
    6.6766   10.0434    4.5445 H   0  0  0  0  0  0  0  0  0  0  0  0
    5.4985    8.7048    7.1940 C   0  0  0  0  0  0  0  0  0  0  0  0
    5.0285    8.1898    6.3696 H   0  0  0  0  0  0  0  0  0  0  0  0
    5.8889    8.0036    8.3205 C   0  0  0  0  0  0  0  0  0  0  0  0
    5.7335    6.9370    8.3741 H   0  0  0  0  0  0  0  0  0  0  0  0
    6.4418    8.6766    9.3925 C   0  0  0  0  0  0  0  0  0  0  0  0
    6.6960    8.1361   10.2914 H   0  0  0  0  0  0  0  0  0  0  0  0
    6.6587   10.0467    9.3479 C   0  0  0  0  0  0  0  0  0  0  0  0
    7.1978   10.7600   10.5593 C   0  0  0  0  0  0  0  0  0  0  0  0
    7.2401   11.8364   10.3811 H   0  0  0  0  0  0  0  0  0  0  0  0
    6.4967   10.5984   11.3824 H   0  0  0  0  0  0  0  0  0  0  0  0
    7.5960   12.6804    7.8477 C   0  0  0  0  0  0  0  0  0  0  0  0
    8.8710   11.9304    7.6395 C   0  0  0  0  0  0  0  0  0  0  0  0
    9.5454   12.1024    8.4786 H   0  0  0  0  0  0  0  0  0  0  0  0
    9.3715   12.2753    6.7355 H   0  0  0  0  0  0  0  0  0  0  0  0
    8.6772   10.8627    7.5592 H   0  0  0  0  0  0  0  0  0  0  0  0
    8.5797   10.2584   10.9776 C   0  0  0  0  0  0  0  0  0  0  0  0
    8.5405    9.2108   11.2634 H   0  0  0  0  0  0  0  0  0  0  0  0
    8.9424   10.8297   11.8293 H   0  0  0  0  0  0  0  0  0  0  0  0
    9.2960   10.3577   10.1645 H   0  0  0  0  0  0  0  0  0  0  0  0
    6.3892   14.6508    7.7273 N   0  0  0  0  0  0  0  0  0  0  0  0
    6.1788   16.0413    7.7055 C   0  0  0  0  0  0  0  0  0  0  0  0
    6.3236   16.7725    6.5226 C   0  0  0  0  0  0  0  0  0  0  0  0
    6.6782   16.1110    5.2173 C   0  0  0  0  0  0  0  0  0  0  0  0
    5.8403   16.2558    4.5301 H   0  0  0  0  0  0  0  0  0  0  0  0
    6.7970   15.0345    5.3551 H   0  0  0  0  0  0  0  0  0  0  0  0
    7.9451   16.6859    4.5843 C   0  0  0  0  0  0  0  0  0  0  0  0
    8.7939   16.6041    5.2605 H   0  0  0  0  0  0  0  0  0  0  0  0
    8.1808   16.1496    3.6678 H   0  0  0  0  0  0  0  0  0  0  0  0
    7.8126   17.7357    4.3383 H   0  0  0  0  0  0  0  0  0  0  0  0
    6.0609   18.1350    6.5581 C   0  0  0  0  0  0  0  0  0  0  0  0
    6.1469   18.7081    5.6477 H   0  0  0  0  0  0  0  0  0  0  0  0
    5.6728   18.7599    7.7270 C   0  0  0  0  0  0  0  0  0  0  0  0
    5.4787   19.8215    7.7336 H   0  0  0  0  0  0  0  0  0  0  0  0
    5.4965   18.0165    8.8800 C   0  0  0  0  0  0  0  0  0  0  0  0
    5.1559   18.4932    9.7870 H   0  0  0  0  0  0  0  0  0  0  0  0
    5.7258   16.6513    8.8837 C   0  0  0  0  0  0  0  0  0  0  0  0
    5.4846   15.8400   10.1270 C   0  0  0  0  0  0  0  0  0  0  0  0
    5.0816   14.8442    9.8555 H   0  0  0  0  0  0  0  0  0  0  0  0
    4.7285   16.3386   10.7354 H   0  0  0  0  0  0  0  0  0  0  0  0
    7.5698   14.1306    7.7630 C   0  0  0  0  0  0  0  0  0  0  0  0
    8.8419   14.9135    7.7462 C   0  0  0  0  0  0  0  0  0  0  0  0
    9.5070   14.5764    8.5403 H   0  0  0  0  0  0  0  0  0  0  0  0
    9.3566   14.7663    6.7964 H   0  0  0  0  0  0  0  0  0  0  0  0
    8.6381   15.9748    7.8733 H   0  0  0  0  0  0  0  0  0  0  0  0
    6.7547   15.6541   10.9572 C   0  0  0  0  0  0  0  0  0  0  0  0
    7.1628   16.6217   11.2433 H   0  0  0  0  0  0  0  0  0  0  0  0
    6.5326   15.0903   11.8603 H   0  0  0  0  0  0  0  0  0  0  0  0
    7.5168   15.1153   10.3966 H   0  0  0  0  0  0  0  0  0  0  0  0
  2  3  1  0  0  0  0
  3  4  1  0  0  0  0
  3  1  1  0  0  0  0
  4  5  1  0  0  0  0
  5 20  1  0  0  0  0
  6 14  1  0  0  0  0
  6  5  2  0  0  0  0
  7  9  1  0  0  0  0
  7  6  1  0  0  0  0
  8  7  1  0  0  0  0
 10 11  1  0  0  0  0
 10  7  1  0  0  0  0
 12 10  1  0  0  0  0
 13 10  1  0  0  0  0
 14 16  2  0  0  0  0
 15 14  1  0  0  0  0
 16 17  1  0  0  0  0
 16 18  1  0  0  0  0
 18 19  1  0  0  0  0
 20 18  2  0  0  0  0
 20 21  1  0  0  0  0
 21 29  1  0  0  0  0
 21 23  1  0  0  0  0
 22 21  1  0  0  0  0
 24  4  1  0  0  0  0
 25 24  1  0  0  0  0
 25 26  1  0  0  0  0
 27 25  1  0  0  0  0
 28 25  1  0  0  0  0
 29 30  1  0  0  0  0
 29 31  1  0  0  0  0
 32 29  1  0  0  0  0
 33 53  1  0  0  0  0
 33  3  1  0  0  0  0
 34 33  1  0  0  0  0
 34 49  1  0  0  0  0
 35 43  1  0  0  0  0
 35 34  2  0  0  0  0
 36 38  1  0  0  0  0
 36 35  1  0  0  0  0
 37 36  1  0  0  0  0
 39 36  1  0  0  0  0
 39 40  1  0  0  0  0
 41 39  1  0  0  0  0
 42 39  1  0  0  0  0
 43 45  2  0  0  0  0
 44 43  1  0  0  0  0
 45 46  1  0  0  0  0
 45 47  1  0  0  0  0
 47 49  2  0  0  0  0
 47 48  1  0  0  0  0
 49 50  1  0  0  0  0
 50 52  1  0  0  0  0
 50 58  1  0  0  0  0
 51 50  1  0  0  0  0
 53 24  2  0  0  0  0
 54 53  1  0  0  0  0
 54 57  1  0  0  0  0
 54 55  1  0  0  0  0
 56 54  1  0  0  0  0
 58 59  1  0  0  0  0
 58 60  1  0  0  0  0
 61 58  1  0  0  0  0
M  END
$$$$
