CSD_code = FEYFIA | q = 0 | S = 0 | Stoichiometry = C25H37BrN4NiO | MND = 4
 OpenBabel04212202033D

 69 71  0  0  1  0  0  0  0  0999 V2000
   10.3061    2.9448    7.8683 Ni  0  0  1  0  0  0  0  0  0  0  0  0
   11.4017    4.7553    8.8265 Br  0  0  0  0  0  0  0  0  0  0  0  0
   11.4443    2.9972    6.3100 C   0  0  0  0  0  0  0  0  0  0  0  0
   11.3290    3.8775    5.2992 N   0  0  0  0  0  0  0  0  0  0  0  0
   12.5900    2.3216    6.0841 N   0  0  0  0  0  0  0  0  0  0  0  0
   12.3896    3.7558    4.4445 C   0  0  0  0  0  0  0  0  0  0  0  0
   12.5031    4.3578    3.5673 H   0  0  0  0  0  0  0  0  0  0  0  0
   13.1868    2.7818    4.9408 C   0  0  0  0  0  0  0  0  0  0  0  0
   14.1138    2.3952    4.5728 H   0  0  0  0  0  0  0  0  0  0  0  0
   10.2677    4.8618    5.2017 C   0  0  0  0  0  0  0  0  0  0  0  0
    9.6436    4.7196    6.0980 H   0  0  0  0  0  0  0  0  0  0  0  0
   10.8553    6.2692    5.2342 C   0  0  0  0  0  0  0  0  0  0  0  0
   11.4770    6.4553    4.3611 H   0  0  0  0  0  0  0  0  0  0  0  0
   11.4561    6.3994    6.1318 H   0  0  0  0  0  0  0  0  0  0  0  0
   10.0523    7.0010    5.2496 H   0  0  0  0  0  0  0  0  0  0  0  0
    9.4173    4.6079    3.9619 C   0  0  0  0  0  0  0  0  0  0  0  0
   10.0170    4.6827    3.0568 H   0  0  0  0  0  0  0  0  0  0  0  0
    8.6172    5.3410    3.9093 H   0  0  0  0  0  0  0  0  0  0  0  0
    8.9703    3.6175    4.0124 H   0  0  0  0  0  0  0  0  0  0  0  0
   13.1556    1.3680    7.0175 C   0  0  0  0  0  0  0  0  0  0  0  0
   12.3221    1.0637    7.6705 H   0  0  0  0  0  0  0  0  0  0  0  0
   14.2237    2.0581    7.8653 C   0  0  0  0  0  0  0  0  0  0  0  0
   14.6053    1.3723    8.6167 H   0  0  0  0  0  0  0  0  0  0  0  0
   13.7990    2.9246    8.3678 H   0  0  0  0  0  0  0  0  0  0  0  0
   15.0507    2.3906    7.2413 H   0  0  0  0  0  0  0  0  0  0  0  0
   13.7015    0.1394    6.2996 C   0  0  0  0  0  0  0  0  0  0  0  0
   14.5903    0.3858    5.7230 H   0  0  0  0  0  0  0  0  0  0  0  0
   12.9497   -0.2794    5.6345 H   0  0  0  0  0  0  0  0  0  0  0  0
   13.9711   -0.6174    7.0314 H   0  0  0  0  0  0  0  0  0  0  0  0
    9.2650    2.6599    9.4840 C   0  0  2  0  0  3  0  0  0  0  0  0
    8.1750    3.3756    9.8204 N   0  0  0  0  0  0  0  0  0  0  0  0
    9.5970    1.9580   10.5893 N   0  0  0  0  0  0  0  0  0  0  0  0
    7.8230    3.1230   11.1177 C   0  0  0  0  0  0  0  0  0  0  0  0
    6.9830    3.5843   11.5934 H   0  0  0  0  0  0  0  0  0  0  0  0
    8.7202    2.2357   11.6041 C   0  0  0  0  0  0  0  0  0  0  0  0
    8.7980    1.7954   12.5759 H   0  0  0  0  0  0  0  0  0  0  0  0
    7.5445    4.3508    8.9511 C   0  0  0  0  0  0  0  0  0  0  0  0
    8.1213    4.3369    8.0138 H   0  0  0  0  0  0  0  0  0  0  0  0
    7.6478    5.7422    9.5690 C   0  0  0  0  0  0  0  0  0  0  0  0
    7.0793    5.8033   10.4945 H   0  0  0  0  0  0  0  0  0  0  0  0
    7.2593    6.4821    8.8746 H   0  0  0  0  0  0  0  0  0  0  0  0
    8.6890    5.9788    9.7784 H   0  0  0  0  0  0  0  0  0  0  0  0
    6.1053    3.9483    8.6491 C   0  0  0  0  0  0  0  0  0  0  0  0
    6.0834    2.9723    8.1695 H   0  0  0  0  0  0  0  0  0  0  0  0
    5.6568    4.6711    7.9735 H   0  0  0  0  0  0  0  0  0  0  0  0
    5.5116    3.9099    9.5604 H   0  0  0  0  0  0  0  0  0  0  0  0
   10.8023    1.1617   10.7095 C   0  0  0  0  0  0  0  0  0  0  0  0
   11.1602    1.0103    9.6789 H   0  0  0  0  0  0  0  0  0  0  0  0
   11.8576    1.9438   11.4900 C   0  0  0  0  0  0  0  0  0  0  0  0
   12.0433    2.9024   11.0107 H   0  0  0  0  0  0  0  0  0  0  0  0
   12.7885    1.3844   11.5213 H   0  0  0  0  0  0  0  0  0  0  0  0
   11.5233    2.1257   12.5092 H   0  0  0  0  0  0  0  0  0  0  0  0
   10.5163   -0.1922   11.3513 C   0  0  0  0  0  0  0  0  0  0  0  0
   11.4012   -0.8193   11.2835 H   0  0  0  0  0  0  0  0  0  0  0  0
    9.6976   -0.6983   10.8451 H   0  0  0  0  0  0  0  0  0  0  0  0
   10.2607   -0.0781   12.4023 H   0  0  0  0  0  0  0  0  0  0  0  0
    8.3021    2.3913    6.3708 O   0  0  0  0  0  0  0  0  0  0  0  0
    9.2316    1.8478    6.9287 C   0  0  0  0  0  0  0  0  0  0  0  0
    9.5342    0.3990    6.7976 C   0  0  0  0  0  0  0  0  0  0  0  0
   10.1156   -0.0723    5.6218 C   0  0  0  0  0  0  0  0  0  0  0  0
   10.3100    0.6162    4.8105 H   0  0  0  0  0  0  0  0  0  0  0  0
   10.4370   -1.4108    5.4954 C   0  0  0  0  0  0  0  0  0  0  0  0
   10.8813   -1.7718    4.5782 H   0  0  0  0  0  0  0  0  0  0  0  0
   10.1793   -2.2925    6.5327 C   0  0  0  0  0  0  0  0  0  0  0  0
   10.4331   -3.3373    6.4306 H   0  0  0  0  0  0  0  0  0  0  0  0
    9.5829   -1.8318    7.6954 C   0  0  0  0  0  0  0  0  0  0  0  0
    9.3634   -2.5209    8.4988 H   0  0  0  0  0  0  0  0  0  0  0  0
    9.2609   -0.4945    7.8292 C   0  0  0  0  0  0  0  0  0  0  0  0
    8.7776   -0.1325    8.7257 H   0  0  0  0  0  0  0  0  0  0  0  0
  1  2  1  6  0  0  0
  3  1  2  0  0  0  0
  4  3  1  0  0  0  0
  5  3  1  0  0  0  0
  5 20  1  0  0  0  0
  6  8  2  0  0  0  0
  6  4  1  0  0  0  0
  7  6  1  0  0  0  0
  8  5  1  0  0  0  0
  9  8  1  0  0  0  0
 10 12  1  0  0  0  0
 10  4  1  0  0  0  0
 10 11  1  0  0  0  0
 12 15  1  0  0  0  0
 12 14  1  0  0  0  0
 13 12  1  0  0  0  0
 16 19  1  0  0  0  0
 16 10  1  0  0  0  0
 17 16  1  0  0  0  0
 18 16  1  0  0  0  0
 20 21  1  0  0  0  0
 20 22  1  0  0  0  0
 22 24  1  0  0  0  0
 22 23  1  0  0  0  0
 25 22  1  0  0  0  0
 26 20  1  0  0  0  0
 26 29  1  0  0  0  0
 27 26  1  0  0  0  0
 28 26  1  0  0  0  0
 30  1  1  1  0  0  0
 30 31  1  0  0  0  0
 30 32  1  0  0  0  0
 31 33  1  0  0  0  0
 32 47  1  0  0  0  0
 32 35  1  0  0  0  0
 33 34  1  0  0  0  0
 33 35  2  0  0  0  0
 35 36  1  0  0  0  0
 37 39  1  0  0  0  0
 37 31  1  0  0  0  0
 38 37  1  0  0  0  0
 39 42  1  0  0  0  0
 39 40  1  0  0  0  0
 41 39  1  0  0  0  0
 43 37  1  0  0  0  0
 43 46  1  0  0  0  0
 44 43  1  0  0  0  0
 45 43  1  0  0  0  0
 47 53  1  0  0  0  0
 47 49  1  0  0  0  0
 48 47  1  0  0  0  0
 49 51  1  0  0  0  0
 49 52  1  0  0  0  0
 50 49  1  0  0  0  0
 53 56  1  0  0  0  0
 54 53  1  0  0  0  0
 55 53  1  0  0  0  0
 57 58  2  0  0  0  0
 58  1  1  0  0  0  0
 59 58  1  0  0  0  0
 59 68  1  0  0  0  0
 60 59  2  0  0  0  0
 61 60  1  0  0  0  0
 62 60  1  0  0  0  0
 62 64  2  0  0  0  0
 63 62  1  0  0  0  0
 64 66  1  0  0  0  0
 65 64  1  0  0  0  0
 66 68  2  0  0  0  0
 66 67  1  0  0  0  0
 68 69  1  0  0  0  0
M  END
$$$$
