CSD_code = FEYFIB | q = 0 | S = 0 | Stoichiometry = C23H22AuClN4 | MND = 2
 OpenBabel04212202033D

 51 54  0  0  1  0  0  0  0  0999 V2000
    2.5364   13.9905   11.6626 Au  0  0  0  0  0  0  0  0  0  0  0  0
    4.0005   15.5322   10.9438 Cl  0  0  0  0  0  0  0  0  0  0  0  0
    1.3966   11.4801   12.8591 N   0  0  0  0  0  0  0  0  0  0  0  0
    0.3904   12.3795    9.1404 N   0  0  0  0  0  0  0  0  0  0  0  0
    2.1786   10.8591    6.4448 N   0  0  0  0  0  0  0  0  0  0  0  0
   -0.1001   12.5733   11.7897 N   0  0  0  0  0  0  0  0  0  0  0  0
    1.1870   12.6166   12.1781 C   0  0  2  0  0  3  0  0  0  0  0  0
    1.5031   13.4317    7.3115 C   0  0  0  0  0  0  0  0  0  0  0  0
    2.0916   13.3091    6.4177 H   0  0  0  0  0  0  0  0  0  0  0  0
    1.1031   12.2986    8.0196 C   0  0  0  0  0  0  0  0  0  0  0  0
    4.1987   11.1114   15.2260 C   0  0  0  0  0  0  0  0  0  0  0  0
    4.4601   11.4019   16.2330 H   0  0  0  0  0  0  0  0  0  0  0  0
    1.4710   10.9502    7.5685 C   0  0  0  0  0  0  0  0  0  0  0  0
    2.9669   11.4862   14.7137 C   0  0  0  0  0  0  0  0  0  0  0  0
    2.6512   11.1060   13.4110 C   0  0  0  0  0  0  0  0  0  0  0  0
    5.1057   10.3814   14.4699 C   0  0  0  0  0  0  0  0  0  0  0  0
    0.0598   13.5729    9.6052 C   0  0  0  0  0  0  0  0  0  0  0  0
   -0.6873   11.4143   12.2117 C   0  0  0  0  0  0  0  0  0  0  0  0
   -1.7088   11.1752   11.9993 H   0  0  0  0  0  0  0  0  0  0  0  0
    0.2568   10.7227   12.8945 C   0  0  0  0  0  0  0  0  0  0  0  0
    0.2144    9.7763   13.3933 H   0  0  0  0  0  0  0  0  0  0  0  0
    2.2297    8.4878    6.6899 C   0  0  0  0  0  0  0  0  0  0  0  0
    2.5560    7.5341    6.3052 H   0  0  0  0  0  0  0  0  0  0  0  0
    1.0955    9.8250    8.3049 C   0  0  0  0  0  0  0  0  0  0  0  0
    0.5116    9.9563    9.2016 H   0  0  0  0  0  0  0  0  0  0  0  0
    4.7628   10.0225   13.1736 C   0  0  0  0  0  0  0  0  0  0  0  0
    5.4652    9.4618   12.5745 H   0  0  0  0  0  0  0  0  0  0  0  0
    6.4443   10.0178   15.0331 C   0  0  0  0  0  0  0  0  0  0  0  0
    7.1489   10.8300   14.8532 H   0  0  0  0  0  0  0  0  0  0  0  0
    6.8362    9.1209   14.5599 H   0  0  0  0  0  0  0  0  0  0  0  0
    6.3844    9.8571   16.1069 H   0  0  0  0  0  0  0  0  0  0  0  0
    2.5422    9.6647    6.0237 C   0  0  0  0  0  0  0  0  0  0  0  0
    3.1139    9.6512    5.1044 H   0  0  0  0  0  0  0  0  0  0  0  0
    1.4855    8.5768    7.8567 C   0  0  0  0  0  0  0  0  0  0  0  0
    1.2141    7.6853    8.4047 H   0  0  0  0  0  0  0  0  0  0  0  0
   -0.6917   13.5572   10.9210 C   0  0  0  0  0  0  0  0  0  0  0  0
   -0.6424   14.5447   11.3879 H   0  0  0  0  0  0  0  0  0  0  0  0
   -1.7390   13.2897   10.7543 H   0  0  0  0  0  0  0  0  0  0  0  0
    0.4002   14.7568    8.9629 C   0  0  0  0  0  0  0  0  0  0  0  0
    0.1160   15.7104    9.3786 H   0  0  0  0  0  0  0  0  0  0  0  0
    1.9985   12.2981   15.5179 C   0  0  0  0  0  0  0  0  0  0  0  0
    2.3741   12.4553   16.5250 H   0  0  0  0  0  0  0  0  0  0  0  0
    1.0294   11.8032   15.5794 H   0  0  0  0  0  0  0  0  0  0  0  0
    1.8498   13.2699   15.0465 H   0  0  0  0  0  0  0  0  0  0  0  0
    1.1375   14.6759    7.7915 C   0  0  0  0  0  0  0  0  0  0  0  0
    1.4379   15.5749    7.2753 H   0  0  0  0  0  0  0  0  0  0  0  0
    3.5411   10.3771   12.6237 C   0  0  0  0  0  0  0  0  0  0  0  0
    3.1762   10.0062   11.2192 C   0  0  0  0  0  0  0  0  0  0  0  0
    2.2887    9.3735   11.2032 H   0  0  0  0  0  0  0  0  0  0  0  0
    3.9909    9.4719   10.7387 H   0  0  0  0  0  0  0  0  0  0  0  0
    2.9572   10.9014   10.6362 H   0  0  0  0  0  0  0  0  0  0  0  0
  2  1  1  0  0  0  0
  3 20  1  0  0  0  0
  3 15  1  0  0  0  0
  4 17  1  0  0  0  0
  5 13  1  0  0  0  0
  6  7  1  0  0  0  0
  6 18  1  0  0  0  0
  7  1  1  6  0  0  0
  7  3  1  0  0  0  0
  8 45  2  0  0  0  0
  8 10  1  0  0  0  0
  9  8  1  0  0  0  0
 10  4  2  0  0  0  0
 11 12  1  0  0  0  0
 13 10  1  0  0  0  0
 13 24  2  0  0  0  0
 14 11  1  0  0  0  0
 14 41  1  0  0  0  0
 15 14  2  0  0  0  0
 16 28  1  0  0  0  0
 16 11  2  0  0  0  0
 17 36  1  0  0  0  0
 18 20  2  0  0  0  0
 19 18  1  0  0  0  0
 20 21  1  0  0  0  0
 22 34  2  0  0  0  0
 23 22  1  0  0  0  0
 24 25  1  0  0  0  0
 26 16  1  0  0  0  0
 27 26  1  0  0  0  0
 28 31  1  0  0  0  0
 29 28  1  0  0  0  0
 30 28  1  0  0  0  0
 32  5  2  0  0  0  0
 32 22  1  0  0  0  0
 33 32  1  0  0  0  0
 34 24  1  0  0  0  0
 34 35  1  0  0  0  0
 36 37  1  0  0  0  0
 36  6  1  0  0  0  0
 38 36  1  0  0  0  0
 39 40  1  0  0  0  0
 39 17  2  0  0  0  0
 41 43  1  0  0  0  0
 41 42  1  0  0  0  0
 44 41  1  0  0  0  0
 45 39  1  0  0  0  0
 46 45  1  0  0  0  0
 47 26  2  0  0  0  0
 47 15  1  0  0  0  0
 48 47  1  0  0  0  0
 49 48  1  0  0  0  0
 50 48  1  0  0  0  0
 51 48  1  0  0  0  0
M  END
$$$$
