CSD_code = FEYPEE | q = 0 | S = 0 | Stoichiometry = C36H30ClCuP2 | MND = 3
 OpenBabel04212202033D

 70 75  0  0  0  0  0  0  0  0999 V2000
    1.6984    2.5059    3.4950 Cu  0  0  0  0  0  0  0  0  0  0  0  0
    2.3361    4.5333    3.0485 Cl  0  0  0  0  0  0  0  0  0  0  0  0
    2.9832    1.0046    4.5684 P   0  0  0  0  0  4  0  0  0  0  0  0
    4.7853    1.2659    4.5410 C   0  0  0  0  0  0  0  0  0  0  0  0
    5.2502    2.5151    4.1429 C   0  0  0  0  0  0  0  0  0  0  0  0
    6.6116    2.7636    4.1128 C   0  0  0  0  0  0  0  0  0  0  0  0
    7.5048    1.7689    4.4737 C   0  0  0  0  0  0  0  0  0  0  0  0
    7.0407    0.5212    4.8640 C   0  0  0  0  0  0  0  0  0  0  0  0
    5.6836    0.2640    4.8979 C   0  0  0  0  0  0  0  0  0  0  0  0
    2.8380   -0.6324    3.7811 C   0  0  0  0  0  0  0  0  0  0  0  0
    2.7156   -0.6190    2.3937 C   0  0  0  0  0  0  0  0  0  0  0  0
    2.6181   -1.8027    1.6892 C   0  0  0  0  0  0  0  0  0  0  0  0
    2.6285   -3.0100    2.3688 C   0  0  0  0  0  0  0  0  0  0  0  0
    2.7425   -3.0286    3.7489 C   0  0  0  0  0  0  0  0  0  0  0  0
    2.8508   -1.8457    4.4584 C   0  0  0  0  0  0  0  0  0  0  0  0
    2.6332    0.6849    6.3210 C   0  0  0  0  0  0  0  0  0  0  0  0
    1.4326    0.0564    6.6483 C   0  0  0  0  0  0  0  0  0  0  0  0
    1.0618   -0.0957    7.9693 C   0  0  0  0  0  0  0  0  0  0  0  0
    1.8781    0.3943    8.9772 C   0  0  0  0  0  0  0  0  0  0  0  0
    3.0615    1.0397    8.6575 C   0  0  0  0  0  0  0  0  0  0  0  0
    3.4383    1.1937    7.3353 C   0  0  0  0  0  0  0  0  0  0  0  0
   -0.3807    1.7343    3.1042 P   0  0  0  0  0  4  0  0  0  0  0  0
   -1.5434    2.7661    2.1517 C   0  0  0  0  0  0  0  0  0  0  0  0
   -1.1933    4.1029    1.9862 C   0  0  0  0  0  0  0  0  0  0  0  0
   -2.0453    4.9610    1.3142 C   0  0  0  0  0  0  0  0  0  0  0  0
   -3.2436    4.4881    0.8058 C   0  0  0  0  0  0  0  0  0  0  0  0
   -3.5898    3.1551    0.9649 C   0  0  0  0  0  0  0  0  0  0  0  0
   -2.7459    2.2911    1.6371 C   0  0  0  0  0  0  0  0  0  0  0  0
   -1.2331    1.6750    4.7157 C   0  0  0  0  0  0  0  0  0  0  0  0
   -0.6345    2.3505    5.7744 C   0  0  0  0  0  0  0  0  0  0  0  0
   -1.2311    2.3618    7.0218 C   0  0  0  0  0  0  0  0  0  0  0  0
   -2.4311    1.6989    7.2167 C   0  0  0  0  0  0  0  0  0  0  0  0
   -3.0368    1.0330    6.1622 C   0  0  0  0  0  0  0  0  0  0  0  0
   -2.4456    1.0218    4.9127 C   0  0  0  0  0  0  0  0  0  0  0  0
   -0.6205    0.0735    2.4080 C   0  0  0  0  0  0  0  0  0  0  0  0
   -0.6596   -1.0627    3.2105 C   0  0  0  0  0  0  0  0  0  0  0  0
   -0.7071   -2.3186    2.6356 C   0  0  0  0  0  0  0  0  0  0  0  0
   -0.7017   -2.4544    1.2573 C   0  0  0  0  0  0  0  0  0  0  0  0
   -0.6370   -1.3284    0.4519 C   0  0  0  0  0  0  0  0  0  0  0  0
   -0.5853   -0.0713    1.0220 C   0  0  0  0  0  0  0  0  0  0  0  0
    4.5421    3.2832    3.8570 H   0  0  0  0  0  0  0  0  0  0  0  0
    6.9731    3.7334    3.8054 H   0  0  0  0  0  0  0  0  0  0  0  0
    8.5673    1.9620    4.4493 H   0  0  0  0  0  0  0  0  0  0  0  0
    7.7414   -0.2531    5.1419 H   0  0  0  0  0  0  0  0  0  0  0  0
    5.3166   -0.7076    5.1991 H   0  0  0  0  0  0  0  0  0  0  0  0
    2.6958    0.3346    1.8784 H   0  0  0  0  0  0  0  0  0  0  0  0
    2.5267   -1.7861    0.6134 H   0  0  0  0  0  0  0  0  0  0  0  0
    2.5456   -3.9377    1.8222 H   0  0  0  0  0  0  0  0  0  0  0  0
    2.7505   -3.9712    4.2772 H   0  0  0  0  0  0  0  0  0  0  0  0
    2.9385   -1.8661    5.5358 H   0  0  0  0  0  0  0  0  0  0  0  0
    0.7972   -0.3106    5.8534 H   0  0  0  0  0  0  0  0  0  0  0  0
    0.1318   -0.5879    8.2144 H   0  0  0  0  0  0  0  0  0  0  0  0
    1.5878    0.2789   10.0109 H   0  0  0  0  0  0  0  0  0  0  0  0
    3.6925    1.4299    9.4426 H   0  0  0  0  0  0  0  0  0  0  0  0
    4.3566    1.7069    7.0858 H   0  0  0  0  0  0  0  0  0  0  0  0
   -0.2460    4.4585    2.3724 H   0  0  0  0  0  0  0  0  0  0  0  0
   -1.7704    5.9969    1.1834 H   0  0  0  0  0  0  0  0  0  0  0  0
   -3.9087    5.1564    0.2786 H   0  0  0  0  0  0  0  0  0  0  0  0
   -4.5226    2.7870    0.5620 H   0  0  0  0  0  0  0  0  0  0  0  0
   -3.0132    1.2493    1.7488 H   0  0  0  0  0  0  0  0  0  0  0  0
    0.3059    2.8643    5.6099 H   0  0  0  0  0  0  0  0  0  0  0  0
   -0.7575    2.8831    7.8402 H   0  0  0  0  0  0  0  0  0  0  0  0
   -2.8982    1.7023    8.1905 H   0  0  0  0  0  0  0  0  0  0  0  0
   -3.9758    0.5209    6.3153 H   0  0  0  0  0  0  0  0  0  0  0  0
   -2.9192    0.5005    4.0930 H   0  0  0  0  0  0  0  0  0  0  0  0
   -0.6662   -0.9609    4.2869 H   0  0  0  0  0  0  0  0  0  0  0  0
   -0.7466   -3.1953    3.2655 H   0  0  0  0  0  0  0  0  0  0  0  0
   -0.7422   -3.4370    0.8112 H   0  0  0  0  0  0  0  0  0  0  0  0
   -0.6234   -1.4324   -0.6234 H   0  0  0  0  0  0  0  0  0  0  0  0
   -0.5241    0.8114    0.3989 H   0  0  0  0  0  0  0  0  0  0  0  0
  1  3  1  0  0  0  0
  2  1  1  0  0  0  0
  3 16  1  0  0  0  0
  4  3  1  0  0  0  0
  4  9  1  0  0  0  0
  5  4  2  0  0  0  0
  6  5  1  0  0  0  0
  6  7  2  0  0  0  0
  7  8  1  0  0  0  0
  8  9  2  0  0  0  0
  8 44  1  0  0  0  0
  9 45  1  0  0  0  0
 10 15  1  0  0  0  0
 10  3  1  0  0  0  0
 11 10  2  0  0  0  0
 12 13  2  0  0  0  0
 12 11  1  0  0  0  0
 13 14  1  0  0  0  0
 14 49  1  0  0  0  0
 14 15  2  0  0  0  0
 15 50  1  0  0  0  0
 16 17  2  0  0  0  0
 16 21  1  0  0  0  0
 17 18  1  0  0  0  0
 18 52  1  0  0  0  0
 18 19  2  0  0  0  0
 19 53  1  0  0  0  0
 20 19  1  0  0  0  0
 20 54  1  0  0  0  0
 21 20  2  0  0  0  0
 22  1  1  0  0  0  0
 22 29  1  0  0  0  0
 23 22  1  0  0  0  0
 24 23  1  0  0  0  0
 24 56  1  0  0  0  0
 25 24  2  0  0  0  0
 26 27  2  0  0  0  0
 26 25  1  0  0  0  0
 27 28  1  0  0  0  0
 28 60  1  0  0  0  0
 28 23  2  0  0  0  0
 29 34  2  0  0  0  0
 29 30  1  0  0  0  0
 30 31  2  0  0  0  0
 31 32  1  0  0  0  0
 31 62  1  0  0  0  0
 32 63  1  0  0  0  0
 33 64  1  0  0  0  0
 33 32  2  0  0  0  0
 34 33  1  0  0  0  0
 35 22  1  0  0  0  0
 35 36  1  0  0  0  0
 36 66  1  0  0  0  0
 37 36  2  0  0  0  0
 37 67  1  0  0  0  0
 38 37  1  0  0  0  0
 39 40  1  0  0  0  0
 39 38  2  0  0  0  0
 40 35  2  0  0  0  0
 41  5  1  0  0  0  0
 42  6  1  0  0  0  0
 43  7  1  0  0  0  0
 46 11  1  0  0  0  0
 47 12  1  0  0  0  0
 48 13  1  0  0  0  0
 51 17  1  0  0  0  0
 55 21  1  0  0  0  0
 57 25  1  0  0  0  0
 58 26  1  0  0  0  0
 59 27  1  0  0  0  0
 61 30  1  0  0  0  0
 65 34  1  0  0  0  0
 68 38  1  0  0  0  0
 69 39  1  0  0  0  0
 70 40  1  0  0  0  0
M  END
$$$$
