CSD_code = FEYPII | q = 0 | S = 0 | Stoichiometry = C36H30CuIP2 | MND = 3
 OpenBabel04212202033D

 70 75  0  0  0  0  0  0  0  0999 V2000
   -1.7397    1.3042    3.4511 Cu  0  0  0  0  0  0  0  0  0  0  0  0
   -1.7189    3.7832    3.4281 I   0  0  0  0  0  0  0  0  0  0  0  0
   -0.0429   -0.0065    4.1315 P   0  0  0  0  0  4  0  0  0  0  0  0
    1.4706    0.9511    4.4568 C   0  0  0  0  0  0  0  0  0  0  0  0
    1.3215    2.1226    5.1963 C   0  0  0  0  0  0  0  0  0  0  0  0
    2.4174    2.9223    5.4588 C   0  0  0  0  0  0  0  0  0  0  0  0
    3.6650    2.5607    4.9771 C   0  0  0  0  0  0  0  0  0  0  0  0
    3.8147    1.4003    4.2348 C   0  0  0  0  0  0  0  0  0  0  0  0
    2.7228    0.5940    3.9695 C   0  0  0  0  0  0  0  0  0  0  0  0
    0.4591   -1.0800    2.7497 C   0  0  0  0  0  0  0  0  0  0  0  0
    0.1940   -0.5947    1.4717 C   0  0  0  0  0  0  0  0  0  0  0  0
    0.5332   -1.3369    0.3568 C   0  0  0  0  0  0  0  0  0  0  0  0
    1.1345   -2.5749    0.5133 C   0  0  0  0  0  0  0  0  0  0  0  0
    1.4029   -3.0622    1.7827 C   0  0  0  0  0  0  0  0  0  0  0  0
    1.0706   -2.3200    2.9015 C   0  0  0  0  0  0  0  0  0  0  0  0
   -0.1274   -1.1410    5.5528 C   0  0  0  0  0  0  0  0  0  0  0  0
   -0.9126   -2.2870    5.4392 C   0  0  0  0  0  0  0  0  0  0  0  0
   -1.0950   -3.1205    6.5243 C   0  0  0  0  0  0  0  0  0  0  0  0
   -0.5124   -2.8081    7.7423 C   0  0  0  0  0  0  0  0  0  0  0  0
    0.2523   -1.6600    7.8677 C   0  0  0  0  0  0  0  0  0  0  0  0
    0.4425   -0.8244    6.7819 C   0  0  0  0  0  0  0  0  0  0  0  0
    0.3407    2.4106    5.5513 H   0  0  0  0  0  0  0  0  0  0  0  0
    2.2939    3.8332    6.0247 H   0  0  0  0  0  0  0  0  0  0  0  0
    4.5214    3.1888    5.1722 H   0  0  0  0  0  0  0  0  0  0  0  0
    4.7873    1.1236    3.8540 H   0  0  0  0  0  0  0  0  0  0  0  0
    2.8421   -0.3053    3.3811 H   0  0  0  0  0  0  0  0  0  0  0  0
   -0.2836    0.3724    1.3587 H   0  0  0  0  0  0  0  0  0  0  0  0
    0.3218   -0.9554   -0.6310 H   0  0  0  0  0  0  0  0  0  0  0  0
    1.3952   -3.1615   -0.3552 H   0  0  0  0  0  0  0  0  0  0  0  0
    1.8769   -4.0259    1.9026 H   0  0  0  0  0  0  0  0  0  0  0  0
    1.2836   -2.7011    3.8911 H   0  0  0  0  0  0  0  0  0  0  0  0
   -1.3779   -2.5260    4.4919 H   0  0  0  0  0  0  0  0  0  0  0  0
   -1.6980   -4.0109    6.4214 H   0  0  0  0  0  0  0  0  0  0  0  0
   -0.6570   -3.4576    8.5927 H   0  0  0  0  0  0  0  0  0  0  0  0
    0.7036   -1.4124    8.8174 H   0  0  0  0  0  0  0  0  0  0  0  0
    1.0401    0.0708    6.8843 H   0  0  0  0  0  0  0  0  0  0  0  0
   -3.4443   -0.0037    2.7879 P   0  0  0  0  0  4  0  0  0  0  0  0
   -4.9589    0.9524    2.4632 C   0  0  0  0  0  0  0  0  0  0  0  0
   -3.9445   -1.0782    4.1697 C   0  0  0  0  0  0  0  0  0  0  0  0
   -3.3588   -1.1377    1.3664 C   0  0  0  0  0  0  0  0  0  0  0  0
   -4.8112    2.1242    1.7237 C   0  0  0  0  0  0  0  0  0  0  0  0
   -6.2108    0.5936    2.9499 C   0  0  0  0  0  0  0  0  0  0  0  0
   -3.6771   -0.5942    5.4477 C   0  0  0  0  0  0  0  0  0  0  0  0
   -4.5570   -2.3177    4.0177 C   0  0  0  0  0  0  0  0  0  0  0  0
   -2.5734   -2.2836    1.4801 C   0  0  0  0  0  0  0  0  0  0  0  0
   -3.9281   -0.8209    0.1371 C   0  0  0  0  0  0  0  0  0  0  0  0
   -5.9081    2.9223    1.4606 C   0  0  0  0  0  0  0  0  0  0  0  0
   -3.8306    2.4138    1.3692 H   0  0  0  0  0  0  0  0  0  0  0  0
   -7.3038    1.3983    2.6842 C   0  0  0  0  0  0  0  0  0  0  0  0
   -6.3291   -0.3059    3.5381 H   0  0  0  0  0  0  0  0  0  0  0  0
   -4.0150   -1.3372    6.5624 C   0  0  0  0  0  0  0  0  0  0  0  0
   -3.1985    0.3724    5.5607 H   0  0  0  0  0  0  0  0  0  0  0  0
   -4.8880   -3.0607    5.1364 C   0  0  0  0  0  0  0  0  0  0  0  0
   -4.7716   -2.6978    3.0281 H   0  0  0  0  0  0  0  0  0  0  0  0
   -2.3903   -3.1168    0.3949 C   0  0  0  0  0  0  0  0  0  0  0  0
   -2.1085   -2.5227    2.4276 H   0  0  0  0  0  0  0  0  0  0  0  0
   -3.7373   -1.6562   -0.9488 C   0  0  0  0  0  0  0  0  0  0  0  0
   -4.5259    0.0742    0.0347 H   0  0  0  0  0  0  0  0  0  0  0  0
   -7.1554    2.5589    1.9417 C   0  0  0  0  0  0  0  0  0  0  0  0
   -5.7856    3.8332    0.8947 H   0  0  0  0  0  0  0  0  0  0  0  0
   -8.2761    1.1202    3.0645 H   0  0  0  0  0  0  0  0  0  0  0  0
   -4.6174   -2.5747    6.4058 C   0  0  0  0  0  0  0  0  0  0  0  0
   -3.8017   -0.9568    7.5503 H   0  0  0  0  0  0  0  0  0  0  0  0
   -5.3627   -4.0240    5.0163 H   0  0  0  0  0  0  0  0  0  0  0  0
   -2.9725   -2.8042   -0.8233 C   0  0  0  0  0  0  0  0  0  0  0  0
   -1.7868   -4.0069    0.4978 H   0  0  0  0  0  0  0  0  0  0  0  0
   -4.1881   -1.4084   -1.8987 H   0  0  0  0  0  0  0  0  0  0  0  0
   -8.0127    3.1857    1.7461 H   0  0  0  0  0  0  0  0  0  0  0  0
   -4.8771   -3.1619    7.2741 H   0  0  0  0  0  0  0  0  0  0  0  0
   -2.8270   -3.4533   -1.6739 H   0  0  0  0  0  0  0  0  0  0  0  0
  1  3  1  0  0  0  0
  2  1  1  0  0  0  0
  3  4  1  0  0  0  0
  3 16  1  0  0  0  0
  4  5  1  0  0  0  0
  5  6  2  0  0  0  0
  5 22  1  0  0  0  0
  6 23  1  0  0  0  0
  7 24  1  0  0  0  0
  7  6  1  0  0  0  0
  8  7  2  0  0  0  0
  9  8  1  0  0  0  0
  9  4  2  0  0  0  0
 10 15  1  0  0  0  0
 10  3  1  0  0  0  0
 11 10  2  0  0  0  0
 12 13  2  0  0  0  0
 12 11  1  0  0  0  0
 13 14  1  0  0  0  0
 14 30  1  0  0  0  0
 14 15  2  0  0  0  0
 15 31  1  0  0  0  0
 16 21  1  0  0  0  0
 17 16  2  0  0  0  0
 17 18  1  0  0  0  0
 18 19  2  0  0  0  0
 19 20  1  0  0  0  0
 19 34  1  0  0  0  0
 20 35  1  0  0  0  0
 21 36  1  0  0  0  0
 21 20  2  0  0  0  0
 25  8  1  0  0  0  0
 26  9  1  0  0  0  0
 27 11  1  0  0  0  0
 28 12  1  0  0  0  0
 29 13  1  0  0  0  0
 32 17  1  0  0  0  0
 33 18  1  0  0  0  0
 37  1  1  0  0  0  0
 37 39  1  0  0  0  0
 38 37  1  0  0  0  0
 38 42  1  0  0  0  0
 39 43  1  0  0  0  0
 40 45  1  0  0  0  0
 40 37  1  0  0  0  0
 41 38  2  0  0  0  0
 42 50  1  0  0  0  0
 43 52  1  0  0  0  0
 43 51  2  0  0  0  0
 44 39  2  0  0  0  0
 44 53  1  0  0  0  0
 45 56  1  0  0  0  0
 46 40  2  0  0  0  0
 47 41  1  0  0  0  0
 47 59  2  0  0  0  0
 48 41  1  0  0  0  0
 49 42  2  0  0  0  0
 49 61  1  0  0  0  0
 51 63  1  0  0  0  0
 53 62  2  0  0  0  0
 54 44  1  0  0  0  0
 55 66  1  0  0  0  0
 55 45  2  0  0  0  0
 57 65  2  0  0  0  0
 57 46  1  0  0  0  0
 58 46  1  0  0  0  0
 59 49  1  0  0  0  0
 60 47  1  0  0  0  0
 62 51  1  0  0  0  0
 62 69  1  0  0  0  0
 64 53  1  0  0  0  0
 65 55  1  0  0  0  0
 67 57  1  0  0  0  0
 68 59  1  0  0  0  0
 70 65  1  0  0  0  0
M  END
$$$$
