CSD_code = FEYRAC | q = 0 | S = 0 | Stoichiometry = C36H30AuIP2 | MND = 3
 OpenBabel04212202033D

 70 75  0  0  0  0  0  0  0  0999 V2000
   -2.0651    1.4341    4.7296 Au  0  0  0  0  0  0  0  0  0  0  0  0
   -4.0756    2.8823    5.4096 I   0  0  0  0  0  0  0  0  0  0  0  0
   -0.1017    0.3540    4.3463 P   0  0  0  0  0  4  0  0  0  0  0  0
    1.4350    1.3097    4.4648 C   0  0  0  0  0  0  0  0  0  0  0  0
    1.3982    2.5435    5.1043 C   0  0  0  0  0  0  0  0  0  0  0  0
    2.5530    3.2969    5.2174 C   0  0  0  0  0  0  0  0  0  0  0  0
    3.7406    2.8223    4.6856 C   0  0  0  0  0  0  0  0  0  0  0  0
    3.7775    1.5943    4.0416 C   0  0  0  0  0  0  0  0  0  0  0  0
    2.6291    0.8346    3.9284 C   0  0  0  0  0  0  0  0  0  0  0  0
    0.0304   -0.3887    2.6975 C   0  0  0  0  0  0  0  0  0  0  0  0
   -0.1989    0.4877    1.6386 C   0  0  0  0  0  0  0  0  0  0  0  0
   -0.1692    0.0283    0.3372 C   0  0  0  0  0  0  0  0  0  0  0  0
    0.0911   -1.3102    0.0865 C   0  0  0  0  0  0  0  0  0  0  0  0
    0.3319   -2.1798    1.1357 C   0  0  0  0  0  0  0  0  0  0  0  0
    0.2998   -1.7269    2.4433 C   0  0  0  0  0  0  0  0  0  0  0  0
    0.1504   -1.0159    5.4990 C   0  0  0  0  0  0  0  0  0  0  0  0
   -0.8038   -2.0321    5.4808 C   0  0  0  0  0  0  0  0  0  0  0  0
   -0.7466   -3.0576    6.4024 C   0  0  0  0  0  0  0  0  0  0  0  0
    0.2605   -3.0707    7.3559 C   0  0  0  0  0  0  0  0  0  0  0  0
    1.2010   -2.0545    7.3876 C   0  0  0  0  0  0  0  0  0  0  0  0
    1.1474   -1.0212    6.4683 C   0  0  0  0  0  0  0  0  0  0  0  0
    0.4601    2.9045    5.5084 H   0  0  0  0  0  0  0  0  0  0  0  0
    2.5249    4.2544    5.7155 H   0  0  0  0  0  0  0  0  0  0  0  0
    4.6416    3.4116    4.7696 H   0  0  0  0  0  0  0  0  0  0  0  0
    4.7057    1.2295    3.6266 H   0  0  0  0  0  0  0  0  0  0  0  0
    2.6484   -0.1243    3.4277 H   0  0  0  0  0  0  0  0  0  0  0  0
   -0.3908    1.5329    1.8559 H   0  0  0  0  0  0  0  0  0  0  0  0
   -0.3526    0.7080   -0.4821 H   0  0  0  0  0  0  0  0  0  0  0  0
    0.1059   -1.6750   -0.9294 H   0  0  0  0  0  0  0  0  0  0  0  0
    0.5398   -3.2208    0.9370 H   0  0  0  0  0  0  0  0  0  0  0  0
    0.4868   -2.4113    3.2591 H   0  0  0  0  0  0  0  0  0  0  0  0
   -1.5909   -2.0005    4.7359 H   0  0  0  0  0  0  0  0  0  0  0  0
   -1.4898   -3.8414    6.3837 H   0  0  0  0  0  0  0  0  0  0  0  0
    0.3067   -3.8709    8.0794 H   0  0  0  0  0  0  0  0  0  0  0  0
    1.9788   -2.0619    8.1371 H   0  0  0  0  0  0  0  0  0  0  0  0
    1.8752   -0.2221    6.5026 H   0  0  0  0  0  0  0  0  0  0  0  0
   -3.2335   -0.6061    3.1419 P   0  0  0  0  0  4  0  0  0  0  0  0
   -4.3636    0.6301    2.4154 C   0  0  0  0  0  0  0  0  0  0  0  0
   -4.3432   -1.4733    4.3057 C   0  0  0  0  0  0  0  0  0  0  0  0
   -3.1495   -1.8526    1.8002 C   0  0  0  0  0  0  0  0  0  0  0  0
   -3.7775    1.5678    1.5666 C   0  0  0  0  0  0  0  0  0  0  0  0
   -5.7109    0.7424    2.7324 C   0  0  0  0  0  0  0  0  0  0  0  0
   -4.1736   -1.2580    5.6684 C   0  0  0  0  0  0  0  0  0  0  0  0
   -5.3497   -2.3320    3.8686 C   0  0  0  0  0  0  0  0  0  0  0  0
   -2.7465   -3.1429    2.1404 C   0  0  0  0  0  0  0  0  0  0  0  0
   -3.3054   -1.5256    0.4585 C   0  0  0  0  0  0  0  0  0  0  0  0
   -4.5338    2.5850    1.0187 C   0  0  0  0  0  0  0  0  0  0  0  0
   -2.7184    1.4951    1.3499 H   0  0  0  0  0  0  0  0  0  0  0  0
   -6.4620    1.7680    2.1862 C   0  0  0  0  0  0  0  0  0  0  0  0
   -6.1720    0.0497    3.4210 H   0  0  0  0  0  0  0  0  0  0  0  0
   -4.9997   -1.8825    6.5851 C   0  0  0  0  0  0  0  0  0  0  0  0
   -3.3898   -0.5933    6.0130 H   0  0  0  0  0  0  0  0  0  0  0  0
   -6.1703   -2.9576    4.7876 C   0  0  0  0  0  0  0  0  0  0  0  0
   -5.4867   -2.5046    2.8094 H   0  0  0  0  0  0  0  0  0  0  0  0
   -2.5361   -4.0931    1.1615 C   0  0  0  0  0  0  0  0  0  0  0  0
   -2.6189   -3.4072    3.1828 H   0  0  0  0  0  0  0  0  0  0  0  0
   -3.0908   -2.4796   -0.5197 C   0  0  0  0  0  0  0  0  0  0  0  0
   -3.6120   -0.5278    0.1777 H   0  0  0  0  0  0  0  0  0  0  0  0
   -5.8800    2.6859    1.3297 C   0  0  0  0  0  0  0  0  0  0  0  0
   -4.0707    3.3095    0.3639 H   0  0  0  0  0  0  0  0  0  0  0  0
   -7.5059    1.8584    2.4468 H   0  0  0  0  0  0  0  0  0  0  0  0
   -5.9985   -2.7338    6.1450 C   0  0  0  0  0  0  0  0  0  0  0  0
   -4.8636   -1.7018    7.6411 H   0  0  0  0  0  0  0  0  0  0  0  0
   -6.9519   -3.6195    4.4433 H   0  0  0  0  0  0  0  0  0  0  0  0
   -2.7055   -3.7631   -0.1737 C   0  0  0  0  0  0  0  0  0  0  0  0
   -2.2371   -5.0939    1.4390 H   0  0  0  0  0  0  0  0  0  0  0  0
   -3.2274   -2.2178   -1.5594 H   0  0  0  0  0  0  0  0  0  0  0  0
   -6.4699    3.4909    0.9176 H   0  0  0  0  0  0  0  0  0  0  0  0
   -6.6456   -3.2226    6.8584 H   0  0  0  0  0  0  0  0  0  0  0  0
   -2.5387   -4.5053   -0.9406 H   0  0  0  0  0  0  0  0  0  0  0  0
  1  2  1  0  0  0  0
  3  4  1  0  0  0  0
  3  1  1  0  0  0  0
  3 16  1  0  0  0  0
  4  5  1  0  0  0  0
  5  6  2  0  0  0  0
  5 22  1  0  0  0  0
  6 23  1  0  0  0  0
  7 24  1  0  0  0  0
  7  6  1  0  0  0  0
  8  7  2  0  0  0  0
  9  8  1  0  0  0  0
  9  4  2  0  0  0  0
 10  3  1  0  0  0  0
 11 27  1  0  0  0  0
 11 10  2  0  0  0  0
 12 11  1  0  0  0  0
 13 12  2  0  0  0  0
 13 14  1  0  0  0  0
 14 15  2  0  0  0  0
 15 10  1  0  0  0  0
 15 31  1  0  0  0  0
 16 21  1  0  0  0  0
 17 16  2  0  0  0  0
 17 18  1  0  0  0  0
 18 19  2  0  0  0  0
 19 20  1  0  0  0  0
 19 34  1  0  0  0  0
 20 35  1  0  0  0  0
 21 36  1  0  0  0  0
 21 20  2  0  0  0  0
 25  8  1  0  0  0  0
 26  9  1  0  0  0  0
 28 12  1  0  0  0  0
 29 13  1  0  0  0  0
 30 14  1  0  0  0  0
 32 17  1  0  0  0  0
 33 18  1  0  0  0  0
 37 39  1  0  0  0  0
 37  1  1  0  0  0  0
 38 42  1  0  0  0  0
 38 37  1  0  0  0  0
 39 43  1  0  0  0  0
 40 45  1  0  0  0  0
 40 37  1  0  0  0  0
 41 38  2  0  0  0  0
 42 50  1  0  0  0  0
 43 52  1  0  0  0  0
 43 51  2  0  0  0  0
 44 39  2  0  0  0  0
 44 53  1  0  0  0  0
 45 56  1  0  0  0  0
 46 40  2  0  0  0  0
 47 59  2  0  0  0  0
 47 41  1  0  0  0  0
 48 41  1  0  0  0  0
 49 61  1  0  0  0  0
 49 42  2  0  0  0  0
 51 63  1  0  0  0  0
 53 62  2  0  0  0  0
 54 44  1  0  0  0  0
 55 66  1  0  0  0  0
 55 45  2  0  0  0  0
 57 65  2  0  0  0  0
 57 46  1  0  0  0  0
 58 46  1  0  0  0  0
 59 49  1  0  0  0  0
 60 47  1  0  0  0  0
 62 51  1  0  0  0  0
 62 69  1  0  0  0  0
 64 53  1  0  0  0  0
 65 55  1  0  0  0  0
 67 57  1  0  0  0  0
 68 59  1  0  0  0  0
 70 65  1  0  0  0  0
M  END
$$$$
