CSD_code = FEYVEL | q = 0 | S = 0 | Stoichiometry = C10H15Cl2N3Zn | MND = 5
 OpenBabel04212202033D

 31 33  0  0  1  0  0  0  0  0999 V2000
   -0.0981   -1.2199    8.2262 Zn  0  0  0  0  0  0  0  0  0  0  0  0
    0.0660   -0.3642   10.3187 Cl  0  0  0  0  0  0  0  0  0  0  0  0
    1.4263   -2.3545    7.1006 Cl  0  0  0  0  0  0  0  0  0  0  0  0
   -1.2989   -2.9038    9.0172 N   0  0  0  0  0  0  0  0  0  0  0  0
   -2.1649   -0.6204    7.9878 N   0  0  1  0  0  0  0  0  0  0  0  0
    0.0435    0.7668    7.1346 N   0  0  0  0  0  4  0  0  0  0  0  0
   -0.8379   -4.0343    9.5136 C   0  0  0  0  0  3  0  0  0  0  0  0
    0.1443   -4.3324    9.1729 H   0  0  0  0  0  0  0  0  0  0  0  0
   -1.5604   -4.8006   10.4212 C   0  0  0  0  0  0  0  0  0  0  0  0
   -1.1451   -5.7167   10.8096 H   0  0  0  0  0  0  0  0  0  0  0  0
   -2.8105   -4.3557   10.8189 C   0  0  0  0  0  0  0  0  0  0  0  0
   -3.3966   -4.9182   11.5303 H   0  0  0  0  0  0  0  0  0  0  0  0
   -3.2971   -3.1698   10.2916 C   0  0  0  0  0  0  0  0  0  0  0  0
   -4.2648   -2.7869   10.5779 H   0  0  0  0  0  0  0  0  0  0  0  0
   -2.5061   -2.4677    9.3868 C   0  0  0  0  0  0  0  0  0  0  0  0
   -2.9230   -1.1946    8.8167 C   0  0  0  0  0  3  0  0  0  0  0  0
   -3.8748   -0.7720    9.1505 H   0  0  0  0  0  0  0  0  0  0  0  0
   -2.4185    0.6639    7.4312 C   0  0  0  0  0  0  0  0  0  0  0  0
   -3.2592    1.1784    7.9165 H   0  0  0  0  0  0  0  0  0  0  0  0
   -2.6577    0.5231    6.3718 H   0  0  0  0  0  0  0  0  0  0  0  0
   -1.1399    1.5040    7.5684 C   0  0  0  0  0  0  0  0  0  0  0  0
   -1.2576    2.4414    7.0045 H   0  0  0  0  0  0  0  0  0  0  0  0
   -1.0073    1.7372    8.6270 H   0  0  0  0  0  0  0  0  0  0  0  0
    0.0824    0.6167    5.6837 C   0  0  0  0  0  0  0  0  0  0  0  0
   -0.7884    0.0668    5.3355 H   0  0  0  0  0  0  0  0  0  0  0  0
    0.9657    0.0420    5.4139 H   0  0  0  0  0  0  0  0  0  0  0  0
    0.1196    1.5932    5.1833 H   0  0  0  0  0  0  0  0  0  0  0  0
    1.2476    1.4680    7.5742 C   0  0  0  0  0  0  0  0  0  0  0  0
    1.3021    2.4756    7.1430 H   0  0  0  0  0  0  0  0  0  0  0  0
    2.1225    0.8997    7.2645 H   0  0  0  0  0  0  0  0  0  0  0  0
    1.2512    1.5404    8.6600 H   0  0  0  0  0  0  0  0  0  0  0  0
  1  4  1  0  0  0  0
  1  2  1  0  0  0  0
  3  1  1  0  0  0  0
  4 15  1  0  0  0  0
  4  7  1  0  0  0  0
  5  1  1  0  0  0  0
  5 16  1  1  0  0  0
  6 21  1  0  0  0  0
  6 28  1  0  0  0  0
  6  1  1  0  0  0  0
  7  9  1  0  0  0  0
  8  7  1  0  0  0  0
  9 10  1  0  0  0  0
  9 11  2  0  0  0  0
 11 12  1  0  0  0  0
 13 14  1  0  0  0  0
 13 11  1  0  0  0  0
 15 13  2  0  0  0  0
 16 17  1  0  0  0  0
 16 15  1  0  0  0  0
 18 21  1  0  0  0  0
 18 19  1  0  0  0  0
 18  5  1  0  0  0  0
 20 18  1  0  0  0  0
 21 23  1  0  0  0  0
 22 21  1  0  0  0  0
 24  6  1  0  0  0  0
 25 24  1  0  0  0  0
 26 24  1  0  0  0  0
 27 24  1  0  0  0  0
 28 31  1  0  0  0  0
 29 28  1  0  0  0  0
 30 28  1  0  0  0  0
M  END
$$$$
