CSD_code = FEZQUZ | q = 0 | S = 0 | Stoichiometry = C14H18I2N2OPt | MND = 6
 OpenBabel04212202033D

 38 40  0  0  0  0  0  0  0  0999 V2000
    2.9911    2.7704    2.3624 Pt  0  0  0  0  0  0  0  0  0  0  0  0
    4.0936    1.7584    4.5664 I   0  0  0  0  0  0  0  0  0  0  0  0
    1.7395    3.6687    0.1971 I   0  0  0  0  0  0  0  0  0  0  0  0
   -0.6999    7.5838    2.6266 O   0  0  0  0  0  0  0  0  0  0  0  0
   -0.9543    7.1286    1.8141 H   0  0  0  0  0  0  0  0  0  0  0  0
    1.6796    0.8964    2.2888 N   0  0  0  0  0  0  0  0  0  0  0  0
    1.0539    3.1859    3.6964 N   0  0  0  0  0  4  0  0  0  0  0  0
    1.3704    2.7231    4.5521 H   0  0  0  0  0  0  0  0  0  0  0  0
    4.5649    2.1735    1.1553 C   0  0  0  0  0  0  0  0  0  0  0  0
    4.9711    3.0091    0.5857 H   0  0  0  0  0  0  0  0  0  0  0  0
    4.1570    1.4355    0.4590 H   0  0  0  0  0  0  0  0  0  0  0  0
    5.3604    1.7246    1.7491 H   0  0  0  0  0  0  0  0  0  0  0  0
    4.0055    4.5500    2.6287 C   0  0  0  0  0  0  0  0  0  0  0  0
    3.4478    5.0916    3.4001 H   0  0  0  0  0  0  0  0  0  0  0  0
    4.0322    5.1523    1.7215 H   0  0  0  0  0  0  0  0  0  0  0  0
    5.0270    4.3865    2.9721 H   0  0  0  0  0  0  0  0  0  0  0  0
    2.1194   -0.3015    1.9255 C   0  0  0  0  0  3  0  0  0  0  0  0
    3.1522   -0.3596    1.6080 H   0  0  0  0  0  0  0  0  0  0  0  0
    1.3228   -1.4308    1.9543 C   0  0  0  0  0  0  0  0  0  0  0  0
    1.7230   -2.3836    1.6489 H   0  0  0  0  0  0  0  0  0  0  0  0
    0.0123   -1.3030    2.3876 C   0  0  0  0  0  0  0  0  0  0  0  0
   -0.6429   -2.1597    2.4271 H   0  0  0  0  0  0  0  0  0  0  0  0
   -0.4396   -0.0561    2.7807 C   0  0  0  0  0  0  0  0  0  0  0  0
   -1.4495    0.0839    3.1334 H   0  0  0  0  0  0  0  0  0  0  0  0
    0.4258    1.0294    2.7198 C   0  0  0  0  0  0  0  0  0  0  0  0
   -0.0382    2.4057    3.1190 C   0  0  0  0  0  0  0  0  0  0  0  0
   -0.4022    2.9070    2.2150 H   0  0  0  0  0  0  0  0  0  0  0  0
   -0.8831    2.3229    3.8178 H   0  0  0  0  0  0  0  0  0  0  0  0
    0.8057    4.5515    4.0060 C   0  0  0  0  0  0  0  0  0  0  0  0
    0.1043    5.3892    3.1478 C   0  0  0  0  0  0  0  0  0  0  0  0
   -0.3170    5.0208    2.2237 H   0  0  0  0  0  0  0  0  0  0  0  0
   -0.0347    6.7382    3.4499 C   0  0  0  0  0  0  0  0  0  0  0  0
    0.5089    7.2515    4.6241 C   0  0  0  0  0  0  0  0  0  0  0  0
    0.3856    8.2997    4.8400 H   0  0  0  0  0  0  0  0  0  0  0  0
    1.1978    6.4130    5.4769 C   0  0  0  0  0  0  0  0  0  0  0  0
    1.6255    6.8057    6.3864 H   0  0  0  0  0  0  0  0  0  0  0  0
    1.3483    5.0709    5.1787 C   0  0  0  0  0  0  0  0  0  0  0  0
    1.9019    4.4277    5.8486 H   0  0  0  0  0  0  0  0  0  0  0  0
  1 13  1  0  0  0  0
  1  7  1  0  0  0  0
  1  2  1  0  0  0  0
  3  1  1  0  0  0  0
  4 32  1  0  0  0  0
  5  4  1  0  0  0  0
  6  1  1  0  0  0  0
  6 25  1  0  0  0  0
  7 29  1  0  0  0  0
  7  8  1  0  0  0  0
  9 12  1  0  0  0  0
  9  1  1  0  0  0  0
 10  9  1  0  0  0  0
 11  9  1  0  0  0  0
 13 16  1  0  0  0  0
 13 14  1  0  0  0  0
 15 13  1  0  0  0  0
 17 19  1  0  0  0  0
 17  6  1  0  0  0  0
 18 17  1  0  0  0  0
 19 21  2  0  0  0  0
 20 19  1  0  0  0  0
 21 22  1  0  0  0  0
 21 23  1  0  0  0  0
 23 24  1  0  0  0  0
 25 23  2  0  0  0  0
 25 26  1  0  0  0  0
 26  7  1  0  0  0  0
 26 28  1  0  0  0  0
 27 26  1  0  0  0  0
 29 37  1  0  0  0  0
 30 32  1  0  0  0  0
 30 29  2  0  0  0  0
 31 30  1  0  0  0  0
 32 33  2  0  0  0  0
 33 34  1  0  0  0  0
 33 35  1  0  0  0  0
 35 36  1  0  0  0  0
 37 35  2  0  0  0  0
 37 38  1  0  0  0  0
M  END
$$$$
