CSD_code = FEZQAC | q = 1 | S = 0 | Stoichiometry = C23H29Cl2N2O2P2W(1+) | MND = 6
 OpenBabel04212202033D

 61 63  0  0  0  0  0  0  0  0999 V2000
    0.9325   -1.0030   11.7866 W   0  0  0  0  0  0  0  0  0  0  0  0
   -0.5174   -1.0967   13.6832 Cl  0  0  0  0  0  0  0  0  0  0  0  0
    2.6984   -0.6407   13.1311 Cl  0  0  0  0  0  0  0  0  0  0  0  0
    0.6501    1.4595   11.8506 P   0  0  0  0  0  4  0  0  0  0  0  0
    1.1349   -3.4260   12.2962 P   0  0  0  0  0  4  0  0  0  0  0  0
   -5.4087   -0.5929    8.4979 O   0  0  0  0  0  0  0  0  0  0  0  0
    3.2683   -0.8961    9.6818 O   0  0  0  0  0  1  0  0  0  0  0  0
   -0.4750   -1.1998   10.6441 N   0  0  0  0  0  2  0  0  0  0  0  0
   -1.6381   -1.0933   10.0706 N   0  0  0  0  0  0  0  0  0  0  0  0
   -1.7741   -0.5212    8.8486 C   0  0  0  0  0  3  0  0  0  0  0  0
   -3.0017   -0.3279    8.2696 C   0  0  0  0  0  0  0  0  0  0  0  0
   -4.1641   -0.7386    8.9377 C   0  0  0  0  0  0  0  0  0  0  0  0
   -3.9988   -1.3539   10.1941 C   0  0  0  0  0  0  0  0  0  0  0  0
   -2.7555   -1.5148   10.7288 C   0  0  0  0  0  0  0  0  0  0  0  0
   -5.6454    0.0315    7.2492 C   0  0  0  0  0  0  0  0  0  0  0  0
    2.3437   -0.9399   10.3660 C   0  0  0  0  0  2  0  0  0  0  0  0
    1.9575    2.4970   11.1087 C   0  0  0  0  0  0  0  0  0  0  0  0
    0.5376    2.1676   13.5298 C   0  0  0  0  0  0  0  0  0  0  0  0
   -0.9089    1.9937   11.0814 C   0  0  0  0  0  0  0  0  0  0  0  0
   -0.9765    2.7815    9.9387 C   0  0  0  0  0  0  0  0  0  0  0  0
   -2.2085    3.1116    9.3981 C   0  0  0  0  0  0  0  0  0  0  0  0
   -3.3750    2.6577    9.9900 C   0  0  0  0  0  0  0  0  0  0  0  0
   -3.3128    1.8601   11.1226 C   0  0  0  0  0  0  0  0  0  0  0  0
   -2.0861    1.5213   11.6616 C   0  0  0  0  0  0  0  0  0  0  0  0
    1.9055   -3.8000   13.9034 C   0  0  0  0  0  0  0  0  0  0  0  0
   -0.4658   -4.3052   12.4257 C   0  0  0  0  0  0  0  0  0  0  0  0
    2.0070   -4.4258   11.0548 C   0  0  0  0  0  0  0  0  0  0  0  0
    1.7332   -4.1124    9.7249 C   0  0  0  0  0  0  0  0  0  0  0  0
    2.3351   -4.8214    8.7038 C   0  0  0  0  0  0  0  0  0  0  0  0
    3.2259   -5.8409    9.0055 C   0  0  0  0  0  0  0  0  0  0  0  0
    3.5061   -6.1505   10.3253 C   0  0  0  0  0  0  0  0  0  0  0  0
    2.8971   -5.4487   11.3526 C   0  0  0  0  0  0  0  0  0  0  0  0
   -0.8523   -0.2118    8.3765 H   0  0  0  0  0  0  0  0  0  0  0  0
   -3.0454    0.1430    7.3020 H   0  0  0  0  0  0  0  0  0  0  0  0
   -4.8724   -1.6857   10.7305 H   0  0  0  0  0  0  0  0  0  0  0  0
   -2.5771   -1.9438   11.7056 H   0  0  0  0  0  0  0  0  0  0  0  0
   -5.1994   -0.5380    6.4303 H   0  0  0  0  0  0  0  0  0  0  0  0
   -6.7269    0.0460    7.1316 H   0  0  0  0  0  0  0  0  0  0  0  0
   -5.2637    1.0554    7.2403 H   0  0  0  0  0  0  0  0  0  0  0  0
    2.8884    2.2875   11.6385 H   0  0  0  0  0  0  0  0  0  0  0  0
    2.0961    2.2439   10.0583 H   0  0  0  0  0  0  0  0  0  0  0  0
    1.7156    3.5548   11.2129 H   0  0  0  0  0  0  0  0  0  0  0  0
    0.3360    3.2378   13.4733 H   0  0  0  0  0  0  0  0  0  0  0  0
   -0.2536    1.6718   14.0918 H   0  0  0  0  0  0  0  0  0  0  0  0
    1.4878    1.9967   14.0396 H   0  0  0  0  0  0  0  0  0  0  0  0
   -0.0745    3.1477    9.4728 H   0  0  0  0  0  0  0  0  0  0  0  0
   -2.2554    3.7347    8.5178 H   0  0  0  0  0  0  0  0  0  0  0  0
   -4.3336    2.9324    9.5765 H   0  0  0  0  0  0  0  0  0  0  0  0
   -4.2213    1.5084   11.5876 H   0  0  0  0  0  0  0  0  0  0  0  0
   -2.0311    0.8894   12.5393 H   0  0  0  0  0  0  0  0  0  0  0  0
    2.9615   -3.5272   13.8807 H   0  0  0  0  0  0  0  0  0  0  0  0
    1.4018   -3.2027   14.6671 H   0  0  0  0  0  0  0  0  0  0  0  0
    1.7957   -4.8574   14.1457 H   0  0  0  0  0  0  0  0  0  0  0  0
   -0.2903   -5.3512   12.6790 H   0  0  0  0  0  0  0  0  0  0  0  0
   -1.0642   -3.8314   13.2040 H   0  0  0  0  0  0  0  0  0  0  0  0
   -0.9904   -4.2488   11.4718 H   0  0  0  0  0  0  0  0  0  0  0  0
    1.0464   -3.2953    9.5101 H   0  0  0  0  0  0  0  0  0  0  0  0
    2.1206   -4.5782    7.6742 H   0  0  0  0  0  0  0  0  0  0  0  0
    3.7058   -6.3895    8.2100 H   0  0  0  0  0  0  0  0  0  0  0  0
    4.2038   -6.9403   10.5581 H   0  0  0  0  0  0  0  0  0  0  0  0
    3.1254   -5.6973   12.3779 H   0  0  0  0  0  0  0  0  0  0  0  0
  1  4  1  0  0  0  0
  1  5  1  0  0  0  0
  1  3  1  0  0  0  0
  1  2  1  0  0  0  0
  4 18  1  0  0  0  0
  5 26  1  0  0  0  0
  5 25  1  0  0  0  0
  6 12  1  0  0  0  0
  7 16  1  0  0  0  0
  8  1  1  0  0  0  0
  9  8  1  0  0  0  0
  9 14  1  0  0  0  0
 10  9  1  0  0  0  0
 11 10  1  0  0  0  0
 11 12  2  0  0  0  0
 12 13  1  0  0  0  0
 13 14  2  0  0  0  0
 13 35  1  0  0  0  0
 14 36  1  0  0  0  0
 15  6  1  0  0  0  0
 16  1  1  0  0  0  0
 17 42  1  0  0  0  0
 17 40  1  0  0  0  0
 17  4  1  0  0  0  0
 18 45  1  0  0  0  0
 18 44  1  0  0  0  0
 19 24  1  0  0  0  0
 19  4  1  0  0  0  0
 20 19  2  0  0  0  0
 21 20  1  0  0  0  0
 21 22  2  0  0  0  0
 22 23  1  0  0  0  0
 23 49  1  0  0  0  0
 23 24  2  0  0  0  0
 24 50  1  0  0  0  0
 25 53  1  0  0  0  0
 25 52  1  0  0  0  0
 26 54  1  0  0  0  0
 26 55  1  0  0  0  0
 27 32  1  0  0  0  0
 27  5  1  0  0  0  0
 28 27  2  0  0  0  0
 29 30  2  0  0  0  0
 29 28  1  0  0  0  0
 30 31  1  0  0  0  0
 31 60  1  0  0  0  0
 31 32  2  0  0  0  0
 32 61  1  0  0  0  0
 33 10  1  0  0  0  0
 34 11  1  0  0  0  0
 37 15  1  0  0  0  0
 38 15  1  0  0  0  0
 39 15  1  0  0  0  0
 41 17  1  0  0  0  0
 43 18  1  0  0  0  0
 46 20  1  0  0  0  0
 47 21  1  0  0  0  0
 48 22  1  0  0  0  0
 51 25  1  0  0  0  0
 56 26  1  0  0  0  0
 57 28  1  0  0  0  0
 58 29  1  0  0  0  0
 59 30  1  0  0  0  0
M  END
$$$$
