CSD_code = FEZWAI | q = 0 | S = 0 | Stoichiometry = C20H22Cl2Zr | MND = 12
 OpenBabel04212202033D

 45 50  0  0  1  0  0  0  0  0999 V2000
    2.7240    2.8446    2.0854 Zr  0  0  0  0  0  0  0  0  0  0  0  0
    2.3691    3.3611   -0.1757 Cl  0  0  0  0  0  0  0  0  0  0  0  0
    4.6354    1.6234    1.4848 Cl  0  0  0  0  0  0  0  0  0  0  0  0
    0.6199    1.6879    1.7298 C   0  0  1  0  0  0  0  0  0  0  0  0
    1.5784    0.6564    1.7579 C   0  0  0  0  0  0  0  0  0  0  0  0
    2.1061    0.6264    3.0775 C   0  0  0  0  0  0  0  0  0  0  0  0
    1.4540    1.6089    3.8707 C   0  0  0  0  0  0  0  0  0  0  0  0
    0.5441    2.2773    3.0224 C   0  0  0  0  0  0  0  0  0  0  0  0
   -0.6851    3.1490    3.0124 C   0  0  2  0  0  0  0  0  0  0  0  0
   -1.8871    2.1744    2.9543 C   0  0  0  0  0  0  0  0  0  0  0  0
   -1.7938    1.5599    1.5418 C   0  0  0  0  0  0  0  0  0  0  0  0
   -0.5383    2.2309    0.9370 C   0  0  1  0  0  0  0  0  0  0  0  0
   -0.6478    3.6398    1.5523 C   0  0  0  0  0  0  0  0  0  0  0  0
    3.3142    4.1326    4.0715 C   0  0  0  0  0  0  0  0  0  0  0  0
    2.2531    4.8699    3.5012 C   0  0  0  0  0  0  0  0  0  0  0  0
    2.7159    5.3469    2.2450 C   0  0  0  0  0  0  0  0  0  0  0  0
    4.0656    4.9440    2.0534 C   0  0  0  0  0  0  0  0  0  0  0  0
    4.4244    4.1840    3.1836 C   0  0  2  0  0  0  0  0  0  0  0  0
    5.6057    3.6303    3.9337 C   0  0  1  0  0  0  0  0  0  0  0  0
    5.9616    4.7091    4.9833 C   0  0  0  0  0  0  0  0  0  0  0  0
    4.7601    4.6817    5.9514 C   0  0  0  0  0  0  0  0  0  0  0  0
    3.8427    3.5782    5.3693 C   0  0  2  0  0  0  0  0  0  0  0  0
    4.8952    2.5930    4.8253 C   0  0  0  0  0  0  0  0  0  0  0  0
    1.8341   -0.0296    0.9584 H   0  0  0  0  0  0  0  0  0  0  0  0
    2.8162   -0.1074    3.4418 H   0  0  0  0  0  0  0  0  0  0  0  0
    1.5463    1.7124    4.9443 H   0  0  0  0  0  0  0  0  0  0  0  0
   -0.7774    3.9071    3.7899 H   0  0  0  0  0  0  0  0  0  0  0  0
   -1.8180    1.4196    3.7361 H   0  0  0  0  0  0  0  0  0  0  0  0
   -2.8216    2.7194    3.0860 H   0  0  0  0  0  0  0  0  0  0  0  0
   -2.6747    1.8026    0.9484 H   0  0  0  0  0  0  0  0  0  0  0  0
   -1.6874    0.4769    1.5708 H   0  0  0  0  0  0  0  0  0  0  0  0
   -0.4676    2.1751   -0.1475 H   0  0  0  0  0  0  0  0  0  0  0  0
    0.2247    4.2640    1.3223 H   0  0  0  0  0  0  0  0  0  0  0  0
   -1.5624    4.1536    1.2574 H   0  0  0  0  0  0  0  0  0  0  0  0
    1.3199    5.1479    3.9739 H   0  0  0  0  0  0  0  0  0  0  0  0
    2.1687    6.0071    1.5817 H   0  0  0  0  0  0  0  0  0  0  0  0
    4.6983    5.2272    1.2199 H   0  0  0  0  0  0  0  0  0  0  0  0
    6.4463    3.2726    3.3424 H   0  0  0  0  0  0  0  0  0  0  0  0
    6.0925    5.6845    4.5181 H   0  0  0  0  0  0  0  0  0  0  0  0
    6.8861    4.4465    5.4964 H   0  0  0  0  0  0  0  0  0  0  0  0
    5.0736    4.4178    6.9612 H   0  0  0  0  0  0  0  0  0  0  0  0
    4.2437    5.6395    5.9926 H   0  0  0  0  0  0  0  0  0  0  0  0
    3.1213    3.1892    6.0876 H   0  0  0  0  0  0  0  0  0  0  0  0
    5.5457    2.1987    5.6057 H   0  0  0  0  0  0  0  0  0  0  0  0
    4.4640    1.7689    4.2435 H   0  0  0  0  0  0  0  0  0  0  0  0
  2  1  1  0  0  0  0
  3  1  1  0  0  0  0
  4  5  1  0  0  0  0
  4  1  1  6  0  0  0
  4  8  1  0  0  0  0
  5  6  2  0  0  0  0
  6 25  1  0  0  0  0
  6  7  1  0  0  0  0
  7 26  1  0  0  0  0
  8  7  2  0  0  0  0
  9  8  1  0  0  0  0
  9 27  1  1  0  0  0
 10  9  1  0  0  0  0
 10 29  1  0  0  0  0
 10 28  1  0  0  0  0
 11 31  1  0  0  0  0
 11 10  1  0  0  0  0
 12 32  1  6  0  0  0
 12 11  1  0  0  0  0
 12 13  1  0  0  0  0
 12  4  1  0  0  0  0
 13  9  1  0  0  0  0
 14 22  1  0  0  0  0
 15 35  1  0  0  0  0
 15 14  2  0  0  0  0
 16 15  1  0  0  0  0
 17 16  2  0  0  0  0
 17 18  1  0  0  0  0
 18  1  1  6  0  0  0
 18 19  1  0  0  0  0
 18 14  1  0  0  0  0
 19 38  1  6  0  0  0
 19 23  1  0  0  0  0
 19 20  1  0  0  0  0
 20 40  1  0  0  0  0
 20 21  1  0  0  0  0
 21 42  1  0  0  0  0
 21 41  1  0  0  0  0
 22 21  1  0  0  0  0
 22 43  1  1  0  0  0
 23 22  1  0  0  0  0
 23 44  1  0  0  0  0
 24  5  1  0  0  0  0
 30 11  1  0  0  0  0
 33 13  1  0  0  0  0
 34 13  1  0  0  0  0
 36 16  1  0  0  0  0
 37 17  1  0  0  0  0
 39 20  1  0  0  0  0
 45 23  1  0  0  0  0
M  END
$$$$
