CSD_code = FEZWEM | q = 0 | S = 0 | Stoichiometry = C11H12Cl2N2Pt | MND = 4
 OpenBabel04212202033D

 28 29  0  0  0  0  0  0  0  0999 V2000
    1.8361    0.7194   12.0607 Pt  0  0  0  0  0  0  0  0  0  0  0  0
    1.6699    1.0008   14.3610 Cl  0  0  0  0  0  0  0  0  0  0  0  0
    2.0903    0.4403    9.8022 Cl  0  0  0  0  0  0  0  0  0  0  0  0
    3.1493   -0.7602   12.3191 N   0  0  0  0  0  0  0  0  0  0  0  0
    0.5874    3.2340   12.6156 N   0  0  0  0  0  0  0  0  0  0  0  0
    4.4009   -0.6697   11.8745 C   0  0  0  0  0  3  0  0  0  0  0  0
    5.2961   -1.7196   11.9709 C   0  0  0  0  0  0  0  0  0  0  0  0
    4.8765   -2.9109   12.5426 C   0  0  0  0  0  0  0  0  0  0  0  0
    3.5707   -2.9988   13.0014 C   0  0  0  0  0  0  0  0  0  0  0  0
    2.7406   -1.9006   12.8719 C   0  0  0  0  0  0  0  0  0  0  0  0
    0.4006    2.1854   11.6891 C   0  0  0  0  0  0  0  0  0  0  0  0
    1.4579    4.2266   12.3511 C   0  0  0  0  0  3  0  0  0  0  0  0
    1.7664    5.1887   13.2813 C   0  0  0  0  0  0  0  0  0  0  0  0
    1.1678    5.1471   14.5373 C   0  0  0  0  0  0  0  0  0  0  0  0
    0.2692    4.1275   14.7980 C   0  0  0  0  0  0  0  0  0  0  0  0
    0.0003    3.1842   13.8267 C   0  0  0  0  0  0  0  0  0  0  0  0
    4.6857    0.2714   11.4199 H   0  0  0  0  0  0  0  0  0  0  0  0
    6.3013   -1.6044   11.5976 H   0  0  0  0  0  0  0  0  0  0  0  0
    5.5495   -3.7505   12.6282 H   0  0  0  0  0  0  0  0  0  0  0  0
    3.1984   -3.9048   13.4527 H   0  0  0  0  0  0  0  0  0  0  0  0
    1.7157   -1.9275   13.2250 H   0  0  0  0  0  0  0  0  0  0  0  0
   -0.5915    1.7360   11.8196 H   0  0  0  0  0  0  0  0  0  0  0  0
    0.5019    2.5625   10.6673 H   0  0  0  0  0  0  0  0  0  0  0  0
    1.9175    4.2093   11.3734 H   0  0  0  0  0  0  0  0  0  0  0  0
    2.4714    5.9638   13.0281 H   0  0  0  0  0  0  0  0  0  0  0  0
    1.3984    5.8893   15.2839 H   0  0  0  0  0  0  0  0  0  0  0  0
   -0.2197    4.0470   15.7549 H   0  0  0  0  0  0  0  0  0  0  0  0
   -0.7017    2.3841   13.9956 H   0  0  0  0  0  0  0  0  0  0  0  0
  1  4  1  0  0  0  0
  1  2  1  0  0  0  0
  3  1  1  0  0  0  0
  4 10  1  0  0  0  0
  5 16  1  0  0  0  0
  6  7  1  0  0  0  0
  6  4  1  0  0  0  0
  7  8  2  0  0  0  0
  8 19  1  0  0  0  0
  8  9  1  0  0  0  0
  9 20  1  0  0  0  0
 10  9  2  0  0  0  0
 10 21  1  0  0  0  0
 11 22  1  0  0  0  0
 11  1  1  0  0  0  0
 11  5  1  0  0  0  0
 12  5  1  0  0  0  0
 12 13  1  0  0  0  0
 13 14  2  0  0  0  0
 14 15  1  0  0  0  0
 14 26  1  0  0  0  0
 15 27  1  0  0  0  0
 16 28  1  0  0  0  0
 16 15  2  0  0  0  0
 17  6  1  0  0  0  0
 18  7  1  0  0  0  0
 23 11  1  0  0  0  0
 24 12  1  0  0  0  0
 25 13  1  0  0  0  0
M  END
$$$$
