CSD_code = FIBDOK | q = 0 | S = 0 | Stoichiometry = C26H25BrN2O4PtSe | MND = 6
 OpenBabel04212202033D

 60 60  0  0  1  0  0  0  0  0999 V2000
    8.5887    1.8074   10.8490 Pt  0  0  0  0  0  0  0  0  0  0  0  0
    8.9683    0.5203    8.7067 Se  0  0  0  0  0  1  0  0  0  0  0  0
    8.0729    2.8114   13.1151 Br  0  0  0  0  0 15  0  0  0  0  0  0
    6.4648    1.1221   10.8188 N   0  0  0  0  0  0  0  0  0  0  0  0
    8.5532   -0.1269   11.9727 N   0  0  0  0  0  0  0  0  0  0  0  0
    9.1711    3.6358   10.0275 C   0  0  2  0  0  0  0  0  0  0  0  0
   10.3168    2.9764   10.5903 C   0  0  0  0  0  3  0  0  0  0  0  0
    9.0676    3.6576    8.9423 H   0  0  0  0  0  0  0  0  0  0  0  0
   10.7065    3.3403   11.5424 H   0  0  0  0  0  0  0  0  0  0  0  0
    7.5070    5.3095   10.4030 O   0  0  0  0  0  0  0  0  0  0  0  0
    9.4005    5.3617   11.6052 O   0  0  0  0  0  0  0  0  0  0  0  0
   12.4552    2.0401   10.1298 O   0  0  0  0  0  0  0  0  0  0  0  0
   11.0540    2.4398    8.4180 O   0  0  0  0  0  0  0  0  0  0  0  0
    8.5821    4.8331   10.6944 C   0  0  0  0  0  0  0  0  0  0  0  0
    8.8914    6.4440   12.3705 C   0  0  0  0  0  0  0  0  0  0  0  0
    8.3196    7.1224   11.7341 H   0  0  0  0  0  0  0  0  0  0  0  0
    9.7530    6.9476   12.8013 H   0  0  0  0  0  0  0  0  0  0  0  0
    8.2448    6.0544   13.1598 H   0  0  0  0  0  0  0  0  0  0  0  0
   11.3840    2.4256    9.7231 C   0  0  0  0  0  0  0  0  0  0  0  0
   12.0197    1.9331    7.5088 C   0  0  0  0  0  0  0  0  0  0  0  0
   13.0256    2.1411    7.8779 H   0  0  0  0  0  0  0  0  0  0  0  0
   11.8415    2.4291    6.5574 H   0  0  0  0  0  0  0  0  0  0  0  0
   11.8864    0.8545    7.3981 H   0  0  0  0  0  0  0  0  0  0  0  0
    5.4803    1.7451   10.1944 C   0  0  0  0  0  0  0  0  0  0  0  0
    4.1504    1.3132   10.3496 C   0  0  0  0  0  0  0  0  0  0  0  0
    3.3655    1.8513    9.8417 H   0  0  0  0  0  0  0  0  0  0  0  0
    3.8650    0.2251   11.1303 C   0  0  0  0  0  0  0  0  0  0  0  0
    2.8491   -0.1194   11.2571 H   0  0  0  0  0  0  0  0  0  0  0  0
    4.9134   -0.4614   11.7670 C   0  0  0  0  0  0  0  0  0  0  0  0
    6.2138    0.0445   11.5782 C   0  0  0  0  0  0  0  0  0  0  0  0
    7.3247   -0.6214   12.1889 C   0  0  0  0  0  0  0  0  0  0  0  0
    7.0988   -1.7640   12.9819 C   0  0  0  0  0  0  0  0  0  0  0  0
    9.4690   -1.8383   13.3317 C   0  0  0  0  0  0  0  0  0  0  0  0
   10.3502   -2.2826   13.7673 H   0  0  0  0  0  0  0  0  0  0  0  0
    8.2274   -2.3730   13.5564 C   0  0  0  0  0  0  0  0  0  0  0  0
    8.1027   -3.2525   14.1712 H   0  0  0  0  0  0  0  0  0  0  0  0
    9.6097   -0.6949   12.5261 C   0  0  0  0  0  0  0  0  0  0  0  0
    5.7721   -2.2427   13.1569 C   0  0  0  0  0  0  0  0  0  0  0  0
    5.6239   -3.1191   13.7700 H   0  0  0  0  0  0  0  0  0  0  0  0
    4.7219   -1.6174   12.5712 C   0  0  0  0  0  0  0  0  0  0  0  0
    3.7147   -1.9835   12.7037 H   0  0  0  0  0  0  0  0  0  0  0  0
    5.8237    2.8852    9.3104 C   0  0  0  0  0  0  0  0  0  0  0  0
    6.1329    3.7534    9.8986 H   0  0  0  0  0  0  0  0  0  0  0  0
    4.9793    3.1739    8.6913 H   0  0  0  0  0  0  0  0  0  0  0  0
    6.6692    2.6166    8.6742 H   0  0  0  0  0  0  0  0  0  0  0  0
   10.9373   -0.0761   12.2789 C   0  0  0  0  0  0  0  0  0  0  0  0
   11.0965    0.0777   11.2109 H   0  0  0  0  0  0  0  0  0  0  0  0
   11.7436   -0.6859   12.6752 H   0  0  0  0  0  0  0  0  0  0  0  0
   10.9757    0.9054   12.7552 H   0  0  0  0  0  0  0  0  0  0  0  0
    7.6671   -0.8795    8.9268 C   0  0  0  0  0  0  0  0  0  0  0  0
    6.3891   -0.7420    8.3996 C   0  0  0  0  0  0  0  0  0  0  0  0
    6.1412    0.1399    7.8263 H   0  0  0  0  0  0  0  0  0  0  0  0
    5.4417   -1.7252    8.6126 C   0  0  0  0  0  0  0  0  0  0  0  0
    4.4454   -1.6058    8.2112 H   0  0  0  0  0  0  0  0  0  0  0  0
    5.7665   -2.8600    9.3380 C   0  0  0  0  0  0  0  0  0  0  0  0
    5.0228   -3.6236    9.5115 H   0  0  0  0  0  0  0  0  0  0  0  0
    7.0526   -3.0208    9.8254 C   0  0  0  0  0  0  0  0  0  0  0  0
    7.3176   -3.9148   10.3721 H   0  0  0  0  0  0  0  0  0  0  0  0
    8.0017   -2.0377    9.6165 C   0  0  0  0  0  0  0  0  0  0  0  0
    9.0090   -2.1636    9.9896 H   0  0  0  0  0  0  0  0  0  0  0  0
  2 50  1  0  0  0  0
  4 30  1  0  0  0  0
  5 31  2  0  0  0  0
  5 37  1  0  0  0  0
  6  8  1  6  0  0  0
  6  7  1  0  0  0  0
  6 14  1  0  0  0  0
  6  1  1  0  0  0  0
  7  9  1  0  0  0  0
 10 14  2  0  0  0  0
 11 15  1  0  0  0  0
 13 19  1  0  0  0  0
 14 11  1  0  0  0  0
 15 17  1  0  0  0  0
 15 18  1  0  0  0  0
 16 15  1  0  0  0  0
 19 12  2  0  0  0  0
 19  7  1  0  0  0  0
 20 21  1  0  0  0  0
 20 13  1  0  0  0  0
 22 20  1  0  0  0  0
 23 20  1  0  0  0  0
 24 25  1  0  0  0  0
 24  4  2  0  0  0  0
 25 27  2  0  0  0  0
 26 25  1  0  0  0  0
 27 28  1  0  0  0  0
 27 29  1  0  0  0  0
 29 40  1  0  0  0  0
 30 29  2  0  0  0  0
 30 31  1  0  0  0  0
 31 32  1  0  0  0  0
 32 38  1  0  0  0  0
 32 35  2  0  0  0  0
 33 35  1  0  0  0  0
 33 34  1  0  0  0  0
 35 36  1  0  0  0  0
 37 33  2  0  0  0  0
 38 39  1  0  0  0  0
 40 41  1  0  0  0  0
 40 38  2  0  0  0  0
 42 43  1  0  0  0  0
 42 24  1  0  0  0  0
 44 42  1  0  0  0  0
 45 42  1  0  0  0  0
 46 37  1  0  0  0  0
 46 48  1  0  0  0  0
 46 49  1  0  0  0  0
 47 46  1  0  0  0  0
 50 59  1  0  0  0  0
 51 53  1  0  0  0  0
 51 50  2  0  0  0  0
 52 51  1  0  0  0  0
 53 55  2  0  0  0  0
 54 53  1  0  0  0  0
 55 56  1  0  0  0  0
 55 57  1  0  0  0  0
 57 58  1  0  0  0  0
 59 57  2  0  0  0  0
 59 60  1  0  0  0  0
M  END
$$$$
