CSD_code = FIBFAY | q = 0 | S = 0 | Stoichiometry = C24H18Cl2N2O3Zn | MND = 4
 OpenBabel04212202033D

 50 53  0  0  1  0  0  0  0  0999 V2000
    6.4849    1.9196    3.4553 Zn  0  0  0  0  0  0  0  0  0  0  0  0
    4.7082    1.2717    2.3452 Cl  0  0  0  0  0  0  0  0  0  0  0  0
    6.6129    3.7639    4.6422 Cl  0  0  0  0  0  0  0  0  0  0  0  0
    9.8188   -0.4535    2.2258 O   0  0  0  0  0  0  0  0  0  0  0  0
    5.9341    0.6880    5.2930 O   0  0  0  0  0  0  0  0  0  0  0  0
    5.0712    0.2956    5.1137 H   0  0  0  0  0  0  0  0  0  0  0  0
    5.8148    1.3151    6.0169 H   0  0  0  0  0  0  0  0  0  0  0  0
   12.2933    3.4666    7.9730 O   0  0  0  0  0  0  0  0  0  0  0  0
    8.0765    0.7704    2.7504 N   0  0  0  0  0  0  0  0  0  0  0  0
   13.9685    2.1904    7.2940 N   0  0  0  0  0  0  0  0  0  0  0  0
   11.9202    6.3043   11.0631 C   0  0  0  0  0  0  0  0  0  0  0  0
   10.9905    6.8356   11.2026 H   0  0  0  0  0  0  0  0  0  0  0  0
   12.9930    6.5501   11.9047 C   0  0  0  0  0  0  0  0  0  0  0  0
   12.9015    7.2727   12.7016 H   0  0  0  0  0  0  0  0  0  0  0  0
   14.1849    5.8662   11.7213 C   0  0  0  0  0  0  0  0  0  0  0  0
   15.0219    6.0568   12.3765 H   0  0  0  0  0  0  0  0  0  0  0  0
   14.3089    4.9408   10.7039 C   0  0  0  0  0  0  0  0  0  0  0  0
   15.2375    4.4099   10.5641 H   0  0  0  0  0  0  0  0  0  0  0  0
   13.2320    4.6878    9.8521 C   0  0  0  0  0  0  0  0  0  0  0  0
   12.0349    5.3804   10.0430 C   0  0  0  0  0  0  0  0  0  0  0  0
   11.2015    5.1874    9.3847 H   0  0  0  0  0  0  0  0  0  0  0  0
   11.8459    2.0258    6.0726 C   0  0  0  0  0  0  0  0  0  0  0  0
   10.5267    2.4732    5.9682 C   0  0  0  0  0  0  0  0  0  0  0  0
   10.1574    3.2141    6.6597 H   0  0  0  0  0  0  0  0  0  0  0  0
    9.6975    1.9771    4.9873 C   0  0  0  0  0  0  0  0  0  0  0  0
    8.6831    2.3328    4.9169 H   0  0  0  0  0  0  0  0  0  0  0  0
   10.1715    1.0227    4.0837 C   0  0  0  0  0  0  0  0  0  0  0  0
   11.4958    0.5738    4.1906 C   0  0  0  0  0  0  0  0  0  0  0  0
   11.8628   -0.1638    3.4938 H   0  0  0  0  0  0  0  0  0  0  0  0
   12.3220    1.0679    5.1720 C   0  0  0  0  0  0  0  0  0  0  0  0
   13.3426    0.7334    5.2668 H   0  0  0  0  0  0  0  0  0  0  0  0
    8.2285   -3.1022   -1.5004 C   0  0  0  0  0  0  0  0  0  0  0  0
    7.4251   -3.3813   -2.1652 H   0  0  0  0  0  0  0  0  0  0  0  0
    9.4735   -3.6984   -1.6305 C   0  0  0  0  0  0  0  0  0  0  0  0
    9.6397   -4.4407   -2.3965 H   0  0  0  0  0  0  0  0  0  0  0  0
   10.5039   -3.3406   -0.7762 C   0  0  0  0  0  0  0  0  0  0  0  0
   11.4743   -3.8036   -0.8754 H   0  0  0  0  0  0  0  0  0  0  0  0
   10.2944   -2.3906    0.2045 C   0  0  0  0  0  0  0  0  0  0  0  0
   11.0949   -2.1086    0.8713 H   0  0  0  0  0  0  0  0  0  0  0  0
    9.0439   -1.7858    0.3395 C   0  0  0  0  0  0  0  0  0  0  0  0
    8.0089   -2.1511   -0.5235 C   0  0  0  0  0  0  0  0  0  0  0  0
    7.0400   -1.6892   -0.4222 H   0  0  0  0  0  0  0  0  0  0  0  0
    7.7389   -0.0228    1.6953 C   0  0  0  0  0  0  0  0  0  0  0  0
    6.7557    0.0143    1.2744 H   0  0  0  0  0  0  0  0  0  0  0  0
    8.8232   -0.7876    1.3637 C   0  0  0  0  0  0  0  0  0  0  0  0
    9.3303    0.4811    3.0434 C   0  0  1  0  0  3  0  0  0  0  0  0
   14.3843    2.9220    8.3507 C   0  0  0  0  0  0  0  0  0  0  0  0
   15.3821    2.8300    8.7258 H   0  0  0  0  0  0  0  0  0  0  0  0
   13.3494    3.7219    8.7830 C   0  0  0  0  0  0  0  0  0  0  0  0
   12.7231    2.5378    7.0957 C   0  0  0  0  0  0  0  0  0  0  0  0
  1  3  1  0  0  0  0
  2  1  1  0  0  0  0
  4 46  1  0  0  0  0
  5  7  1  0  0  0  0
  6  5  1  0  0  0  0
  8 49  1  0  0  0  0
  9 46  1  0  0  0  0
  9  1  1  0  0  0  0
 10 47  1  0  0  0  0
 11 12  1  0  0  0  0
 11 13  1  0  0  0  0
 13 14  1  0  0  0  0
 15 13  2  0  0  0  0
 15 16  1  0  0  0  0
 17 15  1  0  0  0  0
 18 17  1  0  0  0  0
 19 20  1  0  0  0  0
 19 17  2  0  0  0  0
 20 11  2  0  0  0  0
 21 20  1  0  0  0  0
 22 50  1  0  0  0  0
 23 22  1  0  0  0  0
 23 24  1  0  0  0  0
 25 23  2  0  0  0  0
 26 25  1  0  0  0  0
 27 28  2  0  0  0  0
 27 25  1  0  0  0  0
 28 30  1  0  0  0  0
 29 28  1  0  0  0  0
 30 31  1  0  0  0  0
 30 22  2  0  0  0  0
 32 41  1  0  0  0  0
 33 32  1  0  0  0  0
 34 32  2  0  0  0  0
 34 36  1  0  0  0  0
 35 34  1  0  0  0  0
 36 38  2  0  0  0  0
 37 36  1  0  0  0  0
 38 40  1  0  0  0  0
 38 39  1  0  0  0  0
 40 45  1  0  0  0  0
 41 42  1  0  0  0  0
 41 40  2  0  0  0  0
 43  9  1  0  0  0  0
 44 43  1  0  0  0  0
 45 43  2  0  0  0  0
 45  4  1  0  0  0  0
 46 27  1  1  0  0  0
 47 48  1  0  0  0  0
 47 49  2  0  0  0  0
 49 19  1  0  0  0  0
 50 10  2  0  0  0  0
 50  8  1  0  0  0  0
M  END
$$$$
