CSD_code = FIBZAS | q = -1 | S = 0 | Stoichiometry = C18H28Cl4N2PSi2Zr(1-) | MND = 6
 OpenBabel04212202033D

 56 58  0  0  0  0  0  0  0  0999 V2000
    3.0791    2.9769    1.7070 Zr  0  0  0  0  0  0  0  0  0  0  0  0
    1.1370    2.2305    2.9031 Cl  0  0  0  0  0  0  0  0  0  0  0  0
    2.0821    2.3057   -0.3226 Cl  0  0  0  0  0  0  0  0  0  0  0  0
    4.1325    0.8818    1.9387 Cl  0  0  0  0  0  0  0  0  0  0  0  0
    4.9640    3.8824    0.5483 Cl  0  0  0  0  0  0  0  0  0  0  0  0
    2.8983    5.1048    3.4365 P   0  0  0  0  0  4  0  0  0  0  0  0
    5.0360    3.1792    4.5678 Si  0  0  0  0  0  0  0  0  0  0  0  0
    1.3105    5.7525    0.8138 Si  0  0  0  0  0  0  0  0  0  0  0  0
    3.7666    3.7678    3.5747 N   0  0  0  0  0  0  0  0  0  0  0  0
    2.3545    4.9830    1.9350 N   0  0  0  0  0  0  0  0  0  0  0  0
    3.9046    6.6103    3.6463 C   0  0  0  0  0  0  0  0  0  0  0  0
    3.8368    7.4641    4.7371 C   0  0  0  0  0  0  0  0  0  0  0  0
    3.1214    7.2743    5.5256 H   0  0  0  0  0  0  0  0  0  0  0  0
    4.6887    8.5532    4.8124 C   0  0  0  0  0  0  0  0  0  0  0  0
    4.6352    9.2216    5.6611 H   0  0  0  0  0  0  0  0  0  0  0  0
    5.6111    8.7856    3.8055 C   0  0  0  0  0  0  0  0  0  0  0  0
    6.2744    9.6371    3.8696 H   0  0  0  0  0  0  0  0  0  0  0  0
    5.6881    7.9249    2.7206 C   0  0  0  0  0  0  0  0  0  0  0  0
    6.4136    8.1016    1.9399 H   0  0  0  0  0  0  0  0  0  0  0  0
    4.8371    6.8381    2.6405 C   0  0  0  0  0  0  0  0  0  0  0  0
    4.8825    6.1453    1.8076 H   0  0  0  0  0  0  0  0  0  0  0  0
    1.5681    5.1936    4.6853 C   0  0  0  0  0  0  0  0  0  0  0  0
    1.3616    4.1205    5.5403 C   0  0  0  0  0  0  0  0  0  0  0  0
    2.0269    3.2713    5.4783 H   0  0  0  0  0  0  0  0  0  0  0  0
    0.3076    4.1444    6.4366 C   0  0  0  0  0  0  0  0  0  0  0  0
    0.1421    3.3053    7.0965 H   0  0  0  0  0  0  0  0  0  0  0  0
   -0.5423    5.2376    6.4795 C   0  0  0  0  0  0  0  0  0  0  0  0
   -1.3693    5.2538    7.1759 H   0  0  0  0  0  0  0  0  0  0  0  0
   -0.3399    6.3093    5.6239 C   0  0  0  0  0  0  0  0  0  0  0  0
   -1.0074    7.1598    5.6544 H   0  0  0  0  0  0  0  0  0  0  0  0
    0.7116    6.2865    4.7257 C   0  0  0  0  0  0  0  0  0  0  0  0
    0.8774    7.1107    4.0469 H   0  0  0  0  0  0  0  0  0  0  0  0
    5.4486    4.4399    5.9535 C   0  0  0  0  0  0  0  0  0  0  0  0
    4.5526    4.7404    6.4883 H   0  0  0  0  0  0  0  0  0  0  0  0
    5.9016    5.3365    5.5427 H   0  0  0  0  0  0  0  0  0  0  0  0
    6.1411    4.0151    6.6718 H   0  0  0  0  0  0  0  0  0  0  0  0
    6.5760    2.9049    3.4697 C   0  0  0  0  0  0  0  0  0  0  0  0
    7.4503    2.6225    4.0492 H   0  0  0  0  0  0  0  0  0  0  0  0
    6.8170    3.8003    2.9006 H   0  0  0  0  0  0  0  0  0  0  0  0
    6.3751    2.1122    2.7513 H   0  0  0  0  0  0  0  0  0  0  0  0
    4.4232    1.5466    5.3693 C   0  0  0  0  0  0  0  0  0  0  0  0
    3.7256    1.0497    4.6962 H   0  0  0  0  0  0  0  0  0  0  0  0
    3.9212    1.7106    6.3197 H   0  0  0  0  0  0  0  0  0  0  0  0
    5.2492    0.8653    5.5459 H   0  0  0  0  0  0  0  0  0  0  0  0
    0.9372    7.5803    1.2761 C   0  0  0  0  0  0  0  0  0  0  0  0
    0.7385    8.1604    0.3818 H   0  0  0  0  0  0  0  0  0  0  0  0
    1.7782    8.0388    1.7882 H   0  0  0  0  0  0  0  0  0  0  0  0
    0.0644    7.6605    1.9154 H   0  0  0  0  0  0  0  0  0  0  0  0
   -0.3259    4.7620    0.7405 C   0  0  0  0  0  0  0  0  0  0  0  0
   -0.8061    4.7229    1.7162 H   0  0  0  0  0  0  0  0  0  0  0  0
   -0.1137    3.7354    0.4445 H   0  0  0  0  0  0  0  0  0  0  0  0
   -1.0327    5.1785    0.0291 H   0  0  0  0  0  0  0  0  0  0  0  0
    2.2563    5.7491   -0.8496 C   0  0  0  0  0  0  0  0  0  0  0  0
    1.7155    6.2808   -1.6270 H   0  0  0  0  0  0  0  0  0  0  0  0
    2.4131    4.7269   -1.1887 H   0  0  0  0  0  0  0  0  0  0  0  0
    3.2373    6.2072   -0.7444 H   0  0  0  0  0  0  0  0  0  0  0  0
  1 10  1  0  0  0  0
  1  4  1  0  0  0  0
  1  2  1  0  0  0  0
  1  9  1  0  0  0  0
  3  1  1  0  0  0  0
  5  1  1  0  0  0  0
  6  9  1  0  0  0  0
  6 11  1  0  0  0  0
  6 22  1  0  0  0  0
  7 41  1  0  0  0  0
  7 33  1  0  0  0  0
  8 45  1  0  0  0  0
  8 10  1  0  0  0  0
  9  7  1  0  0  0  0
 10  6  1  0  0  0  0
 11 12  1  0  0  0  0
 12 14  2  0  0  0  0
 12 13  1  0  0  0  0
 14 15  1  0  0  0  0
 16 17  1  0  0  0  0
 16 14  1  0  0  0  0
 18 16  2  0  0  0  0
 19 18  1  0  0  0  0
 20 18  1  0  0  0  0
 20 11  2  0  0  0  0
 21 20  1  0  0  0  0
 22 31  2  0  0  0  0
 22 23  1  0  0  0  0
 23 25  2  0  0  0  0
 24 23  1  0  0  0  0
 25 27  1  0  0  0  0
 25 26  1  0  0  0  0
 27 28  1  0  0  0  0
 29 30  1  0  0  0  0
 29 27  2  0  0  0  0
 31 29  1  0  0  0  0
 32 31  1  0  0  0  0
 33 34  1  0  0  0  0
 33 36  1  0  0  0  0
 35 33  1  0  0  0  0
 37 38  1  0  0  0  0
 37  7  1  0  0  0  0
 39 37  1  0  0  0  0
 40 37  1  0  0  0  0
 41 44  1  0  0  0  0
 41 43  1  0  0  0  0
 42 41  1  0  0  0  0
 45 47  1  0  0  0  0
 45 48  1  0  0  0  0
 46 45  1  0  0  0  0
 49  8  1  0  0  0  0
 49 50  1  0  0  0  0
 51 49  1  0  0  0  0
 52 49  1  0  0  0  0
 53 56  1  0  0  0  0
 53  8  1  0  0  0  0
 54 53  1  0  0  0  0
 55 53  1  0  0  0  0
M  END
$$$$
