CSD_code = FICFEF | q = 0 | S = 0 | Stoichiometry = C18H37BrMnNO4P2 | MND = 6
 OpenBabel04212202033D

 64 65  0  0  0  0  0  0  0  0999 V2000
    9.6276    4.2012    6.6950 Mn  0  0  0  0  0  0  0  0  0  0  0  0
   11.9535    4.3901    6.1586 Br  0  0  0  0  0  0  0  0  0  0  0  0
   10.3972    5.1756    8.8145 N   0  0  0  0  0  4  0  0  0  0  0  0
   11.3682    5.3231    8.5089 H   0  0  0  0  0  0  0  0  0  0  0  0
    9.2129    6.3512    5.9298 P   0  0  0  0  0  4  0  0  0  0  0  0
   10.0713    2.0903    7.5304 P   0  0  0  0  0  4  0  0  0  0  0  0
    8.0042    4.2331    7.3480 C   0  0  0  0  0  2  0  0  0  0  0  0
    6.9283    4.3276    7.7717 O   0  0  0  0  0  1  0  0  0  0  0  0
    9.1380    3.4984    5.1529 C   0  0  0  0  0  2  0  0  0  0  0  0
    8.8459    3.0291    4.1331 O   0  0  0  0  0  1  0  0  0  0  0  0
    9.8825    6.4885    9.2021 C   0  0  0  0  0  0  0  0  0  0  0  0
   10.3697    6.8249   10.1324 H   0  0  0  0  0  0  0  0  0  0  0  0
    8.8055    6.4145    9.3841 H   0  0  0  0  0  0  0  0  0  0  0  0
   10.1355    7.5458    8.1302 C   0  0  0  0  0  0  0  0  0  0  0  0
   10.0292    8.5412    8.5742 H   0  0  0  0  0  0  0  0  0  0  0  0
   11.1560    7.4489    7.7369 H   0  0  0  0  0  0  0  0  0  0  0  0
    9.1795    7.4928    7.0935 O   0  0  0  0  0  0  0  0  0  0  0  0
    7.4604    6.7113    5.3991 C   0  0  0  0  0  0  0  0  0  0  0  0
    6.9211    6.6111    6.3518 H   0  0  0  0  0  0  0  0  0  0  0  0
    7.2282    8.1257    4.8802 C   0  0  0  0  0  0  0  0  0  0  0  0
    7.5924    8.2306    3.8619 H   0  0  0  0  0  0  0  0  0  0  0  0
    7.7136    8.8594    5.5172 H   0  0  0  0  0  0  0  0  0  0  0  0
    6.1589    8.3343    4.8738 H   0  0  0  0  0  0  0  0  0  0  0  0
    6.9053    5.6781    4.4268 C   0  0  0  0  0  0  0  0  0  0  0  0
    5.8684    5.9165    4.1941 H   0  0  0  0  0  0  0  0  0  0  0  0
    6.9325    4.6815    4.8644 H   0  0  0  0  0  0  0  0  0  0  0  0
    7.4683    5.6612    3.4970 H   0  0  0  0  0  0  0  0  0  0  0  0
   10.4210    7.0999    4.6994 C   0  0  0  0  0  0  0  0  0  0  0  0
   11.3946    6.8191    5.1263 H   0  0  0  0  0  0  0  0  0  0  0  0
   10.4141    8.6191    4.5648 C   0  0  0  0  0  0  0  0  0  0  0  0
   11.3726    8.9417    4.1600 H   0  0  0  0  0  0  0  0  0  0  0  0
   10.2751    9.1044    5.5288 H   0  0  0  0  0  0  0  0  0  0  0  0
    9.6367    8.9608    3.8891 H   0  0  0  0  0  0  0  0  0  0  0  0
   10.2957    6.4004    3.3515 C   0  0  0  0  0  0  0  0  0  0  0  0
    9.3976    6.7189    2.8266 H   0  0  0  0  0  0  0  0  0  0  0  0
   10.2562    5.3195    3.4840 H   0  0  0  0  0  0  0  0  0  0  0  0
   11.1574    6.6337    2.7286 H   0  0  0  0  0  0  0  0  0  0  0  0
   10.4666    4.2972    9.9823 C   0  0  0  0  0  0  0  0  0  0  0  0
    9.4521    4.0062   10.2735 H   0  0  0  0  0  0  0  0  0  0  0  0
   10.9306    4.8326   10.8272 H   0  0  0  0  0  0  0  0  0  0  0  0
   11.2864    3.0368    9.7122 C   0  0  0  0  0  0  0  0  0  0  0  0
   12.1766    3.2822    9.1187 H   0  0  0  0  0  0  0  0  0  0  0  0
   11.6156    2.6086   10.6647 H   0  0  0  0  0  0  0  0  0  0  0  0
   10.5198    2.0252    9.0954 O   0  0  0  0  0  0  0  0  0  0  0  0
    8.6849    0.8557    7.7007 C   0  0  0  0  0  0  0  0  0  0  0  0
    9.1515   -0.1254    7.8325 H   0  0  0  0  0  0  0  0  0  0  0  0
    7.8246    1.1472    8.9261 C   0  0  0  0  0  0  0  0  0  0  0  0
    7.3950    2.1442    8.8692 H   0  0  0  0  0  0  0  0  0  0  0  0
    8.4087    1.0683    9.8394 H   0  0  0  0  0  0  0  0  0  0  0  0
    7.0073    0.4294    8.9775 H   0  0  0  0  0  0  0  0  0  0  0  0
    7.8304    0.8470    6.4390 C   0  0  0  0  0  0  0  0  0  0  0  0
    7.0744    0.0657    6.5014 H   0  0  0  0  0  0  0  0  0  0  0  0
    8.4319    0.6724    5.5501 H   0  0  0  0  0  0  0  0  0  0  0  0
    7.3242    1.8055    6.3217 H   0  0  0  0  0  0  0  0  0  0  0  0
   11.4720    1.0817    6.7849 C   0  0  0  0  0  0  0  0  0  0  0  0
   12.3526    1.7138    6.9708 H   0  0  0  0  0  0  0  0  0  0  0  0
   11.6938   -0.2503    7.4953 C   0  0  0  0  0  0  0  0  0  0  0  0
   10.9958   -1.0065    7.1424 H   0  0  0  0  0  0  0  0  0  0  0  0
   11.5868   -0.1455    8.5735 H   0  0  0  0  0  0  0  0  0  0  0  0
   12.7010   -0.6068    7.2857 H   0  0  0  0  0  0  0  0  0  0  0  0
   11.3417    0.8886    5.2803 C   0  0  0  0  0  0  0  0  0  0  0  0
   12.2620    0.4618    4.8849 H   0  0  0  0  0  0  0  0  0  0  0  0
   11.1691    1.8365    4.7754 H   0  0  0  0  0  0  0  0  0  0  0  0
   10.5230    0.2138    5.0401 H   0  0  0  0  0  0  0  0  0  0  0  0
  1  7  1  0  0  0  0
  1  6  1  0  0  0  0
  1  3  1  0  0  0  0
  2  1  1  0  0  0  0
  3 11  1  0  0  0  0
  3 38  1  0  0  0  0
  4  3  1  0  0  0  0
  5  1  1  0  0  0  0
  5 17  1  0  0  0  0
  6 45  1  0  0  0  0
  6 44  1  0  0  0  0
  7  8  1  0  0  0  0
  9  1  1  0  0  0  0
 10  9  1  0  0  0  0
 11 13  1  0  0  0  0
 11 12  1  0  0  0  0
 14 15  1  0  0  0  0
 14 11  1  0  0  0  0
 16 14  1  0  0  0  0
 17 14  1  0  0  0  0
 18  5  1  0  0  0  0
 18 19  1  0  0  0  0
 20 18  1  0  0  0  0
 20 22  1  0  0  0  0
 21 20  1  0  0  0  0
 23 20  1  0  0  0  0
 24 26  1  0  0  0  0
 24 18  1  0  0  0  0
 25 24  1  0  0  0  0
 27 24  1  0  0  0  0
 28 29  1  0  0  0  0
 28  5  1  0  0  0  0
 30 28  1  0  0  0  0
 30 32  1  0  0  0  0
 31 30  1  0  0  0  0
 33 30  1  0  0  0  0
 34 36  1  0  0  0  0
 34 28  1  0  0  0  0
 35 34  1  0  0  0  0
 37 34  1  0  0  0  0
 38 39  1  0  0  0  0
 38 40  1  0  0  0  0
 41 38  1  0  0  0  0
 41 43  1  0  0  0  0
 42 41  1  0  0  0  0
 44 41  1  0  0  0  0
 45 46  1  0  0  0  0
 45 47  1  0  0  0  0
 47 50  1  0  0  0  0
 47 49  1  0  0  0  0
 48 47  1  0  0  0  0
 51 52  1  0  0  0  0
 51 45  1  0  0  0  0
 53 51  1  0  0  0  0
 54 51  1  0  0  0  0
 55 56  1  0  0  0  0
 55 57  1  0  0  0  0
 55  6  1  0  0  0  0
 57 59  1  0  0  0  0
 58 57  1  0  0  0  0
 60 57  1  0  0  0  0
 61 55  1  0  0  0  0
 62 61  1  0  0  0  0
 63 61  1  0  0  0  0
 64 61  1  0  0  0  0
M  END
$$$$
