CSD_code = FICKIM | q = 0 | S = 0 | Stoichiometry = C15H21Cl3O3Ti | MND = 6
 OpenBabel04212202033D

 43 44  0  0  0  0  0  0  0  0999 V2000
    3.1159   -0.3077    5.1159 C   0  0  0  0  0  3  0  0  0  0  0  0
    2.8968   -1.1136    5.8396 H   0  0  0  0  0  0  0  0  0  0  0  0
    3.7068    0.8664    5.6662 C   0  0  0  0  0  0  0  0  0  0  0  0
    4.0037    0.9388    7.0413 C   0  0  0  0  0  0  0  0  0  0  0  0
    3.7714    0.0931    7.6714 H   0  0  0  0  0  0  0  0  0  0  0  0
    4.5822    2.0665    7.5546 C   0  0  0  0  0  0  0  0  0  0  0  0
    4.8154    2.1315    8.6060 H   0  0  0  0  0  0  0  0  0  0  0  0
    4.8841    3.1491    6.7195 C   0  0  0  0  0  0  0  0  0  0  0  0
    5.3458    4.0131    7.1692 H   0  0  0  0  0  0  0  0  0  0  0  0
    4.6148    3.1435    5.3671 C   0  0  0  0  0  0  0  0  0  0  0  0
    4.0052    1.9800    4.8202 C   0  0  0  0  0  0  0  0  0  0  0  0
    4.9466    4.3011    4.4364 C   0  0  0  0  0  0  0  0  0  0  0  0
    3.6554    4.8122    3.7767 C   0  0  0  0  0  0  0  0  0  0  0  0
    3.1911    4.0467    3.1532 H   0  0  0  0  0  0  0  0  0  0  0  0
    3.8821    5.6677    3.1446 H   0  0  0  0  0  0  0  0  0  0  0  0
    2.9395    5.1219    4.5363 H   0  0  0  0  0  0  0  0  0  0  0  0
    5.5967    5.4708    5.1826 C   0  0  0  0  0  0  0  0  0  0  0  0
    4.9313    5.8708    5.9443 H   0  0  0  0  0  0  0  0  0  0  0  0
    5.8129    6.2680    4.4755 H   0  0  0  0  0  0  0  0  0  0  0  0
    6.5347    5.1708    5.6442 H   0  0  0  0  0  0  0  0  0  0  0  0
    5.9310    3.8120    3.3612 C   0  0  0  0  0  0  0  0  0  0  0  0
    6.8333    3.4180    3.8258 H   0  0  0  0  0  0  0  0  0  0  0  0
    6.2074    4.6409    2.7137 H   0  0  0  0  0  0  0  0  0  0  0  0
    5.4934    3.0297    2.7381 H   0  0  0  0  0  0  0  0  0  0  0  0
    1.4305   -1.4907    1.3727 C   0  0  0  0  0  0  0  0  0  0  0  0
    0.5590   -0.9009    1.0544 H   0  0  0  0  0  0  0  0  0  0  0  0
    1.3321   -1.7319    2.4364 H   0  0  0  0  0  0  0  0  0  0  0  0
    1.6305   -2.7131    0.4847 C   0  0  0  0  0  0  0  0  0  0  0  0
    0.6867   -3.1666    0.1923 H   0  0  0  0  0  0  0  0  0  0  0  0
    2.2441   -3.4580    0.9934 H   0  0  0  0  0  0  0  0  0  0  0  0
    2.3974   -2.1057   -0.6857 C   0  0  0  0  0  0  0  0  0  0  0  0
    2.9450   -2.8415   -1.2691 H   0  0  0  0  0  0  0  0  0  0  0  0
    1.7169   -1.5634   -1.3434 H   0  0  0  0  0  0  0  0  0  0  0  0
    3.3295   -1.1374    0.0341 C   0  0  0  0  0  0  0  0  0  0  0  0
    4.2453   -1.6394    0.3772 H   0  0  0  0  0  0  0  0  0  0  0  0
    3.5992   -0.2606   -0.5672 H   0  0  0  0  0  0  0  0  0  0  0  0
    2.8282   -0.5190    3.9303 O   0  0  0  0  0  0  0  0  0  0  0  0
    3.7076    1.9010    3.5655 O   0  0  0  0  0  0  0  0  0  0  0  0
    2.6074   -0.6837    1.1967 O   0  0  0  0  0  0  0  0  0  0  0  0
    5.2535   -0.2540    2.3942 Cl  0  0  0  0  0  0  0  0  0  0  0  0
    1.0196    1.3490    2.6027 Cl  0  0  0  0  0  0  0  0  0  0  0  0
    3.5793    2.0453    0.6095 Cl  0  0  0  0  0  0  0  0  0  0  0  0
    3.2111    0.7791    2.3606 Ti  0  0  0  0  0  0  0  0  0  0  0  0
  1  3  1  0  0  0  0
  1  2  1  0  0  0  0
  3  4  1  0  0  0  0
  4  6  2  0  0  0  0
  4  5  1  0  0  0  0
  6  7  1  0  0  0  0
  8  9  1  0  0  0  0
  8  6  1  0  0  0  0
 10  8  2  0  0  0  0
 11 10  1  0  0  0  0
 11  3  2  0  0  0  0
 12 17  1  0  0  0  0
 12 10  1  0  0  0  0
 13 12  1  0  0  0  0
 13 16  1  0  0  0  0
 14 13  1  0  0  0  0
 15 13  1  0  0  0  0
 17 20  1  0  0  0  0
 17 18  1  0  0  0  0
 19 17  1  0  0  0  0
 21 22  1  0  0  0  0
 21 12  1  0  0  0  0
 23 21  1  0  0  0  0
 24 21  1  0  0  0  0
 25 27  1  0  0  0  0
 26 25  1  0  0  0  0
 28 30  1  0  0  0  0
 28 25  1  0  0  0  0
 29 28  1  0  0  0  0
 31 34  1  0  0  0  0
 31 28  1  0  0  0  0
 32 31  1  0  0  0  0
 33 31  1  0  0  0  0
 34 35  1  0  0  0  0
 34 39  1  0  0  0  0
 36 34  1  0  0  0  0
 37  1  1  0  0  0  0
 38 11  1  0  0  0  0
 39 25  1  0  0  0  0
 42 43  1  0  0  0  0
 43 40  1  0  0  0  0
 43 41  1  0  0  0  0
 43 38  1  0  0  0  0
 43 37  1  0  0  0  0
M  END
$$$$
