CSD_code = FIDVUK | q = 0 | S = 0 | Stoichiometry = C7H6Cl3NO3W | MND = 6
 OpenBabel04212202033D

 21 22  0  0  1  0  0  0  0  0999 V2000
    3.8531    2.4840    8.4510 W   0  0  0  0  0  0  0  0  0  0  0  0
    4.2496    1.7004    9.8607 O   0  0  0  0  0  1  0  0  0  0  0  0
    5.5580    1.6927    7.0447 Cl  0  0  0  0  0  0  0  0  0  0  0  0
    1.8607    3.5440    9.1031 Cl  0  0  0  0  0  0  0  0  0  0  0  0
    4.9538    4.4177    8.6956 Cl  0  0  0  0  0  0  0  0  0  0  0  0
    2.6908    0.9620    7.7423 N   0  0  0  0  0  0  0  0  0  0  0  0
    2.6421    0.1481    8.3695 H   0  0  0  0  0  0  0  0  0  0  0  0
    1.9288    0.7359    6.6459 C   0  0  0  0  0  0  0  0  0  0  0  0
    1.2167   -0.4762    6.5042 C   0  0  0  0  0  0  0  0  0  0  0  0
    1.2998   -1.2100    7.2935 H   0  0  0  0  0  0  0  0  0  0  0  0
    0.4374   -0.7321    5.4063 C   0  0  0  0  0  0  0  0  0  0  0  0
   -0.0930   -1.6696    5.3343 H   0  0  0  0  0  0  0  0  0  0  0  0
    0.3214    0.2084    4.3773 C   0  0  0  0  0  0  0  0  0  0  0  0
   -0.2941   -0.0045    3.5183 H   0  0  0  0  0  0  0  0  0  0  0  0
    0.9951    1.3962    4.4730 C   0  0  0  0  0  0  0  0  0  0  0  0
    0.9222    2.1374    3.6934 H   0  0  0  0  0  0  0  0  0  0  0  0
    1.8035    1.6893    5.5903 C   0  0  0  0  0  0  0  0  0  0  0  0
    2.4921    2.9462    5.6491 C   0  0  1  0  0  3  0  0  0  0  0  0
    3.2299    3.3061    6.5949 O   0  0  0  0  0  0  0  0  0  0  0  0
    2.3314    3.7730    4.6300 O   0  0  0  0  0  0  0  0  0  0  0  0
    2.8395    4.5907    4.7724 H   0  0  0  0  0  0  0  0  0  0  0  0
  1  5  1  0  0  0  0
  1  4  1  0  0  0  0
  1  2  1  0  0  0  0
  3  1  1  0  0  0  0
  6  7  1  0  0  0  0
  6  1  1  0  0  0  0
  8  6  1  0  0  0  0
  9  8  1  0  0  0  0
  9 10  1  0  0  0  0
 11  9  2  0  0  0  0
 12 11  1  0  0  0  0
 13 15  2  0  0  0  0
 13 11  1  0  0  0  0
 14 13  1  0  0  0  0
 15 17  1  0  0  0  0
 16 15  1  0  0  0  0
 17 18  1  0  0  0  0
 17  8  2  0  0  0  0
 18 20  1  6  0  0  0
 18 19  1  0  0  0  0
 19  1  1  0  0  0  0
 20 21  1  0  0  0  0
M  END
$$$$
