CSD_code = FIDVUM | q = 1 | S = 0 | Stoichiometry = C16H34ClN4NiO(1+) | MND = 6
 OpenBabel04212202033D

 57 59  0  0  1  0  0  0  0  0999 V2000
    1.7863    2.9349    9.9181 Ni  0  0  0  0  0  0  0  0  0  0  0  0
    0.6971    3.3340   11.9342 Cl  0  0  0  0  0  0  0  0  0  0  0  0
    2.9915    2.2492    7.9986 O   0  0  0  0  0  0  0  0  0  0  0  0
    3.0573    2.8981    7.2936 H   0  0  0  0  0  0  0  0  0  0  0  0
    3.8818    1.9521    8.2036 H   0  0  0  0  0  0  0  0  0  0  0  0
    0.6441    4.3869    8.6047 N   0  0  1  0  0  4  0  0  0  0  0  0
    0.6864    1.4375    9.5555 N   0  0  2  0  0  4  0  0  0  0  0  0
    0.9953    1.2194    8.6017 H   0  0  0  0  0  0  0  0  0  0  0  0
    3.0765    1.4865   10.9931 N   0  0  1  0  0  4  0  0  0  0  0  0
    2.6643    1.6610   11.9156 H   0  0  0  0  0  0  0  0  0  0  0  0
    2.9491    4.3804   10.3555 N   0  0  1  0  0  4  0  0  0  0  0  0
    2.5874    4.5706   11.3001 H   0  0  0  0  0  0  0  0  0  0  0  0
    0.5862    6.8514    1.6919 C   0  0  0  0  0  0  0  0  0  0  0  0
    0.9913    7.0141    0.7382 H   0  0  0  0  0  0  0  0  0  0  0  0
    0.1030    6.6795    2.7724 C   0  0  0  0  0  0  0  0  0  0  0  0
   -0.4518    6.4533    4.0925 C   0  0  0  0  0  0  0  0  0  0  0  0
   -1.4207    5.9564    3.9900 H   0  0  0  0  0  0  0  0  0  0  0  0
   -0.6140    7.4197    4.5788 H   0  0  0  0  0  0  0  0  0  0  0  0
    0.4910    5.5932    4.9403 C   0  0  0  0  0  0  0  0  0  0  0  0
    0.6447    4.6346    4.4388 H   0  0  0  0  0  0  0  0  0  0  0  0
    1.4609    6.0931    5.0067 H   0  0  0  0  0  0  0  0  0  0  0  0
   -0.0715    5.3593    6.3417 C   0  0  0  0  0  0  0  0  0  0  0  0
   -1.0526    4.8907    6.2518 H   0  0  0  0  0  0  0  0  0  0  0  0
   -0.2016    6.3242    6.8361 H   0  0  0  0  0  0  0  0  0  0  0  0
    0.8756    4.4622    7.1507 C   0  0  0  0  0  0  0  0  0  0  0  0
    0.8262    3.4524    6.7375 H   0  0  0  0  0  0  0  0  0  0  0  0
    1.8924    4.8333    7.0000 H   0  0  0  0  0  0  0  0  0  0  0  0
   -0.7677    4.1150    8.9285 C   0  0  0  0  0  0  0  0  0  0  0  0
   -1.4207    4.8522    8.4499 H   0  0  0  0  0  0  0  0  0  0  0  0
   -0.8877    4.2158   10.0096 H   0  0  0  0  0  0  0  0  0  0  0  0
   -1.2197    2.7038    8.5398 C   0  0  0  0  0  0  0  0  0  0  0  0
   -2.3103    2.6957    8.5352 H   0  0  0  0  0  0  0  0  0  0  0  0
   -0.8883    2.4518    7.5315 H   0  0  0  0  0  0  0  0  0  0  0  0
   -0.7677    1.6234    9.5223 C   0  0  0  0  0  0  0  0  0  0  0  0
   -1.0960    1.8879   10.5306 H   0  0  0  0  0  0  0  0  0  0  0  0
   -1.2481    0.6760    9.2442 H   0  0  0  0  0  0  0  0  0  0  0  0
    1.0635    0.3000   10.4140 C   0  0  0  0  0  0  0  0  0  0  0  0
    0.6466   -0.6337   10.0188 H   0  0  0  0  0  0  0  0  0  0  0  0
    0.6368    0.4778   11.4050 H   0  0  0  0  0  0  0  0  0  0  0  0
    2.5859    0.1891   10.5345 C   0  0  0  0  0  0  0  0  0  0  0  0
    2.8429   -0.6265   11.2243 H   0  0  0  0  0  0  0  0  0  0  0  0
    3.0277   -0.0354    9.5588 H   0  0  0  0  0  0  0  0  0  0  0  0
    4.5141    1.6672   11.1112 C   0  0  0  0  0  0  0  0  0  0  0  0
    4.9890    1.4294   10.1539 H   0  0  0  0  0  0  0  0  0  0  0  0
    4.9473    0.9998   11.8698 H   0  0  0  0  0  0  0  0  0  0  0  0
    4.8086    3.1183   11.5057 C   0  0  0  0  0  0  0  0  0  0  0  0
    5.8813    3.2177   11.6736 H   0  0  0  0  0  0  0  0  0  0  0  0
    4.3036    3.3368   12.4488 H   0  0  0  0  0  0  0  0  0  0  0  0
    4.3986    4.1658   10.4649 C   0  0  0  0  0  0  0  0  0  0  0  0
    4.8709    5.1163   10.7478 H   0  0  0  0  0  0  0  0  0  0  0  0
    4.7908    3.8866    9.4815 H   0  0  0  0  0  0  0  0  0  0  0  0
    2.6273    5.5473    9.5190 C   0  0  0  0  0  0  0  0  0  0  0  0
    3.1684    5.4562    8.5723 H   0  0  0  0  0  0  0  0  0  0  0  0
    2.9585    6.4741   10.0036 H   0  0  0  0  0  0  0  0  0  0  0  0
    1.1179    5.6158    9.2740 C   0  0  0  0  0  0  0  0  0  0  0  0
    0.6192    5.6962   10.2424 H   0  0  0  0  0  0  0  0  0  0  0  0
    0.8815    6.5141    8.6933 H   0  0  0  0  0  0  0  0  0  0  0  0
  1 11  1  0  0  0  0
  1  9  1  0  0  0  0
  1  2  1  0  0  0  0
  3  5  1  0  0  0  0
  4  3  1  0  0  0  0
  6 25  1  6  0  0  0
  6 28  1  0  0  0  0
  6 55  1  0  0  0  0
  6  1  1  0  0  0  0
  7  8  1  6  0  0  0
  7  1  1  0  0  0  0
  7 37  1  0  0  0  0
  9 43  1  0  0  0  0
  9 10  1  1  0  0  0
 11 49  1  0  0  0  0
 11 12  1  1  0  0  0
 13 15  3  0  0  0  0
 14 13  1  0  0  0  0
 15 16  1  0  0  0  0
 16 18  1  0  0  0  0
 16 19  1  0  0  0  0
 17 16  1  0  0  0  0
 19 21  1  0  0  0  0
 19 22  1  0  0  0  0
 20 19  1  0  0  0  0
 22 24  1  0  0  0  0
 22 25  1  0  0  0  0
 23 22  1  0  0  0  0
 26 25  1  0  0  0  0
 27 25  1  0  0  0  0
 28 30  1  0  0  0  0
 29 28  1  0  0  0  0
 31 28  1  0  0  0  0
 31 34  1  0  0  0  0
 32 31  1  0  0  0  0
 33 31  1  0  0  0  0
 34  7  1  0  0  0  0
 34 35  1  0  0  0  0
 36 34  1  0  0  0  0
 37 40  1  0  0  0  0
 37 39  1  0  0  0  0
 38 37  1  0  0  0  0
 40  9  1  0  0  0  0
 40 41  1  0  0  0  0
 42 40  1  0  0  0  0
 43 46  1  0  0  0  0
 43 45  1  0  0  0  0
 44 43  1  0  0  0  0
 46 47  1  0  0  0  0
 46 48  1  0  0  0  0
 49 50  1  0  0  0  0
 49 46  1  0  0  0  0
 51 49  1  0  0  0  0
 52 54  1  0  0  0  0
 52 11  1  0  0  0  0
 53 52  1  0  0  0  0
 55 52  1  0  0  0  0
 55 56  1  0  0  0  0
 57 55  1  0  0  0  0
M  END
$$$$
