CSD_code = FIDVOG | q = 0 | S = 0 | Stoichiometry = C13H26Cl2N4Ni | MND = 6
 OpenBabel04212202033D

 46 49  0  0  1  0  0  0  0  0999 V2000
    3.3616   10.3855    6.0597 Ni  0  0  0  0  0  0  0  0  0  0  0  0
    1.6744    8.9469    6.2728 Cl  0  0  0  0  0  0  0  0  0  0  0  0
    5.0796   11.8393    5.9600 Cl  0  0  0  0  0  0  0  0  0  0  0  0
    3.1935   10.1198    3.7519 N   0  0  1  0  0  4  0  0  0  0  0  0
    2.1009   11.8245    6.1482 N   0  0  2  0  0  4  0  0  0  0  0  0
    1.2133   11.3186    6.0507 H   0  0  0  0  0  0  0  0  0  0  0  0
    3.4900   10.5829    8.3375 N   0  0  1  0  0  4  0  0  0  0  0  0
    4.2862   11.1836    8.5525 H   0  0  0  0  0  0  0  0  0  0  0  0
    4.6483    8.9743    6.0397 N   0  0  1  0  0  4  0  0  0  0  0  0
    5.5039    9.5327    6.1410 H   0  0  0  0  0  0  0  0  0  0  0  0
    3.1724   11.4698    3.1783 C   0  0  0  0  0  0  0  0  0  0  0  0
    3.1246   11.4193    2.0794 H   0  0  0  0  0  0  0  0  0  0  0  0
    4.0984   11.9759    3.4578 H   0  0  0  0  0  0  0  0  0  0  0  0
    1.9956   12.3147    3.6878 C   0  0  0  0  0  0  0  0  0  0  0  0
    1.9001   13.1764    3.0238 H   0  0  0  0  0  0  0  0  0  0  0  0
    1.0638   11.7496    3.6243 H   0  0  0  0  0  0  0  0  0  0  0  0
    2.1593   12.8572    5.1096 C   0  0  0  0  0  0  0  0  0  0  0  0
    3.1214   13.3696    5.1932 H   0  0  0  0  0  0  0  0  0  0  0  0
    1.3614   13.5943    5.2918 H   0  0  0  0  0  0  0  0  0  0  0  0
    2.1351   12.4111    7.4953 C   0  0  0  0  0  0  0  0  0  0  0  0
    1.2328   13.0123    7.6748 H   0  0  0  0  0  0  0  0  0  0  0  0
    3.0079   13.0689    7.5511 H   0  0  0  0  0  0  0  0  0  0  0  0
    2.2586   11.3251    8.5721 C   0  0  0  0  0  0  0  0  0  0  0  0
    2.2218   11.7944    9.5683 H   0  0  0  0  0  0  0  0  0  0  0  0
    1.4206   10.6270    8.4861 H   0  0  0  0  0  0  0  0  0  0  0  0
    3.6333    9.3228    9.0478 C   0  0  0  0  0  0  0  0  0  0  0  0
    2.7259    8.7368    8.8808 H   0  0  0  0  0  0  0  0  0  0  0  0
    3.7550    9.4708   10.1341 H   0  0  0  0  0  0  0  0  0  0  0  0
    4.8419    8.5507    8.5061 C   0  0  0  0  0  0  0  0  0  0  0  0
    5.0494    7.7199    9.1829 H   0  0  0  0  0  0  0  0  0  0  0  0
    5.7151    9.2088    8.5036 H   0  0  0  0  0  0  0  0  0  0  0  0
    4.6426    7.9655    7.1037 C   0  0  0  0  0  0  0  0  0  0  0  0
    5.4533    7.2453    6.9126 H   0  0  0  0  0  0  0  0  0  0  0  0
    3.6907    7.4289    7.0650 H   0  0  0  0  0  0  0  0  0  0  0  0
    4.6665    8.3783    4.7005 C   0  0  0  0  0  0  0  0  0  0  0  0
    3.8500    7.6538    4.6415 H   0  0  0  0  0  0  0  0  0  0  0  0
    5.6114    7.8425    4.5294 H   0  0  0  0  0  0  0  0  0  0  0  0
    4.4991    9.4587    3.6218 C   0  0  0  0  0  0  0  0  0  0  0  0
    5.2847   10.2061    3.7575 H   0  0  0  0  0  0  0  0  0  0  0  0
    4.6212    9.0031    2.6282 H   0  0  0  0  0  0  0  0  0  0  0  0
    2.1536    9.2864    3.1321 C   0  0  0  0  0  0  0  0  0  0  0  0
    2.1325    8.3152    3.6310 H   0  0  0  0  0  0  0  0  0  0  0  0
    1.1771    9.7441    3.3041 H   0  0  0  0  0  0  0  0  0  0  0  0
    2.3400    9.0877    1.7037 C   0  0  0  0  0  0  0  0  0  0  0  0
    2.5279    8.9440    0.5297 C   0  0  0  0  0  0  0  0  0  0  0  0
    2.6662    8.8021   -0.5006 H   0  0  0  0  0  0  0  0  0  0  0  0
  1  5  1  0  0  0  0
  1  2  1  0  0  0  0
  1  7  1  0  0  0  0
  3  1  1  0  0  0  0
  4 41  1  6  0  0  0
  4  1  1  0  0  0  0
  5  6  1  6  0  0  0
  5 20  1  0  0  0  0
  7  8  1  1  0  0  0
  7 23  1  0  0  0  0
  7 26  1  0  0  0  0
  9  1  1  0  0  0  0
  9 10  1  1  0  0  0
  9 32  1  0  0  0  0
 11 13  1  0  0  0  0
 11 14  1  0  0  0  0
 11  4  1  0  0  0  0
 12 11  1  0  0  0  0
 14 17  1  0  0  0  0
 15 14  1  0  0  0  0
 16 14  1  0  0  0  0
 17 18  1  0  0  0  0
 17 19  1  0  0  0  0
 17  5  1  0  0  0  0
 20 22  1  0  0  0  0
 20 21  1  0  0  0  0
 20 23  1  0  0  0  0
 23 24  1  0  0  0  0
 25 23  1  0  0  0  0
 26 28  1  0  0  0  0
 27 26  1  0  0  0  0
 29 26  1  0  0  0  0
 29 30  1  0  0  0  0
 31 29  1  0  0  0  0
 32 29  1  0  0  0  0
 33 32  1  0  0  0  0
 34 32  1  0  0  0  0
 35  9  1  0  0  0  0
 36 35  1  0  0  0  0
 37 35  1  0  0  0  0
 38  4  1  0  0  0  0
 38 39  1  0  0  0  0
 38 35  1  0  0  0  0
 40 38  1  0  0  0  0
 41 43  1  0  0  0  0
 41 42  1  0  0  0  0
 44 41  1  0  0  0  0
 45 44  3  0  0  0  0
 46 45  1  0  0  0  0
M  END
$$$$
