CSD_code = FIDWAT | q = 1 | S = 0 | Stoichiometry = C15H32ClN4NiO(1+) | MND = 6
 OpenBabel04212202033D

 54 56  0  0  1  0  0  0  0  0999 V2000
    2.5545    4.7102    9.2215 Ni  0  0  0  0  0  0  0  0  0  0  0  0
    3.7301    5.4449   11.0856 Cl  0  0  0  0  0  0  0  0  0  0  0  0
    1.2601    3.7171    7.5075 O   0  0  0  0  0  0  0  0  0  0  0  0
    0.3889    3.4536    7.8153 H   0  0  0  0  0  0  0  0  0  0  0  0
    1.1391    4.2488    6.7173 H   0  0  0  0  0  0  0  0  0  0  0  0
    3.6491    5.8835    7.6166 N   0  0  1  0  0  4  0  0  0  0  0  0
    1.4244    6.2308    9.4374 N   0  0  1  0  0  4  0  0  0  0  0  0
    1.8301    6.5831   10.3151 H   0  0  0  0  0  0  0  0  0  0  0  0
    1.2974    3.4992   10.5925 N   0  0  1  0  0  4  0  0  0  0  0  0
    1.7529    3.8327   11.4485 H   0  0  0  0  0  0  0  0  0  0  0  0
    3.6215    3.1526    9.0917 N   0  0  2  0  0  4  0  0  0  0  0  0
    3.2685    2.7714    8.2068 H   0  0  0  0  0  0  0  0  0  0  0  0
    5.3206    7.6174    2.0937 C   0  0  0  0  0  0  0  0  0  0  0  0
    5.9648    8.0955    1.4182 H   0  0  0  0  0  0  0  0  0  0  0  0
    4.5714    7.0665    2.8455 C   0  0  0  0  0  0  0  0  0  0  0  0
    3.6854    6.4095    3.7874 C   0  0  0  0  0  0  0  0  0  0  0  0
    3.5235    5.3780    3.4601 H   0  0  0  0  0  0  0  0  0  0  0  0
    2.7208    6.9267    3.7818 H   0  0  0  0  0  0  0  0  0  0  0  0
    4.2894    6.4256    5.1971 C   0  0  0  0  0  0  0  0  0  0  0  0
    4.4438    7.4637    5.4971 H   0  0  0  0  0  0  0  0  0  0  0  0
    5.2640    5.9375    5.1581 H   0  0  0  0  0  0  0  0  0  0  0  0
    3.3604    5.7037    6.1821 C   0  0  0  0  0  0  0  0  0  0  0  0
    2.3426    6.0624    6.0069 H   0  0  0  0  0  0  0  0  0  0  0  0
    3.3798    4.6351    5.9549 H   0  0  0  0  0  0  0  0  0  0  0  0
    3.2159    7.2204    8.0730 C   0  0  0  0  0  0  0  0  0  0  0  0
    3.4347    7.9961    7.3311 H   0  0  0  0  0  0  0  0  0  0  0  0
    3.7574    7.4654    8.9893 H   0  0  0  0  0  0  0  0  0  0  0  0
    1.7182    7.2214    8.3898 C   0  0  0  0  0  0  0  0  0  0  0  0
    1.4162    8.2259    8.7111 H   0  0  0  0  0  0  0  0  0  0  0  0
    1.1343    6.9689    7.4994 H   0  0  0  0  0  0  0  0  0  0  0  0
   -0.0204    6.0634    9.6468 C   0  0  0  0  0  0  0  0  0  0  0  0
   -0.4598    5.6177    8.7482 H   0  0  0  0  0  0  0  0  0  0  0  0
   -0.4712    7.0570    9.7730 H   0  0  0  0  0  0  0  0  0  0  0  0
   -0.3916    5.2280   10.8769 C   0  0  0  0  0  0  0  0  0  0  0  0
   -1.4539    5.3764   11.0721 H   0  0  0  0  0  0  0  0  0  0  0  0
    0.1602    5.6028   11.7413 H   0  0  0  0  0  0  0  0  0  0  0  0
   -0.1314    3.7241   10.7385 C   0  0  0  0  0  0  0  0  0  0  0  0
   -0.5360    3.2124   11.6233 H   0  0  0  0  0  0  0  0  0  0  0  0
   -0.6530    3.3268    9.8618 H   0  0  0  0  0  0  0  0  0  0  0  0
    1.7563    2.1320   10.3600 C   0  0  0  0  0  0  0  0  0  0  0  0
    1.2695    1.7383    9.4624 H   0  0  0  0  0  0  0  0  0  0  0  0
    1.5244    1.4612   11.1987 H   0  0  0  0  0  0  0  0  0  0  0  0
    3.2729    2.1948   10.1568 C   0  0  0  0  0  0  0  0  0  0  0  0
    3.7447    2.5411   11.0805 H   0  0  0  0  0  0  0  0  0  0  0  0
    3.6639    1.1985    9.9197 H   0  0  0  0  0  0  0  0  0  0  0  0
    5.0744    3.3045    8.9635 C   0  0  0  0  0  0  0  0  0  0  0  0
    5.5331    2.3145    8.8406 H   0  0  0  0  0  0  0  0  0  0  0  0
    5.4504    3.7401    9.8926 H   0  0  0  0  0  0  0  0  0  0  0  0
    5.4912    4.1828    7.7836 C   0  0  0  0  0  0  0  0  0  0  0  0
    6.5802    4.1554    7.7332 H   0  0  0  0  0  0  0  0  0  0  0  0
    5.1124    3.7589    6.8527 H   0  0  0  0  0  0  0  0  0  0  0  0
    5.0702    5.6486    7.9303 C   0  0  0  0  0  0  0  0  0  0  0  0
    5.2345    5.9385    8.9706 H   0  0  0  0  0  0  0  0  0  0  0  0
    5.7115    6.2772    7.3037 H   0  0  0  0  0  0  0  0  0  0  0  0
  1  7  1  0  0  0  0
  1  9  1  0  0  0  0
  1  2  1  0  0  0  0
  3  4  1  0  0  0  0
  5  3  1  0  0  0  0
  6 22  1  6  0  0  0
  6 52  1  0  0  0  0
  6 25  1  0  0  0  0
  6  1  1  0  0  0  0
  7 31  1  0  0  0  0
  7  8  1  1  0  0  0
  9 37  1  0  0  0  0
  9 10  1  1  0  0  0
 11 12  1  6  0  0  0
 11  1  1  0  0  0  0
 11 43  1  0  0  0  0
 13 15  3  0  0  0  0
 14 13  1  0  0  0  0
 15 16  1  0  0  0  0
 16 19  1  0  0  0  0
 17 16  1  0  0  0  0
 18 16  1  0  0  0  0
 19 20  1  0  0  0  0
 19 22  1  0  0  0  0
 21 19  1  0  0  0  0
 23 22  1  0  0  0  0
 24 22  1  0  0  0  0
 25 28  1  0  0  0  0
 25 27  1  0  0  0  0
 26 25  1  0  0  0  0
 28 29  1  0  0  0  0
 28  7  1  0  0  0  0
 30 28  1  0  0  0  0
 31 33  1  0  0  0  0
 31 34  1  0  0  0  0
 32 31  1  0  0  0  0
 34 35  1  0  0  0  0
 34 36  1  0  0  0  0
 37 34  1  0  0  0  0
 37 38  1  0  0  0  0
 39 37  1  0  0  0  0
 40  9  1  0  0  0  0
 40 42  1  0  0  0  0
 41 40  1  0  0  0  0
 43 40  1  0  0  0  0
 43 44  1  0  0  0  0
 45 43  1  0  0  0  0
 46 11  1  0  0  0  0
 46 48  1  0  0  0  0
 47 46  1  0  0  0  0
 49 52  1  0  0  0  0
 49 46  1  0  0  0  0
 50 49  1  0  0  0  0
 51 49  1  0  0  0  0
 52 53  1  0  0  0  0
 54 52  1  0  0  0  0
M  END
$$$$
