CSD_code = FIFKOX | q = 0 | S = 0 | Stoichiometry = C25H22BBr2F2N5Zn | MND = 4
 OpenBabel04212202033D

 58 64  0  0  1  0  0  0  0  0999 V2000
   -1.6265   11.4726    2.5412 Br  0  0  0  0  0  0  0  0  0  0  0  0
   -0.8597   10.1424   -1.6554 Br  0  0  0  0  0  0  0  0  0  0  0  0
   -0.7485   10.3134    0.6668 Zn  0  0  0  0  0  0  0  0  0  0  0  0
    2.5203    4.2128    6.9653 F   0  0  0  0  0  0  0  0  0  0  0  0
    4.2059    5.5058    6.1842 F   0  0  0  0  0  0  0  0  0  0  0  0
   -0.7604    8.3829    1.4848 N   0  0  0  0  0  0  0  0  0  0  0  0
    1.3281   10.1037    1.2585 N   0  0  0  0  0  0  0  0  0  0  0  0
   -1.0905    6.6422    2.8151 N   0  0  0  0  0  0  0  0  0  0  0  0
    2.5922    4.6861    4.6153 N   0  0  0  0  0  0  0  0  0  0  0  0
    2.0035    6.4481    6.2686 N   0  0  0  0  0  0  0  0  0  0  0  0
   -1.6383    7.4605    1.8434 C   0  0  2  0  0  3  0  0  0  0  0  0
   -2.9462    7.2286    1.3963 C   0  0  0  0  0  0  0  0  0  0  0  0
   -3.3583    7.8720    0.6361 H   0  0  0  0  0  0  0  0  0  0  0  0
   -3.6466    6.1932    1.9475 C   0  0  0  0  0  0  0  0  0  0  0  0
   -4.6555    5.9885    1.6283 H   0  0  0  0  0  0  0  0  0  0  0  0
   -3.0587    5.3812    2.9425 C   0  0  0  0  0  0  0  0  0  0  0  0
   -3.6203    4.5690    3.3732 H   0  0  0  0  0  0  0  0  0  0  0  0
   -1.7875    5.6161    3.3646 C   0  0  0  0  0  0  0  0  0  0  0  0
   -1.2826    5.0342    4.1201 H   0  0  0  0  0  0  0  0  0  0  0  0
    0.1764    7.0895    3.0624 C   0  0  0  0  0  0  0  0  0  0  0  0
    0.3624    8.1751    2.2231 C   0  0  0  0  0  0  0  0  0  0  0  0
    1.5146    9.0402    2.0497 C   0  0  1  0  0  3  0  0  0  0  0  0
    2.7446    8.7868    2.6551 C   0  0  0  0  0  0  0  0  0  0  0  0
    2.8709    7.9201    3.2827 H   0  0  0  0  0  0  0  0  0  0  0  0
    3.7912    9.6624    2.4315 C   0  0  0  0  0  0  0  0  0  0  0  0
    4.7515    9.4887    2.8923 H   0  0  0  0  0  0  0  0  0  0  0  0
    3.5872   10.7588    1.6069 C   0  0  0  0  0  0  0  0  0  0  0  0
    4.3769   11.4634    1.4043 H   0  0  0  0  0  0  0  0  0  0  0  0
    2.3353   10.9347    1.0422 C   0  0  0  0  0  0  0  0  0  0  0  0
    2.1281   11.7729    0.3907 H   0  0  0  0  0  0  0  0  0  0  0  0
    1.0514    6.4581    4.0534 C   0  0  0  0  0  3  0  0  0  0  0  0
    1.7531    5.3009    3.7060 C   0  0  0  0  0  0  0  0  0  0  0  0
    1.8083    4.5627    2.4880 C   0  0  0  0  0  0  0  0  0  0  0  0
    1.0897    4.8323    1.2139 C   0  0  0  0  0  0  0  0  0  0  0  0
    0.0192    4.6505    1.3185 H   0  0  0  0  0  0  0  0  0  0  0  0
    1.4678    4.1710    0.4383 H   0  0  0  0  0  0  0  0  0  0  0  0
    1.2295    5.8622    0.8881 H   0  0  0  0  0  0  0  0  0  0  0  0
    2.6815    3.5177    2.7165 C   0  0  0  0  0  0  0  0  0  0  0  0
    2.9638    2.7570    2.0154 H   0  0  0  0  0  0  0  0  0  0  0  0
    3.1508    3.6186    4.0346 C   0  0  0  0  0  0  0  0  0  0  0  0
    4.1066    2.7398    4.7383 C   0  0  0  0  0  0  0  0  0  0  0  0
    4.9787    3.3167    5.0448 H   0  0  0  0  0  0  0  0  0  0  0  0
    4.4156    1.9180    4.0993 H   0  0  0  0  0  0  0  0  0  0  0  0
    3.6509    2.3516    5.6481 H   0  0  0  0  0  0  0  0  0  0  0  0
    1.1654    7.0145    5.3249 C   0  0  0  0  0  0  0  0  0  0  0  0
    0.5365    8.1523    5.9190 C   0  0  0  0  0  0  0  0  0  0  0  0
   -0.4543    9.0772    5.3154 C   0  0  0  0  0  0  0  0  0  0  0  0
   -0.0072    9.6790    4.5256 H   0  0  0  0  0  0  0  0  0  0  0  0
   -0.8326    9.7587    6.0719 H   0  0  0  0  0  0  0  0  0  0  0  0
   -1.2996    8.5408    4.8877 H   0  0  0  0  0  0  0  0  0  0  0  0
    1.0302    8.2264    7.2048 C   0  0  0  0  0  0  0  0  0  0  0  0
    0.7755    8.9608    7.9432 H   0  0  0  0  0  0  0  0  0  0  0  0
    1.9319    7.1667    7.3936 C   0  0  0  0  0  0  0  0  0  0  0  0
    2.7089    6.8293    8.6028 C   0  0  0  0  0  0  0  0  0  0  0  0
    2.4482    5.8266    8.9398 H   0  0  0  0  0  0  0  0  0  0  0  0
    2.5171    7.5462    9.3955 H   0  0  0  0  0  0  0  0  0  0  0  0
    3.7719    6.8141    8.3653 H   0  0  0  0  0  0  0  0  0  0  0  0
    2.8656    5.1882    6.0486 B   0  0  0  0  0  0  0  0  0  0  0  0
  2  3  1  0  0  0  0
  3  7  1  0  0  0  0
  3  6  1  0  0  0  0
  3  1  1  0  0  0  0
  6 11  1  0  0  0  0
  6 21  1  0  0  0  0
  7 22  1  0  0  0  0
  8 20  1  0  0  0  0
  8 18  1  0  0  0  0
  9 58  1  0  0  0  0
 10 53  1  0  0  0  0
 11 12  1  6  0  0  0
 11  8  1  0  0  0  0
 12 14  2  0  0  0  0
 13 12  1  0  0  0  0
 14 16  1  0  0  0  0
 15 14  1  0  0  0  0
 16 18  2  0  0  0  0
 16 17  1  0  0  0  0
 18 19  1  0  0  0  0
 20 31  1  0  0  0  0
 21 20  2  0  0  0  0
 22 21  1  6  0  0  0
 22 23  1  0  0  0  0
 23 24  1  0  0  0  0
 25 23  2  0  0  0  0
 25 26  1  0  0  0  0
 27 25  1  0  0  0  0
 28 27  1  0  0  0  0
 29  7  1  0  0  0  0
 29 27  2  0  0  0  0
 30 29  1  0  0  0  0
 31 45  1  0  0  0  0
 32 31  1  0  0  0  0
 32  9  1  0  0  0  0
 33 38  1  0  0  0  0
 33 32  2  0  0  0  0
 34 35  1  0  0  0  0
 34 33  1  0  0  0  0
 36 34  1  0  0  0  0
 37 34  1  0  0  0  0
 38 40  2  0  0  0  0
 39 38  1  0  0  0  0
 40  9  1  0  0  0  0
 40 41  1  0  0  0  0
 41 42  1  0  0  0  0
 41 44  1  0  0  0  0
 43 41  1  0  0  0  0
 45 46  2  0  0  0  0
 45 10  1  0  0  0  0
 46 51  1  0  0  0  0
 47 46  1  0  0  0  0
 47 49  1  0  0  0  0
 48 47  1  0  0  0  0
 50 47  1  0  0  0  0
 51 53  2  0  0  0  0
 51 52  1  0  0  0  0
 53 54  1  0  0  0  0
 54 55  1  0  0  0  0
 54 56  1  0  0  0  0
 57 54  1  0  0  0  0
 58  5  1  0  0  0  0
 58 10  1  0  0  0  0
 58  4  1  0  0  0  0
M  END
$$$$
