CSD_code = FIFPEQ | q = 0 | S = 0 | Stoichiometry = C17H44ClN5Si2Ti | MND = 5
 OpenBabel04212202033D

 70 70  0  0  0  0  0  0  0  0999 V2000
   -0.4737   11.1834    4.0869 Ti  0  0  0  0  0  0  0  0  0  0  0  0
   -0.1349   11.4446    6.2872 Cl  0  0  0  0  0  0  0  0  0  0  0  0
    0.0176   11.1940    2.1326 N   0  0  0  0  0  0  0  0  0  0  0  0
    1.5127   11.1409    3.7300 N   0  0  0  0  0  0  0  0  0  0  0  0
    1.2920   11.0714    2.4351 C   0  0  0  0  0  3  0  0  0  0  0  0
    2.3004   10.8377    1.4778 N   0  0  0  0  0  0  0  0  0  0  0  0
   -0.5011   11.1769    0.7877 C   0  0  0  0  0  0  0  0  0  0  0  0
    0.3250   11.3100    0.0699 H   0  0  0  0  0  0  0  0  0  0  0  0
   -1.5009   12.3293    0.6452 C   0  0  0  0  0  0  0  0  0  0  0  0
   -0.9942   13.2895    0.7135 H   0  0  0  0  0  0  0  0  0  0  0  0
   -2.2246   12.2656    1.4597 H   0  0  0  0  0  0  0  0  0  0  0  0
   -2.0183   12.2746   -0.3101 H   0  0  0  0  0  0  0  0  0  0  0  0
   -1.2075    9.8465    0.5000 C   0  0  0  0  0  0  0  0  0  0  0  0
   -0.5050    9.0202    0.5597 H   0  0  0  0  0  0  0  0  0  0  0  0
   -1.6509    9.8614   -0.4938 H   0  0  0  0  0  0  0  0  0  0  0  0
   -1.9910    9.6922    1.2395 H   0  0  0  0  0  0  0  0  0  0  0  0
    2.8295   11.1234    4.3249 C   0  0  0  0  0  0  0  0  0  0  0  0
    3.5837   10.9843    3.5350 H   0  0  0  0  0  0  0  0  0  0  0  0
    3.0691   12.4607    5.0375 C   0  0  0  0  0  0  0  0  0  0  0  0
    3.0412   13.2847    4.3256 H   0  0  0  0  0  0  0  0  0  0  0  0
    4.0366   12.4591    5.5345 H   0  0  0  0  0  0  0  0  0  0  0  0
    2.2863   12.6101    5.7822 H   0  0  0  0  0  0  0  0  0  0  0  0
    2.9394    9.9741    5.3323 C   0  0  0  0  0  0  0  0  0  0  0  0
    2.7807    9.0180    4.8364 H   0  0  0  0  0  0  0  0  0  0  0  0
    2.1891   10.1058    6.1119 H   0  0  0  0  0  0  0  0  0  0  0  0
    3.9264    9.9710    5.7902 H   0  0  0  0  0  0  0  0  0  0  0  0
    2.5946    9.1372    1.1498 Si  0  0  0  0  0  0  0  0  0  0  0  0
    1.4866    8.0574    2.2674 C   0  0  0  0  0  0  0  0  0  0  0  0
    0.6725    8.6380    2.7018 H   0  0  0  0  0  0  0  0  0  0  0  0
    2.0568    7.6239    3.0846 H   0  0  0  0  0  0  0  0  0  0  0  0
    1.0514    7.2303    1.7128 H   0  0  0  0  0  0  0  0  0  0  0  0
    2.2389    8.7409   -0.6854 C   0  0  0  0  0  0  0  0  0  0  0  0
    3.0380    9.1014   -1.3236 H   0  0  0  0  0  0  0  0  0  0  0  0
    1.3120    9.1761   -1.0442 H   0  0  0  0  0  0  0  0  0  0  0  0
    2.1756    7.6665   -0.8287 H   0  0  0  0  0  0  0  0  0  0  0  0
    4.4254    8.7186    1.4896 C   0  0  0  0  0  0  0  0  0  0  0  0
    5.0819    9.2358    0.7975 H   0  0  0  0  0  0  0  0  0  0  0  0
    4.5920    7.6544    1.3568 H   0  0  0  0  0  0  0  0  0  0  0  0
    4.7345    8.9753    2.4982 H   0  0  0  0  0  0  0  0  0  0  0  0
    3.1439   12.2331    0.8384 Si  0  0  0  0  0  0  0  0  0  0  0  0
    3.2779   12.0785   -1.0561 C   0  0  0  0  0  0  0  0  0  0  0  0
    4.0073   11.3266   -1.3360 H   0  0  0  0  0  0  0  0  0  0  0  0
    3.6072   13.0213   -1.4804 H   0  0  0  0  0  0  0  0  0  0  0  0
    2.3361   11.8174   -1.5266 H   0  0  0  0  0  0  0  0  0  0  0  0
    4.9121   12.4238    1.5401 C   0  0  0  0  0  0  0  0  0  0  0  0
    5.4631   11.4895    1.5160 H   0  0  0  0  0  0  0  0  0  0  0  0
    4.9164   12.7812    2.5655 H   0  0  0  0  0  0  0  0  0  0  0  0
    5.4674   13.1425    0.9446 H   0  0  0  0  0  0  0  0  0  0  0  0
    2.1539   13.7962    1.2858 C   0  0  0  0  0  0  0  0  0  0  0  0
    1.8703   13.7813    2.3351 H   0  0  0  0  0  0  0  0  0  0  0  0
    1.2438   13.8781    0.6998 H   0  0  0  0  0  0  0  0  0  0  0  0
    2.7383   14.6949    1.1127 H   0  0  0  0  0  0  0  0  0  0  0  0
   -1.6511   12.6170    4.0707 N   0  0  0  0  0  0  0  0  0  0  0  0
   -0.9453   13.8682    3.9411 C   0  0  0  0  0  0  0  0  0  0  0  0
   -1.6141   14.6637    3.5701 H   0  0  0  0  0  0  0  0  0  0  0  0
   -0.1193   13.7527    3.2295 H   0  0  0  0  0  0  0  0  0  0  0  0
   -0.5389   14.2055    4.9169 H   0  0  0  0  0  0  0  0  0  0  0  0
   -2.7646   12.7565    4.9776 C   0  0  0  0  0  0  0  0  0  0  0  0
   -3.2526   11.7908    5.1279 H   0  0  0  0  0  0  0  0  0  0  0  0
   -3.5066   13.4690    4.5799 H   0  0  0  0  0  0  0  0  0  0  0  0
   -2.4313   13.1327    5.9626 H   0  0  0  0  0  0  0  0  0  0  0  0
   -1.3830    9.5797    4.2234 N   0  0  0  0  0  0  0  0  0  0  0  0
   -2.7776    9.3663    3.9238 C   0  0  0  0  0  0  0  0  0  0  0  0
   -3.1540   10.1827    3.2998 H   0  0  0  0  0  0  0  0  0  0  0  0
   -3.3855    9.3107    4.8466 H   0  0  0  0  0  0  0  0  0  0  0  0
   -2.9216    8.4123    3.3859 H   0  0  0  0  0  0  0  0  0  0  0  0
   -0.8729    8.5301    5.0745 C   0  0  0  0  0  0  0  0  0  0  0  0
    0.1915    8.6938    5.2719 H   0  0  0  0  0  0  0  0  0  0  0  0
   -0.9983    7.5404    4.6021 H   0  0  0  0  0  0  0  0  0  0  0  0
   -1.4072    8.5096    6.0427 H   0  0  0  0  0  0  0  0  0  0  0  0
  1 62  1  0  0  0  0
  1  2  1  0  0  0  0
  3  5  1  0  0  0  0
  3  1  1  0  0  0  0
  4  1  1  0  0  0  0
  4 17  1  0  0  0  0
  5  4  1  0  0  0  0
  6  5  1  0  0  0  0
  7  3  1  0  0  0  0
  8  7  1  0  0  0  0
  9 10  1  0  0  0  0
  9  7  1  0  0  0  0
  9 11  1  0  0  0  0
 12  9  1  0  0  0  0
 13 14  1  0  0  0  0
 13  7  1  0  0  0  0
 13 16  1  0  0  0  0
 15 13  1  0  0  0  0
 17 19  1  0  0  0  0
 17 23  1  0  0  0  0
 18 17  1  0  0  0  0
 19 21  1  0  0  0  0
 19 22  1  0  0  0  0
 20 19  1  0  0  0  0
 23 26  1  0  0  0  0
 23 25  1  0  0  0  0
 24 23  1  0  0  0  0
 27  6  1  0  0  0  0
 27 36  1  0  0  0  0
 27 28  1  0  0  0  0
 28 29  1  0  0  0  0
 28 30  1  0  0  0  0
 31 28  1  0  0  0  0
 32 27  1  0  0  0  0
 33 32  1  0  0  0  0
 34 32  1  0  0  0  0
 35 32  1  0  0  0  0
 36 39  1  0  0  0  0
 37 36  1  0  0  0  0
 38 36  1  0  0  0  0
 40 49  1  0  0  0  0
 40  6  1  0  0  0  0
 40 45  1  0  0  0  0
 41 40  1  0  0  0  0
 42 41  1  0  0  0  0
 43 41  1  0  0  0  0
 44 41  1  0  0  0  0
 45 47  1  0  0  0  0
 46 45  1  0  0  0  0
 48 45  1  0  0  0  0
 49 50  1  0  0  0  0
 51 49  1  0  0  0  0
 52 49  1  0  0  0  0
 53  1  1  0  0  0  0
 53 58  1  0  0  0  0
 54 53  1  0  0  0  0
 54 57  1  0  0  0  0
 55 54  1  0  0  0  0
 56 54  1  0  0  0  0
 58 59  1  0  0  0  0
 58 61  1  0  0  0  0
 60 58  1  0  0  0  0
 62 67  1  0  0  0  0
 63 62  1  0  0  0  0
 63 65  1  0  0  0  0
 64 63  1  0  0  0  0
 66 63  1  0  0  0  0
 67 68  1  0  0  0  0
 67 70  1  0  0  0  0
 69 67  1  0  0  0  0
M  END
$$$$
