CSD_code = FIFPEP | q = 0 | S = 0 | Stoichiometry = C13H16ClNO2Zr | MND = 13
 OpenBabel04212202033D

 34 35  0  0  1  0  0  0  0  0999 V2000
    0.4114    1.2341    3.1495 Zr  0  0  0  0  0  0  0  0  0  0  0  0
    0.1809    2.7430    1.2778 Cl  0  0  0  0  0  0  0  0  0  0  0  0
    2.5356   -0.1324    3.0246 C   0  0  0  0  0  0  0  0  0  0  0  0
    2.3761    0.4890    1.7674 C   0  0  0  0  0  0  0  0  0  0  0  0
    1.2346   -0.0707    1.1490 C   0  0  0  0  0  0  0  0  0  0  0  0
    0.6742   -1.0141    2.0333 C   0  0  0  0  0  0  0  0  0  0  0  0
    1.4766   -1.0521    3.1974 C   0  0  0  0  0  3  0  0  0  0  0  0
   -1.4389    1.9586    4.7603 C   0  0  0  0  0  0  0  0  0  0  0  0
   -1.8605    2.2222    3.4406 C   0  0  0  0  0  3  0  0  0  0  0  0
   -2.0134    0.9828    2.7734 C   0  0  2  0  0  0  0  0  0  0  0  0
   -1.7053   -0.0450    3.6966 C   0  0  0  0  0  3  0  0  0  0  0  0
   -1.3585    0.5575    4.9205 C   0  0  0  0  0  0  0  0  0  0  0  0
    1.4513    2.8533    3.7569 O   0  0  0  0  0  0  0  0  0  0  0  0
    1.3007    1.1641    5.0877 O   0  0  0  0  0  0  0  0  0  0  0  0
    1.7701    2.3632    4.9251 N   0  0  0  0  0  0  0  0  0  0  0  0
    2.4641    2.9988    5.7986 C   0  0  0  0  0  3  0  0  0  0  0  0
    2.7661    2.3480    7.1021 C   0  0  0  0  0  0  0  0  0  0  0  0
    2.9477    4.3715    5.4909 C   0  0  0  0  0  0  0  0  0  0  0  0
    3.3772   -0.0037    3.6970 H   0  0  0  0  0  0  0  0  0  0  0  0
    3.0603    1.1949    1.3092 H   0  0  0  0  0  0  0  0  0  0  0  0
    0.9041    0.1318    0.1383 H   0  0  0  0  0  0  0  0  0  0  0  0
   -0.1206   -1.7077    1.7860 H   0  0  0  0  0  0  0  0  0  0  0  0
    1.3718   -1.7435    4.0246 H   0  0  0  0  0  0  0  0  0  0  0  0
   -1.3161    2.6963    5.5467 H   0  0  0  0  0  0  0  0  0  0  0  0
   -2.1068    3.1951    3.0317 H   0  0  0  0  0  0  0  0  0  0  0  0
   -2.4198    0.8522    1.7763 H   0  0  0  0  0  0  0  0  0  0  0  0
   -1.8746   -1.1043    3.5480 H   0  0  0  0  0  0  0  0  0  0  0  0
   -1.1416    0.0384    5.8446 H   0  0  0  0  0  0  0  0  0  0  0  0
    3.8430    2.2992    7.2600 H   0  0  0  0  0  0  0  0  0  0  0  0
    2.3529    1.3427    7.1201 H   0  0  0  0  0  0  0  0  0  0  0  0
    2.3380    2.9260    7.9208 H   0  0  0  0  0  0  0  0  0  0  0  0
    4.0354    4.4092    5.5462 H   0  0  0  0  0  0  0  0  0  0  0  0
    2.5548    5.0824    6.2175 H   0  0  0  0  0  0  0  0  0  0  0  0
    2.6292    4.6661    4.4937 H   0  0  0  0  0  0  0  0  0  0  0  0
  1 13  1  0  0  0  0
  1 14  1  0  0  0  0
  2  1  1  0  0  0  0
  3  7  1  0  0  0  0
  3 19  1  0  0  0  0
  4  3  2  0  0  0  0
  5  4  1  0  0  0  0
  5  6  2  0  0  0  0
  6  7  1  0  0  0  0
  7 23  1  0  0  0  0
  8 12  2  0  0  0  0
  8 24  1  0  0  0  0
  9  8  1  0  0  0  0
 10 26  1  6  0  0  0
 10  1  1  0  0  0  0
 10  9  1  0  0  0  0
 10 11  1  0  0  0  0
 11 12  1  0  0  0  0
 12 28  1  0  0  0  0
 13 15  1  0  0  0  0
 15 14  1  0  0  0  0
 15 16  1  0  0  0  0
 16 17  1  0  0  0  0
 17 30  1  0  0  0  0
 17 29  1  0  0  0  0
 17 31  1  0  0  0  0
 18 32  1  0  0  0  0
 18 16  1  0  0  0  0
 18 33  1  0  0  0  0
 20  4  1  0  0  0  0
 21  5  1  0  0  0  0
 22  6  1  0  0  0  0
 25  9  1  0  0  0  0
 27 11  1  0  0  0  0
 34 18  1  0  0  0  0
M  END
$$$$
