CSD_code = FIGNUE | q = 0 | S = 0 | Stoichiometry = C22H35ClP2Pt | MND = 4
 OpenBabel04212202033D

 61 63  0  0  0  0  0  0  0  0999 V2000
    6.3292    2.2248    3.5291 Pt  0  0  1  0  0  0  0  0  0  0  0  0
    4.2747    1.3843    4.3235 Cl  0  0  0  0  0  0  0  0  0  0  0  0
    5.2194    3.5379    2.0183 P   0  0  0  0  0  4  0  0  0  0  0  0
    7.6936    1.0642    4.9371 P   0  0  2  0  0  4  0  0  0  0  0  0
    5.6049    5.3804    2.1411 C   0  0  0  0  0  0  0  0  0  0  0  0
    5.6536    5.6011    3.6574 C   0  0  0  0  0  0  0  0  0  0  0  0
    4.5417    6.2833    1.5206 C   0  0  0  0  0  0  0  0  0  0  0  0
    6.9678    5.6778    1.5240 C   0  0  0  0  0  0  0  0  0  0  0  0
    5.1787    2.7833    0.2959 C   0  0  0  0  0  0  0  0  0  0  0  0
    4.3259    3.5731   -0.6903 C   0  0  0  0  0  0  0  0  0  0  0  0
    6.6012    2.6080   -0.2273 C   0  0  0  0  0  0  0  0  0  0  0  0
    4.5671    1.4010    0.5487 C   0  0  0  0  0  0  0  0  0  0  0  0
    3.5038    3.5787    2.4103 C   0  0  0  0  0  3  0  0  0  0  0  0
    2.1703    3.0898    2.0508 C   0  0  0  0  0  2  0  0  0  0  0  0
    2.4191    4.0318    3.0744 C   0  0  0  0  0  2  0  0  0  0  0  0
    7.4642   -0.6402    5.6862 C   0  0  0  0  0  0  0  0  0  0  0  0
    6.5158   -0.4100    6.8646 C   0  0  0  0  0  0  0  0  0  0  0  0
    6.7928   -1.5495    4.6609 C   0  0  0  0  0  0  0  0  0  0  0  0
    8.8069   -1.1909    6.1548 C   0  0  0  0  0  0  0  0  0  0  0  0
    8.2858    2.0530    6.2529 C   0  0  0  0  0  3  0  0  0  0  0  0
    8.6278    2.0916    7.6741 C   0  0  0  0  0  2  0  0  0  0  0  0
    8.7401    3.2050    6.7993 C   0  0  0  0  0  2  0  0  0  0  0  0
    9.0160    1.3382    3.6358 C   0  0  0  0  0  0  0  0  0  0  0  0
    8.8938    0.2568    2.5660 C   0  0  0  0  0  0  0  0  0  0  0  0
   10.4588    1.4982    4.0949 C   0  0  0  0  0  0  0  0  0  0  0  0
    8.3521    2.6367    3.1307 C   0  0  0  0  0  0  0  0  0  0  0  0
    6.3690    4.9150    4.1250 H   0  0  0  0  0  0  0  0  0  0  0  0
    5.9570    6.6212    3.8861 H   0  0  0  0  0  0  0  0  0  0  0  0
    4.6740    5.4304    4.1032 H   0  0  0  0  0  0  0  0  0  0  0  0
    4.7892    7.3223    1.7350 H   0  0  0  0  0  0  0  0  0  0  0  0
    4.4933    6.1669    0.4411 H   0  0  0  0  0  0  0  0  0  0  0  0
    3.5549    6.0845    1.9333 H   0  0  0  0  0  0  0  0  0  0  0  0
    6.9267    5.6220    0.4383 H   0  0  0  0  0  0  0  0  0  0  0  0
    7.2805    6.6854    1.7942 H   0  0  0  0  0  0  0  0  0  0  0  0
    7.7164    4.9789    1.8886 H   0  0  0  0  0  0  0  0  0  0  0  0
    4.8100    4.5053   -0.9741 H   0  0  0  0  0  0  0  0  0  0  0  0
    4.1807    2.9837   -1.5947 H   0  0  0  0  0  0  0  0  0  0  0  0
    3.3443    3.7928   -0.2730 H   0  0  0  0  0  0  0  0  0  0  0  0
    6.5821    2.0559   -1.1659 H   0  0  0  0  0  0  0  0  0  0  0  0
    7.0867    3.5637   -0.4074 H   0  0  0  0  0  0  0  0  0  0  0  0
    7.1928    2.0427    0.4915 H   0  0  0  0  0  0  0  0  0  0  0  0
    3.5165    1.4827    0.8261 H   0  0  0  0  0  0  0  0  0  0  0  0
    4.6406    0.7840   -0.3450 H   0  0  0  0  0  0  0  0  0  0  0  0
    5.0989    0.8942    1.3631 H   0  0  0  0  0  0  0  0  0  0  0  0
    5.6049    0.0850    6.5235 H   0  0  0  0  0  0  0  0  0  0  0  0
    6.2376   -1.3628    7.3117 H   0  0  0  0  0  0  0  0  0  0  0  0
    6.9839    0.2056    7.6328 H   0  0  0  0  0  0  0  0  0  0  0  0
    5.9173   -1.0535    4.2390 H   0  0  0  0  0  0  0  0  0  0  0  0
    7.4698   -1.8188    3.8537 H   0  0  0  0  0  0  0  0  0  0  0  0
    6.4603   -2.4673    5.1433 H   0  0  0  0  0  0  0  0  0  0  0  0
    8.6543   -2.1373    6.6714 H   0  0  0  0  0  0  0  0  0  0  0  0
    9.4768   -1.3675    5.3146 H   0  0  0  0  0  0  0  0  0  0  0  0
    9.2860   -0.4995    6.8474 H   0  0  0  0  0  0  0  0  0  0  0  0
    7.8428    0.1236    2.2899 H   0  0  0  0  0  0  0  0  0  0  0  0
    9.4485    0.5534    1.6758 H   0  0  0  0  0  0  0  0  0  0  0  0
    9.2967   -0.6945    2.9088 H   0  0  0  0  0  0  0  0  0  0  0  0
   10.8603    0.5602    4.4744 H   0  0  0  0  0  0  0  0  0  0  0  0
   11.0738    1.8177    3.2541 H   0  0  0  0  0  0  0  0  0  0  0  0
   10.5420    2.2484    4.8791 H   0  0  0  0  0  0  0  0  0  0  0  0
    8.6504    2.8434    2.0993 H   0  0  0  0  0  0  0  0  0  0  0  0
    8.6813    3.4785    3.7519 H   0  0  0  0  0  0  0  0  0  0  0  0
  1  2  1  6  0  0  0
  1  4  1  0  0  0  0
  3  5  1  0  0  0  0
  3 13  1  0  0  0  0
  3  1  1  0  0  0  0
  4 16  1  1  0  0  0
  4 20  1  0  0  0  0
  5  6  1  0  0  0  0
  6 28  1  0  0  0  0
  6 29  1  0  0  0  0
  6 27  1  0  0  0  0
  7 30  1  0  0  0  0
  7 32  1  0  0  0  0
  7  5  1  0  0  0  0
  8 34  1  0  0  0  0
  8 35  1  0  0  0  0
  8  5  1  0  0  0  0
  9 12  1  0  0  0  0
  9  3  1  0  0  0  0
 10 38  1  0  0  0  0
 10  9  1  0  0  0  0
 11  9  1  0  0  0  0
 11 41  1  0  0  0  0
 12 42  1  0  0  0  0
 12 44  1  0  0  0  0
 13 15  1  0  0  0  0
 14 13  1  0  0  0  0
 14 15  1  0  0  0  0
 16 19  1  0  0  0  0
 16 17  1  0  0  0  0
 17 46  1  0  0  0  0
 17 47  1  0  0  0  0
 18 50  1  0  0  0  0
 18 16  1  0  0  0  0
 19 51  1  0  0  0  0
 19 53  1  0  0  0  0
 20 22  1  0  0  0  0
 20 21  1  0  0  0  0
 22 21  1  0  0  0  0
 23 25  1  0  0  0  0
 23  4  1  0  0  0  0
 24 56  1  0  0  0  0
 24 23  1  0  0  0  0
 25 57  1  0  0  0  0
 25 59  1  0  0  0  0
 26  1  1  0  0  0  0
 26 23  1  0  0  0  0
 26 61  1  0  0  0  0
 31  7  1  0  0  0  0
 33  8  1  0  0  0  0
 36 10  1  0  0  0  0
 37 10  1  0  0  0  0
 39 11  1  0  0  0  0
 40 11  1  0  0  0  0
 43 12  1  0  0  0  0
 45 17  1  0  0  0  0
 48 18  1  0  0  0  0
 49 18  1  0  0  0  0
 52 19  1  0  0  0  0
 54 24  1  0  0  0  0
 55 24  1  0  0  0  0
 58 25  1  0  0  0  0
 60 26  1  0  0  0  0
M  END
$$$$
