CSD_code = FIGQUH | q = 0 | S = 0 | Stoichiometry = C32H26Cl2SiZr | MND = 12
 OpenBabel04212202033D

 62 68  0  0  1  0  0  0  0  0999 V2000
    0.2298    0.6449   15.5112 Zr  0  0  0  0  0  0  0  0  0  0  0  0
   -1.2999    2.4062   15.5116 Cl  0  0  0  0  0  0  0  0  0  0  0  0
   -1.5624   -0.8636   15.4840 Cl  0  0  0  0  0  0  0  0  0  0  0  0
    3.5317    0.7004   15.5378 Si  0  0  0  0  0  0  0  0  0  0  0  0
    2.2405    0.6748   14.1414 C   0  0  1  0  0  0  0  0  0  0  0  0
    1.4777   -0.4647   13.7123 C   0  0  0  0  0  0  0  0  0  0  0  0
    0.2840   -0.0303   13.0807 C   0  0  0  0  0  0  0  0  0  0  0  0
    0.2891    1.3904   13.0534 C   0  0  0  0  0  0  0  0  0  0  0  0
   -0.5871    2.3244   12.4715 C   0  0  0  0  0  0  0  0  0  0  0  0
   -0.3136    3.6613   12.6084 C   0  0  0  0  0  0  0  0  0  0  0  0
    0.8213    4.1013   13.3099 C   0  0  0  0  0  0  0  0  0  0  0  0
    1.7103    3.2179   13.8721 C   0  0  0  0  0  0  0  0  0  0  0  0
    1.4774    1.8337   13.7517 C   0  0  0  0  0  0  0  0  0  0  0  0
    1.8869   -1.8745   13.6909 C   0  0  0  0  0  0  0  0  0  0  0  0
    3.1803   -2.2348   13.3167 C   0  0  0  0  0  0  0  0  0  0  0  0
    3.5395   -3.5666   13.2255 C   0  0  0  0  0  0  0  0  0  0  0  0
    2.6074   -4.5587   13.4779 C   0  0  0  0  0  0  0  0  0  0  0  0
    1.3074   -4.2108   13.8058 C   0  0  0  0  0  0  0  0  0  0  0  0
    0.9453   -2.8813   13.9134 C   0  0  0  0  0  0  0  0  0  0  0  0
    2.2217    0.6718   16.9180 C   0  0  2  0  0  0  0  0  0  0  0  0
    1.4784   -0.4959   17.3018 C   0  0  0  0  0  0  0  0  0  0  0  0
    0.2637   -0.1110   17.9213 C   0  0  0  0  0  0  0  0  0  0  0  0
    0.2314    1.3079   17.9859 C   0  0  0  0  0  0  0  0  0  0  0  0
   -0.6832    2.1982   18.5770 C   0  0  0  0  0  0  0  0  0  0  0  0
   -0.4484    3.5460   18.4843 C   0  0  0  0  0  0  0  0  0  0  0  0
    0.6837    4.0373   17.8138 C   0  0  0  0  0  0  0  0  0  0  0  0
    1.6078    3.1965   17.2431 C   0  0  0  0  0  0  0  0  0  0  0  0
    1.4212    1.8019   17.3222 C   0  0  0  0  0  0  0  0  0  0  0  0
    1.9156   -1.8977   17.2833 C   0  0  0  0  0  0  0  0  0  0  0  0
    1.0099   -2.9061   16.9503 C   0  0  0  0  0  0  0  0  0  0  0  0
    1.3903   -4.2334   17.0155 C   0  0  0  0  0  0  0  0  0  0  0  0
    2.6722   -4.5758   17.4128 C   0  0  0  0  0  0  0  0  0  0  0  0
    3.5666   -3.5828   17.7747 C   0  0  0  0  0  0  0  0  0  0  0  0
    3.1891   -2.2539   17.7230 C   0  0  0  0  0  0  0  0  0  0  0  0
    4.6834    2.2291   15.4977 C   0  0  0  0  0  0  0  0  0  0  0  0
    4.7958   -0.7275   15.5428 C   0  0  0  0  0  0  0  0  0  0  0  0
   -0.4046   -0.6670   12.5376 H   0  0  0  0  0  0  0  0  0  0  0  0
    2.6065    3.5828   14.3509 H   0  0  0  0  0  0  0  0  0  0  0  0
    1.0003    5.1628   13.3946 H   0  0  0  0  0  0  0  0  0  0  0  0
   -0.9748    4.3942   12.1720 H   0  0  0  0  0  0  0  0  0  0  0  0
   -1.4574    1.9826   11.9275 H   0  0  0  0  0  0  0  0  0  0  0  0
    3.8888   -1.4607   13.0665 H   0  0  0  0  0  0  0  0  0  0  0  0
    4.5473   -3.8309   12.9409 H   0  0  0  0  0  0  0  0  0  0  0  0
    2.8881   -5.5983   13.4013 H   0  0  0  0  0  0  0  0  0  0  0  0
    0.5700   -4.9811   13.9744 H   0  0  0  0  0  0  0  0  0  0  0  0
   -0.0722   -2.6142   14.1702 H   0  0  0  0  0  0  0  0  0  0  0  0
   -0.4189   -0.7813   18.4306 H   0  0  0  0  0  0  0  0  0  0  0  0
   -1.5524    1.8140   19.0939 H   0  0  0  0  0  0  0  0  0  0  0  0
   -1.1385    4.2465   18.9289 H   0  0  0  0  0  0  0  0  0  0  0  0
    0.8318    5.1055   17.7578 H   0  0  0  0  0  0  0  0  0  0  0  0
    2.4936    3.6096   16.7845 H   0  0  0  0  0  0  0  0  0  0  0  0
    0.0053   -2.6408   16.6443 H   0  0  0  0  0  0  0  0  0  0  0  0
    0.6813   -5.0061   16.7598 H   0  0  0  0  0  0  0  0  0  0  0  0
    2.9672   -5.6133   17.4574 H   0  0  0  0  0  0  0  0  0  0  0  0
    4.5587   -3.8450   18.1119 H   0  0  0  0  0  0  0  0  0  0  0  0
    3.8665   -1.4809   18.0512 H   0  0  0  0  0  0  0  0  0  0  0  0
    5.4207   -0.6621   16.4271 H   0  0  0  0  0  0  0  0  0  0  0  0
    4.3482   -1.7130   15.5200 H   0  0  0  0  0  0  0  0  0  0  0  0
    5.4541   -0.6346   14.6853 H   0  0  0  0  0  0  0  0  0  0  0  0
    5.5594    2.0365   16.1085 H   0  0  0  0  0  0  0  0  0  0  0  0
    4.2405    3.1471   15.8610 H   0  0  0  0  0  0  0  0  0  0  0  0
    5.0288    2.4083   14.4841 H   0  0  0  0  0  0  0  0  0  0  0  0
  1  2  1  0  0  0  0
  1 20  1  0  0  0  0
  3  1  1  0  0  0  0
  4 36  1  0  0  0  0
  4 20  1  0  0  0  0
  5  6  1  6  0  0  0
  5  1  1  0  0  0  0
  5  4  1  0  0  0  0
  7  6  2  0  0  0  0
  8  7  1  0  0  0  0
  8 13  1  0  0  0  0
  9 10  1  0  0  0  0
  9  8  2  0  0  0  0
 10 11  2  0  0  0  0
 11 39  1  0  0  0  0
 11 12  1  0  0  0  0
 12 38  1  0  0  0  0
 13 12  2  0  0  0  0
 13  5  1  0  0  0  0
 14  6  1  0  0  0  0
 14 19  1  0  0  0  0
 15 14  2  0  0  0  0
 16 15  1  0  0  0  0
 16 17  2  0  0  0  0
 17 18  1  0  0  0  0
 18 19  2  0  0  0  0
 18 45  1  0  0  0  0
 19 46  1  0  0  0  0
 20 21  1  1  0  0  0
 20 28  1  0  0  0  0
 21 22  2  0  0  0  0
 22 23  1  0  0  0  0
 22 47  1  0  0  0  0
 23 24  1  0  0  0  0
 24 48  1  0  0  0  0
 25 24  2  0  0  0  0
 25 49  1  0  0  0  0
 26 25  1  0  0  0  0
 27 28  1  0  0  0  0
 27 26  2  0  0  0  0
 28 23  2  0  0  0  0
 29 21  1  0  0  0  0
 29 34  1  0  0  0  0
 30 31  1  0  0  0  0
 30 29  2  0  0  0  0
 31 32  2  0  0  0  0
 32 54  1  0  0  0  0
 32 33  1  0  0  0  0
 33 55  1  0  0  0  0
 34 33  2  0  0  0  0
 34 56  1  0  0  0  0
 35  4  1  0  0  0  0
 35 61  1  0  0  0  0
 35 60  1  0  0  0  0
 36 57  1  0  0  0  0
 37  7  1  0  0  0  0
 40 10  1  0  0  0  0
 41  9  1  0  0  0  0
 42 15  1  0  0  0  0
 43 16  1  0  0  0  0
 44 17  1  0  0  0  0
 50 26  1  0  0  0  0
 51 27  1  0  0  0  0
 52 30  1  0  0  0  0
 53 31  1  0  0  0  0
 58 36  1  0  0  0  0
 59 36  1  0  0  0  0
 62 35  1  0  0  0  0
M  END
$$$$
