CSD_code = FIHBIH | q = 0 | S = 0 | Stoichiometry = C2H3Cl4N3O2SW | MND = 6
 OpenBabel04212202033D

 16 16  0  0  0  0  0  0  0  0999 V2000
    0.8707   14.5532    5.6490 W   0  0  0  0  0  0  0  0  0  0  0  0
   -1.2160   13.6465    5.7803 Cl  0  0  0  0  0  0  0  0  0  0  0  0
    0.8763   14.1184    3.3385 Cl  0  0  0  0  0  0  0  0  0  0  0  0
    3.1792   14.7770    5.5964 Cl  0  0  0  0  0  0  0  0  0  0  0  0
    0.9622   14.5745    8.0046 Cl  0  0  0  0  0  0  0  0  0  0  0  0
    0.4246   16.2917    5.4656 N   0  0  0  0  0  0  0  0  0  0  0  0
   -1.2811   16.5386    5.3063 S   0  0  0  0  0  0  0  0  0  0  0  0
   -1.9642   16.3376    6.5345 O   0  0  0  0  0  0  0  0  0  0  0  0
   -1.7726   15.9696    4.1011 O   0  0  0  0  0  0  0  0  0  0  0  0
   -0.0650   17.5515    5.2510 N   0  0  0  0  0  2  0  0  0  0  0  0
    1.4401   12.5157    5.8228 N   0  0  0  0  0  2  0  0  0  0  0  0
    1.8245   11.4334    5.8867 C   0  0  0  0  0  2  0  0  0  0  0  0
    2.2934   10.0988    5.9670 C   0  0  0  0  0  0  0  0  0  0  0  0
    1.4578    9.4322    6.1833 H   0  0  0  0  0  0  0  0  0  0  0  0
    3.0350   10.0216    6.7629 H   0  0  0  0  0  0  0  0  0  0  0  0
    2.7483    9.8155    5.0170 H   0  0  0  0  0  0  0  0  0  0  0  0
  1  2  1  0  0  0  0
  1 11  1  0  0  0  0
  1  5  1  0  0  0  0
  3  1  1  0  0  0  0
  4  1  1  0  0  0  0
  6  1  1  0  0  0  0
  7  6  1  0  0  0  0
  7  8  2  0  0  0  0
  9  7  2  0  0  0  0
 10  7  1  0  0  0  0
 10  6  1  0  0  0  0
 11 12  1  0  0  0  0
 12 13  1  0  0  0  0
 13 14  1  0  0  0  0
 13 15  1  0  0  0  0
 16 13  1  0  0  0  0
M  END
$$$$
