CSD_code = FIHTUN | q = 0 | S = 0 | Stoichiometry = C19H33ClNiO3P2 | MND = 4
 OpenBabel04212202033D

 59 61  0  0  0  0  0  0  0  0999 V2000
    1.0042   17.2948    9.0741 C   0  0  0  0  0  0  0  0  0  0  0  0
    2.0698   17.8219    9.7957 C   0  0  0  0  0  0  0  0  0  0  0  0
    2.8092   17.0562   10.6850 C   0  0  0  0  0  0  0  0  0  0  0  0
    3.6260   17.5189   11.2135 H   0  0  0  0  0  0  0  0  0  0  0  0
    2.4686   15.7188   10.8624 C   0  0  0  0  0  0  0  0  0  0  0  0
    1.4018   15.1618   10.1529 C   0  0  0  0  0  0  0  0  0  0  0  0
    1.1509   14.1251   10.3033 H   0  0  0  0  0  0  0  0  0  0  0  0
    0.6888   15.9492    9.2717 C   0  0  0  0  0  0  0  0  0  0  0  0
    4.1999   15.3552   12.4541 C   0  0  0  0  0  0  0  0  0  0  0  0
    5.0106   15.7028   11.8057 H   0  0  0  0  0  0  0  0  0  0  0  0
    4.5507   14.5127   13.0480 H   0  0  0  0  0  0  0  0  0  0  0  0
    3.8954   16.1669   13.1225 H   0  0  0  0  0  0  0  0  0  0  0  0
   -1.2434   15.6304    6.0273 C   0  0  0  0  0  0  0  0  0  0  0  0
   -1.5314   14.6020    6.2750 H   0  0  0  0  0  0  0  0  0  0  0  0
    0.1457   15.6375    5.3943 C   0  0  0  0  0  0  0  0  0  0  0  0
    0.1556   15.0675    4.4670 H   0  0  0  0  0  0  0  0  0  0  0  0
    0.8801   15.2067    6.0749 H   0  0  0  0  0  0  0  0  0  0  0  0
    0.4386   16.6646    5.1716 H   0  0  0  0  0  0  0  0  0  0  0  0
   -2.2689   16.2878    5.1135 C   0  0  0  0  0  0  0  0  0  0  0  0
   -2.0587   17.3527    5.0247 H   0  0  0  0  0  0  0  0  0  0  0  0
   -3.2792   16.1668    5.4976 H   0  0  0  0  0  0  0  0  0  0  0  0
   -2.2262   15.8440    4.1203 H   0  0  0  0  0  0  0  0  0  0  0  0
   -2.7981   16.6333    8.3500 C   0  0  0  0  0  0  0  0  0  0  0  0
   -3.4070   17.2301    7.6638 H   0  0  0  0  0  0  0  0  0  0  0  0
   -3.4083   15.2534    8.5489 C   0  0  0  0  0  0  0  0  0  0  0  0
   -2.7370   14.6269    9.1329 H   0  0  0  0  0  0  0  0  0  0  0  0
   -3.5985   14.7637    7.5967 H   0  0  0  0  0  0  0  0  0  0  0  0
   -4.3531   15.3377    9.0838 H   0  0  0  0  0  0  0  0  0  0  0  0
   -2.6510   17.3939    9.6666 C   0  0  0  0  0  0  0  0  0  0  0  0
   -3.6219   17.6099   10.1087 H   0  0  0  0  0  0  0  0  0  0  0  0
   -2.1319   18.3427    9.4860 H   0  0  0  0  0  0  0  0  0  0  0  0
   -2.0653   16.8126   10.3786 H   0  0  0  0  0  0  0  0  0  0  0  0
    2.6348   20.3084    7.1508 C   0  0  0  0  0  0  0  0  0  0  0  0
    2.0982   20.9484    6.4436 H   0  0  0  0  0  0  0  0  0  0  0  0
    2.9995   19.0003    6.4514 C   0  0  0  0  0  0  0  0  0  0  0  0
    3.6068   19.1812    5.5665 H   0  0  0  0  0  0  0  0  0  0  0  0
    2.0839   18.4805    6.1451 H   0  0  0  0  0  0  0  0  0  0  0  0
    3.5535   18.3485    7.1269 H   0  0  0  0  0  0  0  0  0  0  0  0
    3.8584   21.0258    7.7025 C   0  0  0  0  0  0  0  0  0  0  0  0
    4.3176   20.4325    8.4908 H   0  0  0  0  0  0  0  0  0  0  0  0
    3.5963   21.9994    8.1099 H   0  0  0  0  0  0  0  0  0  0  0  0
    4.5918   21.1733    6.9112 H   0  0  0  0  0  0  0  0  0  0  0  0
    0.9709   21.4205    9.3428 C   0  0  0  0  0  0  0  0  0  0  0  0
    1.8727   21.7846    9.8489 H   0  0  0  0  0  0  0  0  0  0  0  0
   -0.0880   21.0521   10.3789 C   0  0  0  0  0  0  0  0  0  0  0  0
   -0.3749   21.9197   10.9703 H   0  0  0  0  0  0  0  0  0  0  0  0
    0.2848   20.2803   11.0523 H   0  0  0  0  0  0  0  0  0  0  0  0
   -0.9754   20.6709    9.8715 H   0  0  0  0  0  0  0  0  0  0  0  0
    0.4382   22.4484    8.3535 C   0  0  0  0  0  0  0  0  0  0  0  0
   -0.3408   22.0016    7.7375 H   0  0  0  0  0  0  0  0  0  0  0  0
    1.2256   22.8171    7.7001 H   0  0  0  0  0  0  0  0  0  0  0  0
    0.0120   23.2969    8.8864 H   0  0  0  0  0  0  0  0  0  0  0  0
   -1.0743   19.5439    6.5372 Cl  0  0  0  0  0  0  0  0  0  0  0  0
    0.0225   18.3565    7.8748 Ni  0  0  0  0  0  0  0  0  0  0  0  0
   -0.3679   15.4257    8.5485 O   0  0  0  0  0  0  0  0  0  0  0  0
    2.3807   19.1583    9.6045 O   0  0  0  0  0  0  0  0  0  0  0  0
    3.1135   14.8662   11.7060 O   0  0  0  0  0  0  0  0  0  0  0  0
   -1.0979   16.5611    7.6152 P   0  0  0  0  0  4  0  0  0  0  0  0
    1.4167   19.8543    8.4721 P   0  0  0  0  0  4  0  0  0  0  0  0
  1  8  2  0  0  0  0
  1  2  1  0  0  0  0
  2  3  2  0  0  0  0
  3  5  1  0  0  0  0
  3  4  1  0  0  0  0
  5 57  1  0  0  0  0
  6  7  1  0  0  0  0
  6  5  2  0  0  0  0
  8  6  1  0  0  0  0
  9 11  1  0  0  0  0
  9 12  1  0  0  0  0
 10  9  1  0  0  0  0
 13 14  1  0  0  0  0
 13 58  1  0  0  0  0
 15 13  1  0  0  0  0
 15 17  1  0  0  0  0
 16 15  1  0  0  0  0
 18 15  1  0  0  0  0
 19 21  1  0  0  0  0
 19 13  1  0  0  0  0
 20 19  1  0  0  0  0
 22 19  1  0  0  0  0
 23 25  1  0  0  0  0
 23 29  1  0  0  0  0
 24 23  1  0  0  0  0
 25 28  1  0  0  0  0
 25 26  1  0  0  0  0
 27 25  1  0  0  0  0
 29 30  1  0  0  0  0
 29 32  1  0  0  0  0
 31 29  1  0  0  0  0
 33 39  1  0  0  0  0
 33 59  1  0  0  0  0
 34 33  1  0  0  0  0
 35 38  1  0  0  0  0
 35 33  1  0  0  0  0
 36 35  1  0  0  0  0
 37 35  1  0  0  0  0
 39 41  1  0  0  0  0
 39 40  1  0  0  0  0
 42 39  1  0  0  0  0
 43 44  1  0  0  0  0
 43 45  1  0  0  0  0
 45 46  1  0  0  0  0
 45 47  1  0  0  0  0
 48 45  1  0  0  0  0
 49 52  1  0  0  0  0
 49 43  1  0  0  0  0
 50 49  1  0  0  0  0
 51 49  1  0  0  0  0
 53 54  1  0  0  0  0
 54 59  1  0  0  0  0
 54  1  1  0  0  0  0
 55  8  1  0  0  0  0
 56  2  1  0  0  0  0
 57  9  1  0  0  0  0
 58 54  1  0  0  0  0
 58 23  1  0  0  0  0
 58 55  1  0  0  0  0
 59 43  1  0  0  0  0
 59 56  1  0  0  0  0
M  END
$$$$
