CSD_code = FIHVUQ | q = -1 | S = 0 | Stoichiometry = C6H12Cl3N4Zn(1-) | MND = 4
 OpenBabel04212202033D

 26 28  0  0  1  0  0  0  0  0999 V2000
    4.9152    2.8381    3.3452 Zn  0  0  0  0  0  0  0  0  0  0  0  0
    3.5481    4.6568    3.1727 Cl  0  0  0  0  0  0  0  0  0  0  0  0
    4.9152    2.8374    5.5798 N   0  0  1  0  0  4  0  0  0  0  0  0
    5.7463    1.7445    6.0998 C   0  0  0  0  0  0  0  0  0  0  0  0
    5.3502    0.7943    5.7315 H   0  0  0  0  0  0  0  0  0  0  0  0
    6.7678    1.8722    5.7312 H   0  0  0  0  0  0  0  0  0  0  0  0
    4.3875    1.5794    8.0232 C   0  0  0  0  0  0  0  0  0  0  0  0
    4.3845    1.5726    9.1187 H   0  0  0  0  0  0  0  0  0  0  0  0
    3.9893    0.6296    7.6556 H   0  0  0  0  0  0  0  0  0  0  0  0
    5.7605    1.7261    7.5558 N   0  0  2  0  0  0  0  0  0  0  0  0
    5.4462    4.1037    6.0992 C   0  0  0  0  0  0  0  0  0  0  0  0
    6.4672    4.2356    5.7308 H   0  0  0  0  0  0  0  0  0  0  0  0
    4.8248    4.9243    5.7305 H   0  0  0  0  0  0  0  0  0  0  0  0
    6.2688    3.0101    8.0230 C   0  0  0  0  0  0  0  0  0  0  0  0
    6.2763    3.0113    9.1186 H   0  0  0  0  0  0  0  0  0  0  0  0
    7.2904    3.1400    7.6553 H   0  0  0  0  0  0  0  0  0  0  0  0
    5.4552    4.1256    7.5552 N   0  0  2  0  0  0  0  0  0  0  0  0
    3.5531    2.6642    6.0995 C   0  0  0  0  0  0  0  0  0  0  0  0
    2.9284    3.4824    5.7308 H   0  0  0  0  0  0  0  0  0  0  0  0
    3.1530    1.7157    5.7311 H   0  0  0  0  0  0  0  0  0  0  0  0
    4.0891    3.9240    8.0228 C   0  0  0  0  0  0  0  0  0  0  0  0
    4.0845    3.9302    9.1183 H   0  0  0  0  0  0  0  0  0  0  0  0
    3.4658    4.7436    7.6548 H   0  0  0  0  0  0  0  0  0  0  0  0
    3.5298    2.6615    7.5555 N   0  0  2  0  0  0  0  0  0  0  0  0
    4.0238    0.7451    3.1708 Cl  0  0  0  0  0  0  0  0  0  0  0  0
    7.1735    3.1130    3.1718 Cl  0  0  0  0  0  0  0  0  0  0  0  0
  2  1  1  0  0  0  0
  3  1  1  6  0  0  0
  3 11  1  0  0  0  0
  3 18  1  0  0  0  0
  3  4  1  0  0  0  0
  5  4  1  0  0  0  0
  6  4  1  0  0  0  0
  7  8  1  0  0  0  0
  9  7  1  0  0  0  0
 10  4  1  6  0  0  0
 10 14  1  0  0  0  0
 10  7  1  0  0  0  0
 12 11  1  0  0  0  0
 13 11  1  0  0  0  0
 14 15  1  0  0  0  0
 16 14  1  0  0  0  0
 17 11  1  6  0  0  0
 17 21  1  0  0  0  0
 17 14  1  0  0  0  0
 19 18  1  0  0  0  0
 20 18  1  0  0  0  0
 21 22  1  0  0  0  0
 23 21  1  0  0  0  0
 24 18  1  6  0  0  0
 24 21  1  0  0  0  0
 24  7  1  0  0  0  0
 25  1  1  0  0  0  0
 26  1  1  0  0  0  0
M  END
$$$$
