CSD_code = FIJDAD | q = 0 | S = 0 | Stoichiometry = C6H10Cl2N2S4Zn | MND = 4
 OpenBabel04212202033D

 25 26  0  0  1  0  0  0  0  0999 V2000
    2.2442    2.4283    0.0437 Zn  0  0  0  0  0  0  0  0  0  0  0  0
    1.6002    1.3557   -1.7509 Cl  0  0  0  0  0  0  0  0  0  0  0  0
    2.1278    4.7070    0.0471 Cl  0  0  0  0  0  0  0  0  0  0  0  0
    0.9067    1.2811    1.9589 S   0  0  0  0  0  0  0  0  0  0  0  0
    2.2527   -0.8782    0.2949 S   0  0  0  0  0  0  0  0  0  0  0  0
    4.5631    1.8984    1.1565 S   0  0  0  0  0  0  0  0  0  0  0  0
    6.4922    3.3131    2.9067 S   0  0  0  0  0  0  0  0  0  0  0  0
    1.1572   -1.2467    2.5716 N   0  0  0  0  0  0  0  0  0  0  0  0
    4.5891    4.5181    1.6942 N   0  0  0  0  0  0  0  0  0  0  0  0
    1.3996   -0.2811    1.6805 C   0  0  1  0  0  3  0  0  0  0  0  0
    2.5473   -2.4942    1.1296 C   0  0  0  0  0  0  0  0  0  0  0  0
    1.4597   -2.6063    2.1871 C   0  0  0  0  0  0  0  0  0  0  0  0
    5.0956    3.3171    1.8495 C   0  0  1  0  0  3  0  0  0  0  0  0
    6.5268    5.1448    2.9489 C   0  0  0  0  0  0  0  0  0  0  0  0
    5.1401    5.5885    2.4888 C   0  0  0  0  0  0  0  0  0  0  0  0
    3.5447   -2.4533    1.5654 H   0  0  0  0  0  0  0  0  0  0  0  0
    2.5023   -3.2815    0.3834 H   0  0  0  0  0  0  0  0  0  0  0  0
    1.8012   -3.1711    3.0569 H   0  0  0  0  0  0  0  0  0  0  0  0
    0.5629   -3.0905    1.7784 H   0  0  0  0  0  0  0  0  0  0  0  0
    0.5895   -1.0415    3.3800 H   0  0  0  0  0  0  0  0  0  0  0  0
    7.3122    5.4704    2.2672 H   0  0  0  0  0  0  0  0  0  0  0  0
    6.7637    5.4673    3.9588 H   0  0  0  0  0  0  0  0  0  0  0  0
    5.1904    6.4962    1.8846 H   0  0  0  0  0  0  0  0  0  0  0  0
    4.4809    5.7773    3.3453 H   0  0  0  0  0  0  0  0  0  0  0  0
    3.7268    4.6839    1.1235 H   0  0  0  0  0  0  0  0  0  0  0  0
  1  3  1  0  0  0  0
  1  6  1  0  0  0  0
  1  4  1  0  0  0  0
  2  1  1  0  0  0  0
  5 11  1  0  0  0  0
  5 10  1  0  0  0  0
  7 14  1  0  0  0  0
  8 20  1  0  0  0  0
  9 13  1  0  0  0  0
  9 15  1  0  0  0  0
 10  4  1  1  0  0  0
 10  8  1  0  0  0  0
 11 16  1  0  0  0  0
 11 12  1  0  0  0  0
 12  8  1  0  0  0  0
 12 18  1  0  0  0  0
 13  6  1  6  0  0  0
 13  7  1  0  0  0  0
 14 22  1  0  0  0  0
 15 14  1  0  0  0  0
 15 24  1  0  0  0  0
 17 11  1  0  0  0  0
 19 12  1  0  0  0  0
 21 14  1  0  0  0  0
 23 15  1  0  0  0  0
 25  9  1  0  0  0  0
M  END
$$$$
