CSD_code = FIJNER | q = 0 | S = 0 | Stoichiometry = C20H33IN2Pt | MND = 4
 OpenBabel04212202033D

 57 60  0  0  1  0  0  0  0  0999 V2000
    2.2872    2.5013    3.2259 I   0  0  0  0  0  0  0  0  0  0  0  0
    1.5537    2.4264    0.6886 Pt  0  0  2  0  0  0  0  0  0  0  0  0
    1.0650    2.0701   -1.1673 C   0  0  0  0  0  0  0  0  0  0  0  0
   -0.2290    1.6569   -1.4519 C   0  0  0  0  0  0  0  0  0  0  0  0
   -0.5630    1.3150   -2.7529 C   0  0  0  0  0  0  0  0  0  0  0  0
    0.4111    1.3612   -3.7402 C   0  0  0  0  0  0  0  0  0  0  0  0
    1.7158    1.7297   -3.4456 C   0  0  0  0  0  0  0  0  0  0  0  0
    2.0465    2.0885   -2.1478 C   0  0  0  0  0  0  0  0  0  0  0  0
    3.4024    2.5423   -1.6776 C   0  0  0  0  0  0  0  0  0  0  0  0
   -1.1291    1.5373   -0.2506 C   0  0  0  0  0  0  0  0  0  0  0  0
    4.0399    1.0646    0.1104 C   0  0  0  0  0  0  0  0  0  0  0  0
   -1.1130    1.8124    2.1347 C   0  0  0  0  0  0  0  0  0  0  0  0
    4.4139    3.4338    0.3450 C   0  0  0  0  0  0  0  0  0  0  0  0
    3.7663    4.8201    0.2655 C   0  0  0  0  0  0  0  0  0  0  0  0
    4.2242    5.7480    1.3888 C   0  0  0  0  0  0  0  0  0  0  0  0
    3.7603    7.1927    1.1842 C   0  0  0  0  0  0  0  0  0  0  0  0
    2.2457    7.3723    1.0561 C   0  0  0  0  0  0  0  0  0  0  0  0
    1.4899    7.0512    2.3432 C   0  0  0  0  0  0  0  0  0  0  0  0
   -0.0284    7.1845    2.1991 C   0  0  0  0  0  0  0  0  0  0  0  0
   -0.6761    6.1946    1.2252 C   0  0  0  0  0  0  0  0  0  0  0  0
   -0.3932    4.7457    1.6072 C   0  0  0  0  0  0  0  0  0  0  0  0
   -1.0971    3.7462    0.6922 C   0  0  0  0  0  0  0  0  0  0  0  0
    3.5204    2.3991   -0.1979 N   0  0  2  0  0  4  0  0  0  0  0  0
   -0.6129    2.3634    0.8747 N   0  0  1  0  0  4  0  0  0  0  0  0
   -1.5685    1.0006   -2.9970 H   0  0  0  0  0  0  0  0  0  0  0  0
    0.1522    1.0906   -4.7534 H   0  0  0  0  0  0  0  0  0  0  0  0
    2.4664    1.7349   -4.2242 H   0  0  0  0  0  0  0  0  0  0  0  0
    4.2154    1.9905   -2.1673 H   0  0  0  0  0  0  0  0  0  0  0  0
    3.5190    3.5985   -1.9346 H   0  0  0  0  0  0  0  0  0  0  0  0
   -2.1691    1.8154   -0.4713 H   0  0  0  0  0  0  0  0  0  0  0  0
   -1.1290    0.4890    0.0699 H   0  0  0  0  0  0  0  0  0  0  0  0
    3.3859    0.3091   -0.3292 H   0  0  0  0  0  0  0  0  0  0  0  0
    5.0516    0.9337   -0.2930 H   0  0  0  0  0  0  0  0  0  0  0  0
    4.0777    0.9161    1.1904 H   0  0  0  0  0  0  0  0  0  0  0  0
   -2.2076    1.7481    2.1260 H   0  0  0  0  0  0  0  0  0  0  0  0
   -0.6999    0.8148    2.2892 H   0  0  0  0  0  0  0  0  0  0  0  0
   -0.8063    2.4365    2.9709 H   0  0  0  0  0  0  0  0  0  0  0  0
    4.6065    3.1943    1.3936 H   0  0  0  0  0  0  0  0  0  0  0  0
    5.3747    3.4182   -0.1868 H   0  0  0  0  0  0  0  0  0  0  0  0
    3.9794    5.2958   -0.6947 H   0  0  0  0  0  0  0  0  0  0  0  0
    2.6772    4.6717    0.3352 H   0  0  0  0  0  0  0  0  0  0  0  0
    3.8606    5.3686    2.3437 H   0  0  0  0  0  0  0  0  0  0  0  0
    5.3164    5.7437    1.4307 H   0  0  0  0  0  0  0  0  0  0  0  0
    4.1187    7.7925    2.0235 H   0  0  0  0  0  0  0  0  0  0  0  0
    4.2306    7.5832    0.2772 H   0  0  0  0  0  0  0  0  0  0  0  0
    2.0450    8.4120    0.7837 H   0  0  0  0  0  0  0  0  0  0  0  0
    1.8782    6.7506    0.2400 H   0  0  0  0  0  0  0  0  0  0  0  0
    1.7369    6.0478    2.6850 H   0  0  0  0  0  0  0  0  0  0  0  0
    1.8199    7.7420    3.1226 H   0  0  0  0  0  0  0  0  0  0  0  0
   -0.4783    7.0441    3.1849 H   0  0  0  0  0  0  0  0  0  0  0  0
   -0.2667    8.1990    1.8702 H   0  0  0  0  0  0  0  0  0  0  0  0
   -1.7562    6.3657    1.2282 H   0  0  0  0  0  0  0  0  0  0  0  0
   -0.3217    6.3822    0.2099 H   0  0  0  0  0  0  0  0  0  0  0  0
    0.6849    4.5629    1.5216 H   0  0  0  0  0  0  0  0  0  0  0  0
   -0.6871    4.5922    2.6467 H   0  0  0  0  0  0  0  0  0  0  0  0
   -2.1836    3.7760    0.8603 H   0  0  0  0  0  0  0  0  0  0  0  0
   -0.9039    4.0275   -0.3483 H   0  0  0  0  0  0  0  0  0  0  0  0
  2 24  1  0  0  0  0
  2  1  1  1  0  0  0
  3  2  1  0  0  0  0
  4  3  1  0  0  0  0
  4 10  1  0  0  0  0
  5  4  2  0  0  0  0
  6  7  2  0  0  0  0
  6  5  1  0  0  0  0
  7  8  1  0  0  0  0
  8  9  1  0  0  0  0
  8  3  2  0  0  0  0
  9 23  1  0  0  0  0
 10 31  1  0  0  0  0
 10 24  1  0  0  0  0
 11 34  1  0  0  0  0
 12 36  1  0  0  0  0
 12 37  1  0  0  0  0
 13 38  1  0  0  0  0
 14 41  1  0  0  0  0
 14 13  1  0  0  0  0
 14 15  1  0  0  0  0
 15 43  1  0  0  0  0
 15 42  1  0  0  0  0
 16 15  1  0  0  0  0
 16 44  1  0  0  0  0
 17 16  1  0  0  0  0
 17 18  1  0  0  0  0
 18 48  1  0  0  0  0
 18 49  1  0  0  0  0
 19 18  1  0  0  0  0
 19 50  1  0  0  0  0
 20 52  1  0  0  0  0
 20 21  1  0  0  0  0
 20 19  1  0  0  0  0
 21 55  1  0  0  0  0
 22 56  1  0  0  0  0
 22 24  1  0  0  0  0
 22 21  1  0  0  0  0
 23 11  1  1  0  0  0
 23 13  1  0  0  0  0
 23  2  1  0  0  0  0
 24 12  1  1  0  0  0
 25  5  1  0  0  0  0
 26  6  1  0  0  0  0
 27  7  1  0  0  0  0
 28  9  1  0  0  0  0
 29  9  1  0  0  0  0
 30 10  1  0  0  0  0
 32 11  1  0  0  0  0
 33 11  1  0  0  0  0
 35 12  1  0  0  0  0
 39 13  1  0  0  0  0
 40 14  1  0  0  0  0
 45 16  1  0  0  0  0
 46 17  1  0  0  0  0
 47 17  1  0  0  0  0
 51 19  1  0  0  0  0
 53 20  1  0  0  0  0
 54 21  1  0  0  0  0
 57 22  1  0  0  0  0
M  END
$$$$
