CSD_code = FIJQIZ | q = 0 | S = 0 | Stoichiometry = C7H7BrHgO | MND = 2
 OpenBabel04212202033D

 17 17  0  0  0  0  0  0  0  0999 V2000
    0.1213    1.7563    1.1833 Hg  0  0  0  0  0  0  0  0  0  0  0  0
    0.1783    2.2234   -1.3228 Br  0  0  0  0  0  0  0  0  0  0  0  0
    0.0397    0.5639    7.4622 O   0  0  0  0  0  0  0  0  0  0  0  0
    0.0631    1.3206    3.3700 C   0  0  0  0  0  0  0  0  0  0  0  0
    0.9248    1.9716    4.2559 C   0  0  0  0  0  0  0  0  0  0  0  0
    1.6373    2.7047    3.8975 H   0  0  0  0  0  0  0  0  0  0  0  0
    0.8893    1.6963    5.6072 C   0  0  0  0  0  0  0  0  0  0  0  0
    1.5552    2.1988    6.2909 H   0  0  0  0  0  0  0  0  0  0  0  0
   -0.0090    0.7598    6.1227 C   0  0  0  0  0  0  0  0  0  0  0  0
   -0.8712    0.1081    5.2474 C   0  0  0  0  0  0  0  0  0  0  0  0
   -1.5811   -0.6216    5.6035 H   0  0  0  0  0  0  0  0  0  0  0  0
   -0.8304    0.3895    3.8901 C   0  0  0  0  0  0  0  0  0  0  0  0
   -1.5184   -0.1398    3.2412 H   0  0  0  0  0  0  0  0  0  0  0  0
   -0.8363   -0.3742    8.0435 C   0  0  0  0  0  0  0  0  0  0  0  0
   -1.8832   -0.0946    7.8901 H   0  0  0  0  0  0  0  0  0  0  0  0
   -0.6135   -0.3624    9.1090 H   0  0  0  0  0  0  0  0  0  0  0  0
   -0.6648   -1.3807    7.6494 H   0  0  0  0  0  0  0  0  0  0  0  0
  1  4  1  0  0  0  0
  2  1  1  0  0  0  0
  3 14  1  0  0  0  0
  4 12  2  0  0  0  0
  4  5  1  0  0  0  0
  5  7  2  0  0  0  0
  6  5  1  0  0  0  0
  7  9  1  0  0  0  0
  7  8  1  0  0  0  0
  9  3  1  0  0  0  0
 10 11  1  0  0  0  0
 10  9  2  0  0  0  0
 12 10  1  0  0  0  0
 13 12  1  0  0  0  0
 14 16  1  0  0  0  0
 15 14  1  0  0  0  0
 17 14  1  0  0  0  0
M  END
$$$$
