CSD_code = FIKNOE | q = 0 | S = 0 | Stoichiometry = C20H24ClMnN2O3 | MND = 6
 OpenBabel04212202033D

 51 55  0  0  1  0  0  0  0  0999 V2000
    9.5764    3.4689    7.6295 Mn  0  0  0  0  0  0  0  0  0  0  0  0
    7.9412    2.2600    6.8499 Cl  0  0  0  0  0  0  0  0  0  0  0  0
   12.1554    2.7251    6.6850 C   0  0  0  0  0  0  0  0  0  0  0  0
   12.8768    1.8727    5.8129 C   0  0  0  0  0  0  0  0  0  0  0  0
   12.3086    1.3296    5.0724 H   0  0  0  0  0  0  0  0  0  0  0  0
   14.2301    1.7148    5.9350 C   0  0  0  0  0  0  0  0  0  0  0  0
   14.7554    1.0392    5.2759 H   0  0  0  0  0  0  0  0  0  0  0  0
   14.9432    2.4236    6.9098 C   0  0  0  0  0  0  0  0  0  0  0  0
   16.0114    2.2915    6.9932 H   0  0  0  0  0  0  0  0  0  0  0  0
   14.2862    3.2787    7.7542 C   0  0  0  0  0  0  0  0  0  0  0  0
   14.8458    3.8218    8.5000 H   0  0  0  0  0  0  0  0  0  0  0  0
   12.8901    3.4534    7.6819 C   0  0  0  0  0  0  0  0  0  0  0  0
   12.1781    4.3600    8.5281 C   0  0  1  0  0  3  0  0  0  0  0  0
    9.4233    2.1891   10.1672 C   0  0  0  0  0  0  0  0  0  0  0  0
    9.7870    1.0706   10.9692 C   0  0  0  0  0  0  0  0  0  0  0  0
   10.3716    0.3033   10.4843 H   0  0  0  0  0  0  0  0  0  0  0  0
    9.4136    0.9670   12.2760 C   0  0  0  0  0  0  0  0  0  0  0  0
    9.7069    0.1077   12.8611 H   0  0  0  0  0  0  0  0  0  0  0  0
    8.6312    1.9734   12.8546 C   0  0  0  0  0  0  0  0  0  0  0  0
    8.3046    1.8791   13.8793 H   0  0  0  0  0  0  0  0  0  0  0  0
    8.2698    3.0692   12.1190 C   0  0  0  0  0  0  0  0  0  0  0  0
    7.6357    3.8006   12.5939 H   0  0  0  0  0  0  0  0  0  0  0  0
    8.6576    3.2478   10.7716 C   0  0  0  0  0  0  0  0  0  0  0  0
    8.2429    4.4105   10.0352 C   0  0  1  0  0  3  0  0  0  0  0  0
    8.3780    4.4952    8.7323 N   0  0  1  0  0  0  0  0  0  0  0  0
    7.8101    5.6529    8.0539 C   0  0  0  0  0  0  0  0  0  0  0  0
    6.7715    5.8086    8.3685 H   0  0  0  0  0  0  0  0  0  0  0  0
    8.3876    6.5523    8.3097 H   0  0  0  0  0  0  0  0  0  0  0  0
    7.8212    5.4408    6.5408 C   0  0  0  0  0  0  0  0  0  0  0  0
    7.5136    6.3675    6.0327 H   0  0  0  0  0  0  0  0  0  0  0  0
    7.1128    4.6436    6.3028 H   0  0  0  0  0  0  0  0  0  0  0  0
    9.0232    4.4657    4.7180 C   0  0  0  0  0  0  0  0  0  0  0  0
    8.3553    3.6058    4.7317 H   0  0  0  0  0  0  0  0  0  0  0  0
   10.0016    4.1366    4.3717 H   0  0  0  0  0  0  0  0  0  0  0  0
    8.6342    5.2279    4.0316 H   0  0  0  0  0  0  0  0  0  0  0  0
   10.0806    6.1266    6.0453 C   0  0  0  0  0  0  0  0  0  0  0  0
   11.0509    5.7812    5.6873 H   0  0  0  0  0  0  0  0  0  0  0  0
   10.2145    6.5429    7.0424 H   0  0  0  0  0  0  0  0  0  0  0  0
    9.7186    6.9172    5.3732 H   0  0  0  0  0  0  0  0  0  0  0  0
   12.9273    5.2160    9.5246 C   0  0  0  0  0  0  0  0  0  0  0  0
   12.2173    5.8573   10.0419 H   0  0  0  0  0  0  0  0  0  0  0  0
   13.6732    5.8317    9.0256 H   0  0  0  0  0  0  0  0  0  0  0  0
   13.4281    4.5850   10.2559 H   0  0  0  0  0  0  0  0  0  0  0  0
    7.6107    5.5477   10.8021 C   0  0  0  0  0  0  0  0  0  0  0  0
    7.8551    6.5051   10.3494 H   0  0  0  0  0  0  0  0  0  0  0  0
    7.9683    5.5714   11.8255 H   0  0  0  0  0  0  0  0  0  0  0  0
    6.5257    5.4412   10.8121 H   0  0  0  0  0  0  0  0  0  0  0  0
   10.8873    2.8648    6.5259 O   0  0  0  0  0  0  0  0  0  0  0  0
   10.9317    4.5228    8.4653 O   0  0  0  0  0  0  0  0  0  0  0  0
    9.7951    2.1704    8.9445 O   0  0  0  0  0  0  0  0  0  0  0  0
    9.1436    5.0030    6.0759 N   0  0  0  0  0  4  0  0  0  0  0  0
  1 49  1  0  0  0  0
  1 25  1  0  0  0  0
  1 50  1  0  0  0  0
  2  1  1  0  0  0  0
  3 12  1  0  0  0  0
  4  6  1  0  0  0  0
  4  3  2  0  0  0  0
  5  4  1  0  0  0  0
  6  8  2  0  0  0  0
  7  6  1  0  0  0  0
  8  9  1  0  0  0  0
  8 10  1  0  0  0  0
 10 11  1  0  0  0  0
 12 10  2  0  0  0  0
 12 13  1  0  0  0  0
 13 40  1  6  0  0  0
 14 23  2  0  0  0  0
 14 15  1  0  0  0  0
 15 17  2  0  0  0  0
 16 15  1  0  0  0  0
 17 19  1  0  0  0  0
 17 18  1  0  0  0  0
 19 20  1  0  0  0  0
 21 22  1  0  0  0  0
 21 19  2  0  0  0  0
 23 21  1  0  0  0  0
 24 23  1  0  0  0  0
 24 44  1  6  0  0  0
 25 26  1  1  0  0  0
 25 24  1  0  0  0  0
 26 28  1  0  0  0  0
 26 27  1  0  0  0  0
 29 26  1  0  0  0  0
 30 29  1  0  0  0  0
 31 29  1  0  0  0  0
 32 33  1  0  0  0  0
 32 51  1  0  0  0  0
 34 32  1  0  0  0  0
 35 32  1  0  0  0  0
 36 51  1  0  0  0  0
 36 38  1  0  0  0  0
 37 36  1  0  0  0  0
 39 36  1  0  0  0  0
 40 41  1  0  0  0  0
 40 43  1  0  0  0  0
 42 40  1  0  0  0  0
 44 47  1  0  0  0  0
 44 46  1  0  0  0  0
 45 44  1  0  0  0  0
 48  3  1  0  0  0  0
 48  1  1  0  0  0  0
 49 13  1  0  0  0  0
 50 14  1  0  0  0  0
 51 29  1  0  0  0  0
 51  1  1  0  0  0  0
M  END
$$$$
