CSD_code = FIKQAR | q = 1 | S = 0 | Stoichiometry = C29H24AuClN2P(1+) | MND = 4
 OpenBabel04212202033D

 58 63  0  0  1  0  0  0  0  0999 V2000
    4.0161    3.7784    0.5073 Au  0  0  1  0  0  0  0  0  0  0  0  0
    5.0387    1.8294   -0.2258 Cl  0  0  0  0  0  0  0  0  0  0  0  0
    6.1188    4.0616    1.3621 P   0  0  0  0  0  4  0  0  0  0  0  0
    2.2126    3.4683   -0.4845 N   0  0  0  0  0  0  0  0  0  0  0  0
    1.8106    5.7751   -0.6367 N   0  0  0  0  0  0  0  0  0  0  0  0
    3.2200    5.4133    1.3320 C   0  0  0  0  0  0  0  0  0  0  0  0
    3.5701    5.8219    2.6083 C   0  0  0  0  0  0  0  0  0  0  0  0
    3.1113    7.0202    3.1275 C   0  0  0  0  0  0  0  0  0  0  0  0
    2.2969    7.8312    2.3554 C   0  0  0  0  0  0  0  0  0  0  0  0
    1.8946    7.4108    1.1050 C   0  0  0  0  0  0  0  0  0  0  0  0
    2.3287    6.1840    0.5977 C   0  0  2  0  0  3  0  0  0  0  0  0
    1.5579    4.5020   -1.0365 C   0  0  2  0  0  3  0  0  0  0  0  0
    0.5953    4.2816   -2.0401 C   0  0  0  0  0  0  0  0  0  0  0  0
    0.2823    2.9993   -2.4125 C   0  0  0  0  0  0  0  0  0  0  0  0
    0.9235    1.9342   -1.7756 C   0  0  0  0  0  0  0  0  0  0  0  0
    1.8832    2.2147   -0.8382 C   0  0  0  0  0  0  0  0  0  0  0  0
    6.4128    5.7926    1.8214 C   0  0  0  0  0  0  0  0  0  0  0  0
    7.0243    6.1533    3.0155 C   0  0  0  0  0  0  0  0  0  0  0  0
    7.2314    7.4924    3.2990 C   0  0  0  0  0  0  0  0  0  0  0  0
    6.8307    8.4673    2.4010 C   0  0  0  0  0  0  0  0  0  0  0  0
    6.2144    8.1085    1.2117 C   0  0  0  0  0  0  0  0  0  0  0  0
    6.0004    6.7752    0.9228 C   0  0  0  0  0  0  0  0  0  0  0  0
    7.5060    3.6664    0.2731 C   0  0  0  0  0  0  0  0  0  0  0  0
    8.0394    2.3770    0.2807 C   0  0  0  0  0  0  0  0  0  0  0  0
    9.0870    2.0669   -0.5640 C   0  0  0  0  0  0  0  0  0  0  0  0
    9.6015    3.0276   -1.4215 C   0  0  0  0  0  0  0  0  0  0  0  0
    9.0710    4.3074   -1.4297 C   0  0  0  0  0  0  0  0  0  0  0  0
    8.0238    4.6329   -0.5865 C   0  0  0  0  0  0  0  0  0  0  0  0
    6.3118    3.0482    2.8338 C   0  0  0  0  0  0  0  0  0  0  0  0
    5.2046    2.4441    3.4200 C   0  0  0  0  0  0  0  0  0  0  0  0
    5.3660    1.6744    4.5582 C   0  0  0  0  0  0  0  0  0  0  0  0
    6.6262    1.5095    5.1107 C   0  0  0  0  0  0  0  0  0  0  0  0
    7.7312    2.1105    4.5261 C   0  0  0  0  0  0  0  0  0  0  0  0
    7.5822    2.8793    3.3871 C   0  0  0  0  0  0  0  0  0  0  0  0
    1.2514    6.4802   -1.1009 H   0  0  0  0  0  0  0  0  0  0  0  0
    4.2173    5.1996    3.2120 H   0  0  0  0  0  0  0  0  0  0  0  0
    3.4013    7.3192    4.1218 H   0  0  0  0  0  0  0  0  0  0  0  0
    1.9569    8.7815    2.7356 H   0  0  0  0  0  0  0  0  0  0  0  0
    1.2267    8.0205    0.5137 H   0  0  0  0  0  0  0  0  0  0  0  0
    0.1096    5.1306   -2.4953 H   0  0  0  0  0  0  0  0  0  0  0  0
   -0.4556    2.8169   -3.1778 H   0  0  0  0  0  0  0  0  0  0  0  0
    0.6904    0.9124   -2.0211 H   0  0  0  0  0  0  0  0  0  0  0  0
    2.4381    1.4292   -0.3500 H   0  0  0  0  0  0  0  0  0  0  0  0
    7.3279    5.3961    3.7241 H   0  0  0  0  0  0  0  0  0  0  0  0
    7.7051    7.7733    4.2271 H   0  0  0  0  0  0  0  0  0  0  0  0
    6.9931    9.5092    2.6292 H   0  0  0  0  0  0  0  0  0  0  0  0
    5.8966    8.8686    0.5145 H   0  0  0  0  0  0  0  0  0  0  0  0
    5.4952    6.4850    0.0086 H   0  0  0  0  0  0  0  0  0  0  0  0
    7.6267    1.6229    0.9351 H   0  0  0  0  0  0  0  0  0  0  0  0
    9.4989    1.0695   -0.5575 H   0  0  0  0  0  0  0  0  0  0  0  0
   10.4162    2.7781   -2.0837 H   0  0  0  0  0  0  0  0  0  0  0  0
    9.4719    5.0567   -2.0952 H   0  0  0  0  0  0  0  0  0  0  0  0
    7.6197    5.6351   -0.5927 H   0  0  0  0  0  0  0  0  0  0  0  0
    4.2253    2.5668    2.9720 H   0  0  0  0  0  0  0  0  0  0  0  0
    4.5094    1.1987    5.0103 H   0  0  0  0  0  0  0  0  0  0  0  0
    6.7499    0.9046    5.9955 H   0  0  0  0  0  0  0  0  0  0  0  0
    8.7123    1.9740    4.9549 H   0  0  0  0  0  0  0  0  0  0  0  0
    8.4424    3.3363    2.9151 H   0  0  0  0  0  0  0  0  0  0  0  0
  1  2  1  1  0  0  0
  1  6  2  0  0  0  0
  1  3  1  0  0  0  0
  3 17  1  0  0  0  0
  3 29  1  0  0  0  0
  4  1  1  0  0  0  0
  5 11  1  0  0  0  0
  6  7  1  0  0  0  0
  7  8  2  0  0  0  0
  7 36  1  0  0  0  0
  8 37  1  0  0  0  0
  9 38  1  0  0  0  0
  9  8  1  0  0  0  0
 10  9  2  0  0  0  0
 11 10  1  1  0  0  0
 11  6  1  0  0  0  0
 12 13  1  1  0  0  0
 12  5  1  0  0  0  0
 12  4  1  0  0  0  0
 14 13  2  0  0  0  0
 14 15  1  0  0  0  0
 15 16  2  0  0  0  0
 16  4  1  0  0  0  0
 16 43  1  0  0  0  0
 17 18  1  0  0  0  0
 18 19  2  0  0  0  0
 18 44  1  0  0  0  0
 19 45  1  0  0  0  0
 20 46  1  0  0  0  0
 20 19  1  0  0  0  0
 21 20  2  0  0  0  0
 22 21  1  0  0  0  0
 22 17  2  0  0  0  0
 23 24  1  0  0  0  0
 23  3  1  0  0  0  0
 24 49  1  0  0  0  0
 25 50  1  0  0  0  0
 25 24  2  0  0  0  0
 26 25  1  0  0  0  0
 27 26  2  0  0  0  0
 27 28  1  0  0  0  0
 28 23  2  0  0  0  0
 29 34  2  0  0  0  0
 29 30  1  0  0  0  0
 30 31  2  0  0  0  0
 31 55  1  0  0  0  0
 31 32  1  0  0  0  0
 32 56  1  0  0  0  0
 33 57  1  0  0  0  0
 33 32  2  0  0  0  0
 34 33  1  0  0  0  0
 35  5  1  0  0  0  0
 39 10  1  0  0  0  0
 40 13  1  0  0  0  0
 41 14  1  0  0  0  0
 42 15  1  0  0  0  0
 47 21  1  0  0  0  0
 48 22  1  0  0  0  0
 51 26  1  0  0  0  0
 52 27  1  0  0  0  0
 53 28  1  0  0  0  0
 54 30  1  0  0  0  0
 58 34  1  0  0  0  0
M  END
$$$$
