CSD_code = FILDUB | q = 0 | S = 0 | Stoichiometry = C22H26BrN3O5PRe | MND = 6
 OpenBabel04212202033D

 59 62  0  0  1  0  0  0  0  0999 V2000
    1.9743    8.3316    3.1262 Re  0  0  0  0  0  0  0  0  0  0  0  0
    0.9573    5.9462    2.6995 Br  0  0  0  0  0  0  0  0  0  0  0  0
    0.1818    9.0299    3.3697 C   0  0  0  0  0  2  0  0  0  0  0  0
   -0.9064    9.3970    3.4679 O   0  0  0  0  0  1  0  0  0  0  0  0
    2.0793    8.0947    5.0397 C   0  0  0  0  0  2  0  0  0  0  0  0
    2.1152    7.9725    6.1910 O   0  0  0  0  0  1  0  0  0  0  0  0
    4.9196    6.9273    2.9963 N   0  0  0  0  0  0  0  0  0  0  0  0
    5.1153    6.5330    4.3377 C   0  0  0  0  0  0  0  0  0  0  0  0
    4.1132    5.8424    5.0071 C   0  0  0  0  0  0  0  0  0  0  0  0
    3.1947    5.5925    4.4991 H   0  0  0  0  0  0  0  0  0  0  0  0
    4.3109    5.4695    6.3244 C   0  0  0  0  0  0  0  0  0  0  0  0
    3.5292    4.9408    6.8461 H   0  0  0  0  0  0  0  0  0  0  0  0
    5.5011    5.7693    6.9649 C   0  0  0  0  0  0  0  0  0  0  0  0
    5.6512    5.4766    7.9929 H   0  0  0  0  0  0  0  0  0  0  0  0
    6.5047    6.4415    6.2862 C   0  0  0  0  0  0  0  0  0  0  0  0
    7.4358    6.6722    6.7820 H   0  0  0  0  0  0  0  0  0  0  0  0
    6.3171    6.8259    4.9714 C   0  0  0  0  0  0  0  0  0  0  0  0
    7.0896    7.3657    4.4423 H   0  0  0  0  0  0  0  0  0  0  0  0
    3.8103    7.5106    2.5057 C   0  0  2  0  0  3  0  0  0  0  0  0
    4.0348    7.6260    1.1645 N   0  0  0  0  0  0  0  0  0  0  0  0
    1.9182    8.4843    0.9697 N   0  0  0  0  0  0  0  0  0  0  0  0
    3.0391    8.1161    0.3346 C   0  0  2  0  0  3  0  0  0  0  0  0
    3.1803    8.1946   -1.0458 C   0  0  0  0  0  0  0  0  0  0  0  0
    4.1000    7.8950   -1.5211 H   0  0  0  0  0  0  0  0  0  0  0  0
    2.1144    8.6555   -1.7951 C   0  0  0  0  0  0  0  0  0  0  0  0
    2.1945    8.7285   -2.8687 H   0  0  0  0  0  0  0  0  0  0  0  0
    0.9416    9.0067   -1.1418 C   0  0  0  0  0  0  0  0  0  0  0  0
    0.0790    9.3522   -1.6875 H   0  0  0  0  0  0  0  0  0  0  0  0
    0.8923    8.9027    0.2345 C   0  0  0  0  0  0  0  0  0  0  0  0
   -0.0118    9.1534    0.7740 H   0  0  0  0  0  0  0  0  0  0  0  0
    5.2800    7.1391    0.8387 C   0  0  0  0  0  0  0  0  0  0  0  0
    5.6694    7.1265   -0.1575 H   0  0  0  0  0  0  0  0  0  0  0  0
    5.8339    6.7086    1.9907 C   0  0  0  0  0  0  0  0  0  0  0  0
    6.7800    6.2425    2.1750 H   0  0  0  0  0  0  0  0  0  0  0  0
    3.2468   10.3641    2.9848 P   0  0  0  0  0  4  0  0  0  0  0  0
    4.6776   10.4110    3.7058 O   0  0  0  0  0  0  0  0  0  0  0  0
    4.8558   10.0431    5.0700 C   0  0  0  0  0  0  0  0  0  0  0  0
    5.9308   10.1501    5.2455 H   0  0  0  0  0  0  0  0  0  0  0  0
    4.5718    8.9935    5.2005 H   0  0  0  0  0  0  0  0  0  0  0  0
    4.0626   10.9045    6.0340 C   0  0  0  0  0  0  0  0  0  0  0  0
    4.2659   11.9580    5.8597 H   0  0  0  0  0  0  0  0  0  0  0  0
    4.3361   10.6466    7.0534 H   0  0  0  0  0  0  0  0  0  0  0  0
    2.9991   10.7200    5.8992 H   0  0  0  0  0  0  0  0  0  0  0  0
    2.7287   11.8263    3.4428 O   0  0  0  0  0  0  0  0  0  0  0  0
    1.3540   12.1764    3.4640 C   0  0  0  0  0  0  0  0  0  0  0  0
    1.3050   13.1181    4.0182 H   0  0  0  0  0  0  0  0  0  0  0  0
    0.7964   11.4086    4.0110 H   0  0  0  0  0  0  0  0  0  0  0  0
    0.7884   12.3378    2.0636 C   0  0  0  0  0  0  0  0  0  0  0  0
    1.3180   13.1212    1.5258 H   0  0  0  0  0  0  0  0  0  0  0  0
   -0.2668   12.5904    2.1177 H   0  0  0  0  0  0  0  0  0  0  0  0
    0.9023   11.4028    1.5179 H   0  0  0  0  0  0  0  0  0  0  0  0
    3.7330   10.5956    1.4678 O   0  0  0  0  0  0  0  0  0  0  0  0
    4.6164   11.6608    1.1197 C   0  0  0  0  0  0  0  0  0  0  0  0
    4.6160   12.4131    1.9133 H   0  0  0  0  0  0  0  0  0  0  0  0
    4.2105   12.1031    0.2031 H   0  0  0  0  0  0  0  0  0  0  0  0
    6.0217   11.1346    0.8813 C   0  0  0  0  0  0  0  0  0  0  0  0
    6.4087   10.6914    1.7952 H   0  0  0  0  0  0  0  0  0  0  0  0
    6.6721   11.9495    0.5750 H   0  0  0  0  0  0  0  0  0  0  0  0
    6.0118   10.3778    0.0996 H   0  0  0  0  0  0  0  0  0  0  0  0
  1  3  1  0  0  0  0
  1  5  1  0  0  0  0
  2  1  1  0  0  0  0
  3  4  1  0  0  0  0
  5  6  1  0  0  0  0
  7  8  1  0  0  0  0
  8 17  2  0  0  0  0
  8  9  1  0  0  0  0
  9 11  2  0  0  0  0
 10  9  1  0  0  0  0
 11 12  1  0  0  0  0
 11 13  1  0  0  0  0
 13 14  1  0  0  0  0
 15 16  1  0  0  0  0
 15 13  2  0  0  0  0
 17 15  1  0  0  0  0
 18 17  1  0  0  0  0
 19 20  1  1  0  0  0
 19  7  1  0  0  0  0
 19  1  1  0  0  0  0
 21  1  1  0  0  0  0
 22 23  1  6  0  0  0
 22 21  1  0  0  0  0
 22 20  1  0  0  0  0
 24 23  1  0  0  0  0
 25 27  1  0  0  0  0
 25 23  2  0  0  0  0
 26 25  1  0  0  0  0
 27 29  2  0  0  0  0
 28 27  1  0  0  0  0
 29 30  1  0  0  0  0
 29 21  1  0  0  0  0
 31 20  1  0  0  0  0
 31 33  2  0  0  0  0
 32 31  1  0  0  0  0
 33 34  1  0  0  0  0
 33  7  1  0  0  0  0
 35  1  1  0  0  0  0
 35 44  1  0  0  0  0
 35 36  1  0  0  0  0
 36 37  1  0  0  0  0
 37 39  1  0  0  0  0
 37 38  1  0  0  0  0
 37 40  1  0  0  0  0
 40 42  1  0  0  0  0
 41 40  1  0  0  0  0
 43 40  1  0  0  0  0
 44 45  1  0  0  0  0
 45 47  1  0  0  0  0
 45 46  1  0  0  0  0
 48 50  1  0  0  0  0
 48 45  1  0  0  0  0
 49 48  1  0  0  0  0
 51 48  1  0  0  0  0
 52 35  1  0  0  0  0
 53 52  1  0  0  0  0
 53 54  1  0  0  0  0
 55 53  1  0  0  0  0
 56 53  1  0  0  0  0
 56 57  1  0  0  0  0
 58 56  1  0  0  0  0
 59 56  1  0  0  0  0
M  END
$$$$
