CSD_code = FILFIR | q = 0 | S = 0 | Stoichiometry = C17H11BrN3O3Re | MND = 6
 OpenBabel04212202033D

 36 39  0  0  1  0  0  0  0  0999 V2000
    7.1895    1.8106    8.1569 Re  0  0  0  0  0  0  0  0  0  0  0  0
    6.3889    0.9063    6.6128 C   0  0  0  0  0  2  0  0  0  0  0  0
    6.0185    0.4013    5.6570 O   0  0  0  0  0  1  0  0  0  0  0  0
    7.0244    0.1701    9.1951 C   0  0  0  0  0  2  0  0  0  0  0  0
    6.9221   -0.8157    9.7753 O   0  0  0  0  0  1  0  0  0  0  0  0
    5.5059    2.4884    8.8374 C   0  0  0  0  0  2  0  0  0  0  0  0
    4.5167    2.9130    9.2408 O   0  0  0  0  0  1  0  0  0  0  0  0
    9.4952    1.1437    7.1599 Br  0  0  0  0  0  0  0  0  0  0  0  0
    8.9443    2.9221   10.6712 N   0  0  0  0  0  0  0  0  0  0  0  0
    8.3664    2.9999    9.4635 C   0  0  1  0  0  3  0  0  0  0  0  0
    8.7498    4.2142    8.9621 N   0  0  0  0  0  0  0  0  0  0  0  0
    9.5453    4.8776    9.8692 C   0  0  0  0  0  0  0  0  0  0  0  0
    9.9623    5.8462    9.6926 H   0  0  0  0  0  0  0  0  0  0  0  0
    9.6581    4.0659   10.9412 C   0  0  0  0  0  0  0  0  0  0  0  0
   10.1965    4.1928   11.8578 H   0  0  0  0  0  0  0  0  0  0  0  0
    7.5738    3.7197    7.0513 N   0  0  0  0  0  0  0  0  0  0  0  0
    8.3768    4.5921    7.6794 C   0  0  2  0  0  3  0  0  0  0  0  0
    8.8176    5.7679    7.0812 C   0  0  0  0  0  0  0  0  0  0  0  0
    9.4701    6.4415    7.6113 H   0  0  0  0  0  0  0  0  0  0  0  0
    8.4140    6.0433    5.7890 C   0  0  0  0  0  0  0  0  0  0  0  0
    8.7465    6.9434    5.2960 H   0  0  0  0  0  0  0  0  0  0  0  0
    7.5828    5.1412    5.1393 C   0  0  0  0  0  0  0  0  0  0  0  0
    7.2489    5.3162    4.1301 H   0  0  0  0  0  0  0  0  0  0  0  0
    7.1900    3.9984    5.8079 C   0  0  0  0  0  0  0  0  0  0  0  0
    6.5454    3.2725    5.3306 H   0  0  0  0  0  0  0  0  0  0  0  0
    8.8864    1.8077   11.5442 C   0  0  0  0  0  0  0  0  0  0  0  0
    9.3272    0.5686   11.1019 C   0  0  0  0  0  0  0  0  0  0  0  0
    9.7145    0.4582   10.1002 H   0  0  0  0  0  0  0  0  0  0  0  0
    9.2765   -0.5141   11.9617 C   0  0  0  0  0  0  0  0  0  0  0  0
    9.6114   -1.4805   11.6192 H   0  0  0  0  0  0  0  0  0  0  0  0
    8.7989   -0.3570   13.2516 C   0  0  0  0  0  0  0  0  0  0  0  0
    8.7581   -1.2045   13.9186 H   0  0  0  0  0  0  0  0  0  0  0  0
    8.3744    0.8865   13.6907 C   0  0  0  0  0  0  0  0  0  0  0  0
    8.0038    1.0096   14.6971 H   0  0  0  0  0  0  0  0  0  0  0  0
    8.4178    1.9757   12.8398 C   0  0  0  0  0  0  0  0  0  0  0  0
    8.0784    2.9471   13.1690 H   0  0  0  0  0  0  0  0  0  0  0  0
  1  6  1  0  0  0  0
  1  4  1  0  0  0  0
  1 10  1  0  0  0  0
  2  1  1  0  0  0  0
  3  2  1  0  0  0  0
  4  5  1  0  0  0  0
  6  7  1  0  0  0  0
  8  1  1  0  0  0  0
  9 14  1  0  0  0  0
  9 26  1  0  0  0  0
 10 11  1  6  0  0  0
 10  9  1  0  0  0  0
 11 12  1  0  0  0  0
 12 14  2  0  0  0  0
 13 12  1  0  0  0  0
 14 15  1  0  0  0  0
 16 17  1  0  0  0  0
 16  1  1  0  0  0  0
 17 18  1  6  0  0  0
 17 11  1  0  0  0  0
 18 19  1  0  0  0  0
 20 18  2  0  0  0  0
 21 20  1  0  0  0  0
 22 20  1  0  0  0  0
 22 24  2  0  0  0  0
 23 22  1  0  0  0  0
 24 16  1  0  0  0  0
 25 24  1  0  0  0  0
 26 35  1  0  0  0  0
 27 26  2  0  0  0  0
 27 29  1  0  0  0  0
 28 27  1  0  0  0  0
 29 31  2  0  0  0  0
 30 29  1  0  0  0  0
 31 33  1  0  0  0  0
 31 32  1  0  0  0  0
 33 34  1  0  0  0  0
 35 36  1  0  0  0  0
 35 33  2  0  0  0  0
M  END
$$$$
