CSD_code = FIMDIP | q = 0 | S = 0 | Stoichiometry = C8H10Cl2N4S2Zn | MND = 4
 OpenBabel04212202033D

 27 29  0  0  1  0  0  0  0  0999 V2000
    4.3135    2.6740    3.4434 Zn  0  0  0  0  0  0  0  0  0  0  0  0
    6.1736    3.5624    2.7749 Cl  0  0  0  0  0  0  0  0  0  0  0  0
    3.8178    1.8213    5.4386 Cl  0  0  0  0  0  0  0  0  0  0  0  0
    1.2009    1.7161    1.7068 S   0  0  0  0  0  0  0  0  0  0  0  0
    0.9254    2.0652    3.6992 S   0  0  0  0  0  0  0  0  0  0  0  0
    3.8382    1.1007    2.1380 N   0  0  0  0  0  0  0  0  0  0  0  0
    2.7320   -0.4327    1.0120 N   0  0  0  0  0  0  0  0  0  0  0  0
    2.7530    4.0726    3.4041 N   0  0  0  0  0  0  0  0  0  0  0  0
    0.9442    4.6641    4.5143 N   0  0  0  0  0  0  0  0  0  0  0  0
    1.5917    3.6689    3.8801 C   0  0  1  0  0  3  0  0  0  0  0  0
    1.6687   -1.1052    0.3213 C   0  0  0  0  0  0  0  0  0  0  0  0
   -0.3089    4.5667    5.2063 C   0  0  0  0  0  0  0  0  0  0  0  0
    1.7553    5.7606    4.4419 C   0  0  0  0  0  0  0  0  0  0  0  0
    2.8655    5.3833    3.7459 C   0  0  0  0  0  0  0  0  0  0  0  0
    4.6933    0.0930    1.8326 C   0  0  0  0  0  0  0  0  0  0  0  0
    4.0223   -0.8609    1.1244 C   0  0  0  0  0  0  0  0  0  0  0  0
    2.6676    0.7597    1.6396 C   0  0  2  0  0  3  0  0  0  0  0  0
    3.7307    5.9477    3.4628 H   0  0  0  0  0  0  0  0  0  0  0  0
    1.4851    6.6956    4.8867 H   0  0  0  0  0  0  0  0  0  0  0  0
   -0.8117    5.5322    5.1818 H   0  0  0  0  0  0  0  0  0  0  0  0
   -0.9316    3.8135    4.7231 H   0  0  0  0  0  0  0  0  0  0  0  0
   -0.1479    4.2714    6.2453 H   0  0  0  0  0  0  0  0  0  0  0  0
    5.7191    0.1320    2.1385 H   0  0  0  0  0  0  0  0  0  0  0  0
    4.3510   -1.7885    0.7041 H   0  0  0  0  0  0  0  0  0  0  0  0
    0.7118   -0.7428    0.6944 H   0  0  0  0  0  0  0  0  0  0  0  0
    1.7245   -0.9074   -0.7512 H   0  0  0  0  0  0  0  0  0  0  0  0
    1.7468   -2.1785    0.4899 H   0  0  0  0  0  0  0  0  0  0  0  0
  1  3  1  0  0  0  0
  2  1  1  0  0  0  0
  4  5  1  0  0  0  0
  6  1  1  0  0  0  0
  7 16  1  0  0  0  0
  7 17  1  0  0  0  0
  8  1  1  0  0  0  0
  8 14  1  0  0  0  0
  8 10  1  0  0  0  0
  9 12  1  0  0  0  0
 10  5  1  6  0  0  0
 10  9  1  0  0  0  0
 11 27  1  0  0  0  0
 11 25  1  0  0  0  0
 11  7  1  0  0  0  0
 12 22  1  0  0  0  0
 13  9  1  0  0  0  0
 13 19  1  0  0  0  0
 14 13  2  0  0  0  0
 15  6  1  0  0  0  0
 15 23  1  0  0  0  0
 16 15  2  0  0  0  0
 17  4  1  6  0  0  0
 17  6  1  0  0  0  0
 18 14  1  0  0  0  0
 20 12  1  0  0  0  0
 21 12  1  0  0  0  0
 24 16  1  0  0  0  0
 26 11  1  0  0  0  0
M  END
$$$$
