CSD_code = FIMFEN | q = 0 | S = 0 | Stoichiometry = C32H29ClP2PtS | MND = 4
 OpenBabel04212202033D

 66 71  0  0  0  0  0  0  0  0999 V2000
   -0.3163   11.7692    9.3788 C   0  0  0  0  0  0  0  0  0  0  0  0
   -0.9835   11.6103   10.2130 H   0  0  0  0  0  0  0  0  0  0  0  0
    1.5391   12.5631    3.7012 Pt  0  0  2  0  0  0  0  0  0  0  0  0
    2.4724   12.5895    5.8051 P   0  0  0  0  0  4  0  0  0  0  0  0
    0.9782   12.5988    1.4363 S   0  0  0  0  0  0  0  0  0  0  0  0
   -0.5947   11.9636    4.0352 P   0  0  0  0  0  4  0  0  0  0  0  0
    3.7423   13.0643    3.2744 Cl  0  0  0  0  0  0  0  0  0  0  0  0
   -1.7549   13.3177    4.3626 C   0  0  0  0  0  0  0  0  0  0  0  0
   -0.9225   10.6524    5.2450 C   0  0  0  0  0  0  0  0  0  0  0  0
    1.4151   12.1809    7.2443 C   0  0  0  0  0  0  0  0  0  0  0  0
   -0.8203   12.2541    1.3709 C   0  0  0  0  0  0  0  0  0  0  0  0
   -1.3593   13.1992    1.4785 H   0  0  0  0  0  0  0  0  0  0  0  0
   -1.0082   11.8531    0.3737 H   0  0  0  0  0  0  0  0  0  0  0  0
    3.8813   11.4619    5.9687 C   0  0  0  0  0  0  0  0  0  0  0  0
   -0.1559    9.4992    5.0876 C   0  0  0  0  0  0  0  0  0  0  0  0
    0.5260    9.4358    4.2466 H   0  0  0  0  0  0  0  0  0  0  0  0
   -1.2357   11.2716    2.4532 C   0  0  0  0  0  0  0  0  0  0  0  0
   -0.7528   10.3034    2.2877 H   0  0  0  0  0  0  0  0  0  0  0  0
   -2.3215   11.1293    2.4908 H   0  0  0  0  0  0  0  0  0  0  0  0
   -1.8750    9.7245    7.2401 C   0  0  0  0  0  0  0  0  0  0  0  0
   -2.5414    9.8144    8.0852 H   0  0  0  0  0  0  0  0  0  0  0  0
    2.9012   15.3258    5.5335 C   0  0  0  0  0  0  0  0  0  0  0  0
    2.4877   15.1924    4.5399 H   0  0  0  0  0  0  0  0  0  0  0  0
   -3.1294   13.1338    4.4729 C   0  0  0  0  0  0  0  0  0  0  0  0
   -3.5518   12.1410    4.3948 H   0  0  0  0  0  0  0  0  0  0  0  0
    1.6155   11.1142    8.1094 C   0  0  0  0  0  0  0  0  0  0  0  0
    2.4532   10.4473    7.9643 H   0  0  0  0  0  0  0  0  0  0  0  0
    0.3323   13.0323    7.4520 C   0  0  0  0  0  0  0  0  0  0  0  0
    0.1769   13.8585    6.7687 H   0  0  0  0  0  0  0  0  0  0  0  0
    3.0498   14.2190    6.3586 C   0  0  0  0  0  0  0  0  0  0  0  0
    3.3068   16.5742    5.9707 C   0  0  0  0  0  0  0  0  0  0  0  0
    3.1980   17.4331    5.3251 H   0  0  0  0  0  0  0  0  0  0  0  0
   -0.2560    8.4639    5.9952 C   0  0  0  0  0  0  0  0  0  0  0  0
    0.3399    7.5717    5.8695 H   0  0  0  0  0  0  0  0  0  0  0  0
    3.6278   10.1111    5.7401 C   0  0  0  0  0  0  0  0  0  0  0  0
    2.6138    9.7956    5.5253 H   0  0  0  0  0  0  0  0  0  0  0  0
   -0.5235   12.8348    8.5164 C   0  0  0  0  0  0  0  0  0  0  0  0
   -1.3528   13.5089    8.6756 H   0  0  0  0  0  0  0  0  0  0  0  0
    5.9548    9.6228    6.0257 C   0  0  0  0  0  0  0  0  0  0  0  0
    6.7650    8.9087    6.0448 H   0  0  0  0  0  0  0  0  0  0  0  0
   -1.2199   14.5992    4.4350 C   0  0  0  0  0  0  0  0  0  0  0  0
   -0.1451   14.7192    4.3141 H   0  0  0  0  0  0  0  0  0  0  0  0
    4.6606    9.1943    5.7749 C   0  0  0  0  0  0  0  0  0  0  0  0
    4.4618    8.1475    5.5952 H   0  0  0  0  0  0  0  0  0  0  0  0
    3.5850   14.3706    7.6352 C   0  0  0  0  0  0  0  0  0  0  0  0
    3.6789   13.5087    8.2829 H   0  0  0  0  0  0  0  0  0  0  0  0
   -1.7754   10.7662    6.3339 C   0  0  0  0  0  0  0  0  0  0  0  0
   -2.3523   11.6674    6.4796 H   0  0  0  0  0  0  0  0  0  0  0  0
   -1.1201    8.5766    7.0737 C   0  0  0  0  0  0  0  0  0  0  0  0
   -1.1988    7.7707    7.7880 H   0  0  0  0  0  0  0  0  0  0  0  0
   -3.4126   15.5007    4.7632 C   0  0  0  0  0  0  0  0  0  0  0  0
   -4.0621   16.3490    4.9210 H   0  0  0  0  0  0  0  0  0  0  0  0
   -2.0458   15.6896    4.6355 C   0  0  0  0  0  0  0  0  0  0  0  0
   -1.6283   16.6841    4.6878 H   0  0  0  0  0  0  0  0  0  0  0  0
    0.7479   10.9101    9.1692 C   0  0  0  0  0  0  0  0  0  0  0  0
    0.9102   10.0782    9.8391 H   0  0  0  0  0  0  0  0  0  0  0  0
   -3.9523   14.2264    4.6783 C   0  0  0  0  0  0  0  0  0  0  0  0
   -5.0198   14.0858    4.7672 H   0  0  0  0  0  0  0  0  0  0  0  0
    5.1813   11.8907    6.2011 C   0  0  0  0  0  0  0  0  0  0  0  0
    5.3880   12.9425    6.3344 H   0  0  0  0  0  0  0  0  0  0  0  0
    3.8567   16.7201    7.2334 C   0  0  0  0  0  0  0  0  0  0  0  0
    4.1796   17.6933    7.5730 H   0  0  0  0  0  0  0  0  0  0  0  0
    6.2121   10.9677    6.2325 C   0  0  0  0  0  0  0  0  0  0  0  0
    7.2240   11.3025    6.4081 H   0  0  0  0  0  0  0  0  0  0  0  0
    3.9931   15.6191    8.0652 C   0  0  0  0  0  0  0  0  0  0  0  0
    4.4183   15.7360    9.0516 H   0  0  0  0  0  0  0  0  0  0  0  0
  1  2  1  0  0  0  0
  3  7  1  6  0  0  0
  3  6  1  0  0  0  0
  3  4  1  0  0  0  0
  4 14  1  0  0  0  0
  4 30  1  0  0  0  0
  4 10  1  0  0  0  0
  5  3  1  0  0  0  0
  6  8  1  0  0  0  0
  6  9  1  0  0  0  0
  8 41  2  0  0  0  0
  8 24  1  0  0  0  0
  9 47  1  0  0  0  0
 10 28  2  0  0  0  0
 10 26  1  0  0  0  0
 11  5  1  0  0  0  0
 11 12  1  0  0  0  0
 11 17  1  0  0  0  0
 13 11  1  0  0  0  0
 14 59  1  0  0  0  0
 15  9  2  0  0  0  0
 15 33  1  0  0  0  0
 16 15  1  0  0  0  0
 17 19  1  0  0  0  0
 17  6  1  0  0  0  0
 18 17  1  0  0  0  0
 20 21  1  0  0  0  0
 22 31  2  0  0  0  0
 22 30  1  0  0  0  0
 23 22  1  0  0  0  0
 24 57  2  0  0  0  0
 25 24  1  0  0  0  0
 26 55  2  0  0  0  0
 27 26  1  0  0  0  0
 28 37  1  0  0  0  0
 29 28  1  0  0  0  0
 30 45  2  0  0  0  0
 31 61  1  0  0  0  0
 32 31  1  0  0  0  0
 33 49  2  0  0  0  0
 34 33  1  0  0  0  0
 35 43  1  0  0  0  0
 35 14  2  0  0  0  0
 36 35  1  0  0  0  0
 37 38  1  0  0  0  0
 37  1  2  0  0  0  0
 39 40  1  0  0  0  0
 39 63  1  0  0  0  0
 41 53  1  0  0  0  0
 42 41  1  0  0  0  0
 43 39  2  0  0  0  0
 44 43  1  0  0  0  0
 45 65  1  0  0  0  0
 45 46  1  0  0  0  0
 47 48  1  0  0  0  0
 47 20  2  0  0  0  0
 49 20  1  0  0  0  0
 49 50  1  0  0  0  0
 51 52  1  0  0  0  0
 53 54  1  0  0  0  0
 53 51  2  0  0  0  0
 55  1  1  0  0  0  0
 55 56  1  0  0  0  0
 57 51  1  0  0  0  0
 57 58  1  0  0  0  0
 59 63  2  0  0  0  0
 59 60  1  0  0  0  0
 61 62  1  0  0  0  0
 61 65  2  0  0  0  0
 63 64  1  0  0  0  0
 65 66  1  0  0  0  0
M  END
$$$$
