CSD_code = FIMWIH | q = 0 | S = 0 | Stoichiometry = C18H23Cl3NO2Ta | MND = 7
 OpenBabel04212202033D

 48 45  0  0  0  0  0  0  0  0999 V2000
    1.9304    2.5532    1.6523 Ta  0  0  0  0  0  0  0  0  0  0  0  0
    3.4689    0.8485    1.2080 Cl  0  0  0  0  0 15  0  0  0  0  0  0
    3.2654    4.3823    1.3739 Cl  0  0  0  0  0 15  0  0  0  0  0  0
    0.6306    1.2968    3.1038 Cl  0  0  0  0  0 15  0  0  0  0  0  0
    3.3703    2.6046    3.8942 O   0  0  0  0  0  0  0  0  0  0  0  0
    1.0205    4.2819    3.5399 O   0  0  0  0  0  0  0  0  0  0  0  0
    1.2196    2.2547   -0.0985 N   0  0  0  0  0  0  0  0  0  0  0  0
    1.4331    1.8259   -1.4593 C   0  0  0  0  0  0  0  0  0  0  0  0
    2.1758    2.9175   -2.1919 C   0  0  0  0  0  0  0  0  0  0  0  0
    1.5316    3.7429   -3.1021 C   0  0  0  0  0  0  0  0  0  0  0  0
    2.2152    4.7875   -3.7018 C   0  0  0  0  0  0  0  0  0  0  0  0
    3.5431    5.0186   -3.3884 C   0  0  0  0  0  0  0  0  0  0  0  0
    4.1888    4.2021   -2.4738 C   0  0  0  0  0  0  0  0  0  0  0  0
    3.5082    3.1580   -1.8753 C   0  0  0  0  0  0  0  0  0  0  0  0
    0.3508    3.2888    0.2756 C   0  0  0  0  0  3  0  0  0  0  0  0
   -1.0785    2.9684    0.3852 C   0  0  0  0  0  0  0  0  0  0  0  0
   -1.5189    1.6490    0.5262 C   0  0  0  0  0  0  0  0  0  0  0  0
   -2.8625    1.3665    0.6712 C   0  0  0  0  0  0  0  0  0  0  0  0
   -3.7981    2.3895    0.6792 C   0  0  0  0  0  0  0  0  0  0  0  0
   -3.3774    3.7006    0.5294 C   0  0  0  0  0  0  0  0  0  0  0  0
   -2.0342    3.9874    0.3798 C   0  0  0  0  0  0  0  0  0  0  0  0
    3.4923    1.4227    4.6690 C   0  0  0  0  0  0  0  0  0  0  0  0
    3.0718    3.7710    4.6400 C   0  0  0  0  0  0  0  0  0  0  0  0
    1.5671    3.9801    4.8126 C   0  0  0  0  0  0  0  0  0  0  0  0
   -0.3810    4.4737    3.5822 C   0  0  0  0  0  0  0  0  0  0  0  0
    2.0384    0.9142   -1.4181 H   0  0  0  0  0  0  0  0  0  0  0  0
    0.4748    1.6086   -1.9463 H   0  0  0  0  0  0  0  0  0  0  0  0
    0.4922    3.5677   -3.3417 H   0  0  0  0  0  0  0  0  0  0  0  0
    1.7074    5.4251   -4.4109 H   0  0  0  0  0  0  0  0  0  0  0  0
    4.0741    5.8361   -3.8537 H   0  0  0  0  0  0  0  0  0  0  0  0
    5.2235    4.3831   -2.2238 H   0  0  0  0  0  0  0  0  0  0  0  0
    4.0041    2.5214   -1.1553 H   0  0  0  0  0  0  0  0  0  0  0  0
    0.5352    4.2332   -0.2568 H   0  0  0  0  0  0  0  0  0  0  0  0
   -0.7914    0.8480    0.5231 H   0  0  0  0  0  0  0  0  0  0  0  0
   -3.1855    0.3411    0.7786 H   0  0  0  0  0  0  0  0  0  0  0  0
   -4.8481    2.1654    0.7947 H   0  0  0  0  0  0  0  0  0  0  0  0
   -4.1012    4.5031    0.5242 H   0  0  0  0  0  0  0  0  0  0  0  0
   -1.7118    5.0116    0.2475 H   0  0  0  0  0  0  0  0  0  0  0  0
    2.5537    1.1629    5.1665 H   0  0  0  0  0  0  0  0  0  0  0  0
    3.7575    0.6297    3.9705 H   0  0  0  0  0  0  0  0  0  0  0  0
    4.2876    1.5387    5.4119 H   0  0  0  0  0  0  0  0  0  0  0  0
    3.5655    3.7331    5.6170 H   0  0  0  0  0  0  0  0  0  0  0  0
    3.4699    4.6050    4.0541 H   0  0  0  0  0  0  0  0  0  0  0  0
    1.3869    4.8186    5.4997 H   0  0  0  0  0  0  0  0  0  0  0  0
    1.0914    3.0750    5.2157 H   0  0  0  0  0  0  0  0  0  0  0  0
   -0.6345    5.2749    4.2837 H   0  0  0  0  0  0  0  0  0  0  0  0
   -0.6876    4.7479    2.5758 H   0  0  0  0  0  0  0  0  0  0  0  0
   -0.8922    3.5509    3.8752 H   0  0  0  0  0  0  0  0  0  0  0  0
  5 23  1  0  0  0  0
  5 22  1  0  0  0  0
  6 25  1  0  0  0  0
  6 24  1  0  0  0  0
  7 15  1  0  0  0  0
  7  1  1  0  0  0  0
  8 26  1  0  0  0  0
  8  7  1  0  0  0  0
  9 14  1  0  0  0  0
  9  8  1  0  0  0  0
 10  9  2  0  0  0  0
 11 12  2  0  0  0  0
 11 10  1  0  0  0  0
 12 13  1  0  0  0  0
 13 31  1  0  0  0  0
 13 14  2  0  0  0  0
 14 32  1  0  0  0  0
 15 16  1  0  0  0  0
 16 17  1  0  0  0  0
 17 18  2  0  0  0  0
 18 19  1  0  0  0  0
 18 35  1  0  0  0  0
 19 36  1  0  0  0  0
 20 19  2  0  0  0  0
 21 16  2  0  0  0  0
 21 20  1  0  0  0  0
 22 39  1  0  0  0  0
 22 41  1  0  0  0  0
 23 24  1  0  0  0  0
 23 42  1  0  0  0  0
 24 45  1  0  0  0  0
 24 44  1  0  0  0  0
 25 48  1  0  0  0  0
 25 46  1  0  0  0  0
 27  8  1  0  0  0  0
 28 10  1  0  0  0  0
 29 11  1  0  0  0  0
 30 12  1  0  0  0  0
 33 15  1  0  0  0  0
 34 17  1  0  0  0  0
 37 20  1  0  0  0  0
 38 21  1  0  0  0  0
 40 22  1  0  0  0  0
 43 23  1  0  0  0  0
 47 25  1  0  0  0  0
M  END
$$$$
