CSD_code = FINNOH | q = 0 | S = 0 | Stoichiometry = C23H17AuClP | MND = 2
 OpenBabel04212202033D

 43 46  0  0  1  0  0  0  0  0999 V2000
    4.9286   20.8920    4.6203 C   0  0  2  0  0  3  0  0  0  0  0  0
    5.1688   21.8020    3.6047 C   0  0  0  0  0  0  0  0  0  0  0  0
    5.5392   22.7791    3.8863 H   0  0  0  0  0  0  0  0  0  0  0  0
    5.0032   21.5426    2.2445 C   0  0  0  0  0  0  0  0  0  0  0  0
    4.5595   20.3089    1.7700 C   0  0  0  0  0  0  0  0  0  0  0  0
    4.4439   20.1968    0.6995 H   0  0  0  0  0  0  0  0  0  0  0  0
    4.2422   19.2204    2.5651 C   0  0  0  0  0  0  0  0  0  0  0  0
    5.1249   21.2409    6.0313 C   0  0  0  0  0  0  0  0  0  0  0  0
    5.6525   20.2973    6.9107 C   0  0  0  0  0  0  0  0  0  0  0  0
    5.9509   19.3284    6.5269 H   0  0  0  0  0  0  0  0  0  0  0  0
    5.8250   20.5981    8.2474 C   0  0  0  0  0  0  0  0  0  0  0  0
    6.2370   19.8576    8.9162 H   0  0  0  0  0  0  0  0  0  0  0  0
    5.4668   21.8477    8.7264 C   0  0  0  0  0  0  0  0  0  0  0  0
    5.5961   22.0833    9.7716 H   0  0  0  0  0  0  0  0  0  0  0  0
    4.9393   22.7927    7.8617 C   0  0  0  0  0  0  0  0  0  0  0  0
    4.6534   23.7654    8.2334 H   0  0  0  0  0  0  0  0  0  0  0  0
    4.7691   22.4951    6.5227 C   0  0  0  0  0  0  0  0  0  0  0  0
    4.3333   23.2277    5.8590 H   0  0  0  0  0  0  0  0  0  0  0  0
    5.3045   22.6084    1.2753 C   0  0  0  0  0  0  0  0  0  0  0  0
    6.0087   22.3248    0.1068 C   0  0  0  0  0  0  0  0  0  0  0  0
    6.3554   21.3180   -0.0764 H   0  0  0  0  0  0  0  0  0  0  0  0
    6.2958   23.3271   -0.8008 C   0  0  0  0  0  0  0  0  0  0  0  0
    6.8501   23.0947   -1.6982 H   0  0  0  0  0  0  0  0  0  0  0  0
    5.8764   24.6251   -0.5612 C   0  0  0  0  0  0  0  0  0  0  0  0
    6.0983   25.4066   -1.2724 H   0  0  0  0  0  0  0  0  0  0  0  0
    5.1710   24.9167    0.5946 C   0  0  0  0  0  0  0  0  0  0  0  0
    4.8368   25.9260    0.7839 H   0  0  0  0  0  0  0  0  0  0  0  0
    4.8908   23.9183    1.5087 C   0  0  0  0  0  0  0  0  0  0  0  0
    4.3228   24.1488    2.3984 H   0  0  0  0  0  0  0  0  0  0  0  0
    3.7666   17.9579    1.9896 C   0  0  0  0  0  0  0  0  0  0  0  0
    4.1789   16.7474    2.5435 C   0  0  0  0  0  0  0  0  0  0  0  0
    4.8802   16.7579    3.3704 H   0  0  0  0  0  0  0  0  0  0  0  0
    3.7284   15.5472    2.0296 C   0  0  0  0  0  0  0  0  0  0  0  0
    4.0582   14.6173    2.4679 H   0  0  0  0  0  0  0  0  0  0  0  0
    2.8532   15.5402    0.9554 C   0  0  0  0  0  0  0  0  0  0  0  0
    2.4956   14.6034    0.5554 H   0  0  0  0  0  0  0  0  0  0  0  0
    2.4351   16.7376    0.3985 C   0  0  0  0  0  0  0  0  0  0  0  0
    1.7479   16.7351   -0.4349 H   0  0  0  0  0  0  0  0  0  0  0  0
    2.8873   17.9402    0.9087 C   0  0  0  0  0  0  0  0  0  0  0  0
    2.5371   18.8708    0.4863 H   0  0  0  0  0  0  0  0  0  0  0  0
    4.4109   19.2653    4.2943 P   0  0  2  0  0  0  0  0  0  0  0  0
    3.0868   18.0873    5.6997 Au  0  0  0  0  0  0  0  0  0  0  0  0
    1.6126   17.0426    7.0560 Cl  0  0  0  0  0  0  0  0  0  0  0  0
  1  8  1  6  0  0  0
  2  3  1  0  0  0  0
  2  1  1  0  0  0  0
  4  2  2  0  0  0  0
  5  4  1  0  0  0  0
  5  7  2  0  0  0  0
  6  5  1  0  0  0  0
  7 41  1  0  0  0  0
  8 17  2  0  0  0  0
  8  9  1  0  0  0  0
  9 11  2  0  0  0  0
 10  9  1  0  0  0  0
 11 13  1  0  0  0  0
 11 12  1  0  0  0  0
 13 14  1  0  0  0  0
 15 16  1  0  0  0  0
 15 13  2  0  0  0  0
 17 15  1  0  0  0  0
 18 17  1  0  0  0  0
 19 28  1  0  0  0  0
 19  4  1  0  0  0  0
 20 19  2  0  0  0  0
 21 20  1  0  0  0  0
 22 24  2  0  0  0  0
 22 20  1  0  0  0  0
 23 22  1  0  0  0  0
 24 26  1  0  0  0  0
 25 24  1  0  0  0  0
 26 27  1  0  0  0  0
 26 28  2  0  0  0  0
 28 29  1  0  0  0  0
 30 31  1  0  0  0  0
 30  7  1  0  0  0  0
 31 32  1  0  0  0  0
 33 34  1  0  0  0  0
 33 31  2  0  0  0  0
 35 33  1  0  0  0  0
 36 35  1  0  0  0  0
 37 39  1  0  0  0  0
 37 35  2  0  0  0  0
 38 37  1  0  0  0  0
 39 30  2  0  0  0  0
 40 39  1  0  0  0  0
 41  1  1  0  0  0  0
 41 42  1  1  0  0  0
 42 43  1  0  0  0  0
M  END
$$$$
