CSD_code = FIPHEU | q = 0 | S = 0 | Stoichiometry = C16H22Cl2N2NiO6S2 | MND = 6
 OpenBabel04212202033D

 51 50  0  0  0  0  0  0  0  0999 V2000
    9.8548    7.8847   10.3017 Ni  0  0  0  0  0  0  0  0  0  0  0  0
    9.0863    5.8411    9.9359 Cl  0  0  0  0  0  0  0  0  0  0  0  0
    8.3328    9.9863   12.3968 S   0  0  0  0  0  0  0  0  0  0  0  0
    8.2397    8.5771   11.9472 O   0  0  0  0  0  0  0  0  0  0  0  0
    6.8209   10.3122    4.7086 O   0  0  0  0  0  0  0  0  0  0  0  0
    5.0519    9.7755    5.9594 O   0  0  0  0  0  0  0  0  0  0  0  0
    4.5594   10.0933    5.1865 H   0  0  0  0  0  0  0  0  0  0  0  0
    8.7954    8.5262    8.9621 N   0  0  0  0  0  0  0  0  0  0  0  0
    7.4699    8.3959    9.0250 C   0  0  0  0  0  3  0  0  0  0  0  0
    7.0729    7.9277    9.9164 H   0  0  0  0  0  0  0  0  0  0  0  0
    9.3369    9.1014    7.8871 C   0  0  0  0  0  0  0  0  0  0  0  0
   10.4151    9.1984    7.8815 H   0  0  0  0  0  0  0  0  0  0  0  0
    7.1901    9.4098    6.8802 C   0  0  0  0  0  0  0  0  0  0  0  0
    6.6316    8.8260    8.0141 C   0  0  0  0  0  0  0  0  0  0  0  0
    5.5645    8.7021    8.0987 H   0  0  0  0  0  0  0  0  0  0  0  0
    8.5752    9.5476    6.8253 C   0  0  0  0  0  0  0  0  0  0  0  0
    9.0337   10.0027    5.9616 H   0  0  0  0  0  0  0  0  0  0  0  0
    6.3683    9.8800    5.7378 C   0  0  0  0  0  0  0  0  0  0  0  0
    6.8601   10.1380   13.5109 C   0  0  0  0  0  0  0  0  0  0  0  0
    5.9729   10.0750   12.8902 H   0  0  0  0  0  0  0  0  0  0  0  0
    6.8931   11.0998   14.0084 H   0  0  0  0  0  0  0  0  0  0  0  0
    6.8584    9.3282   14.2307 H   0  0  0  0  0  0  0  0  0  0  0  0
    9.5453    9.9923   13.7780 C   0  0  0  0  0  0  0  0  0  0  0  0
    9.3700    9.1336   14.4168 H   0  0  0  0  0  0  0  0  0  0  0  0
    9.4357   10.9193   14.3281 H   0  0  0  0  0  0  0  0  0  0  0  0
   10.5339    9.9424   13.3345 H   0  0  0  0  0  0  0  0  0  0  0  0
   10.6220    9.9288   10.6670 Cl  0  0  0  0  0  0  0  0  0  0  0  0
   11.3769    5.7833    8.2067 S   0  0  0  0  0  0  0  0  0  0  0  0
   11.4698    7.1926    8.6562 O   0  0  0  0  0  0  0  0  0  0  0  0
   12.8883    5.4574   15.8953 O   0  0  0  0  0  0  0  0  0  0  0  0
   14.6574    5.9944   14.6447 O   0  0  0  0  0  0  0  0  0  0  0  0
   15.1499    5.6766   15.4176 H   0  0  0  0  0  0  0  0  0  0  0  0
   10.9142    7.2434   11.6417 N   0  0  0  0  0  0  0  0  0  0  0  0
   12.2397    7.3737   11.5788 C   0  0  0  0  0  3  0  0  0  0  0  0
   12.6366    7.8420   10.6875 H   0  0  0  0  0  0  0  0  0  0  0  0
   10.3726    6.6682   12.7166 C   0  0  0  0  0  0  0  0  0  0  0  0
    9.2944    6.5710   12.7220 H   0  0  0  0  0  0  0  0  0  0  0  0
   12.5193    6.3599   13.7236 C   0  0  0  0  0  0  0  0  0  0  0  0
   13.0779    6.9437   12.5898 C   0  0  0  0  0  0  0  0  0  0  0  0
   14.1450    7.0678   12.5054 H   0  0  0  0  0  0  0  0  0  0  0  0
   11.1342    6.2220   13.7785 C   0  0  0  0  0  0  0  0  0  0  0  0
   10.6756    5.7668   14.6421 H   0  0  0  0  0  0  0  0  0  0  0  0
   13.3410    5.8898   14.8661 C   0  0  0  0  0  0  0  0  0  0  0  0
   12.8495    5.6316    7.0926 C   0  0  0  0  0  0  0  0  0  0  0  0
   13.7368    5.6949    7.7131 H   0  0  0  0  0  0  0  0  0  0  0  0
   12.8166    4.6698    6.5952 H   0  0  0  0  0  0  0  0  0  0  0  0
   12.8509    6.4414    6.3728 H   0  0  0  0  0  0  0  0  0  0  0  0
   10.1639    5.7768    6.8259 C   0  0  0  0  0  0  0  0  0  0  0  0
   10.3389    6.6354    6.1869 H   0  0  0  0  0  0  0  0  0  0  0  0
   10.2737    4.8497    6.2759 H   0  0  0  0  0  0  0  0  0  0  0  0
    9.1753    5.8265    7.2695 H   0  0  0  0  0  0  0  0  0  0  0  0
  1 27  1  0  0  0  0
  1 33  1  0  0  0  0
  2  1  1  0  0  0  0
  3 19  1  0  0  0  0
  3 23  1  0  0  0  0
  4  3  2  0  0  0  0
  5 18  2  0  0  0  0
  7  6  1  0  0  0  0
  8  9  1  0  0  0  0
  8  1  1  0  0  0  0
  9 10  1  0  0  0  0
 11  8  1  0  0  0  0
 12 11  1  0  0  0  0
 13 14  2  0  0  0  0
 14 15  1  0  0  0  0
 14  9  1  0  0  0  0
 16 13  1  0  0  0  0
 16 11  2  0  0  0  0
 17 16  1  0  0  0  0
 18  6  1  0  0  0  0
 18 13  1  0  0  0  0
 19 21  1  0  0  0  0
 19 22  1  0  0  0  0
 20 19  1  0  0  0  0
 23 25  1  0  0  0  0
 23 24  1  0  0  0  0
 26 23  1  0  0  0  0
 28 29  2  0  0  0  0
 31 43  1  0  0  0  0
 31 32  1  0  0  0  0
 33 36  1  0  0  0  0
 34 33  1  0  0  0  0
 34 39  1  0  0  0  0
 35 34  1  0  0  0  0
 36 37  1  0  0  0  0
 36 41  2  0  0  0  0
 38 41  1  0  0  0  0
 38 43  1  0  0  0  0
 39 38  2  0  0  0  0
 40 39  1  0  0  0  0
 41 42  1  0  0  0  0
 43 30  2  0  0  0  0
 44 45  1  0  0  0  0
 44 28  1  0  0  0  0
 46 44  1  0  0  0  0
 47 44  1  0  0  0  0
 48 51  1  0  0  0  0
 48 28  1  0  0  0  0
 49 48  1  0  0  0  0
 50 48  1  0  0  0  0
M  END
$$$$
