CSD_code = FIQJOF | q = 0 | S = 0 | Stoichiometry = C15H31BBr2IrO2P3 | MND = 6
 OpenBabel04212202033D

 55 56  0  0  0  0  0  0  0  0999 V2000
    4.2936   14.2453   21.4689 Ir  0  0  0  0  0  0  0  0  0  0  0  0
    3.5848   13.5655   23.7835 Br  0  0  0  0  0  0  0  0  0  0  0  0
    6.1106   15.9826   22.2390 Br  0  0  0  0  0  0  0  0  0  0  0  0
    2.9273   13.0297   20.5363 B   0  0  0  0  0  0  0  0  0  0  0  0
    3.0174   11.6491   20.3905 O   0  0  0  0  0  0  0  0  0  0  0  0
    1.8261   13.4941   19.8127 O   0  0  0  0  0  0  0  0  0  0  0  0
    1.9768   11.2669   19.6067 C   0  0  0  0  0  0  0  0  0  0  0  0
    1.2430   12.4043   19.2493 C   0  0  0  0  0  0  0  0  0  0  0  0
    0.1251   12.3174   18.4462 C   0  0  0  0  0  0  0  0  0  0  0  0
   -0.4403   13.1945   18.1738 H   0  0  0  0  0  0  0  0  0  0  0  0
   -0.2371   11.0506   18.0095 C   0  0  0  0  0  0  0  0  0  0  0  0
   -1.1072   10.9422   17.3801 H   0  0  0  0  0  0  0  0  0  0  0  0
    0.4902    9.9236   18.3642 C   0  0  0  0  0  0  0  0  0  0  0  0
    0.1741    8.9558   18.0059 H   0  0  0  0  0  0  0  0  0  0  0  0
    1.6154   10.0090   19.1724 C   0  0  0  0  0  0  0  0  0  0  0  0
    2.1802    9.1345   19.4537 H   0  0  0  0  0  0  0  0  0  0  0  0
    2.5841   15.8444   21.8038 P   0  0  0  0  0  4  0  0  0  0  0  0
    0.9563   15.1948   22.3441 C   0  0  0  0  0  0  0  0  0  0  0  0
    0.3043   16.0340   22.5860 H   0  0  0  0  0  0  0  0  0  0  0  0
    1.0699   14.5646   23.2225 H   0  0  0  0  0  0  0  0  0  0  0  0
    0.5145   14.6122   21.5400 H   0  0  0  0  0  0  0  0  0  0  0  0
    1.9959   16.9805   20.4826 C   0  0  0  0  0  0  0  0  0  0  0  0
    1.7900   16.4124   19.5780 H   0  0  0  0  0  0  0  0  0  0  0  0
    2.7447   17.7419   20.2811 H   0  0  0  0  0  0  0  0  0  0  0  0
    1.0803   17.4690   20.8140 H   0  0  0  0  0  0  0  0  0  0  0  0
    2.9333   17.0438   23.1381 C   0  0  0  0  0  0  0  0  0  0  0  0
    2.0687   17.6904   23.2846 H   0  0  0  0  0  0  0  0  0  0  0  0
    3.8035   17.6434   22.8779 H   0  0  0  0  0  0  0  0  0  0  0  0
    3.1513   16.5052   24.0590 H   0  0  0  0  0  0  0  0  0  0  0  0
    5.7608   12.4070   21.6029 P   0  0  0  0  0  4  0  0  0  0  0  0
    6.2228   11.4536   20.0947 C   0  0  0  0  0  0  0  0  0  0  0  0
    6.5476   12.0907   19.2772 H   0  0  0  0  0  0  0  0  0  0  0  0
    5.3435   10.8986   19.7758 H   0  0  0  0  0  0  0  0  0  0  0  0
    7.0211   10.7539   20.3404 H   0  0  0  0  0  0  0  0  0  0  0  0
    7.3780   12.7730   22.3782 C   0  0  0  0  0  0  0  0  0  0  0  0
    7.1833   13.1789   23.3712 H   0  0  0  0  0  0  0  0  0  0  0  0
    7.9313   13.5219   21.8168 H   0  0  0  0  0  0  0  0  0  0  0  0
    7.9658   11.8597   22.4653 H   0  0  0  0  0  0  0  0  0  0  0  0
    5.2447   10.9910   22.6406 C   0  0  0  0  0  0  0  0  0  0  0  0
    5.9420   10.1673   22.4887 H   0  0  0  0  0  0  0  0  0  0  0  0
    4.2412   10.6808   22.3604 H   0  0  0  0  0  0  0  0  0  0  0  0
    5.2410   11.2815   23.6887 H   0  0  0  0  0  0  0  0  0  0  0  0
    5.2071   15.0292   19.4712 P   0  0  0  0  0  4  0  0  0  0  0  0
    5.0058   16.7792   18.9617 C   0  0  0  0  0  0  0  0  0  0  0  0
    5.2224   17.4363   19.8017 H   0  0  0  0  0  0  0  0  0  0  0  0
    3.9943   16.9509   18.6038 H   0  0  0  0  0  0  0  0  0  0  0  0
    5.7108   16.9886   18.1568 H   0  0  0  0  0  0  0  0  0  0  0  0
    4.5832   14.2168   17.9362 C   0  0  0  0  0  0  0  0  0  0  0  0
    5.0571   14.6381   17.0501 H   0  0  0  0  0  0  0  0  0  0  0  0
    3.5073   14.3699   17.8759 H   0  0  0  0  0  0  0  0  0  0  0  0
    4.7704   13.1458   17.9747 H   0  0  0  0  0  0  0  0  0  0  0  0
    7.0241   14.8968   19.2196 C   0  0  0  0  0  0  0  0  0  0  0  0
    7.2453   14.9643   18.1541 H   0  0  0  0  0  0  0  0  0  0  0  0
    7.4216   13.9654   19.6131 H   0  0  0  0  0  0  0  0  0  0  0  0
    7.5010   15.7216   19.7465 H   0  0  0  0  0  0  0  0  0  0  0  0
  1 30  1  0  0  0  0
  1 17  1  0  0  0  0
  1  3  1  0  0  0  0
  1  2  1  0  0  0  0
  4  1  1  0  0  0  0
  5  4  1  0  0  0  0
  6  4  1  0  0  0  0
  7  5  1  0  0  0  0
  8  7  1  0  0  0  0
  8  6  1  0  0  0  0
  9  8  2  0  0  0  0
 10  9  1  0  0  0  0
 11 13  2  0  0  0  0
 11  9  1  0  0  0  0
 12 11  1  0  0  0  0
 13 15  1  0  0  0  0
 14 13  1  0  0  0  0
 15 16  1  0  0  0  0
 15  7  2  0  0  0  0
 17 18  1  0  0  0  0
 17 26  1  0  0  0  0
 18 19  1  0  0  0  0
 18 20  1  0  0  0  0
 21 18  1  0  0  0  0
 22 25  1  0  0  0  0
 22 17  1  0  0  0  0
 23 22  1  0  0  0  0
 24 22  1  0  0  0  0
 26 27  1  0  0  0  0
 26 29  1  0  0  0  0
 28 26  1  0  0  0  0
 30 35  1  0  0  0  0
 30 39  1  0  0  0  0
 31 34  1  0  0  0  0
 31 30  1  0  0  0  0
 32 31  1  0  0  0  0
 33 31  1  0  0  0  0
 35 38  1  0  0  0  0
 35 36  1  0  0  0  0
 37 35  1  0  0  0  0
 39 42  1  0  0  0  0
 40 39  1  0  0  0  0
 41 39  1  0  0  0  0
 43  1  1  0  0  0  0
 44 43  1  0  0  0  0
 44 45  1  0  0  0  0
 46 44  1  0  0  0  0
 47 44  1  0  0  0  0
 48 51  1  0  0  0  0
 48 43  1  0  0  0  0
 49 48  1  0  0  0  0
 50 48  1  0  0  0  0
 52 43  1  0  0  0  0
 52 54  1  0  0  0  0
 52 55  1  0  0  0  0
 53 52  1  0  0  0  0
M  END
$$$$
