CSD_code = FIQLUP | q = 0 | S = 0 | Stoichiometry = C20H26Cl2N4Pd | MND = 4
 OpenBabel04212202033D

 53 55  0  0  0  0  0  0  0  0999 V2000
   11.9740    5.9174   12.1654 Pd  0  0  0  0  0  0  0  0  0  0  0  0
    9.9823    7.0281   12.2431 Cl  0  0  0  0  0  0  0  0  0  0  0  0
   13.9963    4.8373   12.0519 Cl  0  0  0  0  0  0  0  0  0  0  0  0
   12.9078    7.5896   12.6967 N   0  0  0  0  0  0  0  0  0  0  0  0
   12.8502    7.9961   13.9623 C   0  0  0  0  0  3  0  0  0  0  0  0
   12.3122    7.3478   14.6533 H   0  0  0  0  0  0  0  0  0  0  0  0
   13.4270    9.1818   14.3826 C   0  0  0  0  0  0  0  0  0  0  0  0
   13.3602    9.4792   15.4174 H   0  0  0  0  0  0  0  0  0  0  0  0
   14.0826    9.9739   13.4521 C   0  0  0  0  0  0  0  0  0  0  0  0
   14.5408   10.9059   13.7472 H   0  0  0  0  0  0  0  0  0  0  0  0
   14.1357    9.5451   12.1348 C   0  0  0  0  0  0  0  0  0  0  0  0
   14.6343   10.1307   11.3785 H   0  0  0  0  0  0  0  0  0  0  0  0
   13.5350    8.3440   11.7989 C   0  0  0  0  0  0  0  0  0  0  0  0
   13.5587    7.9625   10.7793 H   0  0  0  0  0  0  0  0  0  0  0  0
   10.9859    4.3120   11.6631 C   0  0  0  0  0  0  0  0  0  0  0  0
   10.7824    3.8394   10.4208 N   0  0  0  0  0  0  0  0  0  0  0  0
   10.0145    2.7741   10.3885 N   0  0  0  0  0  2  0  0  0  0  0  0
    9.6785    2.5418   11.6335 N   0  0  0  0  0  0  0  0  0  0  0  0
    8.8616    1.3992   11.9262 C   0  0  0  0  0  0  0  0  0  0  0  0
    7.8065    1.6773   11.9567 H   0  0  0  0  0  0  0  0  0  0  0  0
    9.1553    0.9716   12.8836 H   0  0  0  0  0  0  0  0  0  0  0  0
    9.0055    0.6705   11.1298 H   0  0  0  0  0  0  0  0  0  0  0  0
   10.2339    3.4509   12.4733 C   0  0  0  0  0  0  0  0  0  0  0  0
   10.0395    3.6013   13.9066 C   0  0  0  0  0  0  0  0  0  0  0  0
   11.0653    4.1982   14.6517 C   0  0  0  0  0  0  0  0  0  0  0  0
   12.0211    4.4341   14.1732 H   0  0  0  0  0  0  0  0  0  0  0  0
   10.8923    4.4405   16.0014 C   0  0  0  0  0  0  0  0  0  0  0  0
   11.6903    4.8943   16.5708 H   0  0  0  0  0  0  0  0  0  0  0  0
    9.7039    4.0997   16.6288 C   0  0  0  0  0  0  0  0  0  0  0  0
    9.5709    4.2951   17.6822 H   0  0  0  0  0  0  0  0  0  0  0  0
    8.6851    3.5155   15.8971 C   0  0  0  0  0  0  0  0  0  0  0  0
    7.7523    3.2592   16.3774 H   0  0  0  0  0  0  0  0  0  0  0  0
    8.8462    3.2687   14.5457 C   0  0  0  0  0  0  0  0  0  0  0  0
    8.0214    2.8556   13.9866 H   0  0  0  0  0  0  0  0  0  0  0  0
   11.3400    4.4080    9.2205 C   0  0  0  0  0  0  0  0  0  0  0  0
   11.4649    5.4885    9.4132 H   0  0  0  0  0  0  0  0  0  0  0  0
   10.6282    4.2465    8.4075 H   0  0  0  0  0  0  0  0  0  0  0  0
   12.6962    3.7768    8.8912 C   0  0  0  0  0  0  0  0  0  0  0  0
   13.3475    3.8791    9.7639 H   0  0  0  0  0  0  0  0  0  0  0  0
   13.1430    4.3385    8.0697 H   0  0  0  0  0  0  0  0  0  0  0  0
   12.5698    2.3071    8.5028 C   0  0  0  0  0  0  0  0  0  0  0  0
   12.0504    1.7692    9.2965 H   0  0  0  0  0  0  0  0  0  0  0  0
   11.9696    2.2189    7.5933 H   0  0  0  0  0  0  0  0  0  0  0  0
   13.9404    1.6752    8.2729 C   0  0  0  0  0  0  0  0  0  0  0  0
   14.4748    2.2587    7.5193 H   0  0  0  0  0  0  0  0  0  0  0  0
   14.5164    1.7275    9.1989 H   0  0  0  0  0  0  0  0  0  0  0  0
   13.8625    0.2222    7.8040 C   0  0  0  0  0  0  0  0  0  0  0  0
   14.8691   -0.1116    7.5423 H   0  0  0  0  0  0  0  0  0  0  0  0
   13.2511    0.1661    6.9001 H   0  0  0  0  0  0  0  0  0  0  0  0
   13.2928   -0.7191    8.8592 C   0  0  0  0  0  0  0  0  0  0  0  0
   13.8535   -0.6308    9.7871 H   0  0  0  0  0  0  0  0  0  0  0  0
   13.3534   -1.7503    8.5181 H   0  0  0  0  0  0  0  0  0  0  0  0
   12.2494   -0.4922    9.0628 H   0  0  0  0  0  0  0  0  0  0  0  0
  1  2  1  0  0  0  0
  1  4  1  0  0  0  0
  3  1  1  0  0  0  0
  4  5  1  0  0  0  0
  5  7  1  0  0  0  0
  5  6  1  0  0  0  0
  7  8  1  0  0  0  0
  9 10  1  0  0  0  0
  9  7  2  0  0  0  0
 11  9  1  0  0  0  0
 12 11  1  0  0  0  0
 13 11  2  0  0  0  0
 13  4  1  0  0  0  0
 14 13  1  0  0  0  0
 15  1  1  0  0  0  0
 15 23  2  0  0  0  0
 16 15  1  0  0  0  0
 17 16  1  0  0  0  0
 17 18  1  0  0  0  0
 18 19  1  0  0  0  0
 18 23  1  0  0  0  0
 19 20  1  0  0  0  0
 19 21  1  0  0  0  0
 22 19  1  0  0  0  0
 23 24  1  0  0  0  0
 24 33  2  0  0  0  0
 24 25  1  0  0  0  0
 25 27  2  0  0  0  0
 26 25  1  0  0  0  0
 27 28  1  0  0  0  0
 27 29  1  0  0  0  0
 29 30  1  0  0  0  0
 31 32  1  0  0  0  0
 31 29  2  0  0  0  0
 33 31  1  0  0  0  0
 34 33  1  0  0  0  0
 35 36  1  0  0  0  0
 35 16  1  0  0  0  0
 37 35  1  0  0  0  0
 38 35  1  0  0  0  0
 38 39  1  0  0  0  0
 40 38  1  0  0  0  0
 41 38  1  0  0  0  0
 41 42  1  0  0  0  0
 43 41  1  0  0  0  0
 44 41  1  0  0  0  0
 44 46  1  0  0  0  0
 45 44  1  0  0  0  0
 47 44  1  0  0  0  0
 47 50  1  0  0  0  0
 48 47  1  0  0  0  0
 49 47  1  0  0  0  0
 50 53  1  0  0  0  0
 50 51  1  0  0  0  0
 52 50  1  0  0  0  0
M  END
$$$$
