CSD_code = FIQMAW | q = 0 | S = 0 | Stoichiometry = C18H22Cl2N4Pd | MND = 4
 OpenBabel04212202033D

 47 49  0  0  0  0  0  0  0  0999 V2000
    2.4462    5.8795   10.9941 Pd  0  0  0  0  0  0  0  0  0  0  0  0
    4.5543    6.3386   10.2142 Cl  0  0  0  0  0  0  0  0  0  0  0  0
    0.3889    5.4096   11.9424 Cl  0  0  0  0  0  0  0  0  0  0  0  0
    2.1292    7.8106   11.4086 N   0  0  0  0  0  0  0  0  0  0  0  0
    1.0905    8.5026   10.9474 C   0  0  0  0  0  3  0  0  0  0  0  0
    0.4800    8.0196   10.1908 H   0  0  0  0  0  0  0  0  0  0  0  0
    0.7786    9.7692   11.4101 C   0  0  0  0  0  0  0  0  0  0  0  0
   -0.0727   10.2947   11.0074 H   0  0  0  0  0  0  0  0  0  0  0  0
    1.5703   10.3374   12.3957 C   0  0  0  0  0  0  0  0  0  0  0  0
    1.3502   11.3212   12.7823 H   0  0  0  0  0  0  0  0  0  0  0  0
    2.6491    9.6113   12.8756 C   0  0  0  0  0  0  0  0  0  0  0  0
    3.2923   10.0118   13.6435 H   0  0  0  0  0  0  0  0  0  0  0  0
    2.8950    8.3528   12.3542 C   0  0  0  0  0  0  0  0  0  0  0  0
    3.7441    7.7602   12.6893 H   0  0  0  0  0  0  0  0  0  0  0  0
    2.8222    3.9685   10.7427 C   0  0  0  0  0  0  0  0  0  0  0  0
    2.3936    3.0028    9.9054 N   0  0  0  0  0  0  0  0  0  0  0  0
    3.0249    1.8575   10.0698 N   0  0  0  0  0  2  0  0  0  0  0  0
    3.8920    2.0601   11.0292 N   0  0  0  0  0  0  0  0  0  0  0  0
    4.7279    0.9783   11.4630 C   0  0  0  0  0  0  0  0  0  0  0  0
    4.2046    0.0440   11.2657 H   0  0  0  0  0  0  0  0  0  0  0  0
    4.9334    1.0795   12.5275 H   0  0  0  0  0  0  0  0  0  0  0  0
    5.6687    0.9763   10.9095 H   0  0  0  0  0  0  0  0  0  0  0  0
    3.8195    3.3279   11.4930 C   0  0  0  0  0  0  0  0  0  0  0  0
    4.6274    3.9370   12.5411 C   0  0  0  0  0  0  0  0  0  0  0  0
    4.0144    4.8489   13.4102 C   0  0  0  0  0  0  0  0  0  0  0  0
    2.9330    5.0031   13.3697 H   0  0  0  0  0  0  0  0  0  0  0  0
    4.7696    5.5059   14.3654 C   0  0  0  0  0  0  0  0  0  0  0  0
    4.2917    6.2040   15.0382 H   0  0  0  0  0  0  0  0  0  0  0  0
    6.1321    5.2709   14.4656 C   0  0  0  0  0  0  0  0  0  0  0  0
    6.7188    5.7936   15.2063 H   0  0  0  0  0  0  0  0  0  0  0  0
    6.7400    4.3692   13.6098 C   0  0  0  0  0  0  0  0  0  0  0  0
    7.8029    4.1904   13.6782 H   0  0  0  0  0  0  0  0  0  0  0  0
    5.9960    3.7044   12.6519 C   0  0  0  0  0  0  0  0  0  0  0  0
    6.4924    3.0410   11.9602 H   0  0  0  0  0  0  0  0  0  0  0  0
    1.3187    3.0390    8.9369 C   0  0  0  0  0  0  0  0  0  0  0  0
    0.4207    2.6436    9.4253 H   0  0  0  0  0  0  0  0  0  0  0  0
    1.6024    2.3607    8.1269 H   0  0  0  0  0  0  0  0  0  0  0  0
    1.0343    4.4435    8.4172 C   0  0  0  0  0  0  0  0  0  0  0  0
    0.8155    5.0965    9.2790 H   0  0  0  0  0  0  0  0  0  0  0  0
    0.1369    4.3981    7.7976 H   0  0  0  0  0  0  0  0  0  0  0  0
    2.1936    5.0415    7.6161 C   0  0  0  0  0  0  0  0  0  0  0  0
    3.1429    4.8268    8.1158 H   0  0  0  0  0  0  0  0  0  0  0  0
    2.2252    4.6002    6.6169 H   0  0  0  0  0  0  0  0  0  0  0  0
    2.0469    6.5562    7.5261 C   0  0  0  0  0  0  0  0  0  0  0  0
    2.8416    6.9837    6.9205 H   0  0  0  0  0  0  0  0  0  0  0  0
    2.1264    6.9793    8.5369 H   0  0  0  0  0  0  0  0  0  0  0  0
    1.0865    6.8320    7.0935 H   0  0  0  0  0  0  0  0  0  0  0  0
  1  4  1  0  0  0  0
  1  3  1  0  0  0  0
  2  1  1  0  0  0  0
  4 13  1  0  0  0  0
  5  4  1  0  0  0  0
  5  7  1  0  0  0  0
  6  5  1  0  0  0  0
  7  9  2  0  0  0  0
  8  7  1  0  0  0  0
  9 10  1  0  0  0  0
  9 11  1  0  0  0  0
 11 12  1  0  0  0  0
 13 14  1  0  0  0  0
 13 11  2  0  0  0  0
 15  1  1  0  0  0  0
 15 23  2  0  0  0  0
 16 17  1  0  0  0  0
 16 15  1  0  0  0  0
 17 18  1  0  0  0  0
 18 19  1  0  0  0  0
 18 23  1  0  0  0  0
 19 21  1  0  0  0  0
 20 19  1  0  0  0  0
 22 19  1  0  0  0  0
 23 24  1  0  0  0  0
 24 33  2  0  0  0  0
 24 25  1  0  0  0  0
 25 27  2  0  0  0  0
 26 25  1  0  0  0  0
 27 29  1  0  0  0  0
 27 28  1  0  0  0  0
 29 30  1  0  0  0  0
 31 32  1  0  0  0  0
 31 29  2  0  0  0  0
 33 31  1  0  0  0  0
 34 33  1  0  0  0  0
 35 36  1  0  0  0  0
 35 16  1  0  0  0  0
 37 35  1  0  0  0  0
 38 35  1  0  0  0  0
 38 39  1  0  0  0  0
 40 38  1  0  0  0  0
 41 42  1  0  0  0  0
 41 38  1  0  0  0  0
 43 41  1  0  0  0  0
 44 41  1  0  0  0  0
 44 46  1  0  0  0  0
 45 44  1  0  0  0  0
 47 44  1  0  0  0  0
M  END
$$$$
