CSD_code = FIQTOQ | q = 0 | S = 0 | Stoichiometry = C13H10Cl2N4Pd | MND = 4
 OpenBabel04212202033D

 30 33  0  0  1  0  0  0  0  0999 V2000
   -2.6345    2.9071    7.5228 Pd  0  0  0  0  0  0  0  0  0  0  0  0
   -4.6539    2.6927    8.3673 Cl  0  0  0  0  0  0  0  0  0  0  0  0
   -2.3434    0.7301    7.6372 Cl  0  0  0  0  0  0  0  0  0  0  0  0
    2.3945    2.9393    5.4788 C   0  0  0  0  0  0  0  0  0  0  0  0
    2.6403    1.5669    5.5208 C   0  0  0  0  0  0  0  0  0  0  0  0
    1.8709    0.9142    5.9017 H   0  0  0  0  0  0  0  0  0  0  0  0
   -3.7665    5.7530    7.6745 C   0  0  0  0  0  3  0  0  0  0  0  0
   -4.6330    5.2435    8.0823 H   0  0  0  0  0  0  0  0  0  0  0  0
   -2.7453    4.9598    7.3465 N   0  0  0  0  0  0  0  0  0  0  0  0
   -1.4999    6.8825    6.6296 C   0  0  0  0  0  0  0  0  0  0  0  0
   -0.5936    7.2930    6.2160 H   0  0  0  0  0  0  0  0  0  0  0  0
   -0.8611    3.2767    6.7625 N   0  0  1  0  0  0  0  0  0  0  0  0
    1.1136    3.4387    5.9460 C   0  0  0  0  0  0  0  0  0  0  0  0
   -1.6313    5.5129    6.8336 C   0  0  0  0  0  0  0  0  0  0  0  0
   -0.6365    4.5966    6.5298 N   0  0  0  0  0  0  0  0  0  0  0  0
    0.1561    2.6015    6.4235 N   0  0  0  0  0  2  0  0  0  0  0  0
    0.6152    4.7263    6.0094 C   0  0  0  0  0  0  0  0  0  0  0  0
    1.0375    5.6685    5.7374 H   0  0  0  0  0  0  0  0  0  0  0  0
    3.3770    3.7988    4.9904 C   0  0  0  0  0  0  0  0  0  0  0  0
    3.1985    4.8632    4.9540 H   0  0  0  0  0  0  0  0  0  0  0  0
    4.5843    3.2898    4.5510 C   0  0  0  0  0  0  0  0  0  0  0  0
    5.3426    3.9596    4.1731 H   0  0  0  0  0  0  0  0  0  0  0  0
   -3.7143    7.1231    7.5032 C   0  0  0  0  0  0  0  0  0  0  0  0
   -4.5586    7.7323    7.7797 H   0  0  0  0  0  0  0  0  0  0  0  0
    4.8233    1.9255    4.5937 C   0  0  0  0  0  0  0  0  0  0  0  0
    5.7682    1.5334    4.2483 H   0  0  0  0  0  0  0  0  0  0  0  0
   -2.5636    7.6977    6.9724 C   0  0  0  0  0  0  0  0  0  0  0  0
   -2.4957    8.7642    6.8276 H   0  0  0  0  0  0  0  0  0  0  0  0
    3.8498    1.0669    5.0794 C   0  0  0  0  0  0  0  0  0  0  0  0
    4.0353    0.0040    5.1134 H   0  0  0  0  0  0  0  0  0  0  0  0
  1  3  1  0  0  0  0
  1  2  1  0  0  0  0
  4  5  1  0  0  0  0
  4 13  1  0  0  0  0
  5  6  1  0  0  0  0
  7  8  1  0  0  0  0
  9  1  1  0  0  0  0
  9  7  1  0  0  0  0
 10 14  2  0  0  0  0
 10 27  1  0  0  0  0
 11 10  1  0  0  0  0
 12 16  1  1  0  0  0
 12  1  1  0  0  0  0
 13 17  2  0  0  0  0
 13 16  1  0  0  0  0
 14  9  1  0  0  0  0
 15 12  1  0  0  0  0
 15 14  1  0  0  0  0
 17 15  1  0  0  0  0
 18 17  1  0  0  0  0
 19  4  2  0  0  0  0
 20 19  1  0  0  0  0
 21 25  2  0  0  0  0
 21 19  1  0  0  0  0
 22 21  1  0  0  0  0
 23  7  1  0  0  0  0
 23 24  1  0  0  0  0
 25 29  1  0  0  0  0
 26 25  1  0  0  0  0
 27 23  2  0  0  0  0
 28 27  1  0  0  0  0
 29 30  1  0  0  0  0
 29  5  2  0  0  0  0
M  END
$$$$
