CSD_code = FIQTEG | q = 0 | S = 0 | Stoichiometry = C21H24ClIrN2 | MND = 6
 OpenBabel04212202033D

 49 51  0  0  1  0  0  0  0  0999 V2000
    8.4059    6.4650   22.5031 C   0  0  0  0  0  0  0  0  0  0  0  0
    8.6544    6.4721   23.5541 H   0  0  0  0  0  0  0  0  0  0  0  0
    6.3037    8.3892   20.1331 N   0  0  0  0  0  0  0  0  0  0  0  0
    6.4410   11.1144   17.7218 Cl  0  0  0  0  0 15  0  0  0  0  0  0
    4.5841    9.7516   18.1476 Ir  0  0  0  0  0  0  0  0  0  0  0  0
    6.5120    7.5051   18.0103 N   0  0  0  0  0  0  0  0  0  0  0  0
    3.2680   10.9129   16.8498 C   0  0  0  0  0  3  0  0  0  0  0  0
    3.9096   11.3558   16.0924 H   0  0  0  0  0  0  0  0  0  0  0  0
    3.2813   11.4790   18.1084 C   0  0  0  0  0  3  0  0  0  0  0  0
    3.9091   12.3531   18.2648 H   0  0  0  0  0  0  0  0  0  0  0  0
    2.1818   11.3229   19.1328 C   0  0  0  0  0  0  0  0  0  0  0  0
    1.3192   11.9268   18.8320 H   0  0  0  0  0  0  0  0  0  0  0  0
    2.5423   11.7292   20.0802 H   0  0  0  0  0  0  0  0  0  0  0  0
    1.7515    9.8588   19.3469 C   0  0  0  0  0  0  0  0  0  0  0  0
    1.4136    9.7413   20.3783 H   0  0  0  0  0  0  0  0  0  0  0  0
    0.9049    9.6146   18.7037 H   0  0  0  0  0  0  0  0  0  0  0  0
    2.8752    8.8764   19.0783 C   0  0  0  0  0  3  0  0  0  0  0  0
    3.1440    8.2723   19.9428 H   0  0  0  0  0  0  0  0  0  0  0  0
    3.0878    8.2877   17.8164 C   0  0  1  0  0  0  0  0  0  0  0  0
    3.4734    7.2681   17.8127 H   0  0  0  0  0  0  0  0  0  0  0  0
    2.2647    8.5957   16.5848 C   0  0  0  0  0  0  0  0  0  0  0  0
    1.2789    8.1267   16.6778 H   0  0  0  0  0  0  0  0  0  0  0  0
    2.7594    8.1322   15.7284 H   0  0  0  0  0  0  0  0  0  0  0  0
    2.1070   10.1042   16.3152 C   0  0  0  0  0  0  0  0  0  0  0  0
    2.0285   10.2626   15.2380 H   0  0  0  0  0  0  0  0  0  0  0  0
    1.1830   10.4735   16.7624 H   0  0  0  0  0  0  0  0  0  0  0  0
    5.9350    8.4051   18.8347 C   0  0  0  0  0  3  0  0  0  0  0  0
    5.8060    9.4262   21.0128 C   0  0  0  0  0  0  0  0  0  0  0  0
    5.2302   10.1389   20.4189 H   0  0  0  0  0  0  0  0  0  0  0  0
    6.6434    9.9539   21.4702 H   0  0  0  0  0  0  0  0  0  0  0  0
    5.1696    9.0012   21.7908 H   0  0  0  0  0  0  0  0  0  0  0  0
    7.1857    7.4597   20.6812 C   0  0  0  0  0  0  0  0  0  0  0  0
    7.5233    7.4370   22.0191 C   0  0  0  0  0  0  0  0  0  0  0  0
    7.1222    8.1537   22.7146 H   0  0  0  0  0  0  0  0  0  0  0  0
    8.9482    5.5210   21.6766 C   0  0  0  0  0  0  0  0  0  0  0  0
    9.6278    4.7748   22.0590 H   0  0  0  0  0  0  0  0  0  0  0  0
    8.6265    5.5093   20.3046 C   0  0  0  0  0  0  0  0  0  0  0  0
    7.7353    6.4909   19.8085 C   0  0  0  0  0  0  0  0  0  0  0  0
    7.3970    6.5158   18.4348 C   0  0  0  0  0  0  0  0  0  0  0  0
    6.2540    7.5948   16.5881 C   0  0  0  0  0  0  0  0  0  0  0  0
    5.6640    8.4932   16.3973 H   0  0  0  0  0  0  0  0  0  0  0  0
    5.7085    6.7174   16.2362 H   0  0  0  0  0  0  0  0  0  0  0  0
    7.1982    7.6811   16.0494 H   0  0  0  0  0  0  0  0  0  0  0  0
    7.9336    5.5688   17.5865 C   0  0  0  0  0  0  0  0  0  0  0  0
    7.6937    5.5507   16.5374 H   0  0  0  0  0  0  0  0  0  0  0  0
    8.8111    4.5989   18.0836 C   0  0  0  0  0  0  0  0  0  0  0  0
    9.2172    3.8707   17.3972 H   0  0  0  0  0  0  0  0  0  0  0  0
    9.1561    4.5619   19.4057 C   0  0  0  0  0  0  0  0  0  0  0  0
    9.8358    3.8117   19.7800 H   0  0  0  0  0  0  0  0  0  0  0  0
  1  2  1  0  0  0  0
  3 32  1  0  0  0  0
  3 28  1  0  0  0  0
  5 27  1  0  0  0  0
  6 39  1  0  0  0  0
  6 27  1  0  0  0  0
  7  9  1  0  0  0  0
  8  7  1  0  0  0  0
  9 10  1  0  0  0  0
  9 11  1  0  0  0  0
 11 14  1  0  0  0  0
 11 13  1  0  0  0  0
 12 11  1  0  0  0  0
 14 15  1  0  0  0  0
 16 14  1  0  0  0  0
 17 14  1  0  0  0  0
 17 18  1  0  0  0  0
 19 20  1  1  0  0  0
 19  5  1  0  0  0  0
 19 17  1  0  0  0  0
 21 22  1  0  0  0  0
 21 19  1  0  0  0  0
 23 21  1  0  0  0  0
 24 21  1  0  0  0  0
 24 26  1  0  0  0  0
 24  7  1  0  0  0  0
 25 24  1  0  0  0  0
 27  3  1  0  0  0  0
 28 30  1  0  0  0  0
 28 31  1  0  0  0  0
 29 28  1  0  0  0  0
 32 33  2  0  0  0  0
 33  1  1  0  0  0  0
 33 34  1  0  0  0  0
 35 36  1  0  0  0  0
 35  1  2  0  0  0  0
 37 35  1  0  0  0  0
 38 37  1  0  0  0  0
 38 32  1  0  0  0  0
 39 38  2  0  0  0  0
 40  6  1  0  0  0  0
 41 40  1  0  0  0  0
 42 40  1  0  0  0  0
 43 40  1  0  0  0  0
 44 46  2  0  0  0  0
 44 39  1  0  0  0  0
 45 44  1  0  0  0  0
 46 48  1  0  0  0  0
 47 46  1  0  0  0  0
 48 49  1  0  0  0  0
 48 37  2  0  0  0  0
M  END
$$$$
