CSD_code = FIQXAG | q = 0 | S = 0 | Stoichiometry = C21H19BrN2Ni | MND = 4
 OpenBabel04212202033D

 44 48  0  0  0  0  0  0  0  0999 V2000
   14.5271    4.6057    1.1911 C   0  0  0  0  0  0  0  0  0  0  0  0
   14.9036    5.5929    2.0988 C   0  0  0  0  0  0  0  0  0  0  0  0
   15.0244    6.9018    1.6527 C   0  0  0  0  0  0  0  0  0  0  0  0
   15.3236    7.6693    2.3538 H   0  0  0  0  0  0  0  0  0  0  0  0
   14.7573    7.2421    0.3332 C   0  0  0  0  0  0  0  0  0  0  0  0
   14.3560    6.2472   -0.5448 C   0  0  0  0  0  0  0  0  0  0  0  0
   14.1280    6.4947   -1.5728 H   0  0  0  0  0  0  0  0  0  0  0  0
   14.2263    4.9272   -0.1287 C   0  0  0  0  0  0  0  0  0  0  0  0
   15.1619    5.2417    3.5394 C   0  0  0  0  0  0  0  0  0  0  0  0
   16.1221    5.6317    3.8750 H   0  0  0  0  0  0  0  0  0  0  0  0
   15.1568    4.1492    3.6687 H   0  0  0  0  0  0  0  0  0  0  0  0
   14.3788    5.6591    4.1716 H   0  0  0  0  0  0  0  0  0  0  0  0
   14.9040    8.6644   -0.1222 C   0  0  0  0  0  0  0  0  0  0  0  0
   15.9559    8.9523   -0.1360 H   0  0  0  0  0  0  0  0  0  0  0  0
   14.3836    9.3376    0.5567 H   0  0  0  0  0  0  0  0  0  0  0  0
   14.4989    8.7957   -1.1224 H   0  0  0  0  0  0  0  0  0  0  0  0
   13.7570    3.8617   -1.0825 C   0  0  0  0  0  0  0  0  0  0  0  0
   14.3323    3.8783   -2.0074 H   0  0  0  0  0  0  0  0  0  0  0  0
   12.7060    4.0150   -1.3254 H   0  0  0  0  0  0  0  0  0  0  0  0
   13.8578    2.8689   -0.6188 H   0  0  0  0  0  0  0  0  0  0  0  0
   14.0212   -0.0207    2.6967 C   0  0  0  0  0  0  0  0  0  0  0  0
   13.0070    0.3201    2.8649 H   0  0  0  0  0  0  0  0  0  0  0  0
   14.3919   -1.3342    2.9994 C   0  0  0  0  0  0  0  0  0  0  0  0
   13.6556   -2.0114    3.4018 H   0  0  0  0  0  0  0  0  0  0  0  0
   15.6868   -1.7370    2.7799 C   0  0  0  0  0  0  0  0  0  0  0  0
   16.0095   -2.7435    3.0040 H   0  0  0  0  0  0  0  0  0  0  0  0
   16.6063   -0.8160    2.2521 C   0  0  0  0  0  0  0  0  0  0  0  0
   16.1375    0.4856    1.9752 C   0  0  0  0  0  0  0  0  0  0  0  0
   17.9683   -1.1340    1.9884 C   0  0  0  0  0  0  0  0  0  0  0  0
   18.3087   -2.1348    2.2102 H   0  0  0  0  0  0  0  0  0  0  0  0
   18.8139   -0.2094    1.4738 C   0  0  0  0  0  0  0  0  0  0  0  0
   19.8471   -0.4534    1.2742 H   0  0  0  0  0  0  0  0  0  0  0  0
   18.3719    1.1115    1.1778 C   0  0  0  0  0  0  0  0  0  0  0  0
   17.0287    1.4645    1.4304 C   0  0  0  0  0  0  0  0  0  0  0  0
   19.2138    2.0967    0.6393 C   0  0  0  0  0  0  0  0  0  0  0  0
   20.2481    1.8633    0.4330 H   0  0  0  0  0  0  0  0  0  0  0  0
   18.6948    3.3438    0.3850 C   0  0  0  0  0  0  0  0  0  0  0  0
   19.3062    4.1291   -0.0303 H   0  0  0  0  0  0  0  0  0  0  0  0
   17.3529    3.6012    0.6692 C   0  0  0  0  0  0  0  0  0  0  0  0
   16.9353    4.5798    0.4735 H   0  0  0  0  0  0  0  0  0  0  0  0
   14.8635    0.8621    2.2017 N   0  0  0  0  0  0  0  0  0  0  0  0
   16.5366    2.6970    1.1778 N   0  0  0  0  0  0  0  0  0  0  0  0
   14.6084    2.8057    1.7002 Ni  0  0  1  0  0  0  0  0  0  0  0  0
   12.4980    2.9809    2.2852 Br  0  0  0  0  0  0  0  0  0  0  0  0
  1 43  1  0  0  0  0
  1  2  1  0  0  0  0
  2  9  1  0  0  0  0
  3  2  2  0  0  0  0
  3  4  1  0  0  0  0
  5  3  1  0  0  0  0
  6  8  1  0  0  0  0
  6  5  2  0  0  0  0
  7  6  1  0  0  0  0
  8  1  2  0  0  0  0
  9 11  1  0  0  0  0
  9 10  1  0  0  0  0
  9 12  1  0  0  0  0
 13  5  1  0  0  0  0
 13 15  1  0  0  0  0
 14 13  1  0  0  0  0
 16 13  1  0  0  0  0
 17 20  1  0  0  0  0
 17  8  1  0  0  0  0
 18 17  1  0  0  0  0
 19 17  1  0  0  0  0
 21 22  1  0  0  0  0
 21 23  2  0  0  0  0
 23 24  1  0  0  0  0
 25 23  1  0  0  0  0
 25 26  1  0  0  0  0
 27 25  2  0  0  0  0
 28 41  1  0  0  0  0
 28 27  1  0  0  0  0
 29 30  1  0  0  0  0
 29 27  1  0  0  0  0
 31 29  2  0  0  0  0
 32 31  1  0  0  0  0
 33 34  1  0  0  0  0
 33 31  1  0  0  0  0
 34 28  2  0  0  0  0
 35 33  2  0  0  0  0
 36 35  1  0  0  0  0
 37 35  1  0  0  0  0
 37 39  2  0  0  0  0
 38 37  1  0  0  0  0
 39 42  1  0  0  0  0
 40 39  1  0  0  0  0
 41 21  1  0  0  0  0
 42 34  1  0  0  0  0
 42 43  1  0  0  0  0
 43 41  1  0  0  0  0
 43 44  1  1  0  0  0
M  END
$$$$
