CSD_code = FIRGOC | q = 0 | S = 0 | Stoichiometry = C12H21ClN4O3PRh | MND = 4
 OpenBabel04212202033D

 43 45  0  0  1  0  0  0  0  0999 V2000
    2.1675    4.2991    8.5037 Rh  0  0  0  0  0  0  0  0  0  0  0  0
    2.0277    1.6655    4.2242 P   0  0  1  0  0  0  0  0  0  0  0  0
    1.0201    2.4089    8.3997 Cl  0  0  0  0  0  0  0  0  0  0  0  0
    2.3652    4.1404    6.3952 N   0  0  0  0  0  4  0  0  0  0  0  0
    2.9094    1.3698    5.6425 N   0  0  2  0  0  0  0  0  0  0  0  0
    1.1691    0.2258    4.2878 N   0  0  1  0  0  0  0  0  0  0  0  0
    0.8099    2.8034    4.4362 N   0  0  1  0  0  0  0  0  0  0  0  0
    2.8430    1.9929    3.0556 O   0  0  0  0  0  0  0  0  0  0  0  0
    3.7309    4.1881    5.8494 C   0  0  0  0  0  0  0  0  0  0  0  0
    4.5418    3.0462    6.4590 C   0  0  0  0  0  0  0  0  0  0  0  0
    4.3084    1.7490    5.6773 C   0  0  0  0  0  0  0  0  0  0  0  0
    2.5378    0.1021    6.2496 C   0  0  0  0  0  0  0  0  0  0  0  0
    1.2108   -0.3397    5.6252 C   0  0  0  0  0  0  0  0  0  0  0  0
   -0.1148    0.3390    3.6361 C   0  0  0  0  0  0  0  0  0  0  0  0
   -1.1117    1.2476    4.3785 C   0  0  0  0  0  0  0  0  0  0  0  0
   -0.4070    2.3978    5.1201 C   0  0  0  0  0  0  0  0  0  0  0  0
    1.0737    4.2058    4.2668 C   0  0  0  0  0  0  0  0  0  0  0  0
    1.3952    4.9074    5.6053 C   0  0  0  0  0  0  0  0  0  0  0  0
    3.0779    5.9033    8.5378 C   0  0  0  0  0  2  0  0  0  0  0  0
    1.8835    4.2857   10.3250 C   0  0  0  0  0  2  0  0  0  0  0  0
    3.6221    6.9113    8.5723 O   0  0  0  0  0  1  0  0  0  0  0  0
    1.6667    4.2083   11.4420 O   0  0  0  0  0  1  0  0  0  0  0  0
    2.0812    3.1510    6.2939 H   0  0  0  0  0  0  0  0  0  0  0  0
    3.7180    4.0628    4.7605 H   0  0  0  0  0  0  0  0  0  0  0  0
    4.1777    5.1609    6.0806 H   0  0  0  0  0  0  0  0  0  0  0  0
    4.2391    2.9212    7.5147 H   0  0  0  0  0  0  0  0  0  0  0  0
    5.6060    3.2809    6.4362 H   0  0  0  0  0  0  0  0  0  0  0  0
    4.6583    1.8979    4.6480 H   0  0  0  0  0  0  0  0  0  0  0  0
    4.8938    0.9401    6.1229 H   0  0  0  0  0  0  0  0  0  0  0  0
    2.4269    0.2257    7.3315 H   0  0  0  0  0  0  0  0  0  0  0  0
    3.3136   -0.6490    6.0562 H   0  0  0  0  0  0  0  0  0  0  0  0
    1.1571   -1.4309    5.5583 H   0  0  0  0  0  0  0  0  0  0  0  0
    0.3781    0.0061    6.2462 H   0  0  0  0  0  0  0  0  0  0  0  0
   -0.5426   -0.6588    3.4977 H   0  0  0  0  0  0  0  0  0  0  0  0
    0.0996    0.7625    2.6496 H   0  0  0  0  0  0  0  0  0  0  0  0
   -1.8117    1.6472    3.6435 H   0  0  0  0  0  0  0  0  0  0  0  0
   -1.6864    0.6679    5.1023 H   0  0  0  0  0  0  0  0  0  0  0  0
   -1.0765    3.2612    5.1580 H   0  0  0  0  0  0  0  0  0  0  0  0
   -0.1950    2.1057    6.1556 H   0  0  0  0  0  0  0  0  0  0  0  0
    1.9128    4.2841    3.5719 H   0  0  0  0  0  0  0  0  0  0  0  0
    0.2081    4.6961    3.8077 H   0  0  0  0  0  0  0  0  0  0  0  0
    1.7812    5.9130    5.4176 H   0  0  0  0  0  0  0  0  0  0  0  0
    0.4715    4.9921    6.1926 H   0  0  0  0  0  0  0  0  0  0  0  0
  1 19  1  0  0  0  0
  1 20  1  0  0  0  0
  2  8  2  6  0  0  0
  2  6  1  0  0  0  0
  2  7  1  0  0  0  0
  2  5  1  0  0  0  0
  3  1  1  0  0  0  0
  4  1  1  0  0  0  0
  5 11  1  6  0  0  0
  5 12  1  0  0  0  0
  6 14  1  1  0  0  0
  6 13  1  0  0  0  0
  7 17  1  1  0  0  0
  7 16  1  0  0  0  0
  9 25  1  0  0  0  0
  9  4  1  0  0  0  0
  9 10  1  0  0  0  0
 10 26  1  0  0  0  0
 11 29  1  0  0  0  0
 11 10  1  0  0  0  0
 12 30  1  0  0  0  0
 13 33  1  0  0  0  0
 13 12  1  0  0  0  0
 14 15  1  0  0  0  0
 15 37  1  0  0  0  0
 15 16  1  0  0  0  0
 16 38  1  0  0  0  0
 16 39  1  0  0  0  0
 17 18  1  0  0  0  0
 18 43  1  0  0  0  0
 18  4  1  0  0  0  0
 19 21  1  0  0  0  0
 20 22  1  0  0  0  0
 23  4  1  0  0  0  0
 24  9  1  0  0  0  0
 27 10  1  0  0  0  0
 28 11  1  0  0  0  0
 31 12  1  0  0  0  0
 32 13  1  0  0  0  0
 34 14  1  0  0  0  0
 35 14  1  0  0  0  0
 36 15  1  0  0  0  0
 40 17  1  0  0  0  0
 41 17  1  0  0  0  0
 42 18  1  0  0  0  0
M  END
$$$$
