CSD_code = FIRPOO | q = 0 | S = 0 | Stoichiometry = C14H14ClN3O3Zn | MND = 5
 OpenBabel04212202033D

 36 38  0  0  0  0  0  0  0  0999 V2000
    2.1057    9.0786    9.1318 Zn  0  0  1  0  0  0  0  0  0  0  0  0
    1.4967   10.1893   10.9123 Cl  0  0  0  0  0  0  0  0  0  0  0  0
    2.6524    7.1532    9.9852 N   0  0  0  0  0  0  0  0  0  0  0  0
    1.7702    7.8150    7.6000 N   0  0  0  0  0  0  0  0  0  0  0  0
    1.3709    8.3444    6.4705 N   0  0  0  0  0  0  0  0  0  0  0  0
    1.8209   10.3556    7.4814 O   0  0  0  0  0  0  0  0  0  0  0  0
   -0.9159   12.2103    2.0550 O   0  0  0  0  0  0  0  0  0  0  0  0
    4.1250   10.0751    9.2753 O   0  0  0  0  0  0  0  0  0  0  0  0
    3.0349    6.8595   11.2138 C   0  0  0  0  0  3  0  0  0  0  0  0
    3.1336    7.6993   11.8868 H   0  0  0  0  0  0  0  0  0  0  0  0
    3.2896    5.5614   11.6271 C   0  0  0  0  0  0  0  0  0  0  0  0
    3.6035    5.3628   12.6388 H   0  0  0  0  0  0  0  0  0  0  0  0
    3.1322    4.5320   10.7071 C   0  0  0  0  0  0  0  0  0  0  0  0
    3.3231    3.5080   10.9924 H   0  0  0  0  0  0  0  0  0  0  0  0
    2.7233    4.8352    9.4238 C   0  0  0  0  0  0  0  0  0  0  0  0
    2.5815    4.0640    8.6829 H   0  0  0  0  0  0  0  0  0  0  0  0
    2.4826    6.1715    9.0856 C   0  0  0  0  0  0  0  0  0  0  0  0
    2.0504    6.5702    7.7719 C   0  0  0  0  0  3  0  0  0  0  0  0
    1.9768    5.8412    6.9720 H   0  0  0  0  0  0  0  0  0  0  0  0
    1.3511    9.6901    6.5247 C   0  0  0  0  0  0  0  0  0  0  0  0
    0.7736   10.3592    5.3540 C   0  0  0  0  0  0  0  0  0  0  0  0
    0.6442   11.7455    5.3479 C   0  0  0  0  0  0  0  0  0  0  0  0
    0.9816   12.3012    6.2098 H   0  0  0  0  0  0  0  0  0  0  0  0
    0.0863   12.4031    4.2699 C   0  0  0  0  0  0  0  0  0  0  0  0
   -0.0042   13.4776    4.2980 H   0  0  0  0  0  0  0  0  0  0  0  0
   -0.3533   11.6745    3.1665 C   0  0  0  0  0  0  0  0  0  0  0  0
   -0.2211   10.2806    3.1686 C   0  0  0  0  0  0  0  0  0  0  0  0
   -0.5672    9.7373    2.3035 H   0  0  0  0  0  0  0  0  0  0  0  0
    0.3320    9.6318    4.2460 C   0  0  0  0  0  0  0  0  0  0  0  0
    0.4356    8.5591    4.2557 H   0  0  0  0  0  0  0  0  0  0  0  0
   -1.0947   13.6055    1.9882 C   0  0  0  0  0  0  0  0  0  0  0  0
   -1.7495   13.9649    2.7882 H   0  0  0  0  0  0  0  0  0  0  0  0
   -1.5656   13.7958    1.0251 H   0  0  0  0  0  0  0  0  0  0  0  0
   -0.1382   14.1357    2.0339 H   0  0  0  0  0  0  0  0  0  0  0  0
    4.0947   10.7336    8.5719 H   0  0  0  0  0  0  0  0  0  0  0  0
    3.9449   10.5579   10.0946 H   0  0  0  0  0  0  0  0  0  0  0  0
  1  3  1  0  0  0  0
  1  2  1  1  0  0  0
  3  9  1  0  0  0  0
  4 18  1  0  0  0  0
  4  1  1  0  0  0  0
  5 20  2  0  0  0  0
  5  4  1  0  0  0  0
  6  1  1  0  0  0  0
  7 26  1  0  0  0  0
  8 36  1  0  0  0  0
  9 11  1  0  0  0  0
  9 10  1  0  0  0  0
 11 12  1  0  0  0  0
 13 14  1  0  0  0  0
 13 11  2  0  0  0  0
 15 13  1  0  0  0  0
 16 15  1  0  0  0  0
 17 15  2  0  0  0  0
 17  3  1  0  0  0  0
 18 17  1  0  0  0  0
 19 18  1  0  0  0  0
 20  6  1  0  0  0  0
 21 20  1  0  0  0  0
 22 21  1  0  0  0  0
 22 23  1  0  0  0  0
 24 25  1  0  0  0  0
 24 22  2  0  0  0  0
 26 27  2  0  0  0  0
 26 24  1  0  0  0  0
 27 29  1  0  0  0  0
 28 27  1  0  0  0  0
 29 30  1  0  0  0  0
 29 21  2  0  0  0  0
 31 34  1  0  0  0  0
 31  7  1  0  0  0  0
 31 32  1  0  0  0  0
 33 31  1  0  0  0  0
 35  8  1  0  0  0  0
M  END
$$$$
