CSD_code = FIRWAF | q = 0 | S = 0 | Stoichiometry = C5H15AuIP | MND = 4
 OpenBabel04212202033D

 23 22  0  0  0  0  0  0  0  0999 V2000
   -1.4425   -0.1007    6.1506 C   0  0  0  0  0  0  0  0  0  0  0  0
   -2.3540   -0.4115    5.6384 H   0  0  0  0  0  0  0  0  0  0  0  0
   -1.4627    0.9801    6.2890 H   0  0  0  0  0  0  0  0  0  0  0  0
   -1.3768   -0.5973    7.1199 H   0  0  0  0  0  0  0  0  0  0  0  0
    1.4078   -0.0876    6.1894 C   0  0  0  0  0  0  0  0  0  0  0  0
    1.3161   -0.5809    7.1583 H   0  0  0  0  0  0  0  0  0  0  0  0
    1.4214    0.9935    6.3243 H   0  0  0  0  0  0  0  0  0  0  0  0
    2.3343   -0.3979    5.7045 H   0  0  0  0  0  0  0  0  0  0  0  0
    0.0139   -2.3669    5.2697 C   0  0  0  0  0  0  0  0  0  0  0  0
    0.0186   -2.6563    6.3215 H   0  0  0  0  0  0  0  0  0  0  0  0
    0.9042   -2.7582    4.7782 H   0  0  0  0  0  0  0  0  0  0  0  0
   -0.8687   -2.7785    4.7815 H   0  0  0  0  0  0  0  0  0  0  0  0
    0.0238    0.4370    2.9811 Au  0  0  0  0  0  0  0  0  0  0  0  0
    0.0259    2.7707    4.2146 I   0  0  0  0  0  0  0  0  0  0  0  0
   -0.0316   -1.3886    2.0770 C   0  0  0  0  0  0  0  0  0  0  0  0
   -0.8753   -1.9474    2.4738 H   0  0  0  0  0  0  0  0  0  0  0  0
    0.8787   -1.9308    2.3183 H   0  0  0  0  0  0  0  0  0  0  0  0
   -0.1297   -1.3676    0.9993 H   0  0  0  0  0  0  0  0  0  0  0  0
    0.0595    1.2947    1.1365 C   0  0  0  0  0  0  0  0  0  0  0  0
    0.3168    0.6225    0.3271 H   0  0  0  0  0  0  0  0  0  0  0  0
    0.7793    2.1078    1.1314 H   0  0  0  0  0  0  0  0  0  0  0  0
   -0.9186    1.7174    0.9231 H   0  0  0  0  0  0  0  0  0  0  0  0
   -0.0012   -0.5455    5.1289 P   0  0  0  0  0  4  0  0  0  0  0  0
  1  3  1  0  0  0  0
  1  4  1  0  0  0  0
  2  1  1  0  0  0  0
  5  7  1  0  0  0  0
  5  6  1  0  0  0  0
  8  5  1  0  0  0  0
  9 10  1  0  0  0  0
 11  9  1  0  0  0  0
 12  9  1  0  0  0  0
 13 14  1  0  0  0  0
 13 23  1  0  0  0  0
 15 17  1  0  0  0  0
 15 16  1  0  0  0  0
 15 13  1  0  0  0  0
 18 15  1  0  0  0  0
 19 13  1  0  0  0  0
 20 19  1  0  0  0  0
 21 19  1  0  0  0  0
 22 19  1  0  0  0  0
 23  9  1  0  0  0  0
 23  1  1  0  0  0  0
 23  5  1  0  0  0  0
M  END
$$$$
