CSD_code = FISDUI | q = 0 | S = 0 | Stoichiometry = C21H18AuBr3ClP | MND = 2
 OpenBabel04212202033D

 45 47  0  0  0  0  0  0  0  0999 V2000
   15.0034    6.7422   14.9089 Au  0  0  0  0  0  0  0  0  0  0  0  0
   14.8209    8.0838   13.0952 Cl  0  0  0  0  0  0  0  0  0  0  0  0
   15.2070    5.3996   16.6935 P   0  0  0  0  0  4  0  0  0  0  0  0
   17.7846    4.8964   14.0543 Br  0  0  0  0  0  0  0  0  0  0  0  0
   11.9994    5.0637   14.8616 Br  0  0  0  0  0  0  0  0  0  0  0  0
   15.3585    9.0302   17.4490 Br  0  0  0  0  0  0  0  0  0  0  0  0
   16.9313    4.8640   17.0924 C   0  0  0  0  0  0  0  0  0  0  0  0
   16.9964    4.6352   18.1607 H   0  0  0  0  0  0  0  0  0  0  0  0
   17.1517    3.9659   16.5090 H   0  0  0  0  0  0  0  0  0  0  0  0
   17.8435    5.9883   16.7124 C   0  0  0  0  0  0  0  0  0  0  0  0
   18.2573    6.1738   15.3957 C   0  0  0  0  0  0  0  0  0  0  0  0
   19.0270    7.2585   15.0180 C   0  0  0  0  0  0  0  0  0  0  0  0
   19.3206    7.3754   13.9866 H   0  0  0  0  0  0  0  0  0  0  0  0
   19.4009    8.1902   15.9697 C   0  0  0  0  0  0  0  0  0  0  0  0
   19.9910    9.0441   15.6770 H   0  0  0  0  0  0  0  0  0  0  0  0
   19.0186    8.0203   17.2886 C   0  0  0  0  0  0  0  0  0  0  0  0
   19.3092    8.7409   18.0363 H   0  0  0  0  0  0  0  0  0  0  0  0
   18.2469    6.9310   17.6508 C   0  0  0  0  0  0  0  0  0  0  0  0
   17.9509    6.8056   18.6823 H   0  0  0  0  0  0  0  0  0  0  0  0
   14.3035    3.7888   16.6008 C   0  0  0  0  0  0  0  0  0  0  0  0
   14.8125    3.0570   17.2358 H   0  0  0  0  0  0  0  0  0  0  0  0
   13.2854    3.9488   16.9661 H   0  0  0  0  0  0  0  0  0  0  0  0
   14.2985    3.3650   15.1653 C   0  0  0  0  0  0  0  0  0  0  0  0
   13.3824    3.8903   14.2572 C   0  0  0  0  0  0  0  0  0  0  0  0
   13.4260    3.5758   12.9116 C   0  0  0  0  0  0  0  0  0  0  0  0
   12.7055    4.0091   12.2356 H   0  0  0  0  0  0  0  0  0  0  0  0
   14.4043    2.7153   12.4464 C   0  0  0  0  0  0  0  0  0  0  0  0
   14.4497    2.4774   11.3955 H   0  0  0  0  0  0  0  0  0  0  0  0
   15.3142    2.1634   13.3305 C   0  0  0  0  0  0  0  0  0  0  0  0
   16.0776    1.4894   12.9758 H   0  0  0  0  0  0  0  0  0  0  0  0
   15.2591    2.4887   14.6737 C   0  0  0  0  0  0  0  0  0  0  0  0
   15.9750    2.0564   15.3578 H   0  0  0  0  0  0  0  0  0  0  0  0
   14.6245    6.0845   18.3092 C   0  0  0  0  0  0  0  0  0  0  0  0
   14.3580    5.2558   18.9728 H   0  0  0  0  0  0  0  0  0  0  0  0
   15.4436    6.6600   18.7491 H   0  0  0  0  0  0  0  0  0  0  0  0
   13.4463    6.9611   18.0204 C   0  0  0  0  0  0  0  0  0  0  0  0
   13.6086    8.2681   17.5678 C   0  0  0  0  0  0  0  0  0  0  0  0
   12.5298    9.0565   17.2126 C   0  0  0  0  0  0  0  0  0  0  0  0
   12.6934   10.0616   16.8565 H   0  0  0  0  0  0  0  0  0  0  0  0
   11.2501    8.5395   17.3076 C   0  0  0  0  0  0  0  0  0  0  0  0
   10.4065    9.1464   17.0192 H   0  0  0  0  0  0  0  0  0  0  0  0
   11.0596    7.2506   17.7732 C   0  0  0  0  0  0  0  0  0  0  0  0
   10.0647    6.8424   17.8530 H   0  0  0  0  0  0  0  0  0  0  0  0
   12.1488    6.4732   18.1231 C   0  0  0  0  0  0  0  0  0  0  0  0
   11.9927    5.4671   18.4847 H   0  0  0  0  0  0  0  0  0  0  0  0
  1  3  1  0  0  0  0
  2  1  1  0  0  0  0
  3  7  1  0  0  0  0
  3 33  1  0  0  0  0
  4 11  1  0  0  0  0
  6 37  1  0  0  0  0
  7  8  1  0  0  0  0
  9  7  1  0  0  0  0
 10  7  1  0  0  0  0
 10 18  1  0  0  0  0
 11 10  2  0  0  0  0
 12 11  1  0  0  0  0
 12 14  2  0  0  0  0
 13 12  1  0  0  0  0
 14 16  1  0  0  0  0
 15 14  1  0  0  0  0
 16 18  2  0  0  0  0
 16 17  1  0  0  0  0
 18 19  1  0  0  0  0
 20  3  1  0  0  0  0
 20 22  1  0  0  0  0
 20 21  1  0  0  0  0
 23 20  1  0  0  0  0
 24  5  1  0  0  0  0
 24 23  2  0  0  0  0
 25 24  1  0  0  0  0
 26 25  1  0  0  0  0
 27 25  2  0  0  0  0
 27 29  1  0  0  0  0
 28 27  1  0  0  0  0
 29 31  2  0  0  0  0
 30 29  1  0  0  0  0
 31 23  1  0  0  0  0
 31 32  1  0  0  0  0
 33 35  1  0  0  0  0
 33 34  1  0  0  0  0
 36 44  1  0  0  0  0
 36 33  1  0  0  0  0
 37 36  2  0  0  0  0
 38 40  2  0  0  0  0
 38 37  1  0  0  0  0
 39 38  1  0  0  0  0
 40 42  1  0  0  0  0
 41 40  1  0  0  0  0
 42 43  1  0  0  0  0
 42 44  2  0  0  0  0
 44 45  1  0  0  0  0
M  END
$$$$
