CSD_code = FISFAQ | q = 0 | S = 0 | Stoichiometry = C18H12AuClI3O3P | MND = 2
 OpenBabel04212202033D

 39 41  0  0  0  0  0  0  0  0999 V2000
   -2.6110    3.2060   16.8136 Au  0  0  0  0  0  0  0  0  0  0  0  0
   -0.2346    5.3671   14.9948 C   0  0  0  0  0  0  0  0  0  0  0  0
   -0.0950    6.1264   13.8418 C   0  0  0  0  0  0  0  0  0  0  0  0
   -0.2871    7.4959   13.8823 C   0  0  0  0  0  0  0  0  0  0  0  0
   -0.1816    8.0779   12.9803 H   0  0  0  0  0  0  0  0  0  0  0  0
   -0.6254    8.1066   15.0772 C   0  0  0  0  0  0  0  0  0  0  0  0
   -0.7852    9.1729   15.1021 H   0  0  0  0  0  0  0  0  0  0  0  0
   -0.7591    7.3541   16.2315 C   0  0  0  0  0  0  0  0  0  0  0  0
   -1.0240    7.8248   17.1645 H   0  0  0  0  0  0  0  0  0  0  0  0
   -0.5602    5.9852   16.1920 C   0  0  0  0  0  0  0  0  0  0  0  0
   -0.6634    5.3802   17.0815 H   0  0  0  0  0  0  0  0  0  0  0  0
   -2.9142    2.4511   13.1307 C   0  0  0  0  0  0  0  0  0  0  0  0
   -4.0194    3.2812   13.2564 C   0  0  0  0  0  0  0  0  0  0  0  0
   -5.2653    2.8586   12.8281 C   0  0  0  0  0  0  0  0  0  0  0  0
   -6.1185    3.5097   12.9365 H   0  0  0  0  0  0  0  0  0  0  0  0
   -5.4039    1.6022   12.2646 C   0  0  0  0  0  0  0  0  0  0  0  0
   -6.3775    1.2728   11.9376 H   0  0  0  0  0  0  0  0  0  0  0  0
   -4.3011    0.7785   12.1162 C   0  0  0  0  0  0  0  0  0  0  0  0
   -4.4054   -0.1978   11.6708 H   0  0  0  0  0  0  0  0  0  0  0  0
   -3.0572    1.2003   12.5503 C   0  0  0  0  0  0  0  0  0  0  0  0
   -2.1832    0.5757   12.4518 H   0  0  0  0  0  0  0  0  0  0  0  0
   -0.0895    1.0482   16.3771 C   0  0  0  0  0  0  0  0  0  0  0  0
   -1.0194    0.1789   16.9317 C   0  0  0  0  0  0  0  0  0  0  0  0
   -0.7859   -0.4118   18.1597 C   0  0  0  0  0  0  0  0  0  0  0  0
   -1.5187   -1.0803   18.5833 H   0  0  0  0  0  0  0  0  0  0  0  0
    0.3861   -0.1268   18.8396 C   0  0  0  0  0  0  0  0  0  0  0  0
    0.5651   -0.5821   19.8008 H   0  0  0  0  0  0  0  0  0  0  0  0
    1.3178    0.7391   18.2926 C   0  0  0  0  0  0  0  0  0  0  0  0
    2.2296    0.9635   18.8235 H   0  0  0  0  0  0  0  0  0  0  0  0
    1.0790    1.3324   17.0650 C   0  0  0  0  0  0  0  0  0  0  0  0
    1.7843    2.0180   16.6203 H   0  0  0  0  0  0  0  0  0  0  0  0
   -3.8088    3.3950   18.7095 Cl  0  0  0  0  0  0  0  0  0  0  0  0
    0.3913    5.1725   12.0304 I   0  0  0  0  0  0  0  0  0  0  0  0
   -3.7716    5.2144   14.0701 I   0  0  0  0  0  0  0  0  0  0  0  0
   -2.7934   -0.2222   15.8656 I   0  0  0  0  0  0  0  0  0  0  0  0
   -0.0275    4.0012   14.9490 O   0  0  0  0  0  0  0  0  0  0  0  0
   -1.6653    2.8670   13.5405 O   0  0  0  0  0  0  0  0  0  0  0  0
   -0.3288    1.6285   15.1468 O   0  0  0  0  0  0  0  0  0  0  0  0
   -1.2229    2.9513   15.0698 P   0  0  0  0  0  4  0  0  0  0  0  0
  1 32  1  0  0  0  0
  2 10  1  0  0  0  0
  3  4  1  0  0  0  0
  3  2  2  0  0  0  0
  4  6  2  0  0  0  0
  5  4  1  0  0  0  0
  6  7  1  0  0  0  0
  6  8  1  0  0  0  0
  8  9  1  0  0  0  0
 10  8  2  0  0  0  0
 10 11  1  0  0  0  0
 12 13  1  0  0  0  0
 12 37  1  0  0  0  0
 13 34  1  0  0  0  0
 14 15  1  0  0  0  0
 14 13  2  0  0  0  0
 16 14  1  0  0  0  0
 17 16  1  0  0  0  0
 18 16  2  0  0  0  0
 18 20  1  0  0  0  0
 19 18  1  0  0  0  0
 20 12  2  0  0  0  0
 21 20  1  0  0  0  0
 22 23  2  0  0  0  0
 22 30  1  0  0  0  0
 23 24  1  0  0  0  0
 24 25  1  0  0  0  0
 24 26  2  0  0  0  0
 26 27  1  0  0  0  0
 28 29  1  0  0  0  0
 28 26  1  0  0  0  0
 30 28  2  0  0  0  0
 31 30  1  0  0  0  0
 33  3  1  0  0  0  0
 35 23  1  0  0  0  0
 36  2  1  0  0  0  0
 36 39  1  0  0  0  0
 37 39  1  0  0  0  0
 38 22  1  0  0  0  0
 39 38  1  0  0  0  0
 39  1  1  0  0  0  0
M  END
$$$$
