CSD_code = FISJAS | q = -1 | S = 0 | Stoichiometry = C15H9Br3ClN2O2PtS(1-) | MND = 4
 OpenBabel04212202033D

 34 36  0  0  0  0  0  0  0  0999 V2000
    7.4325   13.2767    4.0954 Pt  0  0  0  0  0  0  0  0  0  0  0  0
    4.9627   13.3499    4.1108 Br  0  0  0  0  0  0  0  0  0  0  0  0
    7.5195   11.7903    5.9449 Br  0  0  0  0  0  0  0  0  0  0  0  0
    9.8836   13.3383    3.8577 Br  0  0  0  0  0  0  0  0  0  0  0  0
    7.3339   14.5841    2.6143 N   0  0  0  0  0  0  0  0  0  0  0  0
    7.4851   15.9179    2.8552 C   0  0  0  0  0  0  0  0  0  0  0  0
    7.8076   16.4976    4.0804 C   0  0  0  0  0  0  0  0  0  0  0  0
    7.9218   17.8685    4.1536 C   0  0  0  0  0  0  0  0  0  0  0  0
    7.7190   18.6663    3.0294 C   0  0  0  0  0  0  0  0  0  0  0  0
    7.3931   18.1092    1.8075 C   0  0  0  0  0  0  0  0  0  0  0  0
    7.2763   16.7326    1.7276 C   0  0  0  0  0  0  0  0  0  0  0  0
    6.8734   15.7472    0.3523 S   0  0  0  0  0  0  0  0  0  0  0  0
    7.0145   14.3123    1.3698 C   0  0  0  0  0  0  0  0  0  0  0  0
    6.8126   13.0067    0.8643 C   0  0  0  0  0  0  0  0  0  0  0  0
    6.3663   12.7630   -0.3901 C   0  0  0  0  0  3  0  0  0  0  0  0
    6.1462   11.4774   -0.9901 C   0  0  0  0  0  0  0  0  0  0  0  0
    6.6017   10.2858   -0.4159 C   0  0  0  0  0  0  0  0  0  0  0  0
    6.3905    9.0682   -1.0398 C   0  0  0  0  0  0  0  0  0  0  0  0
    5.7086    8.9809   -2.2535 C   0  0  0  0  0  0  0  0  0  0  0  0
    5.2497   10.1430   -2.8387 C   0  0  0  0  0  0  0  0  0  0  0  0
    5.4684   11.3647   -2.2243 C   0  0  0  0  0  0  0  0  0  0  0  0
    4.8652   12.7722   -3.0210 Cl  0  0  0  0  0  0  0  0  0  0  0  0
    6.8962    7.8660   -0.4403 N   0  0  0  0  0  0  0  0  0  0  0  0
    7.5378    7.9611    0.5868 O   0  0  0  0  0  0  0  0  0  0  0  0
    6.6593    6.8114   -1.0070 O   0  0  0  0  0  0  0  0  0  0  0  0
    7.9638   15.8674    4.9483 H   0  0  0  0  0  0  0  0  0  0  0  0
    8.1725   18.3318    5.0957 H   0  0  0  0  0  0  0  0  0  0  0  0
    7.8160   19.7386    3.1133 H   0  0  0  0  0  0  0  0  0  0  0  0
    7.2317   18.7225    0.9347 H   0  0  0  0  0  0  0  0  0  0  0  0
    7.0174   12.2024    1.5650 H   0  0  0  0  0  0  0  0  0  0  0  0
    6.1302   13.6191   -1.0092 H   0  0  0  0  0  0  0  0  0  0  0  0
    7.1401   10.2974    0.5189 H   0  0  0  0  0  0  0  0  0  0  0  0
    5.5578    8.0172   -2.7121 H   0  0  0  0  0  0  0  0  0  0  0  0
    4.7205   10.1087   -3.7782 H   0  0  0  0  0  0  0  0  0  0  0  0
  1  2  1  0  0  0  0
  1  3  1  0  0  0  0
  4  1  1  0  0  0  0
  5  6  1  0  0  0  0
  5  1  1  0  0  0  0
  6  7  1  0  0  0  0
  7  8  2  0  0  0  0
  7 26  1  0  0  0  0
  8 27  1  0  0  0  0
  9 28  1  0  0  0  0
  9  8  1  0  0  0  0
 10  9  2  0  0  0  0
 11 10  1  0  0  0  0
 11  6  2  0  0  0  0
 12 13  1  0  0  0  0
 12 11  1  0  0  0  0
 13  5  1  0  0  0  0
 14 13  2  0  0  0  0
 14 30  1  0  0  0  0
 15 14  1  0  0  0  0
 16 17  1  0  0  0  0
 16 15  1  0  0  0  0
 17 32  1  0  0  0  0
 18 23  1  0  0  0  0
 18 17  2  0  0  0  0
 19 18  1  0  0  0  0
 20 19  2  0  0  0  0
 20 21  1  0  0  0  0
 21 16  2  0  0  0  0
 22 21  1  0  0  0  0
 23 24  2  0  0  0  0
 25 23  2  0  0  0  0
 29 10  1  0  0  0  0
 31 15  1  0  0  0  0
 33 19  1  0  0  0  0
 34 20  1  0  0  0  0
M  END
$$$$
