CSD_code = FISKUN | q = 0 | S = 0 | Stoichiometry = C20H28Cl2N2O4Pd | MND = 4
 OpenBabel04212202033D

 57 58  0  0  1  0  0  0  0  0999 V2000
   -0.0003   -0.0005   -0.0001 Pd  0  0  0  0  0  0  0  0  0  0  0  0
    2.1700    0.6197   -0.3707 Cl  0  0  0  0  0  0  0  0  0  0  0  0
   -0.6884    3.8990   -2.6349 O   0  0  0  0  0  0  0  0  0  0  0  0
   -1.4700    4.9053   -0.6780 O   0  0  0  0  0  0  0  0  0  0  0  0
   -0.6686    1.3918   -1.3263 N   0  0  0  0  0  4  0  0  0  0  0  0
   -0.8534    2.6306   -0.5717 C   0  0  0  0  0  0  0  0  0  0  0  0
   -1.4720    3.7454   -1.4679 C   0  0  2  0  0  0  0  0  0  0  0  0
   -2.8665    3.3085   -1.8876 C   0  0  0  0  0  0  0  0  0  0  0  0
   -3.8894    3.3576   -0.9473 C   0  0  0  0  0  0  0  0  0  0  0  0
   -5.1592    2.9253   -1.2807 C   0  0  0  0  0  0  0  0  0  0  0  0
   -5.4147    2.4345   -2.5506 C   0  0  0  0  0  0  0  0  0  0  0  0
   -4.3974    2.3814   -3.4870 C   0  0  0  0  0  0  0  0  0  0  0  0
   -3.1239    2.8154   -3.1592 C   0  0  0  0  0  0  0  0  0  0  0  0
    0.5983    4.3318   -2.4631 C   0  0  0  0  0  3  0  0  0  0  0  0
   -2.0223    6.0555   -1.2927 C   0  0  0  0  0  0  0  0  0  0  0  0
   -1.5698    1.0893   -1.7154 H   0  0  0  0  0  0  0  0  0  0  0  0
   -0.0076    1.5571   -2.0930 H   0  0  0  0  0  0  0  0  0  0  0  0
    0.1201    2.9784   -0.2044 H   0  0  0  0  0  0  0  0  0  0  0  0
   -1.5273    2.4516    0.2755 H   0  0  0  0  0  0  0  0  0  0  0  0
   -3.6822    3.7418    0.0405 H   0  0  0  0  0  0  0  0  0  0  0  0
   -5.9489    2.9664   -0.5461 H   0  0  0  0  0  0  0  0  0  0  0  0
   -6.4057    2.0928   -2.8088 H   0  0  0  0  0  0  0  0  0  0  0  0
   -4.5915    1.9984   -4.4776 H   0  0  0  0  0  0  0  0  0  0  0  0
   -2.3311    2.7818   -3.8903 H   0  0  0  0  0  0  0  0  0  0  0  0
    0.8647    4.8410   -1.5564 H   0  0  0  0  0  0  0  0  0  0  0  0
    1.0987    4.5240   -3.3905 H   0  0  0  0  0  0  0  0  0  0  0  0
   -1.4828    6.3123   -2.2090 H   0  0  0  0  0  0  0  0  0  0  0  0
   -3.0806    5.9104   -1.5284 H   0  0  0  0  0  0  0  0  0  0  0  0
   -1.9106    6.8561   -0.5655 H   0  0  0  0  0  0  0  0  0  0  0  0
   -2.1709   -0.6193    0.3701 Cl  0  0  0  0  0  0  0  0  0  0  0  0
    0.6680   -1.3923    1.3265 N   0  0  0  0  0  4  0  0  0  0  0  0
    0.8529   -2.6311    0.5719 C   0  0  0  0  0  0  0  0  0  0  0  0
    1.5692   -1.0899    1.7158 H   0  0  0  0  0  0  0  0  0  0  0  0
    0.0070   -1.5577    2.0932 H   0  0  0  0  0  0  0  0  0  0  0  0
    1.4719   -3.7457    1.4681 C   0  0  1  0  0  0  0  0  0  0  0  0
   -0.1206   -2.9791    0.2049 H   0  0  0  0  0  0  0  0  0  0  0  0
    1.5266   -2.4520   -0.2754 H   0  0  0  0  0  0  0  0  0  0  0  0
    0.6885   -3.8992    2.6352 O   0  0  0  0  0  0  0  0  0  0  0  0
    1.4700   -4.9057    0.6783 O   0  0  0  0  0  0  0  0  0  0  0  0
    2.8663   -3.3082    1.8875 C   0  0  0  0  0  0  0  0  0  0  0  0
   -0.5980   -4.3328    2.4636 C   0  0  0  0  0  3  0  0  0  0  0  0
    2.0233   -6.0555    1.2929 C   0  0  0  0  0  0  0  0  0  0  0  0
    3.8890   -3.3568    0.9469 C   0  0  0  0  0  0  0  0  0  0  0  0
    3.1239   -2.8153    3.1591 C   0  0  0  0  0  0  0  0  0  0  0  0
   -0.8632   -4.8439    1.5575 H   0  0  0  0  0  0  0  0  0  0  0  0
   -1.0977   -4.5254    3.3913 H   0  0  0  0  0  0  0  0  0  0  0  0
    1.4845   -6.3126    2.2094 H   0  0  0  0  0  0  0  0  0  0  0  0
    3.0817   -5.9096    1.5280 H   0  0  0  0  0  0  0  0  0  0  0  0
    1.9119   -6.8561    0.5657 H   0  0  0  0  0  0  0  0  0  0  0  0
    5.1587   -2.9240    1.2801 C   0  0  0  0  0  0  0  0  0  0  0  0
    3.6818   -3.7409   -0.0409 H   0  0  0  0  0  0  0  0  0  0  0  0
    4.3972   -2.3808    3.4867 C   0  0  0  0  0  0  0  0  0  0  0  0
    2.3313   -2.7824    3.8905 H   0  0  0  0  0  0  0  0  0  0  0  0
    5.4143   -2.4332    2.5499 C   0  0  0  0  0  0  0  0  0  0  0  0
    5.9482   -2.9645    0.5453 H   0  0  0  0  0  0  0  0  0  0  0  0
    4.5914   -1.9979    4.4773 H   0  0  0  0  0  0  0  0  0  0  0  0
    6.4051   -2.0910    2.8079 H   0  0  0  0  0  0  0  0  0  0  0  0
  1 30  1  0  0  0  0
  1 31  1  0  0  0  0
  2  1  1  0  0  0  0
  3 14  1  0  0  0  0
  5  6  1  0  0  0  0
  5  1  1  0  0  0  0
  6 18  1  0  0  0  0
  6 19  1  0  0  0  0
  7  3  1  6  0  0  0
  7  4  1  0  0  0  0
  7  6  1  0  0  0  0
  8  7  1  0  0  0  0
  8  9  1  0  0  0  0
  9 20  1  0  0  0  0
 10  9  2  0  0  0  0
 10 21  1  0  0  0  0
 11 10  1  0  0  0  0
 12 13  1  0  0  0  0
 12 11  2  0  0  0  0
 13  8  2  0  0  0  0
 14 25  1  0  0  0  0
 15  4  1  0  0  0  0
 15 29  1  0  0  0  0
 16  5  1  0  0  0  0
 17  5  1  0  0  0  0
 22 11  1  0  0  0  0
 23 12  1  0  0  0  0
 24 13  1  0  0  0  0
 26 14  1  0  0  0  0
 27 15  1  0  0  0  0
 28 15  1  0  0  0  0
 31 33  1  0  0  0  0
 31 34  1  0  0  0  0
 32 31  1  0  0  0  0
 32 35  1  0  0  0  0
 35 39  1  6  0  0  0
 35 40  1  0  0  0  0
 35 38  1  0  0  0  0
 36 32  1  0  0  0  0
 37 32  1  0  0  0  0
 39 42  1  0  0  0  0
 40 44  1  0  0  0  0
 41 38  1  0  0  0  0
 41 46  1  0  0  0  0
 42 48  1  0  0  0  0
 42 47  1  0  0  0  0
 43 50  1  0  0  0  0
 43 40  2  0  0  0  0
 44 52  2  0  0  0  0
 44 53  1  0  0  0  0
 45 41  1  0  0  0  0
 49 42  1  0  0  0  0
 50 54  2  0  0  0  0
 51 43  1  0  0  0  0
 52 56  1  0  0  0  0
 54 57  1  0  0  0  0
 54 52  1  0  0  0  0
 55 50  1  0  0  0  0
M  END
$$$$
