CSD_code = FISLAU | q = 0 | S = 0 | Stoichiometry = C18H22Cl2N2Pd | MND = 4
 OpenBabel04212202033D

 45 46  0  0  0  0  0  0  0  0999 V2000
    3.9667    6.0490    4.6126 Pd  0  0  0  0  0  0  0  0  0  0  0  0
    4.8933    8.1567    4.4986 Cl  0  0  0  0  0  0  0  0  0  0  0  0
    2.2994    6.6870    3.8072 N   0  0  0  0  0  0  0  0  0  0  0  0
    2.2009    6.2874    2.4701 C   0  0  0  0  0  0  0  0  0  0  0  0
    1.0807    5.6138    1.9863 C   0  0  0  0  0  0  0  0  0  0  0  0
    1.0699    5.1432    0.6854 C   0  0  0  0  0  0  0  0  0  0  0  0
    2.1595    5.3463   -0.1436 C   0  0  0  0  0  0  0  0  0  0  0  0
    3.2774    6.0127    0.3356 C   0  0  0  0  0  0  0  0  0  0  0  0
    3.3093    6.4735    1.6375 C   0  0  0  0  0  0  0  0  0  0  0  0
    1.4338    7.3463    4.4713 C   0  0  0  0  0  3  0  0  0  0  0  0
    1.6833    7.5270    5.9372 C   0  0  0  0  0  0  0  0  0  0  0  0
    0.2138    7.9840    3.8880 C   0  0  0  0  0  0  0  0  0  0  0  0
    0.2476    5.4185    2.6447 H   0  0  0  0  0  0  0  0  0  0  0  0
    0.2046    4.6097    0.3213 H   0  0  0  0  0  0  0  0  0  0  0  0
    2.1435    4.9762   -1.1576 H   0  0  0  0  0  0  0  0  0  0  0  0
    4.1312    6.1665   -0.3075 H   0  0  0  0  0  0  0  0  0  0  0  0
    4.1742    7.0127    2.0200 H   0  0  0  0  0  0  0  0  0  0  0  0
    0.8670    8.0568    6.4208 H   0  0  0  0  0  0  0  0  0  0  0  0
    2.6151    8.0905    6.0810 H   0  0  0  0  0  0  0  0  0  0  0  0
    1.8097    6.5419    6.4064 H   0  0  0  0  0  0  0  0  0  0  0  0
   -0.6797    7.4712    4.2437 H   0  0  0  0  0  0  0  0  0  0  0  0
    0.2285    7.9603    2.8010 H   0  0  0  0  0  0  0  0  0  0  0  0
    0.1581    9.0182    4.2245 H   0  0  0  0  0  0  0  0  0  0  0  0
    3.0405    3.9410    4.7267 Cl  0  0  0  0  0  0  0  0  0  0  0  0
    5.6342    5.4109    5.4178 N   0  0  0  0  0  0  0  0  0  0  0  0
    5.7326    5.8107    6.7549 C   0  0  0  0  0  0  0  0  0  0  0  0
    6.4999    4.7518    4.7537 C   0  0  0  0  0  3  0  0  0  0  0  0
    6.8526    6.4848    7.2385 C   0  0  0  0  0  0  0  0  0  0  0  0
    4.6244    5.6243    7.5876 C   0  0  0  0  0  0  0  0  0  0  0  0
    6.2503    4.5709    3.2879 C   0  0  0  0  0  0  0  0  0  0  0  0
    7.7201    4.1146    5.3370 C   0  0  0  0  0  0  0  0  0  0  0  0
    6.8633    6.9555    8.5394 C   0  0  0  0  0  0  0  0  0  0  0  0
    7.6856    6.6803    6.5801 H   0  0  0  0  0  0  0  0  0  0  0  0
    4.6563    6.0851    8.8895 C   0  0  0  0  0  0  0  0  0  0  0  0
    3.7597    5.0847    7.2053 H   0  0  0  0  0  0  0  0  0  0  0  0
    7.0665    4.0407    2.8044 H   0  0  0  0  0  0  0  0  0  0  0  0
    5.3183    4.0079    3.1441 H   0  0  0  0  0  0  0  0  0  0  0  0
    6.1246    5.5560    2.8185 H   0  0  0  0  0  0  0  0  0  0  0  0
    8.6135    4.6274    4.9810 H   0  0  0  0  0  0  0  0  0  0  0  0
    7.7056    4.1385    6.4240 H   0  0  0  0  0  0  0  0  0  0  0  0
    7.7760    3.0803    5.0008 H   0  0  0  0  0  0  0  0  0  0  0  0
    5.7740    6.7520    9.3686 C   0  0  0  0  0  0  0  0  0  0  0  0
    7.7285    7.4893    8.9034 H   0  0  0  0  0  0  0  0  0  0  0  0
    3.8025    5.9312    9.5327 H   0  0  0  0  0  0  0  0  0  0  0  0
    5.7898    7.1222   10.3825 H   0  0  0  0  0  0  0  0  0  0  0  0
  1 24  1  0  0  0  0
  1 25  1  0  0  0  0
  2  1  1  0  0  0  0
  3 10  1  0  0  0  0
  3  1  1  0  0  0  0
  4  3  1  0  0  0  0
  5  4  1  0  0  0  0
  5 13  1  0  0  0  0
  6  5  2  0  0  0  0
  7  8  2  0  0  0  0
  7  6  1  0  0  0  0
  8  9  1  0  0  0  0
  9 17  1  0  0  0  0
  9  4  2  0  0  0  0
 10 11  1  0  0  0  0
 11 19  1  0  0  0  0
 11 20  1  0  0  0  0
 11 18  1  0  0  0  0
 12 23  1  0  0  0  0
 12 21  1  0  0  0  0
 12 10  1  0  0  0  0
 14  6  1  0  0  0  0
 15  7  1  0  0  0  0
 16  8  1  0  0  0  0
 22 12  1  0  0  0  0
 25 26  1  0  0  0  0
 26 28  2  0  0  0  0
 26 29  1  0  0  0  0
 27 31  1  0  0  0  0
 27 25  1  0  0  0  0
 28 32  1  0  0  0  0
 29 34  2  0  0  0  0
 30 27  1  0  0  0  0
 31 40  1  0  0  0  0
 32 43  1  0  0  0  0
 32 42  2  0  0  0  0
 33 28  1  0  0  0  0
 34 42  1  0  0  0  0
 34 44  1  0  0  0  0
 35 29  1  0  0  0  0
 36 30  1  0  0  0  0
 37 30  1  0  0  0  0
 38 30  1  0  0  0  0
 39 31  1  0  0  0  0
 41 31  1  0  0  0  0
 42 45  1  0  0  0  0
M  END
$$$$
