CSD_code = FISLEA | q = 0 | S = 0 | Stoichiometry = C16H26Br2N6O8S2Zn | MND = 4
 OpenBabel04212202033D

 61 62  0  0  1  0  0  0  0  0999 V2000
    1.0967    8.7970    4.4053 Br  0  0  0  0  0  0  0  0  0  0  0  0
    5.1890    8.1892    3.0929 Br  0  0  0  0  0  0  0  0  0  0  0  0
    3.4027    8.4428    4.5725 Zn  0  0  0  0  0  0  0  0  0  0  0  0
    6.0646    4.0126   10.9759 S   0  0  0  0  0  0  0  0  0  0  0  0
    5.2580    8.9818   10.0401 S   0  0  0  0  0  0  0  0  0  0  0  0
    7.1213   12.0739    8.5678 O   0  0  0  0  0  0  0  0  0  0  0  0
    2.8265    5.7114   10.3784 O   0  0  0  0  0  0  0  0  0  0  0  0
    1.2185    6.8514    9.5163 O   0  0  0  0  0  0  0  0  0  0  0  0
    6.1341    8.6993    8.9281 O   0  0  0  0  0  0  0  0  0  0  0  0
    7.9934   11.1401    6.8348 O   0  0  0  0  0  0  0  0  0  0  0  0
    4.6536    3.6555   12.0630 C   0  0  0  0  0  0  0  0  0  0  0  0
    3.9195    4.4371   11.8923 H   0  0  0  0  0  0  0  0  0  0  0  0
    4.2696    2.6894   11.7497 H   0  0  0  0  0  0  0  0  0  0  0  0
    6.6640    5.2614   11.3863 O   0  0  0  0  0  0  0  0  0  0  0  0
    6.9229    2.8660   10.9097 O   0  0  0  0  0  0  0  0  0  0  0  0
    3.8937    8.5399    9.8492 O   0  0  0  0  0  0  0  0  0  0  0  0
    4.1908    9.8536    6.0660 N   0  0  0  0  0  0  0  0  0  0  0  0
    3.5700    6.9909    6.1788 N   0  0  0  0  0  0  0  0  0  0  0  0
    4.6406   10.9463    7.9252 N   0  0  0  0  0  0  0  0  0  0  0  0
    4.3577    6.2060    8.0767 N   0  0  0  0  0  0  0  0  0  0  0  0
    7.0589   11.3889    7.5598 N   0  0  0  0  0  0  0  0  0  0  0  0
    2.3097    6.3341    9.4619 N   0  0  0  0  0  0  0  0  0  0  0  0
    3.6886   10.3199    7.2029 C   0  0  1  0  0  3  0  0  0  0  0  0
    5.5005   10.1706    6.0452 C   0  0  0  0  0  0  0  0  0  0  0  0
    5.8092   10.8574    7.1942 C   0  0  0  0  0  0  0  0  0  0  0  0
    4.6555    6.5612    6.8153 C   0  0  2  0  0  3  0  0  0  0  0  0
    6.0197    6.4971    6.2603 C   0  0  0  0  0  0  0  0  0  0  0  0
    6.4696    5.5245    6.4476 H   0  0  0  0  0  0  0  0  0  0  0  0
    6.6354    7.2609    6.7390 H   0  0  0  0  0  0  0  0  0  0  0  0
    6.0082    6.6797    5.1899 H   0  0  0  0  0  0  0  0  0  0  0  0
    2.5456    6.9340    7.0525 C   0  0  0  0  0  0  0  0  0  0  0  0
    3.0131    6.4540    8.2534 C   0  0  0  0  0  0  0  0  0  0  0  0
    5.2872    5.7868    9.0914 C   0  0  0  0  0  0  0  0  0  0  0  0
    4.9709    6.2459   10.0287 H   0  0  0  0  0  0  0  0  0  0  0  0
    6.2752    6.1743    8.8417 H   0  0  0  0  0  0  0  0  0  0  0  0
    5.3346    4.2854    9.3041 C   0  0  0  0  0  0  0  0  0  0  0  0
    5.9573    3.7616    8.5851 H   0  0  0  0  0  0  0  0  0  0  0  0
    4.3410    3.8469    9.3319 H   0  0  0  0  0  0  0  0  0  0  0  0
    2.2795   10.2065    7.6255 C   0  0  0  0  0  0  0  0  0  0  0  0
    2.2032    9.5468    8.4912 H   0  0  0  0  0  0  0  0  0  0  0  0
    1.6767    9.8016    6.8186 H   0  0  0  0  0  0  0  0  0  0  0  0
    1.8736   11.1819    7.8892 H   0  0  0  0  0  0  0  0  0  0  0  0
    4.4570   11.5211    9.2372 C   0  0  0  0  0  0  0  0  0  0  0  0
    3.3924   11.4642    9.4666 H   0  0  0  0  0  0  0  0  0  0  0  0
    4.7713   12.5704    9.2124 H   0  0  0  0  0  0  0  0  0  0  0  0
    5.2511   10.7906   10.3143 C   0  0  0  0  0  0  0  0  0  0  0  0
    4.8092   10.9648   11.2897 H   0  0  0  0  0  0  0  0  0  0  0  0
    6.2950   11.0946   10.3080 H   0  0  0  0  0  0  0  0  0  0  0  0
    5.9445    8.3145   11.5793 C   0  0  0  0  0  0  0  0  0  0  0  0
    6.3679    7.3313   11.3714 H   0  0  0  0  0  0  0  0  0  0  0  0
    6.7474    8.9955   11.8472 H   0  0  0  0  0  0  0  0  0  0  0  0
    4.8583    8.2359   12.6287 C   0  0  0  0  0  0  0  0  0  0  0  0
    4.5234    9.2240   12.9360 H   0  0  0  0  0  0  0  0  0  0  0  0
    5.2259    7.7090   13.5054 H   0  0  0  0  0  0  0  0  0  0  0  0
    4.0038    7.6921   12.2329 H   0  0  0  0  0  0  0  0  0  0  0  0
    5.1649    3.6324   13.4864 C   0  0  0  0  0  0  0  0  0  0  0  0
    4.3537    3.4488   14.1872 H   0  0  0  0  0  0  0  0  0  0  0  0
    5.6305    4.5860   13.7222 H   0  0  0  0  0  0  0  0  0  0  0  0
    5.9124    2.8502   13.5958 H   0  0  0  0  0  0  0  0  0  0  0  0
    6.1491    9.9145    5.2294 H   0  0  0  0  0  0  0  0  0  0  0  0
    1.5417    7.2053    6.7886 H   0  0  0  0  0  0  0  0  0  0  0  0
  1  3  1  0  0  0  0
  2  3  1  0  0  0  0
  3 17  1  0  0  0  0
  3 18  1  0  0  0  0
  4 14  2  0  0  0  0
  4 11  1  0  0  0  0
  5 46  1  0  0  0  0
  5 49  1  0  0  0  0
  9  5  2  0  0  0  0
 10 21  2  0  0  0  0
 11 56  1  0  0  0  0
 12 11  1  0  0  0  0
 13 11  1  0  0  0  0
 15  4  2  0  0  0  0
 16  5  2  0  0  0  0
 17 23  1  0  0  0  0
 18 26  1  0  0  0  0
 18 31  1  0  0  0  0
 19 43  1  0  0  0  0
 20 32  1  0  0  0  0
 20 33  1  0  0  0  0
 21  6  2  0  0  0  0
 22  8  2  0  0  0  0
 22  7  2  0  0  0  0
 23 39  1  6  0  0  0
 23 19  1  0  0  0  0
 24 17  1  0  0  0  0
 24 25  2  0  0  0  0
 25 21  1  0  0  0  0
 25 19  1  0  0  0  0
 26 27  1  1  0  0  0
 26 20  1  0  0  0  0
 27 28  1  0  0  0  0
 27 29  1  0  0  0  0
 30 27  1  0  0  0  0
 31 32  2  0  0  0  0
 32 22  1  0  0  0  0
 33 36  1  0  0  0  0
 33 34  1  0  0  0  0
 35 33  1  0  0  0  0
 36 38  1  0  0  0  0
 36  4  1  0  0  0  0
 37 36  1  0  0  0  0
 39 42  1  0  0  0  0
 39 40  1  0  0  0  0
 41 39  1  0  0  0  0
 43 44  1  0  0  0  0
 43 46  1  0  0  0  0
 45 43  1  0  0  0  0
 46 47  1  0  0  0  0
 48 46  1  0  0  0  0
 49 51  1  0  0  0  0
 49 52  1  0  0  0  0
 50 49  1  0  0  0  0
 52 53  1  0  0  0  0
 52 54  1  0  0  0  0
 55 52  1  0  0  0  0
 56 59  1  0  0  0  0
 56 58  1  0  0  0  0
 56 57  1  0  0  0  0
 60 24  1  0  0  0  0
 61 31  1  0  0  0  0
M  END
$$$$
