CSD_code = FISTOS | q = 0 | S = 0 | Stoichiometry = C26H32I2N4O2Pd | MND = 4
 OpenBabel04212202033D

 67 70  0  0  1  0  0  0  0  0999 V2000
    9.4217    9.5364    0.0037 Pd  0  0  0  0  0  0  0  0  0  0  0  0
    7.9792    9.6257    1.3965 C   0  0  0  0  0  0  0  0  0  0  0  0
    6.6696   10.2682    3.0756 C   0  0  0  0  0  0  0  0  0  0  0  0
    6.3513   10.8607    3.9077 H   0  0  0  0  0  0  0  0  0  0  0  0
    6.0947    9.1852    2.5066 C   0  0  0  0  0  0  0  0  0  0  0  0
    5.1991    8.6548    2.7560 H   0  0  0  0  0  0  0  0  0  0  0  0
    8.7225   11.6408    2.6034 C   0  0  0  0  0  0  0  0  0  0  0  0
    9.5445   11.5201    1.8739 H   0  0  0  0  0  0  0  0  0  0  0  0
    7.9918   12.9526    2.3258 C   0  0  0  0  0  0  0  0  0  0  0  0
    7.6200   12.9694    1.3024 H   0  0  0  0  0  0  0  0  0  0  0  0
    8.6679   13.7910    2.4675 H   0  0  0  0  0  0  0  0  0  0  0  0
    7.1490   13.0754    3.0033 H   0  0  0  0  0  0  0  0  0  0  0  0
    9.3054   11.5897    4.0114 C   0  0  0  0  0  0  0  0  0  0  0  0
    8.5314   11.7339    4.7622 H   0  0  0  0  0  0  0  0  0  0  0  0
   10.0492   12.3738    4.1237 H   0  0  0  0  0  0  0  0  0  0  0  0
    9.7901   10.6311    4.1837 H   0  0  0  0  0  0  0  0  0  0  0  0
    6.6668    7.7543    0.5629 C   0  0  0  0  0  0  0  0  0  0  0  0
    5.3987    7.5833    0.0285 C   0  0  0  0  0  0  0  0  0  0  0  0
    4.5974    8.2433    0.3253 H   0  0  0  0  0  0  0  0  0  0  0  0
    5.1602    6.5981   -0.9123 C   0  0  0  0  0  0  0  0  0  0  0  0
    4.1680    6.5017   -1.3222 H   0  0  0  0  0  0  0  0  0  0  0  0
    6.1949    5.7649   -1.3250 C   0  0  0  0  0  0  0  0  0  0  0  0
    7.4646    5.9266   -0.7664 C   0  0  0  0  0  0  0  0  0  0  0  0
    8.2473    5.2522   -1.0744 H   0  0  0  0  0  0  0  0  0  0  0  0
    7.7092    6.9197    0.1589 C   0  0  0  0  0  0  0  0  0  0  0  0
    8.6976    7.0096    0.6110 H   0  0  0  0  0  0  0  0  0  0  0  0
    4.8322    4.5704   -2.8662 C   0  0  0  0  0  0  0  0  0  0  0  0
    4.0632    4.2888   -2.1398 H   0  0  0  0  0  0  0  0  0  0  0  0
    4.9814    3.7504   -3.5667 H   0  0  0  0  0  0  0  0  0  0  0  0
    4.5089    5.4609   -3.4144 H   0  0  0  0  0  0  0  0  0  0  0  0
   11.1417    8.6437    1.7669 I   0  0  0  0  0  0  0  0  0  0  0  0
    7.8216   10.5261    2.3776 N   0  0  0  0  0  0  0  0  0  0  0  0
    6.9162    8.7964    1.4779 N   0  0  0  0  0  0  0  0  0  0  0  0
    6.0797    4.7725   -2.2460 O   0  0  0  0  0  0  0  0  0  0  0  0
   10.8628    9.4475   -1.3905 C   0  0  2  0  0  3  0  0  0  0  0  0
   12.1650    8.8071   -3.0762 C   0  0  0  0  0  0  0  0  0  0  0  0
   12.4798    8.2155   -3.9102 H   0  0  0  0  0  0  0  0  0  0  0  0
   12.7417    9.8901   -2.5092 C   0  0  0  0  0  0  0  0  0  0  0  0
   13.6355   10.4216   -2.7627 H   0  0  0  0  0  0  0  0  0  0  0  0
   10.1160    7.4321   -2.5949 C   0  0  0  0  0  0  0  0  0  0  0  0
    9.2972    7.5517   -1.8616 H   0  0  0  0  0  0  0  0  0  0  0  0
   10.8495    6.1212   -2.3209 C   0  0  0  0  0  0  0  0  0  0  0  0
   11.2247    6.1040   -1.2987 H   0  0  0  0  0  0  0  0  0  0  0  0
   10.1742    5.2819   -2.4612 H   0  0  0  0  0  0  0  0  0  0  0  0
   11.6902    6.0002   -3.0012 H   0  0  0  0  0  0  0  0  0  0  0  0
    9.5267    7.4825   -4.0003 C   0  0  0  0  0  0  0  0  0  0  0  0
   10.2974    7.3382   -4.7545 H   0  0  0  0  0  0  0  0  0  0  0  0
    8.7828    6.6979   -4.1088 H   0  0  0  0  0  0  0  0  0  0  0  0
    9.0408    8.4408   -4.1710 H   0  0  0  0  0  0  0  0  0  0  0  0
   12.1792   11.3190   -0.5618 C   0  0  0  0  0  0  0  0  0  0  0  0
   13.4520   11.4936   -0.0398 C   0  0  0  0  0  0  0  0  0  0  0  0
   14.2524   10.8364   -0.3449 H   0  0  0  0  0  0  0  0  0  0  0  0
   13.6970   12.4792    0.8990 C   0  0  0  0  0  0  0  0  0  0  0  0
   14.6930   12.5787    1.2987 H   0  0  0  0  0  0  0  0  0  0  0  0
   12.6639   13.3089    1.3226 C   0  0  0  0  0  0  0  0  0  0  0  0
   11.3889   13.1428    0.7775 C   0  0  0  0  0  0  0  0  0  0  0  0
   10.6071   13.8140    1.0945 H   0  0  0  0  0  0  0  0  0  0  0  0
   11.1383   12.1499   -0.1465 C   0  0  0  0  0  0  0  0  0  0  0  0
   10.1456   12.0573   -0.5887 H   0  0  0  0  0  0  0  0  0  0  0  0
   14.0395   14.5099    2.8471 C   0  0  0  0  0  0  0  0  0  0  0  0
   14.7985   14.7934    2.1110 H   0  0  0  0  0  0  0  0  0  0  0  0
   13.8955   15.3305    3.5480 H   0  0  0  0  0  0  0  0  0  0  0  0
   14.3730   13.6217    3.3927 H   0  0  0  0  0  0  0  0  0  0  0  0
    7.7029   10.4321   -1.7598 I   0  0  0  0  0  0  0  0  0  0  0  0
   11.0166    8.5479   -2.3729 N   0  0  0  0  0  0  0  0  0  0  0  0
   11.9248   10.2776   -1.4761 N   0  0  0  0  0  0  0  0  0  0  0  0
   12.7855   14.3019    2.2421 O   0  0  0  0  0  0  0  0  0  0  0  0
  1  2  2  0  0  0  0
  1 31  1  0  0  0  0
  2 33  1  0  0  0  0
  2 32  1  0  0  0  0
  3  4  1  0  0  0  0
  5  6  1  0  0  0  0
  5  3  2  0  0  0  0
  7 13  1  0  0  0  0
  8  7  1  0  0  0  0
  9 11  1  0  0  0  0
  9  7  1  0  0  0  0
  9 12  1  0  0  0  0
 10  9  1  0  0  0  0
 13 15  1  0  0  0  0
 13 16  1  0  0  0  0
 13 14  1  0  0  0  0
 17 33  1  0  0  0  0
 18 19  1  0  0  0  0
 18 17  2  0  0  0  0
 20 18  1  0  0  0  0
 21 20  1  0  0  0  0
 22 20  2  0  0  0  0
 22 23  1  0  0  0  0
 23 25  2  0  0  0  0
 24 23  1  0  0  0  0
 25 17  1  0  0  0  0
 25 26  1  0  0  0  0
 27 34  1  0  0  0  0
 27 28  1  0  0  0  0
 29 27  1  0  0  0  0
 30 27  1  0  0  0  0
 32  7  1  0  0  0  0
 32  3  1  0  0  0  0
 33  5  1  0  0  0  0
 34 22  1  0  0  0  0
 35  1  1  1  0  0  0
 36 38  2  0  0  0  0
 36 65  1  0  0  0  0
 37 36  1  0  0  0  0
 38 66  1  0  0  0  0
 39 38  1  0  0  0  0
 40 65  1  0  0  0  0
 40 42  1  0  0  0  0
 40 41  1  0  0  0  0
 42 43  1  0  0  0  0
 44 42  1  0  0  0  0
 45 42  1  0  0  0  0
 46 40  1  0  0  0  0
 47 46  1  0  0  0  0
 48 46  1  0  0  0  0
 49 46  1  0  0  0  0
 50 58  2  0  0  0  0
 50 51  1  0  0  0  0
 51 53  2  0  0  0  0
 52 51  1  0  0  0  0
 53 54  1  0  0  0  0
 53 55  1  0  0  0  0
 55 67  1  0  0  0  0
 56 57  1  0  0  0  0
 56 55  2  0  0  0  0
 58 56  1  0  0  0  0
 59 58  1  0  0  0  0
 60 63  1  0  0  0  0
 60 62  1  0  0  0  0
 61 60  1  0  0  0  0
 64  1  1  0  0  0  0
 65 35  1  0  0  0  0
 66 35  1  0  0  0  0
 66 50  1  0  0  0  0
 67 60  1  0  0  0  0
M  END
$$$$
