CSD_code = FISVAG | q = 0 | S = 0 | Stoichiometry = C30H24I2N4Pd | MND = 4
 OpenBabel04212202033D

 61 66  0  0  1  0  0  0  0  0999 V2000
    2.4199    0.0009    4.0581 Pd  0  0  0  0  0  0  0  0  0  0  0  0
    4.3355    0.4452    4.4671 C   0  0  0  0  0  0  0  0  0  0  0  0
    6.2093    1.5322    5.0172 C   0  0  0  0  0  0  0  0  0  0  0  0
    6.9257    2.3268    4.9857 H   0  0  0  0  0  0  0  0  0  0  0  0
    6.2067    0.3653    5.6941 C   0  0  0  0  0  0  0  0  0  0  0  0
    6.9268   -0.0558    6.3643 H   0  0  0  0  0  0  0  0  0  0  0  0
    4.7140    2.6695    3.4496 C   0  0  0  0  0  0  0  0  0  0  0  0
    4.4690    2.4932    2.0947 C   0  0  0  0  0  0  0  0  0  0  0  0
    4.4922    1.5053    1.6628 H   0  0  0  0  0  0  0  0  0  0  0  0
    4.2380    3.5991    1.2961 C   0  0  0  0  0  0  0  0  0  0  0  0
    4.0574    3.4603    0.2413 H   0  0  0  0  0  0  0  0  0  0  0  0
    4.2574    4.8709    1.8425 C   0  0  0  0  0  0  0  0  0  0  0  0
    4.0939    5.7328    1.2129 H   0  0  0  0  0  0  0  0  0  0  0  0
    4.4851    5.0406    3.1987 C   0  0  0  0  0  0  0  0  0  0  0  0
    4.4895    6.0307    3.6299 H   0  0  0  0  0  0  0  0  0  0  0  0
    4.7140    3.9428    4.0074 C   0  0  0  0  0  0  0  0  0  0  0  0
    4.8899    4.0645    5.0665 H   0  0  0  0  0  0  0  0  0  0  0  0
    4.6128   -1.5033    5.9227 C   0  0  0  0  0  0  0  0  0  0  0  0
    4.8199   -1.7323    7.2779 C   0  0  0  0  0  0  0  0  0  0  0  0
    5.2762   -0.9691    7.8905 H   0  0  0  0  0  0  0  0  0  0  0  0
    4.4126   -2.9282    7.8396 C   0  0  0  0  0  0  0  0  0  0  0  0
    4.5712   -3.1011    8.8933 H   0  0  0  0  0  0  0  0  0  0  0  0
    3.8063   -3.8960    7.0572 C   0  0  0  0  0  0  0  0  0  0  0  0
    3.5039   -4.8344    7.4962 H   0  0  0  0  0  0  0  0  0  0  0  0
    3.5892   -3.6610    5.7101 C   0  0  0  0  0  0  0  0  0  0  0  0
    3.1246   -4.4154    5.0938 H   0  0  0  0  0  0  0  0  0  0  0  0
    3.9767   -2.4622    5.1374 C   0  0  0  0  0  0  0  0  0  0  0  0
    3.8587   -2.3130    4.0683 H   0  0  0  0  0  0  0  0  0  0  0  0
    1.9441    0.9614    6.4656 I   0  0  0  0  0  0  0  0  0  0  0  0
    5.0544    1.5668    4.2693 N   0  0  0  0  0  0  0  0  0  0  0  0
    5.0514   -0.2917    5.3478 N   0  0  0  0  0  0  0  0  0  0  0  0
    0.5042   -0.4450    3.6502 C   0  0  2  0  0  3  0  0  0  0  0  0
   -1.3683   -1.5333    3.0982 C   0  0  0  0  0  0  0  0  0  0  0  0
   -2.0842   -2.3284    3.1289 H   0  0  0  0  0  0  0  0  0  0  0  0
   -1.3660   -0.3662    2.4216 C   0  0  0  0  0  0  0  0  0  0  0  0
   -2.0859    0.0546    1.7510 H   0  0  0  0  0  0  0  0  0  0  0  0
    0.1263   -2.6698    4.6669 C   0  0  0  0  0  0  0  0  0  0  0  0
    0.3726   -2.4928    6.0215 C   0  0  0  0  0  0  0  0  0  0  0  0
    0.3508   -1.5045    6.4527 H   0  0  0  0  0  0  0  0  0  0  0  0
    0.6028   -3.5984    6.8208 C   0  0  0  0  0  0  0  0  0  0  0  0
    0.7845   -3.4589    7.8753 H   0  0  0  0  0  0  0  0  0  0  0  0
    0.5815   -4.8706    6.2755 C   0  0  0  0  0  0  0  0  0  0  0  0
    0.7446   -5.7322    6.9055 H   0  0  0  0  0  0  0  0  0  0  0  0
    0.3526   -5.0410    4.9195 C   0  0  0  0  0  0  0  0  0  0  0  0
    0.3468   -6.0314    4.4891 H   0  0  0  0  0  0  0  0  0  0  0  0
    0.1243   -3.9436    4.1101 C   0  0  0  0  0  0  0  0  0  0  0  0
   -0.0526   -4.0659    3.0513 H   0  0  0  0  0  0  0  0  0  0  0  0
    0.2269    1.5034    2.1944 C   0  0  0  0  0  0  0  0  0  0  0  0
    0.0202    1.7326    0.8392 C   0  0  0  0  0  0  0  0  0  0  0  0
   -0.4356    0.9694    0.2264 H   0  0  0  0  0  0  0  0  0  0  0  0
    0.4275    2.9286    0.2779 C   0  0  0  0  0  0  0  0  0  0  0  0
    0.2693    3.1017   -0.7759 H   0  0  0  0  0  0  0  0  0  0  0  0
    1.0334    3.8964    1.0605 C   0  0  0  0  0  0  0  0  0  0  0  0
    1.3360    4.8349    0.6217 H   0  0  0  0  0  0  0  0  0  0  0  0
    1.2500    3.6613    2.4077 C   0  0  0  0  0  0  0  0  0  0  0  0
    1.7142    4.4157    3.0243 H   0  0  0  0  0  0  0  0  0  0  0  0
    0.8624    2.4623    2.9802 C   0  0  0  0  0  0  0  0  0  0  0  0
    0.9800    2.3130    4.0493 H   0  0  0  0  0  0  0  0  0  0  0  0
    2.8965   -0.9608    1.6512 I   0  0  0  0  0  0  0  0  0  0  0  0
   -0.2139   -1.5673    3.8469 N   0  0  0  0  0  0  0  0  0  0  0  0
   -0.2115    0.2915    2.7690 N   0  0  0  0  0  0  0  0  0  0  0  0
  1  2  2  0  0  0  0
  1 29  1  0  0  0  0
  2 31  1  0  0  0  0
  3  5  2  0  0  0  0
  4  3  1  0  0  0  0
  5  6  1  0  0  0  0
  7 16  1  0  0  0  0
  7 30  1  0  0  0  0
  8  7  2  0  0  0  0
  9  8  1  0  0  0  0
 10 12  2  0  0  0  0
 10  8  1  0  0  0  0
 11 10  1  0  0  0  0
 12 14  1  0  0  0  0
 13 12  1  0  0  0  0
 14 15  1  0  0  0  0
 14 16  2  0  0  0  0
 16 17  1  0  0  0  0
 18 19  1  0  0  0  0
 19 21  2  0  0  0  0
 19 20  1  0  0  0  0
 21 22  1  0  0  0  0
 23 24  1  0  0  0  0
 23 21  1  0  0  0  0
 25 23  2  0  0  0  0
 26 25  1  0  0  0  0
 27 25  1  0  0  0  0
 27 18  2  0  0  0  0
 28 27  1  0  0  0  0
 30  2  1  0  0  0  0
 30  3  1  0  0  0  0
 31  5  1  0  0  0  0
 31 18  1  0  0  0  0
 32 60  1  0  0  0  0
 32  1  1  6  0  0  0
 33 34  1  0  0  0  0
 33 60  1  0  0  0  0
 35 61  1  0  0  0  0
 35 33  2  0  0  0  0
 36 35  1  0  0  0  0
 37 38  1  0  0  0  0
 38 39  1  0  0  0  0
 38 40  2  0  0  0  0
 40 41  1  0  0  0  0
 42 40  1  0  0  0  0
 42 43  1  0  0  0  0
 44 42  2  0  0  0  0
 45 44  1  0  0  0  0
 46 37  2  0  0  0  0
 46 44  1  0  0  0  0
 47 46  1  0  0  0  0
 48 61  1  0  0  0  0
 48 57  1  0  0  0  0
 49 48  2  0  0  0  0
 50 49  1  0  0  0  0
 51 49  1  0  0  0  0
 51 53  2  0  0  0  0
 52 51  1  0  0  0  0
 53 55  1  0  0  0  0
 54 53  1  0  0  0  0
 55 57  2  0  0  0  0
 55 56  1  0  0  0  0
 57 58  1  0  0  0  0
 59  1  1  0  0  0  0
 60 37  1  0  0  0  0
 61 32  1  0  0  0  0
M  END
$$$$
