CSD_code = FISVEK | q = 0 | S = 0 | Stoichiometry = C22H24I2N4Pd | MND = 4
 OpenBabel04212202033D

 53 56  0  0  1  0  0  0  0  0999 V2000
    4.3016    7.4473   -0.0003 Pd  0  0  0  0  0  0  0  0  0  0  0  0
    2.7162    6.2318    0.1981 C   0  0  0  0  0  0  0  0  0  0  0  0
    1.2441    4.8173    1.1024 C   0  0  0  0  0  0  0  0  0  0  0  0
    0.8625    4.1095    1.8086 H   0  0  0  0  0  0  0  0  0  0  0  0
    0.7129    5.2927   -0.0456 C   0  0  0  0  0  0  0  0  0  0  0  0
   -0.2304    5.0937   -0.5104 H   0  0  0  0  0  0  0  0  0  0  0  0
    1.4580    6.9042   -1.8094 C   0  0  0  0  0  0  0  0  0  0  0  0
    2.3282    7.5743   -1.9040 H   0  0  0  0  0  0  0  0  0  0  0  0
    0.5485    7.5109   -1.7332 H   0  0  0  0  0  0  0  0  0  0  0  0
    1.3875    5.9852   -3.0227 C   0  0  0  0  0  0  0  0  0  0  0  0
    2.2952    5.3911   -3.0976 H   0  0  0  0  0  0  0  0  0  0  0  0
    1.2937    6.5825   -3.9253 H   0  0  0  0  0  0  0  0  0  0  0  0
    0.5337    5.3145   -2.9573 H   0  0  0  0  0  0  0  0  0  0  0  0
    3.3542    5.2413    2.3317 C   0  0  0  0  0  0  0  0  0  0  0  0
    2.8428    5.1794    3.6222 C   0  0  0  0  0  0  0  0  0  0  0  0
    1.7776    5.2523    3.7823 H   0  0  0  0  0  0  0  0  0  0  0  0
    3.7053    5.0622    4.6962 C   0  0  0  0  0  0  0  0  0  0  0  0
    3.3056    5.0258    5.6980 H   0  0  0  0  0  0  0  0  0  0  0  0
    5.0733    5.0044    4.4898 C   0  0  0  0  0  0  0  0  0  0  0  0
    5.7433    4.9153    5.3314 H   0  0  0  0  0  0  0  0  0  0  0  0
    5.5818    5.0604    3.2032 C   0  0  0  0  0  0  0  0  0  0  0  0
    6.6481    4.9994    3.0406 H   0  0  0  0  0  0  0  0  0  0  0  0
    4.7299    5.1850    2.1173 C   0  0  0  0  0  0  0  0  0  0  0  0
    5.1309    5.1766    1.1021 H   0  0  0  0  0  0  0  0  0  0  0  0
    3.3287    8.9138    1.9425 I   0  0  0  0  0  0  0  0  0  0  0  0
    2.4819    5.3978    1.2366 N   0  0  0  0  0  0  0  0  0  0  0  0
    1.6280    6.1624   -0.5822 N   0  0  0  0  0  0  0  0  0  0  0  0
    5.8874    8.6623   -0.1981 C   0  0  2  0  0  3  0  0  0  0  0  0
    7.3596   10.0767   -1.1024 C   0  0  0  0  0  0  0  0  0  0  0  0
    7.7413   10.7845   -1.8086 H   0  0  0  0  0  0  0  0  0  0  0  0
    7.8908    9.6013    0.0456 C   0  0  0  0  0  0  0  0  0  0  0  0
    8.8341    9.8002    0.5104 H   0  0  0  0  0  0  0  0  0  0  0  0
    7.1456    7.9898    1.8094 C   0  0  0  0  0  0  0  0  0  0  0  0
    6.2754    7.3197    1.9040 H   0  0  0  0  0  0  0  0  0  0  0  0
    8.0551    7.3831    1.7333 H   0  0  0  0  0  0  0  0  0  0  0  0
    7.2161    8.9088    3.0227 C   0  0  0  0  0  0  0  0  0  0  0  0
    6.3083    9.5028    3.0977 H   0  0  0  0  0  0  0  0  0  0  0  0
    7.3102    8.3115    3.9253 H   0  0  0  0  0  0  0  0  0  0  0  0
    8.0698    9.5797    2.9572 H   0  0  0  0  0  0  0  0  0  0  0  0
    5.2495    9.6527   -2.3317 C   0  0  0  0  0  0  0  0  0  0  0  0
    5.7609    9.7145   -3.6222 C   0  0  0  0  0  0  0  0  0  0  0  0
    6.8260    9.6417   -3.7823 H   0  0  0  0  0  0  0  0  0  0  0  0
    4.8983    9.8318   -4.6961 C   0  0  0  0  0  0  0  0  0  0  0  0
    5.2980    9.8682   -5.6980 H   0  0  0  0  0  0  0  0  0  0  0  0
    3.5303    9.8896   -4.4898 C   0  0  0  0  0  0  0  0  0  0  0  0
    2.8603    9.9786   -5.3314 H   0  0  0  0  0  0  0  0  0  0  0  0
    3.0218    9.8335   -3.2032 C   0  0  0  0  0  0  0  0  0  0  0  0
    1.9555    9.8946   -3.0406 H   0  0  0  0  0  0  0  0  0  0  0  0
    3.8737    9.7090   -2.1173 C   0  0  0  0  0  0  0  0  0  0  0  0
    3.4728    9.7174   -1.1021 H   0  0  0  0  0  0  0  0  0  0  0  0
    5.2741    5.9792   -1.9424 I   0  0  0  0  0  0  0  0  0  0  0  0
    6.1218    9.4963   -1.2366 N   0  0  0  0  0  0  0  0  0  0  0  0
    6.9757    8.7316    0.5823 N   0  0  0  0  0  0  0  0  0  0  0  0
  1  2  2  0  0  0  0
  1 25  1  0  0  0  0
  2 26  1  0  0  0  0
  3 26  1  0  0  0  0
  3  4  1  0  0  0  0
  5  3  2  0  0  0  0
  6  5  1  0  0  0  0
  7  9  1  0  0  0  0
  7 27  1  0  0  0  0
  8  7  1  0  0  0  0
 10 13  1  0  0  0  0
 10  7  1  0  0  0  0
 11 10  1  0  0  0  0
 12 10  1  0  0  0  0
 14 15  1  0  0  0  0
 15 16  1  0  0  0  0
 15 17  2  0  0  0  0
 17 18  1  0  0  0  0
 19 17  1  0  0  0  0
 19 20  1  0  0  0  0
 21 19  2  0  0  0  0
 22 21  1  0  0  0  0
 23 14  2  0  0  0  0
 23 21  1  0  0  0  0
 24 23  1  0  0  0  0
 26 14  1  0  0  0  0
 27  5  1  0  0  0  0
 27  2  1  0  0  0  0
 28  1  1  6  0  0  0
 28 53  1  0  0  0  0
 29 31  2  0  0  0  0
 30 29  1  0  0  0  0
 31 32  1  0  0  0  0
 31 53  1  0  0  0  0
 33 34  1  0  0  0  0
 33 36  1  0  0  0  0
 35 33  1  0  0  0  0
 36 37  1  0  0  0  0
 36 38  1  0  0  0  0
 39 36  1  0  0  0  0
 40 49  1  0  0  0  0
 40 52  1  0  0  0  0
 41 40  2  0  0  0  0
 42 41  1  0  0  0  0
 43 45  2  0  0  0  0
 43 41  1  0  0  0  0
 44 43  1  0  0  0  0
 45 47  1  0  0  0  0
 46 45  1  0  0  0  0
 47 48  1  0  0  0  0
 47 49  2  0  0  0  0
 49 50  1  0  0  0  0
 51  1  1  0  0  0  0
 52 29  1  0  0  0  0
 52 28  1  0  0  0  0
 53 33  1  0  0  0  0
M  END
$$$$
