CSD_code = FISYUC | q = 0 | S = 0 | Stoichiometry = C14H38B10Cl2P2Pd | MND = 4
 OpenBabel04212202033D

 67 72  0  0  1  0  0  0  0  0999 V2000
    0.7863    2.5511    0.8775 Pd  0  0  0  0  0  0  0  0  0  0  0  0
    1.2314    4.4877    2.0099 Cl  0  0  0  0  0  0  0  0  0  0  0  0
    2.7397    1.6693    1.7025 Cl  0  0  0  0  0  0  0  0  0  0  0  0
   -1.2201    3.2514    0.1317 P   0  0  0  0  0  0  0  0  0  0  0  0
    0.5560    0.5953   -0.1896 P   0  0  0  0  0  0  0  0  0  0  0  0
   -1.7984    2.0575   -1.2009 C   0  0  2  0  0  0  0  0  0  0  0  0
   -0.8746    0.7005   -1.3875 C   0  0  2  0  0  0  0  0  0  0  0  0
   -2.4453    0.5243   -0.7515 B   0  0  1  0  0  0  0  0  0  0  0  0
   -2.5477    0.2638    0.3860 H   0  0  0  0  0  0  0  0  0  0  0  0
   -3.4326    1.7139   -1.5877 B   0  0  2  0  0  0  0  0  0  0  0  0
   -4.2752    2.2708   -0.9935 H   0  0  0  0  0  0  0  0  0  0  0  0
   -2.4063    2.5832   -2.7208 B   0  0  0  0  0  0  0  0  0  0  0  0
   -2.5608    3.7324   -2.8973 H   0  0  0  0  0  0  0  0  0  0  0  0
   -0.7697    1.9376   -2.5559 B   0  0  1  0  0  0  0  0  0  0  0  0
    0.2093    2.5815   -2.5304 H   0  0  0  0  0  0  0  0  0  0  0  0
   -1.8139   -0.6242   -1.9284 B   0  0  2  0  0  0  0  0  0  0  0  0
   -1.5053   -1.6987   -1.5643 H   0  0  0  0  0  0  0  0  0  0  0  0
   -3.4766   -0.0019   -2.0704 B   0  0  1  0  0  0  0  0  0  0  0  0
   -4.4156   -0.6772   -1.8675 H   0  0  0  0  0  0  0  0  0  0  0  0
   -3.4546    1.2839   -3.3114 B   0  0  1  0  0  0  0  0  0  0  0  0
   -4.3888    1.5160   -3.9841 H   0  0  0  0  0  0  0  0  0  0  0  0
   -1.7794    1.4464   -3.9201 B   0  0  0  0  0  0  0  0  0  0  0  0
   -1.5225    1.7801   -5.0163 H   0  0  0  0  0  0  0  0  0  0  0  0
   -0.8004    0.2551   -3.0575 B   0  0  1  0  0  0  0  0  0  0  0  0
    0.1792   -0.2227   -3.4763 H   0  0  0  0  0  0  0  0  0  0  0  0
   -2.4521   -0.1659   -3.5229 B   0  0  1  0  0  0  0  0  0  0  0  0
   -2.6643   -0.9752   -4.3469 H   0  0  0  0  0  0  0  0  0  0  0  0
   -1.2924    4.9660   -0.6121 C   0  0  0  0  0  0  0  0  0  0  0  0
   -2.1928    5.0573   -1.2294 H   0  0  0  0  0  0  0  0  0  0  0  0
   -0.0394    5.1766   -1.4670 C   0  0  0  0  0  0  0  0  0  0  0  0
    0.1241    6.2405   -1.6251 H   0  0  0  0  0  0  0  0  0  0  0  0
   -0.1232    4.7052   -2.4419 H   0  0  0  0  0  0  0  0  0  0  0  0
    0.8413    4.7820   -0.9417 H   0  0  0  0  0  0  0  0  0  0  0  0
   -1.3159    6.0344    0.4804 C   0  0  0  0  0  0  0  0  0  0  0  0
   -0.4516    5.9161    1.1320 H   0  0  0  0  0  0  0  0  0  0  0  0
   -2.2209    5.9994    1.0754 H   0  0  0  0  0  0  0  0  0  0  0  0
   -1.2631    7.0184    0.0172 H   0  0  0  0  0  0  0  0  0  0  0  0
   -2.5651    3.1347    1.4358 C   0  0  0  0  0  0  0  0  0  0  0  0
   -2.8672    2.0822    1.4139 H   0  0  0  0  0  0  0  0  0  0  0  0
   -3.8271    3.9801    1.2262 C   0  0  0  0  0  0  0  0  0  0  0  0
   -4.6996    3.4283    1.5711 H   0  0  0  0  0  0  0  0  0  0  0  0
   -3.9853    4.2360    0.1818 H   0  0  0  0  0  0  0  0  0  0  0  0
   -3.7792    4.9001    1.8024 H   0  0  0  0  0  0  0  0  0  0  0  0
   -1.9313    3.4030    2.8027 C   0  0  0  0  0  0  0  0  0  0  0  0
   -1.6336    4.4446    2.8981 H   0  0  0  0  0  0  0  0  0  0  0  0
   -1.0308    2.7919    2.9446 H   0  0  0  0  0  0  0  0  0  0  0  0
   -2.6369    3.1685    3.5982 H   0  0  0  0  0  0  0  0  0  0  0  0
    2.1062    0.0558   -1.0721 C   0  0  0  0  0  0  0  0  0  0  0  0
    2.7696   -0.0787   -0.2083 H   0  0  0  0  0  0  0  0  0  0  0  0
    2.6843    1.2276   -1.8667 C   0  0  0  0  0  0  0  0  0  0  0  0
    3.7316    1.0357   -2.0918 H   0  0  0  0  0  0  0  0  0  0  0  0
    2.6342    2.1477   -1.2668 H   0  0  0  0  0  0  0  0  0  0  0  0
    2.1574    1.3825   -2.8054 H   0  0  0  0  0  0  0  0  0  0  0  0
    2.0639   -1.2457   -1.8803 C   0  0  0  0  0  0  0  0  0  0  0  0
    2.0848   -1.0401   -2.9468 H   0  0  0  0  0  0  0  0  0  0  0  0
    1.1723   -1.8327   -1.6709 H   0  0  0  0  0  0  0  0  0  0  0  0
    2.9363   -1.8546   -1.6517 H   0  0  0  0  0  0  0  0  0  0  0  0
    0.1507   -0.7898    1.0132 C   0  0  0  0  0  0  0  0  0  0  0  0
   -0.6238   -1.4295    0.5748 H   0  0  0  0  0  0  0  0  0  0  0  0
    1.3671   -1.6363    1.3826 C   0  0  0  0  0  0  0  0  0  0  0  0
    2.1548   -1.0007    1.7828 H   0  0  0  0  0  0  0  0  0  0  0  0
    1.7518   -2.2006    0.5395 H   0  0  0  0  0  0  0  0  0  0  0  0
    1.0825   -2.3469    2.1574 H   0  0  0  0  0  0  0  0  0  0  0  0
   -0.3816   -0.1399    2.2953 C   0  0  0  0  0  0  0  0  0  0  0  0
   -0.5836   -0.9019    3.0463 H   0  0  0  0  0  0  0  0  0  0  0  0
   -1.3048    0.4125    2.1239 H   0  0  0  0  0  0  0  0  0  0  0  0
    0.3750    0.5431    2.7027 H   0  0  0  0  0  0  0  0  0  0  0  0
  1  3  1  0  0  0  0
  1  2  1  0  0  0  0
  4  1  1  0  0  0  0
  4 38  1  0  0  0  0
  5  1  1  0  0  0  0
  5 58  1  0  0  0  0
  6 12  1  6  0  0  0
  7  6  1  0  0  0  0
  7  8  1  0  0  0  0
  8  9  1  0  0  0  0
 10  6  1  0  0  0  0
 10 11  1  0  0  0  0
 10  8  1  0  0  0  0
 12 10  1  0  0  0  0
 13 12  1  0  0  0  0
 14 15  1  0  0  0  0
 14  7  1  0  0  0  0
 14  6  1  0  0  0  0
 16 17  1  0  0  0  0
 16  7  1  0  0  0  0
 18 19  1  0  0  0  0
 18  8  1  0  0  0  0
 20 18  1  0  0  0  0
 21 20  1  0  0  0  0
 22 20  1  0  0  0  0
 22 24  1  0  0  0  0
 23 22  1  0  0  0  0
 24 14  1  0  0  0  0
 24 16  1  0  0  0  0
 25 24  1  0  0  0  0
 26 20  1  0  0  0  0
 26 18  1  0  0  0  0
 26 16  1  0  0  0  0
 27 26  1  0  0  0  0
 28  4  1  0  0  0  0
 28 34  1  0  0  0  0
 29 28  1  0  0  0  0
 30 33  1  0  0  0  0
 30 28  1  0  0  0  0
 31 30  1  0  0  0  0
 32 30  1  0  0  0  0
 34 36  1  0  0  0  0
 34 35  1  0  0  0  0
 37 34  1  0  0  0  0
 38 44  1  0  0  0  0
 39 38  1  0  0  0  0
 40 38  1  0  0  0  0
 40 41  1  0  0  0  0
 40 43  1  0  0  0  0
 42 40  1  0  0  0  0
 44 45  1  0  0  0  0
 44 46  1  0  0  0  0
 44 47  1  0  0  0  0
 48 49  1  0  0  0  0
 48  5  1  0  0  0  0
 50 52  1  0  0  0  0
 50 48  1  0  0  0  0
 51 50  1  0  0  0  0
 53 50  1  0  0  0  0
 54 56  1  0  0  0  0
 54 57  1  0  0  0  0
 54 48  1  0  0  0  0
 55 54  1  0  0  0  0
 58 60  1  0  0  0  0
 58 64  1  0  0  0  0
 59 58  1  0  0  0  0
 60 61  1  0  0  0  0
 60 63  1  0  0  0  0
 62 60  1  0  0  0  0
 64 67  1  0  0  0  0
 64 65  1  0  0  0  0
 66 64  1  0  0  0  0
M  END
$$$$
