CSD_code = FITDUH | q = 0 | S = 0 | Stoichiometry = C6H12CuIS3 | MND = 4
 OpenBabel04212202033D

 23 25  0  0  0  0  0  0  0  0999 V2000
    0.5411    4.9451    9.0089 I   0  0  0  0  0  0  0  0  0  0  0  0
    0.7128    3.4240    7.0735 Cu  0  0  1  0  0  0  0  0  0  0  0  0
   -0.6168    1.4001    6.6911 S   0  0  1  0  0  3  0  0  0  0  0  0
    0.3557    4.0109    4.7206 S   0  0  2  0  0  3  0  0  0  0  0  0
    2.6952    2.1575    6.3736 S   0  0  2  0  0  3  0  0  0  0  0  0
   -1.4675    1.9214    5.1592 C   0  0  0  0  0  0  0  0  0  0  0  0
   -2.2216    2.6188    5.5260 H   0  0  0  0  0  0  0  0  0  0  0  0
   -1.9681    1.0445    4.7447 H   0  0  0  0  0  0  0  0  0  0  0  0
   -0.6166    2.5859    4.0884 C   0  0  0  0  0  0  0  0  0  0  0  0
    0.0814    1.8881    3.6290 H   0  0  0  0  0  0  0  0  0  0  0  0
   -1.2778    2.9725    3.3114 H   0  0  0  0  0  0  0  0  0  0  0  0
    2.0336    3.6511    4.0902 C   0  0  0  0  0  0  0  0  0  0  0  0
    2.6137    4.5039    4.4450 H   0  0  0  0  0  0  0  0  0  0  0  0
    1.9904    3.6814    3.0000 H   0  0  0  0  0  0  0  0  0  0  0  0
    2.6797    2.3524    4.5467 C   0  0  0  0  0  0  0  0  0  0  0  0
    2.1847    1.4791    4.1254 H   0  0  0  0  0  0  0  0  0  0  0  0
    3.7202    2.3496    4.2183 H   0  0  0  0  0  0  0  0  0  0  0  0
    2.0292    0.4690    6.5932 C   0  0  0  0  0  0  0  0  0  0  0  0
    2.0508    0.3389    7.6759 H   0  0  0  0  0  0  0  0  0  0  0  0
    2.7365   -0.2270    6.1388 H   0  0  0  0  0  0  0  0  0  0  0  0
    0.6290    0.2050    6.0624 C   0  0  0  0  0  0  0  0  0  0  0  0
    0.5922    0.2314    4.9747 H   0  0  0  0  0  0  0  0  0  0  0  0
    0.3143   -0.7859    6.3930 H   0  0  0  0  0  0  0  0  0  0  0  0
  2  1  1  1  0  0  0
  3  6  1  6  0  0  0
  3  2  1  0  0  0  0
  4  9  1  6  0  0  0
  4  2  1  0  0  0  0
  5 15  1  6  0  0  0
  5 18  1  0  0  0  0
  5  2  1  0  0  0  0
  6  7  1  0  0  0  0
  8  6  1  0  0  0  0
  9  6  1  0  0  0  0
 10  9  1  0  0  0  0
 11  9  1  0  0  0  0
 12 13  1  0  0  0  0
 12 15  1  0  0  0  0
 12  4  1  0  0  0  0
 14 12  1  0  0  0  0
 16 15  1  0  0  0  0
 17 15  1  0  0  0  0
 18 19  1  0  0  0  0
 20 18  1  0  0  0  0
 21 23  1  0  0  0  0
 21 18  1  0  0  0  0
 21  3  1  0  0  0  0
 22 21  1  0  0  0  0
M  END
$$$$
