CSD_code = FITTAE | q = 0 | S = 0 | Stoichiometry = C17H17Cl2N3ORuS | MND = 6
 OpenBabel04212202033D

 42 46  0  0  1  0  0  0  0  0999 V2000
    2.3612    6.5176   10.6124 Ru  0  0  0  0  0  0  0  0  0  0  0  0
    2.3200    4.5109   11.8665 S   0  0  0  0  0  0  0  0  0  0  0  0
    3.2811    5.2671    8.8445 Cl  0  0  0  0  0  0  0  0  0  0  0  0
    1.4334    7.5858   12.4918 Cl  0  0  0  0  0  0  0  0  0  0  0  0
    1.0935    3.7371   11.7190 O   0  0  0  0  0  1  0  0  0  0  0  0
    4.1930    7.1624   11.1271 N   0  0  0  0  0  0  0  0  0  0  0  0
    2.3934    8.1098    9.6143 N   0  0  0  0  0  0  0  0  0  0  0  0
    0.5195    6.3977    9.7611 N   0  0  0  0  0  0  0  0  0  0  0  0
    5.0948    6.6096   11.9337 C   0  0  0  0  0  3  0  0  0  0  0  0
    4.8111    5.6719   12.3878 H   0  0  0  0  0  0  0  0  0  0  0  0
    6.3301    7.1638   12.2024 C   0  0  0  0  0  0  0  0  0  0  0  0
    7.0134    6.6605   12.8674 H   0  0  0  0  0  0  0  0  0  0  0  0
    6.6688    8.3709   11.6031 C   0  0  0  0  0  0  0  0  0  0  0  0
    7.6248    8.8343   11.7887 H   0  0  0  0  0  0  0  0  0  0  0  0
    5.7468    8.9605   10.7626 C   0  0  0  0  0  0  0  0  0  0  0  0
    5.9701    9.8966   10.2775 H   0  0  0  0  0  0  0  0  0  0  0  0
    4.5168    8.3442   10.5363 C   0  0  0  0  0  0  0  0  0  0  0  0
    3.4873    8.8928    9.6666 C   0  0  1  0  0  3  0  0  0  0  0  0
    3.5402   10.0768    8.9366 C   0  0  0  0  0  0  0  0  0  0  0  0
    4.4129   10.7074    8.9755 H   0  0  0  0  0  0  0  0  0  0  0  0
    2.4518   10.4343    8.1563 C   0  0  0  0  0  0  0  0  0  0  0  0
    2.4738   11.3474    7.5827 H   0  0  0  0  0  0  0  0  0  0  0  0
    1.3335    9.6143    8.1151 C   0  0  0  0  0  0  0  0  0  0  0  0
    0.4834    9.8841    7.5109 H   0  0  0  0  0  0  0  0  0  0  0  0
    1.3278    8.4418    8.8637 C   0  0  0  0  0  0  0  0  0  0  0  0
    0.2566    7.4571    8.9556 C   0  0  2  0  0  3  0  0  0  0  0  0
   -0.9562    7.5744    8.2791 C   0  0  0  0  0  0  0  0  0  0  0  0
   -1.1356    8.4283    7.6461 H   0  0  0  0  0  0  0  0  0  0  0  0
   -1.9189    6.5952    8.4266 C   0  0  0  0  0  0  0  0  0  0  0  0
   -2.8639    6.6709    7.9109 H   0  0  0  0  0  0  0  0  0  0  0  0
   -1.6376    5.5172    9.2529 C   0  0  0  0  0  0  0  0  0  0  0  0
   -2.3534    4.7256    9.4031 H   0  0  0  0  0  0  0  0  0  0  0  0
   -0.4124    5.4617    9.8948 C   0  0  0  0  0  0  0  0  0  0  0  0
   -0.1656    4.6309   10.5444 H   0  0  0  0  0  0  0  0  0  0  0  0
    3.6374    3.2879   11.5372 C   0  0  0  0  0  0  0  0  0  0  0  0
    4.5766    3.5882   11.9842 H   0  0  0  0  0  0  0  0  0  0  0  0
    3.7394    3.2314   10.4570 H   0  0  0  0  0  0  0  0  0  0  0  0
    3.2955    2.3399   11.9362 H   0  0  0  0  0  0  0  0  0  0  0  0
    2.5231    4.6484   13.6766 C   0  0  0  0  0  0  0  0  0  0  0  0
    3.5383    4.9183   13.9386 H   0  0  0  0  0  0  0  0  0  0  0  0
    1.8386    5.4270   14.0010 H   0  0  0  0  0  0  0  0  0  0  0  0
    2.2426    3.6928   14.1043 H   0  0  0  0  0  0  0  0  0  0  0  0
  1  6  1  0  0  0  0
  1  2  1  0  0  0  0
  1  4  1  0  0  0  0
  2 39  1  0  0  0  0
  3  1  1  0  0  0  0
  5  2  1  0  0  0  0
  6  9  1  0  0  0  0
  7 18  1  0  0  0  0
  7  1  1  0  0  0  0
  8 33  1  0  0  0  0
  8  1  1  0  0  0  0
  9 11  1  0  0  0  0
  9 10  1  0  0  0  0
 11 12  1  0  0  0  0
 13 14  1  0  0  0  0
 13 11  2  0  0  0  0
 15 13  1  0  0  0  0
 16 15  1  0  0  0  0
 17 15  2  0  0  0  0
 17  6  1  0  0  0  0
 18 19  1  6  0  0  0
 18 17  1  0  0  0  0
 19 20  1  0  0  0  0
 21 19  2  0  0  0  0
 22 21  1  0  0  0  0
 23 21  1  0  0  0  0
 23 25  2  0  0  0  0
 24 23  1  0  0  0  0
 25 26  1  0  0  0  0
 25  7  1  0  0  0  0
 26 27  1  1  0  0  0
 26  8  1  0  0  0  0
 27 29  2  0  0  0  0
 28 27  1  0  0  0  0
 29 31  1  0  0  0  0
 30 29  1  0  0  0  0
 31 32  1  0  0  0  0
 31 33  2  0  0  0  0
 33 34  1  0  0  0  0
 35  2  1  0  0  0  0
 35 38  1  0  0  0  0
 35 36  1  0  0  0  0
 37 35  1  0  0  0  0
 39 40  1  0  0  0  0
 39 41  1  0  0  0  0
 39 42  1  0  0  0  0
M  END
$$$$
