CSD_code = FIVLAY | q = 0 | S = 0 | Stoichiometry = C19H21Cl2N2PTi | MND = 9
 OpenBabel04212202033D

 46 45  0  0  0  0  0  0  0  0999 V2000
    3.8263    2.9632    3.2403 Ti  0  0  0  0  0  0  0  0  0  0  0  0
    4.0273    1.3050    4.7301 Cl  0  0  0  0  0 15  0  0  0  0  0  0
    1.8012    2.3724    2.5924 Cl  0  0  0  0  0 15  0  0  0  0  0  0
    3.7139    6.3794    3.9357 P   0  0  0  0  0  0  0  0  0  0  0  0
    3.6928    4.6871    3.8817 N   0  0  0  0  0  0  0  0  0  0  0  0
    3.0159    3.9753    4.8684 N   0  0  0  0  0  0  0  0  0  0  0  0
    3.7062    3.9888    6.1561 C   0  0  0  0  0  0  0  0  0  0  0  0
    1.6139    4.3443    5.0396 C   0  0  0  0  0  0  0  0  0  0  0  0
    5.4611    6.6421    3.4145 C   0  0  0  0  0  0  0  0  0  0  0  0
    6.4347    6.1256    4.2669 C   0  0  0  0  0  0  0  0  0  0  0  0
    7.7780    6.3046    3.9956 C   0  0  0  0  0  0  0  0  0  0  0  0
    8.1671    7.0148    2.8710 C   0  0  0  0  0  0  0  0  0  0  0  0
    7.2060    7.5476    2.0292 C   0  0  0  0  0  0  0  0  0  0  0  0
    5.8601    7.3698    2.2998 C   0  0  0  0  0  0  0  0  0  0  0  0
    2.8365    6.8328    2.3804 C   0  0  0  0  0  0  0  0  0  0  0  0
    2.2446    5.8895    1.5496 C   0  0  0  0  0  0  0  0  0  0  0  0
    1.5516    6.2968    0.4225 C   0  0  0  0  0  0  0  0  0  0  0  0
    1.4356    7.6437    0.1213 C   0  0  0  0  0  0  0  0  0  0  0  0
    2.0017    8.5901    0.9605 C   0  0  0  0  0  0  0  0  0  0  0  0
    2.6892    8.1876    2.0903 C   0  0  0  0  0  0  0  0  0  0  0  0
    5.1051    3.8878    1.5341 C   0  0  0  0  0  0  0  0  0  0  0  0
    4.3217    2.8726    0.9498 C   0  0  0  0  0  0  0  0  0  0  0  0
    4.7159    1.6385    1.5101 C   0  0  0  0  0  0  0  0  0  0  0  0
    5.7590    1.8875    2.4212 C   0  0  0  0  0  0  0  0  0  0  0  0
    5.9846    3.2790    2.4630 C   0  0  0  0  0  3  0  0  0  0  0  0
    4.7468    3.6824    6.0063 H   0  0  0  0  0  0  0  0  0  0  0  0
    3.6746    5.0032    6.5791 H   0  0  0  0  0  0  0  0  0  0  0  0
    3.2278    3.2873    6.8395 H   0  0  0  0  0  0  0  0  0  0  0  0
    1.1290    4.3974    4.0623 H   0  0  0  0  0  0  0  0  0  0  0  0
    1.5450    5.3250    5.5300 H   0  0  0  0  0  0  0  0  0  0  0  0
    1.1120    3.5908    5.6479 H   0  0  0  0  0  0  0  0  0  0  0  0
    6.1289    5.5755    5.1493 H   0  0  0  0  0  0  0  0  0  0  0  0
    8.5235    5.8937    4.6616 H   0  0  0  0  0  0  0  0  0  0  0  0
    9.2156    7.1557    2.6549 H   0  0  0  0  0  0  0  0  0  0  0  0
    7.5049    8.1055    1.1535 H   0  0  0  0  0  0  0  0  0  0  0  0
    5.1219    7.7930    1.6335 H   0  0  0  0  0  0  0  0  0  0  0  0
    2.3229    4.8311    1.7874 H   0  0  0  0  0  0  0  0  0  0  0  0
    1.0972    5.5565   -0.2198 H   0  0  0  0  0  0  0  0  0  0  0  0
    0.8962    7.9573   -0.7602 H   0  0  0  0  0  0  0  0  0  0  0  0
    1.9009    9.6423    0.7365 H   0  0  0  0  0  0  0  0  0  0  0  0
    3.1207    8.9231    2.7570 H   0  0  0  0  0  0  0  0  0  0  0  0
    5.1247    4.9256    1.2327 H   0  0  0  0  0  0  0  0  0  0  0  0
    3.6110    3.0018    0.1419 H   0  0  0  0  0  0  0  0  0  0  0  0
    4.3485    0.6630    1.2156 H   0  0  0  0  0  0  0  0  0  0  0  0
    6.3349    1.1368    2.9475 H   0  0  0  0  0  0  0  0  0  0  0  0
    6.7954    3.7739    2.9829 H   0  0  0  0  0  0  0  0  0  0  0  0
  1  5  1  0  0  0  0
  5  4  1  0  0  0  0
  5  6  1  0  0  0  0
  6  8  1  0  0  0  0
  6  7  1  0  0  0  0
  7 27  1  0  0  0  0
  7 28  1  0  0  0  0
  8 30  1  0  0  0  0
  8 31  1  0  0  0  0
  9  4  1  0  0  0  0
  9 10  1  0  0  0  0
 10 32  1  0  0  0  0
 11 10  2  0  0  0  0
 11 33  1  0  0  0  0
 12 11  1  0  0  0  0
 13 14  1  0  0  0  0
 13 12  2  0  0  0  0
 14  9  2  0  0  0  0
 15  4  1  0  0  0  0
 16 37  1  0  0  0  0
 16 15  2  0  0  0  0
 17 16  1  0  0  0  0
 18 17  2  0  0  0  0
 18 19  1  0  0  0  0
 19 20  2  0  0  0  0
 20 15  1  0  0  0  0
 20 41  1  0  0  0  0
 21 25  1  0  0  0  0
 22 23  1  0  0  0  0
 22 21  2  0  0  0  0
 23 24  2  0  0  0  0
 24 25  1  0  0  0  0
 24 45  1  0  0  0  0
 25 46  1  0  0  0  0
 26  7  1  0  0  0  0
 29  8  1  0  0  0  0
 34 12  1  0  0  0  0
 35 13  1  0  0  0  0
 36 14  1  0  0  0  0
 38 17  1  0  0  0  0
 39 18  1  0  0  0  0
 40 19  1  0  0  0  0
 42 21  1  0  0  0  0
 43 22  1  0  0  0  0
 44 23  1  0  0  0  0
M  END
$$$$
