CSD_code = FIVVIP | q = 0 | S = 0 | Stoichiometry = C16H30Cl2O4PSiTa | MND = 11
 OpenBabel04212202033D

 55 52  0  0  1  0  0  0  0  0999 V2000
    3.1551    2.4299    2.3032 Ta  0  0  0  0  0  0  0  0  0  0  0  0
    3.8021    0.5087    3.3738 Cl  0  0  0  0  0 15  0  0  0  0  0  0
    4.6330    2.0818    0.6467 Cl  0  0  0  0  0 15  0  0  0  0  0  0
    3.4570    5.1549    2.9963 P   0  0  0  0  0  0  0  0  0  0  0  0
    4.4361    3.3325    5.5946 Si  0  0  0  0  0  0  0  0  0  0  0  0
    3.2165    4.7159    1.5912 O   0  0  0  0  0  0  0  0  0  0  0  0
    2.2559    3.2442    3.8087 O   0  0  0  0  0  0  0  0  0  0  0  0
    4.7967    6.0477    3.1302 O   0  0  0  0  0  0  0  0  0  0  0  0
    2.2269    6.1111    3.3589 O   0  0  0  0  0  0  0  0  0  0  0  0
    5.2068    6.8646    2.0416 C   0  0  0  0  0  0  0  0  0  0  0  0
    2.0602    6.6264    4.6675 C   0  0  0  0  0  0  0  0  0  0  0  0
    4.6767    4.9719    6.5487 C   0  0  0  0  0  0  0  0  0  0  0  0
    6.1496    2.6425    5.1074 C   0  0  0  0  0  0  0  0  0  0  0  0
    3.3661    2.1029    6.5807 C   0  0  0  0  0  0  0  0  0  0  0  0
    3.5512    3.6594    3.9602 C   0  0  1  0  0  3  0  0  0  0  0  0
    0.8722    2.5947    1.3840 C   0  0  0  0  0  0  0  0  0  0  0  0
    1.3136    2.3901    0.0480 C   0  0  0  0  0  0  0  0  0  0  0  0
    1.6166    1.0268   -0.1247 C   0  0  0  0  0  0  0  0  0  0  0  0
    1.3840    0.3594    1.0884 C   0  0  0  0  0  0  0  0  0  0  0  0
    0.9408    1.3163    2.0544 C   0  0  2  0  0  3  0  0  0  0  0  0
    0.0800    3.7789    1.8417 C   0  0  0  0  0  0  0  0  0  0  0  0
    1.4261    3.4752   -0.9702 C   0  0  0  0  0  0  0  0  0  0  0  0
    2.2048    0.4366   -1.3632 C   0  0  0  0  0  0  0  0  0  0  0  0
    1.5626   -1.0913    1.3824 C   0  0  0  0  0  0  0  0  0  0  0  0
    0.2512    0.9654    3.3385 C   0  0  0  0  0  0  0  0  0  0  0  0
    6.2950    6.9066    2.0659 H   0  0  0  0  0  0  0  0  0  0  0  0
    4.7925    7.8687    2.1476 H   0  0  0  0  0  0  0  0  0  0  0  0
    4.8702    6.4317    1.0988 H   0  0  0  0  0  0  0  0  0  0  0  0
    1.2618    7.3657    4.6070 H   0  0  0  0  0  0  0  0  0  0  0  0
    2.9788    7.0968    5.0222 H   0  0  0  0  0  0  0  0  0  0  0  0
    1.7736    5.8272    5.3526 H   0  0  0  0  0  0  0  0  0  0  0  0
    3.7546    5.3341    6.9924 H   0  0  0  0  0  0  0  0  0  0  0  0
    5.0645    5.7470    5.8947 H   0  0  0  0  0  0  0  0  0  0  0  0
    5.3902    4.8306    7.3530 H   0  0  0  0  0  0  0  0  0  0  0  0
    6.0561    1.7125    4.5522 H   0  0  0  0  0  0  0  0  0  0  0  0
    6.7604    2.4448    5.9820 H   0  0  0  0  0  0  0  0  0  0  0  0
    6.6891    3.3494    4.4815 H   0  0  0  0  0  0  0  0  0  0  0  0
    3.8260    1.8594    7.5328 H   0  0  0  0  0  0  0  0  0  0  0  0
    3.2397    1.1817    6.0191 H   0  0  0  0  0  0  0  0  0  0  0  0
    2.3761    2.5044    6.7788 H   0  0  0  0  0  0  0  0  0  0  0  0
    0.0660    3.8321    2.9280 H   0  0  0  0  0  0  0  0  0  0  0  0
   -0.9480    3.7050    1.4821 H   0  0  0  0  0  0  0  0  0  0  0  0
    0.5153    4.7002    1.4584 H   0  0  0  0  0  0  0  0  0  0  0  0
    1.9316    4.3348   -0.5309 H   0  0  0  0  0  0  0  0  0  0  0  0
    0.4385    3.7985   -1.3031 H   0  0  0  0  0  0  0  0  0  0  0  0
    1.9955    3.1440   -1.8340 H   0  0  0  0  0  0  0  0  0  0  0  0
    1.7490    0.8650   -2.2533 H   0  0  0  0  0  0  0  0  0  0  0  0
    2.0682   -0.6408   -1.3899 H   0  0  0  0  0  0  0  0  0  0  0  0
    3.2769    0.6460   -1.3899 H   0  0  0  0  0  0  0  0  0  0  0  0
    1.8604   -1.6402    0.4942 H   0  0  0  0  0  0  0  0  0  0  0  0
    0.6374   -1.5198    1.7671 H   0  0  0  0  0  0  0  0  0  0  0  0
    2.3352   -1.2227    2.1432 H   0  0  0  0  0  0  0  0  0  0  0  0
    0.7393    0.1121    3.8055 H   0  0  0  0  0  0  0  0  0  0  0  0
   -0.7942    0.7127    3.1537 H   0  0  0  0  0  0  0  0  0  0  0  0
    0.2907    1.8050    4.0283 H   0  0  0  0  0  0  0  0  0  0  0  0
  1  7  1  0  0  0  0
  4  8  1  0  0  0  0
  4  9  1  0  0  0  0
  4 15  1  0  0  0  0
  5 12  1  0  0  0  0
  5 14  1  0  0  0  0
  6  4  2  0  0  0  0
  9 11  1  0  0  0  0
 10 26  1  0  0  0  0
 10 27  1  0  0  0  0
 10  8  1  0  0  0  0
 11 30  1  0  0  0  0
 11 31  1  0  0  0  0
 12 32  1  0  0  0  0
 12 34  1  0  0  0  0
 13  5  1  0  0  0  0
 13 36  1  0  0  0  0
 14 40  1  0  0  0  0
 14 38  1  0  0  0  0
 15  7  1  1  0  0  0
 15  5  1  0  0  0  0
 16 21  1  0  0  0  0
 16 20  1  0  0  0  0
 17 16  2  0  0  0  0
 18 17  1  0  0  0  0
 18 19  2  0  0  0  0
 19 24  1  0  0  0  0
 19 20  1  0  0  0  0
 20 25  1  6  0  0  0
 21 41  1  0  0  0  0
 22 44  1  0  0  0  0
 22 17  1  0  0  0  0
 23 18  1  0  0  0  0
 24 51  1  0  0  0  0
 24 52  1  0  0  0  0
 25 53  1  0  0  0  0
 25 55  1  0  0  0  0
 28 10  1  0  0  0  0
 29 11  1  0  0  0  0
 33 12  1  0  0  0  0
 35 13  1  0  0  0  0
 37 13  1  0  0  0  0
 39 14  1  0  0  0  0
 42 21  1  0  0  0  0
 43 21  1  0  0  0  0
 45 22  1  0  0  0  0
 46 22  1  0  0  0  0
 47 23  1  0  0  0  0
 48 23  1  0  0  0  0
 49 23  1  0  0  0  0
 50 24  1  0  0  0  0
 54 25  1  0  0  0  0
M  END
$$$$
