CSD_code = FIVWIQ | q = 0 | S = 0 | Stoichiometry = C14H18Cl4N2Ti | MND = 6
 OpenBabel04212202033D

 39 40  0  0  0  0  0  0  0  0999 V2000
    3.6608    8.6854    0.0000 Ti  0  0  0  0  0  0  0  0  0  0  0  0
    2.0443    7.3732    0.8759 Cl  0  0  0  0  0  0  0  0  0  0  0  0
    3.6608    9.8431    1.7377 N   0  0  0  0  0  0  0  0  0  0  0  0
    3.6608   11.1761    1.6646 C   0  0  0  0  0  3  0  0  0  0  0  0
    3.6608   11.6039    0.6651 H   0  0  0  0  0  0  0  0  0  0  0  0
    3.6608   12.0065    2.7762 C   0  0  0  0  0  0  0  0  0  0  0  0
    3.6608   13.4905    2.6080 C   0  0  0  0  0  0  0  0  0  0  0  0
    3.6608   13.7564    1.5552 H   0  0  0  0  0  0  0  0  0  0  0  0
    2.7810   13.9262    3.0797 H   0  0  0  0  0  0  0  0  0  0  0  0
    3.6608   11.4140    4.0465 C   0  0  0  0  0  0  0  0  0  0  0  0
    3.6608   12.2439    5.2849 C   0  0  0  0  0  0  0  0  0  0  0  0
    3.6608   11.6178    6.1725 H   0  0  0  0  0  0  0  0  0  0  0  0
    2.7826   12.8878    5.3077 H   0  0  0  0  0  0  0  0  0  0  0  0
    3.6608   10.0252    4.1083 C   0  0  0  0  0  0  0  0  0  0  0  0
    3.6608    9.5226    5.0633 H   0  0  0  0  0  0  0  0  0  0  0  0
    3.6608    9.2762    2.9460 C   0  0  0  0  0  0  0  0  0  0  0  0
    3.6608    8.1905    2.9789 H   0  0  0  0  0  0  0  0  0  0  0  0
    5.2772    7.3731    0.8760 Cl  0  0  0  0  0  0  0  0  0  0  0  0
    5.2771    9.9978   -0.8761 Cl  0  0  0  0  0  0  0  0  0  0  0  0
    2.0445    9.9978   -0.8760 Cl  0  0  0  0  0  0  0  0  0  0  0  0
    4.5405   13.9262    3.0797 H   0  0  0  0  0  0  0  0  0  0  0  0
    4.5390   12.8878    5.3076 H   0  0  0  0  0  0  0  0  0  0  0  0
    3.6608    7.5278   -1.7377 N   0  0  0  0  0  0  0  0  0  0  0  0
    3.6608    6.1948   -1.6646 C   0  0  0  0  0  3  0  0  0  0  0  0
    3.6608    5.7670   -0.6651 H   0  0  0  0  0  0  0  0  0  0  0  0
    3.6608    5.3644   -2.7762 C   0  0  0  0  0  0  0  0  0  0  0  0
    3.6608    3.8804   -2.6080 C   0  0  0  0  0  0  0  0  0  0  0  0
    3.6608    3.6145   -1.5552 H   0  0  0  0  0  0  0  0  0  0  0  0
    4.5405    3.4447   -3.0797 H   0  0  0  0  0  0  0  0  0  0  0  0
    2.7810    3.4447   -3.0797 H   0  0  0  0  0  0  0  0  0  0  0  0
    3.6608    5.9569   -4.0465 C   0  0  0  0  0  0  0  0  0  0  0  0
    3.6608    5.1270   -5.2849 C   0  0  0  0  0  0  0  0  0  0  0  0
    3.6608    5.7531   -6.1725 H   0  0  0  0  0  0  0  0  0  0  0  0
    4.5390    4.4831   -5.3076 H   0  0  0  0  0  0  0  0  0  0  0  0
    2.7826    4.4831   -5.3077 H   0  0  0  0  0  0  0  0  0  0  0  0
    3.6608    7.3457   -4.1083 C   0  0  0  0  0  0  0  0  0  0  0  0
    3.6608    7.8483   -5.0633 H   0  0  0  0  0  0  0  0  0  0  0  0
    3.6608    8.0947   -2.9460 C   0  0  0  0  0  0  0  0  0  0  0  0
    3.6608    9.1804   -2.9789 H   0  0  0  0  0  0  0  0  0  0  0  0
  1  2  1  0  0  0  0
  1 18  1  0  0  0  0
  1  3  1  0  0  0  0
  3 16  1  0  0  0  0
  4  3  1  0  0  0  0
  4  6  1  0  0  0  0
  5  4  1  0  0  0  0
  6 10  2  0  0  0  0
  7  6  1  0  0  0  0
  7  9  1  0  0  0  0
  7 21  1  0  0  0  0
  8  7  1  0  0  0  0
 10 14  1  0  0  0  0
 10 11  1  0  0  0  0
 11 22  1  0  0  0  0
 11 13  1  0  0  0  0
 11 12  1  0  0  0  0
 14 15  1  0  0  0  0
 16 17  1  0  0  0  0
 16 14  2  0  0  0  0
 19  1  1  0  0  0  0
 20  1  1  0  0  0  0
 23 24  1  0  0  0  0
 23  1  1  0  0  0  0
 24 25  1  0  0  0  0
 26 27  1  0  0  0  0
 26 24  1  0  0  0  0
 27 28  1  0  0  0  0
 29 27  1  0  0  0  0
 30 27  1  0  0  0  0
 31 26  2  0  0  0  0
 32 31  1  0  0  0  0
 33 32  1  0  0  0  0
 34 32  1  0  0  0  0
 35 32  1  0  0  0  0
 36 31  1  0  0  0  0
 36 38  2  0  0  0  0
 37 36  1  0  0  0  0
 38 23  1  0  0  0  0
 39 38  1  0  0  0  0
M  END
$$$$
