CSD_code = FIVXEQ | q = 1 | S = 0 | Stoichiometry = C19H24ClN4Zn(1+) | MND = 5
 OpenBabel04212202033D

 49 53  0  0  1  0  0  0  0  0999 V2000
    2.6402   14.5299   13.2441 Zn  0  0  0  0  0  0  0  0  0  0  0  0
    3.2439   16.3245   12.1803 Cl  0  0  0  0  0  0  0  0  0  0  0  0
    3.5571   13.1180   11.9359 N   0  0  0  0  0  0  0  0  0  0  0  0
    3.7211   13.2643   10.6317 C   0  0  0  0  0  3  0  0  0  0  0  0
    3.1122   14.0207   10.1572 H   0  0  0  0  0  0  0  0  0  0  0  0
    4.6359   12.5163    9.9043 C   0  0  0  0  0  0  0  0  0  0  0  0
    4.7381   12.6660    8.8420 H   0  0  0  0  0  0  0  0  0  0  0  0
    5.4162   11.5920   10.5788 C   0  0  0  0  0  0  0  0  0  0  0  0
    6.1506   11.0008   10.0538 H   0  0  0  0  0  0  0  0  0  0  0  0
    5.2505   11.4449   11.9479 C   0  0  0  0  0  0  0  0  0  0  0  0
    5.8730   10.7565   12.4956 H   0  0  0  0  0  0  0  0  0  0  0  0
    4.3026   12.2292   12.5996 C   0  0  0  0  0  0  0  0  0  0  0  0
    4.1198   12.2018   14.0630 C   0  0  1  0  0  3  0  0  0  0  0  0
    4.5519   10.9952   14.8293 C   0  0  0  0  0  0  0  0  0  0  0  0
    5.5267   11.1699   15.2872 H   0  0  0  0  0  0  0  0  0  0  0  0
    4.6208   10.1215   14.1895 H   0  0  0  0  0  0  0  0  0  0  0  0
    3.8435   10.7849   15.6284 H   0  0  0  0  0  0  0  0  0  0  0  0
    3.6235   13.2530   14.5868 N   0  0  2  0  0  0  0  0  0  0  0  0
    3.4909   13.3974   16.0106 C   0  0  0  0  0  0  0  0  0  0  0  0
    4.3451   12.9337   16.5169 H   0  0  0  0  0  0  0  0  0  0  0  0
    2.5852   12.8682   16.3325 H   0  0  0  0  0  0  0  0  0  0  0  0
    3.4094   14.8669   16.4675 C   0  0  0  0  0  0  0  0  0  0  0  0
    3.6301   14.8867   17.9860 C   0  0  0  0  0  0  0  0  0  0  0  0
    3.4982   15.8926   18.3753 H   0  0  0  0  0  0  0  0  0  0  0  0
    4.6394   14.5655   18.2283 H   0  0  0  0  0  0  0  0  0  0  0  0
    2.9295   14.2283   18.4951 H   0  0  0  0  0  0  0  0  0  0  0  0
    4.4975   15.7038   15.7952 C   0  0  0  0  0  0  0  0  0  0  0  0
    4.3083   15.8288   14.7307 H   0  0  0  0  0  0  0  0  0  0  0  0
    5.4696   15.2331   15.9192 H   0  0  0  0  0  0  0  0  0  0  0  0
    4.5393   16.6916   16.2468 H   0  0  0  0  0  0  0  0  0  0  0  0
    2.0193   15.4685   16.2020 C   0  0  0  0  0  0  0  0  0  0  0  0
    1.2973   15.0002   16.8856 H   0  0  0  0  0  0  0  0  0  0  0  0
    2.0529   16.5366   16.4498 H   0  0  0  0  0  0  0  0  0  0  0  0
    1.5569   15.3010   14.8519 N   0  0  1  0  0  0  0  0  0  0  0  0
    0.4201   15.7571   14.4912 C   0  0  2  0  0  3  0  0  0  0  0  0
   -0.5024   16.4984   15.3992 C   0  0  0  0  0  0  0  0  0  0  0  0
   -0.5462   16.0105   16.3724 H   0  0  0  0  0  0  0  0  0  0  0  0
   -1.5086   16.5618   14.9996 H   0  0  0  0  0  0  0  0  0  0  0  0
   -0.1197   17.5074   15.5609 H   0  0  0  0  0  0  0  0  0  0  0  0
    0.0132   15.5046   13.0969 C   0  0  1  0  0  3  0  0  0  0  0  0
   -0.9622   16.2564   12.4480 C   0  0  0  0  0  0  0  0  0  0  0  0
   -1.4255   17.0999   12.9329 H   0  0  0  0  0  0  0  0  0  0  0  0
   -1.3037   15.9358   11.1436 C   0  0  0  0  0  0  0  0  0  0  0  0
   -2.0436   16.5171   10.6156 H   0  0  0  0  0  0  0  0  0  0  0  0
   -0.6840   14.8559   10.5373 C   0  0  0  0  0  0  0  0  0  0  0  0
   -0.9392   14.5549    9.5344 H   0  0  0  0  0  0  0  0  0  0  0  0
    0.2970   14.1779   11.2451 C   0  0  0  0  0  0  0  0  0  0  0  0
    0.8157   13.3357   10.8086 H   0  0  0  0  0  0  0  0  0  0  0  0
    0.6522   14.5029   12.4781 N   0  0  0  0  0  0  0  0  0  0  0  0
  1 18  1  0  0  0  0
  1 34  1  0  0  0  0
  2  1  1  0  0  0  0
  3 12  1  0  0  0  0
  3  1  1  0  0  0  0
  4  3  1  0  0  0  0
  5  4  1  0  0  0  0
  6  8  2  0  0  0  0
  6  4  1  0  0  0  0
  7  6  1  0  0  0  0
  8 10  1  0  0  0  0
  9  8  1  0  0  0  0
 10 11  1  0  0  0  0
 10 12  2  0  0  0  0
 12 13  1  0  0  0  0
 13 18  1  0  0  0  0
 13 14  1  1  0  0  0
 14 15  1  0  0  0  0
 14 17  1  0  0  0  0
 16 14  1  0  0  0  0
 18 19  1  1  0  0  0
 19 21  1  0  0  0  0
 19 22  1  0  0  0  0
 19 20  1  0  0  0  0
 22 23  1  0  0  0  0
 23 25  1  0  0  0  0
 23 24  1  0  0  0  0
 23 26  1  0  0  0  0
 27 29  1  0  0  0  0
 27 30  1  0  0  0  0
 27 22  1  0  0  0  0
 28 27  1  0  0  0  0
 31 33  1  0  0  0  0
 31 22  1  0  0  0  0
 31 32  1  0  0  0  0
 34 31  1  6  0  0  0
 35 34  1  0  0  0  0
 35 36  1  1  0  0  0
 36 39  1  0  0  0  0
 36 37  1  0  0  0  0
 38 36  1  0  0  0  0
 40 41  1  6  0  0  0
 40 35  1  0  0  0  0
 41 42  1  0  0  0  0
 43 41  2  0  0  0  0
 44 43  1  0  0  0  0
 45 43  1  0  0  0  0
 45 47  2  0  0  0  0
 46 45  1  0  0  0  0
 47 49  1  0  0  0  0
 48 47  1  0  0  0  0
 49 40  1  0  0  0  0
 49  1  1  0  0  0  0
M  END
$$$$
