CSD_code = FIWFUN | q = 0 | S = 0 | Stoichiometry = C29H28ClN2PPd | MND = 4
 OpenBabel04212202033D

 62 67  0  0  0  0  0  0  0  0999 V2000
    4.1332    3.9573    0.5186 Pd  0  0  1  0  0  0  0  0  0  0  0  0
    4.3023    3.6232    2.4754 C   0  0  0  0  0  0  0  0  0  0  0  0
    3.6535    2.9680    3.4860 C   0  0  0  0  0  0  0  0  0  0  0  0
    4.2079    3.4005    4.7243 C   0  0  0  0  0  0  0  0  0  0  0  0
    5.2164    4.3473    4.4118 C   0  0  0  0  0  0  0  0  0  0  0  0
    5.2397    4.4751    3.0490 N   0  0  0  0  0  0  0  0  0  0  0  0
    3.9577    3.0887    6.0591 C   0  0  0  0  0  0  0  0  0  0  0  0
    4.7038    3.7112    7.0357 C   0  0  0  0  0  0  0  0  0  0  0  0
    5.6970    4.6372    6.7117 C   0  0  0  0  0  0  0  0  0  0  0  0
    5.9689    4.9665    5.3992 C   0  0  0  0  0  0  0  0  0  0  0  0
    6.1678    5.2089    2.2422 C   0  0  0  0  0  0  0  0  0  0  0  0
    5.5344    5.5037    0.9525 N   0  0  0  0  0  4  0  0  0  0  0  0
    6.5362    5.7535   -0.0802 C   0  0  0  0  0  0  0  0  0  0  0  0
    4.6393    6.6585    1.0737 C   0  0  0  0  0  0  0  0  0  0  0  0
    2.5999    2.3972    0.1946 P   0  0  0  0  0  4  0  0  0  0  0  0
    1.1816    2.8435    1.2423 C   0  0  0  0  0  0  0  0  0  0  0  0
    1.0211    4.2150    1.4379 C   0  0  0  0  0  0  0  0  0  0  0  0
   -0.0148    4.6893    2.2190 C   0  0  0  0  0  0  0  0  0  0  0  0
   -0.8877    3.7950    2.8207 C   0  0  0  0  0  0  0  0  0  0  0  0
   -0.7240    2.4324    2.6374 C   0  0  0  0  0  0  0  0  0  0  0  0
    0.3068    1.9518    1.8468 C   0  0  0  0  0  0  0  0  0  0  0  0
    3.0993    0.6931    0.5743 C   0  0  0  0  0  0  0  0  0  0  0  0
    2.2814   -0.3987    0.2989 C   0  0  0  0  0  0  0  0  0  0  0  0
    2.7209   -1.6767    0.5925 C   0  0  0  0  0  0  0  0  0  0  0  0
    3.9780   -1.8716    1.1434 C   0  0  0  0  0  0  0  0  0  0  0  0
    4.8071   -0.7887    1.3880 C   0  0  0  0  0  0  0  0  0  0  0  0
    4.3707    0.4919    1.1003 C   0  0  0  0  0  0  0  0  0  0  0  0
    1.8685    2.1929   -1.4559 C   0  0  0  0  0  0  0  0  0  0  0  0
    0.5852    2.6158   -1.7765 C   0  0  0  0  0  0  0  0  0  0  0  0
    0.1187    2.4677   -3.0717 C   0  0  0  0  0  0  0  0  0  0  0  0
    0.9286    1.9093   -4.0455 C   0  0  0  0  0  0  0  0  0  0  0  0
    2.2141    1.4959   -3.7290 C   0  0  0  0  0  0  0  0  0  0  0  0
    2.6843    1.6380   -2.4390 C   0  0  0  0  0  0  0  0  0  0  0  0
    3.9308    4.6310   -1.6971 Cl  0  0  0  0  0  0  0  0  0  0  0  0
    2.8700    2.2396    3.3748 H   0  0  0  0  0  0  0  0  0  0  0  0
    3.1918    2.3711    6.3158 H   0  0  0  0  0  0  0  0  0  0  0  0
    4.5236    3.4817    8.0763 H   0  0  0  0  0  0  0  0  0  0  0  0
    6.2639    5.1031    7.5047 H   0  0  0  0  0  0  0  0  0  0  0  0
    6.7427    5.6816    5.1562 H   0  0  0  0  0  0  0  0  0  0  0  0
    6.4690    6.1363    2.7598 H   0  0  0  0  0  0  0  0  0  0  0  0
    7.0742    4.6062    2.0569 H   0  0  0  0  0  0  0  0  0  0  0  0
    6.0291    5.9373   -1.0290 H   0  0  0  0  0  0  0  0  0  0  0  0
    7.1587    6.6215    0.1760 H   0  0  0  0  0  0  0  0  0  0  0  0
    7.1738    4.8742   -0.1967 H   0  0  0  0  0  0  0  0  0  0  0  0
    4.0885    6.7841    0.1352 H   0  0  0  0  0  0  0  0  0  0  0  0
    5.2105    7.5757    1.2777 H   0  0  0  0  0  0  0  0  0  0  0  0
    3.9314    6.4934    1.8942 H   0  0  0  0  0  0  0  0  0  0  0  0
    1.7293    4.9010    0.9597 H   0  0  0  0  0  0  0  0  0  0  0  0
   -0.1418    5.7514    2.3688 H   0  0  0  0  0  0  0  0  0  0  0  0
   -1.6927    4.1621    3.4400 H   0  0  0  0  0  0  0  0  0  0  0  0
   -1.4002    1.7388    3.1157 H   0  0  0  0  0  0  0  0  0  0  0  0
    0.4405    0.8875    1.7184 H   0  0  0  0  0  0  0  0  0  0  0  0
    1.3138   -0.2455   -0.1602 H   0  0  0  0  0  0  0  0  0  0  0  0
    2.0848   -2.5251    0.3859 H   0  0  0  0  0  0  0  0  0  0  0  0
    4.3156   -2.8720    1.3706 H   0  0  0  0  0  0  0  0  0  0  0  0
    5.7932   -0.9453    1.7996 H   0  0  0  0  0  0  0  0  0  0  0  0
    5.0070    1.3597    1.2744 H   0  0  0  0  0  0  0  0  0  0  0  0
   -0.0426    3.0640   -1.0184 H   0  0  0  0  0  0  0  0  0  0  0  0
   -0.8792    2.7979   -3.3219 H   0  0  0  0  0  0  0  0  0  0  0  0
    0.5623    1.8042   -5.0561 H   0  0  0  0  0  0  0  0  0  0  0  0
    2.8502    1.0732   -4.4926 H   0  0  0  0  0  0  0  0  0  0  0  0
    3.6935    1.3404   -2.1800 H   0  0  0  0  0  0  0  0  0  0  0  0
  1 34  1  1  0  0  0
  1 12  1  0  0  0  0
  1  2  1  0  0  0  0
  2  6  1  0  0  0  0
  2  3  2  0  0  0  0
  3  4  1  0  0  0  0
  4  7  1  0  0  0  0
  5  4  2  0  0  0  0
  5 10  1  0  0  0  0
  6  5  1  0  0  0  0
  7 36  1  0  0  0  0
  7  8  2  0  0  0  0
  8 37  1  0  0  0  0
  9  8  1  0  0  0  0
  9 38  1  0  0  0  0
 10  9  2  0  0  0  0
 11 40  1  0  0  0  0
 11  6  1  0  0  0  0
 12 14  1  0  0  0  0
 12 11  1  0  0  0  0
 13 43  1  0  0  0  0
 13 12  1  0  0  0  0
 14 46  1  0  0  0  0
 14 47  1  0  0  0  0
 15  1  1  0  0  0  0
 15 22  1  0  0  0  0
 15 16  1  0  0  0  0
 16 17  2  0  0  0  0
 16 21  1  0  0  0  0
 17 18  1  0  0  0  0
 18 49  1  0  0  0  0
 18 19  2  0  0  0  0
 19 50  1  0  0  0  0
 20 19  1  0  0  0  0
 20 51  1  0  0  0  0
 21 20  2  0  0  0  0
 22 27  1  0  0  0  0
 23 22  2  0  0  0  0
 23 24  1  0  0  0  0
 24 25  2  0  0  0  0
 25 55  1  0  0  0  0
 25 26  1  0  0  0  0
 26 56  1  0  0  0  0
 27 57  1  0  0  0  0
 27 26  2  0  0  0  0
 28 15  1  0  0  0  0
 29 28  1  0  0  0  0
 29 58  1  0  0  0  0
 30 29  2  0  0  0  0
 31 32  2  0  0  0  0
 31 30  1  0  0  0  0
 32 33  1  0  0  0  0
 33 62  1  0  0  0  0
 33 28  2  0  0  0  0
 35  3  1  0  0  0  0
 39 10  1  0  0  0  0
 41 11  1  0  0  0  0
 42 13  1  0  0  0  0
 44 13  1  0  0  0  0
 45 14  1  0  0  0  0
 48 17  1  0  0  0  0
 52 21  1  0  0  0  0
 53 23  1  0  0  0  0
 54 24  1  0  0  0  0
 59 30  1  0  0  0  0
 60 31  1  0  0  0  0
 61 32  1  0  0  0  0
M  END
$$$$
