CSD_code = FIXGOJ | q = 1 | S = 0 | Stoichiometry = C10H24I2MnN4(1+) | MND = 6
 OpenBabel04212202033D

 41 44  0  0  1  0  0  0  0  0999 V2000
    2.1096    2.5584    0.0001 I   0  0  0  0  0  0  0  0  0  0  0  0
   -0.0000    4.1815    0.0000 Mn  0  0  0  0  0  0  0  0  0  0  0  0
   -0.7972    3.0192    1.5510 N   0  0  2  0  0  4  0  0  0  0  0  0
   -0.1580    2.2237    1.6681 H   0  0  0  0  0  0  0  0  0  0  0  0
   -2.1519    1.6147   -0.0000 C   0  0  0  0  0  0  0  0  0  0  0  0
   -3.0788    1.0411    0.0000 H   0  0  0  0  0  0  0  0  0  0  0  0
   -1.3262    0.8961   -0.0000 H   0  0  0  0  0  0  0  0  0  0  0  0
   -2.1227    2.4251    1.3066 C   0  0  0  0  0  0  0  0  0  0  0  0
   -2.8755    3.2164    1.2735 H   0  0  0  0  0  0  0  0  0  0  0  0
   -2.3821    1.7525    2.1332 H   0  0  0  0  0  0  0  0  0  0  0  0
   -0.6791    3.8190    2.7868 C   0  0  0  0  0  0  0  0  0  0  0  0
   -0.7581    3.1860    3.6774 H   0  0  0  0  0  0  0  0  0  0  0  0
   -1.4941    4.5492    2.8161 H   0  0  0  0  0  0  0  0  0  0  0  0
   -2.1096    5.8046   -0.0001 I   0  0  0  0  0  0  0  0  0  0  0  0
   -0.7972    3.0192   -1.5510 N   0  0  1  0  0  4  0  0  0  0  0  0
    0.7972    5.3438   -1.5510 N   0  0  1  0  0  4  0  0  0  0  0  0
    0.7972    5.3438    1.5510 N   0  0  2  0  0  4  0  0  0  0  0  0
    0.1580    6.1393   -1.6681 H   0  0  0  0  0  0  0  0  0  0  0  0
    0.1581    6.1393    1.6681 H   0  0  0  0  0  0  0  0  0  0  0  0
   -0.1581    2.2237   -1.6681 H   0  0  0  0  0  0  0  0  0  0  0  0
    2.1519    6.7483    0.0000 C   0  0  0  0  0  0  0  0  0  0  0  0
    3.0788    7.3219   -0.0000 H   0  0  0  0  0  0  0  0  0  0  0  0
    1.3262    7.4669    0.0000 H   0  0  0  0  0  0  0  0  0  0  0  0
   -2.1227    2.4251   -1.3066 C   0  0  0  0  0  0  0  0  0  0  0  0
    2.1227    5.9379   -1.3066 C   0  0  0  0  0  0  0  0  0  0  0  0
    2.1227    5.9379    1.3066 C   0  0  0  0  0  0  0  0  0  0  0  0
    2.8755    5.1466    1.2735 H   0  0  0  0  0  0  0  0  0  0  0  0
    2.8755    5.1466   -1.2735 H   0  0  0  0  0  0  0  0  0  0  0  0
   -2.8755    3.2164   -1.2735 H   0  0  0  0  0  0  0  0  0  0  0  0
    2.3821    6.6104    2.1332 H   0  0  0  0  0  0  0  0  0  0  0  0
    2.3821    6.6105   -2.1332 H   0  0  0  0  0  0  0  0  0  0  0  0
   -2.3821    1.7526   -2.1332 H   0  0  0  0  0  0  0  0  0  0  0  0
    0.6791    4.5440    2.7868 C   0  0  0  0  0  0  0  0  0  0  0  0
    0.6791    4.5440   -2.7868 C   0  0  0  0  0  0  0  0  0  0  0  0
   -0.6791    3.8190   -2.7868 C   0  0  0  0  0  0  0  0  0  0  0  0
    0.7581    5.1770    3.6774 H   0  0  0  0  0  0  0  0  0  0  0  0
    0.7581    5.1770   -3.6774 H   0  0  0  0  0  0  0  0  0  0  0  0
   -0.7581    3.1860   -3.6774 H   0  0  0  0  0  0  0  0  0  0  0  0
    1.4941    3.8138    2.8161 H   0  0  0  0  0  0  0  0  0  0  0  0
    1.4941    3.8138   -2.8161 H   0  0  0  0  0  0  0  0  0  0  0  0
   -1.4941    4.5492   -2.8161 H   0  0  0  0  0  0  0  0  0  0  0  0
  2  1  1  0  0  0  0
  2  3  1  0  0  0  0
  2 17  1  0  0  0  0
  3  4  1  1  0  0  0
  3 11  1  0  0  0  0
  5  6  1  0  0  0  0
  5  8  1  0  0  0  0
  7  5  1  0  0  0  0
  8  3  1  0  0  0  0
  8 10  1  0  0  0  0
  9  8  1  0  0  0  0
 11 13  1  0  0  0  0
 11 12  1  0  0  0  0
 14  2  1  0  0  0  0
 15 20  1  6  0  0  0
 15 24  1  0  0  0  0
 15  2  1  0  0  0  0
 16 18  1  6  0  0  0
 16 25  1  0  0  0  0
 16  2  1  0  0  0  0
 17 19  1  1  0  0  0
 17 33  1  0  0  0  0
 21 23  1  0  0  0  0
 21 26  1  0  0  0  0
 22 21  1  0  0  0  0
 24 29  1  0  0  0  0
 24  5  1  0  0  0  0
 25 28  1  0  0  0  0
 25 21  1  0  0  0  0
 26 17  1  0  0  0  0
 26 30  1  0  0  0  0
 27 26  1  0  0  0  0
 31 25  1  0  0  0  0
 32 24  1  0  0  0  0
 33 11  1  0  0  0  0
 33 39  1  0  0  0  0
 33 36  1  0  0  0  0
 34 35  1  0  0  0  0
 34 16  1  0  0  0  0
 35 15  1  0  0  0  0
 37 34  1  0  0  0  0
 38 35  1  0  0  0  0
 40 34  1  0  0  0  0
 41 35  1  0  0  0  0
M  END
$$$$
