CSD_code = FIXSOX | q = 0 | S = 0 | Stoichiometry = C25H35BrNNiOP | MND = 4
 OpenBabel04212202033D

 65 68  0  0  0  0  0  0  0  0999 V2000
   11.1099    5.3738   11.5642 Ni  0  0  1  0  0  0  0  0  0  0  0  0
   11.4388    3.2716   12.2276 Br  0  0  0  0  0  0  0  0  0  0  0  0
   12.4563    6.1698   12.9764 P   0  0  0  0  0  4  0  0  0  0  0  0
   12.4251    7.8085   12.8447 O   0  0  0  0  0  0  0  0  0  0  0  0
    9.6860    5.1870   10.1570 N   0  0  0  0  0  0  0  0  0  0  0  0
   10.7597    7.1734   11.3047 C   0  0  0  0  0  0  0  0  0  0  0  0
   11.4114    8.1969   11.9813 C   0  0  0  0  0  0  0  0  0  0  0  0
   11.0494    9.5185   11.7879 C   0  0  0  0  0  0  0  0  0  0  0  0
   11.5684   10.3057   12.3133 H   0  0  0  0  0  0  0  0  0  0  0  0
   10.0050    9.8101   10.9143 C   0  0  0  0  0  0  0  0  0  0  0  0
    9.7209   10.8412   10.7666 H   0  0  0  0  0  0  0  0  0  0  0  0
    9.3270    8.8107   10.2426 C   0  0  0  0  0  0  0  0  0  0  0  0
    8.5126    9.0513    9.5747 H   0  0  0  0  0  0  0  0  0  0  0  0
    9.7025    7.4804   10.4370 C   0  0  0  0  0  0  0  0  0  0  0  0
   11.8837    5.8975   14.7193 C   0  0  0  0  0  0  0  0  0  0  0  0
   12.0855    4.8471   14.9528 H   0  0  0  0  0  0  0  0  0  0  0  0
   10.3726    6.1229   14.7190 C   0  0  0  0  0  0  0  0  0  0  0  0
    9.9374    5.8518   15.6789 H   0  0  0  0  0  0  0  0  0  0  0  0
    9.8991    5.5066   13.9445 H   0  0  0  0  0  0  0  0  0  0  0  0
   10.1402    7.1691   14.5164 H   0  0  0  0  0  0  0  0  0  0  0  0
   12.5975    6.8143   15.7023 C   0  0  0  0  0  0  0  0  0  0  0  0
   12.1836    6.6802   16.7004 H   0  0  0  0  0  0  0  0  0  0  0  0
   12.4657    7.8557   15.4137 H   0  0  0  0  0  0  0  0  0  0  0  0
   13.6631    6.6001   15.7431 H   0  0  0  0  0  0  0  0  0  0  0  0
   14.2821    5.8916   12.9323 C   0  0  0  0  0  0  0  0  0  0  0  0
   14.7259    6.7484   13.4547 H   0  0  0  0  0  0  0  0  0  0  0  0
   14.6853    5.9205   11.4598 C   0  0  0  0  0  0  0  0  0  0  0  0
   15.7651    5.8407   11.3498 H   0  0  0  0  0  0  0  0  0  0  0  0
   14.3571    6.8478   10.9886 H   0  0  0  0  0  0  0  0  0  0  0  0
   14.2230    5.0815   10.9371 H   0  0  0  0  0  0  0  0  0  0  0  0
   14.6891    4.5819   13.5916 C   0  0  0  0  0  0  0  0  0  0  0  0
   15.7553    4.4143   13.4480 H   0  0  0  0  0  0  0  0  0  0  0  0
   14.1495    3.7466   13.1493 H   0  0  0  0  0  0  0  0  0  0  0  0
   14.4883    4.5928   14.6602 H   0  0  0  0  0  0  0  0  0  0  0  0
    9.1542    6.3033    9.8102 C   0  0  0  0  0  0  0  0  0  0  0  0
    8.3710    6.3568    9.0536 H   0  0  0  0  0  0  0  0  0  0  0  0
    9.3247    3.9687    9.5638 C   0  0  0  0  0  0  0  0  0  0  0  0
    8.0628    3.4025    9.7707 C   0  0  0  0  0  0  0  0  0  0  0  0
    7.7851    2.1895    9.1564 C   0  0  0  0  0  0  0  0  0  0  0  0
    6.8213    1.7276    9.3055 H   0  0  0  0  0  0  0  0  0  0  0  0
    8.7234    1.5602    8.3625 C   0  0  0  0  0  0  0  0  0  0  0  0
    8.4815    0.6233    7.8833 H   0  0  0  0  0  0  0  0  0  0  0  0
    9.9807    2.1130    8.1989 C   0  0  0  0  0  0  0  0  0  0  0  0
   10.7115    1.5975    7.5973 H   0  0  0  0  0  0  0  0  0  0  0  0
   10.3076    3.3136    8.8054 C   0  0  0  0  0  0  0  0  0  0  0  0
    7.0636    4.0211   10.7212 C   0  0  0  0  0  0  0  0  0  0  0  0
    7.4339    4.9958   11.0567 H   0  0  0  0  0  0  0  0  0  0  0  0
    6.9364    3.1281   11.9591 C   0  0  0  0  0  0  0  0  0  0  0  0
    7.9147    2.9709   12.4083 H   0  0  0  0  0  0  0  0  0  0  0  0
    6.5256    2.1573   11.6944 H   0  0  0  0  0  0  0  0  0  0  0  0
    6.2834    3.5932   12.6949 H   0  0  0  0  0  0  0  0  0  0  0  0
    5.7048    4.2440   10.0564 C   0  0  0  0  0  0  0  0  0  0  0  0
    5.8097    4.8531    9.1600 H   0  0  0  0  0  0  0  0  0  0  0  0
    5.0335    4.7547   10.7438 H   0  0  0  0  0  0  0  0  0  0  0  0
    5.2478    3.2992    9.7748 H   0  0  0  0  0  0  0  0  0  0  0  0
   11.6684    3.9523    8.6403 C   0  0  0  0  0  0  0  0  0  0  0  0
   11.8597    4.5988    9.5282 H   0  0  0  0  0  0  0  0  0  0  0  0
   12.8006    2.9306    8.5784 C   0  0  0  0  0  0  0  0  0  0  0  0
   12.7330    2.2484    9.4226 H   0  0  0  0  0  0  0  0  0  0  0  0
   13.7606    3.4422    8.6198 H   0  0  0  0  0  0  0  0  0  0  0  0
   12.7685    2.3584    7.6547 H   0  0  0  0  0  0  0  0  0  0  0  0
   11.6738    4.8551    7.4046 C   0  0  0  0  0  0  0  0  0  0  0  0
   10.9154    5.6322    7.4862 H   0  0  0  0  0  0  0  0  0  0  0  0
   11.4682    4.2679    6.5114 H   0  0  0  0  0  0  0  0  0  0  0  0
   12.6442    5.3339    7.2892 H   0  0  0  0  0  0  0  0  0  0  0  0
  1  2  1  1  0  0  0
  1  3  1  0  0  0  0
  3 15  1  0  0  0  0
  4  3  1  0  0  0  0
  5  1  1  0  0  0  0
  6  1  2  0  0  0  0
  6  7  1  0  0  0  0
  7  4  1  0  0  0  0
  8  7  2  0  0  0  0
  8  9  1  0  0  0  0
 10  8  1  0  0  0  0
 11 10  1  0  0  0  0
 12 14  1  0  0  0  0
 12 10  2  0  0  0  0
 13 12  1  0  0  0  0
 14  6  1  0  0  0  0
 15 16  1  0  0  0  0
 15 21  1  0  0  0  0
 17 15  1  0  0  0  0
 17 18  1  0  0  0  0
 19 17  1  0  0  0  0
 20 17  1  0  0  0  0
 21 24  1  0  0  0  0
 21 22  1  0  0  0  0
 23 21  1  0  0  0  0
 25  3  1  0  0  0  0
 25 26  1  0  0  0  0
 25 31  1  0  0  0  0
 27 25  1  0  0  0  0
 28 27  1  0  0  0  0
 29 27  1  0  0  0  0
 30 27  1  0  0  0  0
 31 34  1  0  0  0  0
 32 31  1  0  0  0  0
 33 31  1  0  0  0  0
 35  5  1  0  0  0  0
 35 14  2  0  0  0  0
 36 35  1  0  0  0  0
 37 38  1  0  0  0  0
 37  5  1  0  0  0  0
 38 46  1  0  0  0  0
 39 40  1  0  0  0  0
 39 38  2  0  0  0  0
 41 39  1  0  0  0  0
 42 41  1  0  0  0  0
 43 41  2  0  0  0  0
 43 45  1  0  0  0  0
 44 43  1  0  0  0  0
 45 37  2  0  0  0  0
 46 47  1  0  0  0  0
 46 48  1  0  0  0  0
 48 49  1  0  0  0  0
 48 51  1  0  0  0  0
 50 48  1  0  0  0  0
 52 46  1  0  0  0  0
 52 54  1  0  0  0  0
 53 52  1  0  0  0  0
 55 52  1  0  0  0  0
 56 45  1  0  0  0  0
 56 57  1  0  0  0  0
 58 60  1  0  0  0  0
 58 56  1  0  0  0  0
 58 59  1  0  0  0  0
 61 58  1  0  0  0  0
 62 63  1  0  0  0  0
 62 56  1  0  0  0  0
 64 62  1  0  0  0  0
 65 62  1  0  0  0  0
M  END
$$$$
