CSD_code = FIXSAJ | q = -1 | S = 0 | Stoichiometry = C12H36ClFeN2Si4(1-) | MND = 3
 OpenBabel04212202033D

 56 55  0  0  0  0  0  0  0  0999 V2000
    6.6597   15.0828    9.4388 Fe  0  0  0  0  0  0  0  0  0  0  0  0
    6.0290   13.0855    9.3010 Cl  0  0  0  0  0  0  0  0  0  0  0  0
    5.8701   16.6570    6.8641 Si  0  0  0  0  0  0  0  0  0  0  0  0
    5.4754   17.7291    9.7551 Si  0  0  0  0  0  0  0  0  0  0  0  0
    9.4649   15.3443   10.4676 Si  0  0  0  0  0  0  0  0  0  0  0  0
    7.7647   13.4738   12.2195 Si  0  0  0  0  0  0  0  0  0  0  0  0
    8.0535   14.4990   10.8857 N   0  0  0  0  0  0  0  0  0  0  0  0
    5.9298   16.5714    8.5753 N   0  0  0  0  0  0  0  0  0  0  0  0
    9.2865   15.8882    8.6459 C   0  0  0  0  0  0  0  0  0  0  0  0
    9.0525   15.0214    8.0359 H   0  0  0  0  0  0  0  0  0  0  0  0
   10.1855   16.3467    8.2467 H   0  0  0  0  0  0  0  0  0  0  0  0
    8.4702   16.5979    8.5400 H   0  0  0  0  0  0  0  0  0  0  0  0
    5.4370   16.7764   11.3997 C   0  0  0  0  0  0  0  0  0  0  0  0
    4.6602   16.0190   11.3760 H   0  0  0  0  0  0  0  0  0  0  0  0
    5.2609   17.4119   12.2612 H   0  0  0  0  0  0  0  0  0  0  0  0
    6.3853   16.2609   11.5439 H   0  0  0  0  0  0  0  0  0  0  0  0
    6.7889   15.1317    6.1811 C   0  0  0  0  0  0  0  0  0  0  0  0
    7.8211   15.3548    5.9350 H   0  0  0  0  0  0  0  0  0  0  0  0
    6.3135   14.7344    5.2903 H   0  0  0  0  0  0  0  0  0  0  0  0
    6.7854   14.3484    6.9362 H   0  0  0  0  0  0  0  0  0  0  0  0
    3.7734   18.5624    9.4417 C   0  0  0  0  0  0  0  0  0  0  0  0
    3.7976   19.1539    8.5321 H   0  0  0  0  0  0  0  0  0  0  0  0
    3.4986   19.2233   10.2584 H   0  0  0  0  0  0  0  0  0  0  0  0
    2.9886   17.8221    9.3328 H   0  0  0  0  0  0  0  0  0  0  0  0
    4.0672   16.6140    6.2064 C   0  0  0  0  0  0  0  0  0  0  0  0
    3.5615   15.7197    6.5543 H   0  0  0  0  0  0  0  0  0  0  0  0
    4.0361   16.6151    5.1205 H   0  0  0  0  0  0  0  0  0  0  0  0
    3.5005   17.4705    6.5555 H   0  0  0  0  0  0  0  0  0  0  0  0
    6.6543   18.2580    6.1487 C   0  0  0  0  0  0  0  0  0  0  0  0
    6.0970   19.1318    6.4711 H   0  0  0  0  0  0  0  0  0  0  0  0
    6.6592   18.2508    5.0628 H   0  0  0  0  0  0  0  0  0  0  0  0
    7.6786   18.3794    6.4852 H   0  0  0  0  0  0  0  0  0  0  0  0
    5.9272   13.5222   12.7531 C   0  0  0  0  0  0  0  0  0  0  0  0
    5.6876   14.4237   13.3081 H   0  0  0  0  0  0  0  0  0  0  0  0
    5.6702   12.6698   13.3755 H   0  0  0  0  0  0  0  0  0  0  0  0
    5.2975   13.4907   11.8720 H   0  0  0  0  0  0  0  0  0  0  0  0
    8.2408   11.6435   11.8904 C   0  0  0  0  0  0  0  0  0  0  0  0
    7.6769   11.2724   11.0423 H   0  0  0  0  0  0  0  0  0  0  0  0
    8.0330   11.0025   12.7432 H   0  0  0  0  0  0  0  0  0  0  0  0
    9.2968   11.5534   11.6537 H   0  0  0  0  0  0  0  0  0  0  0  0
    8.7683   14.0081   13.7673 C   0  0  0  0  0  0  0  0  0  0  0  0
    9.8331   13.9404   13.5754 H   0  0  0  0  0  0  0  0  0  0  0  0
    8.5444   13.3790   14.6232 H   0  0  0  0  0  0  0  0  0  0  0  0
    8.5495   15.0342   14.0415 H   0  0  0  0  0  0  0  0  0  0  0  0
    9.7723   16.9274   11.5214 C   0  0  0  0  0  0  0  0  0  0  0  0
    8.8645   17.5155   11.6088 H   0  0  0  0  0  0  0  0  0  0  0  0
   10.5431   17.5631   11.0939 H   0  0  0  0  0  0  0  0  0  0  0  0
   10.0846   16.6602   12.5257 H   0  0  0  0  0  0  0  0  0  0  0  0
   11.1030   14.3454   10.5940 C   0  0  0  0  0  0  0  0  0  0  0  0
   11.2785   14.0377   11.6191 H   0  0  0  0  0  0  0  0  0  0  0  0
   11.9631   14.9248   10.2700 H   0  0  0  0  0  0  0  0  0  0  0  0
   11.0564   13.4470    9.9882 H   0  0  0  0  0  0  0  0  0  0  0  0
    6.7315   19.1783    9.8783 C   0  0  0  0  0  0  0  0  0  0  0  0
    7.7429   18.8018    9.9881 H   0  0  0  0  0  0  0  0  0  0  0  0
    6.5215   19.8226   10.7273 H   0  0  0  0  0  0  0  0  0  0  0  0
    6.7063   19.7924    8.9836 H   0  0  0  0  0  0  0  0  0  0  0  0
  1  7  1  0  0  0  0
  2  1  1  0  0  0  0
  3  8  1  0  0  0  0
  4 53  1  0  0  0  0
  4 13  1  0  0  0  0
  5 49  1  0  0  0  0
  5  7  1  0  0  0  0
  5 45  1  0  0  0  0
  6 33  1  0  0  0  0
  6 41  1  0  0  0  0
  7  6  1  0  0  0  0
  8  1  1  0  0  0  0
  8  4  1  0  0  0  0
  9  5  1  0  0  0  0
 10  9  1  0  0  0  0
 11  9  1  0  0  0  0
 12  9  1  0  0  0  0
 13 16  1  0  0  0  0
 13 15  1  0  0  0  0
 14 13  1  0  0  0  0
 17  3  1  0  0  0  0
 17 20  1  0  0  0  0
 18 17  1  0  0  0  0
 19 17  1  0  0  0  0
 21  4  1  0  0  0  0
 21 23  1  0  0  0  0
 22 21  1  0  0  0  0
 24 21  1  0  0  0  0
 25 26  1  0  0  0  0
 25 28  1  0  0  0  0
 25  3  1  0  0  0  0
 27 25  1  0  0  0  0
 29 30  1  0  0  0  0
 29 32  1  0  0  0  0
 29  3  1  0  0  0  0
 31 29  1  0  0  0  0
 33 34  1  0  0  0  0
 33 35  1  0  0  0  0
 36 33  1  0  0  0  0
 37  6  1  0  0  0  0
 37 39  1  0  0  0  0
 38 37  1  0  0  0  0
 40 37  1  0  0  0  0
 41 44  1  0  0  0  0
 41 43  1  0  0  0  0
 42 41  1  0  0  0  0
 45 46  1  0  0  0  0
 45 48  1  0  0  0  0
 47 45  1  0  0  0  0
 49 50  1  0  0  0  0
 51 49  1  0  0  0  0
 52 49  1  0  0  0  0
 53 54  1  0  0  0  0
 53 55  1  0  0  0  0
 56 53  1  0  0  0  0
M  END
$$$$
