CSD_code = FIYBUL | q = 0 | S = 0 | Stoichiometry = C16H19I2N3OPd | MND = 4
 OpenBabel04212202033D

 42 45  0  0  1  0  0  0  0  0999 V2000
    3.5626    9.4659    7.6110 Pd  0  0  0  0  0  0  0  0  0  0  0  0
    4.4616    9.0639    5.2335 I   0  0  0  0  0  0  0  0  0  0  0  0
    5.8052    8.9914    8.8017 I   0  0  0  0  0  0  0  0  0  0  0  0
    1.8044    9.9212    6.8192 C   0  0  0  0  0  0  0  0  0  0  0  0
    1.4559   10.9794    6.0750 N   0  0  0  0  0  0  0  0  0  0  0  0
    0.1391   10.8805    5.7050 C   0  0  0  0  0  0  0  0  0  0  0  0
   -0.3427   11.6221    5.1020 H   0  0  0  0  0  0  0  0  0  0  0  0
   -0.3400    9.7331    6.2359 C   0  0  0  0  0  0  0  0  0  0  0  0
   -1.3150    9.2934    6.1962 H   0  0  0  0  0  0  0  0  0  0  0  0
    0.6968    9.1569    6.9360 N   0  0  0  0  0  0  0  0  0  0  0  0
    2.3530   12.0422    5.7039 C   0  0  0  0  0  0  0  0  0  0  0  0
    1.8877   13.0105    5.8909 H   0  0  0  0  0  0  0  0  0  0  0  0
    2.6198   11.9639    4.6478 H   0  0  0  0  0  0  0  0  0  0  0  0
    3.2710   11.9515    6.3020 H   0  0  0  0  0  0  0  0  0  0  0  0
    0.6254    7.9128    7.6022 C   0  0  1  0  0  3  0  0  0  0  0  0
    0.9915    7.7721    8.9482 C   0  0  0  0  0  0  0  0  0  0  0  0
    0.8237    6.5359    9.5690 C   0  0  0  0  0  0  0  0  0  0  0  0
    1.1003    6.4353   10.6073 H   0  0  0  0  0  0  0  0  0  0  0  0
    0.3279    5.4545    8.8663 C   0  0  0  0  0  0  0  0  0  0  0  0
    0.2168    4.5015    9.3591 H   0  0  0  0  0  0  0  0  0  0  0  0
   -0.0189    5.5953    7.5325 C   0  0  0  0  0  0  0  0  0  0  0  0
   -0.3976    4.7521    6.9762 H   0  0  0  0  0  0  0  0  0  0  0  0
    0.1201    6.8204    6.9070 C   0  0  0  0  0  0  0  0  0  0  0  0
   -0.1459    6.9392    5.8671 H   0  0  0  0  0  0  0  0  0  0  0  0
    1.5609    8.8633    9.7500 C   0  0  0  0  0  0  0  0  0  0  0  0
    2.5774    9.5604    9.4300 N   0  0  0  0  0  0  0  0  0  0  0  0
    2.9140   10.4642   10.5105 C   0  0  2  0  0  0  0  0  0  0  0  0
    3.9037   10.1803   10.8928 H   0  0  0  0  0  0  0  0  0  0  0  0
    1.8120   10.1584   11.5494 C   0  0  0  0  0  0  0  0  0  0  0  0
    2.2174    9.7923   12.4945 H   0  0  0  0  0  0  0  0  0  0  0  0
    1.1500   11.0050   11.7456 H   0  0  0  0  0  0  0  0  0  0  0  0
    1.0330    9.1119   10.9583 O   0  0  0  0  0  0  0  0  0  0  0  0
    3.0241   11.9038    9.9742 C   0  0  0  0  0  0  0  0  0  0  0  0
    3.7012   11.8349    9.0979 H   0  0  0  0  0  0  0  0  0  0  0  0
    1.6835   12.4678    9.5046 C   0  0  0  0  0  0  0  0  0  0  0  0
    1.0339   12.6945   10.3479 H   0  0  0  0  0  0  0  0  0  0  0  0
    1.1678   11.7650    8.8492 H   0  0  0  0  0  0  0  0  0  0  0  0
    1.8461   13.3912    8.9540 H   0  0  0  0  0  0  0  0  0  0  0  0
    3.6678   12.8117   11.0152 C   0  0  0  0  0  0  0  0  0  0  0  0
    3.7679   13.8200   10.6216 H   0  0  0  0  0  0  0  0  0  0  0  0
    4.6576   12.4484   11.2797 H   0  0  0  0  0  0  0  0  0  0  0  0
    3.0598   12.8523   11.9171 H   0  0  0  0  0  0  0  0  0  0  0  0
  1  3  1  0  0  0  0
  1 26  1  0  0  0  0
  2  1  1  0  0  0  0
  4 10  1  0  0  0  0
  4  1  2  0  0  0  0
  5  4  1  0  0  0  0
  6  5  1  0  0  0  0
  6  8  2  0  0  0  0
  7  6  1  0  0  0  0
  8 10  1  0  0  0  0
  9  8  1  0  0  0  0
 10 15  1  0  0  0  0
 11 12  1  0  0  0  0
 11  5  1  0  0  0  0
 11 14  1  0  0  0  0
 13 11  1  0  0  0  0
 15 23  1  1  0  0  0
 15 16  1  0  0  0  0
 16 17  1  0  0  0  0
 16 25  2  0  0  0  0
 17 18  1  0  0  0  0
 19 20  1  0  0  0  0
 19 17  2  0  0  0  0
 21 19  1  0  0  0  0
 22 21  1  0  0  0  0
 23 21  2  0  0  0  0
 24 23  1  0  0  0  0
 25 32  1  0  0  0  0
 26 25  1  0  0  0  0
 26 27  1  0  0  0  0
 27 28  1  1  0  0  0
 27 29  1  0  0  0  0
 29 31  1  0  0  0  0
 29 30  1  0  0  0  0
 32 29  1  0  0  0  0
 33 27  1  0  0  0  0
 33 39  1  0  0  0  0
 34 33  1  0  0  0  0
 35 33  1  0  0  0  0
 35 36  1  0  0  0  0
 37 35  1  0  0  0  0
 38 35  1  0  0  0  0
 39 41  1  0  0  0  0
 39 42  1  0  0  0  0
 40 39  1  0  0  0  0
M  END
$$$$
