CSD_code = FIYRIP | q = 0 | S = 0 | Stoichiometry = C7H12Cl2N3O2Re | MND = 6
 OpenBabel04212202033D

 27 28  0  0  1  0  0  0  0  0999 V2000
    7.8803    5.7526    3.3901 Re  0  0  0  0  0  0  0  0  0  0  0  0
    8.0625    7.2192    1.6715 Cl  0  0  0  0  0  0  0  0  0  0  0  0
    6.8977    7.3313    4.7113 Cl  0  0  0  0  0  0  0  0  0  0  0  0
    9.3961    5.8705    4.0395 O   0  0  0  0  0  1  0  0  0  0  0  0
    6.2723    5.0683    2.9471 O   0  0  0  0  0  0  0  0  0  0  0  0
    7.4132    3.4231    4.6693 N   0  0  0  0  0  0  0  0  0  0  0  0
    7.6343    3.5689    5.6441 H   0  0  0  0  0  0  0  0  0  0  0  0
    8.6195    4.0180    2.1630 N   0  0  0  0  0  0  0  0  0  0  0  0
    9.0926    1.9303    1.7195 N   0  0  0  0  0  0  0  0  0  0  0  0
    5.6046    3.8903    3.0772 C   0  0  0  0  0  0  0  0  0  0  0  0
    5.8890    3.2030    2.2592 H   0  0  0  0  0  0  0  0  0  0  0  0
    4.5151    4.0412    3.0339 H   0  0  0  0  0  0  0  0  0  0  0  0
    5.9884    3.2653    4.4474 C   0  0  0  0  0  0  0  0  0  0  0  0
    5.4642    3.8219    5.2259 H   0  0  0  0  0  0  0  0  0  0  0  0
    5.6711    2.2128    4.4719 H   0  0  0  0  0  0  0  0  0  0  0  0
    8.2778    2.4275    4.0587 C   0  0  0  0  0  0  0  0  0  0  0  0
    9.2053    2.3722    4.6391 H   0  0  0  0  0  0  0  0  0  0  0  0
    7.8067    1.4294    4.0654 H   0  0  0  0  0  0  0  0  0  0  0  0
    8.6425    2.7959    2.6530 C   0  0  1  0  0  3  0  0  0  0  0  0
    9.0544    3.9542    0.8797 C   0  0  0  0  0  0  0  0  0  0  0  0
    9.1156    4.8401    0.2810 H   0  0  0  0  0  0  0  0  0  0  0  0
    9.3555    2.6586    0.5894 C   0  0  0  0  0  0  0  0  0  0  0  0
    9.7272    2.2023   -0.3041 H   0  0  0  0  0  0  0  0  0  0  0  0
    9.2881    0.5158    1.8795 C   0  0  0  0  0  0  0  0  0  0  0  0
    9.7037    0.1086    0.9602 H   0  0  0  0  0  0  0  0  0  0  0  0
    8.3402    0.0149    2.0881 H   0  0  0  0  0  0  0  0  0  0  0  0
    9.9799    0.3160    2.6994 H   0  0  0  0  0  0  0  0  0  0  0  0
  1  4  1  0  0  0  0
  1  3  1  0  0  0  0
  2  1  1  0  0  0  0
  5 10  1  0  0  0  0
  5  1  1  0  0  0  0
  6  7  1  0  0  0  0
  8 19  1  0  0  0  0
  8  1  1  0  0  0  0
  9 24  1  0  0  0  0
 10 13  1  0  0  0  0
 11 10  1  0  0  0  0
 12 10  1  0  0  0  0
 13 15  1  0  0  0  0
 13  6  1  0  0  0  0
 13 14  1  0  0  0  0
 16 18  1  0  0  0  0
 16 17  1  0  0  0  0
 16  6  1  0  0  0  0
 19  9  1  1  0  0  0
 19 16  1  0  0  0  0
 20  8  1  0  0  0  0
 21 20  1  0  0  0  0
 22 20  2  0  0  0  0
 22  9  1  0  0  0  0
 23 22  1  0  0  0  0
 24 26  1  0  0  0  0
 24 27  1  0  0  0  0
 25 24  1  0  0  0  0
M  END
$$$$
