CSD_code = FIYYUI | q = 0 | S = 0 | Stoichiometry = C24H28Cl2N4Pd | MND = 4
 OpenBabel04212202033D

 59 62  0  0  1  0  0  0  0  0999 V2000
    3.6889    0.0001   -0.0000 Pd  0  0  0  0  0  0  0  0  0  0  0  0
    4.7640   -1.5155   -1.3457 Cl  0  0  0  0  0  0  0  0  0  0  0  0
    3.0128   -1.4239    1.2100 N   0  0  0  0  0  0  0  0  0  0  0  0
    1.9298   -2.1742    1.0141 N   0  0  0  0  0  0  0  0  0  0  0  0
    1.2808   -2.2134   -0.2715 C   0  0  0  0  0  0  0  0  0  0  0  0
    1.7816   -3.3735   -1.1274 C   0  0  0  0  0  0  0  0  0  0  0  0
    1.6030   -2.8475    2.1390 C   0  0  2  0  0  3  0  0  0  0  0  0
    0.4343   -3.7585    2.2292 C   0  0  0  0  0  0  0  0  0  0  0  0
    2.5238   -2.4881    3.1009 C   0  0  0  0  0  0  0  0  0  0  0  0
    3.3982   -1.5896    2.4719 C   0  0  0  0  0  0  0  0  0  0  0  0
    4.5589   -0.8906    3.0164 C   0  0  0  0  0  0  0  0  0  0  0  0
    5.7204   -0.7617    2.2502 C   0  0  0  0  0  0  0  0  0  0  0  0
    6.8217   -0.1046    2.7774 C   0  0  0  0  0  0  0  0  0  0  0  0
    6.7697    0.4410    4.0493 C   0  0  0  0  0  0  0  0  0  0  0  0
    5.6181    0.3146    4.8088 C   0  0  0  0  0  0  0  0  0  0  0  0
    4.5202   -0.3537    4.3007 C   0  0  0  0  0  0  0  0  0  0  0  0
    2.5728   -2.8331    4.1131 H   0  0  0  0  0  0  0  0  0  0  0  0
    1.5231   -1.2639   -0.7798 H   0  0  0  0  0  0  0  0  0  0  0  0
    5.7838   -1.2403    1.2730 H   0  0  0  0  0  0  0  0  0  0  0  0
    0.2003   -2.2777   -0.1153 H   0  0  0  0  0  0  0  0  0  0  0  0
    1.6078   -4.3301   -0.6404 H   0  0  0  0  0  0  0  0  0  0  0  0
    3.6181   -0.4457    4.8865 H   0  0  0  0  0  0  0  0  0  0  0  0
    7.7281   -0.0250    2.1937 H   0  0  0  0  0  0  0  0  0  0  0  0
    0.3697   -4.1655    3.2342 H   0  0  0  0  0  0  0  0  0  0  0  0
    1.2665   -3.3657   -2.0838 H   0  0  0  0  0  0  0  0  0  0  0  0
    0.5238   -4.5834    1.5239 H   0  0  0  0  0  0  0  0  0  0  0  0
    2.8481   -3.2558   -1.3101 H   0  0  0  0  0  0  0  0  0  0  0  0
    5.5763    0.7386    5.8013 H   0  0  0  0  0  0  0  0  0  0  0  0
   -0.4898   -3.2231    2.0109 H   0  0  0  0  0  0  0  0  0  0  0  0
    7.6285    0.9584    4.4512 H   0  0  0  0  0  0  0  0  0  0  0  0
    2.6139    1.5154    1.3458 Cl  0  0  0  0  0  0  0  0  0  0  0  0
    4.3652    1.4238   -1.2100 N   0  0  0  0  0  0  0  0  0  0  0  0
    5.4482    2.1741   -1.0141 N   0  0  0  0  0  0  0  0  0  0  0  0
    6.0972    2.2135    0.2715 C   0  0  0  0  0  0  0  0  0  0  0  0
    5.5963    3.3736    1.1274 C   0  0  0  0  0  0  0  0  0  0  0  0
    5.7751    2.8474   -2.1390 C   0  0  1  0  0  3  0  0  0  0  0  0
    6.9437    3.7585   -2.2292 C   0  0  0  0  0  0  0  0  0  0  0  0
    4.8543    2.4881   -3.1010 C   0  0  0  0  0  0  0  0  0  0  0  0
    3.9799    1.5895   -2.4719 C   0  0  0  0  0  0  0  0  0  0  0  0
    2.8191    0.8905   -3.0164 C   0  0  0  0  0  0  0  0  0  0  0  0
    1.6576    0.7617   -2.2502 C   0  0  0  0  0  0  0  0  0  0  0  0
    0.5563    0.1047   -2.7774 C   0  0  0  0  0  0  0  0  0  0  0  0
    0.6083   -0.4409   -4.0493 C   0  0  0  0  0  0  0  0  0  0  0  0
    1.7599   -0.3146   -4.8088 C   0  0  0  0  0  0  0  0  0  0  0  0
    2.8578    0.3536   -4.3007 C   0  0  0  0  0  0  0  0  0  0  0  0
    4.8053    2.8330   -4.1131 H   0  0  0  0  0  0  0  0  0  0  0  0
    5.8550    1.2640    0.7799 H   0  0  0  0  0  0  0  0  0  0  0  0
    1.5943    1.2403   -1.2730 H   0  0  0  0  0  0  0  0  0  0  0  0
    7.1777    2.2778    0.1153 H   0  0  0  0  0  0  0  0  0  0  0  0
    5.7701    4.3301    0.6403 H   0  0  0  0  0  0  0  0  0  0  0  0
    3.7599    0.4456   -4.8866 H   0  0  0  0  0  0  0  0  0  0  0  0
   -0.3500    0.0250   -2.1937 H   0  0  0  0  0  0  0  0  0  0  0  0
    7.0084    4.1655   -3.2342 H   0  0  0  0  0  0  0  0  0  0  0  0
    6.1115    3.3658    2.0837 H   0  0  0  0  0  0  0  0  0  0  0  0
    6.8542    4.5834   -1.5239 H   0  0  0  0  0  0  0  0  0  0  0  0
    4.5299    3.2559    1.3100 H   0  0  0  0  0  0  0  0  0  0  0  0
    1.8017   -0.7386   -5.8013 H   0  0  0  0  0  0  0  0  0  0  0  0
    7.8678    3.2231   -2.0109 H   0  0  0  0  0  0  0  0  0  0  0  0
   -0.2506   -0.9584   -4.4512 H   0  0  0  0  0  0  0  0  0  0  0  0
  1  3  1  0  0  0  0
  1 31  1  0  0  0  0
  2  1  1  0  0  0  0
  3 10  1  0  0  0  0
  4  3  1  0  0  0  0
  4  7  1  0  0  0  0
  5 20  1  0  0  0  0
  5  4  1  0  0  0  0
  6 21  1  0  0  0  0
  6  5  1  0  0  0  0
  7  8  1  1  0  0  0
  7  9  1  0  0  0  0
  8 24  1  0  0  0  0
  9 17  1  0  0  0  0
 10 11  1  0  0  0  0
 10  9  2  0  0  0  0
 11 16  1  0  0  0  0
 12 13  1  0  0  0  0
 12 11  2  0  0  0  0
 13 14  2  0  0  0  0
 14 30  1  0  0  0  0
 14 15  1  0  0  0  0
 15 28  1  0  0  0  0
 16 15  2  0  0  0  0
 16 22  1  0  0  0  0
 18  5  1  0  0  0  0
 19 12  1  0  0  0  0
 23 13  1  0  0  0  0
 25  6  1  0  0  0  0
 26  8  1  0  0  0  0
 27  6  1  0  0  0  0
 29  8  1  0  0  0  0
 32 33  1  0  0  0  0
 32  1  1  0  0  0  0
 33 34  1  0  0  0  0
 34 47  1  0  0  0  0
 34 35  1  0  0  0  0
 35 56  1  0  0  0  0
 35 54  1  0  0  0  0
 36 37  1  6  0  0  0
 36 33  1  0  0  0  0
 37 58  1  0  0  0  0
 37 55  1  0  0  0  0
 38 39  2  0  0  0  0
 38 36  1  0  0  0  0
 39 32  1  0  0  0  0
 40 39  1  0  0  0  0
 40 41  1  0  0  0  0
 41 48  1  0  0  0  0
 42 41  2  0  0  0  0
 42 52  1  0  0  0  0
 43 42  1  0  0  0  0
 44 45  1  0  0  0  0
 44 43  2  0  0  0  0
 45 40  2  0  0  0  0
 46 38  1  0  0  0  0
 49 34  1  0  0  0  0
 50 35  1  0  0  0  0
 51 45  1  0  0  0  0
 53 37  1  0  0  0  0
 57 44  1  0  0  0  0
 59 43  1  0  0  0  0
M  END
$$$$
