CSD_code = FOBFAG | q = 0 | S = 0 | Stoichiometry = C24H18CdF6N4OSi | MND = 6
 OpenBabel04212202033D

 55 60  0  0  0  0  0  0  0  0999 V2000
    0.2932    9.0832    7.8022 Cd  0  0  0  0  0  0  0  0  0  0  0  0
   -0.9233   11.1100    6.8008 F   0  0  0  0  0  0  0  0  0  0  0  0
   -0.3981    8.7316    5.3861 O   0  0  0  0  0  0  0  0  0  0  0  0
   -1.0922    8.2782    5.8901 H   0  0  0  0  0  0  0  0  0  0  0  0
   -0.7425    9.6138    5.2096 H   0  0  0  0  0  0  0  0  0  0  0  0
    2.0800    8.2167    6.6795 N   0  0  0  0  0  0  0  0  0  0  0  0
    2.0314    7.1456    5.9208 C   0  0  0  0  0  0  0  0  0  0  0  0
    1.2904    6.4035    6.1916 H   0  0  0  0  0  0  0  0  0  0  0  0
    2.8698    6.9585    4.8172 C   0  0  0  0  0  0  0  0  0  0  0  0
    2.7843    6.0637    4.2210 H   0  0  0  0  0  0  0  0  0  0  0  0
    3.7809    7.9374    4.5023 C   0  0  0  0  0  0  0  0  0  0  0  0
    4.4364    7.8386    3.6487 H   0  0  0  0  0  0  0  0  0  0  0  0
    3.8515    9.0929    5.2975 C   0  0  0  0  0  0  0  0  0  0  0  0
    2.9624    9.1839    6.3920 C   0  0  0  0  0  0  0  0  0  0  0  0
    4.7521   10.1631    5.0295 C   0  0  0  0  0  0  0  0  0  0  0  0
    5.4120   10.0728    4.1790 H   0  0  0  0  0  0  0  0  0  0  0  0
    4.7665   11.2715    5.8066 C   0  0  0  0  0  0  0  0  0  0  0  0
    5.4370   12.0906    5.5921 H   0  0  0  0  0  0  0  0  0  0  0  0
    2.0967   10.4458    8.2240 N   0  0  0  0  0  0  0  0  0  0  0  0
    2.9784   10.3613    7.2172 C   0  0  0  0  0  0  0  0  0  0  0  0
    3.8826   11.4027    6.9155 C   0  0  0  0  0  0  0  0  0  0  0  0
    3.8364   12.5542    7.7183 C   0  0  0  0  0  0  0  0  0  0  0  0
    4.4908   13.3843    7.4964 H   0  0  0  0  0  0  0  0  0  0  0  0
    2.9440   12.6089    8.7598 C   0  0  0  0  0  0  0  0  0  0  0  0
    2.8708   13.4814    9.3885 H   0  0  0  0  0  0  0  0  0  0  0  0
    2.0874   11.5242    8.9718 C   0  0  0  0  0  0  0  0  0  0  0  0
    1.3562   11.5466    9.7686 H   0  0  0  0  0  0  0  0  0  0  0  0
   -0.8180    9.8885    9.6846 N   0  0  0  0  0  0  0  0  0  0  0  0
   -1.6351   10.9174    9.6935 C   0  0  0  0  0  0  0  0  0  0  0  0
   -1.3997   11.7303    9.0224 H   0  0  0  0  0  0  0  0  0  0  0  0
   -2.7633   10.9908   10.5207 C   0  0  0  0  0  0  0  0  0  0  0  0
   -3.4045   11.8567   10.4750 H   0  0  0  0  0  0  0  0  0  0  0  0
   -3.0351    9.9460   11.3671 C   0  0  0  0  0  0  0  0  0  0  0  0
   -3.9014    9.9551   12.0136 H   0  0  0  0  0  0  0  0  0  0  0  0
   -2.1671    8.8409   11.3898 C   0  0  0  0  0  0  0  0  0  0  0  0
   -1.0574    8.8607   10.5147 C   0  0  0  0  0  0  0  0  0  0  0  0
   -2.3798    7.7223   12.2453 C   0  0  0  0  0  0  0  0  0  0  0  0
   -3.2423    7.7359   12.8957 H   0  0  0  0  0  0  0  0  0  0  0  0
   -1.5313    6.6680   12.2372 C   0  0  0  0  0  0  0  0  0  0  0  0
   -1.6968    5.8156   12.8799 H   0  0  0  0  0  0  0  0  0  0  0  0
    0.8995    7.7696    9.6778 N   0  0  0  0  0  0  0  0  0  0  0  0
   -0.1513    7.7418   10.5095 C   0  0  0  0  0  0  0  0  0  0  0  0
   -0.3997    6.6490   11.3730 C   0  0  0  0  0  0  0  0  0  0  0  0
    0.4959    5.5684   11.3292 C   0  0  0  0  0  0  0  0  0  0  0  0
    0.3297    4.7129   11.9685 H   0  0  0  0  0  0  0  0  0  0  0  0
    1.5648    5.6181   10.4686 C   0  0  0  0  0  0  0  0  0  0  0  0
    2.2706    4.8044   10.4062 H   0  0  0  0  0  0  0  0  0  0  0  0
    1.7222    6.7480    9.6591 C   0  0  0  0  0  0  0  0  0  0  0  0
    2.5559    6.8194    8.9714 H   0  0  0  0  0  0  0  0  0  0  0  0
   -0.0153   12.4123    6.1447 Si  0  0  0  0  0  0  0  0  0  0  0  0
    0.0637   13.0000    7.6558 F   0  0  0  0  0  0  0  0  0  0  0  0
    0.9511   13.5996    5.5983 F   0  0  0  0  0  0  0  0  0  0  0  0
    1.0131   11.2768    5.5919 F   0  0  0  0  0  0  0  0  0  0  0  0
   -1.2247    7.7525    7.7385 F   0  0  0  0  0  0  0  0  0  0  0  0
   -1.2472   12.7782    5.1907 F   0  0  0  0  0  0  0  0  0  0  0  0
  1 19  1  0  0  0  0
  1 41  1  0  0  0  0
  1 28  1  0  0  0  0
  3  4  1  0  0  0  0
  5  3  1  0  0  0  0
  6  1  1  0  0  0  0
  7  8  1  0  0  0  0
  7  6  1  0  0  0  0
  9  7  2  0  0  0  0
 10  9  1  0  0  0  0
 11  9  1  0  0  0  0
 11 13  2  0  0  0  0
 12 11  1  0  0  0  0
 13 14  1  0  0  0  0
 14  6  1  0  0  0  0
 14 20  2  0  0  0  0
 15 13  1  0  0  0  0
 15 17  2  0  0  0  0
 16 15  1  0  0  0  0
 17 21  1  0  0  0  0
 18 17  1  0  0  0  0
 19 26  1  0  0  0  0
 20 19  1  0  0  0  0
 21 20  1  0  0  0  0
 21 22  2  0  0  0  0
 22 24  1  0  0  0  0
 23 22  1  0  0  0  0
 24 26  2  0  0  0  0
 24 25  1  0  0  0  0
 26 27  1  0  0  0  0
 28 29  1  0  0  0  0
 28 36  1  0  0  0  0
 29 31  2  0  0  0  0
 30 29  1  0  0  0  0
 31 33  1  0  0  0  0
 32 31  1  0  0  0  0
 33 35  2  0  0  0  0
 33 34  1  0  0  0  0
 35 37  1  0  0  0  0
 36 35  1  0  0  0  0
 37 38  1  0  0  0  0
 39 37  2  0  0  0  0
 39 40  1  0  0  0  0
 41 42  1  0  0  0  0
 42 36  2  0  0  0  0
 42 43  1  0  0  0  0
 43 39  1  0  0  0  0
 44 43  2  0  0  0  0
 44 45  1  0  0  0  0
 46 44  1  0  0  0  0
 47 46  1  0  0  0  0
 48 41  1  0  0  0  0
 48 46  2  0  0  0  0
 49 48  1  0  0  0  0
 50  2  1  0  0  0  0
 50 51  1  0  0  0  0
 52 50  1  0  0  0  0
 53 50  1  0  0  0  0
 54  1  1  0  0  0  0
 55 50  1  0  0  0  0
M  END
$$$$
