CSD_code = FOCJEN | q = 0 | S = 0 | Stoichiometry = C23H19ClN4OPd | MND = 4
 OpenBabel04212202033D

 49 54  0  0  1  0  0  0  0  0999 V2000
    5.3497    0.3742   15.2156 Pd  0  0  1  0  0  0  0  0  0  0  0  0
    5.8062    1.7699   13.4778 Cl  0  0  0  0  0  0  0  0  0  0  0  0
    4.5154    0.2428   18.7416 O   0  0  0  0  0  0  0  0  0  0  0  0
    3.7617    1.5296   15.7886 N   0  0  0  0  0  0  0  0  0  0  0  0
    4.6543   -0.8584   16.6491 N   0  0  0  0  0  0  0  0  0  0  0  0
    6.7529   -2.1167   15.0903 N   0  0  0  0  0  0  0  0  0  0  0  0
    6.7662   -0.8791   14.8003 N   0  0  0  0  0  0  0  0  0  0  0  0
    3.2681    2.6199   15.2058 C   0  0  0  0  0  3  0  0  0  0  0  0
    2.1757    3.3000   15.7166 C   0  0  0  0  0  0  0  0  0  0  0  0
    1.5737    2.8302   16.8733 C   0  0  0  0  0  0  0  0  0  0  0  0
    2.0885    1.6931   17.4752 C   0  0  0  0  0  0  0  0  0  0  0  0
    3.1843    1.0646   16.9009 C   0  0  0  0  0  0  0  0  0  0  0  0
    3.8090   -0.1507   17.5695 C   0  0  2  0  0  0  0  0  0  0  0  0
    4.9965   -2.1258   16.8289 C   0  0  0  0  0  0  0  0  0  0  0  0
    4.4614   -2.9387   17.8785 C   0  0  0  0  0  0  0  0  0  0  0  0
    4.7388   -4.2590   17.9867 C   0  0  0  0  0  0  0  0  0  0  0  0
    5.6074   -4.9206   17.0781 C   0  0  0  0  0  0  0  0  0  0  0  0
    5.8723   -6.2950   17.1765 C   0  0  0  0  0  0  0  0  0  0  0  0
    6.7419   -6.9033   16.3070 C   0  0  0  0  0  0  0  0  0  0  0  0
    7.3749   -6.1470   15.3180 C   0  0  0  0  0  0  0  0  0  0  0  0
    7.1269   -4.8015   15.2019 C   0  0  0  0  0  0  0  0  0  0  0  0
    6.2358   -4.1568   16.0729 C   0  0  2  0  0  3  0  0  0  0  0  0
    5.9671   -2.7434   15.9584 C   0  0  0  0  0  0  0  0  0  0  0  0
    7.8616   -0.4751   14.0174 C   0  0  0  0  0  0  0  0  0  0  0  0
    8.3287   -1.2472   12.9578 C   0  0  0  0  0  0  0  0  0  0  0  0
    9.4112   -0.8091   12.2185 C   0  0  0  0  0  0  0  0  0  0  0  0
   10.0408    0.3818   12.5405 C   0  0  0  0  0  0  0  0  0  0  0  0
    9.5908    1.1396   13.6115 C   0  0  0  0  0  0  0  0  0  0  0  0
    8.5066    0.7159   14.3529 C   0  0  0  0  0  0  0  0  0  0  0  0
    5.5570    1.1747   18.5273 C   0  0  0  0  0  0  0  0  0  0  0  0
    3.7837    2.9484   14.3101 H   0  0  0  0  0  0  0  0  0  0  0  0
    1.8099    4.1814   15.2154 H   0  0  0  0  0  0  0  0  0  0  0  0
    0.7209    3.3360   17.2995 H   0  0  0  0  0  0  0  0  0  0  0  0
    1.6585    1.2945   18.3805 H   0  0  0  0  0  0  0  0  0  0  0  0
    2.9940   -0.7845   17.9547 H   0  0  0  0  0  0  0  0  0  0  0  0
    3.8176   -2.4776   18.6107 H   0  0  0  0  0  0  0  0  0  0  0  0
    4.2981   -4.8366   18.7874 H   0  0  0  0  0  0  0  0  0  0  0  0
    5.3798   -6.8658   17.9510 H   0  0  0  0  0  0  0  0  0  0  0  0
    6.9426   -7.9615   16.3861 H   0  0  0  0  0  0  0  0  0  0  0  0
    8.0642   -6.6281   14.6395 H   0  0  0  0  0  0  0  0  0  0  0  0
    7.6164   -4.2154   14.4406 H   0  0  0  0  0  0  0  0  0  0  0  0
    7.8151   -2.1641   12.7104 H   0  0  0  0  0  0  0  0  0  0  0  0
    9.7605   -1.3969   11.3826 H   0  0  0  0  0  0  0  0  0  0  0  0
   10.8814    0.7230   11.9552 H   0  0  0  0  0  0  0  0  0  0  0  0
   10.0855    2.0651   13.8647 H   0  0  0  0  0  0  0  0  0  0  0  0
    8.1369    1.2950   15.1988 H   0  0  0  0  0  0  0  0  0  0  0  0
    6.1890    1.1260   19.4116 H   0  0  0  0  0  0  0  0  0  0  0  0
    6.1647    0.9195   17.6338 H   0  0  0  0  0  0  0  0  0  0  0  0
    5.1615    2.1920   18.4164 H   0  0  0  0  0  0  0  0  0  0  0  0
  1  2  1  6  0  0  0
  1  4  1  0  0  0  0
  1  5  1  0  0  0  0
  4 12  1  0  0  0  0
  5 14  1  0  0  0  0
  5 13  1  0  0  0  0
  6 23  2  0  0  0  0
  7  6  1  0  0  0  0
  7  1  1  0  0  0  0
  8  9  1  0  0  0  0
  8  4  1  0  0  0  0
  9 10  2  0  0  0  0
 10 33  1  0  0  0  0
 10 11  1  0  0  0  0
 11 34  1  0  0  0  0
 12 11  2  0  0  0  0
 12 13  1  0  0  0  0
 13 35  1  1  0  0  0
 13  3  1  0  0  0  0
 14 15  2  0  0  0  0
 15 16  1  0  0  0  0
 15 36  1  0  0  0  0
 16 37  1  0  0  0  0
 17 18  1  0  0  0  0
 17 16  2  0  0  0  0
 18 38  1  0  0  0  0
 19 39  1  0  0  0  0
 19 18  2  0  0  0  0
 20 19  1  0  0  0  0
 21 20  2  0  0  0  0
 22 21  1  1  0  0  0
 22 17  1  0  0  0  0
 23 22  1  0  0  0  0
 23 14  1  0  0  0  0
 24 29  1  0  0  0  0
 24  7  1  0  0  0  0
 25 24  2  0  0  0  0
 26 27  2  0  0  0  0
 26 25  1  0  0  0  0
 27 28  1  0  0  0  0
 28 45  1  0  0  0  0
 28 29  2  0  0  0  0
 29 46  1  0  0  0  0
 30  3  1  0  0  0  0
 30 47  1  0  0  0  0
 31  8  1  0  0  0  0
 32  9  1  0  0  0  0
 40 20  1  0  0  0  0
 41 21  1  0  0  0  0
 42 25  1  0  0  0  0
 43 26  1  0  0  0  0
 44 27  1  0  0  0  0
 48 30  1  0  0  0  0
 49 30  1  0  0  0  0
M  END
$$$$
