CSD_code = FOCKIR | q = 0 | S = 0 | Stoichiometry = C11H18ClNiP | MND = 5
 OpenBabel04212202033D

 32 30  0  0  0  0  0  0  0  0999 V2000
   -0.8393    1.0583    1.9373 Ni  0  0  0  0  0  0  0  0  0  0  0  0
    0.8935    1.9984    2.6119 Cl  0  0  0  0  0 15  0  0  0  0  0  0
   -1.6569    2.9832    1.4949 P   0  0  0  0  0  0  0  0  0  0  0  0
   -0.6276    4.0131    0.3885 C   0  0  0  0  0  0  0  0  0  0  0  0
   -1.8041    4.0595    2.9669 C   0  0  0  0  0  0  0  0  0  0  0  0
   -3.3163    3.1990    0.7287 C   0  0  0  0  0  0  0  0  0  0  0  0
   -2.3049   -0.0840    1.4193 C   0  0  0  0  0  0  0  0  0  0  0  0
   -1.5260   -0.8431    2.3605 C   0  0  0  0  0  0  0  0  0  0  0  0
   -0.1371   -0.9676    2.0532 C   0  0  0  0  0  0  0  0  0  0  0  0
    0.7432   -1.5407    2.9728 C   0  0  0  0  0  0  0  0  0  0  0  0
    0.2756   -1.9568    4.1981 C   0  0  0  0  0  0  0  0  0  0  0  0
   -1.0770   -1.8250    4.5161 C   0  0  0  0  0  0  0  0  0  0  0  0
   -1.9808   -1.2705    3.6381 C   0  0  0  0  0  0  0  0  0  0  0  0
   -3.4301   -1.1472    4.0031 C   0  0  0  0  0  0  0  0  0  0  0  0
    0.2034   -0.8139    1.0215 H   0  0  0  0  0  0  0  0  0  0  0  0
    1.7870   -1.6493    2.7169 H   0  0  0  0  0  0  0  0  0  0  0  0
    0.9504   -2.3955    4.9176 H   0  0  0  0  0  0  0  0  0  0  0  0
   -1.4232   -2.1663    5.4820 H   0  0  0  0  0  0  0  0  0  0  0  0
   -3.3545    0.0810    1.6415 H   0  0  0  0  0  0  0  0  0  0  0  0
   -2.1240   -0.2855    0.3594 H   0  0  0  0  0  0  0  0  0  0  0  0
   -4.0586   -1.6465    3.2656 H   0  0  0  0  0  0  0  0  0  0  0  0
   -3.6160   -1.5926    4.9772 H   0  0  0  0  0  0  0  0  0  0  0  0
   -3.7243   -0.0980    4.0439 H   0  0  0  0  0  0  0  0  0  0  0  0
   -0.5664    3.5474   -0.5932 H   0  0  0  0  0  0  0  0  0  0  0  0
   -1.0630    5.0071    0.2962 H   0  0  0  0  0  0  0  0  0  0  0  0
    0.3729    4.0766    0.8111 H   0  0  0  0  0  0  0  0  0  0  0  0
   -0.8246    4.1389    3.4338 H   0  0  0  0  0  0  0  0  0  0  0  0
   -2.1623    5.0450    2.6724 H   0  0  0  0  0  0  0  0  0  0  0  0
   -2.4980    3.6147    3.6780 H   0  0  0  0  0  0  0  0  0  0  0  0
   -4.0784    2.7737    1.3776 H   0  0  0  0  0  0  0  0  0  0  0  0
   -3.5239    4.2564    0.5753 H   0  0  0  0  0  0  0  0  0  0  0  0
   -3.3468    2.6829   -0.2283 H   0  0  0  0  0  0  0  0  0  0  0  0
  3  5  1  0  0  0  0
  4 26  1  0  0  0  0
  4  3  1  0  0  0  0
  5 27  1  0  0  0  0
  5 29  1  0  0  0  0
  6 30  1  0  0  0  0
  6  3  1  0  0  0  0
  7 19  1  0  0  0  0
  7  1  1  0  0  0  0
  7  8  1  0  0  0  0
  8 13  1  0  0  0  0
  9  8  2  0  0  0  0
  9 10  1  0  0  0  0
 10 11  2  0  0  0  0
 11 12  1  0  0  0  0
 11 17  1  0  0  0  0
 12 18  1  0  0  0  0
 13 14  1  0  0  0  0
 13 12  2  0  0  0  0
 14 23  1  0  0  0  0
 14 22  1  0  0  0  0
 15  9  1  0  0  0  0
 16 10  1  0  0  0  0
 20  7  1  0  0  0  0
 21 14  1  0  0  0  0
 24  4  1  0  0  0  0
 25  4  1  0  0  0  0
 28  5  1  0  0  0  0
 31  6  1  0  0  0  0
 32  6  1  0  0  0  0
M  END
$$$$
