CSD_code = FOCMIU | q = 0 | S = 0 | Stoichiometry = C14H11Cl2N3Pd | MND = 4
 OpenBabel04212202033D

 31 34  0  0  0  0  0  0  0  0999 V2000
    2.7190    1.6787    5.7682 Pd  0  0  0  0  0  0  0  0  0  0  0  0
    3.0893    0.5423    7.6251 Cl  0  0  0  0  0  0  0  0  0  0  0  0
    1.4670    3.1019    6.8841 Cl  0  0  0  0  0  0  0  0  0  0  0  0
    2.4733    2.6229    3.9472 N   0  0  0  0  0  0  0  0  0  0  0  0
    3.7881    0.5170    4.6545 N   0  0  0  0  0  0  0  0  0  0  0  0
    4.5074   -0.5884    4.9256 N   0  0  0  0  0  0  0  0  0  0  0  0
    1.7721    3.7195    3.6725 C   0  0  0  0  0  0  0  0  0  0  0  0
    1.2630    4.1742    4.5152 H   0  0  0  0  0  0  0  0  0  0  0  0
    1.6957    4.2478    2.3965 C   0  0  0  0  0  0  0  0  0  0  0  0
    2.3739    3.6145    1.3564 C   0  0  0  0  0  0  0  0  0  0  0  0
    3.1031    2.4776    1.6285 C   0  0  0  0  0  0  0  0  0  0  0  0
    3.6428    1.9568    0.8530 H   0  0  0  0  0  0  0  0  0  0  0  0
    3.1409    1.9935    2.9427 C   0  0  0  0  0  0  0  0  0  0  0  0
    3.8528    0.8375    3.3702 C   0  0  0  0  0  0  0  0  0  0  0  0
    4.7123   -0.1562    2.6580 C   0  0  0  0  0  0  0  0  0  0  0  0
    4.1711   -0.7061    1.8850 H   0  0  0  0  0  0  0  0  0  0  0  0
    5.5966    0.2955    2.2034 H   0  0  0  0  0  0  0  0  0  0  0  0
    5.0635   -1.0299    3.8408 C   0  0  0  0  0  0  0  0  0  0  0  0
    5.9017   -2.2011    3.8184 C   0  0  0  0  0  0  0  0  0  0  0  0
    6.4767   -2.6673    2.6327 C   0  0  0  0  0  0  0  0  0  0  0  0
    7.2786   -3.7914    2.6486 C   0  0  0  0  0  0  0  0  0  0  0  0
    7.7208   -4.1484    1.7303 H   0  0  0  0  0  0  0  0  0  0  0  0
    7.5178   -4.4617    3.8387 C   0  0  0  0  0  0  0  0  0  0  0  0
    6.9498   -4.0063    5.0199 C   0  0  0  0  0  0  0  0  0  0  0  0
    6.1464   -2.8849    5.0152 C   0  0  0  0  0  0  0  0  0  0  0  0
    5.6936   -2.5107    5.9196 H   0  0  0  0  0  0  0  0  0  0  0  0
    1.1169    5.1388    2.2171 H   0  0  0  0  0  0  0  0  0  0  0  0
    2.3292    4.0088    0.3528 H   0  0  0  0  0  0  0  0  0  0  0  0
    6.2958   -2.1526    1.7006 H   0  0  0  0  0  0  0  0  0  0  0  0
    8.1473   -5.3385    3.8439 H   0  0  0  0  0  0  0  0  0  0  0  0
    7.1367   -4.5297    5.9452 H   0  0  0  0  0  0  0  0  0  0  0  0
  1  3  1  0  0  0  0
  1  2  1  0  0  0  0
  4  1  1  0  0  0  0
  5  6  1  0  0  0  0
  5  1  1  0  0  0  0
  7  4  1  0  0  0  0
  7  8  1  0  0  0  0
  9  7  2  0  0  0  0
 10 11  2  0  0  0  0
 10  9  1  0  0  0  0
 11 13  1  0  0  0  0
 12 11  1  0  0  0  0
 13 14  2  0  0  0  0
 13  4  1  0  0  0  0
 14  5  1  0  0  0  0
 15 14  1  0  0  0  0
 15 18  1  0  0  0  0
 16 15  1  0  0  0  0
 17 15  1  0  0  0  0
 18  6  2  0  0  0  0
 19 18  1  0  0  0  0
 19 25  1  0  0  0  0
 20 21  1  0  0  0  0
 20 19  2  0  0  0  0
 21 23  2  0  0  0  0
 22 21  1  0  0  0  0
 23 30  1  0  0  0  0
 23 24  1  0  0  0  0
 24 31  1  0  0  0  0
 25 24  2  0  0  0  0
 25 26  1  0  0  0  0
 27  9  1  0  0  0  0
 28 10  1  0  0  0  0
 29 20  1  0  0  0  0
M  END
$$$$
