CSD_code = FOCSAS | q = 0 | S = 0 | Stoichiometry = C23H27Cl2NP2Pt | MND = 4
 OpenBabel04212202033D

 56 58  0  0  0  0  0  0  0  0999 V2000
   -2.0008    9.7287    3.6471 Pt  0  0  0  0  0  0  0  0  0  0  0  0
   -1.4409    7.5096    3.6874 P   0  0  0  0  0  4  0  0  0  0  0  0
   -2.3556   11.9871    3.5694 Cl  0  0  0  0  0  0  0  0  0  0  0  0
   -4.2744    9.5263    3.7065 P   0  0  0  0  0  4  0  0  0  0  0  0
    0.2696   10.1163    3.6634 Cl  0  0  0  0  0  0  0  0  0  0  0  0
   -0.1329    7.2583    4.6829 N   0  0  0  0  0  0  0  0  0  0  0  0
    0.4965    8.0629    4.6406 H   0  0  0  0  0  0  0  0  0  0  0  0
    0.5594    5.9859    4.7829 C   0  0  0  0  0  0  0  0  0  0  0  0
    1.2126    5.8021    3.9159 H   0  0  0  0  0  0  0  0  0  0  0  0
   -0.1925    5.1865    4.7998 H   0  0  0  0  0  0  0  0  0  0  0  0
    1.3848    5.8948    6.0328 C   0  0  0  0  0  0  0  0  0  0  0  0
    1.9700    4.9870    6.1030 H   0  0  0  0  0  0  0  0  0  0  0  0
    1.4297    6.8030    6.9883 C   0  0  0  0  0  0  0  0  0  0  0  0
    0.8546    7.7113    6.9385 H   0  0  0  0  0  0  0  0  0  0  0  0
    2.0481    6.6731    7.8594 H   0  0  0  0  0  0  0  0  0  0  0  0
   -1.0201    6.8952    2.0159 C   0  0  0  0  0  0  0  0  0  0  0  0
   -0.7922    7.8466    1.0278 C   0  0  0  0  0  0  0  0  0  0  0  0
   -0.9133    8.8985    1.2738 H   0  0  0  0  0  0  0  0  0  0  0  0
   -0.4053    7.4579   -0.2411 C   0  0  0  0  0  0  0  0  0  0  0  0
   -0.2329    8.2007   -1.0058 H   0  0  0  0  0  0  0  0  0  0  0  0
   -0.2328    6.1131   -0.5270 C   0  0  0  0  0  0  0  0  0  0  0  0
    0.0711    5.8051   -1.5166 H   0  0  0  0  0  0  0  0  0  0  0  0
   -0.4431    5.1613    0.4578 C   0  0  0  0  0  0  0  0  0  0  0  0
   -0.3003    4.1135    0.2359 H   0  0  0  0  0  0  0  0  0  0  0  0
   -0.8339    5.5474    1.7276 C   0  0  0  0  0  0  0  0  0  0  0  0
   -1.0036    4.8006    2.4910 H   0  0  0  0  0  0  0  0  0  0  0  0
   -2.6153    6.2776    4.3275 C   0  0  0  0  0  0  0  0  0  0  0  0
   -3.4788    5.5621    3.5071 C   0  0  0  0  0  0  0  0  0  0  0  0
   -3.4256    5.6813    2.4347 H   0  0  0  0  0  0  0  0  0  0  0  0
   -4.4007    4.6927    4.0636 C   0  0  0  0  0  0  0  0  0  0  0  0
   -5.0630    4.1332    3.4197 H   0  0  0  0  0  0  0  0  0  0  0  0
   -4.4762    4.5408    5.4381 C   0  0  0  0  0  0  0  0  0  0  0  0
   -5.1965    3.8608    5.8682 H   0  0  0  0  0  0  0  0  0  0  0  0
   -3.6267    5.2635    6.2622 C   0  0  0  0  0  0  0  0  0  0  0  0
   -3.6866    5.1493    7.3347 H   0  0  0  0  0  0  0  0  0  0  0  0
   -2.7044    6.1323    5.7099 C   0  0  0  0  0  0  0  0  0  0  0  0
   -2.0361    6.7041    6.3388 H   0  0  0  0  0  0  0  0  0  0  0  0
   -4.8944    8.2887    2.5272 C   0  0  0  0  0  0  0  0  0  0  0  0
   -4.2413    8.2543    1.2989 C   0  0  0  0  0  0  0  0  0  0  0  0
   -3.4222    8.9446    1.1287 H   0  0  0  0  0  0  0  0  0  0  0  0
   -4.6277    7.3573    0.3219 C   0  0  0  0  0  0  0  0  0  0  0  0
   -4.1087    7.3293   -0.6247 H   0  0  0  0  0  0  0  0  0  0  0  0
   -5.6812    6.4897    0.5668 C   0  0  0  0  0  0  0  0  0  0  0  0
   -5.9867    5.7838   -0.1913 H   0  0  0  0  0  0  0  0  0  0  0  0
   -6.3423    6.5275    1.7832 C   0  0  0  0  0  0  0  0  0  0  0  0
   -7.1660    5.8539    1.9700 H   0  0  0  0  0  0  0  0  0  0  0  0
   -5.9512    7.4215    2.7654 C   0  0  0  0  0  0  0  0  0  0  0  0
   -6.4653    7.4329    3.7147 H   0  0  0  0  0  0  0  0  0  0  0  0
   -4.9396    9.0424    5.3399 C   0  0  0  0  0  0  0  0  0  0  0  0
   -6.0282    9.0783    5.3439 H   0  0  0  0  0  0  0  0  0  0  0  0
   -4.5568    9.7531    6.0726 H   0  0  0  0  0  0  0  0  0  0  0  0
   -4.5928    8.0441    5.6016 H   0  0  0  0  0  0  0  0  0  0  0  0
   -5.3247   10.9596    3.2871 C   0  0  0  0  0  0  0  0  0  0  0  0
   -6.3734   10.6605    3.3000 H   0  0  0  0  0  0  0  0  0  0  0  0
   -5.0520   11.3247    2.2985 H   0  0  0  0  0  0  0  0  0  0  0  0
   -5.1409   11.7534    4.0086 H   0  0  0  0  0  0  0  0  0  0  0  0
  1  5  1  0  0  0  0
  1  2  1  0  0  0  0
  1  4  1  0  0  0  0
  2 27  1  0  0  0  0
  2  6  1  0  0  0  0
  3  1  1  0  0  0  0
  4 49  1  0  0  0  0
  6  8  1  0  0  0  0
  7  6  1  0  0  0  0
  8 10  1  0  0  0  0
  8 11  1  0  0  0  0
  9  8  1  0  0  0  0
 11 12  1  0  0  0  0
 11 13  2  0  0  0  0
 13 15  1  0  0  0  0
 14 13  1  0  0  0  0
 16  2  1  0  0  0  0
 17 18  1  0  0  0  0
 17 16  2  0  0  0  0
 19 17  1  0  0  0  0
 20 19  1  0  0  0  0
 21 19  2  0  0  0  0
 21 23  1  0  0  0  0
 22 21  1  0  0  0  0
 23 25  2  0  0  0  0
 24 23  1  0  0  0  0
 25 16  1  0  0  0  0
 25 26  1  0  0  0  0
 27 36  1  0  0  0  0
 28 30  1  0  0  0  0
 28 27  2  0  0  0  0
 29 28  1  0  0  0  0
 30 32  2  0  0  0  0
 31 30  1  0  0  0  0
 32 33  1  0  0  0  0
 32 34  1  0  0  0  0
 34 35  1  0  0  0  0
 36 34  2  0  0  0  0
 36 37  1  0  0  0  0
 38 47  1  0  0  0  0
 38  4  1  0  0  0  0
 39 38  2  0  0  0  0
 40 39  1  0  0  0  0
 41 43  2  0  0  0  0
 41 39  1  0  0  0  0
 42 41  1  0  0  0  0
 43 45  1  0  0  0  0
 44 43  1  0  0  0  0
 45 46  1  0  0  0  0
 45 47  2  0  0  0  0
 47 48  1  0  0  0  0
 49 50  1  0  0  0  0
 49 52  1  0  0  0  0
 49 51  1  0  0  0  0
 53 54  1  0  0  0  0
 53  4  1  0  0  0  0
 53 56  1  0  0  0  0
 55 53  1  0  0  0  0
M  END
$$$$
