CSD_code = FODDEK | q = 0 | S = 0 | Stoichiometry = C25H29I2N3Pd | MND = 4
 OpenBabel04212202033D

 60 65  0  0  1  0  0  0  0  0999 V2000
    1.3062    5.7551    4.4148 Pd  0  0  0  0  0  0  0  0  0  0  0  0
    2.4001    6.2612    2.0878 I   0  0  0  0  0  0  0  0  0  0  0  0
    0.2000    5.5741    6.7782 I   0  0  0  0  0  0  0  0  0  0  0  0
    3.1151    5.5763    5.2439 N   0  0  0  0  0  0  0  0  0  0  0  0
   -0.4742    5.9839    3.6283 C   0  0  0  0  0  0  0  0  0  0  0  0
   -1.5784   11.7849    2.9887 C   0  0  0  0  0  0  0  0  0  0  0  0
   -2.1310   12.6377    3.3541 H   0  0  0  0  0  0  0  0  0  0  0  0
   -1.0514    7.1950    3.6246 N   0  0  0  0  0  0  0  0  0  0  0  0
    0.2364    1.6640    3.2228 C   0  0  2  0  0  0  0  0  0  0  0  0
    1.0835    1.2748    3.7990 H   0  0  0  0  0  0  0  0  0  0  0  0
    0.0501    3.1456    3.5553 C   0  0  0  0  0  0  0  0  0  0  0  0
   -0.1527    3.2540    4.6297 H   0  0  0  0  0  0  0  0  0  0  0  0
    0.9875    3.6728    3.2877 H   0  0  0  0  0  0  0  0  0  0  0  0
   -0.1591    9.5964    2.0610 C   0  0  0  0  0  0  0  0  0  0  0  0
    0.4013    8.7471    1.6989 H   0  0  0  0  0  0  0  0  0  0  0  0
   -1.3294    5.1386    3.0276 N   0  0  0  0  0  0  0  0  0  0  0  0
   -0.4746    8.3815    4.2279 C   0  0  0  0  0  0  0  0  0  0  0  0
   -0.9302    8.5398    5.2138 H   0  0  0  0  0  0  0  0  0  0  0  0
    0.6121    8.1872    4.3725 H   0  0  0  0  0  0  0  0  0  0  0  0
   -1.1271    3.7118    2.7496 C   0  0  2  0  0  0  0  0  0  0  0  0
   -0.3545   10.6923    1.2410 C   0  0  0  0  0  0  0  0  0  0  0  0
    0.0523   10.6906    0.2410 H   0  0  0  0  0  0  0  0  0  0  0  0
   -1.3882   10.6866    3.8095 C   0  0  0  0  0  0  0  0  0  0  0  0
   -1.7920   10.6851    4.8123 H   0  0  0  0  0  0  0  0  0  0  0  0
   -2.3912    2.9318    3.1327 C   0  0  0  0  0  0  0  0  0  0  0  0
   -2.5873    3.0586    4.2002 H   0  0  0  0  0  0  0  0  0  0  0  0
   -3.2557    3.3078    2.5843 H   0  0  0  0  0  0  0  0  0  0  0  0
    0.5211    1.5093    1.7297 C   0  0  0  0  0  0  0  0  0  0  0  0
    1.4320    2.0498    1.4625 H   0  0  0  0  0  0  0  0  0  0  0  0
    0.6743    0.4559    1.4881 H   0  0  0  0  0  0  0  0  0  0  0  0
   -1.0644   11.7880    1.7034 C   0  0  0  0  0  0  0  0  0  0  0  0
   -1.2153   12.6445    1.0634 H   0  0  0  0  0  0  0  0  0  0  0  0
    3.6695    4.3835    5.4289 C   0  0  0  0  0  3  0  0  0  0  0  0
    3.0971    3.5214    5.0864 H   0  0  0  0  0  0  0  0  0  0  0  0
   -2.2018    1.4515    2.7995 C   0  0  2  0  0  0  0  0  0  0  0  0
   -3.1161    0.9097    3.0643 H   0  0  0  0  0  0  0  0  0  0  0  0
   -0.6760    9.5873    3.3512 C   0  0  0  0  0  0  0  0  0  0  0  0
   -0.8415    3.5438    1.2519 C   0  0  0  0  0  0  0  0  0  0  0  0
   -1.6689    3.9541    0.6685 H   0  0  0  0  0  0  0  0  0  0  0  0
    0.0611    4.1002    0.9873 H   0  0  0  0  0  0  0  0  0  0  0  0
   -0.6595    2.0607    0.9327 C   0  0  2  0  0  0  0  0  0  0  0  0
   -0.4624    1.9493   -0.1384 H   0  0  0  0  0  0  0  0  0  0  0  0
   -1.0264    0.8913    3.5952 C   0  0  0  0  0  0  0  0  0  0  0  0
   -0.8944   -0.1686    3.3703 H   0  0  0  0  0  0  0  0  0  0  0  0
   -1.2208    0.9856    4.6658 H   0  0  0  0  0  0  0  0  0  0  0  0
   -2.4416    5.8427    2.6283 C   0  0  0  0  0  0  0  0  0  0  0  0
   -3.2598    5.3956    2.1057 H   0  0  0  0  0  0  0  0  0  0  0  0
   -1.9304    1.2965    1.3030 C   0  0  0  0  0  0  0  0  0  0  0  0
   -1.8116    0.2396    1.0570 H   0  0  0  0  0  0  0  0  0  0  0  0
   -2.7768    1.6793    0.7279 H   0  0  0  0  0  0  0  0  0  0  0  0
   -2.2717    7.1276    3.0104 C   0  0  0  0  0  0  0  0  0  0  0  0
   -2.9022    7.9842    2.8918 H   0  0  0  0  0  0  0  0  0  0  0  0
    3.7593    6.6662    5.6483 C   0  0  0  0  0  0  0  0  0  0  0  0
    3.2607    7.6213    5.4744 H   0  0  0  0  0  0  0  0  0  0  0  0
    4.9064    4.2321    6.0295 C   0  0  0  0  0  0  0  0  0  0  0  0
    5.3246    3.2471    6.1622 H   0  0  0  0  0  0  0  0  0  0  0  0
    4.9984    6.6053    6.2591 C   0  0  0  0  0  0  0  0  0  0  0  0
    5.4895    7.5119    6.5747 H   0  0  0  0  0  0  0  0  0  0  0  0
    5.5852    5.3642    6.4534 C   0  0  0  0  0  0  0  0  0  0  0  0
    6.5514    5.2809    6.9268 H   0  0  0  0  0  0  0  0  0  0  0  0
  1  4  1  0  0  0  0
  1  3  1  0  0  0  0
  2  1  1  0  0  0  0
  4 33  1  0  0  0  0
  4 53  1  0  0  0  0
  5  1  2  0  0  0  0
  6  7  1  0  0  0  0
  6 23  1  0  0  0  0
  8  5  1  0  0  0  0
  8 17  1  0  0  0  0
  9 11  1  0  0  0  0
  9 43  1  0  0  0  0
  9 10  1  1  0  0  0
 11 12  1  0  0  0  0
 13 11  1  0  0  0  0
 14 37  1  0  0  0  0
 15 14  1  0  0  0  0
 16  5  1  0  0  0  0
 17 19  1  0  0  0  0
 17 18  1  0  0  0  0
 20 16  1  1  0  0  0
 20 25  1  0  0  0  0
 20 11  1  0  0  0  0
 21 31  1  0  0  0  0
 21 14  2  0  0  0  0
 22 21  1  0  0  0  0
 23 24  1  0  0  0  0
 25 26  1  0  0  0  0
 27 25  1  0  0  0  0
 28  9  1  0  0  0  0
 29 28  1  0  0  0  0
 30 28  1  0  0  0  0
 31  6  2  0  0  0  0
 32 31  1  0  0  0  0
 33 55  1  0  0  0  0
 34 33  1  0  0  0  0
 35 36  1  1  0  0  0
 35 25  1  0  0  0  0
 35 43  1  0  0  0  0
 37 23  2  0  0  0  0
 37 17  1  0  0  0  0
 38 20  1  0  0  0  0
 39 38  1  0  0  0  0
 40 38  1  0  0  0  0
 41 42  1  6  0  0  0
 41 38  1  0  0  0  0
 41 48  1  0  0  0  0
 41 28  1  0  0  0  0
 43 45  1  0  0  0  0
 44 43  1  0  0  0  0
 46 51  2  0  0  0  0
 46 16  1  0  0  0  0
 47 46  1  0  0  0  0
 48 35  1  0  0  0  0
 49 48  1  0  0  0  0
 50 48  1  0  0  0  0
 51  8  1  0  0  0  0
 52 51  1  0  0  0  0
 53 57  2  0  0  0  0
 54 53  1  0  0  0  0
 55 56  1  0  0  0  0
 55 59  2  0  0  0  0
 57 59  1  0  0  0  0
 57 58  1  0  0  0  0
 59 60  1  0  0  0  0
M  END
$$$$
