CSD_code = FODJAK | q = 1 | S = 0 | Stoichiometry = C17H22ClN4Ni(1+) | MND = 5
 OpenBabel04212202033D

 45 50  0  0  1  0  0  0  0  0999 V2000
   -1.6579    4.5637   11.0943 Ni  0  0  0  0  0  0  0  0  0  0  0  0
   -0.8318    5.9405    9.5861 Cl  0  0  0  0  0  0  0  0  0  0  0  0
   -2.7868    5.8487   11.9121 N   0  0  2  0  0  4  0  0  0  0  0  0
   -0.7106    4.7562   12.9859 N   0  0  1  0  0  4  0  0  0  0  0  0
   -3.5830    4.0446   10.1336 N   0  0  0  0  0  0  0  0  0  0  0  0
   -0.3934    3.3527   10.6522 N   0  0  0  0  0  0  0  0  0  0  0  0
   -1.9039    6.8858   12.4707 C   0  0  0  0  0  0  0  0  0  0  0  0
   -2.4387    7.4716   13.2260 H   0  0  0  0  0  0  0  0  0  0  0  0
   -1.6168    7.5566   11.6597 H   0  0  0  0  0  0  0  0  0  0  0  0
   -0.6175    6.2290   13.0451 C   0  0  0  0  0  0  0  0  0  0  0  0
    0.2194    6.5382   12.4158 H   0  0  0  0  0  0  0  0  0  0  0  0
   -0.4231    6.5647   14.0707 H   0  0  0  0  0  0  0  0  0  0  0  0
   -3.5481    5.1668   12.9861 C   0  0  0  0  0  0  0  0  0  0  0  0
   -3.8820    4.1942   12.6089 H   0  0  0  0  0  0  0  0  0  0  0  0
   -4.4425    5.7620   13.2106 H   0  0  0  0  0  0  0  0  0  0  0  0
   -2.7872    4.9632   14.2958 C   0  0  0  0  0  0  0  0  0  0  0  0
   -2.6124    5.9217   14.7836 H   0  0  0  0  0  0  0  0  0  0  0  0
   -3.4253    4.3819   14.9632 H   0  0  0  0  0  0  0  0  0  0  0  0
   -1.4641    4.2205   14.1197 C   0  0  0  0  0  0  0  0  0  0  0  0
   -0.8816    4.3070   15.0492 H   0  0  0  0  0  0  0  0  0  0  0  0
   -1.6542    3.1601   13.9293 H   0  0  0  0  0  0  0  0  0  0  0  0
   -3.7183    6.3434   10.8925 C   0  0  0  0  0  0  0  0  0  0  0  0
   -3.1542    6.9666   10.1883 H   0  0  0  0  0  0  0  0  0  0  0  0
   -4.5199    6.9488   11.3344 H   0  0  0  0  0  0  0  0  0  0  0  0
   -4.2874    5.1863   10.1073 C   0  0  1  0  0  3  0  0  0  0  0  0
   -5.4503    5.3172    9.3623 C   0  0  0  0  0  0  0  0  0  0  0  0
   -5.9870    6.2524    9.3609 H   0  0  0  0  0  0  0  0  0  0  0  0
   -5.8994    4.2383    8.6191 C   0  0  0  0  0  0  0  0  0  0  0  0
   -6.7970    4.3172    8.0262 H   0  0  0  0  0  0  0  0  0  0  0  0
   -5.1751    3.0566    8.6561 C   0  0  0  0  0  0  0  0  0  0  0  0
   -5.4913    2.1907    8.0982 H   0  0  0  0  0  0  0  0  0  0  0  0
   -4.0282    3.0074    9.4280 C   0  0  0  0  0  0  0  0  0  0  0  0
   -3.4447    2.0981    9.4925 H   0  0  0  0  0  0  0  0  0  0  0  0
    0.5748    4.0633   12.7989 C   0  0  0  0  0  0  0  0  0  0  0  0
    0.8255    3.4596   13.6787 H   0  0  0  0  0  0  0  0  0  0  0  0
    1.3782    4.7978   12.6728 H   0  0  0  0  0  0  0  0  0  0  0  0
    0.5759    3.1833   11.5671 C   0  0  2  0  0  3  0  0  0  0  0  0
    1.5923    2.2579   11.3650 C   0  0  0  0  0  0  0  0  0  0  0  0
    2.3601    2.1424   12.1137 H   0  0  0  0  0  0  0  0  0  0  0  0
    1.6161    1.5052   10.2040 C   0  0  0  0  0  0  0  0  0  0  0  0
    2.4017    0.7865   10.0330 H   0  0  0  0  0  0  0  0  0  0  0  0
    0.6186    1.7059    9.2613 C   0  0  0  0  0  0  0  0  0  0  0  0
    0.6049    1.1562    8.3347 H   0  0  0  0  0  0  0  0  0  0  0  0
   -0.3626    2.6426    9.5244 C   0  0  0  0  0  0  0  0  0  0  0  0
   -1.1402    2.8559    8.8014 H   0  0  0  0  0  0  0  0  0  0  0  0
  1  3  1  0  0  0  0
  1  4  1  0  0  0  0
  2  1  1  0  0  0  0
  3 22  1  6  0  0  0
  3  7  1  0  0  0  0
  3 13  1  0  0  0  0
  4 34  1  6  0  0  0
  4 10  1  0  0  0  0
  4 19  1  0  0  0  0
  5  1  1  0  0  0  0
  6  1  1  0  0  0  0
  6 37  1  0  0  0  0
  7 10  1  0  0  0  0
  7  8  1  0  0  0  0
  9  7  1  0  0  0  0
 10 12  1  0  0  0  0
 11 10  1  0  0  0  0
 13 15  1  0  0  0  0
 13 16  1  0  0  0  0
 14 13  1  0  0  0  0
 16 17  1  0  0  0  0
 16 18  1  0  0  0  0
 19 16  1  0  0  0  0
 19 20  1  0  0  0  0
 21 19  1  0  0  0  0
 22 24  1  0  0  0  0
 23 22  1  0  0  0  0
 25 26  1  6  0  0  0
 25  5  1  0  0  0  0
 25 22  1  0  0  0  0
 27 26  1  0  0  0  0
 28 30  1  0  0  0  0
 28 26  2  0  0  0  0
 29 28  1  0  0  0  0
 30 32  2  0  0  0  0
 31 30  1  0  0  0  0
 32 33  1  0  0  0  0
 32  5  1  0  0  0  0
 34 35  1  0  0  0  0
 36 34  1  0  0  0  0
 37 38  1  6  0  0  0
 37 34  1  0  0  0  0
 38 39  1  0  0  0  0
 40 38  2  0  0  0  0
 41 40  1  0  0  0  0
 42 44  2  0  0  0  0
 42 40  1  0  0  0  0
 43 42  1  0  0  0  0
 44  6  1  0  0  0  0
 45 44  1  0  0  0  0
M  END
$$$$
