CSD_code = FODKAM | q = 0 | S = 0 | Stoichiometry = C27H23AuClOP | MND = 2
 OpenBabel04212202033D

 54 58  0  0  0  0  0  0  0  0999 V2000
    6.7161    1.7344    5.5292 Au  0  0  0  0  0  0  0  0  0  0  0  0
    6.8130    2.0515    3.3118 P   0  0  0  0  0  4  0  0  0  0  0  0
    6.6972    1.4700    7.7794 Cl  0  0  0  0  0  0  0  0  0  0  0  0
    7.9628    4.1868    4.3028 O   0  0  0  0  0  0  0  0  0  0  0  0
    6.2806    3.7023    2.8133 C   0  0  0  0  0  0  0  0  0  0  0  0
    5.2634    4.0592    1.9443 C   0  0  0  0  0  0  0  0  0  0  0  0
    4.6918    3.2992    1.4318 H   0  0  0  0  0  0  0  0  0  0  0  0
    5.0043    5.4045    1.7435 C   0  0  0  0  0  0  0  0  0  0  0  0
    4.2226    5.7028    1.0614 H   0  0  0  0  0  0  0  0  0  0  0  0
    5.7383    6.3723    2.4087 C   0  0  0  0  0  0  0  0  0  0  0  0
    5.5109    7.4114    2.2268 H   0  0  0  0  0  0  0  0  0  0  0  0
    6.7542    6.0406    3.2994 C   0  0  0  0  0  0  0  0  0  0  0  0
    7.0101    4.6907    3.4852 C   0  0  0  0  0  0  0  0  0  0  0  0
    9.6238    4.4726    5.9249 C   0  0  0  0  0  0  0  0  0  0  0  0
    9.6784    3.3958    5.9626 H   0  0  0  0  0  0  0  0  0  0  0  0
    8.7076    5.0575    5.0580 C   0  0  0  0  0  0  0  0  0  0  0  0
    8.5656    6.4387    4.9707 C   0  0  0  0  0  0  0  0  0  0  0  0
    9.3863    7.2156    5.7821 C   0  0  0  0  0  0  0  0  0  0  0  0
    9.3087    8.2915    5.7405 H   0  0  0  0  0  0  0  0  0  0  0  0
   10.3012    6.6457    6.6466 C   0  0  0  0  0  0  0  0  0  0  0  0
   10.9191    7.2782    7.2656 H   0  0  0  0  0  0  0  0  0  0  0  0
   10.4202    5.2674    6.7218 C   0  0  0  0  0  0  0  0  0  0  0  0
   11.1267    4.8143    7.3996 H   0  0  0  0  0  0  0  0  0  0  0  0
    7.5665    7.0922    4.0297 C   0  0  0  0  0  0  0  0  0  0  0  0
    6.6156    7.9876    4.8404 C   0  0  0  0  0  0  0  0  0  0  0  0
    5.8835    8.4599    4.1909 H   0  0  0  0  0  0  0  0  0  0  0  0
    7.1672    8.7692    5.3548 H   0  0  0  0  0  0  0  0  0  0  0  0
    6.0865    7.3941    5.5835 H   0  0  0  0  0  0  0  0  0  0  0  0
    8.3336    7.9277    2.9900 C   0  0  0  0  0  0  0  0  0  0  0  0
    9.0016    7.2880    2.4153 H   0  0  0  0  0  0  0  0  0  0  0  0
    8.9289    8.6941    3.4786 H   0  0  0  0  0  0  0  0  0  0  0  0
    7.6445    8.4122    2.3029 H   0  0  0  0  0  0  0  0  0  0  0  0
    5.7768    0.9628    2.2987 C   0  0  0  0  0  0  0  0  0  0  0  0
    6.2481    0.2196    1.2237 C   0  0  0  0  0  0  0  0  0  0  0  0
    7.2863    0.2887    0.9295 H   0  0  0  0  0  0  0  0  0  0  0  0
    5.3818   -0.6116    0.5344 C   0  0  0  0  0  0  0  0  0  0  0  0
    5.7474   -1.1900   -0.3017 H   0  0  0  0  0  0  0  0  0  0  0  0
    4.0538   -0.7077    0.9153 C   0  0  0  0  0  0  0  0  0  0  0  0
    3.3840   -1.3594    0.3743 H   0  0  0  0  0  0  0  0  0  0  0  0
    3.5841    0.0229    1.9967 C   0  0  0  0  0  0  0  0  0  0  0  0
    2.5504   -0.0588    2.2986 H   0  0  0  0  0  0  0  0  0  0  0  0
    4.4445    0.8495    2.6923 C   0  0  0  0  0  0  0  0  0  0  0  0
    4.0989    1.4159    3.5491 H   0  0  0  0  0  0  0  0  0  0  0  0
    8.4663    1.9352    2.5802 C   0  0  0  0  0  0  0  0  0  0  0  0
    9.4512    1.2412    3.2723 C   0  0  0  0  0  0  0  0  0  0  0  0
    9.2065    0.7868    4.2242 H   0  0  0  0  0  0  0  0  0  0  0  0
   10.7276    1.1482    2.7472 C   0  0  0  0  0  0  0  0  0  0  0  0
   11.4944    0.6113    3.2855 H   0  0  0  0  0  0  0  0  0  0  0  0
   11.0217    1.7505    1.5347 C   0  0  0  0  0  0  0  0  0  0  0  0
   12.0190    1.6816    1.1265 H   0  0  0  0  0  0  0  0  0  0  0  0
   10.0406    2.4457    0.8444 C   0  0  0  0  0  0  0  0  0  0  0  0
   10.2736    2.9155   -0.1002 H   0  0  0  0  0  0  0  0  0  0  0  0
    8.7625    2.5413    1.3626 C   0  0  0  0  0  0  0  0  0  0  0  0
    7.9920    3.0849    0.8315 H   0  0  0  0  0  0  0  0  0  0  0  0
  1  3  1  0  0  0  0
  2  1  1  0  0  0  0
  4 16  1  0  0  0  0
  5  2  1  0  0  0  0
  5 13  1  0  0  0  0
  6  5  2  0  0  0  0
  7  6  1  0  0  0  0
  8  6  1  0  0  0  0
  8 10  2  0  0  0  0
  9  8  1  0  0  0  0
 10 12  1  0  0  0  0
 11 10  1  0  0  0  0
 12 13  2  0  0  0  0
 12 24  1  0  0  0  0
 13  4  1  0  0  0  0
 14 15  1  0  0  0  0
 14 22  1  0  0  0  0
 16 14  2  0  0  0  0
 17 16  1  0  0  0  0
 17 18  2  0  0  0  0
 18 20  1  0  0  0  0
 19 18  1  0  0  0  0
 20 22  2  0  0  0  0
 20 21  1  0  0  0  0
 22 23  1  0  0  0  0
 24 25  1  0  0  0  0
 24 17  1  0  0  0  0
 25 27  1  0  0  0  0
 25 28  1  0  0  0  0
 26 25  1  0  0  0  0
 29 31  1  0  0  0  0
 29 24  1  0  0  0  0
 30 29  1  0  0  0  0
 32 29  1  0  0  0  0
 33 42  1  0  0  0  0
 33  2  1  0  0  0  0
 34 33  2  0  0  0  0
 35 34  1  0  0  0  0
 36 38  2  0  0  0  0
 36 34  1  0  0  0  0
 37 36  1  0  0  0  0
 38 40  1  0  0  0  0
 39 38  1  0  0  0  0
 40 41  1  0  0  0  0
 40 42  2  0  0  0  0
 42 43  1  0  0  0  0
 44 45  1  0  0  0  0
 44  2  1  0  0  0  0
 45 46  1  0  0  0  0
 47 45  2  0  0  0  0
 47 48  1  0  0  0  0
 49 47  1  0  0  0  0
 50 49  1  0  0  0  0
 51 53  1  0  0  0  0
 51 49  2  0  0  0  0
 52 51  1  0  0  0  0
 53 44  2  0  0  0  0
 54 53  1  0  0  0  0
M  END
$$$$
