CSD_code = FODNOB | q = 0 | S = 0 | Stoichiometry = C8H14Cl2Pt | MND = 6
 OpenBabel04212202033D

 25 24  0  0  1  0  0  0  0  0999 V2000
    0.4314    1.9236    1.8955 Pt  0  0  0  0  0  0  0  0  0  0  0  0
   -1.5570    2.8275    1.3378 Cl  0  0  0  0  0  0  0  0  0  0  0  0
    1.0356    2.4648   -0.2154 Cl  0  0  0  0  0 15  0  0  0  0  0  0
   -0.1823    1.9232    3.9862 C   0  0  0  0  0  0  0  0  0  0  0  0
   -0.4922    0.6591    3.5174 C   0  0  1  0  0  3  0  0  0  0  0  0
    0.4237   -0.5273    3.7366 C   0  0  0  0  0  0  0  0  0  0  0  0
    1.9080   -0.1723    3.6099 C   0  0  0  0  0  0  0  0  0  0  0  0
    2.1794    0.5548    2.3094 C   0  0  1  0  0  3  0  0  0  0  0  0
    2.5904    1.8695    2.3179 C   0  0  0  0  0  0  0  0  0  0  0  0
   -1.9019    0.2635    3.1746 C   0  0  0  0  0  0  0  0  0  0  0  0
    2.3446   -0.3232    1.1003 C   0  0  0  0  0  0  0  0  0  0  0  0
   -0.9799    2.6460    4.1105 H   0  0  0  0  0  0  0  0  0  0  0  0
    0.6865    2.0842    4.6126 H   0  0  0  0  0  0  0  0  0  0  0  0
    0.1725   -1.3067    3.0134 H   0  0  0  0  0  0  0  0  0  0  0  0
    0.2252   -0.9357    4.7322 H   0  0  0  0  0  0  0  0  0  0  0  0
    2.4965   -1.0917    3.6352 H   0  0  0  0  0  0  0  0  0  0  0  0
    2.2175    0.4421    4.4570 H   0  0  0  0  0  0  0  0  0  0  0  0
    3.0899    2.2881    1.4531 H   0  0  0  0  0  0  0  0  0  0  0  0
    2.7820    2.3785    3.2566 H   0  0  0  0  0  0  0  0  0  0  0  0
   -2.5566    1.1275    3.1161 H   0  0  0  0  0  0  0  0  0  0  0  0
   -1.9415   -0.2650    2.2219 H   0  0  0  0  0  0  0  0  0  0  0  0
   -2.2718   -0.4149    3.9450 H   0  0  0  0  0  0  0  0  0  0  0  0
    2.5402    0.2694    0.2105 H   0  0  0  0  0  0  0  0  0  0  0  0
    3.1799   -1.0062    1.2610 H   0  0  0  0  0  0  0  0  0  0  0  0
    1.4528   -0.9266    0.9275 H   0  0  0  0  0  0  0  0  0  0  0  0
  1  9  1  0  0  0  0
  1  4  1  0  0  0  0
  2  1  1  0  0  0  0
  4 12  1  0  0  0  0
  4 13  1  0  0  0  0
  5 10  1  1  0  0  0
  5  6  1  0  0  0  0
  5  4  1  0  0  0  0
  6 15  1  0  0  0  0
  7 16  1  0  0  0  0
  7  6  1  0  0  0  0
  7 17  1  0  0  0  0
  8 11  1  1  0  0  0
  8  9  1  0  0  0  0
  8  7  1  0  0  0  0
  9 19  1  0  0  0  0
 10 22  1  0  0  0  0
 11 24  1  0  0  0  0
 14  6  1  0  0  0  0
 18  9  1  0  0  0  0
 20 10  1  0  0  0  0
 21 10  1  0  0  0  0
 23 11  1  0  0  0  0
 25 11  1  0  0  0  0
M  END
$$$$
