CSD_code = FODPET | q = 0 | S = 0 | Stoichiometry = C8H21ClN2Pd | MND = 4
 OpenBabel04212202033D

 33 33  0  0  1  0  0  0  0  0999 V2000
   -0.0209    0.2828    8.8061 Pd  0  0  1  0  0  0  0  0  0  0  0  0
   -0.7856   -1.7317    7.8284 Cl  0  0  0  0  0  0  0  0  0  0  0  0
   -0.0859   -0.3721   10.6612 N   0  0  0  0  0  4  0  0  0  0  0  0
    0.1089    1.1968    6.9629 N   0  0  0  0  0  4  0  0  0  0  0  0
   -0.5776    2.8984   10.0728 C   0  0  0  0  0  0  0  0  0  0  0  0
    0.4996    1.8174   10.0149 C   0  0  1  0  0  0  0  0  0  0  0  0
    0.5620    0.8592   11.2102 C   0  0  1  0  0  0  0  0  0  0  0  0
   -0.0010    1.3313   12.5516 C   0  0  0  0  0  0  0  0  0  0  0  0
    0.6704   -1.5948   10.8924 C   0  0  0  0  0  0  0  0  0  0  0  0
   -1.4917   -0.5651   10.9932 C   0  0  0  0  0  0  0  0  0  0  0  0
   -1.2343    1.2485    6.3860 C   0  0  0  0  0  0  0  0  0  0  0  0
    1.0394    0.4577    6.1089 C   0  0  0  0  0  0  0  0  0  0  0  0
   -1.5848    2.4733   10.1039 H   0  0  0  0  0  0  0  0  0  0  0  0
   -0.4553    3.5405   10.9497 H   0  0  0  0  0  0  0  0  0  0  0  0
   -0.5115    3.5375    9.1912 H   0  0  0  0  0  0  0  0  0  0  0  0
    1.4782    2.2852    9.8472 H   0  0  0  0  0  0  0  0  0  0  0  0
    1.6148    0.5943   11.3785 H   0  0  0  0  0  0  0  0  0  0  0  0
    0.0781    0.5417   13.2968 H   0  0  0  0  0  0  0  0  0  0  0  0
   -1.0385    1.6427   12.4796 H   0  0  0  0  0  0  0  0  0  0  0  0
    0.5864    2.1791   12.8968 H   0  0  0  0  0  0  0  0  0  0  0  0
    1.6960   -1.4700   10.5321 H   0  0  0  0  0  0  0  0  0  0  0  0
    0.2118   -2.4145   10.3345 H   0  0  0  0  0  0  0  0  0  0  0  0
    0.6897   -1.8536   11.9600 H   0  0  0  0  0  0  0  0  0  0  0  0
   -1.8918   -1.3683   10.3664 H   0  0  0  0  0  0  0  0  0  0  0  0
   -1.6256   -0.8408   12.0469 H   0  0  0  0  0  0  0  0  0  0  0  0
   -2.0574    0.3472   10.7835 H   0  0  0  0  0  0  0  0  0  0  0  0
   -1.2287    1.7131    5.3912 H   0  0  0  0  0  0  0  0  0  0  0  0
   -1.8934    1.8200    7.0463 H   0  0  0  0  0  0  0  0  0  0  0  0
   -1.6160    0.2281    6.3006 H   0  0  0  0  0  0  0  0  0  0  0  0
    0.6901   -0.5738    6.0229 H   0  0  0  0  0  0  0  0  0  0  0  0
    2.0328    0.4583    6.5665 H   0  0  0  0  0  0  0  0  0  0  0  0
    1.1022    0.9000    5.1059 H   0  0  0  0  0  0  0  0  0  0  0  0
    0.4564    2.1551    7.0676 H   0  0  0  0  0  0  0  0  0  0  0  0
  1  2  1  1  0  0  0
  1  6  1  0  0  0  0
  1  3  1  0  0  0  0
  3  9  1  0  0  0  0
  3 10  1  0  0  0  0
  3  7  1  0  0  0  0
  4 33  1  0  0  0  0
  4  1  1  0  0  0  0
  5 13  1  0  0  0  0
  5 14  1  0  0  0  0
  6 16  1  6  0  0  0
  6  5  1  0  0  0  0
  6  7  1  0  0  0  0
  7 17  1  1  0  0  0
  7  8  1  0  0  0  0
  8 20  1  0  0  0  0
  8 18  1  0  0  0  0
  9 23  1  0  0  0  0
 10 25  1  0  0  0  0
 11  4  1  0  0  0  0
 11 28  1  0  0  0  0
 12 31  1  0  0  0  0
 12  4  1  0  0  0  0
 15  5  1  0  0  0  0
 19  8  1  0  0  0  0
 21  9  1  0  0  0  0
 22  9  1  0  0  0  0
 24 10  1  0  0  0  0
 26 10  1  0  0  0  0
 27 11  1  0  0  0  0
 29 11  1  0  0  0  0
 30 12  1  0  0  0  0
 32 12  1  0  0  0  0
M  END
$$$$
