CSD_code = FODSAS | q = 0 | S = 0 | Stoichiometry = C27H26BCl2PZr | MND = 12
 OpenBabel04212202033D

 58 63  0  0  1  0  0  0  0  0999 V2000
    3.4318    5.8589    3.2817 C   0  0  1  0  0  3  0  0  0  0  0  0
    4.0615    4.6342    3.6505 C   0  0  0  0  0  3  0  0  0  0  0  0
    4.2693    4.3301    4.6717 H   0  0  0  0  0  0  0  0  0  0  0  0
    4.4857    3.9210    2.5127 C   0  0  0  0  0  0  0  0  0  0  0  0
    5.0690    3.0089    2.5110 H   0  0  0  0  0  0  0  0  0  0  0  0
    4.1272    4.6825    1.3693 C   0  0  0  0  0  0  0  0  0  0  0  0
    4.3255    4.4798   -0.0100 C   0  0  0  0  0  0  0  0  0  0  0  0
    4.8505    3.5984   -0.3550 H   0  0  0  0  0  0  0  0  0  0  0  0
    3.8483    5.4099   -0.8972 C   0  0  0  0  0  0  0  0  0  0  0  0
    3.9898    5.2676   -1.9577 H   0  0  0  0  0  0  0  0  0  0  0  0
    3.1570    6.5519   -0.4531 C   0  0  0  0  0  0  0  0  0  0  0  0
    2.7802    7.2489   -1.1875 H   0  0  0  0  0  0  0  0  0  0  0  0
    2.9491    6.7895    0.8823 C   0  0  0  0  0  0  0  0  0  0  0  0
    2.4340    7.6882    1.1997 H   0  0  0  0  0  0  0  0  0  0  0  0
    3.4513    5.8838    1.8430 C   0  0  2  0  0  0  0  0  0  0  0  0
    1.0777    5.8292    4.0234 C   0  0  1  0  0  3  0  0  0  0  0  0
    0.2277    5.9786    2.8925 C   0  0  0  0  0  0  0  0  0  0  0  0
    0.1377    6.8746    2.2871 H   0  0  0  0  0  0  0  0  0  0  0  0
   -0.5848    4.8409    2.7167 C   0  0  0  0  0  0  0  0  0  0  0  0
   -1.3824    4.7314    1.9929 H   0  0  0  0  0  0  0  0  0  0  0  0
   -0.2505    3.9108    3.7362 C   0  0  2  0  0  3  0  0  0  0  0  0
   -0.7342    2.6239    4.0461 C   0  0  0  0  0  0  0  0  0  0  0  0
   -1.5368    2.1928    3.4611 H   0  0  0  0  0  0  0  0  0  0  0  0
   -0.1702    1.9367    5.0894 C   0  0  0  0  0  0  0  0  0  0  0  0
   -0.5249    0.9478    5.3377 H   0  0  0  0  0  0  0  0  0  0  0  0
    0.8827    2.4894    5.8428 C   0  0  0  0  0  0  0  0  0  0  0  0
    1.3114    1.9022    6.6416 H   0  0  0  0  0  0  0  0  0  0  0  0
    1.3738    3.7454    5.5865 C   0  0  0  0  0  0  0  0  0  0  0  0
    2.1583    4.1615    6.2063 H   0  0  0  0  0  0  0  0  0  0  0  0
    0.7975    4.5152    4.5477 C   0  0  2  0  0  0  0  0  0  0  0  0
    2.9636    6.6661    5.8210 C   0  0  0  0  0  0  0  0  0  0  0  0
    2.0694    6.6473    6.8926 C   0  0  0  0  0  0  0  0  0  0  0  0
    1.0103    6.5723    6.6881 H   0  0  0  0  0  0  0  0  0  0  0  0
    2.5059    6.7013    8.2039 C   0  0  0  0  0  0  0  0  0  0  0  0
    1.7899    6.6760    9.0131 H   0  0  0  0  0  0  0  0  0  0  0  0
    3.8603    6.7853    8.4815 C   0  0  0  0  0  0  0  0  0  0  0  0
    4.2054    6.8273    9.5043 H   0  0  0  0  0  0  0  0  0  0  0  0
    4.7681    6.8118    7.4369 C   0  0  0  0  0  0  0  0  0  0  0  0
    5.8272    6.8751    7.6435 H   0  0  0  0  0  0  0  0  0  0  0  0
    4.3211    6.7553    6.1279 C   0  0  0  0  0  0  0  0  0  0  0  0
    5.0427    6.7666    5.3221 H   0  0  0  0  0  0  0  0  0  0  0  0
    1.0340    9.4242    2.8916 C   0  0  0  0  0  0  0  0  0  0  0  0
    0.0564    9.1816    3.3029 H   0  0  0  0  0  0  0  0  0  0  0  0
    1.0667    9.1076    1.8537 H   0  0  0  0  0  0  0  0  0  0  0  0
    1.1797   10.5021    2.9336 H   0  0  0  0  0  0  0  0  0  0  0  0
    3.9100    9.2569    3.3055 C   0  0  0  0  0  0  0  0  0  0  0  0
    4.1701    8.7994    2.3548 H   0  0  0  0  0  0  0  0  0  0  0  0
    4.6794    9.0033    4.0311 H   0  0  0  0  0  0  0  0  0  0  0  0
    3.8606   10.3381    3.1932 H   0  0  0  0  0  0  0  0  0  0  0  0
    2.0978    9.5390    5.4713 C   0  0  0  0  0  0  0  0  0  0  0  0
    1.1583    9.2527    5.9376 H   0  0  0  0  0  0  0  0  0  0  0  0
    2.0879   10.6078    5.2657 H   0  0  0  0  0  0  0  0  0  0  0  0
    2.9054    9.3081    6.1602 H   0  0  0  0  0  0  0  0  0  0  0  0
    2.4444    6.6402    4.2956 B   0  0  1  0  0  0  0  0  0  0  0  0
    2.1422    1.8691    2.7323 Cl  0  0  0  0  0  0  0  0  0  0  0  0
    1.1365    3.9352    0.3052 Cl  0  0  0  0  0  0  0  0  0  0  0  0
    2.3199    8.5942    3.9183 P   0  0  0  0  0  4  0  0  0  0  0  0
    1.9151    4.1744    2.4935 Zr  0  0  0  0  0  0  0  0  0  0  0  0
  1  2  1  6  0  0  0
  1 54  1  0  0  0  0
  2  3  1  0  0  0  0
  4  2  1  0  0  0  0
  5  4  1  0  0  0  0
  6 15  1  0  0  0  0
  6  4  2  0  0  0  0
  7  6  1  0  0  0  0
  8  7  1  0  0  0  0
  9 11  1  0  0  0  0
  9  7  2  0  0  0  0
 10  9  1  0  0  0  0
 11 13  2  0  0  0  0
 12 11  1  0  0  0  0
 13 14  1  0  0  0  0
 15 13  1  6  0  0  0
 15 58  1  0  0  0  0
 15  1  1  0  0  0  0
 16 17  1  6  0  0  0
 16 54  1  0  0  0  0
 16 30  1  0  0  0  0
 18 17  1  0  0  0  0
 19 17  2  0  0  0  0
 20 19  1  0  0  0  0
 21 19  1  1  0  0  0
 21 22  1  0  0  0  0
 21 30  1  0  0  0  0
 22 24  2  0  0  0  0
 23 22  1  0  0  0  0
 24 25  1  0  0  0  0
 24 26  1  0  0  0  0
 26 27  1  0  0  0  0
 28 26  2  0  0  0  0
 28 29  1  0  0  0  0
 30 28  1  1  0  0  0
 31 40  2  0  0  0  0
 31 32  1  0  0  0  0
 32 34  2  0  0  0  0
 33 32  1  0  0  0  0
 34 36  1  0  0  0  0
 34 35  1  0  0  0  0
 36 37  1  0  0  0  0
 38 39  1  0  0  0  0
 38 36  2  0  0  0  0
 40 38  1  0  0  0  0
 41 40  1  0  0  0  0
 42 45  1  0  0  0  0
 42 43  1  0  0  0  0
 42 57  1  0  0  0  0
 44 42  1  0  0  0  0
 46 57  1  0  0  0  0
 46 48  1  0  0  0  0
 47 46  1  0  0  0  0
 49 46  1  0  0  0  0
 50 51  1  0  0  0  0
 50 53  1  0  0  0  0
 52 50  1  0  0  0  0
 54 57  1  6  0  0  0
 54 31  1  0  0  0  0
 56 58  1  0  0  0  0
 57 50  1  0  0  0  0
 58 55  1  0  0  0  0
 58 30  1  0  0  0  0
M  END
$$$$
