CSD_code = FOFPAS | q = 0 | S = 0 | Stoichiometry = C22H17ClSTi | MND = 12
 OpenBabel04212202033D

 42 46  0  0  1  0  0  0  0  0999 V2000
    2.8782   10.3525    3.8189 Cl  0  0  0  0  0  0  0  0  0  0  0  0
    2.0737   12.4343    3.5836 Ti  0  0  2  0  0  0  0  0  0  0  0  0
    2.7855   15.8866    2.7703 S   0  0  0  0  0  0  0  0  0  0  0  0
    4.0618   14.6634    2.7405 C   0  0  0  0  0  0  0  0  0  0  0  0
    3.8852   13.3073    3.0393 C   0  0  0  0  0  0  0  0  0  0  0  0
    5.0440   12.5372    2.9465 C   0  0  0  0  0  0  0  0  0  0  0  0
    5.0077   11.4751    3.1595 H   0  0  0  0  0  0  0  0  0  0  0  0
    6.2808   13.0727    2.5848 C   0  0  0  0  0  0  0  0  0  0  0  0
    7.1403   12.4203    2.5315 H   0  0  0  0  0  0  0  0  0  0  0  0
    6.4179   14.4117    2.2971 C   0  0  0  0  0  0  0  0  0  0  0  0
    7.3734   14.8279    2.0168 H   0  0  0  0  0  0  0  0  0  0  0  0
    5.2950   15.2308    2.3731 C   0  0  0  0  0  0  0  0  0  0  0  0
    5.2102   16.6460    2.1165 C   0  0  0  0  0  0  0  0  0  0  0  0
    6.2165   17.5287    1.7349 C   0  0  0  0  0  0  0  0  0  0  0  0
    7.2240   17.1673    1.5946 H   0  0  0  0  0  0  0  0  0  0  0  0
    5.9163   18.8610    1.5388 C   0  0  0  0  0  0  0  0  0  0  0  0
    6.6953   19.5475    1.2426 H   0  0  0  0  0  0  0  0  0  0  0  0
    4.6194   19.3328    1.7182 C   0  0  0  0  0  0  0  0  0  0  0  0
    4.4038   20.3787    1.5600 H   0  0  0  0  0  0  0  0  0  0  0  0
    3.6038   18.4764    2.0969 C   0  0  0  0  0  0  0  0  0  0  0  0
    2.5953   18.8327    2.2386 H   0  0  0  0  0  0  0  0  0  0  0  0
    3.9081   17.1393    2.2929 C   0  0  0  0  0  0  0  0  0  0  0  0
    0.5210   12.9021    5.3296 C   0  0  0  0  0  3  0  0  0  0  0  0
   -0.5560   12.8034    5.3142 H   0  0  0  0  0  0  0  0  0  0  0  0
    1.4200   11.9476    5.8358 C   0  0  0  0  0  0  0  0  0  0  0  0
    1.1631   10.9646    6.2096 H   0  0  0  0  0  0  0  0  0  0  0  0
    2.7026   12.5295    5.8725 C   0  0  0  0  0  0  0  0  0  0  0  0
    3.5972   12.0726    6.2779 H   0  0  0  0  0  0  0  0  0  0  0  0
    2.5943   13.8536    5.3928 C   0  0  0  0  0  3  0  0  0  0  0  0
    3.3713   14.6051    5.4441 H   0  0  0  0  0  0  0  0  0  0  0  0
    1.2441   14.0805    5.0472 C   0  0  1  0  0  0  0  0  0  0  0  0
    0.8173   15.0347    4.7699 H   0  0  0  0  0  0  0  0  0  0  0  0
    0.6441   11.2248    2.0905 C   0  0  0  0  0  0  0  0  0  0  0  0
    0.3365   10.1953    2.2223 H   0  0  0  0  0  0  0  0  0  0  0  0
   -0.0596   12.3612    2.5252 C   0  0  0  0  0  0  0  0  0  0  0  0
   -1.0377   12.3551    2.9870 H   0  0  0  0  0  0  0  0  0  0  0  0
    0.6274   13.5055    2.0669 C   0  0  2  0  0  0  0  0  0  0  0  0
    0.2707   14.5248    2.1258 H   0  0  0  0  0  0  0  0  0  0  0  0
    1.7543   13.0703    1.3355 C   0  0  0  0  0  0  0  0  0  0  0  0
    2.3943   13.6938    0.7252 H   0  0  0  0  0  0  0  0  0  0  0  0
    1.7675   11.6581    1.3590 C   0  0  0  0  0  0  0  0  0  0  0  0
    2.4690   11.0213    0.8339 H   0  0  0  0  0  0  0  0  0  0  0  0
  2  1  1  1  0  0  0
  2 31  1  0  0  0  0
  4  3  1  0  0  0  0
  4  5  1  0  0  0  0
  5  2  1  0  0  0  0
  6  5  2  0  0  0  0
  6  7  1  0  0  0  0
  8  6  1  0  0  0  0
  9  8  1  0  0  0  0
 10 12  1  0  0  0  0
 10  8  2  0  0  0  0
 11 10  1  0  0  0  0
 12  4  2  0  0  0  0
 13 22  1  0  0  0  0
 13 12  1  0  0  0  0
 14 13  2  0  0  0  0
 15 14  1  0  0  0  0
 16 18  2  0  0  0  0
 16 14  1  0  0  0  0
 17 16  1  0  0  0  0
 18 20  1  0  0  0  0
 19 18  1  0  0  0  0
 20 21  1  0  0  0  0
 20 22  2  0  0  0  0
 22  3  1  0  0  0  0
 23 25  1  0  0  0  0
 24 23  1  0  0  0  0
 25 27  2  0  0  0  0
 25 26  1  0  0  0  0
 27 28  1  0  0  0  0
 29 30  1  0  0  0  0
 29 27  1  0  0  0  0
 31 32  1  6  0  0  0
 31 23  1  0  0  0  0
 31 29  1  0  0  0  0
 33 34  1  0  0  0  0
 33 35  2  0  0  0  0
 35 36  1  0  0  0  0
 37 38  1  1  0  0  0
 37 35  1  0  0  0  0
 37  2  1  0  0  0  0
 39 41  2  0  0  0  0
 39 37  1  0  0  0  0
 40 39  1  0  0  0  0
 41 33  1  0  0  0  0
 42 41  1  0  0  0  0
M  END
$$$$
