CSD_code = FOFPEW | q = 0 | S = 0 | Stoichiometry = C22H17ClS2Ti | MND = 12
 OpenBabel04212202033D

 43 47  0  0  1  0  0  0  0  0999 V2000
    8.3847    1.3369    0.5752 Ti  0  0  1  0  0  0  0  0  0  0  0  0
    6.5918    1.7983    1.8046 Cl  0  0  0  0  0  0  0  0  0  0  0  0
    9.7909    2.8229    1.7928 S   0  0  0  0  0  1  0  0  0  0  0  0
   12.7059    1.9584    3.0482 S   0  0  0  0  0  0  0  0  0  0  0  0
    9.9580    2.2746    3.4559 C   0  0  0  0  0  0  0  0  0  0  0  0
    8.8734    2.2302    4.3233 C   0  0  0  0  0  0  0  0  0  0  0  0
    7.8958    2.5003    3.9499 H   0  0  0  0  0  0  0  0  0  0  0  0
    9.0407    1.8474    5.6478 C   0  0  0  0  0  0  0  0  0  0  0  0
    8.1793    1.8173    6.2980 H   0  0  0  0  0  0  0  0  0  0  0  0
   10.2863    1.5128    6.1422 C   0  0  0  0  0  0  0  0  0  0  0  0
   10.4081    1.2164    7.1725 H   0  0  0  0  0  0  0  0  0  0  0  0
   11.3935    1.5656    5.2997 C   0  0  0  0  0  0  0  0  0  0  0  0
   12.7737    1.2730    5.5904 C   0  0  0  0  0  0  0  0  0  0  0  0
   13.3507    0.8682    6.7908 C   0  0  0  0  0  0  0  0  0  0  0  0
   12.7322    0.7353    7.6655 H   0  0  0  0  0  0  0  0  0  0  0  0
   14.7102    0.6419    6.8511 C   0  0  0  0  0  0  0  0  0  0  0  0
   15.1606    0.3287    7.7811 H   0  0  0  0  0  0  0  0  0  0  0  0
   15.5109    0.8138    5.7257 C   0  0  0  0  0  0  0  0  0  0  0  0
   16.5732    0.6329    5.7926 H   0  0  0  0  0  0  0  0  0  0  0  0
   14.9616    1.2150    4.5235 C   0  0  0  0  0  0  0  0  0  0  0  0
   15.5751    1.3523    3.6467 H   0  0  0  0  0  0  0  0  0  0  0  0
   13.5965    1.4421    4.4641 C   0  0  0  0  0  0  0  0  0  0  0  0
   11.2157    1.9503    3.9612 C   0  0  0  0  0  0  0  0  0  0  0  0
    9.9288   -0.1818    1.5034 C   0  0  0  0  0  0  0  0  0  0  0  0
   10.8607    0.0591    1.9969 H   0  0  0  0  0  0  0  0  0  0  0  0
    8.6791   -0.3872    2.1276 C   0  0  2  0  0  0  0  0  0  0  0  0
    8.4731   -0.3021    3.1875 H   0  0  0  0  0  0  0  0  0  0  0  0
    7.7788   -0.8686    1.1494 C   0  0  0  0  0  0  0  0  0  0  0  0
    6.7647   -1.2009    1.3356 H   0  0  0  0  0  0  0  0  0  0  0  0
    8.4702   -0.9573   -0.0717 C   0  0  0  0  0  0  0  0  0  0  0  0
    8.0865   -1.3959   -0.9836 H   0  0  0  0  0  0  0  0  0  0  0  0
    9.7961   -0.5191    0.1428 C   0  0  0  0  0  0  0  0  0  0  0  0
   10.6119   -0.5727   -0.5661 H   0  0  0  0  0  0  0  0  0  0  0  0
    7.0444    2.6640   -0.9042 C   0  0  0  0  0  0  0  0  0  0  0  0
    6.0423    3.0210   -0.7052 H   0  0  0  0  0  0  0  0  0  0  0  0
    7.3788    1.4562   -1.5497 C   0  0  1  0  0  0  0  0  0  0  0  0
    6.6690    0.7510   -1.9646 H   0  0  0  0  0  0  0  0  0  0  0  0
    8.7791    1.4423   -1.7465 C   0  0  0  0  0  3  0  0  0  0  0  0
    9.3246    0.7293   -2.3489 H   0  0  0  0  0  0  0  0  0  0  0  0
    9.3138    2.6016   -1.1598 C   0  0  1  0  0  0  0  0  0  0  0  0
   10.3464    2.9248   -1.2030 H   0  0  0  0  0  0  0  0  0  0  0  0
    8.2340    3.3639   -0.6431 C   0  0  0  0  0  0  0  0  0  0  0  0
    8.3082    4.3542   -0.2113 H   0  0  0  0  0  0  0  0  0  0  0  0
  1  2  1  1  0  0  0
  1 26  1  0  0  0  0
  3  5  1  0  0  0  0
  4 23  1  0  0  0  0
  4 22  1  0  0  0  0
  5 23  2  0  0  0  0
  5  6  1  0  0  0  0
  6  8  2  0  0  0  0
  7  6  1  0  0  0  0
  8 10  1  0  0  0  0
  8  9  1  0  0  0  0
 10 11  1  0  0  0  0
 12 13  1  0  0  0  0
 12 10  2  0  0  0  0
 13 14  1  0  0  0  0
 14 16  2  0  0  0  0
 14 15  1  0  0  0  0
 16 17  1  0  0  0  0
 18 19  1  0  0  0  0
 18 16  1  0  0  0  0
 20 18  2  0  0  0  0
 21 20  1  0  0  0  0
 22 20  1  0  0  0  0
 22 13  2  0  0  0  0
 23 12  1  0  0  0  0
 24 25  1  0  0  0  0
 24 26  1  0  0  0  0
 26 27  1  1  0  0  0
 28 29  1  0  0  0  0
 28 26  1  0  0  0  0
 30 32  1  0  0  0  0
 30 28  2  0  0  0  0
 31 30  1  0  0  0  0
 32 24  2  0  0  0  0
 33 32  1  0  0  0  0
 34 35  1  0  0  0  0
 34 42  2  0  0  0  0
 36 37  1  6  0  0  0
 36 34  1  0  0  0  0
 36  1  1  0  0  0  0
 38 36  1  0  0  0  0
 38 40  1  0  0  0  0
 39 38  1  0  0  0  0
 40 41  1  6  0  0  0
 40 42  1  0  0  0  0
 40  1  1  0  0  0  0
 42 43  1  0  0  0  0
M  END
$$$$
