CSD_code = FOFVAY | q = 0 | S = 0 | Stoichiometry = C18H19ClN2PdS2 | MND = 4
 OpenBabel04212202033D

 43 46  0  0  1  0  0  0  0  0999 V2000
    3.2150    7.5284    6.5216 Pd  0  0  1  0  0  0  0  0  0  0  0  0
    1.4373    6.1963    5.5983 S   0  0  2  0  0  3  0  0  0  0  0  0
   -1.4393    6.4885    5.3907 S   0  0  0  0  0  0  0  0  0  0  0  0
    4.4043    5.6512    6.5830 Cl  0  0  0  0  0  0  0  0  0  0  0  0
    3.1311   10.3729    6.7016 N   0  0  0  0  0  0  0  0  0  0  0  0
    2.3163    9.3485    6.3012 N   0  0  1  0  0  0  0  0  0  0  0  0
    1.3328    9.5792    5.4683 C   0  0  1  0  0  3  0  0  0  0  0  0
    0.2304    8.6729    5.2741 C   0  0  0  0  0  3  0  0  0  0  0  0
   -0.6559    9.1949    4.9307 H   0  0  0  0  0  0  0  0  0  0  0  0
    0.0991    7.3456    5.4841 C   0  0  2  0  0  3  0  0  0  0  0  0
    1.1734   10.8693    4.7002 C   0  0  0  0  0  0  0  0  0  0  0  0
    0.5574   11.5994    5.2263 H   0  0  0  0  0  0  0  0  0  0  0  0
    0.6966   10.6487    3.7465 H   0  0  0  0  0  0  0  0  0  0  0  0
    2.1435   11.3164    4.4986 H   0  0  0  0  0  0  0  0  0  0  0  0
   -2.6912    7.7910    5.5761 C   0  0  0  0  0  0  0  0  0  0  0  0
   -2.4294    8.4299    6.4137 H   0  0  0  0  0  0  0  0  0  0  0  0
   -3.6257    7.2765    5.7757 H   0  0  0  0  0  0  0  0  0  0  0  0
   -2.7780    8.3633    4.6570 H   0  0  0  0  0  0  0  0  0  0  0  0
    1.1296    5.4554    7.2397 C   0  0  0  0  0  0  0  0  0  0  0  0
    1.2386    6.2206    8.0167 H   0  0  0  0  0  0  0  0  0  0  0  0
    1.8956    4.6909    7.3601 H   0  0  0  0  0  0  0  0  0  0  0  0
    0.1368    5.0140    7.2525 H   0  0  0  0  0  0  0  0  0  0  0  0
    4.2924    9.9897    7.4016 C   0  0  2  0  0  3  0  0  0  0  0  0
    4.5995    8.6191    7.4313 C   0  0  0  0  0  0  0  0  0  0  0  0
    5.7469    8.2109    8.0954 C   0  0  0  0  0  0  0  0  0  0  0  0
    6.0054    7.1612    8.1273 H   0  0  0  0  0  0  0  0  0  0  0  0
    6.5711    9.1329    8.7255 C   0  0  0  0  0  0  0  0  0  0  0  0
    7.4616    8.7974    9.2358 H   0  0  0  0  0  0  0  0  0  0  0  0
    6.2449   10.4767    8.7077 C   0  0  0  0  0  0  0  0  0  0  0  0
    6.8753   11.1976    9.2073 H   0  0  0  0  0  0  0  0  0  0  0  0
    5.1061   10.9116    8.0547 C   0  0  0  0  0  0  0  0  0  0  0  0
    4.8571   11.9619    8.0657 H   0  0  0  0  0  0  0  0  0  0  0  0
    2.5911   11.6593    6.9442 C   0  0  0  0  0  0  0  0  0  0  0  0
    3.2422   12.7971    6.4757 C   0  0  0  0  0  0  0  0  0  0  0  0
    4.1410   12.6909    5.8866 H   0  0  0  0  0  0  0  0  0  0  0  0
    2.7278   14.0494    6.7561 C   0  0  0  0  0  0  0  0  0  0  0  0
    3.2356   14.9292    6.3905 H   0  0  0  0  0  0  0  0  0  0  0  0
    1.5633   14.1778    7.4958 C   0  0  0  0  0  0  0  0  0  0  0  0
    1.1643   15.1573    7.7111 H   0  0  0  0  0  0  0  0  0  0  0  0
    0.9122   13.0468    7.9590 C   0  0  0  0  0  0  0  0  0  0  0  0
    0.0076   13.1419    8.5410 H   0  0  0  0  0  0  0  0  0  0  0  0
    1.4230   11.7904    7.6892 C   0  0  0  0  0  0  0  0  0  0  0  0
    0.9261   10.9045    8.0594 H   0  0  0  0  0  0  0  0  0  0  0  0
  1  4  1  6  0  0  0
  1 24  2  0  0  0  0
  2  1  1  0  0  0  0
  2 19  1  1  0  0  0
  3 15  1  0  0  0  0
  5 33  1  0  0  0  0
  5 23  1  0  0  0  0
  6  1  1  0  0  0  0
  6  5  1  6  0  0  0
  7 11  1  1  0  0  0
  7  6  1  0  0  0  0
  8  7  1  0  0  0  0
  8 10  1  0  0  0  0
  9  8  1  0  0  0  0
 10  3  1  6  0  0  0
 10  2  1  0  0  0  0
 11 12  1  0  0  0  0
 13 11  1  0  0  0  0
 14 11  1  0  0  0  0
 15 17  1  0  0  0  0
 15 16  1  0  0  0  0
 18 15  1  0  0  0  0
 19 22  1  0  0  0  0
 19 21  1  0  0  0  0
 19 20  1  0  0  0  0
 23 24  1  1  0  0  0
 23 31  1  0  0  0  0
 24 25  1  0  0  0  0
 25 26  1  0  0  0  0
 25 27  2  0  0  0  0
 27 28  1  0  0  0  0
 29 27  1  0  0  0  0
 29 30  1  0  0  0  0
 31 32  1  0  0  0  0
 31 29  2  0  0  0  0
 33 42  1  0  0  0  0
 34 36  1  0  0  0  0
 34 33  2  0  0  0  0
 35 34  1  0  0  0  0
 36 38  2  0  0  0  0
 37 36  1  0  0  0  0
 38 39  1  0  0  0  0
 38 40  1  0  0  0  0
 40 41  1  0  0  0  0
 42 40  2  0  0  0  0
 42 43  1  0  0  0  0
M  END
$$$$
