CSD_code = FOGMEV | q = 0 | S = 0 | Stoichiometry = C24H15ClN2OPd | MND = 4
 OpenBabel04212202033D

 44 50  0  0  1  0  0  0  0  0999 V2000
    9.1071    3.1386    2.2581 Pd  0  0  2  0  0  0  0  0  0  0  0  0
    7.6960    3.2470    3.9347 Cl  0  0  0  0  0  0  0  0  0  0  0  0
    7.7953    1.6648    1.1607 O   0  0  0  0  0  0  0  0  0  0  0  0
   10.2332    2.6878    0.7255 N   0  0  0  0  0  0  0  0  0  0  0  0
    9.6333    1.8000   -0.1309 N   0  0  0  0  0  0  0  0  0  0  0  0
   10.1865    1.4426   -0.9064 H   0  0  0  0  0  0  0  0  0  0  0  0
   10.4205    4.5082    2.9184 C   0  0  0  0  0  0  0  0  0  0  0  0
   10.0203    5.3628    3.9123 C   0  0  0  0  0  0  0  0  0  0  0  0
    9.0226    5.2946    4.3249 H   0  0  0  0  0  0  0  0  0  0  0  0
   10.8706    6.3461    4.4857 C   0  0  0  0  0  0  0  0  0  0  0  0
   10.4323    7.1868    5.5137 C   0  0  0  0  0  0  0  0  0  0  0  0
    9.4150    7.0967    5.8641 H   0  0  0  0  0  0  0  0  0  0  0  0
   11.2883    8.1130    6.0785 C   0  0  0  0  0  0  0  0  0  0  0  0
   10.9382    8.7549    6.8738 H   0  0  0  0  0  0  0  0  0  0  0  0
   12.5933    8.2223    5.6334 C   0  0  0  0  0  0  0  0  0  0  0  0
   13.2603    8.9473    6.0776 H   0  0  0  0  0  0  0  0  0  0  0  0
   13.0694    7.4033    4.6065 C   0  0  0  0  0  0  0  0  0  0  0  0
   14.4048    7.4989    4.1280 C   0  0  0  0  0  0  0  0  0  0  0  0
   15.0663    8.2217    4.5840 H   0  0  0  0  0  0  0  0  0  0  0  0
   14.8328    6.7029    3.1192 C   0  0  0  0  0  0  0  0  0  0  0  0
   15.8459    6.7767    2.7496 H   0  0  0  0  0  0  0  0  0  0  0  0
   13.9723    5.7513    2.5083 C   0  0  0  0  0  0  0  0  0  0  0  0
   14.4274    4.9550    1.4498 C   0  0  0  0  0  0  0  0  0  0  0  0
   15.4462    5.0600    1.1069 H   0  0  0  0  0  0  0  0  0  0  0  0
   13.5788    4.0695    0.8483 C   0  0  0  0  0  0  0  0  0  0  0  0
   13.9306    3.4775    0.0145 H   0  0  0  0  0  0  0  0  0  0  0  0
   12.2486    3.9013    1.2783 C   0  0  0  0  0  0  0  0  0  0  0  0
   11.7511    4.6505    2.3831 C   0  0  1  0  0  3  0  0  0  0  0  0
   12.6366    5.6089    2.9666 C   0  0  0  0  0  0  0  0  0  0  0  0
   12.1992    6.4505    4.0189 C   0  0  2  0  0  3  0  0  0  0  0  0
   11.4772    2.9765    0.5191 C   0  0  0  0  0  0  0  0  0  0  0  0
   11.9871    2.4938   -0.3196 H   0  0  0  0  0  0  0  0  0  0  0  0
    8.3911    1.3125    0.1443 C   0  0  1  0  0  3  0  0  0  0  0  0
    7.8116    0.3432   -0.8071 C   0  0  0  0  0  0  0  0  0  0  0  0
    8.2428    0.2007   -2.1254 C   0  0  0  0  0  0  0  0  0  0  0  0
    9.0239    0.8291   -2.5291 H   0  0  0  0  0  0  0  0  0  0  0  0
    7.6398   -0.7299   -2.9511 C   0  0  0  0  0  0  0  0  0  0  0  0
    7.9741   -0.8336   -3.9725 H   0  0  0  0  0  0  0  0  0  0  0  0
    6.6077   -1.5238   -2.4763 C   0  0  0  0  0  0  0  0  0  0  0  0
    6.1449   -2.2500   -3.1272 H   0  0  0  0  0  0  0  0  0  0  0  0
    6.1650   -1.3772   -1.1713 C   0  0  0  0  0  0  0  0  0  0  0  0
    5.3546   -1.9868   -0.8022 H   0  0  0  0  0  0  0  0  0  0  0  0
    6.7595   -0.4468   -0.3418 C   0  0  0  0  0  0  0  0  0  0  0  0
    6.4265   -0.3133    0.6762 H   0  0  0  0  0  0  0  0  0  0  0  0
  1  7  2  0  0  0  0
  1  2  1  1  0  0  0
  3  1  1  0  0  0  0
  4  1  1  0  0  0  0
  5 33  1  0  0  0  0
  5  4  1  0  0  0  0
  6  5  1  0  0  0  0
  7  8  1  0  0  0  0
  8  9  1  0  0  0  0
  8 10  2  0  0  0  0
 10 11  1  0  0  0  0
 11 12  1  0  0  0  0
 11 13  2  0  0  0  0
 13 14  1  0  0  0  0
 15 16  1  0  0  0  0
 15 13  1  0  0  0  0
 17 15  2  0  0  0  0
 18 19  1  0  0  0  0
 18 17  1  0  0  0  0
 20 18  2  0  0  0  0
 21 20  1  0  0  0  0
 22 29  2  0  0  0  0
 22 20  1  0  0  0  0
 23 22  1  0  0  0  0
 24 23  1  0  0  0  0
 25 27  1  0  0  0  0
 25 23  2  0  0  0  0
 26 25  1  0  0  0  0
 28 27  1  6  0  0  0
 28  7  1  0  0  0  0
 28 29  1  0  0  0  0
 30 29  1  6  0  0  0
 30 10  1  0  0  0  0
 30 17  1  0  0  0  0
 31  4  1  0  0  0  0
 31 27  2  0  0  0  0
 32 31  1  0  0  0  0
 33 34  1  1  0  0  0
 33  3  1  0  0  0  0
 34 43  1  0  0  0  0
 35 34  2  0  0  0  0
 36 35  1  0  0  0  0
 37 39  2  0  0  0  0
 37 35  1  0  0  0  0
 38 37  1  0  0  0  0
 39 41  1  0  0  0  0
 40 39  1  0  0  0  0
 41 42  1  0  0  0  0
 41 43  2  0  0  0  0
 43 44  1  0  0  0  0
M  END
$$$$
