CSD_code = FOGQAU | q = 0 | S = 0 | Stoichiometry = C33H31Cl2NP2Pd | MND = 4
 OpenBabel04212202033D

 70 75  0  0  1  0  0  0  0  0999 V2000
    3.6019    0.2758    4.0977 Pd  0  0  0  0  0  0  0  0  0  0  0  0
    5.7397    0.6293    3.4689 Cl  0  0  0  0  0  0  0  0  0  0  0  0
    3.0890   -0.1806    1.9274 Cl  0  0  0  0  0  0  0  0  0  0  0  0
    1.6397   -0.5766    5.9885 P   0  0  0  0  0  4  0  0  0  0  0  0
    4.2808    0.4409    6.2447 P   0  0  0  0  0  4  0  0  0  0  0  0
    1.5217    0.1836    4.6103 N   0  0  0  0  0  0  0  0  0  0  0  0
    2.7575    0.1642    7.2714 C   0  0  0  0  0  0  0  0  0  0  0  0
    2.9242   -0.4706    8.1427 H   0  0  0  0  0  0  0  0  0  0  0  0
    2.3332    1.1278    7.5695 H   0  0  0  0  0  0  0  0  0  0  0  0
    0.0235   -0.8112    6.7805 C   0  0  0  0  0  0  0  0  0  0  0  0
   -0.3166   -0.3899    8.0580 C   0  0  0  0  0  0  0  0  0  0  0  0
    0.4163    0.0925    8.6890 H   0  0  0  0  0  0  0  0  0  0  0  0
   -1.6050   -0.5925    8.5229 C   0  0  0  0  0  0  0  0  0  0  0  0
   -1.8744   -0.2647    9.5162 H   0  0  0  0  0  0  0  0  0  0  0  0
   -2.5478   -1.2111    7.7185 C   0  0  0  0  0  0  0  0  0  0  0  0
   -3.5507   -1.3642    8.0878 H   0  0  0  0  0  0  0  0  0  0  0  0
   -2.2091   -1.6314    6.4409 C   0  0  0  0  0  0  0  0  0  0  0  0
   -2.9461   -2.1119    5.8151 H   0  0  0  0  0  0  0  0  0  0  0  0
   -0.9256   -1.4301    5.9722 C   0  0  0  0  0  0  0  0  0  0  0  0
   -0.6329   -1.7392    4.9764 H   0  0  0  0  0  0  0  0  0  0  0  0
    2.3048   -2.2189    5.6545 C   0  0  0  0  0  0  0  0  0  0  0  0
    2.5328   -2.6318    4.3442 C   0  0  0  0  0  0  0  0  0  0  0  0
    2.2769   -1.9774    3.5127 H   0  0  0  0  0  0  0  0  0  0  0  0
    3.0622   -3.8914    4.1156 C   0  0  0  0  0  0  0  0  0  0  0  0
    3.2513   -4.2130    3.1025 H   0  0  0  0  0  0  0  0  0  0  0  0
    3.3489   -4.7316    5.1803 C   0  0  0  0  0  0  0  0  0  0  0  0
    3.7681   -5.7099    4.9974 H   0  0  0  0  0  0  0  0  0  0  0  0
    3.0861   -4.3302    6.4808 C   0  0  0  0  0  0  0  0  0  0  0  0
    3.2935   -4.9943    7.3067 H   0  0  0  0  0  0  0  0  0  0  0  0
    2.5593   -3.0747    6.7210 C   0  0  0  0  0  0  0  0  0  0  0  0
    2.3413   -2.7567    7.7327 H   0  0  0  0  0  0  0  0  0  0  0  0
    5.2461   -1.0495    6.6523 C   0  0  0  0  0  0  0  0  0  0  0  0
    5.5292   -1.9673    5.6455 C   0  0  0  0  0  0  0  0  0  0  0  0
    5.2144   -1.7654    4.6197 H   0  0  0  0  0  0  0  0  0  0  0  0
    6.2221   -3.1264    5.9459 C   0  0  0  0  0  0  0  0  0  0  0  0
    6.4451   -3.8354    5.1630 H   0  0  0  0  0  0  0  0  0  0  0  0
    6.6329   -3.3728    7.2451 C   0  0  0  0  0  0  0  0  0  0  0  0
    7.1737   -4.2780    7.4789 H   0  0  0  0  0  0  0  0  0  0  0  0
    6.3618   -2.4544    8.2473 C   0  0  0  0  0  0  0  0  0  0  0  0
    6.6930   -2.6428    9.2584 H   0  0  0  0  0  0  0  0  0  0  0  0
    5.6736   -1.2923    7.9544 C   0  0  0  0  0  0  0  0  0  0  0  0
    5.4758   -0.5654    8.7314 H   0  0  0  0  0  0  0  0  0  0  0  0
    5.1784    1.7619    7.1078 C   0  0  0  0  0  0  0  0  0  0  0  0
    6.2303    2.3555    6.4140 C   0  0  0  0  0  0  0  0  0  0  0  0
    6.4563    2.0121    5.4127 H   0  0  0  0  0  0  0  0  0  0  0  0
    6.9586    3.3731    7.0009 C   0  0  0  0  0  0  0  0  0  0  0  0
    7.7719    3.8321    6.4590 H   0  0  0  0  0  0  0  0  0  0  0  0
    6.6425    3.8065    8.2785 C   0  0  0  0  0  0  0  0  0  0  0  0
    7.2079    4.6046    8.7366 H   0  0  0  0  0  0  0  0  0  0  0  0
    5.5976    3.2173    8.9704 C   0  0  0  0  0  0  0  0  0  0  0  0
    5.3510    3.5535    9.9674 H   0  0  0  0  0  0  0  0  0  0  0  0
    4.8642    2.1974    8.3907 C   0  0  0  0  0  0  0  0  0  0  0  0
    4.0508    1.7492    8.9441 H   0  0  0  0  0  0  0  0  0  0  0  0
    0.8132    1.4634    4.4775 C   0  0  2  0  0  0  0  0  0  0  0  0
   -0.0203    1.4950    5.2003 H   0  0  0  0  0  0  0  0  0  0  0  0
    0.2470    1.5567    3.0621 C   0  0  0  0  0  0  0  0  0  0  0  0
    1.0024    1.2542    2.3389 H   0  0  0  0  0  0  0  0  0  0  0  0
   -0.0791    2.5727    2.8535 H   0  0  0  0  0  0  0  0  0  0  0  0
   -0.5997    0.8817    2.9621 H   0  0  0  0  0  0  0  0  0  0  0  0
    1.7870    2.5748    4.8114 C   0  0  0  0  0  0  0  0  0  0  0  0
    2.8156    2.9158    3.9220 C   0  0  0  0  0  0  0  0  0  0  0  0
    2.8172    2.5360    2.8977 H   0  0  0  0  0  0  0  0  0  0  0  0
    3.7924    3.8234    4.3112 C   0  0  0  0  0  0  0  0  0  0  0  0
    4.5855    4.0785    3.6235 H   0  0  0  0  0  0  0  0  0  0  0  0
    3.7475    4.4088    5.5674 C   0  0  0  0  0  0  0  0  0  0  0  0
    4.5133    5.1080    5.8681 H   0  0  0  0  0  0  0  0  0  0  0  0
    2.7109    4.1060    6.4319 C   0  0  0  0  0  0  0  0  0  0  0  0
    2.6586    4.5773    7.4031 H   0  0  0  0  0  0  0  0  0  0  0  0
    1.7420    3.1889    6.0561 C   0  0  0  0  0  0  0  0  0  0  0  0
    0.9289    2.9527    6.7338 H   0  0  0  0  0  0  0  0  0  0  0  0
  1  6  1  0  0  0  0
  1  5  1  0  0  0  0
  2  1  1  0  0  0  0
  3  1  1  0  0  0  0
  4 10  1  0  0  0  0
  4  7  1  0  0  0  0
  5 32  1  0  0  0  0
  5 43  1  0  0  0  0
  5  7  1  0  0  0  0
  6  4  1  0  0  0  0
  7  9  1  0  0  0  0
  7  8  1  0  0  0  0
 10 11  1  0  0  0  0
 11 13  2  0  0  0  0
 11 12  1  0  0  0  0
 13 14  1  0  0  0  0
 15 16  1  0  0  0  0
 15 13  1  0  0  0  0
 17 15  2  0  0  0  0
 18 17  1  0  0  0  0
 19 17  1  0  0  0  0
 19 10  2  0  0  0  0
 20 19  1  0  0  0  0
 21  4  1  0  0  0  0
 21 30  1  0  0  0  0
 22 21  2  0  0  0  0
 23 22  1  0  0  0  0
 24 22  1  0  0  0  0
 24 26  2  0  0  0  0
 25 24  1  0  0  0  0
 26 28  1  0  0  0  0
 27 26  1  0  0  0  0
 28 30  2  0  0  0  0
 28 29  1  0  0  0  0
 30 31  1  0  0  0  0
 32 41  1  0  0  0  0
 33 35  1  0  0  0  0
 33 32  2  0  0  0  0
 34 33  1  0  0  0  0
 35 37  2  0  0  0  0
 36 35  1  0  0  0  0
 37 38  1  0  0  0  0
 37 39  1  0  0  0  0
 39 40  1  0  0  0  0
 41 39  2  0  0  0  0
 41 42  1  0  0  0  0
 43 52  1  0  0  0  0
 44 46  1  0  0  0  0
 44 43  2  0  0  0  0
 45 44  1  0  0  0  0
 46 48  2  0  0  0  0
 47 46  1  0  0  0  0
 48 49  1  0  0  0  0
 48 50  1  0  0  0  0
 50 51  1  0  0  0  0
 52 53  1  0  0  0  0
 52 50  2  0  0  0  0
 54  6  1  0  0  0  0
 54 60  1  0  0  0  0
 54 55  1  1  0  0  0
 56 54  1  0  0  0  0
 57 56  1  0  0  0  0
 58 56  1  0  0  0  0
 59 56  1  0  0  0  0
 60 69  1  0  0  0  0
 61 63  1  0  0  0  0
 61 60  2  0  0  0  0
 62 61  1  0  0  0  0
 63 65  2  0  0  0  0
 64 63  1  0  0  0  0
 65 66  1  0  0  0  0
 65 67  1  0  0  0  0
 67 68  1  0  0  0  0
 69 67  2  0  0  0  0
 69 70  1  0  0  0  0
M  END
$$$$
