CSD_code = FOGQIC | q = 0 | S = 0 | Stoichiometry = C33H31BrClNP2Pt | MND = 4
 OpenBabel04212202033D

 70 75  0  0  1  0  0  0  0  0999 V2000
   -0.1423    3.0541   -0.0071 Pt  0  0  1  0  0  0  0  0  0  0  0  0
   -1.9259    2.1017   -1.1170 Cl  0  0  0  0  0  0  0  0  0  0  0  0
   -1.4592    3.1420    2.0008 Br  0  0  0  0  0  0  0  0  0  0  0  0
    2.3245    2.6943   -1.5279 P   0  0  0  0  0  4  0  0  0  0  0  0
    1.7396    3.8455    1.0205 P   0  0  0  0  0  4  0  0  0  0  0  0
    0.8331    3.0123   -1.9458 N   0  0  0  0  0  0  0  0  0  0  0  0
    3.0707    3.8416   -0.2782 C   0  0  0  0  0  0  0  0  0  0  0  0
    3.1440    4.8330   -0.7340 H   0  0  0  0  0  0  0  0  0  0  0  0
    4.0410    3.5193    0.1016 H   0  0  0  0  0  0  0  0  0  0  0  0
    0.3243    4.1037   -2.7694 C   0  0  2  0  0  0  0  0  0  0  0  0
   -0.7183    3.8294   -2.9839 H   0  0  0  0  0  0  0  0  0  0  0  0
    1.0573    4.2261   -4.0985 C   0  0  0  0  0  0  0  0  0  0  0  0
    2.1156    4.4365   -3.9516 H   0  0  0  0  0  0  0  0  0  0  0  0
    0.6146    5.0263   -4.6873 H   0  0  0  0  0  0  0  0  0  0  0  0
    0.9725    3.2922   -4.6503 H   0  0  0  0  0  0  0  0  0  0  0  0
    0.3146    5.3732   -1.9411 C   0  0  0  0  0  0  0  0  0  0  0  0
   -0.7707    5.6054   -1.0921 C   0  0  0  0  0  0  0  0  0  0  0  0
   -1.6541    4.9793   -1.1590 H   0  0  0  0  0  0  0  0  0  0  0  0
   -0.7674    6.6871   -0.2253 C   0  0  0  0  0  0  0  0  0  0  0  0
   -1.6106    6.8511    0.4282 H   0  0  0  0  0  0  0  0  0  0  0  0
    0.3101    7.5567   -0.2030 C   0  0  0  0  0  0  0  0  0  0  0  0
    0.3167    8.3978    0.4739 H   0  0  0  0  0  0  0  0  0  0  0  0
    1.3760    7.3493   -1.0599 C   0  0  0  0  0  0  0  0  0  0  0  0
    2.2110    8.0359   -1.0604 H   0  0  0  0  0  0  0  0  0  0  0  0
    1.3816    6.2612   -1.9184 C   0  0  0  0  0  0  0  0  0  0  0  0
    2.2224    6.1185   -2.5846 H   0  0  0  0  0  0  0  0  0  0  0  0
    3.5231    2.5168   -2.8812 C   0  0  0  0  0  0  0  0  0  0  0  0
    4.6425    3.3174   -3.0585 C   0  0  0  0  0  0  0  0  0  0  0  0
    4.8656    4.1086   -2.3564 H   0  0  0  0  0  0  0  0  0  0  0  0
    5.4729    3.0994   -4.1445 C   0  0  0  0  0  0  0  0  0  0  0  0
    6.3444    3.7214   -4.2868 H   0  0  0  0  0  0  0  0  0  0  0  0
    5.1883    2.0883   -5.0476 C   0  0  0  0  0  0  0  0  0  0  0  0
    5.8396    1.9248   -5.8929 H   0  0  0  0  0  0  0  0  0  0  0  0
    4.0709    1.2865   -4.8697 C   0  0  0  0  0  0  0  0  0  0  0  0
    3.8519    0.4984   -5.5743 H   0  0  0  0  0  0  0  0  0  0  0  0
    3.2395    1.5001   -3.7876 C   0  0  0  0  0  0  0  0  0  0  0  0
    2.3586    0.8914   -3.6266 H   0  0  0  0  0  0  0  0  0  0  0  0
    2.3107    1.0776   -0.7262 C   0  0  0  0  0  0  0  0  0  0  0  0
    1.1589    0.2986   -0.7278 C   0  0  0  0  0  0  0  0  0  0  0  0
    0.2702    0.6511   -1.2368 H   0  0  0  0  0  0  0  0  0  0  0  0
    1.1658   -0.9279   -0.0857 C   0  0  0  0  0  0  0  0  0  0  0  0
    0.2689   -1.5283   -0.0721 H   0  0  0  0  0  0  0  0  0  0  0  0
    2.3170   -1.3790    0.5399 C   0  0  0  0  0  0  0  0  0  0  0  0
    2.3165   -2.3322    1.0473 H   0  0  0  0  0  0  0  0  0  0  0  0
    3.4755   -0.6189    0.5060 C   0  0  0  0  0  0  0  0  0  0  0  0
    4.3763   -0.9802    0.9794 H   0  0  0  0  0  0  0  0  0  0  0  0
    3.4767    0.6075   -0.1317 C   0  0  0  0  0  0  0  0  0  0  0  0
    4.3815    1.2006   -0.1709 H   0  0  0  0  0  0  0  0  0  0  0  0
    2.4430    2.7027    2.2511 C   0  0  0  0  0  0  0  0  0  0  0  0
    1.7643    1.5312    2.5613 C   0  0  0  0  0  0  0  0  0  0  0  0
    0.8096    1.3245    2.0945 H   0  0  0  0  0  0  0  0  0  0  0  0
    2.3071    0.6364    3.4655 C   0  0  0  0  0  0  0  0  0  0  0  0
    1.7751   -0.2715    3.7052 H   0  0  0  0  0  0  0  0  0  0  0  0
    3.5258    0.9090    4.0626 C   0  0  0  0  0  0  0  0  0  0  0  0
    3.9510    0.2111    4.7686 H   0  0  0  0  0  0  0  0  0  0  0  0
    4.1995    2.0838    3.7649 C   0  0  0  0  0  0  0  0  0  0  0  0
    5.1449    2.3011    4.2406 H   0  0  0  0  0  0  0  0  0  0  0  0
    3.6604    2.9826    2.8648 C   0  0  0  0  0  0  0  0  0  0  0  0
    4.1763    3.9082    2.6456 H   0  0  0  0  0  0  0  0  0  0  0  0
    1.9372    5.4587    1.8408 C   0  0  0  0  0  0  0  0  0  0  0  0
    0.9145    5.8597    2.6966 C   0  0  0  0  0  0  0  0  0  0  0  0
    0.0574    5.2178    2.8406 H   0  0  0  0  0  0  0  0  0  0  0  0
    0.9930    7.0739    3.3526 C   0  0  0  0  0  0  0  0  0  0  0  0
    0.1931    7.3774    4.0107 H   0  0  0  0  0  0  0  0  0  0  0  0
    2.0899    7.8978    3.1617 C   0  0  0  0  0  0  0  0  0  0  0  0
    2.1505    8.8493    3.6691 H   0  0  0  0  0  0  0  0  0  0  0  0
    3.1126    7.4996    2.3173 C   0  0  0  0  0  0  0  0  0  0  0  0
    3.9723    8.1376    2.1698 H   0  0  0  0  0  0  0  0  0  0  0  0
    3.0407    6.2860    1.6577 C   0  0  0  0  0  0  0  0  0  0  0  0
    3.8514    5.9949    1.0048 H   0  0  0  0  0  0  0  0  0  0  0  0
  1  2  1  1  0  0  0
  1  5  1  0  0  0  0
  1  3  1  0  0  0  0
  4 38  1  0  0  0  0
  4  7  1  0  0  0  0
  5 60  1  0  0  0  0
  5 49  1  0  0  0  0
  6  4  1  0  0  0  0
  6  1  1  0  0  0  0
  7  9  1  0  0  0  0
  7  5  1  0  0  0  0
  8  7  1  0  0  0  0
 10 11  1  6  0  0  0
 10  6  1  0  0  0  0
 10 16  1  0  0  0  0
 12 13  1  0  0  0  0
 12 10  1  0  0  0  0
 14 12  1  0  0  0  0
 15 12  1  0  0  0  0
 16 25  2  0  0  0  0
 16 17  1  0  0  0  0
 17 19  2  0  0  0  0
 18 17  1  0  0  0  0
 19 21  1  0  0  0  0
 19 20  1  0  0  0  0
 21 22  1  0  0  0  0
 23 21  2  0  0  0  0
 24 23  1  0  0  0  0
 25 23  1  0  0  0  0
 26 25  1  0  0  0  0
 27  4  1  0  0  0  0
 28 27  1  0  0  0  0
 28 29  1  0  0  0  0
 30 28  2  0  0  0  0
 31 30  1  0  0  0  0
 32 34  2  0  0  0  0
 32 30  1  0  0  0  0
 33 32  1  0  0  0  0
 34 36  1  0  0  0  0
 35 34  1  0  0  0  0
 36 37  1  0  0  0  0
 36 27  2  0  0  0  0
 38 47  1  0  0  0  0
 39 38  2  0  0  0  0
 39 41  1  0  0  0  0
 40 39  1  0  0  0  0
 41 42  1  0  0  0  0
 41 43  2  0  0  0  0
 43 44  1  0  0  0  0
 45 43  1  0  0  0  0
 45 46  1  0  0  0  0
 47 45  2  0  0  0  0
 48 47  1  0  0  0  0
 49 50  2  0  0  0  0
 49 58  1  0  0  0  0
 50 52  1  0  0  0  0
 51 50  1  0  0  0  0
 52 53  1  0  0  0  0
 52 54  2  0  0  0  0
 54 55  1  0  0  0  0
 56 54  1  0  0  0  0
 56 57  1  0  0  0  0
 58 56  2  0  0  0  0
 59 58  1  0  0  0  0
 60 61  1  0  0  0  0
 61 62  1  0  0  0  0
 61 63  2  0  0  0  0
 63 64  1  0  0  0  0
 65 63  1  0  0  0  0
 65 66  1  0  0  0  0
 67 65  2  0  0  0  0
 68 67  1  0  0  0  0
 69 60  2  0  0  0  0
 69 67  1  0  0  0  0
 70 69  1  0  0  0  0
M  END
$$$$
