CSD_code = FOGXIK | q = 1 | S = 0 | Stoichiometry = C17H18AuClN2P(1+) | MND = 2
 OpenBabel04212202033D

 40 42  0  0  1  0  0  0  0  0999 V2000
    7.0524    3.9194    2.5930 Au  0  0  0  0  0  0  0  0  0  0  0  0
    5.6709    5.0321    1.2148 Cl  0  0  0  0  0  0  0  0  0  0  0  0
    8.4586    2.8396    3.9802 P   0  0  0  0  0  4  0  0  0  0  0  0
   10.4874    2.4771    2.1378 N   0  0  0  0  0  0  0  0  0  0  0  0
    9.7305    0.5400    2.7785 N   0  0  0  0  0  0  0  0  0  0  0  0
    7.6685    1.7024    5.1444 C   0  0  0  0  0  0  0  0  0  0  0  0
    6.3515    1.3306    4.8747 C   0  0  0  0  0  0  0  0  0  0  0  0
    5.8664    1.6948    3.9774 H   0  0  0  0  0  0  0  0  0  0  0  0
    5.6727    0.5153    5.7623 C   0  0  0  0  0  0  0  0  0  0  0  0
    4.6528    0.2305    5.5566 H   0  0  0  0  0  0  0  0  0  0  0  0
    6.2992    0.0818    6.9203 C   0  0  0  0  0  0  0  0  0  0  0  0
    5.7660   -0.5456    7.6172 H   0  0  0  0  0  0  0  0  0  0  0  0
    7.6034    0.4663    7.1975 C   0  0  0  0  0  0  0  0  0  0  0  0
    8.0809    0.1392    8.1082 H   0  0  0  0  0  0  0  0  0  0  0  0
    8.2923    1.2811    6.3185 C   0  0  0  0  0  0  0  0  0  0  0  0
    9.3003    1.5983    6.5455 H   0  0  0  0  0  0  0  0  0  0  0  0
    9.5479    3.8509    5.0119 C   0  0  0  0  0  0  0  0  0  0  0  0
    9.0249    5.0637    5.4527 C   0  0  0  0  0  0  0  0  0  0  0  0
    8.0360    5.3647    5.1310 H   0  0  0  0  0  0  0  0  0  0  0  0
    9.7739    5.8704    6.2904 C   0  0  0  0  0  0  0  0  0  0  0  0
    9.3698    6.8093    6.6345 H   0  0  0  0  0  0  0  0  0  0  0  0
   11.0424    5.4713    6.6814 C   0  0  0  0  0  0  0  0  0  0  0  0
   11.6279    6.1009    7.3328 H   0  0  0  0  0  0  0  0  0  0  0  0
   11.5660    4.2657    6.2377 C   0  0  0  0  0  0  0  0  0  0  0  0
   12.5548    3.9600    6.5437 H   0  0  0  0  0  0  0  0  0  0  0  0
   10.8243    3.4488    5.4042 C   0  0  0  0  0  0  0  0  0  0  0  0
   11.2336    2.5069    5.0599 H   0  0  0  0  0  0  0  0  0  0  0  0
   11.1085    1.5328    1.3862 C   0  0  0  0  0  0  0  0  0  0  0  0
   11.8280    1.7757    0.6307 H   0  0  0  0  0  0  0  0  0  0  0  0
   10.6350    0.3219    1.7862 C   0  0  0  0  0  0  0  0  0  0  0  0
   10.8767   -0.6605    1.4348 H   0  0  0  0  0  0  0  0  0  0  0  0
    9.6551    1.8658    3.0063 C   0  0  2  0  0  3  0  0  0  0  0  0
   10.6640    3.8951    1.9976 C   0  0  0  0  0  0  0  0  0  0  0  0
   11.2059    4.3072    2.8510 H   0  0  0  0  0  0  0  0  0  0  0  0
    9.6875    4.3876    1.9310 H   0  0  0  0  0  0  0  0  0  0  0  0
   11.2261    4.0974    1.0881 H   0  0  0  0  0  0  0  0  0  0  0  0
    8.9934   -0.5067    3.4365 C   0  0  0  0  0  0  0  0  0  0  0  0
    9.2210   -0.5314    4.5026 H   0  0  0  0  0  0  0  0  0  0  0  0
    9.2706   -1.4612    2.9937 H   0  0  0  0  0  0  0  0  0  0  0  0
    7.9205   -0.3570    3.3109 H   0  0  0  0  0  0  0  0  0  0  0  0
  1  3  1  0  0  0  0
  2  1  1  0  0  0  0
  3 17  1  0  0  0  0
  3  6  1  0  0  0  0
  4 32  1  0  0  0  0
  5 32  1  0  0  0  0
  5 37  1  0  0  0  0
  6 15  1  0  0  0  0
  7  6  2  0  0  0  0
  7  9  1  0  0  0  0
  8  7  1  0  0  0  0
  9 11  2  0  0  0  0
 10  9  1  0  0  0  0
 11 13  1  0  0  0  0
 11 12  1  0  0  0  0
 13 14  1  0  0  0  0
 15 16  1  0  0  0  0
 15 13  2  0  0  0  0
 17 26  2  0  0  0  0
 17 18  1  0  0  0  0
 18 20  2  0  0  0  0
 19 18  1  0  0  0  0
 20 21  1  0  0  0  0
 20 22  1  0  0  0  0
 22 23  1  0  0  0  0
 24 25  1  0  0  0  0
 24 22  2  0  0  0  0
 26 24  1  0  0  0  0
 27 26  1  0  0  0  0
 28 30  2  0  0  0  0
 28  4  1  0  0  0  0
 29 28  1  0  0  0  0
 30  5  1  0  0  0  0
 31 30  1  0  0  0  0
 32  3  1  6  0  0  0
 33  4  1  0  0  0  0
 33 34  1  0  0  0  0
 35 33  1  0  0  0  0
 36 33  1  0  0  0  0
 37 38  1  0  0  0  0
 39 37  1  0  0  0  0
 40 37  1  0  0  0  0
M  END
$$$$
