CSD_code = FOGYAD | q = 1 | S = 0 | Stoichiometry = C20H24AuClN2P(1+) | MND = 2
 OpenBabel04212202033D

 49 51  0  0  1  0  0  0  0  0999 V2000
    9.1967    5.3866    1.1615 Au  0  0  0  0  0  0  0  0  0  0  0  0
   10.6512    6.9053    0.3519 Cl  0  0  0  0  0  0  0  0  0  0  0  0
    7.8213    3.8629    2.0828 P   0  0  0  0  0  4  0  0  0  0  0  0
    8.6613    1.1107    1.8060 N   0  0  0  0  0  0  0  0  0  0  0  0
    9.7720    2.2799    3.2663 N   0  0  0  0  0  0  0  0  0  0  0  0
    7.1247    4.2452    3.7109 C   0  0  0  0  0  0  0  0  0  0  0  0
    6.7997    3.2721    4.6550 C   0  0  0  0  0  0  0  0  0  0  0  0
    6.9887    2.2254    4.4522 H   0  0  0  0  0  0  0  0  0  0  0  0
    6.2360    3.6566    5.8574 C   0  0  0  0  0  0  0  0  0  0  0  0
    5.9819    2.9075    6.5917 H   0  0  0  0  0  0  0  0  0  0  0  0
    5.9959    4.9973    6.1203 C   0  0  0  0  0  0  0  0  0  0  0  0
    5.5564    5.2875    7.0616 H   0  0  0  0  0  0  0  0  0  0  0  0
    6.3210    5.9642    5.1818 C   0  0  0  0  0  0  0  0  0  0  0  0
    6.1375    7.0067    5.3893 H   0  0  0  0  0  0  0  0  0  0  0  0
    6.8881    5.5917    3.9765 C   0  0  0  0  0  0  0  0  0  0  0  0
    7.1584    6.3349    3.2367 H   0  0  0  0  0  0  0  0  0  0  0  0
    6.3794    3.4275    1.0773 C   0  0  0  0  0  0  0  0  0  0  0  0
    6.4483    3.7229   -0.2843 C   0  0  0  0  0  0  0  0  0  0  0  0
    7.3562    4.1501   -0.6926 H   0  0  0  0  0  0  0  0  0  0  0  0
    5.3547    3.4852   -1.0967 C   0  0  0  0  0  0  0  0  0  0  0  0
    5.4070    3.7171   -2.1490 H   0  0  0  0  0  0  0  0  0  0  0  0
    4.1892    2.9684   -0.5520 C   0  0  0  0  0  0  0  0  0  0  0  0
    3.3322    2.7942   -1.1836 H   0  0  0  0  0  0  0  0  0  0  0  0
    4.1130    2.6929    0.8055 C   0  0  0  0  0  0  0  0  0  0  0  0
    3.1980    2.3073    1.2282 H   0  0  0  0  0  0  0  0  0  0  0  0
    5.2009    2.9248    1.6275 C   0  0  0  0  0  0  0  0  0  0  0  0
    5.1318    2.7293    2.6883 H   0  0  0  0  0  0  0  0  0  0  0  0
    8.7250    2.3092    2.4191 C   0  0  1  0  0  3  0  0  0  0  0  0
   10.3506    1.0527    3.2063 C   0  0  0  0  0  0  0  0  0  0  0  0
   11.1960    0.7856    3.8071 H   0  0  0  0  0  0  0  0  0  0  0  0
    9.6566    0.3217    2.2939 C   0  0  0  0  0  0  0  0  0  0  0  0
    9.8011   -0.6877    1.9664 H   0  0  0  0  0  0  0  0  0  0  0  0
    7.7276    0.6831    0.7969 C   0  0  0  0  0  0  0  0  0  0  0  0
    6.7070    0.6959    1.1805 H   0  0  0  0  0  0  0  0  0  0  0  0
    7.9791   -0.3326    0.4977 H   0  0  0  0  0  0  0  0  0  0  0  0
    7.7818    1.3331   -0.0770 H   0  0  0  0  0  0  0  0  0  0  0  0
   10.2902    3.3735    4.0552 C   0  0  0  0  0  0  0  0  0  0  0  0
   10.4783    3.0086    5.0688 H   0  0  0  0  0  0  0  0  0  0  0  0
    9.5361    4.1613    4.0989 H   0  0  0  0  0  0  0  0  0  0  0  0
   11.5874    3.9279    3.4557 C   0  0  0  0  0  0  0  0  0  0  0  0
   11.3961    4.2883    2.4410 H   0  0  0  0  0  0  0  0  0  0  0  0
   12.3286    3.1284    3.3996 H   0  0  0  0  0  0  0  0  0  0  0  0
   12.1448    5.0798    4.2932 C   0  0  0  0  0  0  0  0  0  0  0  0
   12.2749    4.7503    5.3265 H   0  0  0  0  0  0  0  0  0  0  0  0
   13.1297    5.3288    3.8978 H   0  0  0  0  0  0  0  0  0  0  0  0
   11.2771    6.3313    4.2517 C   0  0  0  0  0  0  0  0  0  0  0  0
   11.7772    7.1404    4.7761 H   0  0  0  0  0  0  0  0  0  0  0  0
   10.3118    6.1728    4.7297 H   0  0  0  0  0  0  0  0  0  0  0  0
   11.1154    6.6475    3.2237 H   0  0  0  0  0  0  0  0  0  0  0  0
  1  3  1  0  0  0  0
  2  1  1  0  0  0  0
  3  6  1  0  0  0  0
  4 31  1  0  0  0  0
  4 28  1  0  0  0  0
  5 37  1  0  0  0  0
  6 15  2  0  0  0  0
  6  7  1  0  0  0  0
  7  9  2  0  0  0  0
  8  7  1  0  0  0  0
  9 11  1  0  0  0  0
  9 10  1  0  0  0  0
 11 12  1  0  0  0  0
 13 14  1  0  0  0  0
 13 11  2  0  0  0  0
 15 13  1  0  0  0  0
 16 15  1  0  0  0  0
 17 26  1  0  0  0  0
 17  3  1  0  0  0  0
 18 17  2  0  0  0  0
 19 18  1  0  0  0  0
 20 22  2  0  0  0  0
 20 18  1  0  0  0  0
 21 20  1  0  0  0  0
 22 24  1  0  0  0  0
 23 22  1  0  0  0  0
 24 25  1  0  0  0  0
 24 26  2  0  0  0  0
 26 27  1  0  0  0  0
 28  3  1  6  0  0  0
 28  5  1  0  0  0  0
 29  5  1  0  0  0  0
 29 30  1  0  0  0  0
 31 29  2  0  0  0  0
 32 31  1  0  0  0  0
 33 34  1  0  0  0  0
 33  4  1  0  0  0  0
 35 33  1  0  0  0  0
 36 33  1  0  0  0  0
 37 39  1  0  0  0  0
 37 38  1  0  0  0  0
 40 37  1  0  0  0  0
 40 43  1  0  0  0  0
 41 40  1  0  0  0  0
 42 40  1  0  0  0  0
 43 44  1  0  0  0  0
 45 43  1  0  0  0  0
 46 43  1  0  0  0  0
 46 48  1  0  0  0  0
 46 47  1  0  0  0  0
 49 46  1  0  0  0  0
M  END
$$$$
