CSD_code = FOGZUX | q = 0 | S = 0 | Stoichiometry = C24H16Cl2HgN4 | MND = 6
 OpenBabel04212202033D

 47 50  0  0  0  0  0  0  0  0999 V2000
    6.4374    3.8317    7.5582 Hg  0  0  0  0  0  0  0  0  0  0  0  0
    6.0438    2.2394    9.1841 Cl  0  0  0  0  0  0  0  0  0  0  0  0
    5.0656    4.2073    5.7399 Cl  0  0  0  0  0  0  0  0  0  0  0  0
    7.8622    2.2219    6.2996 N   0  0  0  0  0  0  0  0  0  0  0  0
    8.8267    3.6735    8.3910 N   0  0  0  0  0  0  0  0  0  0  0  0
    7.3963    1.5359    5.2804 C   0  0  0  0  0  0  0  0  0  0  0  0
    6.6178    2.0165    4.7011 H   0  0  0  0  0  0  0  0  0  0  0  0
    7.8590    0.2584    4.9463 C   0  0  0  0  0  0  0  0  0  0  0  0
    7.4363   -0.2605    4.1005 H   0  0  0  0  0  0  0  0  0  0  0  0
    8.8371   -0.3155    5.7199 C   0  0  0  0  0  0  0  0  0  0  0  0
    9.2123   -1.3064    5.5063 H   0  0  0  0  0  0  0  0  0  0  0  0
    9.3545    0.3976    6.8144 C   0  0  0  0  0  0  0  0  0  0  0  0
    8.8287    1.6850    7.0623 C   0  0  0  0  0  0  0  0  0  0  0  0
   10.3582   -0.1335    7.6738 C   0  0  0  0  0  0  0  0  0  0  0  0
   10.7388   -1.1221    7.4614 H   0  0  0  0  0  0  0  0  0  0  0  0
   10.8118    0.5735    8.7353 C   0  0  0  0  0  0  0  0  0  0  0  0
   11.5622    0.1635    9.3957 H   0  0  0  0  0  0  0  0  0  0  0  0
   10.3080    1.8750    9.0183 C   0  0  0  0  0  0  0  0  0  0  0  0
    9.3250    2.4458    8.1786 C   0  0  0  0  0  0  0  0  0  0  0  0
   10.7398    2.6322   10.1197 C   0  0  0  0  0  0  0  0  0  0  0  0
   11.4801    2.2202   10.7910 H   0  0  0  0  0  0  0  0  0  0  0  0
    5.2595    5.6039    8.8526 N   0  0  0  0  0  0  0  0  0  0  0  0
    7.2354    6.1954    7.0764 N   0  0  0  0  0  0  0  0  0  0  0  0
    4.3191    5.3132    9.7232 C   0  0  0  0  0  0  0  0  0  0  0  0
    4.4174    4.3596   10.2268 H   0  0  0  0  0  0  0  0  0  0  0  0
    3.2438    6.1658    9.9969 C   0  0  0  0  0  0  0  0  0  0  0  0
    2.4984    5.8735   10.7198 H   0  0  0  0  0  0  0  0  0  0  0  0
    3.1541    7.3574    9.3214 C   0  0  0  0  0  0  0  0  0  0  0  0
    2.3314    8.0380    9.4905 H   0  0  0  0  0  0  0  0  0  0  0  0
    4.1479    7.6939    8.3867 C   0  0  0  0  0  0  0  0  0  0  0  0
    5.1992    6.7710    8.1904 C   0  0  0  0  0  0  0  0  0  0  0  0
    4.1190    8.9028    7.6344 C   0  0  0  0  0  0  0  0  0  0  0  0
    3.2995    9.5869    7.8018 H   0  0  0  0  0  0  0  0  0  0  0  0
    5.0820    9.1802    6.7246 C   0  0  0  0  0  0  0  0  0  0  0  0
    5.0511   10.0906    6.1435 H   0  0  0  0  0  0  0  0  0  0  0  0
    6.1604    8.2775    6.5003 C   0  0  0  0  0  0  0  0  0  0  0  0
    6.2348    7.0745    7.2382 C   0  0  0  0  0  0  0  0  0  0  0  0
    7.1702    8.5224    5.5555 C   0  0  0  0  0  0  0  0  0  0  0  0
    7.1370    9.4263    4.9636 H   0  0  0  0  0  0  0  0  0  0  0  0
    8.1780    7.6037    5.3976 C   0  0  0  0  0  0  0  0  0  0  0  0
    8.9658    7.7549    4.6761 H   0  0  0  0  0  0  0  0  0  0  0  0
   10.2068    3.8808   10.3258 C   0  0  0  0  0  0  0  0  0  0  0  0
   10.5084    4.4870   11.1658 H   0  0  0  0  0  0  0  0  0  0  0  0
    8.1677    6.4513    6.1896 C   0  0  0  0  0  0  0  0  0  0  0  0
    8.9493    5.7084    6.0993 H   0  0  0  0  0  0  0  0  0  0  0  0
    9.2512    4.3611    9.4249 C   0  0  0  0  0  0  0  0  0  0  0  0
    8.8144    5.3433    9.5496 H   0  0  0  0  0  0  0  0  0  0  0  0
  1  2  1  0  0  0  0
  3  1  1  0  0  0  0
  4 13  1  0  0  0  0
  5 46  1  0  0  0  0
  6  4  2  0  0  0  0
  7  6  1  0  0  0  0
  8  6  1  0  0  0  0
  8 10  2  0  0  0  0
  9  8  1  0  0  0  0
 10 12  1  0  0  0  0
 11 10  1  0  0  0  0
 12 13  2  0  0  0  0
 12 14  1  0  0  0  0
 13 19  1  0  0  0  0
 14 16  2  0  0  0  0
 15 14  1  0  0  0  0
 16 18  1  0  0  0  0
 16 17  1  0  0  0  0
 18 20  2  0  0  0  0
 19  5  2  0  0  0  0
 19 18  1  0  0  0  0
 20 42  1  0  0  0  0
 20 21  1  0  0  0  0
 22 24  1  0  0  0  0
 23 37  1  0  0  0  0
 24 26  2  0  0  0  0
 24 25  1  0  0  0  0
 26 27  1  0  0  0  0
 28 29  1  0  0  0  0
 28 26  1  0  0  0  0
 30 28  2  0  0  0  0
 31 30  1  0  0  0  0
 31 22  2  0  0  0  0
 32 33  1  0  0  0  0
 32 30  1  0  0  0  0
 34 32  2  0  0  0  0
 35 34  1  0  0  0  0
 36 34  1  0  0  0  0
 36 37  2  0  0  0  0
 37 31  1  0  0  0  0
 38 36  1  0  0  0  0
 39 38  1  0  0  0  0
 40 38  2  0  0  0  0
 40 44  1  0  0  0  0
 41 40  1  0  0  0  0
 42 43  1  0  0  0  0
 44 23  2  0  0  0  0
 45 44  1  0  0  0  0
 46 47  1  0  0  0  0
 46 42  2  0  0  0  0
M  END
$$$$
