CSD_code = FOHJAN | q = 1 | S = 0 | Stoichiometry = C6H20Cl2CoN4O2(1+) | MND = 6
 OpenBabel04212202033D

 35 36  0  0  0  0  0  0  0  0999 V2000
    3.3570    4.3194    5.9617 Co  0  0  0  0  0  0  0  0  0  0  0  0
    3.9419    3.5316    4.2390 N   0  0  0  0  0  4  0  0  0  0  0  0
    5.1497    3.8210    6.6437 N   0  0  0  0  0  4  0  0  0  0  0  0
    4.5160    2.1789    4.2055 C   0  0  0  0  0  0  0  0  0  0  0  0
    5.8519    2.1727    4.9635 C   0  0  0  0  0  0  0  0  0  0  0  0
    5.6464    2.4505    6.4546 C   0  0  0  0  0  0  0  0  0  0  0  0
    6.6973    3.1924    4.4694 O   0  0  0  0  0  0  0  0  0  0  0  0
    4.2710    6.2198    5.2665 Cl  0  0  0  0  0  0  0  0  0  0  0  0
    4.6810    4.1744    3.9260 H   0  0  0  0  0  0  0  0  0  0  0  0
    3.2066    3.5755    3.5337 H   0  0  0  0  0  0  0  0  0  0  0  0
    4.6931    1.8749    3.1676 H   0  0  0  0  0  0  0  0  0  0  0  0
    3.8243    1.4733    4.6662 H   0  0  0  0  0  0  0  0  0  0  0  0
    6.3137    1.1838    4.8589 H   0  0  0  0  0  0  0  0  0  0  0  0
    7.1649    2.8969    3.6826 H   0  0  0  0  0  0  0  0  0  0  0  0
    4.9343    1.7387    6.8726 H   0  0  0  0  0  0  0  0  0  0  0  0
    6.6111    2.3345    6.9586 H   0  0  0  0  0  0  0  0  0  0  0  0
    5.8009    4.4339    6.1378 H   0  0  0  0  0  0  0  0  0  0  0  0
    5.2576    4.0491    7.6318 H   0  0  0  0  0  0  0  0  0  0  0  0
    2.7721    5.1075    7.6843 N   0  0  0  0  0  4  0  0  0  0  0  0
    1.5643    4.8181    5.2796 N   0  0  0  0  0  4  0  0  0  0  0  0
    2.4423    2.4192    6.6566 Cl  0  0  0  0  0  0  0  0  0  0  0  0
    2.1980    6.4602    7.7178 C   0  0  0  0  0  0  0  0  0  0  0  0
    2.0330    4.4647    7.9972 H   0  0  0  0  0  0  0  0  0  0  0  0
    3.5074    5.0636    8.3896 H   0  0  0  0  0  0  0  0  0  0  0  0
    1.0676    6.1887    5.4687 C   0  0  0  0  0  0  0  0  0  0  0  0
    0.9132    4.2052    5.7854 H   0  0  0  0  0  0  0  0  0  0  0  0
    1.4565    4.5900    4.2915 H   0  0  0  0  0  0  0  0  0  0  0  0
    0.8621    6.4664    6.9598 C   0  0  0  0  0  0  0  0  0  0  0  0
    2.0209    6.7642    8.7557 H   0  0  0  0  0  0  0  0  0  0  0  0
    2.8897    7.1658    7.2571 H   0  0  0  0  0  0  0  0  0  0  0  0
    1.7798    6.9005    5.0507 H   0  0  0  0  0  0  0  0  0  0  0  0
    0.1030    6.3046    4.9647 H   0  0  0  0  0  0  0  0  0  0  0  0
    0.0167    5.4467    7.4539 O   0  0  0  0  0  0  0  0  0  0  0  0
    0.4003    7.4553    7.0644 H   0  0  0  0  0  0  0  0  0  0  0  0
   -0.4509    5.7422    8.2408 H   0  0  0  0  0  0  0  0  0  0  0  0
  1  3  1  0  0  0  0
  1 21  1  0  0  0  0
  1 19  1  0  0  0  0
  2  1  1  0  0  0  0
  3 18  1  0  0  0  0
  4  2  1  0  0  0  0
  4 12  1  0  0  0  0
  4  5  1  0  0  0  0
  5  6  1  0  0  0  0
  6  3  1  0  0  0  0
  6 15  1  0  0  0  0
  6 16  1  0  0  0  0
  7  5  1  0  0  0  0
  8  1  1  0  0  0  0
  9  2  1  0  0  0  0
 10  2  1  0  0  0  0
 11  4  1  0  0  0  0
 13  5  1  0  0  0  0
 14  7  1  0  0  0  0
 17  3  1  0  0  0  0
 19 22  1  0  0  0  0
 19 23  1  0  0  0  0
 19 24  1  0  0  0  0
 20 25  1  0  0  0  0
 20 26  1  0  0  0  0
 20  1  1  0  0  0  0
 22 29  1  0  0  0  0
 25 28  1  0  0  0  0
 27 20  1  0  0  0  0
 28 34  1  0  0  0  0
 28 33  1  0  0  0  0
 28 22  1  0  0  0  0
 30 22  1  0  0  0  0
 31 25  1  0  0  0  0
 32 25  1  0  0  0  0
 33 35  1  0  0  0  0
M  END
$$$$
