CSD_code = FOJHIW | q = 0 | S = 0 | Stoichiometry = C28H28Cl2N2Zr | MND = 12
 OpenBabel04212202033D

 61 64  0  0  1  0  0  0  0  0999 V2000
   13.8695    0.5194    3.0601 Zr  0  0  0  0  0  0  0  0  0  0  0  0
   14.3930    2.0901    1.4162 Cl  0  0  0  0  0  0  0  0  0  0  0  0
   11.6932   -0.4506    3.6376 C   0  0  0  0  0  0  0  0  0  0  0  0
   11.2966   -0.4530    4.6467 H   0  0  0  0  0  0  0  0  0  0  0  0
   12.3703   -1.5161    3.0125 C   0  0  0  0  0  0  0  0  0  0  0  0
   12.5597   -2.4852    3.4560 H   0  0  0  0  0  0  0  0  0  0  0  0
   12.6055   -1.1625    1.6627 C   0  0  0  0  0  0  0  0  0  0  0  0
   13.0090   -1.8126    0.8956 H   0  0  0  0  0  0  0  0  0  0  0  0
   12.0406    0.1112    1.4391 C   0  0  0  0  0  0  0  0  0  0  0  0
   11.9506    0.6030    0.4781 H   0  0  0  0  0  0  0  0  0  0  0  0
   11.4686    0.5635    2.6590 C   0  0  2  0  0  0  0  0  0  0  0  0
   10.7973    1.8539    2.8974 C   0  0  0  0  0  0  0  0  0  0  0  0
   11.0857    2.9372    2.1652 C   0  0  0  0  0  0  0  0  0  0  0  0
   10.5859    3.8759    2.3271 H   0  0  0  0  0  0  0  0  0  0  0  0
   11.8523    2.9198    1.4094 H   0  0  0  0  0  0  0  0  0  0  0  0
    9.8974    1.8907    3.9711 N   0  0  0  0  0  0  0  0  0  0  0  0
    9.9977    2.9641    4.9334 C   0  0  0  0  0  0  0  0  0  0  0  0
    9.0272    3.4421    5.0861 H   0  0  0  0  0  0  0  0  0  0  0  0
   10.7089    3.7010    4.5718 H   0  0  0  0  0  0  0  0  0  0  0  0
   10.3698    2.5929    5.8937 H   0  0  0  0  0  0  0  0  0  0  0  0
    8.9729    0.8793    4.1594 C   0  0  0  0  0  0  0  0  0  0  0  0
    8.6034    0.0522    3.0910 C   0  0  0  0  0  0  0  0  0  0  0  0
    9.0376    0.2149    2.1166 H   0  0  0  0  0  0  0  0  0  0  0  0
    7.6787   -0.9558    3.2655 C   0  0  0  0  0  0  0  0  0  0  0  0
    7.4130   -1.5814    2.4257 H   0  0  0  0  0  0  0  0  0  0  0  0
    7.0794   -1.1599    4.4982 C   0  0  0  0  0  0  0  0  0  0  0  0
    6.3526   -1.9468    4.6303 H   0  0  0  0  0  0  0  0  0  0  0  0
    7.4160   -0.3309    5.5534 C   0  0  0  0  0  0  0  0  0  0  0  0
    6.9502   -0.4695    6.5187 H   0  0  0  0  0  0  0  0  0  0  0  0
    8.3478    0.6774    5.3933 C   0  0  0  0  0  0  0  0  0  0  0  0
    8.5910    1.3009    6.2383 H   0  0  0  0  0  0  0  0  0  0  0  0
   13.3461    2.0903    4.7042 Cl  0  0  0  0  0  0  0  0  0  0  0  0
   16.0458   -0.4506    2.4826 C   0  0  0  0  0  3  0  0  0  0  0  0
   16.4425   -0.4531    1.4736 H   0  0  0  0  0  0  0  0  0  0  0  0
   15.3688   -1.5161    3.1078 C   0  0  0  0  0  0  0  0  0  0  0  0
   15.1794   -2.4852    2.6642 H   0  0  0  0  0  0  0  0  0  0  0  0
   15.1335   -1.1625    4.4576 C   0  0  0  0  0  0  0  0  0  0  0  0
   14.7300   -1.8127    5.2247 H   0  0  0  0  0  0  0  0  0  0  0  0
   15.6985    0.1112    4.6811 C   0  0  0  0  0  3  0  0  0  0  0  0
   15.7884    0.6030    5.6421 H   0  0  0  0  0  0  0  0  0  0  0  0
   16.2705    0.5635    3.4612 C   0  0  2  0  0  0  0  0  0  0  0  0
   16.9417    1.8539    3.2228 C   0  0  0  0  0  0  0  0  0  0  0  0
   16.6533    2.9372    3.9550 C   0  0  0  0  0  0  0  0  0  0  0  0
   17.1532    3.8759    3.7932 H   0  0  0  0  0  0  0  0  0  0  0  0
   15.8867    2.9198    4.7109 H   0  0  0  0  0  0  0  0  0  0  0  0
   17.8416    1.8907    2.1492 N   0  0  0  0  0  0  0  0  0  0  0  0
   17.7412    2.9640    1.1869 C   0  0  0  0  0  0  0  0  0  0  0  0
   18.7114    3.4425    1.0345 H   0  0  0  0  0  0  0  0  0  0  0  0
   17.0297    3.7006    1.5481 H   0  0  0  0  0  0  0  0  0  0  0  0
   17.3697    2.5929    0.2264 H   0  0  0  0  0  0  0  0  0  0  0  0
   18.7662    0.8794    1.9609 C   0  0  0  0  0  0  0  0  0  0  0  0
   19.1356    0.0522    3.0293 C   0  0  0  0  0  0  0  0  0  0  0  0
   18.7014    0.2149    4.0037 H   0  0  0  0  0  0  0  0  0  0  0  0
   20.0602   -0.9558    2.8548 C   0  0  0  0  0  0  0  0  0  0  0  0
   20.3259   -1.5815    3.6945 H   0  0  0  0  0  0  0  0  0  0  0  0
   20.6596   -1.1600    1.6221 C   0  0  0  0  0  0  0  0  0  0  0  0
   21.3864   -1.9469    1.4900 H   0  0  0  0  0  0  0  0  0  0  0  0
   20.3230   -0.3309    0.5669 C   0  0  0  0  0  0  0  0  0  0  0  0
   20.7889   -0.4695   -0.3984 H   0  0  0  0  0  0  0  0  0  0  0  0
   19.3914    0.6775    0.7270 C   0  0  0  0  0  0  0  0  0  0  0  0
   19.1481    1.3010   -0.1180 H   0  0  0  0  0  0  0  0  0  0  0  0
  1 41  1  0  0  0  0
  1 32  1  0  0  0  0
  2  1  1  0  0  0  0
  3  4  1  0  0  0  0
  5  6  1  0  0  0  0
  5  3  2  0  0  0  0
  7  5  1  0  0  0  0
  8  7  1  0  0  0  0
  9  7  2  0  0  0  0
  9 11  1  0  0  0  0
 10  9  1  0  0  0  0
 11 12  1  1  0  0  0
 11  1  1  0  0  0  0
 11  3  1  0  0  0  0
 12 16  1  0  0  0  0
 13 14  1  0  0  0  0
 13 12  2  0  0  0  0
 15 13  1  0  0  0  0
 16 21  1  0  0  0  0
 16 17  1  0  0  0  0
 17 18  1  0  0  0  0
 17 20  1  0  0  0  0
 19 17  1  0  0  0  0
 21 30  1  0  0  0  0
 22 24  1  0  0  0  0
 22 21  2  0  0  0  0
 23 22  1  0  0  0  0
 24 26  2  0  0  0  0
 25 24  1  0  0  0  0
 26 27  1  0  0  0  0
 26 28  1  0  0  0  0
 28 29  1  0  0  0  0
 30 28  2  0  0  0  0
 30 31  1  0  0  0  0
 33 35  1  0  0  0  0
 33 41  1  0  0  0  0
 34 33  1  0  0  0  0
 35 37  2  0  0  0  0
 36 35  1  0  0  0  0
 37 39  1  0  0  0  0
 37 38  1  0  0  0  0
 39 40  1  0  0  0  0
 41 42  1  6  0  0  0
 41 39  1  0  0  0  0
 42 43  2  0  0  0  0
 43 45  1  0  0  0  0
 44 43  1  0  0  0  0
 46 42  1  0  0  0  0
 47 49  1  0  0  0  0
 47 46  1  0  0  0  0
 48 47  1  0  0  0  0
 50 47  1  0  0  0  0
 51 46  1  0  0  0  0
 51 52  1  0  0  0  0
 52 53  1  0  0  0  0
 54 52  2  0  0  0  0
 54 55  1  0  0  0  0
 56 54  1  0  0  0  0
 57 56  1  0  0  0  0
 58 60  1  0  0  0  0
 58 56  2  0  0  0  0
 59 58  1  0  0  0  0
 60 51  2  0  0  0  0
 61 60  1  0  0  0  0
M  END
$$$$
