CSD_code = FOJLAS | q = 0 | S = 0 | Stoichiometry = C19H24AgClN4 | MND = 2
 OpenBabel04212202033D

 49 51  0  0  1  0  0  0  0  0999 V2000
    1.4979   12.8033    3.4482 Ag  0  0  0  0  0  0  0  0  0  0  0  0
    1.1419   10.8035    4.4648 Cl  0  0  0  0  0  0  0  0  0  0  0  0
    2.3417   14.9408    1.3498 N   0  0  0  0  0  0  0  0  0  0  0  0
    2.0219   15.9376    3.2118 N   0  0  0  0  0  0  0  0  0  0  0  0
   -0.1041   14.0008    0.3805 N   0  0  0  0  0  0  0  0  0  0  0  0
   -0.2714   13.1524    1.4075 N   0  0  0  0  0  0  0  0  0  0  0  0
    2.0588   14.7159    2.6497 C   0  0  1  0  0  3  0  0  0  0  0  0
    2.2752   16.9132    2.2848 C   0  0  0  0  0  0  0  0  0  0  0  0
    2.3023   17.9534    2.5383 H   0  0  0  0  0  0  0  0  0  0  0  0
    2.4750   16.2820    1.1040 C   0  0  0  0  0  0  0  0  0  0  0  0
    2.7109   16.6728    0.1352 H   0  0  0  0  0  0  0  0  0  0  0  0
    2.3521   13.9048    0.3576 C   0  0  0  0  0  0  0  0  0  0  0  0
    2.4214   12.9501    0.8914 H   0  0  0  0  0  0  0  0  0  0  0  0
    3.2111   14.0202   -0.3087 H   0  0  0  0  0  0  0  0  0  0  0  0
    1.0556   13.9284   -0.4670 C   0  0  0  0  0  0  0  0  0  0  0  0
    1.0431   14.7988   -1.1265 H   0  0  0  0  0  0  0  0  0  0  0  0
    1.0154   13.0200   -1.0782 H   0  0  0  0  0  0  0  0  0  0  0  0
   -1.1688   14.8305    0.2445 C   0  0  0  0  0  0  0  0  0  0  0  0
   -2.0590   14.4825    1.2352 C   0  0  0  0  0  0  0  0  0  0  0  0
   -3.0130   14.9274    1.4320 H   0  0  0  0  0  0  0  0  0  0  0  0
   -1.4533   13.4242    1.9370 C   0  0  0  0  0  0  0  0  0  0  0  0
   -1.2624   15.8893   -0.7944 C   0  0  0  0  0  0  0  0  0  0  0  0
   -0.4493   16.6101   -0.6960 H   0  0  0  0  0  0  0  0  0  0  0  0
   -2.2038   16.4189   -0.6788 H   0  0  0  0  0  0  0  0  0  0  0  0
   -1.2286   15.4625   -1.7969 H   0  0  0  0  0  0  0  0  0  0  0  0
   -1.9937   12.6648    3.0916 C   0  0  0  0  0  0  0  0  0  0  0  0
   -1.1915   12.0991    3.5654 H   0  0  0  0  0  0  0  0  0  0  0  0
   -2.7566   11.9641    2.7542 H   0  0  0  0  0  0  0  0  0  0  0  0
   -2.4450   13.3390    3.8169 H   0  0  0  0  0  0  0  0  0  0  0  0
    1.7124   16.1800    4.5767 C   0  0  0  0  0  0  0  0  0  0  0  0
    2.6986   16.0085    5.5479 C   0  0  0  0  0  0  0  0  0  0  0  0
    2.3716   16.2723    6.8684 C   0  0  0  0  0  0  0  0  0  0  0  0
    3.1238   16.1414    7.6325 H   0  0  0  0  0  0  0  0  0  0  0  0
    1.0992   16.6921    7.2319 C   0  0  0  0  0  0  0  0  0  0  0  0
    0.1366   16.8424    6.2440 C   0  0  0  0  0  0  0  0  0  0  0  0
   -0.8605   17.1566    6.5169 H   0  0  0  0  0  0  0  0  0  0  0  0
    0.4218   16.5879    4.9115 C   0  0  0  0  0  0  0  0  0  0  0  0
    4.0658   15.5317    5.1661 C   0  0  0  0  0  0  0  0  0  0  0  0
    4.4767   16.1270    4.3511 H   0  0  0  0  0  0  0  0  0  0  0  0
    4.0109   14.4938    4.8302 H   0  0  0  0  0  0  0  0  0  0  0  0
    4.7411   15.5838    6.0154 H   0  0  0  0  0  0  0  0  0  0  0  0
   -0.6292   16.7246    3.8518 C   0  0  0  0  0  0  0  0  0  0  0  0
   -0.7331   15.7882    3.3031 H   0  0  0  0  0  0  0  0  0  0  0  0
   -0.3674   17.5047    3.1363 H   0  0  0  0  0  0  0  0  0  0  0  0
   -1.5886   16.9738    4.2965 H   0  0  0  0  0  0  0  0  0  0  0  0
    0.7679   16.9452    8.6699 C   0  0  0  0  0  0  0  0  0  0  0  0
   -0.0997   17.5937    8.7630 H   0  0  0  0  0  0  0  0  0  0  0  0
    1.6094   17.4008    9.1872 H   0  0  0  0  0  0  0  0  0  0  0  0
    0.5415   16.0010    9.1657 H   0  0  0  0  0  0  0  0  0  0  0  0
  1  2  1  0  0  0  0
  3  7  1  0  0  0  0
  4 30  1  0  0  0  0
  5  6  1  0  0  0  0
  6 21  2  0  0  0  0
  7  4  1  0  0  0  0
  7  1  1  6  0  0  0
  8  9  1  0  0  0  0
  8  4  1  0  0  0  0
 10  3  1  0  0  0  0
 10  8  2  0  0  0  0
 11 10  1  0  0  0  0
 12 13  1  0  0  0  0
 12  3  1  0  0  0  0
 14 12  1  0  0  0  0
 15 12  1  0  0  0  0
 15  5  1  0  0  0  0
 16 15  1  0  0  0  0
 17 15  1  0  0  0  0
 18  5  1  0  0  0  0
 18 19  2  0  0  0  0
 19 20  1  0  0  0  0
 19 21  1  0  0  0  0
 21 26  1  0  0  0  0
 22 23  1  0  0  0  0
 22 24  1  0  0  0  0
 22 18  1  0  0  0  0
 25 22  1  0  0  0  0
 26 27  1  0  0  0  0
 26 29  1  0  0  0  0
 28 26  1  0  0  0  0
 30 37  2  0  0  0  0
 30 31  1  0  0  0  0
 31 32  2  0  0  0  0
 32 34  1  0  0  0  0
 32 33  1  0  0  0  0
 34 46  1  0  0  0  0
 35 36  1  0  0  0  0
 35 34  2  0  0  0  0
 37 35  1  0  0  0  0
 38 31  1  0  0  0  0
 38 41  1  0  0  0  0
 39 38  1  0  0  0  0
 40 38  1  0  0  0  0
 42 45  1  0  0  0  0
 42 37  1  0  0  0  0
 43 42  1  0  0  0  0
 44 42  1  0  0  0  0
 46 47  1  0  0  0  0
 46 49  1  0  0  0  0
 46 48  1  0  0  0  0
M  END
$$$$
