CSD_code = FOJLOG | q = 0 | S = 0 | Stoichiometry = C16H18BClZr | MND = 13
 OpenBabel04212202033D

 37 36  0  0  0  0  0  0  0  0999 V2000
    9.6547   10.5592   -3.4990 Zr  0  0  0  0  0  0  0  0  0  0  0  0
    8.1774   11.2515   -1.7601 Cl  0  0  0  0  0  0  0  0  0  0  0  0
   10.0000    8.1954   -3.2382 B   0  0  0  0  0  0  0  0  0  0  0  0
   10.6119    8.8862   -4.1366 H   0  0  0  0  0  0  0  0  0  0  0  0
    8.9035    8.7790   -2.9639 H   0  0  0  0  0  0  0  0  0  0  0  0
    9.7746    7.1192   -3.6794 H   0  0  0  0  0  0  0  0  0  0  0  0
   10.9154    8.1842   -1.9139 C   0  0  0  0  0  0  0  0  0  0  0  0
   12.1658    7.5602   -1.8971 C   0  0  0  0  0  0  0  0  0  0  0  0
   12.5082    7.0563   -2.7919 H   0  0  0  0  0  0  0  0  0  0  0  0
   12.9742    7.5693   -0.7744 C   0  0  0  0  0  0  0  0  0  0  0  0
   13.9373    7.0786   -0.7972 H   0  0  0  0  0  0  0  0  0  0  0  0
   12.5489    8.2039    0.3810 C   0  0  0  0  0  0  0  0  0  0  0  0
   13.1759    8.2126    1.2604 H   0  0  0  0  0  0  0  0  0  0  0  0
   11.3073    8.8150    0.4008 C   0  0  0  0  0  0  0  0  0  0  0  0
   10.9587    9.2975    1.3034 H   0  0  0  0  0  0  0  0  0  0  0  0
   10.5047    8.8064   -0.7305 C   0  0  0  0  0  0  0  0  0  0  0  0
    9.5157    9.2578   -0.6707 H   0  0  0  0  0  0  0  0  0  0  0  0
    8.8856    9.8450   -5.9543 C   0  0  0  0  0  0  0  0  0  0  0  0
    9.3404    9.0799   -6.5694 H   0  0  0  0  0  0  0  0  0  0  0  0
    9.2741   11.1957   -5.9004 C   0  0  0  0  0  0  0  0  0  0  0  0
   10.0332   11.6518   -6.5251 H   0  0  0  0  0  0  0  0  0  0  0  0
    8.3441   11.8843   -5.0714 C   0  0  0  0  0  0  0  0  0  0  0  0
    8.2642   12.9609   -4.9480 H   0  0  0  0  0  0  0  0  0  0  0  0
    7.3761   10.9415   -4.6484 C   0  0  0  0  0  0  0  0  0  0  0  0
    6.4765   11.1694   -4.0908 H   0  0  0  0  0  0  0  0  0  0  0  0
    7.7195    9.6896   -5.1802 C   0  0  0  0  0  3  0  0  0  0  0  0
    7.1406    8.7807   -5.0862 H   0  0  0  0  0  0  0  0  0  0  0  0
   11.2953   11.6676   -1.9814 C   0  0  0  0  0  0  0  0  0  0  0  0
   11.2505   11.5593   -0.9045 H   0  0  0  0  0  0  0  0  0  0  0  0
   12.0857   10.8981   -2.8619 C   0  0  0  0  0  0  0  0  0  0  0  0
   12.7624   10.1037   -2.5739 H   0  0  0  0  0  0  0  0  0  0  0  0
   11.9756   11.4604   -4.1525 C   0  0  0  0  0  0  0  0  0  0  0  0
   12.5497   11.1606   -5.0213 H   0  0  0  0  0  0  0  0  0  0  0  0
   11.1436   12.5971   -4.0623 C   0  0  0  0  0  0  0  0  0  0  0  0
   10.9835   13.3303   -4.8433 H   0  0  0  0  0  0  0  0  0  0  0  0
   10.7107   12.7186   -2.7271 C   0  0  0  0  0  3  0  0  0  0  0  0
   10.1343   13.5393   -2.3154 H   0  0  0  0  0  0  0  0  0  0  0  0
  1  2  1  0  0  0  0
  3  5  1  0  0  0  0
  3  7  1  0  0  0  0
  4  3  1  0  0  0  0
  6  3  1  0  0  0  0
  7  8  2  0  0  0  0
  7 16  1  0  0  0  0
  8 10  1  0  0  0  0
  9  8  1  0  0  0  0
 10 12  2  0  0  0  0
 11 10  1  0  0  0  0
 12 14  1  0  0  0  0
 12 13  1  0  0  0  0
 14 15  1  0  0  0  0
 16 17  1  0  0  0  0
 16 14  2  0  0  0  0
 18 20  2  0  0  0  0
 18 26  1  0  0  0  0
 19 18  1  0  0  0  0
 20 22  1  0  0  0  0
 21 20  1  0  0  0  0
 22 23  1  0  0  0  0
 22 24  2  0  0  0  0
 24 25  1  0  0  0  0
 26 27  1  0  0  0  0
 26 24  1  0  0  0  0
 28 29  1  0  0  0  0
 30 31  1  0  0  0  0
 30 28  2  0  0  0  0
 32 34  2  0  0  0  0
 32 30  1  0  0  0  0
 33 32  1  0  0  0  0
 34 36  1  0  0  0  0
 35 34  1  0  0  0  0
 36 37  1  0  0  0  0
 36 28  1  0  0  0  0
M  END
$$$$
