CSD_code = FOJNOJ | q = 0 | S = 0 | Stoichiometry = C15H23Br2CdN5 | MND = 4
 OpenBabel04212202033D

 46 49  0  0  1  0  0  0  0  0999 V2000
    7.9867    4.0251    9.0814 Cd  0  0  0  0  0  0  0  0  0  0  0  0
    9.3271    1.9690    9.3456 Br  0  0  0  0  0  0  0  0  0  0  0  0
    8.0820    6.2957    8.0260 Br  0  0  0  0  0  0  0  0  0  0  0  0
    5.7361    3.2441    8.7744 N   0  0  2  0  0  0  0  0  0  0  0  0
    4.5689    3.8773    8.9363 N   0  0  0  0  0  0  0  0  0  0  0  0
    5.4912    1.9504    8.9248 C   0  0  0  0  0  3  0  0  0  0  0  0
    6.2811    1.2267    8.8398 H   0  0  0  0  0  0  0  0  0  0  0  0
    4.1354    1.7380    9.1818 C   0  0  0  0  0  0  0  0  0  0  0  0
    3.6398    0.8037    9.3422 H   0  0  0  0  0  0  0  0  0  0  0  0
    3.5798    2.9963    9.1769 C   0  0  0  0  0  0  0  0  0  0  0  0
    2.5647    3.3085    9.3144 H   0  0  0  0  0  0  0  0  0  0  0  0
    4.4535    5.3298    8.8422 C   0  0  0  0  0  0  0  0  0  0  0  0
    5.3433    5.6933    8.3194 H   0  0  0  0  0  0  0  0  0  0  0  0
    3.5691    5.5489    8.2338 H   0  0  0  0  0  0  0  0  0  0  0  0
    5.5156    6.2688   10.8439 C   0  0  0  0  0  0  0  0  0  0  0  0
    5.3310    7.1044   11.5246 H   0  0  0  0  0  0  0  0  0  0  0  0
    6.3206    6.5462   10.1569 H   0  0  0  0  0  0  0  0  0  0  0  0
    5.9895    5.1499   11.6483 N   0  0  2  0  0  0  0  0  0  0  0  0
    6.9878    4.3553   11.2475 N   0  0  0  0  0  0  0  0  0  0  0  0
    5.5181    4.7545   12.8457 C   0  0  0  0  0  3  0  0  0  0  0  0
    4.7324    5.2833   13.3461 H   0  0  0  0  0  0  0  0  0  0  0  0
    6.2382    3.6471   13.2305 C   0  0  0  0  0  0  0  0  0  0  0  0
    6.1307    3.0747   14.1279 H   0  0  0  0  0  0  0  0  0  0  0  0
    7.1472    3.4389   12.1913 C   0  0  0  0  0  0  0  0  0  0  0  0
    7.8991    2.6770   12.0969 H   0  0  0  0  0  0  0  0  0  0  0  0
    4.3248    6.0230   10.0866 N   0  0  0  0  0  0  0  0  0  0  0  0
    3.0981    5.7874   10.8301 C   0  0  0  0  0  0  0  0  0  0  0  0
    2.3141    5.5854   10.0969 H   0  0  0  0  0  0  0  0  0  0  0  0
    3.1769    4.9050   11.4855 H   0  0  0  0  0  0  0  0  0  0  0  0
    2.6551    7.0030   11.6535 C   0  0  0  0  0  0  0  0  0  0  0  0
    3.3992    7.2186   12.4272 H   0  0  0  0  0  0  0  0  0  0  0  0
    2.5037    8.2382   10.7658 C   0  0  0  0  0  0  0  0  0  0  0  0
    1.7544    8.0356    9.9977 H   0  0  0  0  0  0  0  0  0  0  0  0
    3.4479    8.4494   10.2625 H   0  0  0  0  0  0  0  0  0  0  0  0
    2.0630    9.4415   11.5940 C   0  0  0  0  0  0  0  0  0  0  0  0
    1.9476   10.3119   10.9461 H   0  0  0  0  0  0  0  0  0  0  0  0
    2.8318    9.6769   12.3337 H   0  0  0  0  0  0  0  0  0  0  0  0
    0.7469    9.1455   12.3067 C   0  0  0  0  0  0  0  0  0  0  0  0
    0.4524   10.0010   12.9170 H   0  0  0  0  0  0  0  0  0  0  0  0
   -0.0367    8.9787   11.5643 H   0  0  0  0  0  0  0  0  0  0  0  0
    0.8817    7.9054   13.1852 C   0  0  0  0  0  0  0  0  0  0  0  0
   -0.0723    7.6844   13.6673 H   0  0  0  0  0  0  0  0  0  0  0  0
    1.6162    8.0960   13.9712 H   0  0  0  0  0  0  0  0  0  0  0  0
    1.3279    6.7056   12.3539 C   0  0  0  0  0  0  0  0  0  0  0  0
    0.5651    6.4826   11.6043 H   0  0  0  0  0  0  0  0  0  0  0  0
    1.4314    5.8267   12.9955 H   0  0  0  0  0  0  0  0  0  0  0  0
  1  2  1  0  0  0  0
  1 19  1  0  0  0  0
  3  1  1  0  0  0  0
  4  6  1  1  0  0  0
  4  5  1  0  0  0  0
  4  1  1  0  0  0  0
  5 10  1  0  0  0  0
  6  8  1  0  0  0  0
  7  6  1  0  0  0  0
  8  9  1  0  0  0  0
 10  8  2  0  0  0  0
 10 11  1  0  0  0  0
 12  5  1  0  0  0  0
 12 26  1  0  0  0  0
 13 12  1  0  0  0  0
 14 12  1  0  0  0  0
 15 16  1  0  0  0  0
 15 18  1  0  0  0  0
 17 15  1  0  0  0  0
 18 20  1  6  0  0  0
 19 18  1  0  0  0  0
 19 24  1  0  0  0  0
 20 22  1  0  0  0  0
 20 21  1  0  0  0  0
 22 23  1  0  0  0  0
 24 22  2  0  0  0  0
 25 24  1  0  0  0  0
 26 27  1  0  0  0  0
 26 15  1  0  0  0  0
 27 29  1  0  0  0  0
 27 30  1  0  0  0  0
 28 27  1  0  0  0  0
 30 44  1  0  0  0  0
 30 31  1  0  0  0  0
 32 35  1  0  0  0  0
 32 30  1  0  0  0  0
 33 32  1  0  0  0  0
 34 32  1  0  0  0  0
 35 38  1  0  0  0  0
 35 37  1  0  0  0  0
 36 35  1  0  0  0  0
 38 39  1  0  0  0  0
 38 41  1  0  0  0  0
 40 38  1  0  0  0  0
 41 42  1  0  0  0  0
 41 43  1  0  0  0  0
 44 46  1  0  0  0  0
 44 41  1  0  0  0  0
 45 44  1  0  0  0  0
M  END
$$$$
