CSD_code = FOJWAD | q = 0 | S = 0 | Stoichiometry = C23H38ClIrN4O | MND = 6
 OpenBabel04212202033D

 68 71  0  0  1  0  0  0  0  0999 V2000
    0.5894    6.6372   11.3792 Ir  0  0  0  0  0  0  0  0  0  0  0  0
    2.4900    5.0229   11.0232 Cl  0  0  0  0  0  0  0  0  0  0  0  0
    0.2069    6.5305    8.3823 O   0  0  0  0  0  1  0  0  0  0  0  0
    0.1928    4.8481   13.6016 N   0  0  0  0  0  0  0  0  0  0  0  0
   -0.1886    4.9555   12.3170 C   0  0  2  0  0  3  0  0  0  0  0  0
   -0.9129    3.8369   12.0541 N   0  0  0  0  0  0  0  0  0  0  0  0
   -0.2649    3.6875   14.1457 C   0  0  0  0  0  0  0  0  0  0  0  0
   -0.0736    3.3912   15.1558 H   0  0  0  0  0  0  0  0  0  0  0  0
    0.4357    9.4966   11.0745 N   0  0  0  0  0  0  0  0  0  0  0  0
   -0.9597    3.0523   13.1770 C   0  0  0  0  0  0  0  0  0  0  0  0
   -1.4671    2.1143   13.2274 H   0  0  0  0  0  0  0  0  0  0  0  0
    2.4853    9.1602   10.4998 N   0  0  0  0  0  0  0  0  0  0  0  0
    1.0601    5.8106   14.2760 C   0  0  0  0  0  0  0  0  0  0  0  0
    1.2826    7.0067   13.3327 C   0  0  0  0  0  0  0  0  0  0  0  0
    0.8315    7.8910   13.7999 H   0  0  0  0  0  0  0  0  0  0  0  0
    2.3570    7.2142   13.3262 H   0  0  0  0  0  0  0  0  0  0  0  0
    2.3833    5.1001   14.5795 C   0  0  0  0  0  0  0  0  0  0  0  0
    2.2296    4.2200   15.2024 H   0  0  0  0  0  0  0  0  0  0  0  0
    3.0567    5.7771   15.0991 H   0  0  0  0  0  0  0  0  0  0  0  0
    2.8484    4.7919   13.6457 H   0  0  0  0  0  0  0  0  0  0  0  0
    0.3763    6.2439   15.5779 C   0  0  0  0  0  0  0  0  0  0  0  0
   -0.6111    6.6511   15.3672 H   0  0  0  0  0  0  0  0  0  0  0  0
    0.9731    7.0128   16.0621 H   0  0  0  0  0  0  0  0  0  0  0  0
    0.2682    5.4126   16.2725 H   0  0  0  0  0  0  0  0  0  0  0  0
   -1.5082    3.4516   10.7691 C   0  0  0  0  0  0  0  0  0  0  0  0
   -0.3822    3.1783    9.7696 C   0  0  0  0  0  0  0  0  0  0  0  0
    0.3132    4.0107    9.7365 H   0  0  0  0  0  0  0  0  0  0  0  0
   -0.7896    3.0205    8.7750 H   0  0  0  0  0  0  0  0  0  0  0  0
    0.1759    2.2925   10.0653 H   0  0  0  0  0  0  0  0  0  0  0  0
   -2.4346    4.5699   10.2856 C   0  0  0  0  0  0  0  0  0  0  0  0
   -3.1938    4.7778   11.0369 H   0  0  0  0  0  0  0  0  0  0  0  0
   -2.9278    4.2686    9.3655 H   0  0  0  0  0  0  0  0  0  0  0  0
   -1.8710    5.4770   10.0984 H   0  0  0  0  0  0  0  0  0  0  0  0
   -2.3476    2.1784   10.9180 C   0  0  0  0  0  0  0  0  0  0  0  0
   -1.7366    1.3257   11.2039 H   0  0  0  0  0  0  0  0  0  0  0  0
   -2.7994    1.9504    9.9558 H   0  0  0  0  0  0  0  0  0  0  0  0
   -3.1479    2.3127   11.6427 H   0  0  0  0  0  0  0  0  0  0  0  0
    1.3496    8.5219   10.8730 C   0  0  1  0  0  3  0  0  0  0  0  0
    0.9796   10.7232   10.8414 C   0  0  0  0  0  0  0  0  0  0  0  0
    0.4390   11.6408   10.9395 H   0  0  0  0  0  0  0  0  0  0  0  0
    2.2663   10.5127   10.4889 C   0  0  0  0  0  0  0  0  0  0  0  0
    3.0120   11.2353   10.2420 H   0  0  0  0  0  0  0  0  0  0  0  0
   -0.9728    9.2451   11.3577 C   0  0  0  0  0  0  0  0  0  0  0  0
   -1.1234    7.7989   11.8483 C   0  0  0  0  0  0  0  0  0  0  0  0
   -2.0440    7.3900   11.4255 H   0  0  0  0  0  0  0  0  0  0  0  0
   -1.2692    7.8135   12.9298 H   0  0  0  0  0  0  0  0  0  0  0  0
   -1.7462    9.4662   10.0514 C   0  0  0  0  0  0  0  0  0  0  0  0
   -1.5704   10.4670    9.6604 H   0  0  0  0  0  0  0  0  0  0  0  0
   -2.8120    9.3449   10.2245 H   0  0  0  0  0  0  0  0  0  0  0  0
   -1.4291    8.7419    9.3049 H   0  0  0  0  0  0  0  0  0  0  0  0
   -1.4598   10.2299   12.4263 C   0  0  0  0  0  0  0  0  0  0  0  0
   -0.8031   10.1961   13.2927 H   0  0  0  0  0  0  0  0  0  0  0  0
   -2.4628    9.9528   12.7400 H   0  0  0  0  0  0  0  0  0  0  0  0
   -1.4949   11.2507   12.0519 H   0  0  0  0  0  0  0  0  0  0  0  0
    3.7629    8.5495   10.0988 C   0  0  0  0  0  0  0  0  0  0  0  0
    4.7353    9.6241    9.6016 C   0  0  0  0  0  0  0  0  0  0  0  0
    4.3293   10.1681    8.7510 H   0  0  0  0  0  0  0  0  0  0  0  0
    5.6485    9.1327    9.2759 H   0  0  0  0  0  0  0  0  0  0  0  0
    5.0014   10.3229   10.3921 H   0  0  0  0  0  0  0  0  0  0  0  0
    4.3844    7.8429   11.3024 C   0  0  0  0  0  0  0  0  0  0  0  0
    4.4452    8.5199   12.1528 H   0  0  0  0  0  0  0  0  0  0  0  0
    5.3859    7.5039   11.0528 H   0  0  0  0  0  0  0  0  0  0  0  0
    3.7945    6.9734   11.5715 H   0  0  0  0  0  0  0  0  0  0  0  0
    3.5011    7.5666    8.9574 C   0  0  0  0  0  0  0  0  0  0  0  0
    2.9522    6.7038    9.3187 H   0  0  0  0  0  0  0  0  0  0  0  0
    4.4449    7.2139    8.5514 H   0  0  0  0  0  0  0  0  0  0  0  0
    2.9342    8.0454    8.1610 H   0  0  0  0  0  0  0  0  0  0  0  0
    0.1904    6.4452    9.5313 C   0  0  0  0  0  2  0  0  0  0  0  0
  1 44  1  0  0  0  0
  1  5  1  0  0  0  0
  1 14  1  0  0  0  0
  2  1  1  0  0  0  0
  3 68  1  0  0  0  0
  4  7  1  0  0  0  0
  4 13  1  0  0  0  0
  5  6  1  6  0  0  0
  5  4  1  0  0  0  0
  6 10  1  0  0  0  0
  7  8  1  0  0  0  0
  9 43  1  0  0  0  0
 10 11  1  0  0  0  0
 10  7  2  0  0  0  0
 13 17  1  0  0  0  0
 13 21  1  0  0  0  0
 14 15  1  0  0  0  0
 14 13  1  0  0  0  0
 16 14  1  0  0  0  0
 17 19  1  0  0  0  0
 17 18  1  0  0  0  0
 20 17  1  0  0  0  0
 21 23  1  0  0  0  0
 21 24  1  0  0  0  0
 22 21  1  0  0  0  0
 25 34  1  0  0  0  0
 25  6  1  0  0  0  0
 26 29  1  0  0  0  0
 26 25  1  0  0  0  0
 27 26  1  0  0  0  0
 28 26  1  0  0  0  0
 30 25  1  0  0  0  0
 30 31  1  0  0  0  0
 32 30  1  0  0  0  0
 33 30  1  0  0  0  0
 34 35  1  0  0  0  0
 34 37  1  0  0  0  0
 36 34  1  0  0  0  0
 38 12  1  1  0  0  0
 38  9  1  0  0  0  0
 38  1  1  0  0  0  0
 39 40  1  0  0  0  0
 39  9  1  0  0  0  0
 41 12  1  0  0  0  0
 41 39  2  0  0  0  0
 42 41  1  0  0  0  0
 43 44  1  0  0  0  0
 43 51  1  0  0  0  0
 44 46  1  0  0  0  0
 45 44  1  0  0  0  0
 47 49  1  0  0  0  0
 47 43  1  0  0  0  0
 48 47  1  0  0  0  0
 50 47  1  0  0  0  0
 51 53  1  0  0  0  0
 51 52  1  0  0  0  0
 54 51  1  0  0  0  0
 55 12  1  0  0  0  0
 55 60  1  0  0  0  0
 56 55  1  0  0  0  0
 56 59  1  0  0  0  0
 57 56  1  0  0  0  0
 58 56  1  0  0  0  0
 60 63  1  0  0  0  0
 60 61  1  0  0  0  0
 62 60  1  0  0  0  0
 64 65  1  0  0  0  0
 64 55  1  0  0  0  0
 66 64  1  0  0  0  0
 67 64  1  0  0  0  0
 68  1  1  0  0  0  0
M  END
$$$$
