CSD_code = FOJXAE | q = 0 | S = 0 | Stoichiometry = C15H18BCl2HfN | MND = 12
 OpenBabel04212202033D

 38 41  0  0  1  0  0  0  0  0999 V2000
    3.8606    7.8288    2.9306 Hf  0  0  0  0  0  0  0  0  0  0  0  0
    3.7731    7.9770   -0.0580 B   0  0  0  0  0  0  0  0  0  0  0  0
    3.9119    9.5388    4.4828 Cl  0  0  0  0  0  0  0  0  0  0  0  0
    3.9048    6.2251    4.5913 Cl  0  0  0  0  0  0  0  0  0  0  0  0
    3.7342    8.2205   -1.4062 N   0  0  0  0  0  0  0  0  0  0  0  0
    4.9117    8.4070   -2.2332 C   0  0  0  0  0  0  0  0  0  0  0  0
    4.8819    7.6921   -3.0643 H   0  0  0  0  0  0  0  0  0  0  0  0
    5.7986    8.2086   -1.6306 H   0  0  0  0  0  0  0  0  0  0  0  0
    4.9466    9.8314   -2.7882 C   0  0  0  0  0  0  0  0  0  0  0  0
    5.8285    9.9572   -3.4171 H   0  0  0  0  0  0  0  0  0  0  0  0
    5.0175   10.5333   -1.9553 H   0  0  0  0  0  0  0  0  0  0  0  0
    3.6759   10.1103   -3.5866 C   0  0  0  0  0  0  0  0  0  0  0  0
    3.6483    9.4605   -4.4645 H   0  0  0  0  0  0  0  0  0  0  0  0
    3.6688   11.1442   -3.9347 H   0  0  0  0  0  0  0  0  0  0  0  0
    2.4524    9.8388   -2.7153 C   0  0  0  0  0  0  0  0  0  0  0  0
    2.4343   10.5412   -1.8799 H   0  0  0  0  0  0  0  0  0  0  0  0
    1.5361    9.9697   -3.2916 H   0  0  0  0  0  0  0  0  0  0  0  0
    2.5112    8.4142   -2.1627 C   0  0  0  0  0  0  0  0  0  0  0  0
    1.6601    8.2214   -1.5088 H   0  0  0  0  0  0  0  0  0  0  0  0
    2.4877    7.6991   -2.9938 H   0  0  0  0  0  0  0  0  0  0  0  0
    5.5615    8.9639    1.6128 C   0  0  0  0  0  3  0  0  0  0  0  0
    5.4889   10.0064    1.3272 H   0  0  0  0  0  0  0  0  0  0  0  0
    6.3484    8.4611    2.6782 C   0  0  0  0  0  0  0  0  0  0  0  0
    6.9645    9.0522    3.3408 H   0  0  0  0  0  0  0  0  0  0  0  0
    6.2965    7.0582    2.6327 C   0  0  0  0  0  0  0  0  0  0  0  0
    6.8706    6.3822    3.2503 H   0  0  0  0  0  0  0  0  0  0  0  0
    5.4691    6.6843    1.5444 C   0  0  0  0  0  3  0  0  0  0  0  0
    5.3314    5.6718    1.1844 H   0  0  0  0  0  0  0  0  0  0  0  0
    5.0474    7.8656    0.8656 C   0  0  1  0  0  0  0  0  0  0  0  0
    2.5548    7.8732    0.9390 C   0  0  1  0  0  0  0  0  0  0  0  0
    2.1663    6.6944    1.6416 C   0  0  0  0  0  3  0  0  0  0  0  0
    2.2765    5.6812    1.2743 H   0  0  0  0  0  0  0  0  0  0  0  0
    1.4069    7.0732    2.7767 C   0  0  0  0  0  0  0  0  0  0  0  0
    0.8658    6.4006    3.4271 H   0  0  0  0  0  0  0  0  0  0  0  0
    1.3664    8.4764    2.8250 C   0  0  0  0  0  0  0  0  0  0  0  0
    0.7941    9.0712    3.5227 H   0  0  0  0  0  0  0  0  0  0  0  0
    2.0923    8.9746    1.7151 C   0  0  0  0  0  3  0  0  0  0  0  0
    2.1544   10.0167    1.4256 H   0  0  0  0  0  0  0  0  0  0  0  0
  1  3  1  0  0  0  0
  1  4  1  0  0  0  0
  2 29  1  0  0  0  0
  2 30  1  0  0  0  0
  5  2  1  0  0  0  0
  6  8  1  0  0  0  0
  6  5  1  0  0  0  0
  7  6  1  0  0  0  0
  9  6  1  0  0  0  0
  9 11  1  0  0  0  0
 10  9  1  0  0  0  0
 12  9  1  0  0  0  0
 12 15  1  0  0  0  0
 13 12  1  0  0  0  0
 14 12  1  0  0  0  0
 15 18  1  0  0  0  0
 15 16  1  0  0  0  0
 17 15  1  0  0  0  0
 18 19  1  0  0  0  0
 18  5  1  0  0  0  0
 20 18  1  0  0  0  0
 21 23  1  0  0  0  0
 22 21  1  0  0  0  0
 23 24  1  0  0  0  0
 25 23  2  0  0  0  0
 25 26  1  0  0  0  0
 27 25  1  0  0  0  0
 28 27  1  0  0  0  0
 29 27  1  6  0  0  0
 29 21  1  0  0  0  0
 29  1  1  0  0  0  0
 30 31  1  6  0  0  0
 30 37  1  0  0  0  0
 30  1  1  0  0  0  0
 31 33  1  0  0  0  0
 32 31  1  0  0  0  0
 33 35  2  0  0  0  0
 33 34  1  0  0  0  0
 35 36  1  0  0  0  0
 37 35  1  0  0  0  0
 38 37  1  0  0  0  0
M  END
$$$$
