CSD_code = FOJYEJ | q = 0 | S = 0 | Stoichiometry = C30H32ClN2Rh | MND = 6
 OpenBabel04212202033D

 66 69  0  0  1  0  0  0  0  0999 V2000
    9.6921    5.8073    4.2204 Rh  0  0  0  0  0  0  0  0  0  0  0  0
    9.6853    4.9941    6.3708 Cl  0  0  0  0  0 15  0  0  0  0  0  0
    6.9680    7.1132    4.6382 N   0  0  0  0  0  0  0  0  0  0  0  0
    7.2228    8.4688    6.3243 N   0  0  0  0  0  0  0  0  0  0  0  0
    8.3063    7.0737    4.8938 C   0  0  0  0  0  0  0  0  0  0  0  0
    6.3068    7.9524    5.4892 C   0  0  1  0  0  3  0  0  0  0  0  0
    7.0886    9.2785    7.4178 C   0  0  0  0  0  0  0  0  0  0  0  0
    6.0888    9.5810    7.6849 H   0  0  0  0  0  0  0  0  0  0  0  0
    8.1894    9.6339    8.1283 C   0  0  0  0  0  0  0  0  0  0  0  0
    8.0728   10.2721    8.9897 H   0  0  0  0  0  0  0  0  0  0  0  0
    9.4750    9.1719    7.7660 C   0  0  0  0  0  0  0  0  0  0  0  0
   10.3305    9.4741    8.3472 H   0  0  0  0  0  0  0  0  0  0  0  0
    9.6070    8.3243    6.7027 C   0  0  0  0  0  0  0  0  0  0  0  0
   10.5546    7.9024    6.4023 H   0  0  0  0  0  0  0  0  0  0  0  0
    8.4703    7.9473    5.9778 C   0  0  0  0  0  0  0  0  0  0  0  0
    6.3503    6.4984    3.5142 C   0  0  0  0  0  0  0  0  0  0  0  0
    6.1941    5.1117    3.4719 C   0  0  0  0  0  0  0  0  0  0  0  0
    5.5980    4.5494    2.3516 C   0  0  0  0  0  0  0  0  0  0  0  0
    5.4735    3.4768    2.3114 H   0  0  0  0  0  0  0  0  0  0  0  0
    5.1627    5.3264    1.2903 C   0  0  0  0  0  0  0  0  0  0  0  0
    5.3458    6.7013    1.3532 C   0  0  0  0  0  0  0  0  0  0  0  0
    5.0269    7.3166    0.5241 H   0  0  0  0  0  0  0  0  0  0  0  0
    5.9416    7.3047    2.4491 C   0  0  0  0  0  0  0  0  0  0  0  0
    6.6723    4.2544    4.5955 C   0  0  0  0  0  0  0  0  0  0  0  0
    6.3593    3.2226    4.4613 H   0  0  0  0  0  0  0  0  0  0  0  0
    6.3108    4.6138    5.5583 H   0  0  0  0  0  0  0  0  0  0  0  0
    7.7721    4.2885    4.6377 H   0  0  0  0  0  0  0  0  0  0  0  0
    4.5261    4.7071    0.0837 C   0  0  0  0  0  0  0  0  0  0  0  0
    3.5861    5.2043   -0.1496 H   0  0  0  0  0  0  0  0  0  0  0  0
    4.3335    3.6495    0.2436 H   0  0  0  0  0  0  0  0  0  0  0  0
    5.1806    4.8114   -0.7814 H   0  0  0  0  0  0  0  0  0  0  0  0
    6.1646    8.7875    2.4641 C   0  0  0  0  0  0  0  0  0  0  0  0
    5.3786    9.2887    3.0300 H   0  0  0  0  0  0  0  0  0  0  0  0
    6.1521    9.1787    1.4499 H   0  0  0  0  0  0  0  0  0  0  0  0
    7.1236    9.0326    2.9184 H   0  0  0  0  0  0  0  0  0  0  0  0
    4.8876    8.2426    5.4581 C   0  0  0  0  0  0  0  0  0  0  0  0
    4.4239    9.5502    5.6369 C   0  0  0  0  0  0  0  0  0  0  0  0
    5.1291   10.3568    5.7776 H   0  0  0  0  0  0  0  0  0  0  0  0
    3.0717    9.8266    5.5890 C   0  0  0  0  0  0  0  0  0  0  0  0
    2.7294   10.8417    5.7269 H   0  0  0  0  0  0  0  0  0  0  0  0
    2.1583    8.8119    5.3526 C   0  0  0  0  0  0  0  0  0  0  0  0
    1.1024    9.0322    5.3133 H   0  0  0  0  0  0  0  0  0  0  0  0
    2.6084    7.5156    5.1623 C   0  0  0  0  0  0  0  0  0  0  0  0
    1.9023    6.7204    4.9760 H   0  0  0  0  0  0  0  0  0  0  0  0
    3.9579    7.2280    5.2161 C   0  0  0  0  0  0  0  0  0  0  0  0
    4.2948    6.2124    5.0837 H   0  0  0  0  0  0  0  0  0  0  0  0
   10.3556    7.0925    2.6925 C   0  0  2  0  0  0  0  0  0  0  0  0
   10.0033    8.1136    2.8507 H   0  0  0  0  0  0  0  0  0  0  0  0
    9.4490    6.1806    2.1425 C   0  0  0  0  0  3  0  0  0  0  0  0
    8.4486    6.5503    1.9300 H   0  0  0  0  0  0  0  0  0  0  0  0
    9.8624    5.0166    1.2658 C   0  0  0  0  0  0  0  0  0  0  0  0
   10.7604    5.2871    0.7076 H   0  0  0  0  0  0  0  0  0  0  0  0
    9.0731    4.8292    0.5340 H   0  0  0  0  0  0  0  0  0  0  0  0
   10.0975    3.7289    2.0775 C   0  0  0  0  0  0  0  0  0  0  0  0
    9.1557    3.1776    2.1407 H   0  0  0  0  0  0  0  0  0  0  0  0
   10.8174    3.0834    1.5613 H   0  0  0  0  0  0  0  0  0  0  0  0
   10.5821    3.9915    3.4854 C   0  0  0  0  0  3  0  0  0  0  0  0
   10.3241    3.2055    4.1966 H   0  0  0  0  0  0  0  0  0  0  0  0
   11.6086    4.8467    3.8236 C   0  0  0  0  0  3  0  0  0  0  0  0
   12.0813    4.7126    4.7957 H   0  0  0  0  0  0  0  0  0  0  0  0
   12.4299    5.6103    2.8096 C   0  0  0  0  0  0  0  0  0  0  0  0
   12.4789    5.0358    1.8832 H   0  0  0  0  0  0  0  0  0  0  0  0
   13.4523    5.7109    3.1807 H   0  0  0  0  0  0  0  0  0  0  0  0
   11.8587    7.0152    2.5423 C   0  0  0  0  0  0  0  0  0  0  0  0
   12.3022    7.7183    3.2530 H   0  0  0  0  0  0  0  0  0  0  0  0
   12.1411    7.3515    1.5375 H   0  0  0  0  0  0  0  0  0  0  0  0
  1  5  1  0  0  0  0
  3  5  1  0  0  0  0
  3  6  1  0  0  0  0
  4  7  1  0  0  0  0
  5 15  2  0  0  0  0
  6 36  1  6  0  0  0
  6  4  1  0  0  0  0
  7  8  1  0  0  0  0
  7  9  2  0  0  0  0
  9 10  1  0  0  0  0
 11  9  1  0  0  0  0
 11 12  1  0  0  0  0
 13 11  2  0  0  0  0
 14 13  1  0  0  0  0
 15  4  1  0  0  0  0
 15 13  1  0  0  0  0
 16  3  1  0  0  0  0
 17 16  1  0  0  0  0
 17 24  1  0  0  0  0
 18 17  2  0  0  0  0
 19 18  1  0  0  0  0
 20 21  2  0  0  0  0
 20 18  1  0  0  0  0
 21 23  1  0  0  0  0
 22 21  1  0  0  0  0
 23 32  1  0  0  0  0
 23 16  2  0  0  0  0
 24 27  1  0  0  0  0
 24 26  1  0  0  0  0
 25 24  1  0  0  0  0
 28 30  1  0  0  0  0
 28 20  1  0  0  0  0
 29 28  1  0  0  0  0
 31 28  1  0  0  0  0
 32 35  1  0  0  0  0
 32 33  1  0  0  0  0
 34 32  1  0  0  0  0
 36 37  1  0  0  0  0
 37 38  1  0  0  0  0
 39 37  2  0  0  0  0
 39 40  1  0  0  0  0
 41 39  1  0  0  0  0
 42 41  1  0  0  0  0
 43 45  1  0  0  0  0
 43 41  2  0  0  0  0
 44 43  1  0  0  0  0
 45 36  2  0  0  0  0
 46 45  1  0  0  0  0
 47 48  1  1  0  0  0
 47  1  1  0  0  0  0
 49 47  1  0  0  0  0
 50 49  1  0  0  0  0
 51 54  1  0  0  0  0
 51 49  1  0  0  0  0
 52 51  1  0  0  0  0
 53 51  1  0  0  0  0
 54 55  1  0  0  0  0
 54 57  1  0  0  0  0
 56 54  1  0  0  0  0
 57 59  1  0  0  0  0
 57 58  1  0  0  0  0
 59 60  1  0  0  0  0
 61 63  1  0  0  0  0
 61 59  1  0  0  0  0
 62 61  1  0  0  0  0
 64 47  1  0  0  0  0
 64 61  1  0  0  0  0
 64 65  1  0  0  0  0
 66 64  1  0  0  0  0
M  END
$$$$
