CSD_code = FOKDIS | q = 0 | S = 0 | Stoichiometry = C9H11ClN4PdS | MND = 4
 OpenBabel04212202033D

 27 29  0  0  0  0  0  0  0  0999 V2000
    1.6901    1.3450    3.7269 Pd  0  0  2  0  0  0  0  0  0  0  0  0
    1.3002    2.3279    1.7882 Cl  0  0  0  0  0  0  0  0  0  0  0  0
    2.6274    3.1412    4.8125 S   0  0  0  0  0  0  0  0  0  0  0  0
    0.9306   -0.4967    3.1878 N   0  0  0  0  0  0  0  0  0  0  0  0
    1.9914    0.4038    5.3894 N   0  0  0  0  0  0  0  0  0  0  0  0
    2.5492    0.9825    6.4507 N   0  0  0  0  0  0  0  0  0  0  0  0
    3.4595    2.9208    7.2839 N   0  0  0  0  0  0  0  0  0  0  0  0
    0.4051   -0.8813    2.0340 C   0  0  0  0  0  0  0  0  0  0  0  0
   -0.0667   -2.1684    1.8295 C   0  0  0  0  0  0  0  0  0  0  0  0
    0.0181   -3.0820    2.8731 C   0  0  0  0  0  0  0  0  0  0  0  0
    0.5659   -2.6847    4.0767 C   0  0  0  0  0  0  0  0  0  0  0  0
    1.0244   -1.3696    4.2234 C   0  0  0  0  0  0  0  0  0  0  0  0
    1.6125   -0.8506    5.4364 C   0  0  0  0  0  0  0  0  0  0  0  0
    2.8815    2.2461    6.2838 C   0  0  0  0  0  0  0  0  0  0  0  0
    3.7414    2.3816    8.5877 C   0  0  0  0  0  0  0  0  0  0  0  0
    1.7774   -1.6930    6.6641 C   0  0  0  0  0  0  0  0  0  0  0  0
    0.3662   -0.1258    1.2569 H   0  0  0  0  0  0  0  0  0  0  0  0
   -0.4885   -2.4453    0.8775 H   0  0  0  0  0  0  0  0  0  0  0  0
   -0.3400   -4.0927    2.7466 H   0  0  0  0  0  0  0  0  0  0  0  0
    0.6437   -3.3747    4.9008 H   0  0  0  0  0  0  0  0  0  0  0  0
    3.6702    3.8914    7.1072 H   0  0  0  0  0  0  0  0  0  0  0  0
    0.8153   -2.0812    6.9950 H   0  0  0  0  0  0  0  0  0  0  0  0
    2.2053   -1.0808    7.4527 H   0  0  0  0  0  0  0  0  0  0  0  0
    2.4407   -2.5341    6.4663 H   0  0  0  0  0  0  0  0  0  0  0  0
    3.1139    2.8552    9.3467 H   0  0  0  0  0  0  0  0  0  0  0  0
    4.7895    2.5456    8.8434 H   0  0  0  0  0  0  0  0  0  0  0  0
    3.5347    1.3151    8.5648 H   0  0  0  0  0  0  0  0  0  0  0  0
  1  2  1  1  0  0  0
  1  3  1  0  0  0  0
  1  5  1  0  0  0  0
  3 14  1  0  0  0  0
  4  1  1  0  0  0  0
  4 12  1  0  0  0  0
  5 13  1  0  0  0  0
  5  6  1  0  0  0  0
  7 15  1  0  0  0  0
  8  4  1  0  0  0  0
  9  8  2  0  0  0  0
  9 10  1  0  0  0  0
 10 11  2  0  0  0  0
 11 12  1  0  0  0  0
 11 20  1  0  0  0  0
 12 13  2  0  0  0  0
 13 16  1  0  0  0  0
 14  6  2  0  0  0  0
 14  7  1  0  0  0  0
 15 26  1  0  0  0  0
 15 25  1  0  0  0  0
 16 22  1  0  0  0  0
 16 23  1  0  0  0  0
 17  8  1  0  0  0  0
 18  9  1  0  0  0  0
 19 10  1  0  0  0  0
 21  7  1  0  0  0  0
 24 16  1  0  0  0  0
 27 15  1  0  0  0  0
M  END
$$$$
