CSD_code = FOKDIU | q = 0 | S = 0 | Stoichiometry = C25H23ClN3PPdS2 | MND = 4
 OpenBabel04212202033D

 56 60  0  0  0  0  0  0  0  0999 V2000
    1.0040    0.7501   16.4229 Pd  0  0  1  0  0  0  0  0  0  0  0  0
   -0.2354    1.6493   14.6828 S   0  0  0  0  0  0  0  0  0  0  0  0
    2.2313   -0.2388   18.0879 Cl  0  0  0  0  0  0  0  0  0  0  0  0
   -3.4732   -1.5941   17.0518 S   0  0  0  0  0  0  0  0  0  0  0  0
    2.8961    1.8840   16.0865 P   0  0  0  0  0  4  0  0  0  0  0  0
   -0.6771   -0.3223   16.7966 N   0  0  0  0  0  0  0  0  0  0  0  0
   -2.6268    0.7229   14.0745 N   0  0  0  0  0  0  0  0  0  0  0  0
   -3.4921    0.2604   14.2942 H   0  0  0  0  0  0  0  0  0  0  0  0
   -2.6235    1.4817   13.4164 H   0  0  0  0  0  0  0  0  0  0  0  0
   -1.7210   -0.2009   15.9507 N   0  0  0  0  0  0  0  0  0  0  0  0
   -2.0957   -1.7500   18.1061 C   0  0  0  0  0  0  0  0  0  0  0  0
   -1.6148    0.6335   14.9626 C   0  0  0  0  0  0  0  0  0  0  0  0
    4.1991    0.6458   15.8413 C   0  0  0  0  0  0  0  0  0  0  0  0
    3.1163    3.0267   14.6848 C   0  0  0  0  0  0  0  0  0  0  0  0
   -3.6855   -3.0665   19.1493 C   0  0  0  0  0  0  0  0  0  0  0  0
   -4.0898   -3.7233   19.9000 H   0  0  0  0  0  0  0  0  0  0  0  0
   -2.3688   -2.5729   19.1866 C   0  0  0  0  0  0  0  0  0  0  0  0
    2.3158    3.0863   18.4811 C   0  0  0  0  0  0  0  0  0  0  0  0
    1.4062    2.4787   18.4151 H   0  0  0  0  0  0  0  0  0  0  0  0
    3.2742    2.9855   17.4763 C   0  0  0  0  0  0  0  0  0  0  0  0
    2.3210    5.0100   13.5849 C   0  0  0  0  0  0  0  0  0  0  0  0
    1.6291    5.8375   13.5305 H   0  0  0  0  0  0  0  0  0  0  0  0
    3.3019    4.8591   12.6160 C   0  0  0  0  0  0  0  0  0  0  0  0
    3.3746    5.5712   11.8072 H   0  0  0  0  0  0  0  0  0  0  0  0
   -1.3843   -2.8927   20.2611 C   0  0  0  0  0  0  0  0  0  0  0  0
   -0.4871   -3.3453   19.8410 H   0  0  0  0  0  0  0  0  0  0  0  0
   -1.8220   -3.5835   20.9771 H   0  0  0  0  0  0  0  0  0  0  0  0
   -1.0832   -1.9881   20.7885 H   0  0  0  0  0  0  0  0  0  0  0  0
    4.6182    4.6284   18.5923 C   0  0  0  0  0  0  0  0  0  0  0  0
    5.5086    5.2388   18.6347 H   0  0  0  0  0  0  0  0  0  0  0  0
   -0.8771   -1.0822   17.8328 C   0  0  0  0  0  3  0  0  0  0  0  0
   -0.0463   -1.2088   18.5175 H   0  0  0  0  0  0  0  0  0  0  0  0
    4.4153    3.7802   17.5191 C   0  0  0  0  0  0  0  0  0  0  0  0
    5.1289    3.7436   16.7072 H   0  0  0  0  0  0  0  0  0  0  0  0
    3.6786    4.7026   19.6087 C   0  0  0  0  0  0  0  0  0  0  0  0
    3.8442    5.3652   20.4454 H   0  0  0  0  0  0  0  0  0  0  0  0
    2.2271    4.0962   14.6153 C   0  0  0  0  0  0  0  0  0  0  0  0
    1.4575    4.1887   15.3732 H   0  0  0  0  0  0  0  0  0  0  0  0
   -4.3911   -2.6278   18.0697 C   0  0  0  0  0  0  0  0  0  0  0  0
   -5.4066   -2.8606   17.8159 H   0  0  0  0  0  0  0  0  0  0  0  0
    4.1834    3.7935   12.6795 C   0  0  0  0  0  0  0  0  0  0  0  0
    4.9439    3.6752   11.9212 H   0  0  0  0  0  0  0  0  0  0  0  0
    4.0938    2.8736   13.7106 C   0  0  0  0  0  0  0  0  0  0  0  0
    4.7789    2.0383   13.7577 H   0  0  0  0  0  0  0  0  0  0  0  0
    3.7746   -0.4622   15.1059 C   0  0  0  0  0  0  0  0  0  0  0  0
    2.7329   -0.5043   14.7597 H   0  0  0  0  0  0  0  0  0  0  0  0
    4.6500   -1.4977   14.8462 C   0  0  0  0  0  0  0  0  0  0  0  0
    4.3228   -2.3577   14.2807 H   0  0  0  0  0  0  0  0  0  0  0  0
    5.4938    0.6984   16.3355 C   0  0  0  0  0  0  0  0  0  0  0  0
    5.8129    1.5356   16.9382 H   0  0  0  0  0  0  0  0  0  0  0  0
    2.5221    3.9416   19.5481 C   0  0  0  0  0  0  0  0  0  0  0  0
    1.7836    4.0168   20.3324 H   0  0  0  0  0  0  0  0  0  0  0  0
    6.3646   -0.3476   16.0768 C   0  0  0  0  0  0  0  0  0  0  0  0
    7.3710   -0.3143   16.4680 H   0  0  0  0  0  0  0  0  0  0  0  0
    5.9488   -1.4368   15.3303 C   0  0  0  0  0  0  0  0  0  0  0  0
    6.6329   -2.2498   15.1371 H   0  0  0  0  0  0  0  0  0  0  0  0
  1  6  1  0  0  0  0
  1  3  1  6  0  0  0
  2 12  1  0  0  0  0
  2  1  1  0  0  0  0
  4 39  1  0  0  0  0
  4 11  1  0  0  0  0
  5  1  1  0  0  0  0
  5 20  1  0  0  0  0
  6 31  1  0  0  0  0
  7  8  1  0  0  0  0
  7 12  1  0  0  0  0
  9  7  1  0  0  0  0
 10  6  1  0  0  0  0
 11 17  2  0  0  0  0
 12 10  2  0  0  0  0
 13  5  1  0  0  0  0
 13 49  1  0  0  0  0
 14  5  1  0  0  0  0
 15 17  1  0  0  0  0
 15 16  1  0  0  0  0
 17 25  1  0  0  0  0
 18 51  1  0  0  0  0
 19 18  1  0  0  0  0
 20 33  1  0  0  0  0
 20 18  2  0  0  0  0
 21 37  2  0  0  0  0
 22 21  1  0  0  0  0
 23 41  2  0  0  0  0
 23 21  1  0  0  0  0
 24 23  1  0  0  0  0
 25 28  1  0  0  0  0
 25 27  1  0  0  0  0
 26 25  1  0  0  0  0
 29 30  1  0  0  0  0
 29 35  1  0  0  0  0
 31 11  1  0  0  0  0
 31 32  1  0  0  0  0
 33 29  2  0  0  0  0
 34 33  1  0  0  0  0
 35 36  1  0  0  0  0
 37 14  1  0  0  0  0
 37 38  1  0  0  0  0
 39 15  2  0  0  0  0
 40 39  1  0  0  0  0
 41 43  1  0  0  0  0
 42 41  1  0  0  0  0
 43 44  1  0  0  0  0
 43 14  2  0  0  0  0
 45 13  2  0  0  0  0
 46 45  1  0  0  0  0
 47 45  1  0  0  0  0
 47 55  2  0  0  0  0
 48 47  1  0  0  0  0
 49 50  1  0  0  0  0
 51 35  2  0  0  0  0
 51 52  1  0  0  0  0
 53 49  2  0  0  0  0
 53 54  1  0  0  0  0
 55 53  1  0  0  0  0
 56 55  1  0  0  0  0
M  END
$$$$
