CSD_code = FOKQAX | q = 0 | S = 0 | Stoichiometry = C29H31ClNPPd | MND = 4
 OpenBabel04212202033D

 64 68  0  0  1  0  0  0  0  0999 V2000
   -0.5396    1.2472    2.3702 Pd  0  0  1  0  0  0  0  0  0  0  0  0
    1.3228   -0.1726    2.3864 Cl  0  0  0  0  0  0  0  0  0  0  0  0
    0.4044    2.6801    3.7827 P   0  0  0  0  0  4  0  0  0  0  0  0
   -1.3945   -0.0061    0.9284 N   0  0  0  0  0  4  0  0  0  0  0  0
   -1.2416    0.4285    0.0158 H   0  0  0  0  0  0  0  0  0  0  0  0
   -0.9484   -0.9249    0.9188 H   0  0  0  0  0  0  0  0  0  0  0  0
   -2.2881    2.1947    2.1211 C   0  0  0  0  0  0  0  0  0  0  0  0
   -2.6417    3.5176    2.3531 C   0  0  0  0  0  0  0  0  0  0  0  0
   -1.9159    4.2073    2.7706 H   0  0  0  0  0  0  0  0  0  0  0  0
   -3.9128    3.9870    2.0580 C   0  0  0  0  0  0  0  0  0  0  0  0
   -4.1638    5.0194    2.2573 H   0  0  0  0  0  0  0  0  0  0  0  0
   -4.8537    3.1414    1.4996 C   0  0  0  0  0  0  0  0  0  0  0  0
   -5.8423    3.5055    1.2602 H   0  0  0  0  0  0  0  0  0  0  0  0
   -4.5167    1.8266    1.2287 C   0  0  0  0  0  0  0  0  0  0  0  0
   -5.2386    1.1726    0.7581 H   0  0  0  0  0  0  0  0  0  0  0  0
   -3.2528    1.3491    1.5451 C   0  0  0  0  0  0  0  0  0  0  0  0
   -2.8358   -0.0723    1.2228 C   0  0  2  0  0  0  0  0  0  0  0  0
   -3.3886   -0.4291    0.3355 H   0  0  0  0  0  0  0  0  0  0  0  0
   -3.1323   -1.0896    2.3661 C   0  0  0  0  0  0  0  0  0  0  0  0
   -2.5858   -2.4723    1.9852 C   0  0  0  0  0  0  0  0  0  0  0  0
   -2.9851   -3.2223    2.6642 H   0  0  0  0  0  0  0  0  0  0  0  0
   -1.5008   -2.5110    2.0660 H   0  0  0  0  0  0  0  0  0  0  0  0
   -2.8784   -2.7471    0.9728 H   0  0  0  0  0  0  0  0  0  0  0  0
   -2.5118   -0.6554    3.6973 C   0  0  0  0  0  0  0  0  0  0  0  0
   -2.9329    0.3037    4.0085 H   0  0  0  0  0  0  0  0  0  0  0  0
   -1.4100   -0.5821    3.6250 H   0  0  0  0  0  0  0  0  0  0  0  0
   -2.7423   -1.3947    4.4623 H   0  0  0  0  0  0  0  0  0  0  0  0
   -4.6514   -1.1881    2.5373 C   0  0  0  0  0  0  0  0  0  0  0  0
   -5.0693   -0.2252    2.8192 H   0  0  0  0  0  0  0  0  0  0  0  0
   -4.8933   -1.9071    3.3164 H   0  0  0  0  0  0  0  0  0  0  0  0
   -5.1248   -1.5161    1.6139 H   0  0  0  0  0  0  0  0  0  0  0  0
    1.7937    2.1066    4.8104 C   0  0  0  0  0  0  0  0  0  0  0  0
    3.0060    1.8578    4.1702 C   0  0  0  0  0  0  0  0  0  0  0  0
    3.0956    2.0431    3.1085 H   0  0  0  0  0  0  0  0  0  0  0  0
    4.0779    1.3600    4.8845 C   0  0  0  0  0  0  0  0  0  0  0  0
    5.0127    1.1614    4.3814 H   0  0  0  0  0  0  0  0  0  0  0  0
    3.9498    1.1042    6.2404 C   0  0  0  0  0  0  0  0  0  0  0  0
    4.7870    0.7095    6.7974 H   0  0  0  0  0  0  0  0  0  0  0  0
    2.7462    1.3474    6.8795 C   0  0  0  0  0  0  0  0  0  0  0  0
    2.6436    1.1449    7.9359 H   0  0  0  0  0  0  0  0  0  0  0  0
    1.6665    1.8425    6.1687 C   0  0  0  0  0  0  0  0  0  0  0  0
    0.7269    2.0249    6.6717 H   0  0  0  0  0  0  0  0  0  0  0  0
   -0.6693    3.5079    4.9990 C   0  0  0  0  0  0  0  0  0  0  0  0
   -1.5671    2.6720    5.6585 C   0  0  0  0  0  0  0  0  0  0  0  0
   -1.5664    1.6150    5.4112 H   0  0  0  0  0  0  0  0  0  0  0  0
   -2.4398    3.1847    6.5982 C   0  0  0  0  0  0  0  0  0  0  0  0
   -3.1328    2.5326    7.1093 H   0  0  0  0  0  0  0  0  0  0  0  0
   -2.4289    4.5427    6.8773 C   0  0  0  0  0  0  0  0  0  0  0  0
   -3.1135    4.9495    7.6068 H   0  0  0  0  0  0  0  0  0  0  0  0
   -1.5478    5.3796    6.2141 C   0  0  0  0  0  0  0  0  0  0  0  0
   -1.5476    6.4392    6.4251 H   0  0  0  0  0  0  0  0  0  0  0  0
   -0.6673    4.8676    5.2757 C   0  0  0  0  0  0  0  0  0  0  0  0
    0.0066    5.5294    4.7512 H   0  0  0  0  0  0  0  0  0  0  0  0
    1.2026    3.9961    2.8131 C   0  0  0  0  0  0  0  0  0  0  0  0
    2.0781    4.9189    3.3798 C   0  0  0  0  0  0  0  0  0  0  0  0
    2.3067    4.8647    4.4360 H   0  0  0  0  0  0  0  0  0  0  0  0
    2.6697    5.8841    2.5854 C   0  0  0  0  0  0  0  0  0  0  0  0
    3.3469    6.6017    3.0255 H   0  0  0  0  0  0  0  0  0  0  0  0
    2.4029    5.9269    1.2257 C   0  0  0  0  0  0  0  0  0  0  0  0
    2.8700    6.6814    0.6099 H   0  0  0  0  0  0  0  0  0  0  0  0
    1.5520    4.9953    0.6532 C   0  0  0  0  0  0  0  0  0  0  0  0
    1.3607    5.0206   -0.4096 H   0  0  0  0  0  0  0  0  0  0  0  0
    0.9541    4.0300    1.4438 C   0  0  0  0  0  0  0  0  0  0  0  0
    0.2901    3.2750    1.0058 H   0  0  0  0  0  0  0  0  0  0  0  0
  1  2  1  1  0  0  0
  1  3  1  0  0  0  0
  3 32  1  0  0  0  0
  3 43  1  0  0  0  0
  4 17  1  0  0  0  0
  4  1  1  0  0  0  0
  5  4  1  0  0  0  0
  6  4  1  0  0  0  0
  7  8  1  0  0  0  0
  7  1  1  0  0  0  0
  8  9  1  0  0  0  0
 10 11  1  0  0  0  0
 10  8  2  0  0  0  0
 12 10  1  0  0  0  0
 13 12  1  0  0  0  0
 14 12  2  0  0  0  0
 14 16  1  0  0  0  0
 15 14  1  0  0  0  0
 16  7  2  0  0  0  0
 17 18  1  6  0  0  0
 17 16  1  0  0  0  0
 17 19  1  0  0  0  0
 19 28  1  0  0  0  0
 19 24  1  0  0  0  0
 20 22  1  0  0  0  0
 20 19  1  0  0  0  0
 20 21  1  0  0  0  0
 23 20  1  0  0  0  0
 24 25  1  0  0  0  0
 24 27  1  0  0  0  0
 26 24  1  0  0  0  0
 28 29  1  0  0  0  0
 28 30  1  0  0  0  0
 31 28  1  0  0  0  0
 32 41  1  0  0  0  0
 33 32  2  0  0  0  0
 33 35  1  0  0  0  0
 34 33  1  0  0  0  0
 35 37  2  0  0  0  0
 36 35  1  0  0  0  0
 37 38  1  0  0  0  0
 37 39  1  0  0  0  0
 39 40  1  0  0  0  0
 41 42  1  0  0  0  0
 41 39  2  0  0  0  0
 43 52  2  0  0  0  0
 43 44  1  0  0  0  0
 44 46  2  0  0  0  0
 45 44  1  0  0  0  0
 46 48  1  0  0  0  0
 46 47  1  0  0  0  0
 48 49  1  0  0  0  0
 50 51  1  0  0  0  0
 50 48  2  0  0  0  0
 52 50  1  0  0  0  0
 53 52  1  0  0  0  0
 54 55  1  0  0  0  0
 54  3  1  0  0  0  0
 55 56  1  0  0  0  0
 57 58  1  0  0  0  0
 57 55  2  0  0  0  0
 59 57  1  0  0  0  0
 60 59  1  0  0  0  0
 61 59  2  0  0  0  0
 61 63  1  0  0  0  0
 62 61  1  0  0  0  0
 63 54  2  0  0  0  0
 64 63  1  0  0  0  0
M  END
$$$$
