CSD_code = FOKRAZ | q = 0 | S = 0 | Stoichiometry = C26H30Cl2HfSi | MND = 12
 OpenBabel04212202033D

 60 64  0  0  1  0  0  0  0  0999 V2000
    0.1818    2.9758    3.5835 Hf  0  0  0  0  0  0  0  0  0  0  0  0
    0.4726    0.7774    2.9442 Cl  0  0  0  0  0  0  0  0  0  0  0  0
    2.1815    2.9678    4.7386 Cl  0  0  0  0  0  0  0  0  0  0  0  0
   -1.6361    5.5995    3.9318 Si  0  0  0  0  0  0  0  0  0  0  0  0
   -1.2664    4.1444    5.0870 C   0  0  2  0  0  3  0  0  0  0  0  0
   -0.4697    4.0616    6.2721 C   0  0  0  0  0  0  0  0  0  0  0  0
   -0.3520    2.7409    6.6773 C   0  0  0  0  0  0  0  0  0  0  0  0
    0.1863    2.4049    7.5456 H   0  0  0  0  0  0  0  0  0  0  0  0
   -1.0701    1.9125    5.7824 C   0  0  1  0  0  3  0  0  0  0  0  0
   -1.2924    0.5194    5.7460 C   0  0  0  0  0  0  0  0  0  0  0  0
   -2.1028    0.0182    4.7540 C   0  0  0  0  0  0  0  0  0  0  0  0
   -2.2776   -1.0466    4.7036 H   0  0  0  0  0  0  0  0  0  0  0  0
   -2.7219    0.8373    3.7892 C   0  0  0  0  0  0  0  0  0  0  0  0
   -2.5226    2.2019    3.8029 C   0  0  0  0  0  0  0  0  0  0  0  0
   -3.0659    2.8263    3.1064 H   0  0  0  0  0  0  0  0  0  0  0  0
   -1.6900    2.7764    4.8007 C   0  0  2  0  0  0  0  0  0  0  0  0
    0.1244    5.2190    7.0119 C   0  0  0  0  0  0  0  0  0  0  0  0
   -0.5511    6.0701    7.0088 H   0  0  0  0  0  0  0  0  0  0  0  0
    1.0734    5.5239    6.5691 H   0  0  0  0  0  0  0  0  0  0  0  0
    0.3232    4.9318    8.0414 H   0  0  0  0  0  0  0  0  0  0  0  0
   -0.6481   -0.3646    6.7686 C   0  0  0  0  0  0  0  0  0  0  0  0
   -0.9206   -1.4043    6.6090 H   0  0  0  0  0  0  0  0  0  0  0  0
   -0.9537   -0.0680    7.7713 H   0  0  0  0  0  0  0  0  0  0  0  0
    0.4358   -0.2730    6.7079 H   0  0  0  0  0  0  0  0  0  0  0  0
   -3.5741    0.2001    2.7327 C   0  0  0  0  0  0  0  0  0  0  0  0
   -4.1530    0.9465    2.1949 H   0  0  0  0  0  0  0  0  0  0  0  0
   -4.2539   -0.5275    3.1717 H   0  0  0  0  0  0  0  0  0  0  0  0
   -2.9373   -0.3226    2.0186 H   0  0  0  0  0  0  0  0  0  0  0  0
   -3.4891    5.7680    3.5013 C   0  0  0  0  0  0  0  0  0  0  0  0
   -3.9848    6.3558    4.2667 H   0  0  0  0  0  0  0  0  0  0  0  0
   -4.0095    4.8192    3.4433 H   0  0  0  0  0  0  0  0  0  0  0  0
   -3.6225    6.2873    2.5579 H   0  0  0  0  0  0  0  0  0  0  0  0
   -0.5507    4.9848    2.4981 C   0  0  1  0  0  3  0  0  0  0  0  0
    0.8809    4.9776    2.5431 C   0  0  2  0  0  0  0  0  0  0  0  0
    1.3818    3.9581    1.6992 C   0  0  0  0  0  3  0  0  0  0  0  0
    2.4248    3.8102    1.4486 H   0  0  0  0  0  0  0  0  0  0  0  0
    0.2667    3.3444    1.0431 C   0  0  0  0  0  0  0  0  0  0  0  0
    0.1907    2.3524    0.0409 C   0  0  0  0  0  0  0  0  0  0  0  0
   -1.0523    2.0382   -0.4533 C   0  0  0  0  0  0  0  0  0  0  0  0
   -1.1392    1.2845   -1.2225 H   0  0  0  0  0  0  0  0  0  0  0  0
   -2.2272    2.6847   -0.0219 C   0  0  0  0  0  0  0  0  0  0  0  0
   -2.1656    3.6474    0.9585 C   0  0  0  0  0  0  0  0  0  0  0  0
   -3.0581    4.1829    1.2487 H   0  0  0  0  0  0  0  0  0  0  0  0
   -0.9272    3.9765    1.5393 C   0  0  0  0  0  0  0  0  0  0  0  0
    1.7455    5.9383    3.3071 C   0  0  0  0  0  0  0  0  0  0  0  0
    1.4876    6.9647    3.0499 H   0  0  0  0  0  0  0  0  0  0  0  0
    2.7935    5.7734    3.0647 H   0  0  0  0  0  0  0  0  0  0  0  0
    1.6266    5.8125    4.3843 H   0  0  0  0  0  0  0  0  0  0  0  0
    1.4399    1.6884   -0.4500 C   0  0  0  0  0  0  0  0  0  0  0  0
    1.2133    0.9726   -1.2352 H   0  0  0  0  0  0  0  0  0  0  0  0
    1.9249    1.1629    0.3730 H   0  0  0  0  0  0  0  0  0  0  0  0
    2.1385    2.4282   -0.8397 H   0  0  0  0  0  0  0  0  0  0  0  0
   -3.5306    2.3164   -0.6654 C   0  0  0  0  0  0  0  0  0  0  0  0
   -4.3559    2.8708   -0.2251 H   0  0  0  0  0  0  0  0  0  0  0  0
   -3.7231    1.2505   -0.5501 H   0  0  0  0  0  0  0  0  0  0  0  0
   -3.4999    2.5335   -1.7327 H   0  0  0  0  0  0  0  0  0  0  0  0
   -1.1185    7.3263    4.5497 C   0  0  0  0  0  0  0  0  0  0  0  0
   -1.8022    7.6589    5.3230 H   0  0  0  0  0  0  0  0  0  0  0  0
   -1.1817    8.0407    3.7356 H   0  0  0  0  0  0  0  0  0  0  0  0
   -0.1159    7.3716    4.9531 H   0  0  0  0  0  0  0  0  0  0  0  0
  1  3  1  0  0  0  0
  1 16  1  0  0  0  0
  2  1  1  0  0  0  0
  4 57  1  0  0  0  0
  4  5  1  0  0  0  0
  5  6  1  6  0  0  0
  6  7  2  0  0  0  0
  6 17  1  0  0  0  0
  7  8  1  0  0  0  0
  9 10  1  1  0  0  0
  9  7  1  0  0  0  0
 10 21  1  0  0  0  0
 11 10  2  0  0  0  0
 12 11  1  0  0  0  0
 13 14  2  0  0  0  0
 13 11  1  0  0  0  0
 15 14  1  0  0  0  0
 16 14  1  6  0  0  0
 16  5  1  0  0  0  0
 16  9  1  0  0  0  0
 17 20  1  0  0  0  0
 18 17  1  0  0  0  0
 19 17  1  0  0  0  0
 21 23  1  0  0  0  0
 22 21  1  0  0  0  0
 24 21  1  0  0  0  0
 25 27  1  0  0  0  0
 25 13  1  0  0  0  0
 26 25  1  0  0  0  0
 28 25  1  0  0  0  0
 29  4  1  0  0  0  0
 29 30  1  0  0  0  0
 31 29  1  0  0  0  0
 32 29  1  0  0  0  0
 33 44  1  1  0  0  0
 33 34  1  0  0  0  0
 33  4  1  0  0  0  0
 34 45  1  1  0  0  0
 34  1  1  0  0  0  0
 35 34  1  0  0  0  0
 36 35  1  0  0  0  0
 37 44  1  0  0  0  0
 37 35  1  0  0  0  0
 38 37  2  0  0  0  0
 39 41  2  0  0  0  0
 39 38  1  0  0  0  0
 40 39  1  0  0  0  0
 41 42  1  0  0  0  0
 42 43  1  0  0  0  0
 42 44  2  0  0  0  0
 45 48  1  0  0  0  0
 46 45  1  0  0  0  0
 47 45  1  0  0  0  0
 49 38  1  0  0  0  0
 49 51  1  0  0  0  0
 50 49  1  0  0  0  0
 52 49  1  0  0  0  0
 53 55  1  0  0  0  0
 53 54  1  0  0  0  0
 53 41  1  0  0  0  0
 56 53  1  0  0  0  0
 57 60  1  0  0  0  0
 57 58  1  0  0  0  0
 59 57  1  0  0  0  0
M  END
$$$$
