CSD_code = FOKXEK | q = 0 | S = 0 | Stoichiometry = C18H23Br2CdN3 | MND = 5
 OpenBabel04212202033D

 47 50  0  0  1  0  0  0  0  0999 V2000
    4.6790    3.2122    3.9856 Cd  0  0  0  0  0  0  0  0  0  0  0  0
    6.1992    1.7543    2.6301 Br  0  0  0  0  0  0  0  0  0  0  0  0
    2.6735    4.2146    2.8475 Br  0  0  0  0  0  0  0  0  0  0  0  0
    5.2414    2.0807    6.1062 N   0  0  0  0  0  0  0  0  0  0  0  0
    6.0812    5.1106    4.2796 N   0  0  0  0  0  0  0  0  0  0  0  0
    4.0089    4.6158    6.1340 N   0  0  2  0  0  0  0  0  0  0  0  0
    5.5282    0.7853    6.1108 C   0  0  0  0  0  3  0  0  0  0  0  0
    5.6008    0.3087    5.1409 H   0  0  0  0  0  0  0  0  0  0  0  0
    5.7440    0.0674    7.2749 C   0  0  0  0  0  0  0  0  0  0  0  0
    5.9747   -0.9844    7.2309 H   0  0  0  0  0  0  0  0  0  0  0  0
    5.6578    0.7364    8.4856 C   0  0  0  0  0  0  0  0  0  0  0  0
    5.8176    0.2163    9.4182 H   0  0  0  0  0  0  0  0  0  0  0  0
    5.3650    2.0891    8.4787 C   0  0  0  0  0  0  0  0  0  0  0  0
    5.2955    2.6442    9.4023 H   0  0  0  0  0  0  0  0  0  0  0  0
    5.1596    2.7322    7.2621 C   0  0  0  0  0  0  0  0  0  0  0  0
    4.9066    4.2175    7.2112 C   0  0  0  0  0  0  0  0  0  0  0  0
    4.5587    4.5632    8.1950 H   0  0  0  0  0  0  0  0  0  0  0  0
    5.8799    4.6892    7.0270 H   0  0  0  0  0  0  0  0  0  0  0  0
    4.2895    5.9759    5.6874 C   0  0  0  0  0  0  0  0  0  0  0  0
    4.2354    6.7037    6.5126 H   0  0  0  0  0  0  0  0  0  0  0  0
    3.5249    6.2451    4.9486 H   0  0  0  0  0  0  0  0  0  0  0  0
    5.6266    6.1269    5.0082 C   0  0  2  0  0  3  0  0  0  0  0  0
    6.3328    7.3228    5.1070 C   0  0  0  0  0  0  0  0  0  0  0  0
    5.9403    8.1329    5.7029 H   0  0  0  0  0  0  0  0  0  0  0  0
    7.5305    7.4587    4.4278 C   0  0  0  0  0  0  0  0  0  0  0  0
    8.0910    8.3798    4.4867 H   0  0  0  0  0  0  0  0  0  0  0  0
    7.9954    6.3916    3.6746 C   0  0  0  0  0  0  0  0  0  0  0  0
    8.9237    6.4519    3.1301 H   0  0  0  0  0  0  0  0  0  0  0  0
    7.2345    5.2360    3.6328 C   0  0  0  0  0  0  0  0  0  0  0  0
    7.5567    4.3729    3.0614 H   0  0  0  0  0  0  0  0  0  0  0  0
    2.5761    4.4351    6.4273 C   0  0  0  0  0  0  0  0  0  0  0  0
    2.0507    4.8064    5.5408 H   0  0  0  0  0  0  0  0  0  0  0  0
    2.1958    2.9622    6.5809 C   0  0  0  0  0  0  0  0  0  0  0  0
    2.6310    2.5478    7.4942 H   0  0  0  0  0  0  0  0  0  0  0  0
    2.5759    2.3881    5.7272 H   0  0  0  0  0  0  0  0  0  0  0  0
    0.6755    2.8272    6.6362 C   0  0  0  0  0  0  0  0  0  0  0  0
    0.2516    3.1919    5.6990 H   0  0  0  0  0  0  0  0  0  0  0  0
    0.4054    1.7747    6.7400 H   0  0  0  0  0  0  0  0  0  0  0  0
    0.1059    3.6288    7.8017 C   0  0  0  0  0  0  0  0  0  0  0  0
   -0.9824    3.5520    7.8083 H   0  0  0  0  0  0  0  0  0  0  0  0
    0.4757    3.2155    8.7437 H   0  0  0  0  0  0  0  0  0  0  0  0
    0.5222    5.0914    7.6906 C   0  0  0  0  0  0  0  0  0  0  0  0
    0.1364    5.6555    8.5425 H   0  0  0  0  0  0  0  0  0  0  0  0
    0.0961    5.5212    6.7821 H   0  0  0  0  0  0  0  0  0  0  0  0
    2.0437    5.2124    7.6403 C   0  0  0  0  0  0  0  0  0  0  0  0
    2.4565    4.8074    8.5675 H   0  0  0  0  0  0  0  0  0  0  0  0
    2.3197    6.2663    7.5739 H   0  0  0  0  0  0  0  0  0  0  0  0
  1  5  1  0  0  0  0
  1  4  1  0  0  0  0
  2  1  1  0  0  0  0
  3  1  1  0  0  0  0
  4  7  1  0  0  0  0
  4 15  1  0  0  0  0
  5 22  1  0  0  0  0
  6 31  1  1  0  0  0
  6 16  1  0  0  0  0
  7  9  1  0  0  0  0
  8  7  1  0  0  0  0
  9 11  2  0  0  0  0
 10  9  1  0  0  0  0
 11 12  1  0  0  0  0
 13 11  1  0  0  0  0
 13 14  1  0  0  0  0
 15 13  2  0  0  0  0
 16 15  1  0  0  0  0
 16 17  1  0  0  0  0
 18 16  1  0  0  0  0
 19  6  1  0  0  0  0
 19 20  1  0  0  0  0
 21 19  1  0  0  0  0
 22 23  1  6  0  0  0
 22 19  1  0  0  0  0
 23 24  1  0  0  0  0
 25 26  1  0  0  0  0
 25 23  2  0  0  0  0
 27 25  1  0  0  0  0
 28 27  1  0  0  0  0
 29 27  2  0  0  0  0
 29  5  1  0  0  0  0
 30 29  1  0  0  0  0
 31 33  1  0  0  0  0
 31 45  1  0  0  0  0
 32 31  1  0  0  0  0
 33 36  1  0  0  0  0
 33 34  1  0  0  0  0
 35 33  1  0  0  0  0
 36 38  1  0  0  0  0
 36 39  1  0  0  0  0
 37 36  1  0  0  0  0
 39 40  1  0  0  0  0
 39 41  1  0  0  0  0
 42 39  1  0  0  0  0
 42 43  1  0  0  0  0
 44 42  1  0  0  0  0
 45 42  1  0  0  0  0
 45 46  1  0  0  0  0
 47 45  1  0  0  0  0
M  END
$$$$
