CSD_code = FOLDOZ | q = 0 | S = 0 | Stoichiometry = C22H30Cl2N2O2Pd | MND = 4
 OpenBabel04212202033D

 59 60  0  0  1  0  0  0  0  0999 V2000
    0.0013    0.0013   -0.0006 Pd  0  0  0  0  0  0  0  0  0  0  0  0
    1.4540    1.0028   -1.4552 Cl  0  0  0  0  0  0  0  0  0  0  0  0
    1.3694   -1.3970    0.3010 N   0  0  0  0  0  0  0  0  0  0  0  0
    2.5130   -3.2535   -0.2403 O   0  0  0  0  0  0  0  0  0  0  0  0
    1.4720   -2.4361   -0.4341 C   0  0  2  0  0  3  0  0  0  0  0  0
    0.4532   -2.7177   -1.4962 C   0  0  0  0  0  0  0  0  0  0  0  0
    2.6334   -4.4754   -0.9524 C   0  0  0  0  0  0  0  0  0  0  0  0
    3.8928   -5.1614   -0.4485 C   0  0  0  0  0  0  0  0  0  0  0  0
    2.3684   -1.1395    1.3306 C   0  0  0  0  0  0  0  0  0  0  0  0
    1.3587   -2.8138    2.8966 C   0  0  0  0  0  0  0  0  0  0  0  0
    1.4614   -3.8793    3.7727 C   0  0  0  0  0  0  0  0  0  0  0  0
    2.7005   -4.4245    4.0652 C   0  0  0  0  0  0  0  0  0  0  0  0
    3.8391   -3.8980    3.4795 C   0  0  0  0  0  0  0  0  0  0  0  0
    3.7388   -2.8353    2.5984 C   0  0  0  0  0  0  0  0  0  0  0  0
    2.4989   -2.2889    2.2997 C   0  0  0  0  0  0  0  0  0  0  0  0
    0.0016   -3.6976   -1.3442 H   0  0  0  0  0  0  0  0  0  0  0  0
    0.9212   -2.6919   -2.4808 H   0  0  0  0  0  0  0  0  0  0  0  0
   -0.3356   -1.9466   -1.4518 H   0  0  0  0  0  0  0  0  0  0  0  0
    1.7572   -5.1065   -0.7617 H   0  0  0  0  0  0  0  0  0  0  0  0
    2.7043   -4.2803   -2.0294 H   0  0  0  0  0  0  0  0  0  0  0  0
    4.0157   -6.1198   -0.9441 H   0  0  0  0  0  0  0  0  0  0  0  0
    3.8205   -5.3159    0.6247 H   0  0  0  0  0  0  0  0  0  0  0  0
    4.7609   -4.5405   -0.6507 H   0  0  0  0  0  0  0  0  0  0  0  0
    3.3330   -0.9419    0.8474 H   0  0  0  0  0  0  0  0  0  0  0  0
    2.0474   -0.2318    1.8691 H   0  0  0  0  0  0  0  0  0  0  0  0
    0.3918   -2.3869    2.6681 H   0  0  0  0  0  0  0  0  0  0  0  0
    0.5700   -4.2835    4.2292 H   0  0  0  0  0  0  0  0  0  0  0  0
    2.7796   -5.2575    4.7487 H   0  0  0  0  0  0  0  0  0  0  0  0
    4.8085   -4.3188    3.7056 H   0  0  0  0  0  0  0  0  0  0  0  0
    4.6283   -2.4322    2.1358 H   0  0  0  0  0  0  0  0  0  0  0  0
   -1.4515   -0.9999    1.4547 Cl  0  0  0  0  0  0  0  0  0  0  0  0
   -1.3672    1.3994   -0.3015 N   0  0  0  0  0  0  0  0  0  0  0  0
   -1.4704    2.4383    0.4338 C   0  0  1  0  0  3  0  0  0  0  0  0
   -2.3668    1.1408   -1.3302 C   0  0  0  0  0  0  0  0  0  0  0  0
   -2.5124    3.2545    0.2408 O   0  0  0  0  0  0  0  0  0  0  0  0
   -0.4514    2.7206    1.4955 C   0  0  0  0  0  0  0  0  0  0  0  0
   -2.4980    2.2892   -2.3004 C   0  0  0  0  0  0  0  0  0  0  0  0
   -3.3312    0.9438   -0.8462 H   0  0  0  0  0  0  0  0  0  0  0  0
   -2.0462    0.2327   -1.8681 H   0  0  0  0  0  0  0  0  0  0  0  0
   -2.6345    4.4754    0.9544 C   0  0  0  0  0  0  0  0  0  0  0  0
   -0.0029    3.7022    1.3454 H   0  0  0  0  0  0  0  0  0  0  0  0
   -0.9183    2.6909    2.4805 H   0  0  0  0  0  0  0  0  0  0  0  0
    0.3397    1.9520    1.4485 H   0  0  0  0  0  0  0  0  0  0  0  0
   -1.3583    2.8129   -2.8993 C   0  0  0  0  0  0  0  0  0  0  0  0
   -3.7381    2.8355   -2.5985 C   0  0  0  0  0  0  0  0  0  0  0  0
   -3.8969    5.1586    0.4541 C   0  0  0  0  0  0  0  0  0  0  0  0
   -1.7604    5.1090    0.7622 H   0  0  0  0  0  0  0  0  0  0  0  0
   -2.7025    4.2792    2.0314 H   0  0  0  0  0  0  0  0  0  0  0  0
   -1.4617    3.8771   -3.7770 C   0  0  0  0  0  0  0  0  0  0  0  0
   -0.3912    2.3862   -2.6712 H   0  0  0  0  0  0  0  0  0  0  0  0
   -3.8391    3.8968   -3.4812 C   0  0  0  0  0  0  0  0  0  0  0  0
   -4.6272    2.4334   -2.1344 H   0  0  0  0  0  0  0  0  0  0  0  0
   -4.0212    6.1162    0.9508 H   0  0  0  0  0  0  0  0  0  0  0  0
   -3.8275    5.3143   -0.6192 H   0  0  0  0  0  0  0  0  0  0  0  0
   -4.7629    4.5352    0.6577 H   0  0  0  0  0  0  0  0  0  0  0  0
   -2.7010    4.4221   -4.0691 C   0  0  0  0  0  0  0  0  0  0  0  0
   -0.5707    4.2803   -4.2352 H   0  0  0  0  0  0  0  0  0  0  0  0
   -4.8086    4.3176   -3.7069 H   0  0  0  0  0  0  0  0  0  0  0  0
   -2.7807    5.2539   -4.7540 H   0  0  0  0  0  0  0  0  0  0  0  0
  1  3  1  0  0  0  0
  1 31  1  0  0  0  0
  2  1  1  0  0  0  0
  3  9  1  0  0  0  0
  5  4  1  6  0  0  0
  5  3  1  0  0  0  0
  6 18  1  0  0  0  0
  6 16  1  0  0  0  0
  6  5  1  0  0  0  0
  7 19  1  0  0  0  0
  7  8  1  0  0  0  0
  7  4  1  0  0  0  0
  8 22  1  0  0  0  0
  9 25  1  0  0  0  0
  9 15  1  0  0  0  0
 10 11  1  0  0  0  0
 11 12  2  0  0  0  0
 11 27  1  0  0  0  0
 12 28  1  0  0  0  0
 13 29  1  0  0  0  0
 13 12  1  0  0  0  0
 14 13  2  0  0  0  0
 15 14  1  0  0  0  0
 15 10  2  0  0  0  0
 17  6  1  0  0  0  0
 20  7  1  0  0  0  0
 21  8  1  0  0  0  0
 23  8  1  0  0  0  0
 24  9  1  0  0  0  0
 26 10  1  0  0  0  0
 30 14  1  0  0  0  0
 32  1  1  0  0  0  0
 32 33  1  0  0  0  0
 33 35  1  1  0  0  0
 33 36  1  0  0  0  0
 34 38  1  0  0  0  0
 34 32  1  0  0  0  0
 35 40  1  0  0  0  0
 36 42  1  0  0  0  0
 37 34  1  0  0  0  0
 39 34  1  0  0  0  0
 40 48  1  0  0  0  0
 41 36  1  0  0  0  0
 43 36  1  0  0  0  0
 44 50  1  0  0  0  0
 44 37  2  0  0  0  0
 45 37  1  0  0  0  0
 45 52  1  0  0  0  0
 46 55  1  0  0  0  0
 46 53  1  0  0  0  0
 46 40  1  0  0  0  0
 47 40  1  0  0  0  0
 49 44  1  0  0  0  0
 51 45  2  0  0  0  0
 54 46  1  0  0  0  0
 56 49  2  0  0  0  0
 56 51  1  0  0  0  0
 57 49  1  0  0  0  0
 58 51  1  0  0  0  0
 59 56  1  0  0  0  0
M  END
$$$$
