CSD_code = FOLKIA | q = 0 | S = 0 | Stoichiometry = C18H15AuIP | MND = 2
 OpenBabel04212202033D

 36 38  0  0  0  0  0  0  0  0999 V2000
    0.0231    4.3383   -3.9925 I   0  0  0  0  0  0  0  0  0  0  0  0
    0.8514    3.6880   -1.6644 Au  0  0  0  0  0  0  0  0  0  0  0  0
    1.5944    3.1224    0.3908 P   0  0  0  0  0  4  0  0  0  0  0  0
    2.6695    1.6626    0.4328 C   0  0  0  0  0  0  0  0  0  0  0  0
    2.3142    0.6026   -0.3986 C   0  0  0  0  0  0  0  0  0  0  0  0
    3.0852   -0.5435   -0.4271 C   0  0  0  0  0  0  0  0  0  0  0  0
    4.2213   -0.6293    0.3628 C   0  0  0  0  0  0  0  0  0  0  0  0
    4.5833    0.4288    1.1806 C   0  0  0  0  0  0  0  0  0  0  0  0
    3.8121    1.5769    1.2201 C   0  0  0  0  0  0  0  0  0  0  0  0
    0.2750    2.7353    1.5724 C   0  0  0  0  0  0  0  0  0  0  0  0
   -0.6816    3.7304    1.7691 C   0  0  0  0  0  0  0  0  0  0  0  0
   -1.7484    3.5065    2.6162 C   0  0  0  0  0  0  0  0  0  0  0  0
   -1.8745    2.2834    3.2580 C   0  0  0  0  0  0  0  0  0  0  0  0
   -0.9334    1.2886    3.0524 C   0  0  0  0  0  0  0  0  0  0  0  0
    0.1427    1.5075    2.2094 C   0  0  0  0  0  0  0  0  0  0  0  0
    2.5609    4.4027    1.2365 C   0  0  0  0  0  0  0  0  0  0  0  0
    3.3822    5.1987    0.4430 C   0  0  0  0  0  0  0  0  0  0  0  0
    4.1567    6.1868    1.0210 C   0  0  0  0  0  0  0  0  0  0  0  0
    4.1063    6.3886    2.3912 C   0  0  0  0  0  0  0  0  0  0  0  0
    3.2845    5.6017    3.1825 C   0  0  0  0  0  0  0  0  0  0  0  0
    2.5106    4.6075    2.6118 C   0  0  0  0  0  0  0  0  0  0  0  0
    1.4304    0.6880   -1.0197 H   0  0  0  0  0  0  0  0  0  0  0  0
    2.8063   -1.3654   -1.0693 H   0  0  0  0  0  0  0  0  0  0  0  0
    4.8288   -1.5214    0.3362 H   0  0  0  0  0  0  0  0  0  0  0  0
    5.4722    0.3612    1.7903 H   0  0  0  0  0  0  0  0  0  0  0  0
    4.0960    2.4039    1.8561 H   0  0  0  0  0  0  0  0  0  0  0  0
   -0.5755    4.6772    1.2527 H   0  0  0  0  0  0  0  0  0  0  0  0
   -2.4856    4.2799    2.7715 H   0  0  0  0  0  0  0  0  0  0  0  0
   -2.7118    2.1049    3.9157 H   0  0  0  0  0  0  0  0  0  0  0  0
   -1.0368    0.3349    3.5487 H   0  0  0  0  0  0  0  0  0  0  0  0
    0.8766    0.7299    2.0479 H   0  0  0  0  0  0  0  0  0  0  0  0
    3.4043    5.0374   -0.6280 H   0  0  0  0  0  0  0  0  0  0  0  0
    4.7934    6.8027    0.4039 H   0  0  0  0  0  0  0  0  0  0  0  0
    4.7061    7.1641    2.8434 H   0  0  0  0  0  0  0  0  0  0  0  0
    3.2456    5.7631    4.2497 H   0  0  0  0  0  0  0  0  0  0  0  0
    1.8681    3.9926    3.2273 H   0  0  0  0  0  0  0  0  0  0  0  0
  1  2  1  0  0  0  0
  2  3  1  0  0  0  0
  3  4  1  0  0  0  0
  3 16  1  0  0  0  0
  3 10  1  0  0  0  0
  4  9  1  0  0  0  0
  5  4  2  0  0  0  0
  6  5  1  0  0  0  0
  6  7  2  0  0  0  0
  7  8  1  0  0  0  0
  8  9  2  0  0  0  0
  8 25  1  0  0  0  0
  9 26  1  0  0  0  0
 10 11  2  0  0  0  0
 10 15  1  0  0  0  0
 11 12  1  0  0  0  0
 12 28  1  0  0  0  0
 12 13  2  0  0  0  0
 13 29  1  0  0  0  0
 14 13  1  0  0  0  0
 14 30  1  0  0  0  0
 15 14  2  0  0  0  0
 16 21  1  0  0  0  0
 17 18  1  0  0  0  0
 17 16  2  0  0  0  0
 18 19  2  0  0  0  0
 19 34  1  0  0  0  0
 19 20  1  0  0  0  0
 20 35  1  0  0  0  0
 21 20  2  0  0  0  0
 21 36  1  0  0  0  0
 22  5  1  0  0  0  0
 23  6  1  0  0  0  0
 24  7  1  0  0  0  0
 27 11  1  0  0  0  0
 31 15  1  0  0  0  0
 32 17  1  0  0  0  0
 33 18  1  0  0  0  0
M  END
$$$$
