CSD_code = FOLKEW | q = 0 | S = 0 | Stoichiometry = C18H15AuBrP | MND = 2
 OpenBabel04212202033D

 36 38  0  0  0  0  0  0  0  0999 V2000
   -0.1750   -4.1484    3.8867 Br  0  0  0  0  0  0  0  0  0  0  0  0
   -0.8972   -3.5737    1.7055 Au  0  0  0  0  0  0  0  0  0  0  0  0
   -1.5857   -3.0310   -0.3700 P   0  0  0  0  0  4  0  0  0  0  0  0
   -2.5832   -1.5201   -0.4466 C   0  0  0  0  0  0  0  0  0  0  0  0
   -2.0988   -0.4242    0.2661 C   0  0  0  0  0  0  0  0  0  0  0  0
   -2.8073    0.7613    0.2780 C   0  0  0  0  0  0  0  0  0  0  0  0
   -4.0096    0.8527   -0.4071 C   0  0  0  0  0  0  0  0  0  0  0  0
   -4.5002   -0.2401   -1.1027 C   0  0  0  0  0  0  0  0  0  0  0  0
   -3.7925   -1.4295   -1.1256 C   0  0  0  0  0  0  0  0  0  0  0  0
   -0.2347   -2.7391   -1.5433 C   0  0  0  0  0  0  0  0  0  0  0  0
    0.6980   -3.7679   -1.6652 C   0  0  0  0  0  0  0  0  0  0  0  0
    1.7810   -3.6235   -2.5094 C   0  0  0  0  0  0  0  0  0  0  0  0
    1.9459   -2.4465   -3.2242 C   0  0  0  0  0  0  0  0  0  0  0  0
    1.0267   -1.4186   -3.0952 C   0  0  0  0  0  0  0  0  0  0  0  0
   -0.0652   -1.5581   -2.2557 C   0  0  0  0  0  0  0  0  0  0  0  0
   -2.5992   -4.2842   -1.1994 C   0  0  0  0  0  0  0  0  0  0  0  0
   -3.4123   -5.0815   -0.3991 C   0  0  0  0  0  0  0  0  0  0  0  0
   -4.2155   -6.0480   -0.9754 C   0  0  0  0  0  0  0  0  0  0  0  0
   -4.2023   -6.2261   -2.3496 C   0  0  0  0  0  0  0  0  0  0  0  0
   -3.3891   -5.4368   -3.1480 C   0  0  0  0  0  0  0  0  0  0  0  0
   -2.5867   -4.4647   -2.5794 C   0  0  0  0  0  0  0  0  0  0  0  0
   -1.1643   -0.5150    0.8069 H   0  0  0  0  0  0  0  0  0  0  0  0
   -2.4285    1.6106    0.8266 H   0  0  0  0  0  0  0  0  0  0  0  0
   -4.5678    1.7767   -0.3931 H   0  0  0  0  0  0  0  0  0  0  0  0
   -5.4404   -0.1681   -1.6291 H   0  0  0  0  0  0  0  0  0  0  0  0
   -4.1774   -2.2835   -1.6656 H   0  0  0  0  0  0  0  0  0  0  0  0
    0.5619   -4.6774   -1.0925 H   0  0  0  0  0  0  0  0  0  0  0  0
    2.5005   -4.4227   -2.6052 H   0  0  0  0  0  0  0  0  0  0  0  0
    2.7958   -2.3292   -3.8795 H   0  0  0  0  0  0  0  0  0  0  0  0
    1.1599   -0.5013   -3.6490 H   0  0  0  0  0  0  0  0  0  0  0  0
   -0.7820   -0.7548   -2.1551 H   0  0  0  0  0  0  0  0  0  0  0  0
   -3.4046   -4.9390    0.6746 H   0  0  0  0  0  0  0  0  0  0  0  0
   -4.8457   -6.6657   -0.3534 H   0  0  0  0  0  0  0  0  0  0  0  0
   -4.8242   -6.9851   -2.7999 H   0  0  0  0  0  0  0  0  0  0  0  0
   -3.3794   -5.5801   -4.2184 H   0  0  0  0  0  0  0  0  0  0  0  0
   -1.9500   -3.8477   -3.1989 H   0  0  0  0  0  0  0  0  0  0  0  0
  2  1  1  0  0  0  0
  3  2  1  0  0  0  0
  4  3  1  0  0  0  0
  4  5  1  0  0  0  0
  5  6  2  0  0  0  0
  5 22  1  0  0  0  0
  6 23  1  0  0  0  0
  7 24  1  0  0  0  0
  7  6  1  0  0  0  0
  8  7  2  0  0  0  0
  9  8  1  0  0  0  0
  9  4  2  0  0  0  0
 10  3  1  0  0  0  0
 11 10  1  0  0  0  0
 11 27  1  0  0  0  0
 12 11  2  0  0  0  0
 13 14  2  0  0  0  0
 13 12  1  0  0  0  0
 14 15  1  0  0  0  0
 15 31  1  0  0  0  0
 15 10  2  0  0  0  0
 16 17  1  0  0  0  0
 16  3  1  0  0  0  0
 17 32  1  0  0  0  0
 18 17  2  0  0  0  0
 18 33  1  0  0  0  0
 19 18  1  0  0  0  0
 20 21  1  0  0  0  0
 20 19  2  0  0  0  0
 21 16  2  0  0  0  0
 25  8  1  0  0  0  0
 26  9  1  0  0  0  0
 28 12  1  0  0  0  0
 29 13  1  0  0  0  0
 30 14  1  0  0  0  0
 34 19  1  0  0  0  0
 35 20  1  0  0  0  0
 36 21  1  0  0  0  0
M  END
$$$$
