CSD_code = FOLLUN | q = 0 | S = 0 | Stoichiometry = C23H20ClF6OPPdS | MND = 4
 OpenBabel04212202033D

 54 57  0  0  0  0  0  0  0  0999 V2000
    1.6128    1.6593    0.2784 Pd  0  0  2  0  0  0  0  0  0  0  0  0
    3.4693    1.9927    1.6649 S   0  0  1  0  0  3  0  0  0  0  0  0
   -0.0958    1.0331   -1.0309 Cl  0  0  0  0  0  0  0  0  0  0  0  0
    0.1408    2.8980    1.3940 P   0  0  0  0  0  4  0  0  0  0  0  0
    2.9676    0.2943   -0.5532 O   0  0  0  0  0  0  0  0  0  0  0  0
    2.2352    1.2716   -3.0439 F   0  0  0  0  0  0  0  0  0  0  0  0
    2.7742    2.8883   -1.7171 F   0  0  0  0  0  0  0  0  0  0  0  0
    4.1088    2.2954   -3.2950 F   0  0  0  0  0  0  0  0  0  0  0  0
    5.0731   -0.1203   -3.3232 F   0  0  0  0  0  0  0  0  0  0  0  0
    3.5176   -1.2888   -2.4414 F   0  0  0  0  0  0  0  0  0  0  0  0
    5.3912   -1.0596   -1.4173 F   0  0  0  0  0  0  0  0  0  0  0  0
    3.8992    0.8028   -1.3628 C   0  0  0  0  0  0  0  0  0  0  0  0
    3.2594    1.7943   -2.3907 C   0  0  0  0  0  0  0  0  0  0  0  0
    4.4725   -0.4129   -2.1555 C   0  0  0  0  0  0  0  0  0  0  0  0
    3.6727    0.2960    2.2919 C   0  0  0  0  0  0  0  0  0  0  0  0
   -1.6424    2.9330    1.0135 C   0  0  0  0  0  0  0  0  0  0  0  0
    4.9062    2.1301    0.5903 C   0  0  0  0  0  0  0  0  0  0  0  0
    5.0376    1.5881   -0.6877 C   0  0  0  0  0  0  0  0  0  0  0  0
    6.2271    1.8139   -1.3759 C   0  0  0  0  0  0  0  0  0  0  0  0
    7.2560    2.5452   -0.8111 C   0  0  0  0  0  0  0  0  0  0  0  0
    7.1154    3.0814    0.4567 C   0  0  0  0  0  0  0  0  0  0  0  0
    5.9389    2.8745    1.1486 C   0  0  0  0  0  0  0  0  0  0  0  0
    0.5925    4.6434    1.6192 C   0  0  0  0  0  0  0  0  0  0  0  0
   -0.1740    5.5482    2.3476 C   0  0  0  0  0  0  0  0  0  0  0  0
    0.2336    6.8654    2.4580 C   0  0  0  0  0  0  0  0  0  0  0  0
    1.3974    7.2904    1.8370 C   0  0  0  0  0  0  0  0  0  0  0  0
    2.1543    6.3983    1.0950 C   0  0  0  0  0  0  0  0  0  0  0  0
    1.7524    5.0795    0.9851 C   0  0  0  0  0  0  0  0  0  0  0  0
    0.1739    2.1004    3.0355 C   0  0  0  0  0  0  0  0  0  0  0  0
    0.1913    0.7038    2.9947 C   0  0  0  0  0  0  0  0  0  0  0  0
    0.2319   -0.0227    4.1704 C   0  0  0  0  0  0  0  0  0  0  0  0
    0.2744    0.6379    5.3900 C   0  0  0  0  0  0  0  0  0  0  0  0
    0.2797    2.0217    5.4306 C   0  0  0  0  0  0  0  0  0  0  0  0
    0.2297    2.7565    4.2569 C   0  0  0  0  0  0  0  0  0  0  0  0
    2.9240    0.1684    3.0710 H   0  0  0  0  0  0  0  0  0  0  0  0
    4.6732    0.2028    2.7059 H   0  0  0  0  0  0  0  0  0  0  0  0
    3.5144   -0.4091    1.4764 H   0  0  0  0  0  0  0  0  0  0  0  0
   -1.7838    3.4510    0.0660 H   0  0  0  0  0  0  0  0  0  0  0  0
   -2.1917    3.4329    1.8108 H   0  0  0  0  0  0  0  0  0  0  0  0
   -1.9855    1.9058    0.8982 H   0  0  0  0  0  0  0  0  0  0  0  0
    6.3595    1.4250   -2.3716 H   0  0  0  0  0  0  0  0  0  0  0  0
    8.1657    2.6967   -1.3707 H   0  0  0  0  0  0  0  0  0  0  0  0
    7.9115    3.6569    0.9029 H   0  0  0  0  0  0  0  0  0  0  0  0
    5.7967    3.2886    2.1353 H   0  0  0  0  0  0  0  0  0  0  0  0
   -1.0897    5.2277    2.8232 H   0  0  0  0  0  0  0  0  0  0  0  0
   -0.3612    7.5652    3.0266 H   0  0  0  0  0  0  0  0  0  0  0  0
    1.7083    8.3206    1.9249 H   0  0  0  0  0  0  0  0  0  0  0  0
    3.0528    6.7323    0.5983 H   0  0  0  0  0  0  0  0  0  0  0  0
    2.3277    4.3736    0.3895 H   0  0  0  0  0  0  0  0  0  0  0  0
    0.1752    0.1952    2.0246 H   0  0  0  0  0  0  0  0  0  0  0  0
    0.2383   -1.1024    4.1400 H   0  0  0  0  0  0  0  0  0  0  0  0
    0.3122    0.0714    6.3084 H   0  0  0  0  0  0  0  0  0  0  0  0
    0.3253    2.5334    6.3806 H   0  0  0  0  0  0  0  0  0  0  0  0
    0.2486    3.8359    4.2922 H   0  0  0  0  0  0  0  0  0  0  0  0
  1  3  1  6  0  0  0
  1  4  1  0  0  0  0
  1  2  1  0  0  0  0
  2 15  1  1  0  0  0
  4 23  1  0  0  0  0
  4 29  1  0  0  0  0
  5  1  1  0  0  0  0
  6 13  1  0  0  0  0
  8 13  1  0  0  0  0
  9 14  1  0  0  0  0
 10 14  1  0  0  0  0
 12 18  1  0  0  0  0
 12  5  1  0  0  0  0
 13  7  1  0  0  0  0
 13 12  1  0  0  0  0
 14 11  1  0  0  0  0
 14 12  1  0  0  0  0
 15 36  1  0  0  0  0
 15 35  1  0  0  0  0
 16  4  1  0  0  0  0
 16 39  1  0  0  0  0
 17 22  1  0  0  0  0
 17  2  1  0  0  0  0
 18 17  2  0  0  0  0
 19 20  2  0  0  0  0
 19 18  1  0  0  0  0
 20 21  1  0  0  0  0
 21 43  1  0  0  0  0
 21 22  2  0  0  0  0
 22 44  1  0  0  0  0
 23 24  1  0  0  0  0
 24 25  2  0  0  0  0
 24 45  1  0  0  0  0
 25 46  1  0  0  0  0
 26 47  1  0  0  0  0
 26 25  1  0  0  0  0
 27 26  2  0  0  0  0
 28 27  1  0  0  0  0
 28 23  2  0  0  0  0
 29 34  1  0  0  0  0
 30 29  2  0  0  0  0
 30 31  1  0  0  0  0
 31 32  2  0  0  0  0
 32 33  1  0  0  0  0
 32 52  1  0  0  0  0
 33 53  1  0  0  0  0
 34 54  1  0  0  0  0
 34 33  2  0  0  0  0
 37 15  1  0  0  0  0
 38 16  1  0  0  0  0
 40 16  1  0  0  0  0
 41 19  1  0  0  0  0
 42 20  1  0  0  0  0
 48 27  1  0  0  0  0
 49 28  1  0  0  0  0
 50 30  1  0  0  0  0
 51 31  1  0  0  0  0
M  END
$$$$
