CSD_code = FOLTIL | q = 0 | S = 0 | Stoichiometry = C18H23Br2CdN5 | MND = 5
 OpenBabel04212202033D

 49 52  0  0  1  0  0  0  0  0999 V2000
    0.8429    3.6417    8.4802 Cd  0  0  0  0  0  0  0  0  0  0  0  0
    2.4628    3.6417   10.4176 Br  0  0  0  0  0  0  0  0  0  0  0  0
   -1.5134    3.6417    7.6206 Br  0  0  0  0  0  0  0  0  0  0  0  0
    1.5185    5.8398    7.6444 N   0  0  1  0  0  0  0  0  0  0  0  0
    2.6651    5.9216    6.9501 N   0  0  0  0  0  0  0  0  0  0  0  0
    3.0466    3.6417    6.5986 N   0  0  0  0  0  0  0  0  0  0  0  0
    0.7942    6.9014    7.3228 C   0  0  2  0  0  3  0  0  0  0  0  0
    1.4943    7.6797    6.3871 C   0  0  0  0  0  0  0  0  0  0  0  0
    1.1704    8.5969    5.9403 H   0  0  0  0  0  0  0  0  0  0  0  0
    2.6835    7.0207    6.1623 C   0  0  0  0  0  0  0  0  0  0  0  0
   -0.5442    7.1573    7.9125 C   0  0  0  0  0  0  0  0  0  0  0  0
   -1.3198    6.6986    7.2983 H   0  0  0  0  0  0  0  0  0  0  0  0
   -0.7337    8.2263    7.9669 H   0  0  0  0  0  0  0  0  0  0  0  0
   -0.6049    6.7266    8.9120 H   0  0  0  0  0  0  0  0  0  0  0  0
    3.8132    7.3660    5.2623 C   0  0  0  0  0  0  0  0  0  0  0  0
    4.7350    7.5070    5.8264 H   0  0  0  0  0  0  0  0  0  0  0  0
    3.5846    8.2902    4.7396 H   0  0  0  0  0  0  0  0  0  0  0  0
    3.9725    6.5799    4.5235 H   0  0  0  0  0  0  0  0  0  0  0  0
    3.6411    4.8757    7.0859 C   0  0  0  0  0  0  0  0  0  0  0  0
    3.8807    4.7488    8.1492 H   0  0  0  0  0  0  0  0  0  0  0  0
    4.5471    5.1717    6.5373 H   0  0  0  0  0  0  0  0  0  0  0  0
    2.8561    3.6417    5.1715 C   0  0  0  0  0  0  0  0  0  0  0  0
    3.9354    3.6417    4.2947 C   0  0  0  0  0  0  0  0  0  0  0  0
    4.9479    3.6417    4.6766 H   0  0  0  0  0  0  0  0  0  0  0  0
    3.7147    3.6417    2.9290 C   0  0  0  0  0  0  0  0  0  0  0  0
    4.5554    3.6417    2.2507 H   0  0  0  0  0  0  0  0  0  0  0  0
    2.4207    3.6417    2.4345 C   0  0  0  0  0  0  0  0  0  0  0  0
    2.2529    3.6417    1.3683 H   0  0  0  0  0  0  0  0  0  0  0  0
    1.3462    3.6417    3.3075 C   0  0  0  0  0  0  0  0  0  0  0  0
    0.3366    3.6417    2.9270 H   0  0  0  0  0  0  0  0  0  0  0  0
    1.5616    3.6417    4.6751 C   0  0  0  0  0  0  0  0  0  0  0  0
    0.7273    3.6417    5.3639 H   0  0  0  0  0  0  0  0  0  0  0  0
    1.5185    1.4436    7.6444 N   0  0  2  0  0  0  0  0  0  0  0  0
    2.6651    1.3617    6.9501 N   0  0  0  0  0  0  0  0  0  0  0  0
    0.7942    0.3820    7.3228 C   0  0  1  0  0  3  0  0  0  0  0  0
    1.4943   -0.3963    6.3871 C   0  0  0  0  0  0  0  0  0  0  0  0
    1.1704   -1.3135    5.9403 H   0  0  0  0  0  0  0  0  0  0  0  0
    2.6835    0.2626    6.1623 C   0  0  0  0  0  0  0  0  0  0  0  0
   -0.5442    0.1261    7.9125 C   0  0  0  0  0  0  0  0  0  0  0  0
   -1.3198    0.5847    7.2982 H   0  0  0  0  0  0  0  0  0  0  0  0
   -0.7338   -0.9429    7.9668 H   0  0  0  0  0  0  0  0  0  0  0  0
   -0.6049    0.5568    8.9120 H   0  0  0  0  0  0  0  0  0  0  0  0
    3.8132   -0.0827    5.2623 C   0  0  0  0  0  0  0  0  0  0  0  0
    4.7350   -0.2237    5.8265 H   0  0  0  0  0  0  0  0  0  0  0  0
    3.5846   -1.0069    4.7396 H   0  0  0  0  0  0  0  0  0  0  0  0
    3.9725    0.7034    4.5235 H   0  0  0  0  0  0  0  0  0  0  0  0
    3.6411    2.4076    7.0859 C   0  0  0  0  0  0  0  0  0  0  0  0
    3.8807    2.5345    8.1492 H   0  0  0  0  0  0  0  0  0  0  0  0
    4.5471    2.1116    6.5373 H   0  0  0  0  0  0  0  0  0  0  0  0
  1  2  1  0  0  0  0
  3  1  1  0  0  0  0
  4  5  1  6  0  0  0
  4  1  1  0  0  0  0
  5 19  1  0  0  0  0
  6 19  1  0  0  0  0
  6 47  1  0  0  0  0
  7  4  1  0  0  0  0
  7 11  1  1  0  0  0
  8  7  1  0  0  0  0
  9  8  1  0  0  0  0
 10  8  2  0  0  0  0
 10  5  1  0  0  0  0
 11 13  1  0  0  0  0
 11 14  1  0  0  0  0
 12 11  1  0  0  0  0
 15 16  1  0  0  0  0
 15 10  1  0  0  0  0
 17 15  1  0  0  0  0
 18 15  1  0  0  0  0
 19 20  1  0  0  0  0
 21 19  1  0  0  0  0
 22  6  1  0  0  0  0
 23 24  1  0  0  0  0
 23 22  2  0  0  0  0
 25 23  1  0  0  0  0
 26 25  1  0  0  0  0
 27 25  2  0  0  0  0
 27 29  1  0  0  0  0
 28 27  1  0  0  0  0
 29 31  2  0  0  0  0
 30 29  1  0  0  0  0
 31 22  1  0  0  0  0
 31 32  1  0  0  0  0
 33 34  1  6  0  0  0
 33  1  1  0  0  0  0
 34 47  1  0  0  0  0
 35 33  1  0  0  0  0
 35 39  1  1  0  0  0
 36 35  1  0  0  0  0
 37 36  1  0  0  0  0
 38 36  2  0  0  0  0
 38 34  1  0  0  0  0
 39 41  1  0  0  0  0
 39 42  1  0  0  0  0
 40 39  1  0  0  0  0
 43 44  1  0  0  0  0
 43 38  1  0  0  0  0
 45 43  1  0  0  0  0
 46 43  1  0  0  0  0
 47 48  1  0  0  0  0
 49 47  1  0  0  0  0
M  END
$$$$
