CSD_code = FOLTOR | q = 0 | S = 0 | Stoichiometry = C16H19Br2CdN5 | MND = 4
 OpenBabel04212202033D

 43 46  0  0  1  0  0  0  0  0999 V2000
    1.3427    4.1555   10.8975 Cd  0  0  0  0  0  0  0  0  0  0  0  0
    1.1572    1.6488   10.7664 Br  0  0  0  0  0  0  0  0  0  0  0  0
    1.5125    5.9798   12.5554 Br  0  0  0  0  0  0  0  0  0  0  0  0
    3.0621    4.6528    9.3274 N   0  0  1  0  0  0  0  0  0  0  0  0
    3.2384    4.1865    8.0878 N   0  0  0  0  0  0  0  0  0  0  0  0
    3.9266    5.6444    9.4868 C   0  0  0  0  0  3  0  0  0  0  0  0
    3.9807    6.1838   10.4150 H   0  0  0  0  0  0  0  0  0  0  0  0
    4.6773    5.8252    8.3230 C   0  0  0  0  0  0  0  0  0  0  0  0
    5.4526    6.5424    8.1524 H   0  0  0  0  0  0  0  0  0  0  0  0
    4.2000    4.8749    7.4495 C   0  0  0  0  0  0  0  0  0  0  0  0
    4.4752    4.6486    6.4392 H   0  0  0  0  0  0  0  0  0  0  0  0
    2.3976    3.1401    7.5316 C   0  0  0  0  0  0  0  0  0  0  0  0
    2.9770    2.6816    6.7197 H   0  0  0  0  0  0  0  0  0  0  0  0
    2.2151    2.3978    8.3155 H   0  0  0  0  0  0  0  0  0  0  0  0
   -0.1024    3.2950    7.6162 C   0  0  0  0  0  0  0  0  0  0  0  0
    0.0409    2.5192    8.3761 H   0  0  0  0  0  0  0  0  0  0  0  0
   -0.7922    2.9301    6.8437 H   0  0  0  0  0  0  0  0  0  0  0  0
   -0.7684    4.4229    8.2461 N   0  0  1  0  0  0  0  0  0  0  0  0
   -0.4198    4.8656    9.4576 N   0  0  0  0  0  0  0  0  0  0  0  0
   -1.7278    5.1972    7.7114 C   0  0  0  0  0  3  0  0  0  0  0  0
   -2.1304    5.0002    6.7383 H   0  0  0  0  0  0  0  0  0  0  0  0
   -2.0207    6.1835    8.6253 C   0  0  0  0  0  0  0  0  0  0  0  0
   -2.7421    6.9683    8.5348 H   0  0  0  0  0  0  0  0  0  0  0  0
   -1.1687    5.9309    9.7028 C   0  0  0  0  0  0  0  0  0  0  0  0
   -1.0728    6.4705   10.6276 H   0  0  0  0  0  0  0  0  0  0  0  0
    1.1573    3.6633    7.0474 N   0  0  0  0  0  0  0  0  0  0  0  0
    1.1531    4.2374    5.7390 C   0  0  0  0  0  0  0  0  0  0  0  0
    1.1111    3.4021    4.6178 C   0  0  0  0  0  0  0  0  0  0  0  0
    1.0885    1.9057    4.7352 C   0  0  0  0  0  0  0  0  0  0  0  0
    0.3106    1.4936    4.0951 H   0  0  0  0  0  0  0  0  0  0  0  0
    0.9151    1.5718    5.7537 H   0  0  0  0  0  0  0  0  0  0  0  0
    2.0396    1.4937    4.3972 H   0  0  0  0  0  0  0  0  0  0  0  0
    1.1047    3.9763    3.3536 C   0  0  0  0  0  0  0  0  0  0  0  0
    1.0718    3.3350    2.4851 H   0  0  0  0  0  0  0  0  0  0  0  0
    1.1398    5.3495    3.1996 C   0  0  0  0  0  0  0  0  0  0  0  0
    1.1328    5.7829    2.2109 H   0  0  0  0  0  0  0  0  0  0  0  0
    1.1859    6.1652    4.3131 C   0  0  0  0  0  0  0  0  0  0  0  0
    1.2173    7.2385    4.1970 H   0  0  0  0  0  0  0  0  0  0  0  0
    1.1949    5.6258    5.5943 C   0  0  0  0  0  0  0  0  0  0  0  0
    1.2540    6.5587    6.7668 C   0  0  0  0  0  0  0  0  0  0  0  0
    1.3124    6.0272    7.7126 H   0  0  0  0  0  0  0  0  0  0  0  0
    0.3695    7.1947    6.7845 H   0  0  0  0  0  0  0  0  0  0  0  0
    2.1248    7.2074    6.6826 H   0  0  0  0  0  0  0  0  0  0  0  0
  1  3  1  0  0  0  0
  2  1  1  0  0  0  0
  4  6  1  6  0  0  0
  4  1  1  0  0  0  0
  5  4  1  0  0  0  0
  6  7  1  0  0  0  0
  8  6  1  0  0  0  0
  9  8  1  0  0  0  0
 10  5  1  0  0  0  0
 10  8  2  0  0  0  0
 11 10  1  0  0  0  0
 12  5  1  0  0  0  0
 12 14  1  0  0  0  0
 13 12  1  0  0  0  0
 15 18  1  0  0  0  0
 15 16  1  0  0  0  0
 17 15  1  0  0  0  0
 18 20  1  6  0  0  0
 18 19  1  0  0  0  0
 19 24  1  0  0  0  0
 19  1  1  0  0  0  0
 20 22  1  0  0  0  0
 21 20  1  0  0  0  0
 22 24  2  0  0  0  0
 23 22  1  0  0  0  0
 24 25  1  0  0  0  0
 26 12  1  0  0  0  0
 26 15  1  0  0  0  0
 27 26  1  0  0  0  0
 28 29  1  0  0  0  0
 28 27  2  0  0  0  0
 29 31  1  0  0  0  0
 30 29  1  0  0  0  0
 32 29  1  0  0  0  0
 33 28  1  0  0  0  0
 34 33  1  0  0  0  0
 35 33  2  0  0  0  0
 35 37  1  0  0  0  0
 36 35  1  0  0  0  0
 37 39  2  0  0  0  0
 38 37  1  0  0  0  0
 39 27  1  0  0  0  0
 39 40  1  0  0  0  0
 40 42  1  0  0  0  0
 40 41  1  0  0  0  0
 43 40  1  0  0  0  0
M  END
$$$$
