CSD_code = FOMVUB | q = 0 | S = 0 | Stoichiometry = C29H32Cl3N3O2Pd | MND = 4
 OpenBabel04212202033D

 70 73  0  0  0  0  0  0  0  0999 V2000
    9.3930    0.9226   15.4246 Pd  0  0  0  0  0  0  0  0  0  0  0  0
    7.8381   -0.3827   14.3678 Cl  0  0  0  0  0  0  0  0  0  0  0  0
   10.7160    2.1400   16.8749 Cl  0  0  0  0  0  0  0  0  0  0  0  0
    8.9870   -0.2222   17.0171 N   0  0  0  0  0  0  0  0  0  0  0  0
    9.9280    2.0554   13.9743 C   0  0  0  0  0  0  0  0  0  0  0  0
    9.1103    2.9757   13.4248 N   0  0  0  0  0  0  0  0  0  0  0  0
   11.2122    2.0028   13.5587 N   0  0  0  0  0  0  0  0  0  0  0  0
    7.6968   -0.8568   18.9024 C   0  0  0  0  0  0  0  0  0  0  0  0
    6.8313   -0.6914   19.5239 H   0  0  0  0  0  0  0  0  0  0  0  0
    7.9304   -0.0480   17.8019 C   0  0  0  0  0  3  0  0  0  0  0  0
    7.2541    0.7580   17.5294 H   0  0  0  0  0  0  0  0  0  0  0  0
    9.8543   -1.1933   17.2720 C   0  0  0  0  0  0  0  0  0  0  0  0
   10.7052   -1.2915   16.5977 H   0  0  0  0  0  0  0  0  0  0  0  0
    8.5877   -1.8770   19.1911 C   0  0  0  0  0  0  0  0  0  0  0  0
    8.4401   -2.5276   20.0389 H   0  0  0  0  0  0  0  0  0  0  0  0
   10.8323   -3.2913   18.6491 Cl  0  0  0  0  0  0  0  0  0  0  0  0
    9.6855   -2.0455   18.3556 C   0  0  0  0  0  0  0  0  0  0  0  0
   11.9759    0.8774   14.0514 C   0  0  0  0  0  0  0  0  0  0  0  0
   11.5982   -0.4120   13.6483 C   0  0  0  0  0  0  0  0  0  0  0  0
    9.5185    4.0121   12.5943 C   0  0  0  0  0  0  0  0  0  0  0  0
    5.6275    1.9248   12.7358 C   0  0  0  0  0  0  0  0  0  0  0  0
    5.0692    1.4540   11.9404 H   0  0  0  0  0  0  0  0  0  0  0  0
    7.0631    3.1365   14.7878 C   0  0  0  0  0  0  0  0  0  0  0  0
   12.8154    2.6567   12.0902 O   0  0  0  0  0  0  0  0  0  0  0  0
    8.7294    4.7346   12.0435 O   0  0  0  0  0  0  0  0  0  0  0  0
   10.6580   -0.6402   12.5011 C   0  0  0  0  0  0  0  0  0  0  0  0
    9.6193   -0.6823   12.8376 H   0  0  0  0  0  0  0  0  0  0  0  0
   10.8893   -1.5900   12.0250 H   0  0  0  0  0  0  0  0  0  0  0  0
   10.7591    0.1513   11.7595 H   0  0  0  0  0  0  0  0  0  0  0  0
    7.6543    1.7925   11.2719 C   0  0  0  0  0  0  0  0  0  0  0  0
    6.9893    1.1921   10.6580 H   0  0  0  0  0  0  0  0  0  0  0  0
    8.5566    1.2150   11.4666 H   0  0  0  0  0  0  0  0  0  0  0  0
    7.9270    2.6884   10.7141 H   0  0  0  0  0  0  0  0  0  0  0  0
    7.6885    2.7633   13.5983 C   0  0  0  0  0  0  0  0  0  0  0  0
   13.1894   -1.3243   15.2338 C   0  0  0  0  0  0  0  0  0  0  0  0
    5.7084    2.8608   14.9286 C   0  0  0  0  0  0  0  0  0  0  0  0
    5.2137    3.1369   15.8495 H   0  0  0  0  0  0  0  0  0  0  0  0
   12.2015   -1.4975   14.2752 C   0  0  0  0  0  0  0  0  0  0  0  0
   11.8988   -2.4952   13.9902 H   0  0  0  0  0  0  0  0  0  0  0  0
    7.8041    3.8523   15.8800 C   0  0  0  0  0  0  0  0  0  0  0  0
    8.4298    3.1557   16.4556 H   0  0  0  0  0  0  0  0  0  0  0  0
    7.1021    4.3218   16.5650 H   0  0  0  0  0  0  0  0  0  0  0  0
    8.4528    4.6231   15.4651 H   0  0  0  0  0  0  0  0  0  0  0  0
   13.5763    2.4461   15.2339 C   0  0  0  0  0  0  0  0  0  0  0  0
   13.9038    2.9403   14.3211 H   0  0  0  0  0  0  0  0  0  0  0  0
   14.4216    2.3759   15.9126 H   0  0  0  0  0  0  0  0  0  0  0  0
   12.8063    3.0498   15.7097 H   0  0  0  0  0  0  0  0  0  0  0  0
   13.6331   -0.0367   15.5049 C   0  0  0  0  0  0  0  0  0  0  0  0
   14.4461    0.1039   16.2018 H   0  0  0  0  0  0  0  0  0  0  0  0
   11.7828    2.8980   12.6598 C   0  0  0  0  0  0  0  0  0  0  0  0
   13.0500    1.0805   14.9243 C   0  0  0  0  0  0  0  0  0  0  0  0
   11.0228    4.2038   12.5413 C   0  0  0  0  0  0  0  0  0  0  0  0
    6.9790    2.1670   12.5547 C   0  0  0  0  0  0  0  0  0  0  0  0
    4.9815    2.2484   13.9205 C   0  0  0  0  0  0  0  0  0  0  0  0
    3.5300    1.9263   14.0994 C   0  0  0  0  0  0  0  0  0  0  0  0
    2.9622    2.2094   13.2155 H   0  0  0  0  0  0  0  0  0  0  0  0
    3.1175    2.4403   14.9638 H   0  0  0  0  0  0  0  0  0  0  0  0
    3.4077    0.8532   14.2451 H   0  0  0  0  0  0  0  0  0  0  0  0
   13.8058   -2.4984   15.9315 C   0  0  0  0  0  0  0  0  0  0  0  0
   13.2487   -3.4099   15.7297 H   0  0  0  0  0  0  0  0  0  0  0  0
   13.8321   -2.3318   17.0072 H   0  0  0  0  0  0  0  0  0  0  0  0
   14.8318   -2.6401   15.5933 H   0  0  0  0  0  0  0  0  0  0  0  0
   11.4246    4.9477   11.2691 C   0  0  0  0  0  0  0  0  0  0  0  0
   11.1957    4.3455   10.3927 H   0  0  0  0  0  0  0  0  0  0  0  0
   12.4920    5.1489   11.2787 H   0  0  0  0  0  0  0  0  0  0  0  0
   10.8763    5.8829   11.2004 H   0  0  0  0  0  0  0  0  0  0  0  0
   11.3764    5.0397   13.7929 C   0  0  0  0  0  0  0  0  0  0  0  0
   10.8410    5.9863   13.7562 H   0  0  0  0  0  0  0  0  0  0  0  0
   12.4445    5.2436   13.8084 H   0  0  0  0  0  0  0  0  0  0  0  0
   11.1052    4.5161   14.7090 H   0  0  0  0  0  0  0  0  0  0  0  0
  1  3  1  0  0  0  0
  1  4  1  0  0  0  0
  2  1  1  0  0  0  0
  4 12  1  0  0  0  0
  4 10  1  0  0  0  0
  5  1  2  0  0  0  0
  6 34  1  0  0  0  0
  6  5  1  0  0  0  0
  7  5  1  0  0  0  0
  7 18  1  0  0  0  0
  8 14  2  0  0  0  0
  8  9  1  0  0  0  0
 10  8  1  0  0  0  0
 11 10  1  0  0  0  0
 12 17  2  0  0  0  0
 13 12  1  0  0  0  0
 14 15  1  0  0  0  0
 17 16  1  0  0  0  0
 17 14  1  0  0  0  0
 18 51  1  0  0  0  0
 19 18  2  0  0  0  0
 19 38  1  0  0  0  0
 20  6  1  0  0  0  0
 21 54  1  0  0  0  0
 22 21  1  0  0  0  0
 23 36  1  0  0  0  0
 23 40  1  0  0  0  0
 24 50  2  0  0  0  0
 25 20  2  0  0  0  0
 26 27  1  0  0  0  0
 26 19  1  0  0  0  0
 28 26  1  0  0  0  0
 29 26  1  0  0  0  0
 30 32  1  0  0  0  0
 30 53  1  0  0  0  0
 31 30  1  0  0  0  0
 33 30  1  0  0  0  0
 34 23  2  0  0  0  0
 35 48  1  0  0  0  0
 35 59  1  0  0  0  0
 36 37  1  0  0  0  0
 38 35  2  0  0  0  0
 39 38  1  0  0  0  0
 40 41  1  0  0  0  0
 40 42  1  0  0  0  0
 43 40  1  0  0  0  0
 44 47  1  0  0  0  0
 44 46  1  0  0  0  0
 45 44  1  0  0  0  0
 48 49  1  0  0  0  0
 50  7  1  0  0  0  0
 51 44  1  0  0  0  0
 51 48  2  0  0  0  0
 52 20  1  0  0  0  0
 52 50  1  0  0  0  0
 52 67  1  0  0  0  0
 53 21  2  0  0  0  0
 53 34  1  0  0  0  0
 54 55  1  0  0  0  0
 54 36  2  0  0  0  0
 55 58  1  0  0  0  0
 55 57  1  0  0  0  0
 56 55  1  0  0  0  0
 59 61  1  0  0  0  0
 60 59  1  0  0  0  0
 62 59  1  0  0  0  0
 63 65  1  0  0  0  0
 63 52  1  0  0  0  0
 64 63  1  0  0  0  0
 66 63  1  0  0  0  0
 67 69  1  0  0  0  0
 67 70  1  0  0  0  0
 68 67  1  0  0  0  0
M  END
$$$$
