CSD_code = FONLIF | q = 0 | S = 0 | Stoichiometry = C33H30IN3OPt | MND = 6
 OpenBabel04212202033D

 69 74  0  0  1  0  0  0  0  0999 V2000
   12.9435   17.7117   18.2942 C   0  0  0  0  0  3  0  0  0  0  0  0
   13.8958   18.1358   18.0063 H   0  0  0  0  0  0  0  0  0  0  0  0
   12.8964   16.5681   19.0706 C   0  0  0  0  0  0  0  0  0  0  0  0
   13.8093   16.1022   19.4041 H   0  0  0  0  0  0  0  0  0  0  0  0
   11.6566   16.0335   19.3858 C   0  0  0  0  0  0  0  0  0  0  0  0
   11.5755   15.1311   19.9727 H   0  0  0  0  0  0  0  0  0  0  0  0
   10.5229   16.6696   18.9169 C   0  0  0  0  0  0  0  0  0  0  0  0
    9.5436   16.2613   19.1104 H   0  0  0  0  0  0  0  0  0  0  0  0
   10.6591   17.8278   18.1523 C   0  0  0  0  0  0  0  0  0  0  0  0
    9.4796   18.5041   17.5884 C   0  0  2  0  0  3  0  0  0  0  0  0
    8.5476   19.5945   15.7992 C   0  0  0  0  0  0  0  0  0  0  0  0
    7.3154   19.6671   16.4395 C   0  0  0  0  0  0  0  0  0  0  0  0
    6.4918   20.1197   15.9117 H   0  0  0  0  0  0  0  0  0  0  0  0
    7.1633   19.1457   17.7203 C   0  0  0  0  0  0  0  0  0  0  0  0
    8.2752   18.5156   18.2784 C   0  0  0  0  0  0  0  0  0  0  0  0
    8.2204   18.0919   19.2688 H   0  0  0  0  0  0  0  0  0  0  0  0
    8.6347   20.0557   14.4033 C   0  0  0  0  0  0  0  0  0  0  0  0
    9.3677   19.3423   13.4583 C   0  0  0  0  0  0  0  0  0  0  0  0
    9.8908   18.4426   13.7348 H   0  0  0  0  0  0  0  0  0  0  0  0
    9.3944   19.8106   12.1556 C   0  0  0  0  0  0  0  0  0  0  0  0
    9.9646   19.2863   11.4033 H   0  0  0  0  0  0  0  0  0  0  0  0
    8.6834   20.9577   11.8426 C   0  0  0  0  0  0  0  0  0  0  0  0
    8.6861   21.3632   10.8429 H   0  0  0  0  0  0  0  0  0  0  0  0
    7.9509   21.5707   12.8500 C   0  0  0  0  0  0  0  0  0  0  0  0
    7.3611   22.4573   12.6547 H   0  0  0  0  0  0  0  0  0  0  0  0
    5.8896   19.2342   18.4367 C   0  0  0  0  0  0  0  0  0  0  0  0
    5.4471   18.1846   19.2429 C   0  0  0  0  0  0  0  0  0  0  0  0
    6.0402   17.2852   19.3258 H   0  0  0  0  0  0  0  0  0  0  0  0
    4.2416   18.2642   19.9050 C   0  0  0  0  0  0  0  0  0  0  0  0
    3.8992   17.4430   20.5175 H   0  0  0  0  0  0  0  0  0  0  0  0
    3.4470   19.4080   19.7865 C   0  0  0  0  0  0  0  0  0  0  0  0
    3.8912   20.4650   18.9867 C   0  0  0  0  0  0  0  0  0  0  0  0
    3.2823   21.3526   18.8976 H   0  0  0  0  0  0  0  0  0  0  0  0
    5.0919   20.3736   18.3180 C   0  0  0  0  0  0  0  0  0  0  0  0
    5.4330   21.2012   17.7136 H   0  0  0  0  0  0  0  0  0  0  0  0
    2.2129   19.4905   20.4595 C   0  0  0  0  0  0  0  0  0  0  0  0
    1.1489   19.5564   21.0292 C   0  0  0  0  0  0  0  0  0  0  0  0
   -0.0924   19.6305   21.6906 C   0  0  0  0  0  0  0  0  0  0  0  0
   -0.5323   18.5775   22.4915 C   0  0  0  0  0  0  0  0  0  0  0  0
    0.0897   17.7016   22.6049 H   0  0  0  0  0  0  0  0  0  0  0  0
   -1.7509   18.6411   23.1390 C   0  0  0  0  0  0  0  0  0  0  0  0
   -2.0618   17.8089   23.7511 H   0  0  0  0  0  0  0  0  0  0  0  0
   -2.5578   19.7669   22.9964 C   0  0  0  0  0  0  0  0  0  0  0  0
   -2.1185   20.8254   22.1950 C   0  0  0  0  0  0  0  0  0  0  0  0
   -2.7568   21.6893   22.0968 H   0  0  0  0  0  0  0  0  0  0  0  0
   -0.9058   20.7605   21.5515 C   0  0  0  0  0  0  0  0  0  0  0  0
   -0.5729   21.5810   20.9334 H   0  0  0  0  0  0  0  0  0  0  0  0
   -4.2784   18.9083   24.3998 C   0  0  0  0  0  0  0  0  0  0  0  0
   -4.4147   17.9784   23.8381 H   0  0  0  0  0  0  0  0  0  0  0  0
   -5.2470   19.2610   24.7503 H   0  0  0  0  0  0  0  0  0  0  0  0
   -3.6290   18.7219   25.2612 H   0  0  0  0  0  0  0  0  0  0  0  0
   11.5024   21.4116   14.8705 C   0  0  0  0  0  0  0  0  0  0  0  0
   12.1838   22.2561   14.9783 H   0  0  0  0  0  0  0  0  0  0  0  0
   10.4822   21.7973   14.9308 H   0  0  0  0  0  0  0  0  0  0  0  0
   11.6570   20.9770   13.8804 H   0  0  0  0  0  0  0  0  0  0  0  0
   13.6548   20.7142   16.5251 C   0  0  0  0  0  0  0  0  0  0  0  0
   14.1813   20.7035   15.5696 H   0  0  0  0  0  0  0  0  0  0  0  0
   14.1865   20.0631   17.2240 H   0  0  0  0  0  0  0  0  0  0  0  0
   13.6733   21.7288   16.9214 H   0  0  0  0  0  0  0  0  0  0  0  0
   11.0888   21.3240   17.6896 C   0  0  0  0  0  0  0  0  0  0  0  0
   11.4086   20.9951   18.6822 H   0  0  0  0  0  0  0  0  0  0  0  0
    9.9971   21.3662   17.6798 H   0  0  0  0  0  0  0  0  0  0  0  0
   11.4542   22.3374   17.5371 H   0  0  0  0  0  0  0  0  0  0  0  0
   11.8586   18.3301   17.8509 N   0  0  0  0  0  0  0  0  0  0  0  0
    9.6309   19.0767   16.3855 N   0  0  0  0  0  0  0  0  0  0  0  0
    7.9170   21.1343   14.0937 N   0  0  0  0  0  0  0  0  0  0  0  0
   -3.7721   19.9360   23.5832 O   0  0  0  0  0  0  0  0  0  0  0  0
   12.6853   18.0116   14.6231 I   0  0  0  0  0  0  0  0  0  0  0  0
   11.7571   19.9471   16.2982 Pt  0  0  0  0  0  0  0  0  0  0  0  0
  1  3  1  0  0  0  0
  2  1  1  0  0  0  0
  3  5  2  0  0  0  0
  3  4  1  0  0  0  0
  5  6  1  0  0  0  0
  7  8  1  0  0  0  0
  7  5  1  0  0  0  0
  9  7  2  0  0  0  0
 10  9  1  6  0  0  0
 10 15  1  0  0  0  0
 11 65  1  0  0  0  0
 11 12  2  0  0  0  0
 12 14  1  0  0  0  0
 13 12  1  0  0  0  0
 14 15  2  0  0  0  0
 14 26  1  0  0  0  0
 15 16  1  0  0  0  0
 17 11  1  0  0  0  0
 18 19  1  0  0  0  0
 18 17  2  0  0  0  0
 20 18  1  0  0  0  0
 21 20  1  0  0  0  0
 22 20  2  0  0  0  0
 22 24  1  0  0  0  0
 23 22  1  0  0  0  0
 24 66  2  0  0  0  0
 25 24  1  0  0  0  0
 26 27  1  0  0  0  0
 27 28  1  0  0  0  0
 27 29  2  0  0  0  0
 29 30  1  0  0  0  0
 31 29  1  0  0  0  0
 31 36  1  0  0  0  0
 32 31  2  0  0  0  0
 33 32  1  0  0  0  0
 34 26  2  0  0  0  0
 34 32  1  0  0  0  0
 35 34  1  0  0  0  0
 36 37  3  0  0  0  0
 37 38  1  0  0  0  0
 38 39  1  0  0  0  0
 39 40  1  0  0  0  0
 39 41  2  0  0  0  0
 41 42  1  0  0  0  0
 43 41  1  0  0  0  0
 43 67  1  0  0  0  0
 44 43  2  0  0  0  0
 45 44  1  0  0  0  0
 46 38  2  0  0  0  0
 46 44  1  0  0  0  0
 47 46  1  0  0  0  0
 48 50  1  0  0  0  0
 48 51  1  0  0  0  0
 49 48  1  0  0  0  0
 52 54  1  0  0  0  0
 52 53  1  0  0  0  0
 52 69  1  0  0  0  0
 55 52  1  0  0  0  0
 56 59  1  0  0  0  0
 56 58  1  0  0  0  0
 57 56  1  0  0  0  0
 60 61  1  0  0  0  0
 62 60  1  0  0  0  0
 63 60  1  0  0  0  0
 64  9  1  0  0  0  0
 64  1  1  0  0  0  0
 65 10  1  0  0  0  0
 66 17  1  0  0  0  0
 67 48  1  0  0  0  0
 68 69  1  0  0  0  0
 69 65  1  0  0  0  0
 69 56  1  0  0  0  0
 69 60  1  0  0  0  0
 69 64  1  0  0  0  0
M  END
$$$$
