CSD_code = FOPNIK | q = 1 | S = 0 | Stoichiometry = C29H23ClF2N3Pt(1+) | MND = 6
 OpenBabel04212202033D

 59 65  0  0  1  0  0  0  0  0999 V2000
    7.1114    5.2956    3.2536 Pt  0  0  0  0  0  0  0  0  0  0  0  0
    8.0697    4.4050    1.3560 Cl  0  0  0  0  0  0  0  0  0  0  0  0
    6.3078    6.0247    5.0050 N   0  0  0  0  0  0  0  0  0  0  0  0
    5.2754    5.0233    2.1269 N   0  0  0  0  0  0  0  0  0  0  0  0
    7.5374    7.4066    2.5177 N   0  0  0  0  0  0  0  0  0  0  0  0
    8.7997    5.4791    4.3382 C   0  0  0  0  0  0  0  0  0  0  0  0
   10.0746    5.1476    3.9225 C   0  0  0  0  0  0  0  0  0  0  0  0
   10.2540    4.6806    2.9655 H   0  0  0  0  0  0  0  0  0  0  0  0
   11.1513    5.4050    4.7606 C   0  0  0  0  0  0  0  0  0  0  0  0
   12.3806    5.0859    4.3541 F   0  0  0  0  0  0  0  0  0  0  0  0
   10.9885    5.9891    6.0051 C   0  0  0  0  0  0  0  0  0  0  0  0
   11.8325    6.1882    6.6451 H   0  0  0  0  0  0  0  0  0  0  0  0
    9.7085    6.3085    6.4103 C   0  0  0  0  0  0  0  0  0  0  0  0
    9.5699    6.8770    7.6184 F   0  0  0  0  0  0  0  0  0  0  0  0
    8.5886    6.0642    5.6066 C   0  0  0  0  0  0  0  0  0  0  0  0
    7.2021    6.3405    5.9654 C   0  0  2  0  0  3  0  0  0  0  0  0
    6.7555    6.8675    7.1801 C   0  0  0  0  0  0  0  0  0  0  0  0
    7.4569    7.1251    7.9543 H   0  0  0  0  0  0  0  0  0  0  0  0
    5.4026    7.0545    7.3907 C   0  0  0  0  0  0  0  0  0  0  0  0
    5.0509    7.4584    8.3269 H   0  0  0  0  0  0  0  0  0  0  0  0
    4.5043    6.7124    6.3880 C   0  0  0  0  0  0  0  0  0  0  0  0
    3.4420    6.8377    6.5174 H   0  0  0  0  0  0  0  0  0  0  0  0
    5.0059    6.1978    5.2084 C   0  0  0  0  0  0  0  0  0  0  0  0
    4.3434    5.9128    4.4003 H   0  0  0  0  0  0  0  0  0  0  0  0
    6.6468    3.4039    3.8170 C   0  0  0  0  0  0  0  0  0  0  0  0
    7.3341    2.6397    4.7339 C   0  0  0  0  0  0  0  0  0  0  0  0
    8.2226    3.0222    5.2171 H   0  0  0  0  0  0  0  0  0  0  0  0
    6.9063    1.3489    5.0455 C   0  0  0  0  0  0  0  0  0  0  0  0
    5.7684    0.8542    4.4144 C   0  0  0  0  0  0  0  0  0  0  0  0
    5.4256   -0.1421    4.6486 H   0  0  0  0  0  0  0  0  0  0  0  0
    5.0814    1.6107    3.4908 C   0  0  0  0  0  0  0  0  0  0  0  0
    4.2033    1.1985    3.0194 H   0  0  0  0  0  0  0  0  0  0  0  0
    5.5116    2.9015    3.1682 C   0  0  0  0  0  0  0  0  0  0  0  0
    4.8515    3.7457    2.1755 C   0  0  2  0  0  3  0  0  0  0  0  0
    3.8621    3.2986    1.2976 C   0  0  0  0  0  0  0  0  0  0  0  0
    3.5392    2.2717    1.3251 H   0  0  0  0  0  0  0  0  0  0  0  0
    3.3213    4.1716    0.3743 C   0  0  0  0  0  0  0  0  0  0  0  0
    2.5645    3.8354   -0.3171 H   0  0  0  0  0  0  0  0  0  0  0  0
    3.7733    5.4844    0.3414 C   0  0  0  0  0  0  0  0  0  0  0  0
    3.3810    6.1959   -0.3662 H   0  0  0  0  0  0  0  0  0  0  0  0
    4.7575    5.8600    1.2352 C   0  0  0  0  0  0  0  0  0  0  0  0
    5.1441    6.8715    1.2371 H   0  0  0  0  0  0  0  0  0  0  0  0
    7.6444    0.5155    6.0394 C   0  0  0  0  0  0  0  0  0  0  0  0
    7.8667   -0.4638    5.6204 H   0  0  0  0  0  0  0  0  0  0  0  0
    7.0309    0.3604    6.9265 H   0  0  0  0  0  0  0  0  0  0  0  0
    8.5747    0.9890    6.3395 H   0  0  0  0  0  0  0  0  0  0  0  0
    6.7626    8.4466    2.8242 C   0  0  0  0  0  3  0  0  0  0  0  0
    5.9075    8.2518    3.4610 H   0  0  0  0  0  0  0  0  0  0  0  0
    7.0063    9.7271    2.3687 C   0  0  0  0  0  0  0  0  0  0  0  0
    6.3424   10.5299    2.6491 H   0  0  0  0  0  0  0  0  0  0  0  0
    8.1075    9.9701    1.5507 C   0  0  0  0  0  0  0  0  0  0  0  0
    8.9111    8.8743    1.2402 C   0  0  0  0  0  0  0  0  0  0  0  0
    9.7786    8.9945    0.6108 H   0  0  0  0  0  0  0  0  0  0  0  0
    8.5963    7.6261    1.7380 C   0  0  0  0  0  0  0  0  0  0  0  0
    9.2004    6.7629    1.4955 H   0  0  0  0  0  0  0  0  0  0  0  0
    8.4119   11.3257    1.0197 C   0  0  0  0  0  0  0  0  0  0  0  0
    8.2542   11.3430   -0.0586 H   0  0  0  0  0  0  0  0  0  0  0  0
    9.4553   11.5781    1.1980 H   0  0  0  0  0  0  0  0  0  0  0  0
    7.7783   12.0818    1.4747 H   0  0  0  0  0  0  0  0  0  0  0  0
  1 25  1  0  0  0  0
  1  6  1  0  0  0  0
  1  3  1  0  0  0  0
  2  1  1  0  0  0  0
  3 23  1  0  0  0  0
  3 16  1  0  0  0  0
  4 34  1  0  0  0  0
  4  1  1  0  0  0  0
  5 47  1  0  0  0  0
  5  1  1  0  0  0  0
  6 15  1  0  0  0  0
  7  6  2  0  0  0  0
  7  9  1  0  0  0  0
  8  7  1  0  0  0  0
  9 11  2  0  0  0  0
 10  9  1  0  0  0  0
 11 13  1  0  0  0  0
 11 12  1  0  0  0  0
 13 14  1  0  0  0  0
 15 13  2  0  0  0  0
 16 15  1  1  0  0  0
 16 17  1  0  0  0  0
 17 19  2  0  0  0  0
 17 18  1  0  0  0  0
 19 20  1  0  0  0  0
 21 22  1  0  0  0  0
 21 19  1  0  0  0  0
 23 21  2  0  0  0  0
 24 23  1  0  0  0  0
 25 26  1  0  0  0  0
 26 28  2  0  0  0  0
 26 27  1  0  0  0  0
 28 43  1  0  0  0  0
 29 30  1  0  0  0  0
 29 28  1  0  0  0  0
 31 29  2  0  0  0  0
 32 31  1  0  0  0  0
 33 31  1  0  0  0  0
 33 25  2  0  0  0  0
 34 35  1  6  0  0  0
 34 33  1  0  0  0  0
 35 36  1  0  0  0  0
 37 35  2  0  0  0  0
 38 37  1  0  0  0  0
 39 37  1  0  0  0  0
 39 41  2  0  0  0  0
 40 39  1  0  0  0  0
 41 42  1  0  0  0  0
 41  4  1  0  0  0  0
 43 46  1  0  0  0  0
 43 45  1  0  0  0  0
 44 43  1  0  0  0  0
 47 48  1  0  0  0  0
 49 50  1  0  0  0  0
 49 47  1  0  0  0  0
 51 49  2  0  0  0  0
 52 51  1  0  0  0  0
 52 54  2  0  0  0  0
 53 52  1  0  0  0  0
 54  5  1  0  0  0  0
 55 54  1  0  0  0  0
 56 58  1  0  0  0  0
 56 59  1  0  0  0  0
 56 51  1  0  0  0  0
 57 56  1  0  0  0  0
M  END
$$$$
