CSD_code = FOPSIN | q = 0 | S = 0 | Stoichiometry = C23H17CdCl2N5 | MND = 5
 OpenBabel04212202033D

 48 54  0  0  1  0  0  0  0  0999 V2000
    5.1358    1.1283    8.9426 Cd  0  0  0  0  0  0  0  0  0  0  0  0
    7.2211    0.1062    9.2576 Cl  0  0  0  0  0  0  0  0  0  0  0  0
    3.2521   -0.2734    8.9301 Cl  0  0  0  0  0  0  0  0  0  0  0  0
    3.3596    1.7140   11.8223 N   0  0  0  0  0  0  0  0  0  0  0  0
    3.4315    0.7400   12.0839 H   0  0  0  0  0  0  0  0  0  0  0  0
    4.1591    2.2004   10.8916 N   0  0  0  0  0  0  0  0  0  0  0  0
    5.0480    3.5170    8.7210 N   0  0  0  0  0  0  0  0  0  0  0  0
    5.9877    1.8878    6.7854 N   0  0  2  0  0  0  0  0  0  0  0  0
    6.8054    1.2877    5.9394 N   0  0  0  0  0  0  0  0  0  0  0  0
    6.7617    0.2845    5.8244 H   0  0  0  0  0  0  0  0  0  0  0  0
    0.9926    1.0504   13.4728 C   0  0  0  0  0  0  0  0  0  0  0  0
    1.3304    0.2518   12.8291 H   0  0  0  0  0  0  0  0  0  0  0  0
    0.0458    0.7905   14.4456 C   0  0  0  0  0  0  0  0  0  0  0  0
   -0.3298   -0.2139   14.5711 H   0  0  0  0  0  0  0  0  0  0  0  0
   -0.4245    1.8123   15.2542 C   0  0  0  0  0  0  0  0  0  0  0  0
   -1.1630    1.6050   16.0139 H   0  0  0  0  0  0  0  0  0  0  0  0
    0.0515    3.1020   15.0822 C   0  0  0  0  0  0  0  0  0  0  0  0
   -0.3145    3.9014   15.7093 H   0  0  0  0  0  0  0  0  0  0  0  0
    0.9968    3.3694   14.1108 C   0  0  0  0  0  0  0  0  0  0  0  0
    1.3764    4.3721   13.9860 H   0  0  0  0  0  0  0  0  0  0  0  0
    1.4815    2.3453   13.2978 C   0  0  0  0  0  0  0  0  0  0  0  0
    2.4776    2.6315   12.2790 C   0  0  2  0  0  3  0  0  0  0  0  0
    2.7500    3.7993   11.5808 C   0  0  0  0  0  0  0  0  0  0  0  0
    2.2325    4.7330   11.6550 H   0  0  0  0  0  0  0  0  0  0  0  0
    3.7988    3.4713   10.7066 C   0  0  0  0  0  0  0  0  0  0  0  0
    4.4341    4.2455    9.6488 C   0  0  2  0  0  3  0  0  0  0  0  0
    4.4016    5.6384    9.5752 C   0  0  0  0  0  0  0  0  0  0  0  0
    3.9074    6.2151   10.3403 H   0  0  0  0  0  0  0  0  0  0  0  0
    5.0303    6.2562    8.5067 C   0  0  0  0  0  0  0  0  0  0  0  0
    5.0233    7.3330    8.4222 H   0  0  0  0  0  0  0  0  0  0  0  0
    5.6692    5.4876    7.5479 C   0  0  0  0  0  0  0  0  0  0  0  0
    6.1582    5.9449    6.7031 H   0  0  0  0  0  0  0  0  0  0  0  0
    5.6559    4.0995    7.6923 C   0  0  0  0  0  0  0  0  0  0  0  0
    6.3110    3.1823    6.7700 C   0  0  1  0  0  3  0  0  0  0  0  0
    7.3528    3.4016    5.8544 C   0  0  0  0  0  0  0  0  0  0  0  0
    7.8438    4.3270    5.6367 H   0  0  0  0  0  0  0  0  0  0  0  0
    7.6619    2.1490    5.3451 C   0  0  0  0  0  0  0  0  0  0  0  0
    8.6696    1.7385    4.3817 C   0  0  0  0  0  0  0  0  0  0  0  0
    9.1229    2.6375    3.4168 C   0  0  0  0  0  0  0  0  0  0  0  0
    8.7101    3.6343    3.3833 H   0  0  0  0  0  0  0  0  0  0  0  0
   10.0799    2.2521    2.4979 C   0  0  0  0  0  0  0  0  0  0  0  0
   10.4215    2.9547    1.7524 H   0  0  0  0  0  0  0  0  0  0  0  0
   10.5990    0.9681    2.5302 C   0  0  0  0  0  0  0  0  0  0  0  0
   11.3467    0.6685    1.8114 H   0  0  0  0  0  0  0  0  0  0  0  0
   10.1600    0.0711    3.4904 C   0  0  0  0  0  0  0  0  0  0  0  0
   10.5695   -0.9273    3.5241 H   0  0  0  0  0  0  0  0  0  0  0  0
    9.2017    0.4493    4.4118 C   0  0  0  0  0  0  0  0  0  0  0  0
    8.8893   -0.2481    5.1747 H   0  0  0  0  0  0  0  0  0  0  0  0
  1  2  1  0  0  0  0
  1  6  1  0  0  0  0
  3  1  1  0  0  0  0
  4  5  1  0  0  0  0
  4 22  1  0  0  0  0
  6  4  1  0  0  0  0
  7  1  1  0  0  0  0
  7 26  1  0  0  0  0
  8  9  1  1  0  0  0
  8  1  1  0  0  0  0
 10  9  1  0  0  0  0
 11 13  1  0  0  0  0
 12 11  1  0  0  0  0
 13 14  1  0  0  0  0
 13 15  2  0  0  0  0
 15 16  1  0  0  0  0
 17 15  1  0  0  0  0
 17 18  1  0  0  0  0
 19 17  2  0  0  0  0
 20 19  1  0  0  0  0
 21 11  2  0  0  0  0
 21 19  1  0  0  0  0
 22 21  1  6  0  0  0
 23 24  1  0  0  0  0
 23 22  1  0  0  0  0
 25  6  1  0  0  0  0
 25 23  2  0  0  0  0
 26 27  1  6  0  0  0
 26 25  1  0  0  0  0
 27 28  1  0  0  0  0
 29 27  2  0  0  0  0
 30 29  1  0  0  0  0
 31 33  2  0  0  0  0
 31 29  1  0  0  0  0
 32 31  1  0  0  0  0
 33  7  1  0  0  0  0
 34 35  1  1  0  0  0
 34  8  1  0  0  0  0
 34 33  1  0  0  0  0
 36 35  1  0  0  0  0
 37 35  2  0  0  0  0
 37  9  1  0  0  0  0
 38 47  1  0  0  0  0
 38 37  1  0  0  0  0
 39 38  2  0  0  0  0
 40 39  1  0  0  0  0
 41 43  2  0  0  0  0
 41 39  1  0  0  0  0
 42 41  1  0  0  0  0
 43 45  1  0  0  0  0
 44 43  1  0  0  0  0
 45 46  1  0  0  0  0
 45 47  2  0  0  0  0
 47 48  1  0  0  0  0
M  END
$$$$
