CSD_code = FOPSOT | q = 0 | S = 0 | Stoichiometry = C26H17ClF3IrN4 | MND = 6
 OpenBabel04212202033D

 52 59  0  0  1  0  0  0  0  0999 V2000
    6.1045    3.1303    1.7793 Ir  0  0  0  0  0  0  0  0  0  0  0  0
    5.1622    0.9959    1.1368 Cl  0  0  0  0  0  0  0  0  0  0  0  0
    4.9802    1.7344    6.7221 F   0  0  0  0  0  0  0  0  0  0  0  0
    9.1326    0.3418    5.1182 F   0  0  0  0  0  0  0  0  0  0  0  0
    8.4154    7.2539    4.4547 F   0  0  0  0  0  0  0  0  0  0  0  0
    4.3972    3.5413    2.7818 N   0  0  0  0  0  0  0  0  0  0  0  0
    7.9641    2.3771    1.3651 N   0  0  0  0  0  0  0  0  0  0  0  0
    9.6460    1.0873    1.9587 N   0  0  0  0  0  0  0  0  0  0  0  0
    5.6858    4.0409   -0.0998 N   0  0  0  0  0  0  0  0  0  0  0  0
    3.3166    4.1411    2.2902 C   0  0  0  0  0  3  0  0  0  0  0  0
    2.1438    4.2981    3.0028 C   0  0  0  0  0  0  0  0  0  0  0  0
    2.0833    3.8104    4.3009 C   0  0  0  0  0  0  0  0  0  0  0  0
    3.1967    3.1842    4.8254 C   0  0  0  0  0  0  0  0  0  0  0  0
    4.3494    3.0518    4.0536 C   0  0  0  0  0  0  0  0  0  0  0  0
    6.5414    2.3202    3.4879 C   0  0  0  0  0  0  0  0  0  0  0  0
    5.5615    2.3692    4.4876 C   0  0  0  0  0  0  0  0  0  0  0  0
    5.8527    1.7324    5.6916 C   0  0  0  0  0  0  0  0  0  0  0  0
    7.0571    1.0781    5.8794 C   0  0  0  0  0  0  0  0  0  0  0  0
    7.9876    1.0142    4.8530 C   0  0  0  0  0  0  0  0  0  0  0  0
    7.7562    1.6197    3.6235 C   0  0  0  0  0  0  0  0  0  0  0  0
    8.4960    1.6640    2.3755 C   0  0  2  0  0  3  0  0  0  0  0  0
    9.8369    1.4500    0.6582 C   0  0  0  0  0  0  0  0  0  0  0  0
    8.7901    2.2478    0.3021 C   0  0  0  0  0  0  0  0  0  0  0  0
   10.5300    0.2202    2.6881 C   0  0  0  0  0  0  0  0  0  0  0  0
    6.8323    4.9937    2.0951 C   0  0  0  0  0  0  0  0  0  0  0  0
    7.4146    5.4902    3.2553 C   0  0  0  0  0  0  0  0  0  0  0  0
    7.8523    6.7997    3.3118 C   0  0  0  0  0  0  0  0  0  0  0  0
    7.7342    7.6658    2.2388 C   0  0  0  0  0  0  0  0  0  0  0  0
    7.1602    7.1902    1.0784 C   0  0  0  0  0  0  0  0  0  0  0  0
    6.7117    5.8715    0.9933 C   0  0  0  0  0  0  0  0  0  0  0  0
    6.1004    5.3194   -0.2130 C   0  0  1  0  0  3  0  0  0  0  0  0
    5.9352    6.0085   -1.4157 C   0  0  0  0  0  0  0  0  0  0  0  0
    5.3434    5.3763   -2.4925 C   0  0  0  0  0  0  0  0  0  0  0  0
    4.9243    4.0606   -2.3536 C   0  0  0  0  0  0  0  0  0  0  0  0
    5.1190    3.4352   -1.1354 C   0  0  0  0  0  0  0  0  0  0  0  0
    3.3919    4.5106    1.2760 H   0  0  0  0  0  0  0  0  0  0  0  0
    1.2980    4.7886    2.5488 H   0  0  0  0  0  0  0  0  0  0  0  0
    1.1841    3.9128    4.8886 H   0  0  0  0  0  0  0  0  0  0  0  0
    3.1772    2.7887    5.8271 H   0  0  0  0  0  0  0  0  0  0  0  0
    7.2700    0.5983    6.8208 H   0  0  0  0  0  0  0  0  0  0  0  0
   10.6845    1.1142    0.0971 H   0  0  0  0  0  0  0  0  0  0  0  0
    8.5881    2.7213   -0.6379 H   0  0  0  0  0  0  0  0  0  0  0  0
   10.9576    0.7369    3.5476 H   0  0  0  0  0  0  0  0  0  0  0  0
   11.3343   -0.0962    2.0271 H   0  0  0  0  0  0  0  0  0  0  0  0
    9.9954   -0.6610    3.0430 H   0  0  0  0  0  0  0  0  0  0  0  0
    7.5339    4.8662    4.1281 H   0  0  0  0  0  0  0  0  0  0  0  0
    8.0855    8.6819    2.3222 H   0  0  0  0  0  0  0  0  0  0  0  0
    7.0623    7.8595    0.2373 H   0  0  0  0  0  0  0  0  0  0  0  0
    6.2700    7.0287   -1.5084 H   0  0  0  0  0  0  0  0  0  0  0  0
    5.2113    5.9007   -3.4274 H   0  0  0  0  0  0  0  0  0  0  0  0
    4.4589    3.5311   -3.1691 H   0  0  0  0  0  0  0  0  0  0  0  0
    4.8151    2.4096   -0.9677 H   0  0  0  0  0  0  0  0  0  0  0  0
  1 25  1  0  0  0  0
  1  6  1  0  0  0  0
  1 15  1  0  0  0  0
  2  1  1  0  0  0  0
  6 14  1  0  0  0  0
  7  1  1  0  0  0  0
  7 21  1  0  0  0  0
  8 21  1  0  0  0  0
  8 24  1  0  0  0  0
  9  1  1  0  0  0  0
 10  6  1  0  0  0  0
 10 11  1  0  0  0  0
 11 12  2  0  0  0  0
 12 13  1  0  0  0  0
 12 38  1  0  0  0  0
 13 39  1  0  0  0  0
 14 16  1  0  0  0  0
 14 13  2  0  0  0  0
 15 20  2  0  0  0  0
 15 16  1  0  0  0  0
 16 17  2  0  0  0  0
 17 18  1  0  0  0  0
 17  3  1  0  0  0  0
 18 40  1  0  0  0  0
 19  4  1  0  0  0  0
 19 18  2  0  0  0  0
 20 19  1  0  0  0  0
 21 20  1  6  0  0  0
 22  8  1  0  0  0  0
 23 22  2  0  0  0  0
 23  7  1  0  0  0  0
 24 45  1  0  0  0  0
 24 43  1  0  0  0  0
 25 26  1  0  0  0  0
 26 27  2  0  0  0  0
 26 46  1  0  0  0  0
 27  5  1  0  0  0  0
 28 47  1  0  0  0  0
 28 27  1  0  0  0  0
 29 28  2  0  0  0  0
 30 29  1  0  0  0  0
 30 25  2  0  0  0  0
 31 32  1  6  0  0  0
 31  9  1  0  0  0  0
 31 30  1  0  0  0  0
 33 34  1  0  0  0  0
 33 32  2  0  0  0  0
 34 35  2  0  0  0  0
 35 52  1  0  0  0  0
 35  9  1  0  0  0  0
 36 10  1  0  0  0  0
 37 11  1  0  0  0  0
 41 22  1  0  0  0  0
 42 23  1  0  0  0  0
 44 24  1  0  0  0  0
 48 29  1  0  0  0  0
 49 32  1  0  0  0  0
 50 33  1  0  0  0  0
 51 34  1  0  0  0  0
M  END
$$$$
