CSD_code = FOQFIC | q = 0 | S = 0 | Stoichiometry = C23H25Cl2N5NiO | MND = 6
 OpenBabel04212202033D

 57 61  0  0  1  0  0  0  0  0999 V2000
    4.3330    8.7282   14.2753 Ni  0  0  0  0  0  0  0  0  0  0  0  0
    6.0112    9.7826   13.3225 Cl  0  0  0  0  0  0  0  0  0  0  0  0
    2.6253    7.5999   15.1089 Cl  0  0  0  0  0  0  0  0  0  0  0  0
    2.7927   10.4336   13.8187 O   0  0  0  0  0  0  0  0  0  0  0  0
    2.0053    9.8818   13.7017 H   0  0  0  0  0  0  0  0  0  0  0  0
    3.0624    8.3339   12.0040 N   0  0  0  0  0  2  0  0  0  0  0  0
    4.0175    7.9139   12.7288 N   0  0  2  0  0  0  0  0  0  0  0  0
    4.5800    6.8450   12.1818 N   0  0  0  0  0  0  0  0  0  0  0  0
    5.8240    7.1574   14.9263 N   0  0  2  0  0  4  0  0  0  0  0  0
    6.7663    7.5108   14.7590 H   0  0  0  0  0  0  0  0  0  0  0  0
    4.7324    9.4092   15.9250 N   0  0  0  0  0  0  0  0  0  0  0  0
    3.9491    6.5861   11.0173 C   0  0  0  0  0  0  0  0  0  0  0  0
    4.2268    5.7749   10.3797 H   0  0  0  0  0  0  0  0  0  0  0  0
    2.9641    7.5483   10.9083 C   0  0  0  0  0  0  0  0  0  0  0  0
    1.9704    7.7684    9.8714 C   0  0  0  0  0  0  0  0  0  0  0  0
    2.0170    7.0649    8.6694 C   0  0  0  0  0  0  0  0  0  0  0  0
    2.8022    6.3440    8.4972 H   0  0  0  0  0  0  0  0  0  0  0  0
    1.0659    7.2933    7.6932 C   0  0  0  0  0  0  0  0  0  0  0  0
    1.1100    6.7450    6.7635 H   0  0  0  0  0  0  0  0  0  0  0  0
    0.0599    8.2224    7.9017 C   0  0  0  0  0  0  0  0  0  0  0  0
   -0.6804    8.3984    7.1355 H   0  0  0  0  0  0  0  0  0  0  0  0
    0.0069    8.9246    9.0949 C   0  0  0  0  0  0  0  0  0  0  0  0
   -0.7772    9.6487    9.2606 H   0  0  0  0  0  0  0  0  0  0  0  0
    0.9544    8.7005   10.0745 C   0  0  0  0  0  0  0  0  0  0  0  0
    0.9196    9.2363   11.0096 H   0  0  0  0  0  0  0  0  0  0  0  0
    5.7497    6.1621   12.7073 C   0  0  2  0  0  0  0  0  0  0  0  0
    6.6059    6.8339   12.5452 H   0  0  0  0  0  0  0  0  0  0  0  0
    5.9705    4.8615   11.9754 C   0  0  0  0  0  0  0  0  0  0  0  0
    7.1178    4.6669   11.2190 C   0  0  0  0  0  0  0  0  0  0  0  0
    7.8466    5.4603   11.1387 H   0  0  0  0  0  0  0  0  0  0  0  0
    7.3302    3.4640   10.5667 C   0  0  0  0  0  0  0  0  0  0  0  0
    8.2259    3.3233    9.9808 H   0  0  0  0  0  0  0  0  0  0  0  0
    6.3965    2.4471   10.6643 C   0  0  0  0  0  0  0  0  0  0  0  0
    6.5614    1.5097   10.1549 H   0  0  0  0  0  0  0  0  0  0  0  0
    5.2484    2.6354   11.4166 C   0  0  0  0  0  0  0  0  0  0  0  0
    4.5162    1.8460   11.4945 H   0  0  0  0  0  0  0  0  0  0  0  0
    5.0361    3.8349   12.0712 C   0  0  0  0  0  0  0  0  0  0  0  0
    4.1362    3.9793   12.6506 H   0  0  0  0  0  0  0  0  0  0  0  0
    5.6288    5.9081   14.2231 C   0  0  0  0  0  0  0  0  0  0  0  0
    4.6261    5.5392   14.4608 H   0  0  0  0  0  0  0  0  0  0  0  0
    6.3645    5.1338   14.4995 H   0  0  0  0  0  0  0  0  0  0  0  0
    5.5495    7.1588   16.3537 C   0  0  0  0  0  0  0  0  0  0  0  0
    6.3444    6.6917   16.9546 H   0  0  0  0  0  0  0  0  0  0  0  0
    4.6143    6.6084   16.5166 H   0  0  0  0  0  0  0  0  0  0  0  0
    5.3139    8.5805   16.7969 C   0  0  2  0  0  3  0  0  0  0  0  0
    5.6652    9.0032   18.0711 C   0  0  0  0  0  0  0  0  0  0  0  0
    6.1317    8.3078   18.7521 H   0  0  0  0  0  0  0  0  0  0  0  0
    5.4111   10.3090   18.4519 C   0  0  0  0  0  0  0  0  0  0  0  0
    5.6768   10.6552   19.4391 H   0  0  0  0  0  0  0  0  0  0  0  0
    4.8126   11.1567   17.5350 C   0  0  0  0  0  0  0  0  0  0  0  0
    4.5970   12.1842   17.7801 H   0  0  0  0  0  0  0  0  0  0  0  0
    4.4919   10.6639   16.2826 C   0  0  0  0  0  0  0  0  0  0  0  0
    4.0219   11.2938   15.5408 H   0  0  0  0  0  0  0  0  0  0  0  0
    2.8631   11.3606   12.7527 C   0  0  0  0  0  0  0  0  0  0  0  0
    3.8172   11.8784   12.8411 H   0  0  0  0  0  0  0  0  0  0  0  0
    2.0453   12.0876   12.8206 H   0  0  0  0  0  0  0  0  0  0  0  0
    2.8288   10.8579   11.7831 H   0  0  0  0  0  0  0  0  0  0  0  0
  1  9  1  0  0  0  0
  1  3  1  0  0  0  0
  1 11  1  0  0  0  0
  2  1  1  0  0  0  0
  5  4  1  0  0  0  0
  7  6  1  1  0  0  0
  7  1  1  0  0  0  0
  8 26  1  0  0  0  0
  8  7  1  0  0  0  0
  9 10  1  6  0  0  0
  9 42  1  0  0  0  0
 11 52  1  0  0  0  0
 11 45  1  0  0  0  0
 12  8  1  0  0  0  0
 13 12  1  0  0  0  0
 14 12  2  0  0  0  0
 14  6  1  0  0  0  0
 15 24  1  0  0  0  0
 15 14  1  0  0  0  0
 16 15  2  0  0  0  0
 17 16  1  0  0  0  0
 18 20  2  0  0  0  0
 18 16  1  0  0  0  0
 19 18  1  0  0  0  0
 20 22  1  0  0  0  0
 21 20  1  0  0  0  0
 22 23  1  0  0  0  0
 22 24  2  0  0  0  0
 24 25  1  0  0  0  0
 26 27  1  6  0  0  0
 26 39  1  0  0  0  0
 28 37  1  0  0  0  0
 28 26  1  0  0  0  0
 29 28  2  0  0  0  0
 30 29  1  0  0  0  0
 31 33  2  0  0  0  0
 31 29  1  0  0  0  0
 32 31  1  0  0  0  0
 33 35  1  0  0  0  0
 34 33  1  0  0  0  0
 35 36  1  0  0  0  0
 35 37  2  0  0  0  0
 37 38  1  0  0  0  0
 39 40  1  0  0  0  0
 39 41  1  0  0  0  0
 39  9  1  0  0  0  0
 42 44  1  0  0  0  0
 42 45  1  0  0  0  0
 42 43  1  0  0  0  0
 45 46  1  1  0  0  0
 46 48  2  0  0  0  0
 46 47  1  0  0  0  0
 48 49  1  0  0  0  0
 50 51  1  0  0  0  0
 50 48  1  0  0  0  0
 52 50  2  0  0  0  0
 53 52  1  0  0  0  0
 54 56  1  0  0  0  0
 54 55  1  0  0  0  0
 54  4  1  0  0  0  0
 57 54  1  0  0  0  0
M  END
$$$$
