CSD_code = FOQFIA | q = 0 | S = 0 | Stoichiometry = C31H27Cl2NOP2PtS | MND = 4
 OpenBabel04212202033D

 66 71  0  0  0  0  0  0  0  0999 V2000
   10.0551   -7.8161    5.4350 Pt  0  0  0  0  0  0  0  0  0  0  0  0
   10.2063   -5.7809    6.4222 Cl  0  0  0  0  0  0  0  0  0  0  0  0
    8.4911   -8.4545    6.9582 Cl  0  0  0  0  0  0  0  0  0  0  0  0
   11.6941   -7.1564    3.6928 S   0  0  0  0  0  0  0  0  0  0  0  0
   10.2476   -7.9800    2.6233 P   0  0  0  0  0  4  0  0  0  0  0  0
    9.8318   -9.6265    2.8980 N   0  0  0  0  0  0  0  0  0  0  0  0
    9.9699   -9.9226    4.6087 P   0  0  0  0  0  4  0  0  0  0  0  0
    8.6360   -7.1680    2.8917 C   0  0  0  0  0  0  0  0  0  0  0  0
    7.4521   -7.7861    2.5014 C   0  0  0  0  0  0  0  0  0  0  0  0
    7.4818   -8.7555    2.0239 H   0  0  0  0  0  0  0  0  0  0  0  0
    6.2417   -7.1617    2.7389 C   0  0  0  0  0  0  0  0  0  0  0  0
    5.3214   -7.6507    2.4538 H   0  0  0  0  0  0  0  0  0  0  0  0
    6.2081   -5.9177    3.3484 C   0  0  0  0  0  0  0  0  0  0  0  0
    5.2592   -5.4433    3.5485 H   0  0  0  0  0  0  0  0  0  0  0  0
    7.3880   -5.2805    3.6956 C   0  0  0  0  0  0  0  0  0  0  0  0
    7.3668   -4.3081    4.1622 H   0  0  0  0  0  0  0  0  0  0  0  0
    8.6044   -5.8976    3.4628 C   0  0  0  0  0  0  0  0  0  0  0  0
    9.5260   -5.3930    3.7233 H   0  0  0  0  0  0  0  0  0  0  0  0
   10.5200   -7.8165    0.8344 C   0  0  0  0  0  0  0  0  0  0  0  0
    9.7046   -8.4559   -0.0906 C   0  0  0  0  0  0  0  0  0  0  0  0
    8.8943   -9.0883    0.2388 H   0  0  0  0  0  0  0  0  0  0  0  0
    9.9436   -8.2891   -1.4428 C   0  0  0  0  0  0  0  0  0  0  0  0
    9.3163   -8.7938   -2.1624 H   0  0  0  0  0  0  0  0  0  0  0  0
   10.9809   -7.4776   -1.8733 C   0  0  0  0  0  0  0  0  0  0  0  0
   11.1621   -7.3508   -2.9302 H   0  0  0  0  0  0  0  0  0  0  0  0
   11.7825   -6.8263   -0.9498 C   0  0  0  0  0  0  0  0  0  0  0  0
   12.5872   -6.1883   -1.2839 H   0  0  0  0  0  0  0  0  0  0  0  0
   11.5527   -6.9943    0.4035 C   0  0  0  0  0  0  0  0  0  0  0  0
   12.1735   -6.5014    1.1389 H   0  0  0  0  0  0  0  0  0  0  0  0
    8.6699  -11.1351    4.9247 C   0  0  0  0  0  0  0  0  0  0  0  0
    7.3759  -10.8515    4.4966 C   0  0  0  0  0  0  0  0  0  0  0  0
    7.1899   -9.9412    3.9451 H   0  0  0  0  0  0  0  0  0  0  0  0
    6.3411  -11.7139    4.8021 C   0  0  0  0  0  0  0  0  0  0  0  0
    5.3383  -11.4943    4.4661 H   0  0  0  0  0  0  0  0  0  0  0  0
    6.5866  -12.8503    5.5573 C   0  0  0  0  0  0  0  0  0  0  0  0
    5.7765  -13.5216    5.8007 H   0  0  0  0  0  0  0  0  0  0  0  0
    7.8649  -13.1124    6.0211 C   0  0  0  0  0  0  0  0  0  0  0  0
    8.0503  -13.9833    6.6323 H   0  0  0  0  0  0  0  0  0  0  0  0
    8.9062  -12.2544    5.7154 C   0  0  0  0  0  0  0  0  0  0  0  0
    9.8991  -12.4452    6.0973 H   0  0  0  0  0  0  0  0  0  0  0  0
   11.5339  -10.8406    4.7327 C   0  0  0  0  0  0  0  0  0  0  0  0
   11.7287  -12.0937    4.1572 C   0  0  0  0  0  0  0  0  0  0  0  0
   10.9053  -12.6118    3.6859 H   0  0  0  0  0  0  0  0  0  0  0  0
   12.9825  -12.6768    4.1969 C   0  0  0  0  0  0  0  0  0  0  0  0
   13.1347  -13.6457    3.7436 H   0  0  0  0  0  0  0  0  0  0  0  0
   14.0386  -12.0234    4.8133 C   0  0  0  0  0  0  0  0  0  0  0  0
   15.0151  -12.4847    4.8370 H   0  0  0  0  0  0  0  0  0  0  0  0
   13.8419  -10.7862    5.4054 C   0  0  0  0  0  0  0  0  0  0  0  0
   14.6613  -10.2823    5.8954 H   0  0  0  0  0  0  0  0  0  0  0  0
   12.5924  -10.1953    5.3641 C   0  0  0  0  0  0  0  0  0  0  0  0
   12.4222   -9.2257    5.8244 H   0  0  0  0  0  0  0  0  0  0  0  0
   10.2066  -10.6356    1.9827 C   0  0  0  0  0  0  0  0  0  0  0  0
   11.5183  -10.6313    1.4852 C   0  0  0  0  0  0  0  0  0  0  0  0
   11.9202  -11.6149    0.5977 C   0  0  0  0  0  0  0  0  0  0  0  0
   12.9243  -11.6233    0.2049 H   0  0  0  0  0  0  0  0  0  0  0  0
   11.0219  -12.6028    0.2225 C   0  0  0  0  0  0  0  0  0  0  0  0
   11.3408  -13.3695   -0.4666 H   0  0  0  0  0  0  0  0  0  0  0  0
    9.7334  -12.6165    0.7232 C   0  0  0  0  0  0  0  0  0  0  0  0
    9.0445  -13.3934    0.4308 H   0  0  0  0  0  0  0  0  0  0  0  0
    9.3214  -11.6292    1.6047 C   0  0  0  0  0  0  0  0  0  0  0  0
    8.3214  -11.6289    2.0118 H   0  0  0  0  0  0  0  0  0  0  0  0
   12.2740   -9.6112    1.9661 O   0  0  0  0  0  0  0  0  0  0  0  0
   13.6298   -9.5215    1.6000 C   0  0  0  0  0  0  0  0  0  0  0  0
   14.0205   -8.6667    2.1497 H   0  0  0  0  0  0  0  0  0  0  0  0
   13.7387   -9.3493    0.5248 H   0  0  0  0  0  0  0  0  0  0  0  0
   14.1733  -10.4244    1.8922 H   0  0  0  0  0  0  0  0  0  0  0  0
  1  2  1  0  0  0  0
  1  3  1  0  0  0  0
  4  1  1  0  0  0  0
  5  8  1  0  0  0  0
  5  6  1  0  0  0  0
  5  4  1  0  0  0  0
  6  7  1  0  0  0  0
  7 41  1  0  0  0  0
  7 30  1  0  0  0  0
  7  1  1  0  0  0  0
  8 17  1  0  0  0  0
  9 11  1  0  0  0  0
  9  8  2  0  0  0  0
 10  9  1  0  0  0  0
 11 13  2  0  0  0  0
 12 11  1  0  0  0  0
 13 14  1  0  0  0  0
 13 15  1  0  0  0  0
 15 16  1  0  0  0  0
 17 15  2  0  0  0  0
 17 18  1  0  0  0  0
 19  5  1  0  0  0  0
 20 21  1  0  0  0  0
 20 19  2  0  0  0  0
 22 20  1  0  0  0  0
 23 22  1  0  0  0  0
 24 22  2  0  0  0  0
 24 26  1  0  0  0  0
 25 24  1  0  0  0  0
 26 28  2  0  0  0  0
 27 26  1  0  0  0  0
 28 19  1  0  0  0  0
 28 29  1  0  0  0  0
 30 39  1  0  0  0  0
 31 33  1  0  0  0  0
 31 30  2  0  0  0  0
 32 31  1  0  0  0  0
 33 35  2  0  0  0  0
 34 33  1  0  0  0  0
 35 36  1  0  0  0  0
 35 37  1  0  0  0  0
 37 38  1  0  0  0  0
 39 37  2  0  0  0  0
 39 40  1  0  0  0  0
 41 50  1  0  0  0  0
 42 44  1  0  0  0  0
 42 41  2  0  0  0  0
 43 42  1  0  0  0  0
 44 46  2  0  0  0  0
 45 44  1  0  0  0  0
 46 47  1  0  0  0  0
 46 48  1  0  0  0  0
 48 49  1  0  0  0  0
 50 48  2  0  0  0  0
 50 51  1  0  0  0  0
 52  6  1  0  0  0  0
 53 62  1  0  0  0  0
 53 52  2  0  0  0  0
 54 53  1  0  0  0  0
 55 54  1  0  0  0  0
 56 54  2  0  0  0  0
 56 58  1  0  0  0  0
 57 56  1  0  0  0  0
 58 60  2  0  0  0  0
 59 58  1  0  0  0  0
 60 52  1  0  0  0  0
 60 61  1  0  0  0  0
 63 66  1  0  0  0  0
 63 62  1  0  0  0  0
 63 64  1  0  0  0  0
 65 63  1  0  0  0  0
M  END
$$$$
