CSD_code = FOQSOV | q = 0 | S = 0 | Stoichiometry = C13H12Cl2N2OPd | MND = 4
 OpenBabel04212202033D

 31 33  0  0  0  0  0  0  0  0999 V2000
   -0.2251    4.1769    7.7377 Pd  0  0  0  0  0  0  0  0  0  0  0  0
   -0.4863    5.8597    9.1263 Cl  0  0  0  0  0  0  0  0  0  0  0  0
   -0.8053    5.5025    6.0626 Cl  0  0  0  0  0  0  0  0  0  0  0  0
   -0.1377    2.6753    5.2945 O   0  0  0  0  0  0  0  0  0  0  0  0
    0.2959    2.8312    9.1864 N   0  0  0  0  0  0  0  0  0  0  0  0
    0.0342    2.5864    6.6216 N   0  0  0  0  0  0  0  0  0  0  0  0
    0.4267    3.0215   10.4967 C   0  0  0  0  0  0  0  0  0  0  0  0
    0.2481    4.0331   10.8441 H   0  0  0  0  0  0  0  0  0  0  0  0
    0.7665    1.9959   11.3607 C   0  0  0  0  0  0  0  0  0  0  0  0
    0.8633    2.1909   12.4160 H   0  0  0  0  0  0  0  0  0  0  0  0
    0.9781    0.7196   10.8469 C   0  0  0  0  0  0  0  0  0  0  0  0
    1.2427   -0.0983   11.4990 H   0  0  0  0  0  0  0  0  0  0  0  0
    0.8438    0.5160    9.4884 C   0  0  0  0  0  0  0  0  0  0  0  0
    0.9987   -0.4576    9.0503 H   0  0  0  0  0  0  0  0  0  0  0  0
    0.5003    1.5960    8.6700 C   0  0  0  0  0  0  0  0  0  0  0  0
    0.3425    1.4937    7.2439 C   0  0  0  0  0  0  0  0  0  0  0  0
    0.4896    0.5385    6.7529 H   0  0  0  0  0  0  0  0  0  0  0  0
   -0.0665    1.5200    4.4754 C   0  0  0  0  0  0  0  0  0  0  0  0
   -0.8035    0.7732    4.8110 H   0  0  0  0  0  0  0  0  0  0  0  0
    0.9374    1.0729    4.5248 H   0  0  0  0  0  0  0  0  0  0  0  0
   -0.3737    1.9397    3.0573 C   0  0  0  0  0  0  0  0  0  0  0  0
   -0.9198    3.1847    2.7802 C   0  0  0  0  0  0  0  0  0  0  0  0
   -1.1122    3.8797    3.5824 H   0  0  0  0  0  0  0  0  0  0  0  0
   -1.2004    3.5346    1.4699 C   0  0  0  0  0  0  0  0  0  0  0  0
   -1.6211    4.5058    1.2591 H   0  0  0  0  0  0  0  0  0  0  0  0
   -0.9445    2.6490    0.4377 C   0  0  0  0  0  0  0  0  0  0  0  0
   -1.1653    2.9252   -0.5825 H   0  0  0  0  0  0  0  0  0  0  0  0
   -0.4002    1.4059    0.7151 C   0  0  0  0  0  0  0  0  0  0  0  0
   -0.1954    0.7114   -0.0860 H   0  0  0  0  0  0  0  0  0  0  0  0
   -0.1134    1.0521    2.0209 C   0  0  0  0  0  0  0  0  0  0  0  0
    0.3143    0.0828    2.2371 H   0  0  0  0  0  0  0  0  0  0  0  0
  1  2  1  0  0  0  0
  1  5  1  0  0  0  0
  3  1  1  0  0  0  0
  4  6  1  0  0  0  0
  5  7  1  0  0  0  0
  6 16  1  0  0  0  0
  6  1  1  0  0  0  0
  7  8  1  0  0  0  0
  7  9  2  0  0  0  0
  9 10  1  0  0  0  0
 11  9  1  0  0  0  0
 11 12  1  0  0  0  0
 13 11  2  0  0  0  0
 14 13  1  0  0  0  0
 15  5  1  0  0  0  0
 15 13  1  0  0  0  0
 16 15  2  0  0  0  0
 17 16  1  0  0  0  0
 18 20  1  0  0  0  0
 18 19  1  0  0  0  0
 18  4  1  0  0  0  0
 21 18  1  0  0  0  0
 22 21  1  0  0  0  0
 22 23  1  0  0  0  0
 24 22  2  0  0  0  0
 25 24  1  0  0  0  0
 26 28  2  0  0  0  0
 26 24  1  0  0  0  0
 27 26  1  0  0  0  0
 28 30  1  0  0  0  0
 29 28  1  0  0  0  0
 30 31  1  0  0  0  0
 30 21  2  0  0  0  0
M  END
$$$$
