CSD_code = FOQYAL | q = 0 | S = 0 | Stoichiometry = C27H26Cl2N2OP2Pd | MND = 4
 OpenBabel04212202033D

 61 65  0  0  0  0  0  0  0  0999 V2000
    0.4418    9.8551    5.4625 Pd  0  0  0  0  0  0  0  0  0  0  0  0
    0.5421   10.1453    7.7174 Cl  0  0  0  0  0  0  0  0  0  0  0  0
   -1.8182    9.9246    5.2033 Cl  0  0  0  0  0  0  0  0  0  0  0  0
    2.6108    9.6652    5.7025 P   0  0  0  0  0  4  0  0  0  0  0  0
    2.9123    8.0742    6.5382 C   0  0  0  0  0  0  0  0  0  0  0  0
    1.8557    7.1635    6.4793 C   0  0  0  0  0  0  0  0  0  0  0  0
    0.9096    7.4513    5.9934 H   0  0  0  0  0  0  0  0  0  0  0  0
    1.9807    5.9142    7.0576 C   0  0  0  0  0  0  0  0  0  0  0  0
    1.1577    5.2163    7.0177 H   0  0  0  0  0  0  0  0  0  0  0  0
    3.1590    5.5643    7.6986 C   0  0  0  0  0  0  0  0  0  0  0  0
    3.2556    4.5913    8.1565 H   0  0  0  0  0  0  0  0  0  0  0  0
    4.2089    6.4653    7.7621 C   0  0  0  0  0  0  0  0  0  0  0  0
    5.1232    6.1947    8.2694 H   0  0  0  0  0  0  0  0  0  0  0  0
    4.0917    7.7176    7.1838 C   0  0  0  0  0  0  0  0  0  0  0  0
    4.9124    8.4171    7.2522 H   0  0  0  0  0  0  0  0  0  0  0  0
    3.4724   10.9888    6.5843 C   0  0  0  0  0  0  0  0  0  0  0  0
    3.6996   10.9301    7.9544 C   0  0  0  0  0  0  0  0  0  0  0  0
    3.4237   10.0440    8.5066 H   0  0  0  0  0  0  0  0  0  0  0  0
    4.2449   12.0243    8.6022 C   0  0  0  0  0  0  0  0  0  0  0  0
    4.4231   11.9814    9.6663 H   0  0  0  0  0  0  0  0  0  0  0  0
    4.5470   13.1765    7.8947 C   0  0  0  0  0  0  0  0  0  0  0  0
    4.9667   14.0292    8.4075 H   0  0  0  0  0  0  0  0  0  0  0  0
    4.2956   13.2451    6.5329 C   0  0  0  0  0  0  0  0  0  0  0  0
    4.5137   14.1508    5.9864 H   0  0  0  0  0  0  0  0  0  0  0  0
    3.7521   12.1568    5.8777 C   0  0  0  0  0  0  0  0  0  0  0  0
    3.5382   12.1998    4.8160 H   0  0  0  0  0  0  0  0  0  0  0  0
    3.5280    9.5307    4.2608 N   0  0  0  0  0  0  0  0  0  0  0  0
    3.1772    9.3997    2.9269 C   0  0  0  0  0  0  0  0  0  0  0  0
    4.0615    9.2512    2.1067 O   0  0  0  0  0  0  0  0  0  0  0  0
    1.8649    9.4318    2.4851 N   0  0  0  0  0  0  0  0  0  0  0  0
    0.3679    9.6884    3.2798 P   0  0  0  0  0  4  0  0  0  0  0  0
   -0.6674    8.3828    2.5758 C   0  0  0  0  0  0  0  0  0  0  0  0
   -0.1455    7.0911    2.5503 C   0  0  0  0  0  0  0  0  0  0  0  0
    0.8805    6.9261    2.8583 H   0  0  0  0  0  0  0  0  0  0  0  0
   -0.9361    6.0364    2.1359 C   0  0  0  0  0  0  0  0  0  0  0  0
   -0.5323    5.0350    2.1144 H   0  0  0  0  0  0  0  0  0  0  0  0
   -2.2512    6.2648    1.7608 C   0  0  0  0  0  0  0  0  0  0  0  0
   -2.8702    5.4395    1.4417 H   0  0  0  0  0  0  0  0  0  0  0  0
   -2.7781    7.5451    1.8112 C   0  0  0  0  0  0  0  0  0  0  0  0
   -3.8084    7.7163    1.5379 H   0  0  0  0  0  0  0  0  0  0  0  0
   -1.9939    8.6070    2.2257 C   0  0  0  0  0  0  0  0  0  0  0  0
   -2.4094    9.6004    2.3064 H   0  0  0  0  0  0  0  0  0  0  0  0
   -0.1672   11.3093    2.6423 C   0  0  0  0  0  0  0  0  0  0  0  0
   -0.0081   12.3758    3.5292 C   0  0  0  0  0  0  0  0  0  0  0  0
    0.3727   12.1911    4.5464 H   0  0  0  0  0  0  0  0  0  0  0  0
   -0.3584   13.6571    3.1466 C   0  0  0  0  0  0  0  0  0  0  0  0
   -0.2426   14.4778    3.8385 H   0  0  0  0  0  0  0  0  0  0  0  0
   -0.8700   13.8837    1.8781 C   0  0  0  0  0  0  0  0  0  0  0  0
   -1.1507   14.8829    1.5805 H   0  0  0  0  0  0  0  0  0  0  0  0
   -1.0322   12.8286    0.9960 C   0  0  0  0  0  0  0  0  0  0  0  0
   -1.4390   13.0053    0.0112 H   0  0  0  0  0  0  0  0  0  0  0  0
   -0.6819   11.5430    1.3714 C   0  0  0  0  0  0  0  0  0  0  0  0
   -0.8264   10.7257    0.6794 H   0  0  0  0  0  0  0  0  0  0  0  0
    4.9730    9.3901    4.4637 C   0  0  0  0  0  0  0  0  0  0  0  0
    5.2298    9.7632    5.4522 H   0  0  0  0  0  0  0  0  0  0  0  0
    5.5041    9.9688    3.7083 H   0  0  0  0  0  0  0  0  0  0  0  0
    5.2762    8.3461    4.3698 H   0  0  0  0  0  0  0  0  0  0  0  0
    1.7763    9.3459    1.0244 C   0  0  0  0  0  0  0  0  0  0  0  0
    0.7528    9.1080    0.7450 H   0  0  0  0  0  0  0  0  0  0  0  0
    2.4419    8.5617    0.6646 H   0  0  0  0  0  0  0  0  0  0  0  0
    2.0780   10.2880    0.5637 H   0  0  0  0  0  0  0  0  0  0  0  0
  1  4  1  0  0  0  0
  1  2  1  0  0  0  0
  3  1  1  0  0  0  0
  4  5  1  0  0  0  0
  4 16  1  0  0  0  0
  5 14  1  0  0  0  0
  6  5  2  0  0  0  0
  6  8  1  0  0  0  0
  7  6  1  0  0  0  0
  8 10  2  0  0  0  0
  9  8  1  0  0  0  0
 10 12  1  0  0  0  0
 10 11  1  0  0  0  0
 12 13  1  0  0  0  0
 14 15  1  0  0  0  0
 14 12  2  0  0  0  0
 16 17  1  0  0  0  0
 17 18  1  0  0  0  0
 17 19  2  0  0  0  0
 19 20  1  0  0  0  0
 21 22  1  0  0  0  0
 21 19  1  0  0  0  0
 23 21  2  0  0  0  0
 24 23  1  0  0  0  0
 25 23  1  0  0  0  0
 25 16  2  0  0  0  0
 26 25  1  0  0  0  0
 27 54  1  0  0  0  0
 27  4  1  0  0  0  0
 28 27  1  0  0  0  0
 29 28  2  0  0  0  0
 30 28  1  0  0  0  0
 30 31  1  0  0  0  0
 31  1  1  0  0  0  0
 32 31  1  0  0  0  0
 33 32  1  0  0  0  0
 33 34  1  0  0  0  0
 35 33  2  0  0  0  0
 36 35  1  0  0  0  0
 37 39  2  0  0  0  0
 37 35  1  0  0  0  0
 38 37  1  0  0  0  0
 39 41  1  0  0  0  0
 40 39  1  0  0  0  0
 41 42  1  0  0  0  0
 41 32  2  0  0  0  0
 43 31  1  0  0  0  0
 43 44  1  0  0  0  0
 44 45  1  0  0  0  0
 46 44  2  0  0  0  0
 46 47  1  0  0  0  0
 48 46  1  0  0  0  0
 49 48  1  0  0  0  0
 50 52  1  0  0  0  0
 50 48  2  0  0  0  0
 51 50  1  0  0  0  0
 52 43  2  0  0  0  0
 53 52  1  0  0  0  0
 54 55  1  0  0  0  0
 56 54  1  0  0  0  0
 57 54  1  0  0  0  0
 58 30  1  0  0  0  0
 59 58  1  0  0  0  0
 60 58  1  0  0  0  0
 61 58  1  0  0  0  0
M  END
$$$$
