CSD_code = FORCEU | q = 0 | S = 0 | Stoichiometry = C17H15AuClN2P | MND = 2
 OpenBabel04212202033D

 37 39  0  0  0  0  0  0  0  0999 V2000
    5.5615   -1.8718   -3.0523 Au  0  0  0  0  0  0  0  0  0  0  0  0
    4.0460   -0.7827   -4.3265 Cl  0  0  0  0  0  0  0  0  0  0  0  0
    6.3927   -4.7895   -3.1532 N   0  0  0  0  0  0  0  0  0  0  0  0
    5.9878   -5.2459   -1.9693 C   0  0  0  0  0  0  0  0  0  0  0  0
    5.2719   -6.4271   -1.8134 C   0  0  0  0  0  0  0  0  0  0  0  0
    4.9554   -6.7594   -0.8374 H   0  0  0  0  0  0  0  0  0  0  0  0
    4.9850   -7.1442   -2.9598 C   0  0  0  0  0  0  0  0  0  0  0  0
    4.4270   -8.0660   -2.8940 H   0  0  0  0  0  0  0  0  0  0  0  0
    5.4140   -6.6718   -4.1962 C   0  0  0  0  0  0  0  0  0  0  0  0
    5.1971   -7.2157   -5.1007 H   0  0  0  0  0  0  0  0  0  0  0  0
    6.1191   -5.4839   -4.2460 C   0  0  0  0  0  0  0  0  0  0  0  0
    6.4712   -5.0621   -5.1764 H   0  0  0  0  0  0  0  0  0  0  0  0
    6.4300   -4.3874   -0.9878 N   0  0  0  0  0  0  0  0  0  0  0  0
    5.9922   -4.3578   -0.0760 H   0  0  0  0  0  0  0  0  0  0  0  0
    7.0063   -2.9888   -1.7656 P   0  0  0  0  0  4  0  0  0  0  0  0
    8.6425   -3.4419   -2.3860 C   0  0  0  0  0  0  0  0  0  0  0  0
    9.1607   -2.6703   -3.4179 C   0  0  0  0  0  0  0  0  0  0  0  0
    8.5757   -1.8428   -3.7990 H   0  0  0  0  0  0  0  0  0  0  0  0
   10.4032   -2.9706   -3.9463 C   0  0  0  0  0  0  0  0  0  0  0  0
   10.8090   -2.3721   -4.7482 H   0  0  0  0  0  0  0  0  0  0  0  0
   11.1229   -4.0448   -3.4485 C   0  0  0  0  0  0  0  0  0  0  0  0
   12.0910   -4.2837   -3.8630 H   0  0  0  0  0  0  0  0  0  0  0  0
   10.6031   -4.8179   -2.4218 C   0  0  0  0  0  0  0  0  0  0  0  0
   11.1669   -5.6564   -2.0390 H   0  0  0  0  0  0  0  0  0  0  0  0
    9.3635   -4.5202   -1.8864 C   0  0  0  0  0  0  0  0  0  0  0  0
    8.9505   -5.1193   -1.0866 H   0  0  0  0  0  0  0  0  0  0  0  0
    7.3911   -2.0426   -0.2517 C   0  0  0  0  0  0  0  0  0  0  0  0
    6.3329   -1.3238    0.2980 C   0  0  0  0  0  0  0  0  0  0  0  0
    5.3680   -1.3516   -0.1966 H   0  0  0  0  0  0  0  0  0  0  0  0
    6.5169   -0.5746    1.4442 C   0  0  0  0  0  0  0  0  0  0  0  0
    5.6925   -0.0192    1.8660 H   0  0  0  0  0  0  0  0  0  0  0  0
    7.7675   -0.5280    2.0405 C   0  0  0  0  0  0  0  0  0  0  0  0
    7.9179    0.0647    2.9305 H   0  0  0  0  0  0  0  0  0  0  0  0
    8.8271   -1.2303    1.4903 C   0  0  0  0  0  0  0  0  0  0  0  0
    9.8024   -1.1849    1.9524 H   0  0  0  0  0  0  0  0  0  0  0  0
    8.6447   -1.9861    0.3450 C   0  0  0  0  0  0  0  0  0  0  0  0
    9.4743   -2.5269   -0.0882 H   0  0  0  0  0  0  0  0  0  0  0  0
  1 15  1  0  0  0  0
  2  1  1  0  0  0  0
  3  4  1  0  0  0  0
  4  5  2  0  0  0  0
  4 13  1  0  0  0  0
  5  6  1  0  0  0  0
  7  8  1  0  0  0  0
  7  5  1  0  0  0  0
  9  7  2  0  0  0  0
 10  9  1  0  0  0  0
 11  9  1  0  0  0  0
 11  3  2  0  0  0  0
 12 11  1  0  0  0  0
 13 14  1  0  0  0  0
 15 13  1  0  0  0  0
 15 27  1  0  0  0  0
 16 25  1  0  0  0  0
 16 15  1  0  0  0  0
 17 16  2  0  0  0  0
 18 17  1  0  0  0  0
 19 21  2  0  0  0  0
 19 17  1  0  0  0  0
 20 19  1  0  0  0  0
 21 23  1  0  0  0  0
 22 21  1  0  0  0  0
 23 24  1  0  0  0  0
 23 25  2  0  0  0  0
 25 26  1  0  0  0  0
 27 28  2  0  0  0  0
 27 36  1  0  0  0  0
 28 30  1  0  0  0  0
 29 28  1  0  0  0  0
 30 31  1  0  0  0  0
 30 32  2  0  0  0  0
 32 33  1  0  0  0  0
 34 35  1  0  0  0  0
 34 32  1  0  0  0  0
 36 34  2  0  0  0  0
 37 36  1  0  0  0  0
M  END
$$$$
