CSD_code = FORNUW | q = 0 | S = 0 | Stoichiometry = C20H29Br2N3Pd | MND = 4
 OpenBabel04212202033D

 55 57  0  0  0  0  0  0  0  0999 V2000
    6.6711    9.0259    6.5633 Pd  0  0  0  0  0  0  0  0  0  0  0  0
    7.9151   10.6552    5.3458 Br  0  0  0  0  0  0  0  0  0  0  0  0
    6.1824   10.5261    8.3971 Br  0  0  0  0  0  0  0  0  0  0  0  0
    8.2434    7.1079    4.9017 N   0  0  0  0  0  0  0  0  0  0  0  0
    6.4158    7.7374    3.8808 N   0  0  0  0  0  0  0  0  0  0  0  0
    5.0280    7.2038    8.3718 N   0  0  0  0  0  2  0  0  0  0  0  0
    7.1155    7.8272    5.0238 C   0  0  0  0  0  0  0  0  0  0  0  0
    8.2787    6.5266    3.6496 C   0  0  0  0  0  0  0  0  0  0  0  0
    9.1909    5.6897    3.0231 C   0  0  0  0  0  0  0  0  0  0  0  0
   10.0976    5.3683    3.5082 H   0  0  0  0  0  0  0  0  0  0  0  0
    8.9030    5.2726    1.7385 C   0  0  0  0  0  0  0  0  0  0  0  0
    9.5957    4.6219    1.2274 H   0  0  0  0  0  0  0  0  0  0  0  0
    7.7395    5.6734    1.0886 C   0  0  0  0  0  0  0  0  0  0  0  0
    7.5496    5.3268    0.0845 H   0  0  0  0  0  0  0  0  0  0  0  0
    6.8227    6.5054    1.7003 C   0  0  0  0  0  0  0  0  0  0  0  0
    5.9283    6.8045    1.1794 H   0  0  0  0  0  0  0  0  0  0  0  0
    7.0995    6.9328    2.9910 C   0  0  0  0  0  0  0  0  0  0  0  0
    9.2677    7.0825    5.9364 C   0  0  0  0  0  0  0  0  0  0  0  0
    8.8722    7.7161    6.7631 H   0  0  0  0  0  0  0  0  0  0  0  0
   10.5570    7.7212    5.4283 C   0  0  0  0  0  0  0  0  0  0  0  0
   10.9941    7.1451    4.6177 H   0  0  0  0  0  0  0  0  0  0  0  0
   11.2764    7.7837    6.2400 H   0  0  0  0  0  0  0  0  0  0  0  0
   10.3531    8.7288    5.0711 H   0  0  0  0  0  0  0  0  0  0  0  0
    9.4679    5.6679    6.4730 C   0  0  0  0  0  0  0  0  0  0  0  0
    8.5178    5.2536    6.8062 H   0  0  0  0  0  0  0  0  0  0  0  0
   10.1483    5.6939    7.3198 H   0  0  0  0  0  0  0  0  0  0  0  0
    9.8862    5.0116    5.7150 H   0  0  0  0  0  0  0  0  0  0  0  0
    5.1879    8.4877    3.6581 C   0  0  0  0  0  0  0  0  0  0  0  0
    5.0053    9.0478    4.6036 H   0  0  0  0  0  0  0  0  0  0  0  0
    4.0081    7.5484    3.4238 C   0  0  0  0  0  0  0  0  0  0  0  0
    4.1182    6.9978    2.4937 H   0  0  0  0  0  0  0  0  0  0  0  0
    3.0888    8.1255    3.3758 H   0  0  0  0  0  0  0  0  0  0  0  0
    3.9258    6.8355    4.2425 H   0  0  0  0  0  0  0  0  0  0  0  0
    5.3791    9.5050    2.5369 C   0  0  0  0  0  0  0  0  0  0  0  0
    6.2242   10.1513    2.7661 H   0  0  0  0  0  0  0  0  0  0  0  0
    4.4890   10.1217    2.4495 H   0  0  0  0  0  0  0  0  0  0  0  0
    5.5610    9.0171    1.5835 H   0  0  0  0  0  0  0  0  0  0  0  0
    5.6680    7.7692    7.5815 C   0  0  0  0  0  2  0  0  0  0  0  0
    4.2859    6.5761    9.3775 C   0  0  0  0  0  0  0  0  0  0  0  0
    3.9254    7.3654   10.0506 H   0  0  0  0  0  0  0  0  0  0  0  0
    3.0931    5.8346    8.7660 C   0  0  0  0  0  0  0  0  0  0  0  0
    3.4610    5.0897    8.0553 H   0  0  0  0  0  0  0  0  0  0  0  0
    2.4620    6.5406    8.2220 H   0  0  0  0  0  0  0  0  0  0  0  0
    2.2930    5.1471    9.8679 C   0  0  0  0  0  0  0  0  0  0  0  0
    1.8867    5.9018   10.5446 H   0  0  0  0  0  0  0  0  0  0  0  0
    1.4539    4.6080    9.4251 H   0  0  0  0  0  0  0  0  0  0  0  0
    3.1785    4.1837   10.6531 C   0  0  0  0  0  0  0  0  0  0  0  0
    3.5358    3.3939    9.9879 H   0  0  0  0  0  0  0  0  0  0  0  0
    2.5983    3.7132   11.4482 H   0  0  0  0  0  0  0  0  0  0  0  0
    4.3722    4.9226   11.2516 C   0  0  0  0  0  0  0  0  0  0  0  0
    4.0180    5.6717   11.9629 H   0  0  0  0  0  0  0  0  0  0  0  0
    5.0120    4.2237   11.7927 H   0  0  0  0  0  0  0  0  0  0  0  0
    5.1828    5.6084   10.1568 C   0  0  0  0  0  0  0  0  0  0  0  0
    6.0212    6.1573   10.5898 H   0  0  0  0  0  0  0  0  0  0  0  0
    5.5843    4.8601    9.4684 H   0  0  0  0  0  0  0  0  0  0  0  0
  1 38  1  0  0  0  0
  1  3  1  0  0  0  0
  2  1  1  0  0  0  0
  4  7  1  0  0  0  0
  4 18  1  0  0  0  0
  5  7  1  0  0  0  0
  6 39  1  0  0  0  0
  7  1  2  0  0  0  0
  8  4  1  0  0  0  0
  9 10  1  0  0  0  0
  9  8  1  0  0  0  0
 11  9  2  0  0  0  0
 12 11  1  0  0  0  0
 13 15  2  0  0  0  0
 13 11  1  0  0  0  0
 14 13  1  0  0  0  0
 15 17  1  0  0  0  0
 16 15  1  0  0  0  0
 17  8  2  0  0  0  0
 17  5  1  0  0  0  0
 18 24  1  0  0  0  0
 18 19  1  0  0  0  0
 20 18  1  0  0  0  0
 20 22  1  0  0  0  0
 21 20  1  0  0  0  0
 23 20  1  0  0  0  0
 24 25  1  0  0  0  0
 24 26  1  0  0  0  0
 27 24  1  0  0  0  0
 28  5  1  0  0  0  0
 28 29  1  0  0  0  0
 30 28  1  0  0  0  0
 30 33  1  0  0  0  0
 31 30  1  0  0  0  0
 32 30  1  0  0  0  0
 34 35  1  0  0  0  0
 34 28  1  0  0  0  0
 36 34  1  0  0  0  0
 37 34  1  0  0  0  0
 38  6  1  0  0  0  0
 39 40  1  0  0  0  0
 39 53  1  0  0  0  0
 41 39  1  0  0  0  0
 41 44  1  0  0  0  0
 42 41  1  0  0  0  0
 43 41  1  0  0  0  0
 44 45  1  0  0  0  0
 44 47  1  0  0  0  0
 46 44  1  0  0  0  0
 47 50  1  0  0  0  0
 47 49  1  0  0  0  0
 48 47  1  0  0  0  0
 50 52  1  0  0  0  0
 50 51  1  0  0  0  0
 53 54  1  0  0  0  0
 53 50  1  0  0  0  0
 55 53  1  0  0  0  0
M  END
$$$$
