CSD_code = FORNIJ | q = 0 | S = 0 | Stoichiometry = C6H18Cl2O6P2Pt | MND = 4
 OpenBabel04212202033D

 35 34  0  0  0  0  0  0  0  0999 V2000
   -0.6183   15.0977    3.5349 Pt  0  0  0  0  0  0  0  0  0  0  0  0
   -0.5531   13.0118    4.4471 Cl  0  0  0  0  0  0  0  0  0  0  0  0
    0.9850   15.8348    4.9721 Cl  0  0  0  0  0  0  0  0  0  0  0  0
   -0.6776   17.1748    2.6103 P   0  0  0  0  0  4  0  0  0  0  0  0
   -2.2360   14.3624    2.1148 P   0  0  0  0  0  4  0  0  0  0  0  0
    0.4615   18.2993    2.7676 O   0  0  0  0  0  0  0  0  0  0  0  0
   -1.9095   18.0337    3.1436 O   0  0  0  0  0  0  0  0  0  0  0  0
   -0.9614   17.1189    1.0356 O   0  0  0  0  0  0  0  0  0  0  0  0
   -3.2801   15.5186    1.7445 O   0  0  0  0  0  0  0  0  0  0  0  0
   -1.6530   13.9677    0.6857 O   0  0  0  0  0  0  0  0  0  0  0  0
   -3.1538   13.0625    2.3508 O   0  0  0  0  0  0  0  0  0  0  0  0
    1.8327   17.9975    2.5336 C   0  0  0  0  0  0  0  0  0  0  0  0
   -2.2296   17.9508    4.5276 C   0  0  0  0  0  0  0  0  0  0  0  0
   -1.3382   18.2960    0.3253 C   0  0  0  0  0  0  0  0  0  0  0  0
   -4.1853   15.3568    0.6555 C   0  0  0  0  0  0  0  0  0  0  0  0
   -0.4155   13.2656    0.6428 C   0  0  0  0  0  0  0  0  0  0  0  0
   -3.8115   12.8444    3.5940 C   0  0  0  0  0  0  0  0  0  0  0  0
    2.3807   18.9217    2.7100 H   0  0  0  0  0  0  0  0  0  0  0  0
    1.9874   17.6626    1.5060 H   0  0  0  0  0  0  0  0  0  0  0  0
    2.1691   17.2272    3.2295 H   0  0  0  0  0  0  0  0  0  0  0  0
   -3.2505   18.3136    4.6374 H   0  0  0  0  0  0  0  0  0  0  0  0
   -1.5460   18.5661    5.1137 H   0  0  0  0  0  0  0  0  0  0  0  0
   -2.1636   16.9109    4.8771 H   0  0  0  0  0  0  0  0  0  0  0  0
   -1.1610   18.0938   -0.7303 H   0  0  0  0  0  0  0  0  0  0  0  0
   -0.7434   19.1515    0.6489 H   0  0  0  0  0  0  0  0  0  0  0  0
   -2.3934   18.5079    0.4953 H   0  0  0  0  0  0  0  0  0  0  0  0
   -4.9815   16.0860    0.8005 H   0  0  0  0  0  0  0  0  0  0  0  0
   -4.5985   14.3472    0.6414 H   0  0  0  0  0  0  0  0  0  0  0  0
   -3.6691   15.5465   -0.2852 H   0  0  0  0  0  0  0  0  0  0  0  0
   -0.0362   13.3585   -0.3737 H   0  0  0  0  0  0  0  0  0  0  0  0
   -0.5647   12.2151    0.8949 H   0  0  0  0  0  0  0  0  0  0  0  0
    0.3012   13.7046    1.3504 H   0  0  0  0  0  0  0  0  0  0  0  0
   -4.3531   11.9056    3.4899 H   0  0  0  0  0  0  0  0  0  0  0  0
   -4.5091   13.6553    3.8127 H   0  0  0  0  0  0  0  0  0  0  0  0
   -3.0758   12.7615    4.3958 H   0  0  0  0  0  0  0  0  0  0  0  0
  1  2  1  0  0  0  0
  1  3  1  0  0  0  0
  4  6  1  0  0  0  0
  4  7  1  0  0  0  0
  4  1  1  0  0  0  0
  5 11  1  0  0  0  0
  5  1  1  0  0  0  0
  7 13  1  0  0  0  0
  8  4  1  0  0  0  0
  9  5  1  0  0  0  0
 10  5  1  0  0  0  0
 11 17  1  0  0  0  0
 12 18  1  0  0  0  0
 12  6  1  0  0  0  0
 12 20  1  0  0  0  0
 13 21  1  0  0  0  0
 13 23  1  0  0  0  0
 13 22  1  0  0  0  0
 14 26  1  0  0  0  0
 14 25  1  0  0  0  0
 14  8  1  0  0  0  0
 15 27  1  0  0  0  0
 15  9  1  0  0  0  0
 16 10  1  0  0  0  0
 16 31  1  0  0  0  0
 16 32  1  0  0  0  0
 17 34  1  0  0  0  0
 17 35  1  0  0  0  0
 19 12  1  0  0  0  0
 24 14  1  0  0  0  0
 28 15  1  0  0  0  0
 29 15  1  0  0  0  0
 30 16  1  0  0  0  0
 33 17  1  0  0  0  0
M  END
$$$$
