CSD_code = FORQAE | q = 0 | S = 0 | Stoichiometry = C20H23ClN2P2Pt | MND = 4
 OpenBabel04212202033D

 49 52  0  0  0  0  0  0  0  0999 V2000
    1.6841    6.9535    9.7206 Pt  0  0  1  0  0  0  0  0  0  0  0  0
    3.5035    7.9494   10.7786 Cl  0  0  0  0  0  0  0  0  0  0  0  0
   -0.2022    6.2127    8.6819 P   0  0  0  0  0  4  0  0  0  0  0  0
    1.3658    8.4980    8.3916 N   0  0  0  0  0  0  0  0  0  0  0  0
    0.3202    8.3752    7.5167 C   0  0  0  0  0  0  0  0  0  0  0  0
   -0.4664    7.3009    7.5015 N   0  0  0  0  0  0  0  0  0  0  0  0
    0.0784    9.4077    6.5795 C   0  0  0  0  0  0  0  0  0  0  0  0
   -0.7558    9.2778    5.9095 H   0  0  0  0  0  0  0  0  0  0  0  0
    0.8788   10.5140    6.5441 C   0  0  0  0  0  0  0  0  0  0  0  0
    0.6953   11.3023    5.8287 H   0  0  0  0  0  0  0  0  0  0  0  0
    1.9401   10.6139    7.4490 C   0  0  0  0  0  0  0  0  0  0  0  0
    2.5951   11.4692    7.4540 H   0  0  0  0  0  0  0  0  0  0  0  0
    2.1362    9.5898    8.3420 C   0  0  0  0  0  0  0  0  0  0  0  0
    2.9486    9.6381    9.0552 H   0  0  0  0  0  0  0  0  0  0  0  0
   -1.5781    6.4153    9.8620 C   0  0  0  0  0  0  0  0  0  0  0  0
   -2.8853    6.0804    9.5318 C   0  0  0  0  0  0  0  0  0  0  0  0
   -3.0880    5.6152    8.5774 H   0  0  0  0  0  0  0  0  0  0  0  0
   -3.9096    6.3509   10.4214 C   0  0  0  0  0  0  0  0  0  0  0  0
   -4.9263    6.0866   10.1692 H   0  0  0  0  0  0  0  0  0  0  0  0
   -3.6359    6.9658   11.6332 C   0  0  0  0  0  0  0  0  0  0  0  0
   -4.4388    7.1745   12.3250 H   0  0  0  0  0  0  0  0  0  0  0  0
   -2.3361    7.3247   11.9548 C   0  0  0  0  0  0  0  0  0  0  0  0
   -2.1278    7.8187   12.8928 H   0  0  0  0  0  0  0  0  0  0  0  0
   -1.3107    7.0529   11.0683 C   0  0  0  0  0  0  0  0  0  0  0  0
   -0.2791    7.3388   11.2950 H   0  0  0  0  0  0  0  0  0  0  0  0
   -0.4886    4.6076    7.8889 C   0  0  0  0  0  0  0  0  0  0  0  0
   -1.0778    3.5388    8.5553 C   0  0  0  0  0  0  0  0  0  0  0  0
   -1.4278    3.6656    9.5703 H   0  0  0  0  0  0  0  0  0  0  0  0
   -1.2350    2.3255    7.9105 C   0  0  0  0  0  0  0  0  0  0  0  0
   -1.7013    1.4984    8.4266 H   0  0  0  0  0  0  0  0  0  0  0  0
   -0.7975    2.1691    6.6047 C   0  0  0  0  0  0  0  0  0  0  0  0
   -0.9221    1.2194    6.1052 H   0  0  0  0  0  0  0  0  0  0  0  0
   -0.2058    3.2309    5.9393 C   0  0  0  0  0  0  0  0  0  0  0  0
    0.1311    3.1092    4.9202 H   0  0  0  0  0  0  0  0  0  0  0  0
   -0.0485    4.4456    6.5805 C   0  0  0  0  0  0  0  0  0  0  0  0
    0.3990    5.2902    6.0762 H   0  0  0  0  0  0  0  0  0  0  0  0
    2.1910    5.2896   11.1824 P   0  0  0  0  0  4  0  0  0  0  0  0
    1.1260    3.7986   11.2371 C   0  0  0  0  0  0  0  0  0  0  0  0
    0.1164    4.0921   11.5181 H   0  0  0  0  0  0  0  0  0  0  0  0
    1.5108    3.0842   11.9635 H   0  0  0  0  0  0  0  0  0  0  0  0
    1.0951    3.3368   10.2524 H   0  0  0  0  0  0  0  0  0  0  0  0
    2.2372    5.7502   12.9501 C   0  0  0  0  0  0  0  0  0  0  0  0
    2.9260    6.5813   13.0841 H   0  0  0  0  0  0  0  0  0  0  0  0
    2.5640    4.8966   13.5433 H   0  0  0  0  0  0  0  0  0  0  0  0
    1.2428    6.0572   13.2706 H   0  0  0  0  0  0  0  0  0  0  0  0
    3.8403    4.5585   10.9036 C   0  0  0  0  0  0  0  0  0  0  0  0
    4.5910    5.3414   10.9916 H   0  0  0  0  0  0  0  0  0  0  0  0
    3.8804    4.1416    9.8979 H   0  0  0  0  0  0  0  0  0  0  0  0
    4.0325    3.7737   11.6349 H   0  0  0  0  0  0  0  0  0  0  0  0
  1  2  1  1  0  0  0
  1 37  1  0  0  0  0
  3  1  1  0  0  0  0
  3 15  1  0  0  0  0
  4  1  1  0  0  0  0
  5  4  1  0  0  0  0
  6  5  2  0  0  0  0
  6  3  1  0  0  0  0
  7  5  1  0  0  0  0
  8  7  1  0  0  0  0
  9  7  2  0  0  0  0
  9 11  1  0  0  0  0
 10  9  1  0  0  0  0
 11 12  1  0  0  0  0
 11 13  2  0  0  0  0
 13  4  1  0  0  0  0
 13 14  1  0  0  0  0
 15 24  1  0  0  0  0
 16 15  2  0  0  0  0
 16 18  1  0  0  0  0
 17 16  1  0  0  0  0
 18 20  2  0  0  0  0
 19 18  1  0  0  0  0
 20 22  1  0  0  0  0
 20 21  1  0  0  0  0
 22 23  1  0  0  0  0
 24 25  1  0  0  0  0
 24 22  2  0  0  0  0
 26 27  1  0  0  0  0
 26  3  1  0  0  0  0
 27 28  1  0  0  0  0
 29 30  1  0  0  0  0
 29 27  2  0  0  0  0
 31 29  1  0  0  0  0
 32 31  1  0  0  0  0
 33 35  1  0  0  0  0
 33 31  2  0  0  0  0
 34 33  1  0  0  0  0
 35 26  2  0  0  0  0
 36 35  1  0  0  0  0
 37 38  1  0  0  0  0
 37 42  1  0  0  0  0
 38 39  1  0  0  0  0
 38 40  1  0  0  0  0
 41 38  1  0  0  0  0
 42 43  1  0  0  0  0
 42 45  1  0  0  0  0
 42 44  1  0  0  0  0
 46 47  1  0  0  0  0
 46 37  1  0  0  0  0
 46 49  1  0  0  0  0
 48 46  1  0  0  0  0
M  END
$$$$
