CSD_code = FOSFOJ | q = 0 | S = 0 | Stoichiometry = C26H30Cl2F2N4O2Pd | MND = 4
 OpenBabel04212202043D

 67 70  0  0  1  0  0  0  0  0999 V2000
    1.9866   -1.7304    9.0669 C   0  0  0  0  0  0  0  0  0  0  0  0
    3.0692   -2.8019    9.2258 C   0  0  0  0  0  0  0  0  0  0  0  0
    3.4897   -3.0598    8.2566 H   0  0  0  0  0  0  0  0  0  0  0  0
    2.6461   -3.6951    9.6775 H   0  0  0  0  0  0  0  0  0  0  0  0
    3.8751   -2.4277    9.8536 H   0  0  0  0  0  0  0  0  0  0  0  0
    1.3027   -1.4526   10.4065 C   0  0  0  0  0  0  0  0  0  0  0  0
    0.5896   -0.6340   10.3019 H   0  0  0  0  0  0  0  0  0  0  0  0
    2.0578   -1.1797   11.1553 H   0  0  0  0  0  0  0  0  0  0  0  0
    0.7751   -2.3371   10.7544 H   0  0  0  0  0  0  0  0  0  0  0  0
    0.9952   -2.0923    7.9339 C   0  0  0  0  0  0  0  0  0  0  0  0
   -0.0032   -1.7362    8.1891 H   0  0  0  0  0  0  0  0  0  0  0  0
    0.9484   -3.1661    7.7709 H   0  0  0  0  0  0  0  0  0  0  0  0
    1.5251   -1.3303    6.7119 C   0  0  0  0  0  0  0  0  0  0  0  0
    2.1445   -1.9504    6.0610 H   0  0  0  0  0  0  0  0  0  0  0  0
    0.7467   -0.8855    6.0946 H   0  0  0  0  0  0  0  0  0  0  0  0
    2.3695   -0.2831    7.3646 C   0  0  2  0  0  3  0  0  0  0  0  0
    2.5993    1.2824    5.4790 C   0  0  0  0  0  0  0  0  0  0  0  0
    3.0037    2.6983    5.2737 C   0  0  0  0  0  0  0  0  0  0  0  0
    2.8489    3.6503    6.2820 C   0  0  0  0  0  0  0  0  0  0  0  0
    2.3919    3.3874    7.2272 H   0  0  0  0  0  0  0  0  0  0  0  0
    3.2208    4.9622    6.0562 C   0  0  0  0  0  0  0  0  0  0  0  0
    3.1022    5.7160    6.8181 H   0  0  0  0  0  0  0  0  0  0  0  0
    3.7458    5.3062    4.8220 C   0  0  0  0  0  0  0  0  0  0  0  0
    3.8861    4.3839    3.7987 C   0  0  0  0  0  0  0  0  0  0  0  0
    4.2840    4.6953    2.8463 H   0  0  0  0  0  0  0  0  0  0  0  0
    3.5013    3.0776    4.0295 C   0  0  0  0  0  0  0  0  0  0  0  0
    3.5871    2.3330    3.2533 H   0  0  0  0  0  0  0  0  0  0  0  0
    2.6084   -0.4911    8.6050 N   0  0  0  0  0  0  0  0  0  0  0  0
    2.8474    0.8404    6.7637 N   0  0  0  0  0  0  0  0  0  0  0  0
    2.1221    0.5779    4.6211 O   0  0  0  0  0  0  0  0  0  0  0  0
    5.3125   -0.2574   10.1045 Cl  0  0  0  0  0  0  0  0  0  0  0  0
    4.1225    6.5801    4.6080 F   0  0  0  0  0  0  0  0  0  0  0  0
    3.3858    0.9390    9.7669 Pd  0  0  0  0  0  0  0  0  0  0  0  0
    3.3259    1.4700    7.4245 H   0  0  0  0  0  0  0  0  0  0  0  0
    4.7848    3.6084   10.4674 C   0  0  0  0  0  0  0  0  0  0  0  0
    3.7022    4.6798   10.3079 C   0  0  0  0  0  0  0  0  0  0  0  0
    3.2813    4.9377   11.2768 H   0  0  0  0  0  0  0  0  0  0  0  0
    4.1256    5.5730    9.8563 H   0  0  0  0  0  0  0  0  0  0  0  0
    2.8966    4.3054    9.6797 H   0  0  0  0  0  0  0  0  0  0  0  0
    5.4694    3.3305    9.1281 C   0  0  0  0  0  0  0  0  0  0  0  0
    6.1829    2.5123    9.2332 H   0  0  0  0  0  0  0  0  0  0  0  0
    4.7147    3.0569    8.3792 H   0  0  0  0  0  0  0  0  0  0  0  0
    5.9966    4.2152    8.7800 H   0  0  0  0  0  0  0  0  0  0  0  0
    5.7758    3.9704   11.6007 C   0  0  0  0  0  0  0  0  0  0  0  0
    6.7743    3.6142   11.3462 H   0  0  0  0  0  0  0  0  0  0  0  0
    5.8227    5.0443   11.7635 H   0  0  0  0  0  0  0  0  0  0  0  0
    5.2451    3.2088   12.8226 C   0  0  0  0  0  0  0  0  0  0  0  0
    4.6252    3.8290   13.4729 H   0  0  0  0  0  0  0  0  0  0  0  0
    6.0232    2.7643   13.4406 H   0  0  0  0  0  0  0  0  0  0  0  0
    4.4012    2.1614   12.1697 C   0  0  1  0  0  3  0  0  0  0  0  0
    4.1707    0.5960   14.0553 C   0  0  0  0  0  0  0  0  0  0  0  0
    3.7661   -0.8198   14.2606 C   0  0  0  0  0  0  0  0  0  0  0  0
    3.9219   -1.7720   13.2526 C   0  0  0  0  0  0  0  0  0  0  0  0
    4.3797   -1.5093   12.3078 H   0  0  0  0  0  0  0  0  0  0  0  0
    3.5496   -3.0839   13.4783 C   0  0  0  0  0  0  0  0  0  0  0  0
    3.6689   -3.8378   12.7165 H   0  0  0  0  0  0  0  0  0  0  0  0
    3.0234   -3.4276   14.7120 C   0  0  0  0  0  0  0  0  0  0  0  0
    2.8821   -2.5052   15.7349 C   0  0  0  0  0  0  0  0  0  0  0  0
    2.4832   -2.8163   16.6871 H   0  0  0  0  0  0  0  0  0  0  0  0
    3.2672   -1.1989   15.5044 C   0  0  0  0  0  0  0  0  0  0  0  0
    3.1807   -0.4542   16.2803 H   0  0  0  0  0  0  0  0  0  0  0  0
    4.1630    2.3690   10.9291 N   0  0  0  0  0  0  0  0  0  0  0  0
    3.9232    1.0378   12.7705 N   0  0  0  0  0  0  0  0  0  0  0  0
    4.6474    1.3006   14.9135 O   0  0  0  0  0  0  0  0  0  0  0  0
    1.4599    2.1367    9.4304 Cl  0  0  0  0  0  0  0  0  0  0  0  0
    2.6463   -4.7015   14.9259 F   0  0  0  0  0  0  0  0  0  0  0  0
    3.4453    0.4080   12.1095 H   0  0  0  0  0  0  0  0  0  0  0  0
  1  2  1  0  0  0  0
  1  6  1  0  0  0  0
  2  4  1  0  0  0  0
  2  5  1  0  0  0  0
  3  2  1  0  0  0  0
  6  9  1  0  0  0  0
  6  8  1  0  0  0  0
  7  6  1  0  0  0  0
 10 11  1  0  0  0  0
 10  1  1  0  0  0  0
 12 10  1  0  0  0  0
 13 16  1  0  0  0  0
 13 10  1  0  0  0  0
 14 13  1  0  0  0  0
 15 13  1  0  0  0  0
 16 29  1  1  0  0  0
 16 28  1  0  0  0  0
 17 29  1  0  0  0  0
 18 17  1  0  0  0  0
 18 19  1  0  0  0  0
 19 20  1  0  0  0  0
 21 19  2  0  0  0  0
 21 22  1  0  0  0  0
 23 21  1  0  0  0  0
 24 26  1  0  0  0  0
 24 23  2  0  0  0  0
 25 24  1  0  0  0  0
 26 18  2  0  0  0  0
 27 26  1  0  0  0  0
 28  1  1  0  0  0  0
 28 33  1  0  0  0  0
 29 34  1  0  0  0  0
 30 17  2  0  0  0  0
 32 23  1  0  0  0  0
 33 31  1  0  0  0  0
 33 62  1  0  0  0  0
 35 62  1  0  0  0  0
 35 44  1  0  0  0  0
 36 35  1  0  0  0  0
 36 37  1  0  0  0  0
 38 36  1  0  0  0  0
 39 36  1  0  0  0  0
 40 41  1  0  0  0  0
 40 35  1  0  0  0  0
 42 40  1  0  0  0  0
 43 40  1  0  0  0  0
 44 46  1  0  0  0  0
 44 47  1  0  0  0  0
 45 44  1  0  0  0  0
 47 49  1  0  0  0  0
 47 48  1  0  0  0  0
 50 63  1  6  0  0  0
 50 47  1  0  0  0  0
 51 52  1  0  0  0  0
 51 64  2  0  0  0  0
 52 60  1  0  0  0  0
 53 55  1  0  0  0  0
 53 52  2  0  0  0  0
 54 53  1  0  0  0  0
 55 57  2  0  0  0  0
 56 55  1  0  0  0  0
 57 66  1  0  0  0  0
 57 58  1  0  0  0  0
 58 59  1  0  0  0  0
 60 58  2  0  0  0  0
 60 61  1  0  0  0  0
 62 50  1  0  0  0  0
 63 51  1  0  0  0  0
 65 33  1  0  0  0  0
 67 63  1  0  0  0  0
M  END
$$$$
