CSD_code = FOSFID | q = 0 | S = 0 | Stoichiometry = C26H30Br2Cl2N4O2Pd | MND = 4
 OpenBabel04212202043D

 67 72  0  0  1  0  0  0  0  0999 V2000
    1.9151    2.8403    5.0157 C   0  0  1  0  0  3  0  0  0  0  0  0
    2.7447    3.3081    3.9173 C   0  0  0  0  0  0  0  0  0  0  0  0
    2.6799    2.6604    2.6788 C   0  0  0  0  0  0  0  0  0  0  0  0
    2.0755    1.7554    2.5605 H   0  0  0  0  0  0  0  0  0  0  0  0
    3.4325    3.1346    1.6208 C   0  0  0  0  0  0  0  0  0  0  0  0
    3.4027    2.6444    0.6596 H   0  0  0  0  0  0  0  0  0  0  0  0
    4.2361    4.2510    1.8020 C   0  0  0  0  0  0  0  0  0  0  0  0
    4.3255    4.8876    3.0299 C   0  0  0  0  0  0  0  0  0  0  0  0
    4.9638    5.7490    3.1517 H   0  0  0  0  0  0  0  0  0  0  0  0
    3.5814    4.4091    4.0905 C   0  0  0  0  0  0  0  0  0  0  0  0
    3.6305    4.8952    5.0519 H   0  0  0  0  0  0  0  0  0  0  0  0
    0.3229    1.8978    6.2164 C   0  0  1  0  0  0  0  0  0  0  0  0
    0.3942    0.8080    6.3583 H   0  0  0  0  0  0  0  0  0  0  0  0
   -1.0811    2.4313    6.5262 C   0  0  0  0  0  0  0  0  0  0  0  0
   -1.3787    3.1449    5.7456 H   0  0  0  0  0  0  0  0  0  0  0  0
   -1.8112    1.6253    6.5786 H   0  0  0  0  0  0  0  0  0  0  0  0
   -0.8888    3.1448    7.8642 C   0  0  0  0  0  0  0  0  0  0  0  0
   -1.6102    3.9449    8.0148 H   0  0  0  0  0  0  0  0  0  0  0  0
   -0.9753    2.4299    8.6832 H   0  0  0  0  0  0  0  0  0  0  0  0
    0.5482    3.6864    7.8092 C   0  0  0  0  0  0  0  0  0  0  0  0
    0.6080    5.0095    7.0422 C   0  0  0  0  0  0  0  0  0  0  0  0
    0.2270    4.9117    6.0265 H   0  0  0  0  0  0  0  0  0  0  0  0
    1.6323    5.3731    6.9918 H   0  0  0  0  0  0  0  0  0  0  0  0
    0.0090    5.7534    7.5607 H   0  0  0  0  0  0  0  0  0  0  0  0
    1.1659    3.8454    9.1954 C   0  0  0  0  0  0  0  0  0  0  0  0
    1.1683    2.8902    9.7131 H   0  0  0  0  0  0  0  0  0  0  0  0
    0.5976    4.5658    9.7775 H   0  0  0  0  0  0  0  0  0  0  0  0
    2.1923    4.1919    9.1102 H   0  0  0  0  0  0  0  0  0  0  0  0
    0.7988    2.2196    4.8870 N   0  0  0  0  0  0  0  0  0  0  0  0
    1.2562    2.5817    7.1229 N   0  0  2  0  0  0  0  0  0  0  0  0
   -0.3641    4.5040    3.3078 Cl  0  0  0  0  0  0  0  0  0  0  0  0
    5.2420    4.9108    0.3329 Br  0  0  0  0  0  0  0  0  0  0  0  0
   -0.3662   -0.0708    3.3077 Cl  0  0  0  0  0  0  0  0  0  0  0  0
   -0.3652    2.1975    3.3075 Pd  0  0  0  0  0  0  0  0  0  0  0  0
    2.3119    3.0360    6.2773 O   0  0  0  0  0  0  0  0  0  0  0  0
   -2.6453    2.8424    1.5990 C   0  0  1  0  0  3  0  0  0  0  0  0
   -3.4769    3.3092    2.6961 C   0  0  0  0  0  0  0  0  0  0  0  0
   -3.4110    2.6638    3.9358 C   0  0  0  0  0  0  0  0  0  0  0  0
   -2.8028    1.7615    4.0564 H   0  0  0  0  0  0  0  0  0  0  0  0
   -4.1671    3.1364    4.9920 C   0  0  0  0  0  0  0  0  0  0  0  0
   -4.1360    2.6480    5.9541 H   0  0  0  0  0  0  0  0  0  0  0  0
   -4.9759    4.2484    4.8078 C   0  0  0  0  0  0  0  0  0  0  0  0
   -5.0666    4.8825    3.5787 C   0  0  0  0  0  0  0  0  0  0  0  0
   -5.7097    5.7400    3.4544 H   0  0  0  0  0  0  0  0  0  0  0  0
   -4.3186    4.4060    2.5201 C   0  0  0  0  0  0  0  0  0  0  0  0
   -4.3689    4.8902    1.5577 H   0  0  0  0  0  0  0  0  0  0  0  0
   -1.0539    1.8973    0.3992 C   0  0  1  0  0  0  0  0  0  0  0  0
   -1.1282    0.8076    0.2574 H   0  0  0  0  0  0  0  0  0  0  0  0
    0.3516    2.4268    0.0897 C   0  0  0  0  0  0  0  0  0  0  0  0
    0.6511    3.1394    0.8705 H   0  0  0  0  0  0  0  0  0  0  0  0
    1.0794    1.6187    0.0372 H   0  0  0  0  0  0  0  0  0  0  0  0
    0.1615    3.1412   -1.2482 C   0  0  0  0  0  0  0  0  0  0  0  0
    0.8854    3.9389   -1.3988 H   0  0  0  0  0  0  0  0  0  0  0  0
    0.2454    2.4261   -2.0673 H   0  0  0  0  0  0  0  0  0  0  0  0
   -1.2738    3.6872   -1.1926 C   0  0  0  0  0  0  0  0  0  0  0  0
   -1.3294    5.0095   -0.4239 C   0  0  0  0  0  0  0  0  0  0  0  0
   -0.9485    4.9094    0.5916 H   0  0  0  0  0  0  0  0  0  0  0  0
   -2.3526    5.3760   -0.3727 H   0  0  0  0  0  0  0  0  0  0  0  0
   -0.7284    5.7523   -0.9416 H   0  0  0  0  0  0  0  0  0  0  0  0
   -1.8908    3.8500   -2.5786 C   0  0  0  0  0  0  0  0  0  0  0  0
   -1.8972    2.8953   -3.0973 H   0  0  0  0  0  0  0  0  0  0  0  0
   -1.3196    4.5686   -3.1600 H   0  0  0  0  0  0  0  0  0  0  0  0
   -2.9159    4.2007   -2.4931 H   0  0  0  0  0  0  0  0  0  0  0  0
   -1.5297    2.2204    1.7283 N   0  0  0  0  0  0  0  0  0  0  0  0
   -1.9849    2.5836   -0.5078 N   0  0  2  0  0  0  0  0  0  0  0  0
   -5.9882    4.9050    6.2741 Br  0  0  0  0  0  0  0  0  0  0  0  0
   -3.0406    3.0391    0.3369 O   0  0  0  0  0  0  0  0  0  0  0  0
  1  2  1  6  0  0  0
  1 35  1  0  0  0  0
  2 10  1  0  0  0  0
  3  2  2  0  0  0  0
  4  3  1  0  0  0  0
  5  7  2  0  0  0  0
  5  3  1  0  0  0  0
  6  5  1  0  0  0  0
  7  8  1  0  0  0  0
  8  9  1  0  0  0  0
  8 10  2  0  0  0  0
 10 11  1  0  0  0  0
 12 13  1  1  0  0  0
 12 14  1  0  0  0  0
 12 30  1  0  0  0  0
 14 16  1  0  0  0  0
 14 17  1  0  0  0  0
 15 14  1  0  0  0  0
 17 18  1  0  0  0  0
 17 19  1  0  0  0  0
 20 17  1  0  0  0  0
 20 25  1  0  0  0  0
 21 24  1  0  0  0  0
 21 20  1  0  0  0  0
 22 21  1  0  0  0  0
 23 21  1  0  0  0  0
 25 26  1  0  0  0  0
 25 27  1  0  0  0  0
 28 25  1  0  0  0  0
 29  1  1  0  0  0  0
 29 12  1  0  0  0  0
 30 35  1  6  0  0  0
 30 20  1  0  0  0  0
 32  7  1  0  0  0  0
 34 33  1  0  0  0  0
 34 31  1  0  0  0  0
 34 29  1  0  0  0  0
 36 64  1  0  0  0  0
 36 37  1  1  0  0  0
 37 38  1  0  0  0  0
 38 39  1  0  0  0  0
 38 40  2  0  0  0  0
 40 41  1  0  0  0  0
 42 40  1  0  0  0  0
 42 66  1  0  0  0  0
 43 42  2  0  0  0  0
 44 43  1  0  0  0  0
 45 37  2  0  0  0  0
 45 43  1  0  0  0  0
 46 45  1  0  0  0  0
 47 48  1  6  0  0  0
 47 64  1  0  0  0  0
 49 47  1  0  0  0  0
 49 50  1  0  0  0  0
 51 49  1  0  0  0  0
 52 55  1  0  0  0  0
 52 49  1  0  0  0  0
 53 52  1  0  0  0  0
 54 52  1  0  0  0  0
 55 65  1  0  0  0  0
 55 56  1  0  0  0  0
 56 58  1  0  0  0  0
 56 57  1  0  0  0  0
 59 56  1  0  0  0  0
 60 63  1  0  0  0  0
 60 55  1  0  0  0  0
 61 60  1  0  0  0  0
 62 60  1  0  0  0  0
 64 34  1  0  0  0  0
 65 67  1  1  0  0  0
 65 47  1  0  0  0  0
 67 36  1  0  0  0  0
M  END
$$$$
