CSD_code = FOSHUS | q = 0 | S = 0 | Stoichiometry = C26H22Cl2NPPdS | MND = 4
 OpenBabel04212202043D

 54 59  0  0  0  0  0  0  0  0999 V2000
    9.4958    0.0214    2.3002 C   0  0  0  0  0  0  0  0  0  0  0  0
    9.4901   -0.9266    3.3171 C   0  0  0  0  0  0  0  0  0  0  0  0
    9.8834   -0.6779    4.2903 H   0  0  0  0  0  0  0  0  0  0  0  0
    9.0089   -2.1924    3.0432 C   0  0  0  0  0  0  0  0  0  0  0  0
    9.0523   -2.9601    3.8010 H   0  0  0  0  0  0  0  0  0  0  0  0
    8.4262   -2.4869    1.8229 C   0  0  0  0  0  0  0  0  0  0  0  0
    8.0382   -3.4793    1.6743 H   0  0  0  0  0  0  0  0  0  0  0  0
    8.3497   -1.5315    0.8034 C   0  0  0  0  0  0  0  0  0  0  0  0
    8.9943   -0.3086    1.0461 C   0  0  0  0  0  0  0  0  0  0  0  0
    7.6735    0.6000   -1.0334 C   0  0  0  0  0  0  0  0  0  0  0  0
    7.0720    1.7086   -1.5976 C   0  0  0  0  0  0  0  0  0  0  0  0
    7.5690    2.6701   -1.5251 H   0  0  0  0  0  0  0  0  0  0  0  0
    5.8799    1.5630   -2.2841 C   0  0  0  0  0  0  0  0  0  0  0  0
    5.4103    2.4198   -2.7393 H   0  0  0  0  0  0  0  0  0  0  0  0
    5.3248    0.3018   -2.4042 C   0  0  0  0  0  0  0  0  0  0  0  0
    4.4151    0.1616   -2.9685 H   0  0  0  0  0  0  0  0  0  0  0  0
    5.9098   -0.7958   -1.7965 C   0  0  0  0  0  0  0  0  0  0  0  0
    5.4310   -1.7528   -1.9098 H   0  0  0  0  0  0  0  0  0  0  0  0
    7.0927   -0.6722   -1.0657 C   0  0  0  0  0  0  0  0  0  0  0  0
    7.2790   -3.1025   -0.7447 C   0  0  0  0  0  0  0  0  0  0  0  0
    8.1167   -3.7609   -0.4971 H   0  0  0  0  0  0  0  0  0  0  0  0
    7.1587   -3.1256   -1.8310 H   0  0  0  0  0  0  0  0  0  0  0  0
    6.0029   -3.6285   -0.0786 C   0  0  0  0  0  0  0  0  0  0  0  0
    6.0886   -3.6377    1.0038 H   0  0  0  0  0  0  0  0  0  0  0  0
    5.8198   -4.6446   -0.4197 H   0  0  0  0  0  0  0  0  0  0  0  0
    5.1392   -3.0203   -0.3294 H   0  0  0  0  0  0  0  0  0  0  0  0
   11.4197    1.7409    3.6509 C   0  0  0  0  0  0  0  0  0  0  0  0
   11.6535    2.8480    4.4642 C   0  0  0  0  0  0  0  0  0  0  0  0
   10.9526    3.6710    4.4530 H   0  0  0  0  0  0  0  0  0  0  0  0
   12.7881    2.8901    5.2524 C   0  0  0  0  0  0  0  0  0  0  0  0
   12.9711    3.7464    5.8841 H   0  0  0  0  0  0  0  0  0  0  0  0
   13.6948    1.8416    5.2248 C   0  0  0  0  0  0  0  0  0  0  0  0
   14.5809    1.8784    5.8409 H   0  0  0  0  0  0  0  0  0  0  0  0
   13.4759    0.7525    4.3962 C   0  0  0  0  0  0  0  0  0  0  0  0
   14.1921   -0.0555    4.3636 H   0  0  0  0  0  0  0  0  0  0  0  0
   12.3456    0.7022    3.6011 C   0  0  0  0  0  0  0  0  0  0  0  0
   12.1779   -0.1378    2.9397 H   0  0  0  0  0  0  0  0  0  0  0  0
    8.5833    2.3237    3.5522 C   0  0  0  0  0  0  0  0  0  0  0  0
    7.5455    2.9637    2.8765 C   0  0  0  0  0  0  0  0  0  0  0  0
    7.6384    3.1614    1.7979 H   0  0  0  0  0  0  0  0  0  0  0  0
    6.4228    3.3788    3.5685 C   0  0  0  0  0  0  0  0  0  0  0  0
    5.6233    3.8836    3.0475 H   0  0  0  0  0  0  0  0  0  0  0  0
    6.3309    3.1556    4.9336 C   0  0  0  0  0  0  0  0  0  0  0  0
    5.4578    3.4868    5.4757 H   0  0  0  0  0  0  0  0  0  0  0  0
    7.3599    2.5168    5.6065 C   0  0  0  0  0  0  0  0  0  0  0  0
    7.2873    2.3497    6.6712 H   0  0  0  0  0  0  0  0  0  0  0  0
    8.4847    2.0957    4.9202 C   0  0  0  0  0  0  0  0  0  0  0  0
    9.2927    1.6069    5.4462 H   0  0  0  0  0  0  0  0  0  0  0  0
   10.4837    4.6266    1.7053 Cl  0  0  0  0  0  0  0  0  0  0  0  0
    9.6299    3.9805   -1.3552 Cl  0  0  0  0  0  0  0  0  0  0  0  0
    7.6680   -1.7519   -0.3839 N   0  0  0  0  0  0  0  0  0  0  0  0
    9.9930    1.7625    2.5461 P   0  0  0  0  0  4  0  0  0  0  0  0
    9.8228    2.8032    0.5733 Pd  0  0  0  0  0  0  0  0  0  0  0  0
    9.3094    0.7428   -0.3556 S   0  0  1  0  0  3  0  0  0  0  0  0
  1 52  1  0  0  0  0
  1  2  1  0  0  0  0
  2  3  1  0  0  0  0
  4  2  2  0  0  0  0
  4  5  1  0  0  0  0
  6  4  1  0  0  0  0
  7  6  1  0  0  0  0
  8  9  1  0  0  0  0
  8  6  2  0  0  0  0
  9  1  2  0  0  0  0
 11 12  1  0  0  0  0
 11 10  2  0  0  0  0
 13 11  1  0  0  0  0
 14 13  1  0  0  0  0
 15 13  2  0  0  0  0
 15 17  1  0  0  0  0
 16 15  1  0  0  0  0
 17 19  2  0  0  0  0
 18 17  1  0  0  0  0
 19 10  1  0  0  0  0
 19 51  1  0  0  0  0
 20 21  1  0  0  0  0
 20 51  1  0  0  0  0
 20 23  1  0  0  0  0
 22 20  1  0  0  0  0
 23 24  1  0  0  0  0
 25 23  1  0  0  0  0
 26 23  1  0  0  0  0
 27 28  1  0  0  0  0
 28 30  2  0  0  0  0
 29 28  1  0  0  0  0
 30 31  1  0  0  0  0
 32 30  1  0  0  0  0
 32 33  1  0  0  0  0
 34 32  2  0  0  0  0
 35 34  1  0  0  0  0
 36 27  2  0  0  0  0
 36 34  1  0  0  0  0
 37 36  1  0  0  0  0
 38 47  1  0  0  0  0
 39 38  2  0  0  0  0
 39 41  1  0  0  0  0
 40 39  1  0  0  0  0
 41 43  2  0  0  0  0
 42 41  1  0  0  0  0
 43 44  1  0  0  0  0
 43 45  1  0  0  0  0
 45 46  1  0  0  0  0
 47 48  1  0  0  0  0
 47 45  2  0  0  0  0
 50 53  1  0  0  0  0
 51  8  1  0  0  0  0
 52 38  1  0  0  0  0
 52 27  1  0  0  0  0
 53 49  1  0  0  0  0
 53 52  1  0  0  0  0
 54 10  1  6  0  0  0
 54 53  1  0  0  0  0
 54  9  1  0  0  0  0
M  END
$$$$
