CSD_code = FOSJAA | q = 0 | S = 0 | Stoichiometry = C26H22Cl2NPPtS | MND = 4
 OpenBabel04212202043D

 54 59  0  0  0  0  0  0  0  0999 V2000
    8.3656    0.1521    7.9893 C   0  0  0  0  0  0  0  0  0  0  0  0
    8.2534   -0.7619    9.0313 C   0  0  0  0  0  0  0  0  0  0  0  0
    8.5268   -0.4699   10.0333 H   0  0  0  0  0  0  0  0  0  0  0  0
    7.8206   -2.0423    8.7507 C   0  0  0  0  0  0  0  0  0  0  0  0
    7.7769   -2.7824    9.5353 H   0  0  0  0  0  0  0  0  0  0  0  0
    7.4062   -2.3875    7.4766 C   0  0  0  0  0  0  0  0  0  0  0  0
    7.0541   -3.3912    7.3174 H   0  0  0  0  0  0  0  0  0  0  0  0
    7.4470   -1.4716    6.4187 C   0  0  0  0  0  0  0  0  0  0  0  0
    8.0143   -0.2177    6.6964 C   0  0  0  0  0  0  0  0  0  0  0  0
    6.9912    0.5330    4.3554 C   0  0  0  0  0  0  0  0  0  0  0  0
    6.4859    1.5543    3.5735 C   0  0  0  0  0  0  0  0  0  0  0  0
    6.9265    2.5390    3.6485 H   0  0  0  0  0  0  0  0  0  0  0  0
    5.4535    1.2986    2.6894 C   0  0  0  0  0  0  0  0  0  0  0  0
    5.0634    2.0913    2.0721 H   0  0  0  0  0  0  0  0  0  0  0  0
    4.9564    0.0123    2.5935 C   0  0  0  0  0  0  0  0  0  0  0  0
    4.1702   -0.2160    1.8896 H   0  0  0  0  0  0  0  0  0  0  0  0
    5.4478   -0.9997    3.3993 C   0  0  0  0  0  0  0  0  0  0  0  0
    5.0212   -1.9815    3.2921 H   0  0  0  0  0  0  0  0  0  0  0  0
    6.4723   -0.7653    4.3189 C   0  0  0  0  0  0  0  0  0  0  0  0
    6.6841   -3.1608    4.8170 C   0  0  0  0  0  0  0  0  0  0  0  0
    7.4965   -3.7638    5.2325 H   0  0  0  0  0  0  0  0  0  0  0  0
    6.7461   -3.2423    3.7286 H   0  0  0  0  0  0  0  0  0  0  0  0
    5.3386   -3.7177    5.2952 C   0  0  0  0  0  0  0  0  0  0  0  0
    5.2440   -3.6706    6.3757 H   0  0  0  0  0  0  0  0  0  0  0  0
    5.2561   -4.7566    4.9859 H   0  0  0  0  0  0  0  0  0  0  0  0
    4.5040   -3.1661    4.8740 H   0  0  0  0  0  0  0  0  0  0  0  0
   10.4757    1.7605    9.1486 C   0  0  0  0  0  0  0  0  0  0  0  0
   10.9248    2.9049    9.8063 C   0  0  0  0  0  0  0  0  0  0  0  0
   10.3046    3.7909    9.8045 H   0  0  0  0  0  0  0  0  0  0  0  0
   12.1576    2.8993   10.4298 C   0  0  0  0  0  0  0  0  0  0  0  0
   12.5059    3.7847   10.9401 H   0  0  0  0  0  0  0  0  0  0  0  0
   12.9501    1.7619   10.3921 C   0  0  0  0  0  0  0  0  0  0  0  0
   13.9138    1.7593   10.8794 H   0  0  0  0  0  0  0  0  0  0  0  0
   12.5141    0.6320    9.7197 C   0  0  0  0  0  0  0  0  0  0  0  0
   13.1381   -0.2489    9.6807 H   0  0  0  0  0  0  0  0  0  0  0  0
   11.2820    0.6286    9.0901 C   0  0  0  0  0  0  0  0  0  0  0  0
   10.9446   -0.2493    8.5561 H   0  0  0  0  0  0  0  0  0  0  0  0
    7.7038    2.4141    9.5366 C   0  0  0  0  0  0  0  0  0  0  0  0
    6.5445    3.0243    9.0673 C   0  0  0  0  0  0  0  0  0  0  0  0
    6.4318    3.1888    7.9985 H   0  0  0  0  0  0  0  0  0  0  0  0
    5.5734    3.4434    9.9562 C   0  0  0  0  0  0  0  0  0  0  0  0
    4.6787    3.9256    9.5923 H   0  0  0  0  0  0  0  0  0  0  0  0
    5.7573    3.2539   11.3169 C   0  0  0  0  0  0  0  0  0  0  0  0
    5.0030    3.5868   12.0144 H   0  0  0  0  0  0  0  0  0  0  0  0
    6.9122    2.6497   11.7869 C   0  0  0  0  0  0  0  0  0  0  0  0
    7.0562    2.5124   12.8486 H   0  0  0  0  0  0  0  0  0  0  0  0
    7.8879    2.2272   10.9016 C   0  0  0  0  0  0  0  0  0  0  0  0
    8.7968    1.7718   11.2702 H   0  0  0  0  0  0  0  0  0  0  0  0
    9.1070    4.8952    7.4473 Cl  0  0  0  0  0  0  0  0  0  0  0  0
    8.5382    4.1485    4.3761 Cl  0  0  0  0  0  0  0  0  0  0  0  0
    6.9500   -1.7761    5.1614 N   0  0  0  0  0  0  0  0  0  0  0  0
    8.8937    1.8722    8.2808 P   0  0  0  0  0  4  0  0  0  0  0  0
    8.7106    2.9701    6.3149 Pt  0  0  0  0  0  0  0  0  0  0  0  0
    8.4582    0.8276    5.3219 S   0  0  1  0  0  3  0  0  0  0  0  0
  1 52  1  0  0  0  0
  1  2  1  0  0  0  0
  2  3  1  0  0  0  0
  4  2  2  0  0  0  0
  4  5  1  0  0  0  0
  6  4  1  0  0  0  0
  7  6  1  0  0  0  0
  8  9  1  0  0  0  0
  8  6  2  0  0  0  0
  9  1  2  0  0  0  0
 11 12  1  0  0  0  0
 11 10  2  0  0  0  0
 13 11  1  0  0  0  0
 14 13  1  0  0  0  0
 15 13  2  0  0  0  0
 15 17  1  0  0  0  0
 16 15  1  0  0  0  0
 17 19  2  0  0  0  0
 18 17  1  0  0  0  0
 19 10  1  0  0  0  0
 19 51  1  0  0  0  0
 20 51  1  0  0  0  0
 20 21  1  0  0  0  0
 20 23  1  0  0  0  0
 22 20  1  0  0  0  0
 23 24  1  0  0  0  0
 25 23  1  0  0  0  0
 26 23  1  0  0  0  0
 27 28  1  0  0  0  0
 28 30  2  0  0  0  0
 29 28  1  0  0  0  0
 30 31  1  0  0  0  0
 32 30  1  0  0  0  0
 32 33  1  0  0  0  0
 34 32  2  0  0  0  0
 35 34  1  0  0  0  0
 36 27  2  0  0  0  0
 36 34  1  0  0  0  0
 37 36  1  0  0  0  0
 38 47  1  0  0  0  0
 39 38  2  0  0  0  0
 39 41  1  0  0  0  0
 40 39  1  0  0  0  0
 41 43  2  0  0  0  0
 42 41  1  0  0  0  0
 43 45  1  0  0  0  0
 43 44  1  0  0  0  0
 45 46  1  0  0  0  0
 47 48  1  0  0  0  0
 47 45  2  0  0  0  0
 50 53  1  0  0  0  0
 51  8  1  0  0  0  0
 52 27  1  0  0  0  0
 52 38  1  0  0  0  0
 53 49  1  0  0  0  0
 53 52  1  0  0  0  0
 54 10  1  6  0  0  0
 54 53  1  0  0  0  0
 54  9  1  0  0  0  0
M  END
$$$$
