CSD_code = FOSVAL | q = 0 | S = 0 | Stoichiometry = C12H18BrN2O4Re | MND = 6
 OpenBabel04212202043D

 38 38  0  0  1  0  0  0  0  0999 V2000
    8.2625    0.8786    5.0382 Re  0  0  0  0  0  0  0  0  0  0  0  0
    8.4742    3.4189    4.9575 Br  0  0  0  0  0  0  0  0  0  0  0  0
    6.4022    1.3213    7.4637 O   0  0  0  0  0  1  0  0  0  0  0  0
   10.6651    0.7384    6.9780 O   0  0  0  0  0  1  0  0  0  0  0  0
    7.9258   -2.1867    4.9397 O   0  0  0  0  0  1  0  0  0  0  0  0
    3.4460    2.4156    4.3416 O   0  0  0  0  0  0  0  0  0  0  0  0
    6.8055    1.1217    3.2517 N   0  0  0  0  0  0  0  0  0  0  0  0
    9.6113    0.9719    3.1785 N   0  0  0  0  0  4  0  0  0  0  0  0
   10.0235    1.9084    3.2672 H   0  0  0  0  0  0  0  0  0  0  0  0
   10.3895    0.3112    3.1427 H   0  0  0  0  0  0  0  0  0  0  0  0
    7.0771    1.0994    6.5596 C   0  0  0  0  0  2  0  0  0  0  0  0
    9.7601    0.7607    6.2771 C   0  0  0  0  0  2  0  0  0  0  0  0
    8.0620   -1.0437    4.9604 C   0  0  0  0  0  2  0  0  0  0  0  0
    3.3370    1.0678    6.3068 C   0  0  0  0  0  0  0  0  0  0  0  0
    2.4350    1.6219    6.5532 H   0  0  0  0  0  0  0  0  0  0  0  0
    4.1145    1.3466    7.0171 H   0  0  0  0  0  0  0  0  0  0  0  0
    3.1659   -0.0013    6.3984 H   0  0  0  0  0  0  0  0  0  0  0  0
    3.8016    1.4312    4.9283 C   0  0  0  0  0  0  0  0  0  0  0  0
    4.7708    0.4023    4.3255 C   0  0  0  0  0  0  0  0  0  0  0  0
    4.1498   -0.4270    3.9724 H   0  0  0  0  0  0  0  0  0  0  0  0
    5.4327    0.0243    5.1088 H   0  0  0  0  0  0  0  0  0  0  0  0
    5.5442    0.9539    3.1721 C   0  0  1  0  0  3  0  0  0  0  0  0
    4.7147    1.2959    1.9709 C   0  0  0  0  0  0  0  0  0  0  0  0
    4.8000    2.3593    1.7493 H   0  0  0  0  0  0  0  0  0  0  0  0
    3.6685    1.0765    2.1567 H   0  0  0  0  0  0  0  0  0  0  0  0
    5.0388    0.7307    1.0964 H   0  0  0  0  0  0  0  0  0  0  0  0
    7.5346    1.6696    2.1234 C   0  0  0  0  0  0  0  0  0  0  0  0
    7.7511    2.7220    2.3484 H   0  0  0  0  0  0  0  0  0  0  0  0
    6.9613    1.6325    1.1953 H   0  0  0  0  0  0  0  0  0  0  0  0
    8.8650    0.9207    1.9084 C   0  0  0  0  0  0  0  0  0  0  0  0
    8.5993   -0.5401    1.5413 C   0  0  0  0  0  0  0  0  0  0  0  0
    9.5367   -1.0691    1.3795 H   0  0  0  0  0  0  0  0  0  0  0  0
    8.0130   -0.6003    0.6277 H   0  0  0  0  0  0  0  0  0  0  0  0
    8.0538   -1.0434    2.3380 H   0  0  0  0  0  0  0  0  0  0  0  0
    9.6626    1.6095    0.7974 C   0  0  0  0  0  0  0  0  0  0  0  0
    9.8442    2.6546    1.0435 H   0  0  0  0  0  0  0  0  0  0  0  0
    9.1208    1.5720   -0.1442 H   0  0  0  0  0  0  0  0  0  0  0  0
   10.6217    1.1138    0.6565 H   0  0  0  0  0  0  0  0  0  0  0  0
  1 12  1  0  0  0  0
  1 11  1  0  0  0  0
  2  1  1  0  0  0  0
  5 13  1  0  0  0  0
  6 18  2  0  0  0  0
  7  1  1  0  0  0  0
  8  9  1  0  0  0  0
  8  1  1  0  0  0  0
 10  8  1  0  0  0  0
 11  3  1  0  0  0  0
 12  4  1  0  0  0  0
 13  1  1  0  0  0  0
 14 17  1  0  0  0  0
 14 15  1  0  0  0  0
 14 16  1  0  0  0  0
 18 14  1  0  0  0  0
 19 18  1  0  0  0  0
 19 21  1  0  0  0  0
 20 19  1  0  0  0  0
 22 23  1  1  0  0  0
 22  7  1  0  0  0  0
 22 19  1  0  0  0  0
 23 25  1  0  0  0  0
 24 23  1  0  0  0  0
 26 23  1  0  0  0  0
 27 28  1  0  0  0  0
 27  7  1  0  0  0  0
 29 27  1  0  0  0  0
 30 27  1  0  0  0  0
 30  8  1  0  0  0  0
 31 30  1  0  0  0  0
 31 34  1  0  0  0  0
 32 31  1  0  0  0  0
 33 31  1  0  0  0  0
 35 36  1  0  0  0  0
 35 30  1  0  0  0  0
 37 35  1  0  0  0  0
 38 35  1  0  0  0  0
M  END
$$$$
