CSD_code = FOTHAY | q = 0 | S = 0 | Stoichiometry = C9H26B2Br2N2O3P2W | MND = 7
 OpenBabel04212202043D

 47 46  0  0  0  0  0  0  0  0999 V2000
    1.4057    4.3455    2.6260 W   0  0  0  0  0  0  0  0  0  0  0  0
   -0.4338    3.2759    1.1972 Br  0  0  0  0  0  0  0  0  0  0  0  0
   -0.2192    6.3238    3.0257 Br  0  0  0  0  0 15  0  0  0  0  0  0
    2.1180    5.4539    0.5073 P   0  0  0  0  0  4  0  0  0  0  0  0
    1.7446    6.8023    0.4753 H   0  0  0  0  0  0  0  0  0  0  0  0
    1.3377    5.1157   -0.6047 H   0  0  0  0  0  0  0  0  0  0  0  0
    0.0165    3.5748    4.5522 P   0  0  0  0  0  4  0  0  0  0  0  0
   -0.0402    2.2058    4.8639 H   0  0  0  0  0  0  0  0  0  0  0  0
   -1.3347    3.6279    4.2044 H   0  0  0  0  0  0  0  0  0  0  0  0
    4.2000    5.9143   -1.5683 N   0  0  0  0  0  4  0  0  0  0  0  0
   -1.1276    4.8467    6.9844 N   0  0  0  0  0  4  0  0  0  0  0  0
    3.6793    3.5444    4.6766 O   0  0  0  0  0  0  0  0  0  0  0  0
    3.4789    2.0745    1.9754 O   0  0  0  0  0  1  0  0  0  0  0  0
    3.6090    6.3336    3.7250 O   0  0  0  0  0  0  0  0  0  0  0  0
    2.8723    3.9542    3.9096 C   0  0  0  0  0  0  0  0  0  0  0  0
    2.6656    2.8797    2.1639 C   0  0  0  0  0  2  0  0  0  0  0  0
    2.8289    5.5192    3.3761 C   0  0  0  0  0  0  0  0  0  0  0  0
    3.9661    5.4126   -0.0346 B   0  0  0  0  0  0  0  0  0  0  0  0
    4.5654    6.1462    0.6839 H   0  0  0  0  0  0  0  0  0  0  0  0
    4.3606    4.2925    0.0312 H   0  0  0  0  0  0  0  0  0  0  0  0
    0.2721    4.4691    6.2543 B   0  0  0  0  0  0  0  0  0  0  0  0
    0.8581    5.4884    6.0657 H   0  0  0  0  0  0  0  0  0  0  0  0
    0.8730    3.7304    6.9681 H   0  0  0  0  0  0  0  0  0  0  0  0
    3.5664    7.2129   -1.8070 C   0  0  0  0  0  0  0  0  0  0  0  0
    3.9008    7.9254   -1.0555 H   0  0  0  0  0  0  0  0  0  0  0  0
    2.4838    7.1168   -1.7381 H   0  0  0  0  0  0  0  0  0  0  0  0
    3.8234    7.5910   -2.7992 H   0  0  0  0  0  0  0  0  0  0  0  0
    3.6729    4.9366   -2.5242 C   0  0  0  0  0  0  0  0  0  0  0  0
    2.6049    4.7986   -2.3666 H   0  0  0  0  0  0  0  0  0  0  0  0
    4.1657    3.9785   -2.3764 H   0  0  0  0  0  0  0  0  0  0  0  0
    3.8402    5.2715   -3.5501 H   0  0  0  0  0  0  0  0  0  0  0  0
    5.6449    6.0456   -1.7818 C   0  0  0  0  0  0  0  0  0  0  0  0
    5.8580    6.3342   -2.8133 H   0  0  0  0  0  0  0  0  0  0  0  0
    6.1324    5.0982   -1.5649 H   0  0  0  0  0  0  0  0  0  0  0  0
    6.0486    6.7974   -1.1081 H   0  0  0  0  0  0  0  0  0  0  0  0
   -1.9314    3.6467    7.2243 C   0  0  0  0  0  0  0  0  0  0  0  0
   -2.8543    3.8989    7.7512 H   0  0  0  0  0  0  0  0  0  0  0  0
   -1.3613    2.9378    7.8217 H   0  0  0  0  0  0  0  0  0  0  0  0
   -2.1862    3.1743    6.2766 H   0  0  0  0  0  0  0  0  0  0  0  0
   -0.8076    5.4689    8.2728 C   0  0  0  0  0  0  0  0  0  0  0  0
   -1.7209    5.7429    8.8048 H   0  0  0  0  0  0  0  0  0  0  0  0
   -0.2092    6.3609    8.1053 H   0  0  0  0  0  0  0  0  0  0  0  0
   -0.2288    4.7786    8.8823 H   0  0  0  0  0  0  0  0  0  0  0  0
   -1.9051    5.8032    6.1895 C   0  0  0  0  0  0  0  0  0  0  0  0
   -2.1803    5.3725    5.2294 H   0  0  0  0  0  0  0  0  0  0  0  0
   -1.3087    6.6893    5.9859 H   0  0  0  0  0  0  0  0  0  0  0  0
   -2.8140    6.0921    6.7199 H   0  0  0  0  0  0  0  0  0  0  0  0
  1 17  1  0  0  0  0
  1 15  1  0  0  0  0
  1  7  1  0  0  0  0
  2  1  1  0  0  0  0
  4  1  1  0  0  0  0
  5  4  1  0  0  0  0
  6  4  1  0  0  0  0
  7  8  1  0  0  0  0
  7 21  1  0  0  0  0
  9  7  1  0  0  0  0
 10 18  1  0  0  0  0
 11 36  1  0  0  0  0
 11 40  1  0  0  0  0
 13 16  1  0  0  0  0
 15 12  2  0  0  0  0
 16  1  1  0  0  0  0
 17 14  2  0  0  0  0
 17 15  1  0  0  0  0
 18 20  1  0  0  0  0
 18  4  1  0  0  0  0
 18 19  1  0  0  0  0
 21 23  1  0  0  0  0
 21 11  1  0  0  0  0
 22 21  1  0  0  0  0
 24 26  1  0  0  0  0
 24 10  1  0  0  0  0
 24 25  1  0  0  0  0
 27 24  1  0  0  0  0
 28 30  1  0  0  0  0
 28 29  1  0  0  0  0
 28 10  1  0  0  0  0
 31 28  1  0  0  0  0
 32 10  1  0  0  0  0
 32 34  1  0  0  0  0
 32 35  1  0  0  0  0
 33 32  1  0  0  0  0
 36 37  1  0  0  0  0
 36 38  1  0  0  0  0
 39 36  1  0  0  0  0
 40 41  1  0  0  0  0
 40 43  1  0  0  0  0
 42 40  1  0  0  0  0
 44 47  1  0  0  0  0
 44 11  1  0  0  0  0
 45 44  1  0  0  0  0
 46 44  1  0  0  0  0
M  END
$$$$
