CSD_code = FOTMOS | q = 0 | S = 0 | Stoichiometry = C24H18Br2HgN4 | MND = 5
 OpenBabel04212202043D

 49 51  0  0  1  0  0  0  0  0999 V2000
    8.1958    3.5667    4.3104 Br  0  0  0  0  0  0  0  0  0  0  0  0
   11.7245    6.2545    3.0521 Br  0  0  0  0  0  0  0  0  0  0  0  0
    9.0514    8.7379    2.8889 C   0  0  0  0  0  0  0  0  0  0  0  0
    9.2402    8.6643    3.9525 H   0  0  0  0  0  0  0  0  0  0  0  0
    9.2483    9.9341    2.2183 C   0  0  0  0  0  0  0  0  0  0  0  0
    9.5873   10.8071    2.7516 H   0  0  0  0  0  0  0  0  0  0  0  0
    9.0278    9.9622    0.8497 C   0  0  0  0  0  0  0  0  0  0  0  0
    9.2012   10.8641    0.2817 H   0  0  0  0  0  0  0  0  0  0  0  0
    8.5871    8.8143    0.2192 C   0  0  0  0  0  0  0  0  0  0  0  0
    8.4183    8.7974   -0.8457 H   0  0  0  0  0  0  0  0  0  0  0  0
    8.3804    7.6583    0.9762 C   0  0  0  0  0  0  0  0  0  0  0  0
    7.8954    6.4220    0.3757 C   0  0  2  0  0  3  0  0  0  0  0  0
    7.4941    6.3440   -1.0437 C   0  0  0  0  0  0  0  0  0  0  0  0
    6.5211    7.1948   -1.5618 C   0  0  0  0  0  0  0  0  0  0  0  0
    6.0728    7.9441   -0.9254 H   0  0  0  0  0  0  0  0  0  0  0  0
    6.1107    7.0613   -2.8756 C   0  0  0  0  0  0  0  0  0  0  0  0
    5.3531    7.7225   -3.2692 H   0  0  0  0  0  0  0  0  0  0  0  0
    6.6634    6.0807   -3.6830 C   0  0  0  0  0  0  0  0  0  0  0  0
    6.3413    5.9798   -4.7085 H   0  0  0  0  0  0  0  0  0  0  0  0
    7.6267    5.2272   -3.1715 C   0  0  0  0  0  0  0  0  0  0  0  0
    8.0594    4.4605   -3.7967 H   0  0  0  0  0  0  0  0  0  0  0  0
    8.0375    5.3534   -1.8574 C   0  0  0  0  0  0  0  0  0  0  0  0
    8.7985    4.6962   -1.4596 H   0  0  0  0  0  0  0  0  0  0  0  0
   11.2089    3.3092    0.8784 C   0  0  0  0  0  0  0  0  0  0  0  0
   11.9203    4.0716    1.1662 H   0  0  0  0  0  0  0  0  0  0  0  0
   11.6388    2.1146    0.3242 C   0  0  0  0  0  0  0  0  0  0  0  0
   12.6921    1.9322    0.1855 H   0  0  0  0  0  0  0  0  0  0  0  0
   10.6869    1.1770   -0.0456 C   0  0  0  0  0  0  0  0  0  0  0  0
   10.9802    0.2343   -0.4835 H   0  0  0  0  0  0  0  0  0  0  0  0
    9.3506    1.4733    0.1467 C   0  0  0  0  0  0  0  0  0  0  0  0
    8.5769    0.7807   -0.1445 H   0  0  0  0  0  0  0  0  0  0  0  0
    9.0047    2.6992    0.7183 C   0  0  0  0  0  0  0  0  0  0  0  0
    7.5910    3.0750    0.8880 C   0  0  2  0  0  3  0  0  0  0  0  0
    6.5484    2.0437    0.9522 C   0  0  0  0  0  0  0  0  0  0  0  0
    6.7319    0.8935    1.7162 C   0  0  0  0  0  0  0  0  0  0  0  0
    7.6435    0.7642    2.2796 H   0  0  0  0  0  0  0  0  0  0  0  0
    5.7275   -0.0534    1.7915 C   0  0  0  0  0  0  0  0  0  0  0  0
    5.8713   -0.9375    2.3940 H   0  0  0  0  0  0  0  0  0  0  0  0
    4.5386    0.1335    1.1056 C   0  0  0  0  0  0  0  0  0  0  0  0
    3.7585   -0.6108    1.1633 H   0  0  0  0  0  0  0  0  0  0  0  0
    4.3469    1.2819    0.3545 C   0  0  0  0  0  0  0  0  0  0  0  0
    3.4171    1.4341   -0.1735 H   0  0  0  0  0  0  0  0  0  0  0  0
    5.3430    2.2369    0.2817 C   0  0  0  0  0  0  0  0  0  0  0  0
    5.2037    3.1360   -0.3006 H   0  0  0  0  0  0  0  0  0  0  0  0
    9.4569    5.3099    3.1415 Hg  0  0  0  0  0  0  0  0  0  0  0  0
    8.6398    7.6303    2.2930 N   0  0  0  0  0  0  0  0  0  0  0  0
    7.8276    5.3824    1.1376 N   0  0  0  0  0  2  0  0  0  0  0  0
    7.2073    4.2911    0.9450 N   0  0  0  0  0  2  0  0  0  0  0  0
    9.9295    3.6001    1.0740 N   0  0  0  0  0  0  0  0  0  0  0  0
  2 45  1  0  0  0  0
  3  4  1  0  0  0  0
  5  6  1  0  0  0  0
  5  3  2  0  0  0  0
  7  5  1  0  0  0  0
  8  7  1  0  0  0  0
  9  7  2  0  0  0  0
  9 11  1  0  0  0  0
 10  9  1  0  0  0  0
 11 46  2  0  0  0  0
 12 11  1  0  0  0  0
 12 47  1  1  0  0  0
 13 12  1  0  0  0  0
 14 13  1  0  0  0  0
 14 15  1  0  0  0  0
 16 14  2  0  0  0  0
 17 16  1  0  0  0  0
 18 20  2  0  0  0  0
 18 16  1  0  0  0  0
 19 18  1  0  0  0  0
 20 22  1  0  0  0  0
 21 20  1  0  0  0  0
 22 23  1  0  0  0  0
 22 13  2  0  0  0  0
 24 49  1  0  0  0  0
 24 25  1  0  0  0  0
 26 24  2  0  0  0  0
 27 26  1  0  0  0  0
 28 30  2  0  0  0  0
 28 26  1  0  0  0  0
 29 28  1  0  0  0  0
 30 32  1  0  0  0  0
 31 30  1  0  0  0  0
 32 33  1  0  0  0  0
 32 49  2  0  0  0  0
 33 48  1  6  0  0  0
 33 34  1  0  0  0  0
 34 35  1  0  0  0  0
 35 37  2  0  0  0  0
 35 36  1  0  0  0  0
 37 38  1  0  0  0  0
 39 40  1  0  0  0  0
 39 37  1  0  0  0  0
 41 39  2  0  0  0  0
 42 41  1  0  0  0  0
 43 41  1  0  0  0  0
 43 34  2  0  0  0  0
 44 43  1  0  0  0  0
 45  1  1  0  0  0  0
 46  3  1  0  0  0  0
 48 47  1  0  0  0  0
M  END
$$$$
