CSD_code = FOTTOZ | q = 0 | S = 0 | Stoichiometry = C28H31ClNOPPd | MND = 4
 OpenBabel04212202043D

 64 69  0  0  1  0  0  0  0  0999 V2000
    6.0319    2.0901    7.2820 Pd  0  0  1  0  0  0  0  0  0  0  0  0
    8.2113    2.0239    6.3809 Cl  0  0  0  0  0  0  0  0  0  0  0  0
    4.2806    2.3992    8.3356 C   0  0  0  0  0  0  0  0  0  0  0  0
    3.3536    1.9027    8.0262 H   0  0  0  0  0  0  0  0  0  0  0  0
    4.5085    2.0672    9.3624 H   0  0  0  0  0  0  0  0  0  0  0  0
    4.1187    3.9109    8.3305 C   0  0  1  0  0  0  0  0  0  0  0  0
    5.4539    4.5993    8.3491 C   0  0  1  0  0  3  0  0  0  0  0  0
    6.4529    3.9445    7.9270 N   0  0  0  0  0  0  0  0  0  0  0  0
    7.7076    4.5066    7.8719 O   0  0  0  0  0  0  0  0  0  0  0  0
    8.2371    3.8160    7.3734 H   0  0  0  0  0  0  0  0  0  0  0  0
    5.2773    6.0207    8.8131 C   0  0  0  0  0  0  0  0  0  0  0  0
    3.7301    6.0478    8.9397 C   0  0  1  0  0  0  0  0  0  0  0  0
    3.3682    6.8875    9.5323 H   0  0  0  0  0  0  0  0  0  0  0  0
    3.0816    5.9554    7.5495 C   0  0  0  0  0  0  0  0  0  0  0  0
    3.4484    6.7104    6.8587 H   0  0  0  0  0  0  0  0  0  0  0  0
    2.0038    6.0945    7.6450 H   0  0  0  0  0  0  0  0  0  0  0  0
    3.4065    4.5168    7.0990 C   0  0  0  0  0  0  0  0  0  0  0  0
    4.0591    4.4841    6.2204 H   0  0  0  0  0  0  0  0  0  0  0  0
    2.5008    3.9514    6.8762 H   0  0  0  0  0  0  0  0  0  0  0  0
    3.4067    4.6495    9.4787 C   0  0  0  0  0  0  0  0  0  0  0  0
    2.3378    4.4465    9.5100 H   0  0  0  0  0  0  0  0  0  0  0  0
    3.8399    4.4297   10.4518 H   0  0  0  0  0  0  0  0  0  0  0  0
    5.8606    7.0180    7.8078 C   0  0  0  0  0  0  0  0  0  0  0  0
    6.9454    7.0104    7.8777 H   0  0  0  0  0  0  0  0  0  0  0  0
    5.5017    8.0214    8.0269 H   0  0  0  0  0  0  0  0  0  0  0  0
    5.5956    6.7619    6.7857 H   0  0  0  0  0  0  0  0  0  0  0  0
    5.9585    6.2554   10.1670 C   0  0  0  0  0  0  0  0  0  0  0  0
    7.0262    6.0695   10.0764 H   0  0  0  0  0  0  0  0  0  0  0  0
    5.5621    5.6006   10.9380 H   0  0  0  0  0  0  0  0  0  0  0  0
    5.8097    7.2871   10.4785 H   0  0  0  0  0  0  0  0  0  0  0  0
    5.4936    0.0555    6.6062 P   0  0  0  0  0  4  0  0  0  0  0  0
    6.7459   -0.9680    5.7717 C   0  0  0  0  0  0  0  0  0  0  0  0
    7.3187   -2.1013    6.3338 C   0  0  0  0  0  0  0  0  0  0  0  0
    7.0030   -2.4416    7.3104 H   0  0  0  0  0  0  0  0  0  0  0  0
    8.3008   -2.7885    5.6405 C   0  0  0  0  0  0  0  0  0  0  0  0
    8.7480   -3.6690    6.0788 H   0  0  0  0  0  0  0  0  0  0  0  0
    8.7168   -2.3465    4.3965 C   0  0  0  0  0  0  0  0  0  0  0  0
    9.4901   -2.8814    3.8651 H   0  0  0  0  0  0  0  0  0  0  0  0
    8.1505   -1.2116    3.8362 C   0  0  0  0  0  0  0  0  0  0  0  0
    8.4838   -0.8597    2.8712 H   0  0  0  0  0  0  0  0  0  0  0  0
    7.1691   -0.5236    4.5210 C   0  0  0  0  0  0  0  0  0  0  0  0
    6.7312    0.3769    4.1063 H   0  0  0  0  0  0  0  0  0  0  0  0
    4.1232   -0.0539    5.4204 C   0  0  0  0  0  0  0  0  0  0  0  0
    3.7053   -1.2511    4.8485 C   0  0  0  0  0  0  0  0  0  0  0  0
    4.1989   -2.1762    5.1138 H   0  0  0  0  0  0  0  0  0  0  0  0
    2.6747   -1.2459    3.9259 C   0  0  0  0  0  0  0  0  0  0  0  0
    2.3434   -2.1743    3.4841 H   0  0  0  0  0  0  0  0  0  0  0  0
    2.0734   -0.0519    3.5583 C   0  0  0  0  0  0  0  0  0  0  0  0
    1.2707   -0.0551    2.8357 H   0  0  0  0  0  0  0  0  0  0  0  0
    2.5109    1.1458    4.1009 C   0  0  0  0  0  0  0  0  0  0  0  0
    2.0554    2.0764    3.7952 H   0  0  0  0  0  0  0  0  0  0  0  0
    3.5367    1.1449    5.0286 C   0  0  0  0  0  0  0  0  0  0  0  0
    3.9163    2.0717    5.4602 H   0  0  0  0  0  0  0  0  0  0  0  0
    5.0757   -0.9147    8.0844 C   0  0  0  0  0  0  0  0  0  0  0  0
    4.0527   -1.8438    8.2038 C   0  0  0  0  0  0  0  0  0  0  0  0
    3.4031   -2.0475    7.3652 H   0  0  0  0  0  0  0  0  0  0  0  0
    3.8578   -2.4958    9.4107 C   0  0  0  0  0  0  0  0  0  0  0  0
    3.0594   -3.2171    9.5068 H   0  0  0  0  0  0  0  0  0  0  0  0
    4.6796   -2.2268   10.4921 C   0  0  0  0  0  0  0  0  0  0  0  0
    4.5232   -2.7420   11.4283 H   0  0  0  0  0  0  0  0  0  0  0  0
    5.6964   -1.2894   10.3800 C   0  0  0  0  0  0  0  0  0  0  0  0
    6.3290   -1.0738   11.2284 H   0  0  0  0  0  0  0  0  0  0  0  0
    5.8883   -0.6284    9.1826 C   0  0  0  0  0  0  0  0  0  0  0  0
    6.6728    0.1281    9.0740 H   0  0  0  0  0  0  0  0  0  0  0  0
  1  2  1  1  0  0  0
  1  8  1  0  0  0  0
  1  3  1  0  0  0  0
  3  5  1  0  0  0  0
  4  3  1  0  0  0  0
  6 17  1  6  0  0  0
  6  3  1  0  0  0  0
  6  7  1  0  0  0  0
  6 20  1  0  0  0  0
  7  8  1  6  0  0  0
  7 11  1  0  0  0  0
  9  8  1  0  0  0  0
 10  9  1  0  0  0  0
 11 12  1  0  0  0  0
 11 27  1  0  0  0  0
 12 20  1  0  0  0  0
 12 13  1  1  0  0  0
 14 16  1  0  0  0  0
 14 12  1  0  0  0  0
 15 14  1  0  0  0  0
 17 14  1  0  0  0  0
 18 17  1  0  0  0  0
 19 17  1  0  0  0  0
 20 21  1  0  0  0  0
 20 22  1  0  0  0  0
 23 24  1  0  0  0  0
 23 25  1  0  0  0  0
 23 11  1  0  0  0  0
 26 23  1  0  0  0  0
 27 30  1  0  0  0  0
 27 29  1  0  0  0  0
 28 27  1  0  0  0  0
 31  1  1  0  0  0  0
 31 54  1  0  0  0  0
 32 33  1  0  0  0  0
 32 31  1  0  0  0  0
 33 34  1  0  0  0  0
 35 36  1  0  0  0  0
 35 33  2  0  0  0  0
 37 35  1  0  0  0  0
 38 37  1  0  0  0  0
 39 37  2  0  0  0  0
 39 41  1  0  0  0  0
 40 39  1  0  0  0  0
 41 32  2  0  0  0  0
 42 41  1  0  0  0  0
 43 31  1  0  0  0  0
 44 45  1  0  0  0  0
 44 43  2  0  0  0  0
 46 44  1  0  0  0  0
 47 46  1  0  0  0  0
 48 46  2  0  0  0  0
 48 50  1  0  0  0  0
 49 48  1  0  0  0  0
 50 52  2  0  0  0  0
 51 50  1  0  0  0  0
 52 43  1  0  0  0  0
 52 53  1  0  0  0  0
 54 55  2  0  0  0  0
 54 63  1  0  0  0  0
 55 57  1  0  0  0  0
 56 55  1  0  0  0  0
 57 58  1  0  0  0  0
 57 59  2  0  0  0  0
 59 60  1  0  0  0  0
 61 59  1  0  0  0  0
 61 62  1  0  0  0  0
 63 61  2  0  0  0  0
 64 63  1  0  0  0  0
M  END
$$$$
