CSD_code = FOTXOD | q = 0 | S = 0 | Stoichiometry = C14H19BrCuIN4 | MND = 3
 OpenBabel04212202043D

 40 41  0  0  1  0  0  0  0  0999 V2000
   -0.2469    0.2924    0.1313 I   0  0  0  0  0  0  0  0  0  0  0  0
   -1.3683   -0.5536   -3.8296 Br  0  0  0  0  0  0  0  0  0  0  0  0
   -2.0456   -0.2362   -1.5703 Cu  0  0  0  0  0  0  0  0  0  0  0  0
   -5.0296    0.0039   -2.1465 N   0  0  0  0  0  0  0  0  0  0  0  0
   -3.9850    1.8525   -1.8334 N   0  0  0  0  0  0  0  0  0  0  0  0
    1.4628    2.5469   -1.9694 N   0  0  0  0  0  0  0  0  0  0  0  0
   -0.6056    3.0542   -2.3921 N   0  0  0  0  0  0  0  0  0  0  0  0
   -3.8599    0.5043   -1.7024 C   0  0  2  0  0  3  0  0  0  0  0  0
   -5.2163    2.1745   -2.3502 C   0  0  0  0  0  0  0  0  0  0  0  0
   -5.5161    3.1860   -2.5316 H   0  0  0  0  0  0  0  0  0  0  0  0
   -5.8753    1.0095   -2.5383 C   0  0  0  0  0  0  0  0  0  0  0  0
   -6.8585    0.8121   -2.9123 H   0  0  0  0  0  0  0  0  0  0  0  0
   -5.3552   -1.3994   -2.2042 C   0  0  0  0  0  0  0  0  0  0  0  0
   -4.4524   -1.9516   -1.9187 H   0  0  0  0  0  0  0  0  0  0  0  0
   -5.6196   -1.6715   -3.2315 H   0  0  0  0  0  0  0  0  0  0  0  0
   -6.4764   -1.7340   -1.2658 C   0  0  0  0  0  0  0  0  0  0  0  0
   -6.3231   -1.4193   -0.2418 H   0  0  0  0  0  0  0  0  0  0  0  0
   -7.5813   -2.3559   -1.6286 C   0  0  0  0  0  0  0  0  0  0  0  0
   -7.7449   -2.6749   -2.6454 H   0  0  0  0  0  0  0  0  0  0  0  0
   -8.3618   -2.5871   -0.9247 H   0  0  0  0  0  0  0  0  0  0  0  0
   -2.9213    2.7767   -1.5669 C   0  0  0  0  0  0  0  0  0  0  0  0
   -2.3388    2.3871   -0.7261 H   0  0  0  0  0  0  0  0  0  0  0  0
   -3.3452    3.7429   -1.2833 H   0  0  0  0  0  0  0  0  0  0  0  0
   -1.9818    2.9236   -2.7914 C   0  0  0  0  0  0  0  0  0  0  0  0
   -2.0570    2.0221   -3.4097 H   0  0  0  0  0  0  0  0  0  0  0  0
   -2.2644    3.7887   -3.3957 H   0  0  0  0  0  0  0  0  0  0  0  0
    0.3139    2.0872   -2.4568 C   0  0  0  0  0  3  0  0  0  0  0  0
    0.1601    1.1370   -2.9488 H   0  0  0  0  0  0  0  0  0  0  0  0
   -0.0336    4.1395   -1.7880 C   0  0  0  0  0  0  0  0  0  0  0  0
   -0.5765    5.0418   -1.5990 H   0  0  0  0  0  0  0  0  0  0  0  0
    1.2585    3.8183   -1.5214 C   0  0  0  0  0  0  0  0  0  0  0  0
    2.0341    4.3860   -1.0514 H   0  0  0  0  0  0  0  0  0  0  0  0
    2.6556    1.7580   -1.7737 C   0  0  0  0  0  0  0  0  0  0  0  0
    2.6331    0.9388   -2.4985 H   0  0  0  0  0  0  0  0  0  0  0  0
    2.6181    1.3212   -0.7685 H   0  0  0  0  0  0  0  0  0  0  0  0
    3.8933    2.5817   -1.9556 C   0  0  0  0  0  0  0  0  0  0  0  0
    3.9591    3.1149   -2.8952 H   0  0  0  0  0  0  0  0  0  0  0  0
    4.8591    2.6573   -1.0604 C   0  0  0  0  0  0  0  0  0  0  0  0
    4.8033    2.1264   -0.1247 H   0  0  0  0  0  0  0  0  0  0  0  0
    5.7482    3.2389   -1.2312 H   0  0  0  0  0  0  0  0  0  0  0  0
  2  3  1  0  0  0  0
  3  1  1  0  0  0  0
  4  8  1  0  0  0  0
  5  8  1  0  0  0  0
  5 21  1  0  0  0  0
  6 33  1  0  0  0  0
  6 31  1  0  0  0  0
  7 29  1  0  0  0  0
  8  3  1  6  0  0  0
  9  5  1  0  0  0  0
 10  9  1  0  0  0  0
 11  9  2  0  0  0  0
 11  4  1  0  0  0  0
 12 11  1  0  0  0  0
 13  4  1  0  0  0  0
 13 14  1  0  0  0  0
 13 16  1  0  0  0  0
 15 13  1  0  0  0  0
 16 17  1  0  0  0  0
 18 16  2  0  0  0  0
 18 20  1  0  0  0  0
 19 18  1  0  0  0  0
 21 23  1  0  0  0  0
 21 22  1  0  0  0  0
 24  7  1  0  0  0  0
 24 21  1  0  0  0  0
 25 24  1  0  0  0  0
 26 24  1  0  0  0  0
 27  7  1  0  0  0  0
 27  6  1  0  0  0  0
 28 27  1  0  0  0  0
 29 30  1  0  0  0  0
 29 31  2  0  0  0  0
 31 32  1  0  0  0  0
 33 35  1  0  0  0  0
 34 33  1  0  0  0  0
 36 33  1  0  0  0  0
 36 38  2  0  0  0  0
 37 36  1  0  0  0  0
 38 39  1  0  0  0  0
 40 38  1  0  0  0  0
M  END
$$$$
