CSD_code = FOVFAZ | q = 0 | S = 0 | Stoichiometry = C20H20Cl3HfN2P | MND = 6
 OpenBabel04212202043D

 47 51  0  0  0  0  0  0  0  0999 V2000
    4.9101    3.9929    9.4646 Hf  0  0  0  0  0  0  0  0  0  0  0  0
    5.3154    5.7280    7.9945 N   0  0  0  0  0  4  0  0  0  0  0  0
    3.1472    4.8080   10.0143 N   0  0  0  0  0  0  0  0  0  0  0  0
    5.6684    6.0510   10.9331 P   0  0  2  0  0  4  0  0  0  0  0  0
    7.1942    3.6687    9.0655 Cl  0  0  0  0  0  0  0  0  0  0  0  0
    4.7892    2.2437   10.9619 Cl  0  0  0  0  0  0  0  0  0  0  0  0
    4.2311    2.9138    7.5144 Cl  0  0  0  0  0  0  0  0  0  0  0  0
    5.7142    5.1016    7.2831 H   0  0  0  0  0  0  0  0  0  0  0  0
    6.4431    6.5342   12.5016 C   0  0  0  0  0  0  0  0  0  0  0  0
    7.8103    6.2858   12.6339 C   0  0  0  0  0  0  0  0  0  0  0  0
    8.3601    5.8884   11.7904 H   0  0  0  0  0  0  0  0  0  0  0  0
    8.4467    6.5430   13.8325 C   0  0  0  0  0  0  0  0  0  0  0  0
    9.5063    6.3595   13.9299 H   0  0  0  0  0  0  0  0  0  0  0  0
    7.7217    7.0227   14.9132 C   0  0  0  0  0  0  0  0  0  0  0  0
    8.2191    7.2198   15.8511 H   0  0  0  0  0  0  0  0  0  0  0  0
    6.3575    7.2308   14.7963 C   0  0  0  0  0  0  0  0  0  0  0  0
    5.7903    7.5848   15.6444 H   0  0  0  0  0  0  0  0  0  0  0  0
    5.7124    6.9792   13.5978 C   0  0  0  0  0  0  0  0  0  0  0  0
    4.6458    7.1284   13.5107 H   0  0  0  0  0  0  0  0  0  0  0  0
    4.0442    6.8574   10.8740 C   0  0  0  0  0  0  0  0  0  0  0  0
    3.8906    8.1941   11.2261 C   0  0  0  0  0  0  0  0  0  0  0  0
    4.7659    8.7640   11.5085 H   0  0  0  0  0  0  0  0  0  0  0  0
    2.6425    8.7835   11.2268 C   0  0  0  0  0  0  0  0  0  0  0  0
    2.5254    9.8193   11.5035 H   0  0  0  0  0  0  0  0  0  0  0  0
    1.5373    8.0159   10.8764 C   0  0  0  0  0  0  0  0  0  0  0  0
    0.5533    8.4619   10.8901 H   0  0  0  0  0  0  0  0  0  0  0  0
    1.6704    6.6996   10.4976 C   0  0  0  0  0  0  0  0  0  0  0  0
    0.7921    6.1436   10.2117 H   0  0  0  0  0  0  0  0  0  0  0  0
    2.9354    6.0726   10.4511 C   0  0  0  0  0  0  0  0  0  0  0  0
    2.0001    3.9420    9.7933 C   0  0  0  0  0  0  0  0  0  0  0  0
    1.3203    3.9620   10.6524 H   0  0  0  0  0  0  0  0  0  0  0  0
    2.3588    2.9157    9.6670 H   0  0  0  0  0  0  0  0  0  0  0  0
    1.4401    4.2294    8.8933 H   0  0  0  0  0  0  0  0  0  0  0  0
    6.5532    7.0360    9.6687 C   0  0  0  0  0  0  0  0  0  0  0  0
    6.3121    6.7179    8.3277 C   0  0  0  0  0  0  0  0  0  0  0  0
    7.0242    7.3606    7.3255 C   0  0  0  0  0  0  0  0  0  0  0  0
    6.8614    7.0836    6.2936 H   0  0  0  0  0  0  0  0  0  0  0  0
    7.9469    8.3432    7.6408 C   0  0  0  0  0  0  0  0  0  0  0  0
    8.4996    8.8339    6.8547 H   0  0  0  0  0  0  0  0  0  0  0  0
    8.1558    8.6923    8.9640 C   0  0  0  0  0  0  0  0  0  0  0  0
    8.8654    9.4660    9.2142 H   0  0  0  0  0  0  0  0  0  0  0  0
    7.4705    8.0377    9.9715 C   0  0  0  0  0  0  0  0  0  0  0  0
    7.6564    8.2958   11.0035 H   0  0  0  0  0  0  0  0  0  0  0  0
    4.1030    6.3284    7.4142 C   0  0  0  0  0  0  0  0  0  0  0  0
    3.6443    7.0017    8.1400 H   0  0  0  0  0  0  0  0  0  0  0  0
    3.4040    5.5271    7.1645 H   0  0  0  0  0  0  0  0  0  0  0  0
    4.3269    6.9005    6.5080 H   0  0  0  0  0  0  0  0  0  0  0  0
  1  3  1  0  0  0  0
  1  4  1  0  0  0  0
  1  6  1  0  0  0  0
  2 35  1  0  0  0  0
  2  1  1  0  0  0  0
  3 29  1  0  0  0  0
  4  9  1  1  0  0  0
  5  1  1  0  0  0  0
  7  1  1  0  0  0  0
  8  2  1  0  0  0  0
  9 10  2  0  0  0  0
  9 18  1  0  0  0  0
 10 12  1  0  0  0  0
 11 10  1  0  0  0  0
 12 13  1  0  0  0  0
 12 14  2  0  0  0  0
 14 15  1  0  0  0  0
 16 14  1  0  0  0  0
 16 17  1  0  0  0  0
 18 16  2  0  0  0  0
 19 18  1  0  0  0  0
 20  4  1  0  0  0  0
 20 21  1  0  0  0  0
 21 23  2  0  0  0  0
 21 22  1  0  0  0  0
 23 24  1  0  0  0  0
 25 26  1  0  0  0  0
 25 23  1  0  0  0  0
 27 25  2  0  0  0  0
 28 27  1  0  0  0  0
 29 27  1  0  0  0  0
 29 20  2  0  0  0  0
 30  3  1  0  0  0  0
 30 31  1  0  0  0  0
 32 30  1  0  0  0  0
 33 30  1  0  0  0  0
 34 42  1  0  0  0  0
 34  4  1  0  0  0  0
 35 34  2  0  0  0  0
 36 38  2  0  0  0  0
 36 35  1  0  0  0  0
 37 36  1  0  0  0  0
 38 40  1  0  0  0  0
 39 38  1  0  0  0  0
 40 41  1  0  0  0  0
 40 42  2  0  0  0  0
 42 43  1  0  0  0  0
 44  2  1  0  0  0  0
 44 45  1  0  0  0  0
 46 44  1  0  0  0  0
 47 44  1  0  0  0  0
M  END
$$$$
