CSD_code = FOWCAW | q = 0 | S = 0 | Stoichiometry = C26H24BrCuN4S2 | MND = 3
 OpenBabel04212202043D

 58 61  0  0  0  0  0  0  0  0999 V2000
    5.8670    2.8105    3.5844 Br  0  0  0  0  0  0  0  0  0  0  0  0
    5.8566    0.5224    3.2096 Cu  0  0  0  0  0  0  0  0  0  0  0  0
    4.9436   -1.0174    4.6872 S   0  0  0  0  0  0  0  0  0  0  0  0
    6.6996   -0.4594    1.2798 S   0  0  0  0  0  0  0  0  0  0  0  0
    3.8458   -0.7963    7.1008 N   0  0  0  0  0  0  0  0  0  0  0  0
    5.0016    1.0375    6.3274 N   0  0  0  0  0  0  0  0  0  0  0  0
    7.4351    0.5152   -1.0860 N   0  0  0  0  0  0  0  0  0  0  0  0
    6.3783    1.9757    0.3444 N   0  0  0  0  0  0  0  0  0  0  0  0
    4.5926   -0.2285    6.1285 C   0  0  0  0  0  3  0  0  0  0  0  0
    3.3690   -2.1045    7.2344 C   0  0  0  0  0  0  0  0  0  0  0  0
    2.2039   -2.2850    7.9779 C   0  0  0  0  0  0  0  0  0  0  0  0
    1.6947   -3.5527    8.1792 C   0  0  0  0  0  0  0  0  0  0  0  0
    2.3445   -4.6555    7.6495 C   0  0  0  0  0  0  0  0  0  0  0  0
    3.5132   -4.4790    6.9295 C   0  0  0  0  0  0  0  0  0  0  0  0
    4.0328   -3.2140    6.7234 C   0  0  0  0  0  0  0  0  0  0  0  0
    4.8997    1.8371    7.4738 C   0  0  0  0  0  0  0  0  0  0  0  0
    4.7151    3.2074    7.2937 C   0  0  0  0  0  0  0  0  0  0  0  0
    4.6273    4.0420    8.3903 C   0  0  0  0  0  0  0  0  0  0  0  0
    4.7270    3.5272    9.6733 C   0  0  0  0  0  0  0  0  0  0  0  0
    4.9448    2.1722    9.8526 C   0  0  0  0  0  0  0  0  0  0  0  0
    5.0382    1.3247    8.7627 C   0  0  0  0  0  0  0  0  0  0  0  0
    6.8283    0.7311    0.1016 C   0  0  0  0  0  3  0  0  0  0  0  0
    7.9035   -0.6655   -1.6712 C   0  0  0  0  0  0  0  0  0  0  0  0
    7.3532   -1.9164   -1.4160 C   0  0  0  0  0  0  0  0  0  0  0  0
    7.8537   -3.0310   -2.0640 C   0  0  0  0  0  0  0  0  0  0  0  0
    8.8900   -2.9153   -2.9740 C   0  0  0  0  0  0  0  0  0  0  0  0
    9.4232   -1.6663   -3.2472 C   0  0  0  0  0  0  0  0  0  0  0  0
    8.9323   -0.5471   -2.6045 C   0  0  0  0  0  0  0  0  0  0  0  0
    6.2975    3.0795   -0.5150 C   0  0  0  0  0  0  0  0  0  0  0  0
    5.9795    2.9588   -1.8668 C   0  0  0  0  0  0  0  0  0  0  0  0
    5.8971    4.0920   -2.6568 C   0  0  0  0  0  0  0  0  0  0  0  0
    6.1165    5.3458   -2.1132 C   0  0  0  0  0  0  0  0  0  0  0  0
    6.3950    5.4682   -0.7610 C   0  0  0  0  0  0  0  0  0  0  0  0
    6.4832    4.3457    0.0385 C   0  0  0  0  0  0  0  0  0  0  0  0
    3.4548   -0.1417    7.7706 H   0  0  0  0  0  0  0  0  0  0  0  0
    5.3448    1.5295    5.4991 H   0  0  0  0  0  0  0  0  0  0  0  0
    1.6976   -1.4242    8.3933 H   0  0  0  0  0  0  0  0  0  0  0  0
    7.7130    1.3586   -1.5775 H   0  0  0  0  0  0  0  0  0  0  0  0
    0.7878   -3.6789    8.7516 H   0  0  0  0  0  0  0  0  0  0  0  0
    6.1543    2.1841    1.3202 H   0  0  0  0  0  0  0  0  0  0  0  0
    1.9448   -5.6461    7.8038 H   0  0  0  0  0  0  0  0  0  0  0  0
    4.0337   -5.3341    6.5257 H   0  0  0  0  0  0  0  0  0  0  0  0
    4.9492   -3.0922    6.1722 H   0  0  0  0  0  0  0  0  0  0  0  0
    4.6533    3.6087    6.2938 H   0  0  0  0  0  0  0  0  0  0  0  0
    4.4819    5.1007    8.2408 H   0  0  0  0  0  0  0  0  0  0  0  0
    4.6529    4.1809   10.5288 H   0  0  0  0  0  0  0  0  0  0  0  0
    5.0543    1.7670   10.8476 H   0  0  0  0  0  0  0  0  0  0  0  0
    5.2627    0.2795    8.9174 H   0  0  0  0  0  0  0  0  0  0  0  0
    6.5389   -2.0200   -0.7199 H   0  0  0  0  0  0  0  0  0  0  0  0
    7.4224   -3.9985   -1.8561 H   0  0  0  0  0  0  0  0  0  0  0  0
    9.2763   -3.7908   -3.4732 H   0  0  0  0  0  0  0  0  0  0  0  0
   10.2245   -1.5620   -3.9634 H   0  0  0  0  0  0  0  0  0  0  0  0
    9.3474    0.4282   -2.8197 H   0  0  0  0  0  0  0  0  0  0  0  0
    5.7522    1.9929   -2.2936 H   0  0  0  0  0  0  0  0  0  0  0  0
    5.6488    3.9897   -3.7027 H   0  0  0  0  0  0  0  0  0  0  0  0
    6.0533    6.2241   -2.7370 H   0  0  0  0  0  0  0  0  0  0  0  0
    6.5434    6.4437   -0.3242 H   0  0  0  0  0  0  0  0  0  0  0  0
    6.6846    4.4401    1.0946 H   0  0  0  0  0  0  0  0  0  0  0  0
  2  1  1  0  0  0  0
  2  3  1  0  0  0  0
  3  9  1  0  0  0  0
  4  2  1  0  0  0  0
  5 10  1  0  0  0  0
  5 35  1  0  0  0  0
  6 16  1  0  0  0  0
  7 22  1  0  0  0  0
  8 40  1  0  0  0  0
  9  6  1  0  0  0  0
  9  5  1  0  0  0  0
 10 11  1  0  0  0  0
 11 12  2  0  0  0  0
 11 37  1  0  0  0  0
 12 39  1  0  0  0  0
 13 41  1  0  0  0  0
 13 12  1  0  0  0  0
 14 13  2  0  0  0  0
 15 14  1  0  0  0  0
 15 10  2  0  0  0  0
 16 21  1  0  0  0  0
 17 16  2  0  0  0  0
 17 18  1  0  0  0  0
 18 19  2  0  0  0  0
 19 20  1  0  0  0  0
 19 46  1  0  0  0  0
 20 47  1  0  0  0  0
 21 48  1  0  0  0  0
 21 20  2  0  0  0  0
 22  8  1  0  0  0  0
 22  4  1  0  0  0  0
 23 24  1  0  0  0  0
 23  7  1  0  0  0  0
 24 49  1  0  0  0  0
 25 50  1  0  0  0  0
 25 24  2  0  0  0  0
 26 25  1  0  0  0  0
 27 26  2  0  0  0  0
 27 28  1  0  0  0  0
 28 23  2  0  0  0  0
 29 34  1  0  0  0  0
 29  8  1  0  0  0  0
 30 29  2  0  0  0  0
 31 32  2  0  0  0  0
 31 30  1  0  0  0  0
 32 33  1  0  0  0  0
 33 57  1  0  0  0  0
 33 34  2  0  0  0  0
 34 58  1  0  0  0  0
 36  6  1  0  0  0  0
 38  7  1  0  0  0  0
 42 14  1  0  0  0  0
 43 15  1  0  0  0  0
 44 17  1  0  0  0  0
 45 18  1  0  0  0  0
 51 26  1  0  0  0  0
 52 27  1  0  0  0  0
 53 28  1  0  0  0  0
 54 30  1  0  0  0  0
 55 31  1  0  0  0  0
 56 32  1  0  0  0  0
M  END
$$$$
