CSD_code = FOXFEF | q = 0 | S = 0 | Stoichiometry = C23H31BrClN3O2Pd | MND = 4
 OpenBabel04212202043D

 62 66  0  0  1  0  0  0  0  0999 V2000
   17.7590   -0.1785   -1.4223 Pd  0  0  1  0  0  0  0  0  0  0  0  0
   22.3162   -2.0107   -4.2405 Br  0  0  0  0  0  0  0  0  0  0  0  0
   16.6860    1.7645   -0.7934 Cl  0  0  0  0  0  0  0  0  0  0  0  0
   18.8899    0.5879   -2.9348 N   0  0  0  0  0  0  0  0  0  0  0  0
   17.0442   -1.0650    1.3020 N   0  0  0  0  0  0  0  0  0  0  0  0
   15.5077   -1.5792   -0.1153 N   0  0  0  0  0  0  0  0  0  0  0  0
   18.0475   -3.6088   -0.3494 O   0  0  0  0  0  0  0  0  0  0  0  0
   19.6789   -5.1442   -0.8891 O   0  0  0  0  0  0  0  0  0  0  0  0
   18.8794   -1.7801   -1.8044 C   0  0  0  0  0  0  0  0  0  0  0  0
   18.9268   -3.0431   -1.2607 C   0  0  0  0  0  0  0  0  0  0  0  0
   19.9074   -3.9840   -1.5749 C   0  0  0  0  0  0  0  0  0  0  0  0
   20.9274   -3.6999   -2.4553 C   0  0  0  0  0  0  0  0  0  0  0  0
   21.6891   -4.4226   -2.6934 H   0  0  0  0  0  0  0  0  0  0  0  0
   20.9116   -2.4298   -3.0181 C   0  0  0  0  0  0  0  0  0  0  0  0
   19.9307   -1.4858   -2.7174 C   0  0  0  0  0  0  0  0  0  0  0  0
   19.8293   -0.1825   -3.3339 C   0  0  0  0  0  0  0  0  0  0  0  0
   20.5083    0.0886   -4.1398 H   0  0  0  0  0  0  0  0  0  0  0  0
   18.5075    1.8097   -3.5935 C   0  0  0  0  0  0  0  0  0  0  0  0
   18.3465    2.5568   -2.8022 H   0  0  0  0  0  0  0  0  0  0  0  0
   17.1433    1.5279   -4.2513 C   0  0  0  0  0  0  0  0  0  0  0  0
   17.2813    0.7921   -5.0501 H   0  0  0  0  0  0  0  0  0  0  0  0
   16.4638    1.1006   -3.4953 H   0  0  0  0  0  0  0  0  0  0  0  0
   16.5653    2.8185   -4.8176 C   0  0  0  0  0  0  0  0  0  0  0  0
   16.3861    3.5170   -3.9982 H   0  0  0  0  0  0  0  0  0  0  0  0
   15.6077    2.6131   -5.3002 H   0  0  0  0  0  0  0  0  0  0  0  0
   17.5336    3.4382   -5.8222 C   0  0  0  0  0  0  0  0  0  0  0  0
   17.6509    2.7650   -6.6753 H   0  0  0  0  0  0  0  0  0  0  0  0
   17.1280    4.3807   -6.1948 H   0  0  0  0  0  0  0  0  0  0  0  0
   18.8973    3.6808   -5.1807 C   0  0  0  0  0  0  0  0  0  0  0  0
   18.7920    4.4012   -4.3665 H   0  0  0  0  0  0  0  0  0  0  0  0
   19.5843    4.1042   -5.9162 H   0  0  0  0  0  0  0  0  0  0  0  0
   19.4734    2.3772   -4.6314 C   0  0  0  0  0  0  0  0  0  0  0  0
   20.4506    2.5612   -4.1781 H   0  0  0  0  0  0  0  0  0  0  0  0
   19.6010    1.6705   -5.4556 H   0  0  0  0  0  0  0  0  0  0  0  0
   18.5065   -4.9207   -0.1355 C   0  0  0  0  0  0  0  0  0  0  0  0
   17.7318   -5.6429   -0.4444 H   0  0  0  0  0  0  0  0  0  0  0  0
   18.7265   -5.0700    0.9345 H   0  0  0  0  0  0  0  0  0  0  0  0
   16.7240   -1.0311    0.0024 C   0  0  1  0  0  3  0  0  0  0  0  0
   16.0224   -1.6376    2.0111 C   0  0  0  0  0  0  0  0  0  0  0  0
   16.0511   -1.7719    3.0724 H   0  0  0  0  0  0  0  0  0  0  0  0
   15.0549   -1.9597    1.1199 C   0  0  0  0  0  0  0  0  0  0  0  0
   14.1019   -2.4203    1.2769 H   0  0  0  0  0  0  0  0  0  0  0  0
   18.2743   -0.5024    1.8287 C   0  0  0  0  0  0  0  0  0  0  0  0
   18.8801   -0.2277    0.9373 H   0  0  0  0  0  0  0  0  0  0  0  0
   14.8005   -1.6498   -1.3804 C   0  0  0  0  0  0  0  0  0  0  0  0
   15.5704   -1.4504   -2.1573 H   0  0  0  0  0  0  0  0  0  0  0  0
   19.0265   -1.5415    2.6534 C   0  0  0  0  0  0  0  0  0  0  0  0
   18.4804   -1.7873    3.5614 H   0  0  0  0  0  0  0  0  0  0  0  0
   20.0023   -1.1552    2.9341 H   0  0  0  0  0  0  0  0  0  0  0  0
   19.1653   -2.4486    2.0700 H   0  0  0  0  0  0  0  0  0  0  0  0
   17.9609    0.7647    2.6211 C   0  0  0  0  0  0  0  0  0  0  0  0
   17.4416    1.4739    1.9790 H   0  0  0  0  0  0  0  0  0  0  0  0
   18.8811    1.2225    2.9727 H   0  0  0  0  0  0  0  0  0  0  0  0
   17.3316    0.5388    3.4793 H   0  0  0  0  0  0  0  0  0  0  0  0
   13.7466   -0.5449   -1.4354 C   0  0  0  0  0  0  0  0  0  0  0  0
   12.9966   -0.6906   -0.6608 H   0  0  0  0  0  0  0  0  0  0  0  0
   13.2546   -0.5434   -2.4039 H   0  0  0  0  0  0  0  0  0  0  0  0
   14.2273    0.4208   -1.2832 H   0  0  0  0  0  0  0  0  0  0  0  0
   14.2095   -3.0387   -1.5929 C   0  0  0  0  0  0  0  0  0  0  0  0
   14.9772   -3.7959   -1.4517 H   0  0  0  0  0  0  0  0  0  0  0  0
   13.8190   -3.1221   -2.6032 H   0  0  0  0  0  0  0  0  0  0  0  0
   13.3958   -3.2268   -0.8963 H   0  0  0  0  0  0  0  0  0  0  0  0
  1  3  1  1  0  0  0
  1 38  1  0  0  0  0
  2 14  1  0  0  0  0
  4  1  1  0  0  0  0
  5 43  1  0  0  0  0
  5 39  1  0  0  0  0
  6 41  1  0  0  0  0
  7 35  1  0  0  0  0
  8 35  1  0  0  0  0
  9  1  2  0  0  0  0
  9 10  1  0  0  0  0
 10  7  1  0  0  0  0
 11 10  2  0  0  0  0
 11  8  1  0  0  0  0
 12 11  1  0  0  0  0
 13 12  1  0  0  0  0
 14 15  1  0  0  0  0
 14 12  2  0  0  0  0
 15  9  1  0  0  0  0
 16  4  1  0  0  0  0
 16 15  2  0  0  0  0
 17 16  1  0  0  0  0
 18  4  1  0  0  0  0
 18 19  1  0  0  0  0
 20 18  1  0  0  0  0
 20 22  1  0  0  0  0
 21 20  1  0  0  0  0
 23 20  1  0  0  0  0
 23 24  1  0  0  0  0
 25 23  1  0  0  0  0
 26 29  1  0  0  0  0
 26 23  1  0  0  0  0
 27 26  1  0  0  0  0
 28 26  1  0  0  0  0
 29 32  1  0  0  0  0
 29 30  1  0  0  0  0
 31 29  1  0  0  0  0
 32 33  1  0  0  0  0
 32 18  1  0  0  0  0
 34 32  1  0  0  0  0
 35 37  1  0  0  0  0
 36 35  1  0  0  0  0
 38  6  1  1  0  0  0
 38  5  1  0  0  0  0
 39 40  1  0  0  0  0
 41 42  1  0  0  0  0
 41 39  2  0  0  0  0
 43 51  1  0  0  0  0
 43 47  1  0  0  0  0
 44 43  1  0  0  0  0
 45  6  1  0  0  0  0
 46 45  1  0  0  0  0
 47 49  1  0  0  0  0
 47 48  1  0  0  0  0
 50 47  1  0  0  0  0
 51 53  1  0  0  0  0
 51 54  1  0  0  0  0
 52 51  1  0  0  0  0
 55 45  1  0  0  0  0
 55 58  1  0  0  0  0
 55 56  1  0  0  0  0
 57 55  1  0  0  0  0
 59 60  1  0  0  0  0
 59 45  1  0  0  0  0
 59 62  1  0  0  0  0
 61 59  1  0  0  0  0
M  END
$$$$
