CSD_code = FOXGII | q = 0 | S = 0 | Stoichiometry = C26H24Cl2P2PdS | MND = 4
 OpenBabel04212202043D

 56 60  0  0  0  0  0  0  0  0999 V2000
   11.3647   10.6204   11.0922 Pd  0  0  0  0  0  0  0  0  0  0  0  0
   13.5500   11.2370   11.0402 Cl  0  0  0  0  0  0  0  0  0  0  0  0
   10.7482   12.7543   11.4207 Cl  0  0  0  0  0  0  0  0  0  0  0  0
   11.9859    8.2587   10.9267 S   0  0  0  0  0  0  0  0  0  0  0  0
   11.2798    8.7473    9.1469 P   0  0  0  0  0  4  0  0  0  0  0  0
    9.2680    9.9573   11.5302 P   0  0  0  0  0  4  0  0  0  0  0  0
    9.4106    8.8653    9.0153 C   0  0  0  0  0  0  0  0  0  0  0  0
    8.7472    8.6041   10.3634 C   0  0  0  0  0  0  0  0  0  0  0  0
   11.6329    7.3797    7.9969 C   0  0  0  0  0  0  0  0  0  0  0  0
   11.3375    7.5510    6.6479 C   0  0  0  0  0  0  0  0  0  0  0  0
   11.5950    6.5295    5.7543 C   0  0  0  0  0  0  0  0  0  0  0  0
   12.1456    5.3384    6.2044 C   0  0  0  0  0  0  0  0  0  0  0  0
   12.4398    5.1688    7.5469 C   0  0  0  0  0  0  0  0  0  0  0  0
   12.1847    6.1901    8.4462 C   0  0  0  0  0  0  0  0  0  0  0  0
   12.0703   10.1767    8.3182 C   0  0  0  0  0  0  0  0  0  0  0  0
   13.3746    9.9731    7.8798 C   0  0  0  0  0  0  0  0  0  0  0  0
   14.1134   11.0416    7.4050 C   0  0  0  0  0  0  0  0  0  0  0  0
   13.5567   12.3089    7.3764 C   0  0  0  0  0  0  0  0  0  0  0  0
   12.2534   12.5124    7.8051 C   0  0  0  0  0  0  0  0  0  0  0  0
   11.5032   11.4527    8.2837 C   0  0  0  0  0  0  0  0  0  0  0  0
    9.3784    9.1415   13.1466 C   0  0  0  0  0  0  0  0  0  0  0  0
   10.4680    9.4924   13.9453 C   0  0  0  0  0  0  0  0  0  0  0  0
   10.6400    8.8896   15.1788 C   0  0  0  0  0  0  0  0  0  0  0  0
    9.7339    7.9364   15.6155 C   0  0  0  0  0  0  0  0  0  0  0  0
    8.6542    7.5825   14.8213 C   0  0  0  0  0  0  0  0  0  0  0  0
    8.4725    8.1806   13.5875 C   0  0  0  0  0  0  0  0  0  0  0  0
    7.8021   11.0256   11.5968 C   0  0  0  0  0  0  0  0  0  0  0  0
    6.9086   11.0156   12.6609 C   0  0  0  0  0  0  0  0  0  0  0  0
    5.8093   11.8562   12.6414 C   0  0  0  0  0  0  0  0  0  0  0  0
    5.6012   12.7106   11.5716 C   0  0  0  0  0  0  0  0  0  0  0  0
    6.5014   12.7363   10.5180 C   0  0  0  0  0  0  0  0  0  0  0  0
    7.6008   11.9007   10.5326 C   0  0  0  0  0  0  0  0  0  0  0  0
    9.1298    9.8539    8.6391 H   0  0  0  0  0  0  0  0  0  0  0  0
    9.1057    8.1154    8.2780 H   0  0  0  0  0  0  0  0  0  0  0  0
    9.0913    7.6485   10.7723 H   0  0  0  0  0  0  0  0  0  0  0  0
    7.6588    8.5809   10.2584 H   0  0  0  0  0  0  0  0  0  0  0  0
   10.9168    8.4892    6.3083 H   0  0  0  0  0  0  0  0  0  0  0  0
   11.3708    6.6605    4.7060 H   0  0  0  0  0  0  0  0  0  0  0  0
   12.3492    4.5428    5.5033 H   0  0  0  0  0  0  0  0  0  0  0  0
   12.8719    4.2425    7.8946 H   0  0  0  0  0  0  0  0  0  0  0  0
   12.4157    6.0796    9.4970 H   0  0  0  0  0  0  0  0  0  0  0  0
   13.8081    8.9822    7.9412 H   0  0  0  0  0  0  0  0  0  0  0  0
   15.1323   10.8868    7.0837 H   0  0  0  0  0  0  0  0  0  0  0  0
   14.1447   13.1471    7.0345 H   0  0  0  0  0  0  0  0  0  0  0  0
   11.8262   13.5039    7.7951 H   0  0  0  0  0  0  0  0  0  0  0  0
   10.4807   11.6265    8.6196 H   0  0  0  0  0  0  0  0  0  0  0  0
   11.1920   10.2423   13.5918 H   0  0  0  0  0  0  0  0  0  0  0  0
   11.4843    9.1577   15.7961 H   0  0  0  0  0  0  0  0  0  0  0  0
    9.8715    7.4619   16.5758 H   0  0  0  0  0  0  0  0  0  0  0  0
    7.9536    6.8348   15.1637 H   0  0  0  0  0  0  0  0  0  0  0  0
    7.6337    7.9010   12.9641 H   0  0  0  0  0  0  0  0  0  0  0  0
    7.0769   10.3630   13.5056 H   0  0  0  0  0  0  0  0  0  0  0  0
    8.3318   11.9460    9.7363 H   0  0  0  0  0  0  0  0  0  0  0  0
    6.3516   13.4176    9.6937 H   0  0  0  0  0  0  0  0  0  0  0  0
    5.1163   11.8489   13.4699 H   0  0  0  0  0  0  0  0  0  0  0  0
    4.7447   13.3682   11.5654 H   0  0  0  0  0  0  0  0  0  0  0  0
  1  3  1  0  0  0  0
  1  6  1  0  0  0  0
  2  1  1  0  0  0  0
  4  1  1  0  0  0  0
  5  4  1  0  0  0  0
  6 27  1  0  0  0  0
  6 21  1  0  0  0  0
  7  5  1  0  0  0  0
  7  8  1  0  0  0  0
  8 35  1  0  0  0  0
  8  6  1  0  0  0  0
  9 14  1  0  0  0  0
  9  5  1  0  0  0  0
 10  9  2  0  0  0  0
 11 12  2  0  0  0  0
 11 10  1  0  0  0  0
 12 13  1  0  0  0  0
 13 40  1  0  0  0  0
 13 14  2  0  0  0  0
 14 41  1  0  0  0  0
 15  5  1  0  0  0  0
 16 42  1  0  0  0  0
 16 15  2  0  0  0  0
 17 16  1  0  0  0  0
 18 17  2  0  0  0  0
 18 19  1  0  0  0  0
 19 20  2  0  0  0  0
 20 15  1  0  0  0  0
 20 46  1  0  0  0  0
 21 26  2  0  0  0  0
 21 22  1  0  0  0  0
 22 23  2  0  0  0  0
 23 24  1  0  0  0  0
 23 48  1  0  0  0  0
 24 49  1  0  0  0  0
 25 50  1  0  0  0  0
 25 24  2  0  0  0  0
 26 25  1  0  0  0  0
 27 28  1  0  0  0  0
 28 52  1  0  0  0  0
 29 28  2  0  0  0  0
 29 55  1  0  0  0  0
 30 29  1  0  0  0  0
 31 32  1  0  0  0  0
 31 30  2  0  0  0  0
 32 27  2  0  0  0  0
 33  7  1  0  0  0  0
 34  7  1  0  0  0  0
 36  8  1  0  0  0  0
 37 10  1  0  0  0  0
 38 11  1  0  0  0  0
 39 12  1  0  0  0  0
 43 17  1  0  0  0  0
 44 18  1  0  0  0  0
 45 19  1  0  0  0  0
 47 22  1  0  0  0  0
 51 26  1  0  0  0  0
 53 32  1  0  0  0  0
 54 31  1  0  0  0  0
 56 30  1  0  0  0  0
M  END
$$$$
