CSD_code = FOYDAZ | q = 0 | S = 0 | Stoichiometry = C27H31Cl2N3Ni | MND = 5
 OpenBabel04212202043D

 64 68  0  0  1  0  0  0  0  0999 V2000
    6.3422    3.4619   11.0661 Ni  0  0  0  0  0  0  0  0  0  0  0  0
    5.9826    1.5804   10.3181 Cl  0  0  0  0  0  0  0  0  0  0  0  0
    4.3549    4.5144   10.4489 Cl  0  0  0  0  0  0  0  0  0  0  0  0
    7.4933    4.1502    9.5376 N   0  0  0  0  0  0  0  0  0  0  0  0
    6.7628    5.0456   11.7513 N   0  0  0  0  0  0  0  0  0  0  0  0
    5.8540    3.0856   13.0043 N   0  0  0  0  0  0  0  0  0  0  0  0
    7.6822    5.4236    9.6526 C   0  0  0  0  0  0  0  0  0  0  0  0
    7.3048    5.9736   10.9463 C   0  0  0  0  0  0  0  0  0  0  0  0
    7.4249    7.2914   11.3750 C   0  0  0  0  0  0  0  0  0  0  0  0
    7.8429    8.0425   10.7247 H   0  0  0  0  0  0  0  0  0  0  0  0
    6.9847    7.6236   12.6478 C   0  0  0  0  0  0  0  0  0  0  0  0
    7.0626    8.6416   12.9973 H   0  0  0  0  0  0  0  0  0  0  0  0
    6.4362    6.6487   13.4680 C   0  0  0  0  0  0  0  0  0  0  0  0
    6.0812    6.8970   14.4551 H   0  0  0  0  0  0  0  0  0  0  0  0
    6.3391    5.3462   12.9895 C   0  0  0  0  0  0  0  0  0  0  0  0
    5.7807    4.1890   13.6735 C   0  0  2  0  0  3  0  0  0  0  0  0
    8.2672    6.3007    8.5949 C   0  0  0  0  0  0  0  0  0  0  0  0
    8.6288    5.7029    7.7617 H   0  0  0  0  0  0  0  0  0  0  0  0
    9.0934    6.8781    9.0076 H   0  0  0  0  0  0  0  0  0  0  0  0
    7.5139    6.9986    8.2309 H   0  0  0  0  0  0  0  0  0  0  0  0
    5.2134    4.3196   15.0487 C   0  0  0  0  0  0  0  0  0  0  0  0
    4.9864    3.3397   15.4617 H   0  0  0  0  0  0  0  0  0  0  0  0
    4.3002    4.9132   15.0201 H   0  0  0  0  0  0  0  0  0  0  0  0
    5.9269    4.8260   15.6974 H   0  0  0  0  0  0  0  0  0  0  0  0
    7.7821    3.4385    8.3653 C   0  0  0  0  0  0  0  0  0  0  0  0
    7.0265    3.5871    7.1958 C   0  0  0  0  0  0  0  0  0  0  0  0
    7.3660    2.8158    6.0937 C   0  0  0  0  0  0  0  0  0  0  0  0
    6.7811    2.9205    5.1909 H   0  0  0  0  0  0  0  0  0  0  0  0
    8.4169    1.9127    6.1214 C   0  0  0  0  0  0  0  0  0  0  0  0
    9.1333    1.7635    7.3025 C   0  0  0  0  0  0  0  0  0  0  0  0
    9.9416    1.0477    7.3477 H   0  0  0  0  0  0  0  0  0  0  0  0
    8.8234    2.5004    8.4291 C   0  0  0  0  0  0  0  0  0  0  0  0
    5.8458    4.5055    7.1325 C   0  0  0  0  0  0  0  0  0  0  0  0
    5.3440    4.5648    8.0964 H   0  0  0  0  0  0  0  0  0  0  0  0
    5.1313    4.1410    6.3989 H   0  0  0  0  0  0  0  0  0  0  0  0
    6.1446    5.5124    6.8379 H   0  0  0  0  0  0  0  0  0  0  0  0
    8.7514    1.0809    4.9214 C   0  0  0  0  0  0  0  0  0  0  0  0
    8.3463    1.5231    4.0146 H   0  0  0  0  0  0  0  0  0  0  0  0
    8.3250    0.0840    5.0337 H   0  0  0  0  0  0  0  0  0  0  0  0
    9.8288    0.9732    4.8130 H   0  0  0  0  0  0  0  0  0  0  0  0
    9.5752    2.3299    9.7112 C   0  0  0  0  0  0  0  0  0  0  0  0
    8.8574    2.1958   10.5255 H   0  0  0  0  0  0  0  0  0  0  0  0
   10.1775    3.2117    9.9352 H   0  0  0  0  0  0  0  0  0  0  0  0
   10.2265    1.4617    9.6661 H   0  0  0  0  0  0  0  0  0  0  0  0
    5.3581    1.8664   13.4856 C   0  0  0  0  0  0  0  0  0  0  0  0
    3.9860    1.6184   13.6182 C   0  0  0  0  0  0  0  0  0  0  0  0
    3.5867    0.3699   14.0718 C   0  0  0  0  0  0  0  0  0  0  0  0
    2.5290    0.1696   14.1686 H   0  0  0  0  0  0  0  0  0  0  0  0
    4.4977   -0.6256   14.3896 C   0  0  0  0  0  0  0  0  0  0  0  0
    5.8515   -0.3643   14.2225 C   0  0  0  0  0  0  0  0  0  0  0  0
    6.5745   -1.1362   14.4442 H   0  0  0  0  0  0  0  0  0  0  0  0
    6.2958    0.8602   13.7613 C   0  0  0  0  0  0  0  0  0  0  0  0
    2.9603    2.6384   13.2320 C   0  0  0  0  0  0  0  0  0  0  0  0
    2.0409    2.1436   12.9294 H   0  0  0  0  0  0  0  0  0  0  0  0
    3.3085    3.2480   12.4004 H   0  0  0  0  0  0  0  0  0  0  0  0
    2.7260    3.2987   14.0680 H   0  0  0  0  0  0  0  0  0  0  0  0
    4.0320   -1.9698   14.8585 C   0  0  0  0  0  0  0  0  0  0  0  0
    4.7519   -2.4142   15.5422 H   0  0  0  0  0  0  0  0  0  0  0  0
    3.9215   -2.6388   14.0048 H   0  0  0  0  0  0  0  0  0  0  0  0
    3.0677   -1.8963   15.3561 H   0  0  0  0  0  0  0  0  0  0  0  0
    7.7509    1.1419   13.5579 C   0  0  0  0  0  0  0  0  0  0  0  0
    7.8916    1.5653   12.5593 H   0  0  0  0  0  0  0  0  0  0  0  0
    8.3374    0.2315   13.6428 H   0  0  0  0  0  0  0  0  0  0  0  0
    8.1176    1.8671   14.2860 H   0  0  0  0  0  0  0  0  0  0  0  0
  1  5  1  0  0  0  0
  1  6  1  0  0  0  0
  2  1  1  0  0  0  0
  3  1  1  0  0  0  0
  4  7  1  0  0  0  0
  4  1  1  0  0  0  0
  5 15  1  0  0  0  0
  6 45  1  0  0  0  0
  6 16  1  0  0  0  0
  7  8  2  0  0  0  0
  8  9  1  0  0  0  0
  8  5  1  0  0  0  0
  9 11  2  0  0  0  0
 10  9  1  0  0  0  0
 11 12  1  0  0  0  0
 11 13  1  0  0  0  0
 13 14  1  0  0  0  0
 15 13  2  0  0  0  0
 15 16  1  0  0  0  0
 16 21  1  1  0  0  0
 17 19  1  0  0  0  0
 17  7  1  0  0  0  0
 18 17  1  0  0  0  0
 20 17  1  0  0  0  0
 21 22  1  0  0  0  0
 21 24  1  0  0  0  0
 23 21  1  0  0  0  0
 25 32  1  0  0  0  0
 25  4  1  0  0  0  0
 26 25  2  0  0  0  0
 27 29  2  0  0  0  0
 27 26  1  0  0  0  0
 28 27  1  0  0  0  0
 29 30  1  0  0  0  0
 30 31  1  0  0  0  0
 30 32  2  0  0  0  0
 32 41  1  0  0  0  0
 33 26  1  0  0  0  0
 33 34  1  0  0  0  0
 35 33  1  0  0  0  0
 36 33  1  0  0  0  0
 37 39  1  0  0  0  0
 37 29  1  0  0  0  0
 38 37  1  0  0  0  0
 40 37  1  0  0  0  0
 41 43  1  0  0  0  0
 41 42  1  0  0  0  0
 44 41  1  0  0  0  0
 45 46  2  0  0  0  0
 45 52  1  0  0  0  0
 46 47  1  0  0  0  0
 47 48  1  0  0  0  0
 47 49  2  0  0  0  0
 49 57  1  0  0  0  0
 50 49  1  0  0  0  0
 50 51  1  0  0  0  0
 52 50  2  0  0  0  0
 53 46  1  0  0  0  0
 53 56  1  0  0  0  0
 54 53  1  0  0  0  0
 55 53  1  0  0  0  0
 57 60  1  0  0  0  0
 57 58  1  0  0  0  0
 59 57  1  0  0  0  0
 61 63  1  0  0  0  0
 61 52  1  0  0  0  0
 61 64  1  0  0  0  0
 62 61  1  0  0  0  0
M  END
$$$$
