CSD_code = FOYFAB | q = 0 | S = 0 | Stoichiometry = C20H24Cl2F2N2Zn | MND = 4
 OpenBabel04212202043D

 51 54  0  0  1  0  0  0  0  0999 V2000
    0.2415    0.1624   27.9890 Zn  0  0  0  0  0  0  0  0  0  0  0  0
    1.1242    2.1664   28.0408 Cl  0  0  0  0  0  0  0  0  0  0  0  0
   -1.8665   -0.5427   28.0352 Cl  0  0  0  0  0  0  0  0  0  0  0  0
    3.1555   -0.3117   31.0140 F   0  0  0  0  0  0  0  0  0  0  0  0
    4.1512   -1.3880   24.5406 F   0  0  0  0  0  0  0  0  0  0  0  0
    1.3274   -1.4681   28.9060 N   0  0  0  0  0  4  0  0  0  0  0  0
    2.3327   -1.3068   28.9685 H   0  0  0  0  0  0  0  0  0  0  0  0
    0.9068   -0.9447   26.1899 N   0  0  0  0  0  4  0  0  0  0  0  0
    0.0382   -1.1548   25.6978 H   0  0  0  0  0  0  0  0  0  0  0  0
   -0.3739    0.4537   31.1420 C   0  0  0  0  0  0  0  0  0  0  0  0
   -1.3231   -0.0099   30.9169 H   0  0  0  0  0  0  0  0  0  0  0  0
   -0.3326    1.7354   31.6664 C   0  0  0  0  0  0  0  0  0  0  0  0
   -1.2532    2.2733   31.8314 H   0  0  0  0  0  0  0  0  0  0  0  0
    0.8805    2.3315   31.9645 C   0  0  0  0  0  0  0  0  0  0  0  0
    0.9102    3.3357   32.3577 H   0  0  0  0  0  0  0  0  0  0  0  0
    2.0641    1.6454   31.7524 C   0  0  0  0  0  0  0  0  0  0  0  0
    3.0230    2.0877   31.9699 H   0  0  0  0  0  0  0  0  0  0  0  0
    2.0022    0.3705   31.2307 C   0  0  0  0  0  0  0  0  0  0  0  0
    0.8007   -0.2536   30.9126 C   0  0  0  0  0  0  0  0  0  0  0  0
    0.8078   -1.6160   30.2741 C   0  0  0  0  0  0  0  0  0  0  0  0
    1.4209   -2.3086   30.8649 H   0  0  0  0  0  0  0  0  0  0  0  0
   -0.2130   -1.9978   30.2103 H   0  0  0  0  0  0  0  0  0  0  0  0
    1.0880   -2.6037   28.0148 C   0  0  2  0  0  0  0  0  0  0  0  0
    0.0061   -2.7779   28.0121 H   0  0  0  0  0  0  0  0  0  0  0  0
    1.8208   -3.8775   28.4436 C   0  0  0  0  0  0  0  0  0  0  0  0
    1.5157   -4.1590   29.4525 H   0  0  0  0  0  0  0  0  0  0  0  0
    2.8976   -3.6876   28.4549 H   0  0  0  0  0  0  0  0  0  0  0  0
    1.5121   -5.0244   27.4858 C   0  0  0  0  0  0  0  0  0  0  0  0
    2.0581   -5.9174   27.7936 H   0  0  0  0  0  0  0  0  0  0  0  0
    0.4451   -5.2516   27.5295 H   0  0  0  0  0  0  0  0  0  0  0  0
    1.8911   -4.6464   26.0588 C   0  0  0  0  0  0  0  0  0  0  0  0
    1.6293   -5.4560   25.3762 H   0  0  0  0  0  0  0  0  0  0  0  0
    2.9700   -4.4899   25.9941 H   0  0  0  0  0  0  0  0  0  0  0  0
    1.1706   -3.3684   25.6399 C   0  0  0  0  0  0  0  0  0  0  0  0
    0.0900   -3.5312   25.6697 H   0  0  0  0  0  0  0  0  0  0  0  0
    1.4448   -3.1110   24.6157 H   0  0  0  0  0  0  0  0  0  0  0  0
    1.5236   -2.2185   26.5876 C   0  0  1  0  0  0  0  0  0  0  0  0
    2.6096   -2.0693   26.5949 H   0  0  0  0  0  0  0  0  0  0  0  0
    1.7425   -0.1006   25.3224 C   0  0  0  0  0  0  0  0  0  0  0  0
    2.6935    0.0694   25.8312 H   0  0  0  0  0  0  0  0  0  0  0  0
    1.2419    0.8664   25.2233 H   0  0  0  0  0  0  0  0  0  0  0  0
    1.9733   -0.6834   23.9529 C   0  0  0  0  0  0  0  0  0  0  0  0
    0.9807   -0.6346   22.9805 C   0  0  0  0  0  0  0  0  0  0  0  0
    0.0441   -0.1500   23.2149 H   0  0  0  0  0  0  0  0  0  0  0  0
    1.1796   -1.1882   21.7284 C   0  0  0  0  0  0  0  0  0  0  0  0
    0.3951   -1.1388   20.9894 H   0  0  0  0  0  0  0  0  0  0  0  0
    2.3840   -1.7998   21.4208 C   0  0  0  0  0  0  0  0  0  0  0  0
    2.5421   -2.2287   20.4436 H   0  0  0  0  0  0  0  0  0  0  0  0
    3.3910   -1.8607   22.3678 C   0  0  0  0  0  0  0  0  0  0  0  0
    4.3390   -2.3293   22.1566 H   0  0  0  0  0  0  0  0  0  0  0  0
    3.1689   -1.3058   23.6141 C   0  0  0  0  0  0  0  0  0  0  0  0
  1  3  1  0  0  0  0
  1  2  1  0  0  0  0
  1  6  1  0  0  0  0
  4 18  1  0  0  0  0
  6  7  1  0  0  0  0
  6 20  1  0  0  0  0
  8 37  1  0  0  0  0
  8  1  1  0  0  0  0
  9  8  1  0  0  0  0
 10 12  1  0  0  0  0
 11 10  1  0  0  0  0
 12 13  1  0  0  0  0
 12 14  2  0  0  0  0
 14 15  1  0  0  0  0
 16 14  1  0  0  0  0
 16 17  1  0  0  0  0
 18 16  2  0  0  0  0
 19 10  2  0  0  0  0
 19 18  1  0  0  0  0
 20 21  1  0  0  0  0
 20 19  1  0  0  0  0
 22 20  1  0  0  0  0
 23 24  1  6  0  0  0
 23 25  1  0  0  0  0
 23  6  1  0  0  0  0
 25 27  1  0  0  0  0
 25 26  1  0  0  0  0
 28 30  1  0  0  0  0
 28 29  1  0  0  0  0
 28 25  1  0  0  0  0
 31 28  1  0  0  0  0
 32 31  1  0  0  0  0
 33 31  1  0  0  0  0
 34 35  1  0  0  0  0
 34 31  1  0  0  0  0
 34 37  1  0  0  0  0
 36 34  1  0  0  0  0
 37 38  1  6  0  0  0
 37 23  1  0  0  0  0
 39 40  1  0  0  0  0
 39  8  1  0  0  0  0
 41 39  1  0  0  0  0
 42 39  1  0  0  0  0
 43 44  1  0  0  0  0
 43 42  2  0  0  0  0
 45 43  1  0  0  0  0
 46 45  1  0  0  0  0
 47 45  2  0  0  0  0
 47 49  1  0  0  0  0
 48 47  1  0  0  0  0
 49 51  2  0  0  0  0
 50 49  1  0  0  0  0
 51 42  1  0  0  0  0
 51  5  1  0  0  0  0
M  END
$$$$
