CSD_code = FOYQIT | q = 0 | S = 0 | Stoichiometry = C7H5Cl3O2W | MND = 10
 OpenBabel04212202043D

 18 15  0  0  1  0  0  0  0  0999 V2000
   14.2893    5.4618    6.7338 W   0  0  0  0  0  0  0  0  0  0  0  0
   16.1121    5.8578    5.0392 Cl  0  0  0  0  0 15  0  0  0  0  0  0
   13.1652    4.7165    4.7742 Cl  0  0  0  0  0 15  0  0  0  0  0  0
   13.6283    7.6066    5.9462 Cl  0  0  0  0  0 15  0  0  0  0  0  0
   16.9529    6.7418    7.8550 O   0  0  0  0  0  1  0  0  0  0  0  0
   13.2221    3.8462    8.0433 C   0  0  0  0  0  3  0  0  0  0  0  0
   14.0684    4.6398    8.8801 C   0  0  2  0  0  0  0  0  0  0  0  0
   13.5406    5.9696    8.8841 C   0  0  0  0  0  3  0  0  0  0  0  0
   12.3654    5.9724    8.0846 C   0  0  0  0  0  0  0  0  0  0  0  0
   11.6852    6.8057    7.9716 H   0  0  0  0  0  0  0  0  0  0  0  0
   12.1713    4.6793    7.5734 C   0  0  0  0  0  0  0  0  0  0  0  0
   11.3170    4.3477    6.9990 H   0  0  0  0  0  0  0  0  0  0  0  0
   15.9581    6.3401    7.4496 C   0  0  0  0  0  2  0  0  0  0  0  0
   16.3716    3.1101    6.3815 O   0  0  0  0  0  1  0  0  0  0  0  0
   15.5726    3.9280    6.4718 C   0  0  0  0  0  2  0  0  0  0  0  0
   13.8524    6.7718    9.5410 H   0  0  0  0  0  0  0  0  0  0  0  0
   14.8211    4.2580    9.5586 H   0  0  0  0  0  0  0  0  0  0  0  0
   13.2526    2.7677    7.9539 H   0  0  0  0  0  0  0  0  0  0  0  0
  1 13  1  0  0  0  0
  1  7  1  0  0  0  0
  6  7  1  0  0  0  0
  7  8  1  0  0  0  0
  7 17  1  1  0  0  0
  8 16  1  0  0  0  0
  9  8  1  0  0  0  0
 10  9  1  0  0  0  0
 11  6  1  0  0  0  0
 11  9  2  0  0  0  0
 12 11  1  0  0  0  0
 13  5  1  0  0  0  0
 14 15  1  0  0  0  0
 15  1  1  0  0  0  0
 18  6  1  0  0  0  0
M  END
$$$$
