CSD_code = FOYYAV | q = 1 | S = 0 | Stoichiometry = C17H21AuCl2N5S2(1+) | MND = 4
 OpenBabel04212202043D

 48 51  0  0  1  0  0  0  0  0999 V2000
    4.3863    4.0517    4.8385 Au  0  0  0  0  0  0  0  0  0  0  0  0
    6.4066    3.5206    3.8928 Cl  0  0  0  0  0  0  0  0  0  0  0  0
    4.3330    1.9206    5.8590 S   0  0  0  0  0  0  0  0  0  0  0  0
    6.0212    0.3173    4.4944 N   0  0  0  0  0  0  0  0  0  0  0  0
    8.3352    0.5889    5.2000 C   0  0  0  0  0  0  0  0  0  0  0  0
    8.7730   -0.0970    4.4798 H   0  0  0  0  0  0  0  0  0  0  0  0
    8.9756    0.6174    6.0762 H   0  0  0  0  0  0  0  0  0  0  0  0
    8.2997    1.5849    4.7652 H   0  0  0  0  0  0  0  0  0  0  0  0
    4.4113    6.1076    3.8228 Cl  0  0  0  0  0  0  0  0  0  0  0  0
    2.2819    4.5713    5.7814 S   0  0  0  0  0  0  0  0  0  0  0  0
    4.3561    1.0127    3.2620 N   0  0  0  0  0  0  0  0  0  0  0  0
    6.9369    0.1460    5.6147 C   0  0  0  0  0  0  0  0  0  0  0  0
    6.5648    0.8019    6.4078 H   0  0  0  0  0  0  0  0  0  0  0  0
    6.8975   -1.3015    6.0918 C   0  0  0  0  0  0  0  0  0  0  0  0
    5.8878   -1.5845    6.3790 H   0  0  0  0  0  0  0  0  0  0  0  0
    7.5421   -1.4099    6.9585 H   0  0  0  0  0  0  0  0  0  0  0  0
    7.2487   -1.9788    5.3173 H   0  0  0  0  0  0  0  0  0  0  0  0
    1.4916    4.7353    3.1514 N   0  0  0  0  0  0  0  0  0  0  0  0
    6.1760   -0.2266    3.2518 C   0  0  0  0  0  0  0  0  0  0  0  0
    6.9984   -0.8643    3.0023 H   0  0  0  0  0  0  0  0  0  0  0  0
    1.2003    6.5620    4.3145 N   0  0  0  0  0  0  0  0  0  0  0  0
    5.1487    0.1965    2.4824 C   0  0  0  0  0  0  0  0  0  0  0  0
    4.9452    0.0210    1.4467 H   0  0  0  0  0  0  0  0  0  0  0  0
    4.9301    1.0870    4.4923 C   0  0  1  0  0  3  0  0  0  0  0  0
    3.1717    1.6080    2.7978 C   0  0  0  0  0  0  0  0  0  0  0  0
    2.3629    0.8952    1.9158 C   0  0  0  0  0  0  0  0  0  0  0  0
    2.6124   -0.1127    1.6290 H   0  0  0  0  0  0  0  0  0  0  0  0
    1.2112    1.5040    1.4468 C   0  0  0  0  0  0  0  0  0  0  0  0
    0.5520    0.9769    0.7751 H   0  0  0  0  0  0  0  0  0  0  0  0
    0.9069    2.7909    1.8571 C   0  0  0  0  0  0  0  0  0  0  0  0
    0.0071    3.2802    1.5235 H   0  0  0  0  0  0  0  0  0  0  0  0
    1.7771    3.4222    2.7427 C   0  0  0  0  0  0  0  0  0  0  0  0
    2.8756    2.8368    3.2037 N   0  0  0  0  0  0  0  0  0  0  0  0
    0.9303    5.6820    2.3203 C   0  0  0  0  0  0  0  0  0  0  0  0
    0.7443    5.4951    1.2833 H   0  0  0  0  0  0  0  0  0  0  0  0
    0.7560    6.8078    3.0472 C   0  0  0  0  0  0  0  0  0  0  0  0
    0.3570    7.7561    2.7525 H   0  0  0  0  0  0  0  0  0  0  0  0
    1.6682    5.3126    4.3696 C   0  0  1  0  0  3  0  0  0  0  0  0
    1.2236    7.5258    5.4070 C   0  0  0  0  0  0  0  0  0  0  0  0
    1.7361    7.0265    6.2350 H   0  0  0  0  0  0  0  0  0  0  0  0
   -0.2044    7.8625    5.8220 C   0  0  0  0  0  0  0  0  0  0  0  0
   -0.7422    8.3513    5.0135 H   0  0  0  0  0  0  0  0  0  0  0  0
   -0.1801    8.5366    6.6727 H   0  0  0  0  0  0  0  0  0  0  0  0
   -0.7424    6.9637    6.1131 H   0  0  0  0  0  0  0  0  0  0  0  0
    2.0169    8.7562    4.9832 C   0  0  0  0  0  0  0  0  0  0  0  0
    2.9886    8.4606    4.5947 H   0  0  0  0  0  0  0  0  0  0  0  0
    2.1702    9.3971    5.8462 H   0  0  0  0  0  0  0  0  0  0  0  0
    1.4902    9.3275    4.2234 H   0  0  0  0  0  0  0  0  0  0  0  0
  1 10  1  0  0  0  0
  1  3  1  0  0  0  0
  2  1  1  0  0  0  0
  4 12  1  0  0  0  0
  5 12  1  0  0  0  0
  5  7  1  0  0  0  0
  6  5  1  0  0  0  0
  8  5  1  0  0  0  0
  9  1  1  0  0  0  0
 11 24  1  0  0  0  0
 12 14  1  0  0  0  0
 12 13  1  0  0  0  0
 14 15  1  0  0  0  0
 14 16  1  0  0  0  0
 17 14  1  0  0  0  0
 18 38  1  0  0  0  0
 19  4  1  0  0  0  0
 20 19  1  0  0  0  0
 21 38  1  0  0  0  0
 21 39  1  0  0  0  0
 22 19  2  0  0  0  0
 22 11  1  0  0  0  0
 23 22  1  0  0  0  0
 24  4  1  0  0  0  0
 24  3  1  1  0  0  0
 25 33  1  0  0  0  0
 25 11  1  0  0  0  0
 26 25  2  0  0  0  0
 27 26  1  0  0  0  0
 28 30  2  0  0  0  0
 28 26  1  0  0  0  0
 29 28  1  0  0  0  0
 30 32  1  0  0  0  0
 31 30  1  0  0  0  0
 32 18  1  0  0  0  0
 32 33  2  0  0  0  0
 34 36  2  0  0  0  0
 34 18  1  0  0  0  0
 35 34  1  0  0  0  0
 36 21  1  0  0  0  0
 37 36  1  0  0  0  0
 38 10  1  1  0  0  0
 39 41  1  0  0  0  0
 39 40  1  0  0  0  0
 41 44  1  0  0  0  0
 41 43  1  0  0  0  0
 42 41  1  0  0  0  0
 45 39  1  0  0  0  0
 45 47  1  0  0  0  0
 46 45  1  0  0  0  0
 48 45  1  0  0  0  0
M  END
$$$$
