CSD_code = FOZCEC | q = 0 | S = 0 | Stoichiometry = C11H16Cl2N4Pt | MND = 6
 OpenBabel04212202043D

 34 37  0  0  1  0  0  0  0  0999 V2000
    0.2742    3.1763    3.0273 Pt  0  0  0  0  0  0  0  0  0  0  0  0
    0.3905    4.6241    4.8975 Cl  0  0  0  0  0  0  0  0  0  0  0  0
   -1.9574    1.7867   -1.2542 Cl  0  0  0  0  0  0  0  0  0  0  0  0
    1.7872    4.1847    2.0781 C   0  0  0  0  0  0  0  0  0  0  0  0
    2.4562    3.5218    1.5294 H   0  0  0  0  0  0  0  0  0  0  0  0
    1.3273    4.8862    1.3780 H   0  0  0  0  0  0  0  0  0  0  0  0
    2.3664    4.7495    2.8079 H   0  0  0  0  0  0  0  0  0  0  0  0
    1.6815    1.9380    3.8599 C   0  0  0  0  0  0  0  0  0  0  0  0
    2.2324    1.3633    3.1148 H   0  0  0  0  0  0  0  0  0  0  0  0
    2.3881    2.5178    4.4530 H   0  0  0  0  0  0  0  0  0  0  0  0
    1.1554    1.2490    4.5254 H   0  0  0  0  0  0  0  0  0  0  0  0
   -0.2086    1.9421    1.4172 C   0  0  0  0  0  0  0  0  0  0  0  0
    0.1519    2.2909    0.4475 H   0  0  0  0  0  0  0  0  0  0  0  0
    0.0757    0.8929    1.5323 H   0  0  0  0  0  0  0  0  0  0  0  0
   -1.7366    2.0441    1.4483 C   0  0  1  0  0  0  0  0  0  0  0  0
   -2.4302    1.2109    0.3658 C   0  0  0  0  0  0  0  0  0  0  0  0
   -2.1179    0.1699    0.4499 H   0  0  0  0  0  0  0  0  0  0  0  0
   -3.5168    1.2792    0.4226 H   0  0  0  0  0  0  0  0  0  0  0  0
   -1.4782    2.0321    3.8192 N   0  0  0  0  0  0  0  0  0  0  0  0
   -2.1840    1.6061    2.7703 N   0  0  1  0  0  0  0  0  0  0  0  0
   -3.2846    0.9408    3.1785 C   0  0  0  0  0  3  0  0  0  0  0  0
   -3.9911    0.5140    2.4974 H   0  0  0  0  0  0  0  0  0  0  0  0
   -3.2615    0.9292    4.5533 C   0  0  0  0  0  0  0  0  0  0  0  0
   -3.9756    0.4782    5.2102 H   0  0  0  0  0  0  0  0  0  0  0  0
   -2.1036    1.6340    4.9047 C   0  0  0  0  0  0  0  0  0  0  0  0
   -1.7139    1.8666    5.8759 H   0  0  0  0  0  0  0  0  0  0  0  0
   -1.3610    4.3209    2.0363 N   0  0  0  0  0  0  0  0  0  0  0  0
   -2.1005    3.4509    1.3470 N   0  0  2  0  0  0  0  0  0  0  0  0
   -3.1547    4.0684    0.7775 C   0  0  0  0  0  3  0  0  0  0  0  0
   -3.8745    3.5548    0.1749 H   0  0  0  0  0  0  0  0  0  0  0  0
   -3.0646    5.4006    1.1055 C   0  0  0  0  0  0  0  0  0  0  0  0
   -3.7288    6.1866    0.8123 H   0  0  0  0  0  0  0  0  0  0  0  0
   -1.9185    5.5042    1.9029 C   0  0  0  0  0  0  0  0  0  0  0  0
   -1.4907    6.3657    2.3762 H   0  0  0  0  0  0  0  0  0  0  0  0
  1 19  1  0  0  0  0
  1  8  1  0  0  0  0
  1  2  1  0  0  0  0
  3 16  1  0  0  0  0
  4  7  1  0  0  0  0
  4  1  1  0  0  0  0
  5  4  1  0  0  0  0
  6  4  1  0  0  0  0
  8 10  1  0  0  0  0
  8 11  1  0  0  0  0
  9  8  1  0  0  0  0
 12 15  1  0  0  0  0
 12 14  1  0  0  0  0
 12  1  1  0  0  0  0
 13 12  1  0  0  0  0
 15 16  1  6  0  0  0
 15 20  1  0  0  0  0
 16 18  1  0  0  0  0
 16 17  1  0  0  0  0
 19 25  1  0  0  0  0
 20 21  1  1  0  0  0
 20 19  1  0  0  0  0
 21 23  1  0  0  0  0
 22 21  1  0  0  0  0
 23 25  2  0  0  0  0
 23 24  1  0  0  0  0
 25 26  1  0  0  0  0
 27  1  1  0  0  0  0
 28 29  1  1  0  0  0
 28 15  1  0  0  0  0
 28 27  1  0  0  0  0
 29 31  1  0  0  0  0
 30 29  1  0  0  0  0
 31 33  2  0  0  0  0
 32 31  1  0  0  0  0
 33 27  1  0  0  0  0
 33 34  1  0  0  0  0
M  END
$$$$
