CSD_code = FOZCAY | q = 0 | S = 0 | Stoichiometry = C11H17ClN4Pt | MND = 6
 OpenBabel04212202043D

 34 37  0  0  1  0  0  0  0  0999 V2000
    8.9697    8.8446    7.1706 Pt  0  0  0  0  0  0  0  0  0  0  0  0
    9.1251    7.2667    8.9366 Cl  0  0  0  0  0  0  0  0  0  0  0  0
   10.9946    9.1627    7.2359 C   0  0  0  0  0  0  0  0  0  0  0  0
   11.3540    9.0793    8.2610 H   0  0  0  0  0  0  0  0  0  0  0  0
   11.4658    8.3768    6.6404 H   0  0  0  0  0  0  0  0  0  0  0  0
   11.2855   10.1351    6.8371 H   0  0  0  0  0  0  0  0  0  0  0  0
    8.7278   10.3932    8.4941 C   0  0  0  0  0  0  0  0  0  0  0  0
    9.0843   10.0914    9.4784 H   0  0  0  0  0  0  0  0  0  0  0  0
    7.6591   10.6103    8.5631 H   0  0  0  0  0  0  0  0  0  0  0  0
    9.2538   11.2982    8.1899 H   0  0  0  0  0  0  0  0  0  0  0  0
    8.6057    9.9704    5.4549 C   0  0  0  0  0  0  0  0  0  0  0  0
    8.0913   10.9196    5.6233 H   0  0  0  0  0  0  0  0  0  0  0  0
    9.4839   10.1644    4.8340 H   0  0  0  0  0  0  0  0  0  0  0  0
    7.6665    9.0237    4.6994 C   0  0  2  0  0  0  0  0  0  0  0  0
    7.2042    9.5798    3.3577 C   0  0  0  0  0  0  0  0  0  0  0  0
    6.6820   10.5196    3.5197 H   0  0  0  0  0  0  0  0  0  0  0  0
    8.0715    9.7711    2.7307 H   0  0  0  0  0  0  0  0  0  0  0  0
    6.5392    8.8952    2.8362 H   0  0  0  0  0  0  0  0  0  0  0  0
    6.7877    8.5220    6.8615 N   0  0  0  0  0  0  0  0  0  0  0  0
    6.5302    8.7391    5.5716 N   0  0  2  0  0  0  0  0  0  0  0  0
    5.2279    8.5210    5.3046 C   0  0  0  0  0  3  0  0  0  0  0  0
    4.8085    8.6378    4.3269 H   0  0  0  0  0  0  0  0  0  0  0  0
    4.6271    8.1658    6.4901 C   0  0  0  0  0  0  0  0  0  0  0  0
    3.5953    7.9310    6.6497 H   0  0  0  0  0  0  0  0  0  0  0  0
    5.6565    8.1788    7.4384 C   0  0  0  0  0  0  0  0  0  0  0  0
    5.6237    7.9545    8.4861 H   0  0  0  0  0  0  0  0  0  0  0  0
    9.0686    7.2971    5.5677 N   0  0  0  0  0  0  0  0  0  0  0  0
    8.3644    7.7520    4.5310 N   0  0  1  0  0  0  0  0  0  0  0  0
    8.3419    6.8428    3.5371 C   0  0  0  0  0  3  0  0  0  0  0  0
    7.8299    7.0076    2.6119 H   0  0  0  0  0  0  0  0  0  0  0  0
    9.0854    5.7652    3.9593 C   0  0  0  0  0  0  0  0  0  0  0  0
    9.2883    4.8646    3.4180 H   0  0  0  0  0  0  0  0  0  0  0  0
    9.5172    6.1028    5.2471 C   0  0  0  0  0  0  0  0  0  0  0  0
   10.1143    5.5396    5.9367 H   0  0  0  0  0  0  0  0  0  0  0  0
  1  3  1  0  0  0  0
  1  7  1  0  0  0  0
  1  2  1  0  0  0  0
  3  4  1  0  0  0  0
  5  3  1  0  0  0  0
  6  3  1  0  0  0  0
  7  9  1  0  0  0  0
  7  8  1  0  0  0  0
 10  7  1  0  0  0  0
 11 12  1  0  0  0  0
 11  1  1  0  0  0  0
 13 11  1  0  0  0  0
 14 15  1  6  0  0  0
 14 11  1  0  0  0  0
 14 20  1  0  0  0  0
 15 16  1  0  0  0  0
 17 15  1  0  0  0  0
 18 15  1  0  0  0  0
 19  1  1  0  0  0  0
 19 25  1  0  0  0  0
 20 21  1  6  0  0  0
 20 19  1  0  0  0  0
 21 23  1  0  0  0  0
 22 21  1  0  0  0  0
 23 24  1  0  0  0  0
 23 25  2  0  0  0  0
 25 26  1  0  0  0  0
 27  1  1  0  0  0  0
 28 29  1  1  0  0  0
 28 14  1  0  0  0  0
 28 27  1  0  0  0  0
 29 31  1  0  0  0  0
 30 29  1  0  0  0  0
 31 33  2  0  0  0  0
 32 31  1  0  0  0  0
 33 27  1  0  0  0  0
 33 34  1  0  0  0  0
M  END
$$$$
