CSD_code = FOZHEI | q = 0 | S = 0 | Stoichiometry = C29H27BrCuNO2S2 | MND = 3
 OpenBabel04212202043D

 63 68  0  0  1  0  0  0  0  0999 V2000
   11.2099    6.5434    4.6860 Cu  0  0  0  0  0  0  0  0  0  0  0  0
   11.7782    8.0204    3.0723 Br  0  0  0  0  0  0  0  0  0  0  0  0
    8.1746    5.4884    0.3770 S   0  0  0  0  0  0  0  0  0  0  0  0
   13.0757    4.9247    4.8126 S   0  0  1  0  0  3  0  0  0  0  0  0
    9.1976    5.2701    3.8937 O   0  0  0  0  0  0  0  0  0  0  0  0
   12.4949    7.6113    6.6720 O   0  0  0  0  0  0  0  0  0  0  0  0
   10.1751    6.0474    6.2575 N   0  0  0  0  0  0  0  0  0  0  0  0
    9.2372    4.2915    4.9019 C   0  0  0  0  0  0  0  0  0  0  0  0
   10.0549    3.6204    4.6072 H   0  0  0  0  0  0  0  0  0  0  0  0
    8.3036    3.7154    4.9259 H   0  0  0  0  0  0  0  0  0  0  0  0
    8.1016    6.1131    3.8598 C   0  0  0  0  0  0  0  0  0  0  0  0
    7.1913    6.2375    4.8996 C   0  0  0  0  0  0  0  0  0  0  0  0
    7.2942    5.6518    5.8007 H   0  0  0  0  0  0  0  0  0  0  0  0
    6.1328    7.1258    4.8008 C   0  0  0  0  0  0  0  0  0  0  0  0
    5.4346    7.2065    5.6207 H   0  0  0  0  0  0  0  0  0  0  0  0
    5.9761    7.9012    3.6686 C   0  0  0  0  0  0  0  0  0  0  0  0
    5.1551    8.5973    3.5936 H   0  0  0  0  0  0  0  0  0  0  0  0
    6.8789    7.7738    2.6282 C   0  0  0  0  0  0  0  0  0  0  0  0
    6.7618    8.3657    1.7331 H   0  0  0  0  0  0  0  0  0  0  0  0
    7.9416    6.8866    2.7020 C   0  0  0  0  0  0  0  0  0  0  0  0
    8.8690    6.7225    1.5492 C   0  0  0  0  0  0  0  0  0  0  0  0
    9.8259    6.3256    1.8747 H   0  0  0  0  0  0  0  0  0  0  0  0
    9.0080    7.6583    1.0091 H   0  0  0  0  0  0  0  0  0  0  0  0
    9.7454    4.8631   -0.3446 C   0  0  0  0  0  0  0  0  0  0  0  0
    9.4304    4.2109   -1.1579 H   0  0  0  0  0  0  0  0  0  0  0  0
   10.2895    5.7198   -0.7404 H   0  0  0  0  0  0  0  0  0  0  0  0
   10.5228    4.1289    0.6927 C   0  0  0  0  0  0  0  0  0  0  0  0
   10.1147    2.8680    1.1125 C   0  0  0  0  0  0  0  0  0  0  0  0
    9.2549    2.4084    0.6475 H   0  0  0  0  0  0  0  0  0  0  0  0
   10.7938    2.2154    2.1240 C   0  0  0  0  0  0  0  0  0  0  0  0
   10.4745    1.2335    2.4426 H   0  0  0  0  0  0  0  0  0  0  0  0
   11.8780    2.8198    2.7362 C   0  0  0  0  0  0  0  0  0  0  0  0
   12.4048    2.3181    3.5364 H   0  0  0  0  0  0  0  0  0  0  0  0
   12.2925    4.0834    2.3329 C   0  0  0  0  0  0  0  0  0  0  0  0
   11.6124    4.7307    1.3108 C   0  0  0  0  0  0  0  0  0  0  0  0
   11.9391    5.7113    0.9936 H   0  0  0  0  0  0  0  0  0  0  0  0
   13.4394    4.7563    3.0145 C   0  0  0  0  0  0  0  0  0  0  0  0
   13.5997    5.7590    2.6179 H   0  0  0  0  0  0  0  0  0  0  0  0
   14.3560    4.1678    2.9387 H   0  0  0  0  0  0  0  0  0  0  0  0
   14.3611    6.1809    5.2341 C   0  0  0  0  0  0  0  0  0  0  0  0
   15.2977    5.8190    4.8115 H   0  0  0  0  0  0  0  0  0  0  0  0
   14.0687    7.1219    4.7668 H   0  0  0  0  0  0  0  0  0  0  0  0
   14.4453    6.2925    6.7182 C   0  0  0  0  0  0  0  0  0  0  0  0
   15.4653    5.6663    7.4165 C   0  0  0  0  0  0  0  0  0  0  0  0
   16.2226    5.1290    6.8647 H   0  0  0  0  0  0  0  0  0  0  0  0
   15.5231    5.7169    8.7979 C   0  0  0  0  0  0  0  0  0  0  0  0
   16.3253    5.2255    9.3259 H   0  0  0  0  0  0  0  0  0  0  0  0
   14.5407    6.3961    9.4923 C   0  0  0  0  0  0  0  0  0  0  0  0
   14.5686    6.4417   10.5706 H   0  0  0  0  0  0  0  0  0  0  0  0
   13.5099    7.0251    8.8152 C   0  0  0  0  0  0  0  0  0  0  0  0
   12.7623    7.5527    9.3855 H   0  0  0  0  0  0  0  0  0  0  0  0
   13.4525    6.9850    7.4286 C   0  0  0  0  0  0  0  0  0  0  0  0
   11.2461    7.9289    7.2629 C   0  0  0  0  0  0  0  0  0  0  0  0
   10.7597    8.5819    6.5294 H   0  0  0  0  0  0  0  0  0  0  0  0
   11.3545    8.4688    8.2066 H   0  0  0  0  0  0  0  0  0  0  0  0
   10.4551    6.6570    7.4174 C   0  0  2  0  0  3  0  0  0  0  0  0
   10.1133    6.0974    8.6340 C   0  0  0  0  0  0  0  0  0  0  0  0
   10.3408    6.6115    9.5542 H   0  0  0  0  0  0  0  0  0  0  0  0
    9.4642    4.8693    8.6491 C   0  0  0  0  0  0  0  0  0  0  0  0
    9.1854    4.4092    9.5841 H   0  0  0  0  0  0  0  0  0  0  0  0
    9.1748    4.2471    7.4434 C   0  0  0  0  0  0  0  0  0  0  0  0
    8.6637    3.2975    7.4142 H   0  0  0  0  0  0  0  0  0  0  0  0
    9.5379    4.8742    6.2629 C   0  0  0  0  0  0  0  0  0  0  0  0
  1  4  1  0  0  0  0
  1  7  1  0  0  0  0
  2  1  1  0  0  0  0
  3 21  1  0  0  0  0
  4 37  1  6  0  0  0
  4 40  1  0  0  0  0
  5  8  1  0  0  0  0
  6 53  1  0  0  0  0
  6 52  1  0  0  0  0
  7 63  1  0  0  0  0
  7 56  1  0  0  0  0
  8 10  1  0  0  0  0
  8 63  1  0  0  0  0
  9  8  1  0  0  0  0
 11  5  1  0  0  0  0
 11 12  1  0  0  0  0
 12 13  1  0  0  0  0
 14 12  2  0  0  0  0
 14 15  1  0  0  0  0
 16 14  1  0  0  0  0
 17 16  1  0  0  0  0
 18 20  1  0  0  0  0
 18 16  2  0  0  0  0
 19 18  1  0  0  0  0
 20 11  2  0  0  0  0
 21 22  1  0  0  0  0
 21 20  1  0  0  0  0
 23 21  1  0  0  0  0
 24  3  1  0  0  0  0
 24 27  1  0  0  0  0
 25 24  1  0  0  0  0
 26 24  1  0  0  0  0
 27 28  2  0  0  0  0
 27 35  1  0  0  0  0
 28 30  1  0  0  0  0
 29 28  1  0  0  0  0
 30 31  1  0  0  0  0
 30 32  2  0  0  0  0
 32 33  1  0  0  0  0
 34 32  1  0  0  0  0
 34 37  1  0  0  0  0
 35 34  2  0  0  0  0
 36 35  1  0  0  0  0
 38 37  1  0  0  0  0
 39 37  1  0  0  0  0
 40 43  1  0  0  0  0
 41 40  1  0  0  0  0
 42 40  1  0  0  0  0
 43 44  2  0  0  0  0
 43 52  1  0  0  0  0
 44 46  1  0  0  0  0
 45 44  1  0  0  0  0
 46 47  1  0  0  0  0
 46 48  2  0  0  0  0
 48 49  1  0  0  0  0
 50 51  1  0  0  0  0
 50 48  1  0  0  0  0
 52 50  2  0  0  0  0
 53 56  1  0  0  0  0
 53 55  1  0  0  0  0
 54 53  1  0  0  0  0
 56 57  1  1  0  0  0
 57 59  2  0  0  0  0
 57 58  1  0  0  0  0
 59 60  1  0  0  0  0
 61 59  1  0  0  0  0
 62 61  1  0  0  0  0
 63 61  2  0  0  0  0
M  END
$$$$
