CSD_code = FOZLAH | q = 0 | S = 0 | Stoichiometry = C12H28Cl2N3V | MND = 5
 OpenBabel04212202043D

 46 47  0  0  0  0  0  0  0  0999 V2000
   11.7016    2.2958    1.0257 V   0  0  0  0  0  0  0  0  0  0  0  0
   12.1490    1.2857   -0.7741 Cl  0  0  0  0  0  0  0  0  0  0  0  0
   10.1894    3.5138    1.8543 Cl  0  0  0  0  0  0  0  0  0  0  0  0
   12.9528    4.0375    0.4412 N   0  0  0  0  0  4  0  0  0  0  0  0
   12.9888    2.0433    2.1982 N   0  0  0  0  0  0  0  0  0  0  0  0
   10.8548    0.4740    1.9775 N   0  0  0  0  0  4  0  0  0  0  0  0
   12.8684    4.3940   -0.9781 C   0  0  0  0  0  0  0  0  0  0  0  0
   11.4410    4.7112   -1.4098 C   0  0  0  0  0  0  0  0  0  0  0  0
   12.6818    5.1937    1.3087 C   0  0  0  0  0  0  0  0  0  0  0  0
   13.6883    6.3469    1.2613 C   0  0  0  0  0  0  0  0  0  0  0  0
   14.2549    3.4340    0.7471 C   0  0  0  0  0  0  0  0  0  0  0  0
   14.2209    2.7689    2.1255 C   0  0  0  0  0  0  0  0  0  0  0  0
   12.8530    1.1023    3.2687 C   0  0  0  0  0  0  0  0  0  0  0  0
   11.3721    0.7197    3.3285 C   0  0  0  0  0  0  0  0  0  0  0  0
   11.4384   -0.7434    1.3941 C   0  0  0  0  0  0  0  0  0  0  0  0
   11.2166   -2.0529    2.1562 C   0  0  0  0  0  0  0  0  0  0  0  0
    9.3900    0.4215    1.9862 C   0  0  0  0  0  0  0  0  0  0  0  0
    8.8015    0.4966    0.5818 C   0  0  0  0  0  0  0  0  0  0  0  0
   13.5330    5.2376   -1.2132 H   0  0  0  0  0  0  0  0  0  0  0  0
   13.2089    3.5278   -1.5518 H   0  0  0  0  0  0  0  0  0  0  0  0
   10.7709    3.9272   -1.0458 H   0  0  0  0  0  0  0  0  0  0  0  0
   11.1008    5.6724   -1.0309 H   0  0  0  0  0  0  0  0  0  0  0  0
   11.3872    4.7353   -2.4957 H   0  0  0  0  0  0  0  0  0  0  0  0
   12.6133    4.8281    2.3358 H   0  0  0  0  0  0  0  0  0  0  0  0
   11.6964    5.5791    1.0426 H   0  0  0  0  0  0  0  0  0  0  0  0
   13.8023    6.7475    0.2572 H   0  0  0  0  0  0  0  0  0  0  0  0
   13.3182    7.1469    1.8979 H   0  0  0  0  0  0  0  0  0  0  0  0
   14.6658    6.0517    1.6348 H   0  0  0  0  0  0  0  0  0  0  0  0
   14.4289    2.6466    0.0080 H   0  0  0  0  0  0  0  0  0  0  0  0
   15.0712    4.1654    0.6762 H   0  0  0  0  0  0  0  0  0  0  0  0
   14.3030    3.5141    2.9368 H   0  0  0  0  0  0  0  0  0  0  0  0
   15.0872    2.0918    2.2184 H   0  0  0  0  0  0  0  0  0  0  0  0
   13.1464    1.5517    4.2328 H   0  0  0  0  0  0  0  0  0  0  0  0
   13.4944    0.2161    3.1154 H   0  0  0  0  0  0  0  0  0  0  0  0
   10.8281    1.5785    3.7325 H   0  0  0  0  0  0  0  0  0  0  0  0
   11.2080   -0.1403    3.9917 H   0  0  0  0  0  0  0  0  0  0  0  0
   11.0314   -0.8519    0.3876 H   0  0  0  0  0  0  0  0  0  0  0  0
   12.5126   -0.5763    1.2862 H   0  0  0  0  0  0  0  0  0  0  0  0
   11.6482   -2.8626    1.5726 H   0  0  0  0  0  0  0  0  0  0  0  0
   10.1605   -2.2700    2.2946 H   0  0  0  0  0  0  0  0  0  0  0  0
   11.7045   -2.0483    3.1277 H   0  0  0  0  0  0  0  0  0  0  0  0
    9.0368    1.2915    2.5464 H   0  0  0  0  0  0  0  0  0  0  0  0
    9.0306   -0.4808    2.5014 H   0  0  0  0  0  0  0  0  0  0  0  0
    8.9401   -0.4292    0.0278 H   0  0  0  0  0  0  0  0  0  0  0  0
    9.2779    1.3147    0.0339 H   0  0  0  0  0  0  0  0  0  0  0  0
    7.7348    0.6985    0.6454 H   0  0  0  0  0  0  0  0  0  0  0  0
  1  3  1  0  0  0  0
  1  6  1  0  0  0  0
  1  5  1  0  0  0  0
  2  1  1  0  0  0  0
  4 11  1  0  0  0  0
  4  1  1  0  0  0  0
  4  9  1  0  0  0  0
  5 13  1  0  0  0  0
  6 17  1  0  0  0  0
  6 14  1  0  0  0  0
  7  4  1  0  0  0  0
  8 21  1  0  0  0  0
  8 22  1  0  0  0  0
  8  7  1  0  0  0  0
  9 24  1  0  0  0  0
 10  9  1  0  0  0  0
 10 28  1  0  0  0  0
 10 27  1  0  0  0  0
 11 12  1  0  0  0  0
 12  5  1  0  0  0  0
 12 32  1  0  0  0  0
 12 31  1  0  0  0  0
 13 14  1  0  0  0  0
 13 33  1  0  0  0  0
 14 35  1  0  0  0  0
 14 36  1  0  0  0  0
 15  6  1  0  0  0  0
 15 16  1  0  0  0  0
 16 40  1  0  0  0  0
 16 41  1  0  0  0  0
 17 43  1  0  0  0  0
 17 42  1  0  0  0  0
 18 46  1  0  0  0  0
 18 17  1  0  0  0  0
 19  7  1  0  0  0  0
 20  7  1  0  0  0  0
 23  8  1  0  0  0  0
 25  9  1  0  0  0  0
 26 10  1  0  0  0  0
 29 11  1  0  0  0  0
 30 11  1  0  0  0  0
 34 13  1  0  0  0  0
 37 15  1  0  0  0  0
 38 15  1  0  0  0  0
 39 16  1  0  0  0  0
 44 18  1  0  0  0  0
 45 18  1  0  0  0  0
M  END
$$$$
