CSD_code = FOZQES | q = 0 | S = 0 | Stoichiometry = C30H23ClNPPd | MND = 4
 OpenBabel04212202043D

 57 62  0  0  0  0  0  0  0  0999 V2000
    1.7446    1.6351    3.2380 Pd  0  0  1  0  0  0  0  0  0  0  0  0
    1.1272    1.5715    5.4036 Cl  0  0  0  0  0  0  0  0  0  0  0  0
    0.4352    3.3942    2.7578 N   0  0  0  0  0  0  0  0  0  0  0  0
   -0.3698    3.9198    3.6483 C   0  0  0  0  0  0  0  0  0  0  0  0
   -0.2541    3.5603    4.6672 H   0  0  0  0  0  0  0  0  0  0  0  0
   -1.3310    4.8932    3.3270 C   0  0  0  0  0  0  0  0  0  0  0  0
   -1.9671    5.2855    4.1044 H   0  0  0  0  0  0  0  0  0  0  0  0
   -1.4358    5.3235    2.0330 C   0  0  0  0  0  0  0  0  0  0  0  0
   -2.1581    6.0735    1.7439 H   0  0  0  0  0  0  0  0  0  0  0  0
   -0.5805    4.7774    1.0512 C   0  0  0  0  0  0  0  0  0  0  0  0
    0.3534    3.7892    1.4614 C   0  0  0  0  0  0  0  0  0  0  0  0
    1.2178    3.2108    0.4959 C   0  0  0  0  0  0  0  0  0  0  0  0
    1.1659    3.6339   -0.8108 C   0  0  0  0  0  0  0  0  0  0  0  0
    1.8367    3.2021   -1.5402 H   0  0  0  0  0  0  0  0  0  0  0  0
    0.2466    4.6129   -1.2097 C   0  0  0  0  0  0  0  0  0  0  0  0
    0.2219    4.9234   -2.2436 H   0  0  0  0  0  0  0  0  0  0  0  0
   -0.6134    5.1694   -0.3021 C   0  0  0  0  0  3  0  0  0  0  0  0
   -1.3286    5.9198   -0.6059 H   0  0  0  0  0  0  0  0  0  0  0  0
    2.3985    1.9647    1.1247 P   0  0  0  0  0  4  0  0  0  0  0  0
    3.9023    2.9947    1.1144 C   0  0  0  0  0  0  0  0  0  0  0  0
    4.1213    3.7347    2.2748 C   0  0  0  0  0  0  0  0  0  0  0  0
    3.4144    3.6415    3.1057 H   0  0  0  0  0  0  0  0  0  0  0  0
    5.2208    4.5654    2.3720 C   0  0  0  0  0  0  0  0  0  0  0  0
    5.3924    5.1336    3.2740 H   0  0  0  0  0  0  0  0  0  0  0  0
    6.1076    4.6613    1.3108 C   0  0  0  0  0  0  0  0  0  0  0  0
    6.9737    5.3016    1.3875 H   0  0  0  0  0  0  0  0  0  0  0  0
    5.8846    3.9380    0.1509 C   0  0  0  0  0  0  0  0  0  0  0  0
    6.5743    4.0190   -0.6767 H   0  0  0  0  0  0  0  0  0  0  0  0
    4.7812    3.1094    0.0448 C   0  0  0  0  0  0  0  0  0  0  0  0
    4.6109    2.5459   -0.8616 H   0  0  0  0  0  0  0  0  0  0  0  0
    2.6136    0.7598   -0.2074 C   0  0  0  0  0  0  0  0  0  0  0  0
    1.5623    0.4047   -1.0479 C   0  0  0  0  0  0  0  0  0  0  0  0
    0.6178    0.9278   -0.9782 H   0  0  0  0  0  0  0  0  0  0  0  0
    1.7254   -0.6173   -1.9654 C   0  0  0  0  0  0  0  0  0  0  0  0
    0.9104   -0.8839   -2.6225 H   0  0  0  0  0  0  0  0  0  0  0  0
    2.9260   -1.3050   -2.0357 C   0  0  0  0  0  0  0  0  0  0  0  0
    3.0485   -2.1039   -2.7518 H   0  0  0  0  0  0  0  0  0  0  0  0
    3.9633   -0.9792   -1.1756 C   0  0  0  0  0  0  0  0  0  0  0  0
    4.8925   -1.5281   -1.2163 H   0  0  0  0  0  0  0  0  0  0  0  0
    3.8080    0.0423   -0.2582 C   0  0  0  0  0  0  0  0  0  0  0  0
    4.6053    0.2892    0.4306 H   0  0  0  0  0  0  0  0  0  0  0  0
    2.7610   -0.0992    3.4482 C   0  0  0  0  0  0  0  0  0  0  0  0
    2.0445   -1.1660    3.3360 C   0  0  0  0  0  0  0  0  0  0  0  0
    1.2543   -2.2069    3.2965 C   0  0  0  0  0  0  0  0  0  0  0  0
    0.8329   -2.6327    4.1938 H   0  0  0  0  0  0  0  0  0  0  0  0
    0.9961   -2.6855    2.3639 H   0  0  0  0  0  0  0  0  0  0  0  0
    4.2028    0.0788    3.5264 C   0  0  0  0  0  0  0  0  0  0  0  0
    4.7227    1.1979    4.1865 C   0  0  0  0  0  0  0  0  0  0  0  0
    4.0346    1.8658    4.7099 H   0  0  0  0  0  0  0  0  0  0  0  0
    6.0843    1.4268    4.2099 C   0  0  0  0  0  0  0  0  0  0  0  0
    6.4774    2.2932    4.7223 H   0  0  0  0  0  0  0  0  0  0  0  0
    6.9492    0.5487    3.5754 C   0  0  0  0  0  0  0  0  0  0  0  0
    8.0133    0.7343    3.5845 H   0  0  0  0  0  0  0  0  0  0  0  0
    6.4457   -0.5735    2.9369 C   0  0  0  0  0  0  0  0  0  0  0  0
    7.1209   -1.2652    2.4527 H   0  0  0  0  0  0  0  0  0  0  0  0
    5.0847   -0.8132    2.9124 C   0  0  0  0  0  0  0  0  0  0  0  0
    4.6867   -1.6861    2.4143 H   0  0  0  0  0  0  0  0  0  0  0  0
  1 42  1  0  0  0  0
  1  2  1  1  0  0  0
  3  1  1  0  0  0  0
  3  4  1  0  0  0  0
  4  5  1  0  0  0  0
  6  4  2  0  0  0  0
  6  7  1  0  0  0  0
  8  6  1  0  0  0  0
  9  8  1  0  0  0  0
 10 11  1  0  0  0  0
 10  8  2  0  0  0  0
 11  3  1  0  0  0  0
 12 19  1  0  0  0  0
 12 11  2  0  0  0  0
 13 12  1  0  0  0  0
 14 13  1  0  0  0  0
 15 13  2  0  0  0  0
 15 17  1  0  0  0  0
 16 15  1  0  0  0  0
 17 10  1  0  0  0  0
 18 17  1  0  0  0  0
 19  1  1  0  0  0  0
 20 19  1  0  0  0  0
 20 21  1  0  0  0  0
 21 23  2  0  0  0  0
 21 22  1  0  0  0  0
 23 24  1  0  0  0  0
 25 26  1  0  0  0  0
 25 23  1  0  0  0  0
 27 25  2  0  0  0  0
 28 27  1  0  0  0  0
 29 27  1  0  0  0  0
 29 20  2  0  0  0  0
 30 29  1  0  0  0  0
 31 19  1  0  0  0  0
 32 33  1  0  0  0  0
 32 31  2  0  0  0  0
 34 32  1  0  0  0  0
 35 34  1  0  0  0  0
 36 34  2  0  0  0  0
 36 38  1  0  0  0  0
 37 36  1  0  0  0  0
 38 40  2  0  0  0  0
 39 38  1  0  0  0  0
 40 31  1  0  0  0  0
 40 41  1  0  0  0  0
 42 47  1  0  0  0  0
 43 42  2  0  0  0  0
 44 43  2  0  0  0  0
 44 45  1  0  0  0  0
 46 44  1  0  0  0  0
 47 48  1  0  0  0  0
 48 50  2  0  0  0  0
 48 49  1  0  0  0  0
 50 51  1  0  0  0  0
 52 53  1  0  0  0  0
 52 50  1  0  0  0  0
 54 52  2  0  0  0  0
 55 54  1  0  0  0  0
 56 54  1  0  0  0  0
 56 47  2  0  0  0  0
 57 56  1  0  0  0  0
M  END
$$$$
