CSD_code = FUBRIE | q = 0 | S = 0 | Stoichiometry = C18H20I2N4PtSi | MND = 4
 OpenBabel04212202043D

 46 50  0  0  1  0  0  0  0  0999 V2000
    3.9163    9.5152    1.5907 Pt  0  0  0  0  0  0  0  0  0  0  0  0
    1.4630    9.9016    0.8345 I   0  0  0  0  0  0  0  0  0  0  0  0
    4.0904   11.6629    3.0415 I   0  0  0  0  0  0  0  0  0  0  0  0
    2.7155    7.1435    5.0886 Si  0  0  0  0  0  0  0  0  0  0  0  0
    3.9012    7.7430    0.5538 N   0  0  0  0  0  0  0  0  0  0  0  0
    3.7230    6.2966    2.4897 N   0  0  0  0  0  0  0  0  0  0  0  0
    5.3062    7.4233    3.8114 N   0  0  0  0  0  0  0  0  0  0  0  0
    5.8554    9.0730    2.1283 N   0  0  0  0  0  0  0  0  0  0  0  0
    3.9241    7.7467   -0.7751 C   0  0  0  0  0  3  0  0  0  0  0  0
    3.9999    8.7164   -1.2509 H   0  0  0  0  0  0  0  0  0  0  0  0
    3.8394    6.5923   -1.5453 C   0  0  0  0  0  0  0  0  0  0  0  0
    3.8635    6.6828   -2.6190 H   0  0  0  0  0  0  0  0  0  0  0  0
    3.7126    5.3564   -0.9407 C   0  0  0  0  0  0  0  0  0  0  0  0
    3.6334    4.4496   -1.5198 H   0  0  0  0  0  0  0  0  0  0  0  0
    3.6854    5.3250    0.4497 C   0  0  0  0  0  0  0  0  0  0  0  0
    3.5860    4.3121    1.4407 C   0  0  0  0  0  0  0  0  0  0  0  0
    3.5015    3.2593    1.2637 H   0  0  0  0  0  0  0  0  0  0  0  0
    3.6223    4.9378    2.6471 C   0  0  0  0  0  0  0  0  0  0  0  0
    3.5835    4.5165    3.6307 H   0  0  0  0  0  0  0  0  0  0  0  0
    3.7816    6.5575    1.1526 C   0  0  0  0  0  0  0  0  0  0  0  0
    3.8954    7.2705    3.5424 C   0  0  2  0  0  0  0  0  0  0  0  0
    3.5738    8.2469    3.0945 H   0  0  0  0  0  0  0  0  0  0  0  0
    6.0521    6.7074    4.7119 C   0  0  0  0  0  0  0  0  0  0  0  0
    5.5725    6.0077    5.3661 H   0  0  0  0  0  0  0  0  0  0  0  0
    7.3681    7.0364    4.6218 C   0  0  0  0  0  0  0  0  0  0  0  0
    8.1725    6.6407    5.2076 H   0  0  0  0  0  0  0  0  0  0  0  0
    7.4774    8.0113    3.5942 C   0  0  0  0  0  0  0  0  0  0  0  0
    8.5136    8.7367    3.0158 C   0  0  0  0  0  0  0  0  0  0  0  0
    9.5311    8.6231    3.3559 H   0  0  0  0  0  0  0  0  0  0  0  0
    8.1850    9.6102    1.9965 C   0  0  0  0  0  0  0  0  0  0  0  0
    8.9432   10.2022    1.5103 H   0  0  0  0  0  0  0  0  0  0  0  0
    6.8628    9.7541    1.5917 C   0  0  0  0  0  3  0  0  0  0  0  0
    6.6035   10.4594    0.8118 H   0  0  0  0  0  0  0  0  0  0  0  0
    6.1581    8.2201    3.1068 C   0  0  0  0  0  0  0  0  0  0  0  0
    1.0016    7.4412    4.3293 C   0  0  0  0  0  0  0  0  0  0  0  0
    0.2237    7.4107    5.0857 H   0  0  0  0  0  0  0  0  0  0  0  0
    0.7527    6.6964    3.5765 H   0  0  0  0  0  0  0  0  0  0  0  0
    0.9443    8.4150    3.8491 H   0  0  0  0  0  0  0  0  0  0  0  0
    3.3341    8.5556    6.1988 C   0  0  0  0  0  0  0  0  0  0  0  0
    2.6640    8.7092    7.0387 H   0  0  0  0  0  0  0  0  0  0  0  0
    3.3822    9.4943    5.6523 H   0  0  0  0  0  0  0  0  0  0  0  0
    4.3248    8.3638    6.6038 H   0  0  0  0  0  0  0  0  0  0  0  0
    2.7389    5.4707    6.0070 C   0  0  0  0  0  0  0  0  0  0  0  0
    2.2814    5.6111    6.9811 H   0  0  0  0  0  0  0  0  0  0  0  0
    3.7308    5.0650    6.1803 H   0  0  0  0  0  0  0  0  0  0  0  0
    2.1535    4.7168    5.4893 H   0  0  0  0  0  0  0  0  0  0  0  0
  1  8  1  0  0  0  0
  1  3  1  0  0  0  0
  2  1  1  0  0  0  0
  4 43  1  0  0  0  0
  4 39  1  0  0  0  0
  5 20  1  0  0  0  0
  5  1  1  0  0  0  0
  6 18  1  0  0  0  0
  6 21  1  0  0  0  0
  7 23  1  0  0  0  0
  8 34  1  0  0  0  0
  9  5  1  0  0  0  0
 10  9  1  0  0  0  0
 11 13  2  0  0  0  0
 11  9  1  0  0  0  0
 12 11  1  0  0  0  0
 13 15  1  0  0  0  0
 14 13  1  0  0  0  0
 15 20  2  0  0  0  0
 15 16  1  0  0  0  0
 16 18  2  0  0  0  0
 17 16  1  0  0  0  0
 18 19  1  0  0  0  0
 20  6  1  0  0  0  0
 21 22  1  6  0  0  0
 21  7  1  0  0  0  0
 21  4  1  0  0  0  0
 23 24  1  0  0  0  0
 25 23  2  0  0  0  0
 25 26  1  0  0  0  0
 27 25  1  0  0  0  0
 28 29  1  0  0  0  0
 28 27  1  0  0  0  0
 30 28  2  0  0  0  0
 31 30  1  0  0  0  0
 32 30  1  0  0  0  0
 32  8  1  0  0  0  0
 33 32  1  0  0  0  0
 34 27  2  0  0  0  0
 34  7  1  0  0  0  0
 35 36  1  0  0  0  0
 35  4  1  0  0  0  0
 37 35  1  0  0  0  0
 38 35  1  0  0  0  0
 39 42  1  0  0  0  0
 39 40  1  0  0  0  0
 41 39  1  0  0  0  0
 43 45  1  0  0  0  0
 43 44  1  0  0  0  0
 46 43  1  0  0  0  0
M  END
$$$$
