CSD_code = FUBSAX | q = 0 | S = 0 | Stoichiometry = C17H17I3N4Pt | MND = 6
 OpenBabel04212202043D

 42 46  0  0  1  0  0  0  0  0999 V2000
    9.4118   -3.4823   -0.2224 Pt  0  0  0  0  0  0  0  0  0  0  0  0
    7.4823   -2.7481    1.5427 I   0  0  0  0  0  0  0  0  0  0  0  0
    7.5799    2.9027   -0.8511 I   0  0  0  0  0  0  0  0  0  0  0  0
    7.5073    0.4569    0.3138 I   0  0  0  0  0  0  0  0  0  0  0  0
   10.3904   -3.2007   -2.8419 N   0  0  0  0  0  0  0  0  0  0  0  0
    8.2707   -2.6151   -1.9580 N   0  0  0  0  0  0  0  0  0  0  0  0
   10.3614   -5.4179   -2.0359 N   0  0  0  0  0  0  0  0  0  0  0  0
    8.3774   -5.3953   -0.7324 N   0  0  0  0  0  0  0  0  0  0  0  0
   10.5442   -1.7808    0.0658 C   0  0  0  0  0  0  0  0  0  0  0  0
   11.6164   -1.9797    0.0482 H   0  0  0  0  0  0  0  0  0  0  0  0
   10.2991   -1.3110    1.0181 H   0  0  0  0  0  0  0  0  0  0  0  0
   10.3082   -1.0796   -0.7396 H   0  0  0  0  0  0  0  0  0  0  0  0
   10.5270   -4.4158    1.2384 C   0  0  0  0  0  0  0  0  0  0  0  0
   11.4776   -4.8002    0.8669 H   0  0  0  0  0  0  0  0  0  0  0  0
    9.9223   -5.2498    1.6044 H   0  0  0  0  0  0  0  0  0  0  0  0
   10.7213   -3.7426    2.0730 H   0  0  0  0  0  0  0  0  0  0  0  0
   10.7302   -4.0522   -1.7246 C   0  0  2  0  0  0  0  0  0  0  0  0
   11.8191   -4.0084   -1.5729 H   0  0  0  0  0  0  0  0  0  0  0  0
    9.1715   -2.6164   -2.9344 C   0  0  1  0  0  3  0  0  0  0  0  0
    7.1264   -2.0052   -2.2308 C   0  0  0  0  0  0  0  0  0  0  0  0
    6.3742   -2.0222   -1.4553 H   0  0  0  0  0  0  0  0  0  0  0  0
    6.8819   -1.3643   -3.4455 C   0  0  0  0  0  0  0  0  0  0  0  0
    5.9307   -0.8767   -3.5881 H   0  0  0  0  0  0  0  0  0  0  0  0
    7.8391   -1.3329   -4.4445 C   0  0  0  0  0  0  0  0  0  0  0  0
    7.6605   -0.8165   -5.3754 H   0  0  0  0  0  0  0  0  0  0  0  0
    9.0404   -1.9936   -4.1991 C   0  0  0  0  0  0  0  0  0  0  0  0
   10.2705   -2.2438   -4.8728 C   0  0  0  0  0  0  0  0  0  0  0  0
   10.5354   -1.9125   -5.8568 H   0  0  0  0  0  0  0  0  0  0  0  0
   11.0473   -2.9792   -4.0285 C   0  0  0  0  0  0  0  0  0  0  0  0
   12.0417   -3.3549   -4.1768 H   0  0  0  0  0  0  0  0  0  0  0  0
   10.9498   -6.3124   -2.8975 C   0  0  0  0  0  0  0  0  0  0  0  0
   11.8857   -6.0783   -3.3676 H   0  0  0  0  0  0  0  0  0  0  0  0
   10.1905   -7.4385   -3.0073 C   0  0  0  0  0  0  0  0  0  0  0  0
   10.4135   -8.3021   -3.6013 H   0  0  0  0  0  0  0  0  0  0  0  0
    9.0476   -7.2539   -2.1782 C   0  0  0  0  0  0  0  0  0  0  0  0
    7.9097   -7.9677   -1.8113 C   0  0  0  0  0  0  0  0  0  0  0  0
    7.7157   -8.9549   -2.2027 H   0  0  0  0  0  0  0  0  0  0  0  0
    7.0402   -7.3640   -0.9198 C   0  0  0  0  0  0  0  0  0  0  0  0
    6.1448   -7.8745   -0.6032 H   0  0  0  0  0  0  0  0  0  0  0  0
    7.3021   -6.0949   -0.4028 C   0  0  0  0  0  3  0  0  0  0  0  0
    6.6282   -5.6321    0.3043 H   0  0  0  0  0  0  0  0  0  0  0  0
    9.2046   -5.9703   -1.5988 C   0  0  0  0  0  0  0  0  0  0  0  0
  1  9  1  0  0  0  0
  1 13  1  0  0  0  0
  1  2  1  0  0  0  0
  3  4  1  0  0  0  0
  5 17  1  0  0  0  0
  6  1  1  0  0  0  0
  7 17  1  0  0  0  0
  7 42  1  0  0  0  0
  8 40  1  0  0  0  0
  8  1  1  0  0  0  0
  9 11  1  0  0  0  0
 10  9  1  0  0  0  0
 12  9  1  0  0  0  0
 13 15  1  0  0  0  0
 13 16  1  0  0  0  0
 14 13  1  0  0  0  0
 17 18  1  1  0  0  0
 17  1  1  0  0  0  0
 19 26  1  1  0  0  0
 19  5  1  0  0  0  0
 19  6  1  0  0  0  0
 20  6  1  0  0  0  0
 20 21  1  0  0  0  0
 22 20  2  0  0  0  0
 23 22  1  0  0  0  0
 24 26  2  0  0  0  0
 24 22  1  0  0  0  0
 25 24  1  0  0  0  0
 27 26  1  0  0  0  0
 27 29  2  0  0  0  0
 28 27  1  0  0  0  0
 29  5  1  0  0  0  0
 30 29  1  0  0  0  0
 31  7  1  0  0  0  0
 32 31  1  0  0  0  0
 33 31  2  0  0  0  0
 33 35  1  0  0  0  0
 34 33  1  0  0  0  0
 35 36  1  0  0  0  0
 35 42  2  0  0  0  0
 36 38  2  0  0  0  0
 37 36  1  0  0  0  0
 38 39  1  0  0  0  0
 38 40  1  0  0  0  0
 40 41  1  0  0  0  0
 42  8  1  0  0  0  0
M  END
$$$$
