CSD_code = FUDNOJ | q = 1 | S = 0 | Stoichiometry = C15H20F3IN4O4Rh(1+) | MND = 6
 OpenBabel04212202043D

 48 50  0  0  1  0  0  0  0  0999 V2000
   -1.4658    7.5828    4.4792 Rh  0  0  1  0  0  0  0  0  0  0  0  0
   -3.6936    8.5773    5.3943 I   0  0  0  0  0  0  0  0  0  0  0  0
   -2.6684    8.1527    1.8325 N   0  0  0  0  0  0  0  0  0  0  0  0
   -2.3292    7.2335    2.7532 C   0  0  1  0  0  3  0  0  0  0  0  0
   -2.6292    6.0338    2.2372 N   0  0  0  0  0  0  0  0  0  0  0  0
   -3.1465    6.1968    0.9787 C   0  0  0  0  0  0  0  0  0  0  0  0
   -3.4504    5.3685    0.3727 H   0  0  0  0  0  0  0  0  0  0  0  0
   -3.1668    7.5245    0.7225 C   0  0  0  0  0  0  0  0  0  0  0  0
   -3.4966    8.0584   -0.1441 H   0  0  0  0  0  0  0  0  0  0  0  0
   -2.4545    4.7584    2.8989 C   0  0  0  0  0  0  0  0  0  0  0  0
   -1.3995    4.4630    2.8520 H   0  0  0  0  0  0  0  0  0  0  0  0
   -3.0446    4.0151    2.3604 H   0  0  0  0  0  0  0  0  0  0  0  0
   -2.9156    4.8159    4.3633 C   0  0  0  0  0  0  0  0  0  0  0  0
   -3.8720    5.3476    4.4311 H   0  0  0  0  0  0  0  0  0  0  0  0
   -3.0492    3.7956    4.7395 H   0  0  0  0  0  0  0  0  0  0  0  0
   -2.0103    5.5100    5.2064 O   0  0  0  0  0  0  0  0  0  0  0  0
   -0.9412    4.6908    5.6756 C   0  0  0  0  0  0  0  0  0  0  0  0
   -1.3435    3.9138    6.3331 H   0  0  0  0  0  0  0  0  0  0  0  0
   -0.2580    5.3287    6.2341 H   0  0  0  0  0  0  0  0  0  0  0  0
   -0.3885    4.2258    4.8560 H   0  0  0  0  0  0  0  0  0  0  0  0
   -1.3798    9.9584    2.7034 N   0  0  0  0  0  0  0  0  0  0  0  0
   -0.8702    9.2939    3.7522 C   0  0  2  0  0  3  0  0  0  0  0  0
    0.2394    9.9418    4.1292 N   0  0  0  0  0  0  0  0  0  0  0  0
    0.4317   11.0237    3.3112 C   0  0  0  0  0  0  0  0  0  0  0  0
    1.2625   11.6891    3.4252 H   0  0  0  0  0  0  0  0  0  0  0  0
   -0.5799   11.0316    2.4123 C   0  0  0  0  0  0  0  0  0  0  0  0
   -0.7889   11.7070    1.6091 H   0  0  0  0  0  0  0  0  0  0  0  0
    1.1124    9.5305    5.2067 C   0  0  0  0  0  0  0  0  0  0  0  0
    1.8556   10.3135    5.3624 H   0  0  0  0  0  0  0  0  0  0  0  0
    1.6269    8.6031    4.9284 H   0  0  0  0  0  0  0  0  0  0  0  0
    0.3450    9.2902    6.5061 C   0  0  0  0  0  0  0  0  0  0  0  0
    1.0663    9.2120    7.3304 H   0  0  0  0  0  0  0  0  0  0  0  0
   -0.3372   10.1299    6.7109 H   0  0  0  0  0  0  0  0  0  0  0  0
   -0.3885    8.0763    6.4296 O   0  0  0  0  0  0  0  0  0  0  0  0
   -1.0184    7.7766    7.6713 C   0  0  0  0  0  0  0  0  0  0  0  0
   -0.2577    7.5780    8.4326 H   0  0  0  0  0  0  0  0  0  0  0  0
   -1.6371    6.8921    7.5308 H   0  0  0  0  0  0  0  0  0  0  0  0
   -1.6518    8.6052    8.0020 H   0  0  0  0  0  0  0  0  0  0  0  0
   -2.5835    9.5831    2.0060 C   0  0  0  0  0  0  0  0  0  0  0  0
   -3.4595    9.9271    2.5822 H   0  0  0  0  0  0  0  0  0  0  0  0
   -2.5865   10.0590    1.0211 H   0  0  0  0  0  0  0  0  0  0  0  0
    0.2941    6.6776    3.7981 O   0  0  0  0  0  0  0  0  0  0  0  0
    0.2201    7.6417    1.7937 O   0  0  0  0  0  0  0  0  0  0  0  0
    0.6875    6.8833    2.6184 C   0  0  0  0  0  0  0  0  0  0  0  0
    1.9131    5.9793    2.2663 C   0  0  0  0  0  0  0  0  0  0  0  0
    2.3385    6.1405    1.0204 F   0  0  0  0  0  0  0  0  0  0  0  0
    1.5701    4.6868    2.4213 F   0  0  0  0  0  0  0  0  0  0  0  0
    2.9375    6.2209    3.0939 F   0  0  0  0  0  0  0  0  0  0  0  0
  1  2  1  1  0  0  0
  3 39  1  0  0  0  0
  4  3  1  6  0  0  0
  4  1  1  0  0  0  0
  5  4  1  0  0  0  0
  5 10  1  0  0  0  0
  6  5  1  0  0  0  0
  7  6  1  0  0  0  0
  8  6  2  0  0  0  0
  8  3  1  0  0  0  0
  9  8  1  0  0  0  0
 10 13  1  0  0  0  0
 11 10  1  0  0  0  0
 12 10  1  0  0  0  0
 13 14  1  0  0  0  0
 13 15  1  0  0  0  0
 13 16  1  0  0  0  0
 16 17  1  0  0  0  0
 17 19  1  0  0  0  0
 17 18  1  0  0  0  0
 20 17  1  0  0  0  0
 22 21  1  6  0  0  0
 22 23  1  0  0  0  0
 22  1  1  0  0  0  0
 23 28  1  0  0  0  0
 24 25  1  0  0  0  0
 24 23  1  0  0  0  0
 26 21  1  0  0  0  0
 26 24  2  0  0  0  0
 27 26  1  0  0  0  0
 28 29  1  0  0  0  0
 28 31  1  0  0  0  0
 30 28  1  0  0  0  0
 31 33  1  0  0  0  0
 31 32  1  0  0  0  0
 34 31  1  0  0  0  0
 34 35  1  0  0  0  0
 35 38  1  0  0  0  0
 35 36  1  0  0  0  0
 37 35  1  0  0  0  0
 39 40  1  0  0  0  0
 39 21  1  0  0  0  0
 41 39  1  0  0  0  0
 42  1  1  0  0  0  0
 43 44  2  0  0  0  0
 44 42  1  0  0  0  0
 45 47  1  0  0  0  0
 45 44  1  0  0  0  0
 45 48  1  0  0  0  0
 46 45  1  0  0  0  0
M  END
$$$$
