CSD_code = FUDQAW | q = 0 | S = 0 | Stoichiometry = C9H23Cl2FeN3 | MND = 5
 OpenBabel04212202043D

 38 36  0  0  0  0  0  0  0  0999 V2000
    1.2189   18.6885   15.6572 Fe  0  0  0  0  0  0  0  0  0  0  0  0
    2.2618   20.0295   16.7295 Cl  0  0  0  0  0  0  0  0  0  0  0  0
    0.3220   17.1261   14.7580 Cl  0  0  0  0  0  0  0  0  0  0  0  0
   -1.1110   19.2677   16.7754 N   0  0  0  0  0  0  0  0  0  0  0  0
    0.0775   20.5741   14.3089 N   0  0  0  0  0  0  0  0  0  0  0  0
    2.5682   19.0971   13.4139 N   0  0  0  0  0  0  0  0  0  0  0  0
   -1.7198   20.3728   16.0325 C   0  0  0  0  0  0  0  0  0  0  0  0
   -2.8175   20.3411   16.1145 H   0  0  0  0  0  0  0  0  0  0  0  0
   -1.3875   21.3119   16.4746 H   0  0  0  0  0  0  0  0  0  0  0  0
   -1.3499   20.3482   14.5463 C   0  0  0  0  0  0  0  0  0  0  0  0
   -1.9571   21.1064   14.0220 H   0  0  0  0  0  0  0  0  0  0  0  0
   -1.6026   19.3655   14.1442 H   0  0  0  0  0  0  0  0  0  0  0  0
    0.4199   20.2525   12.9218 C   0  0  0  0  0  0  0  0  0  0  0  0
   -0.0156   20.9951   12.2306 H   0  0  0  0  0  0  0  0  0  0  0  0
   -0.0068   19.2746   12.6919 H   0  0  0  0  0  0  0  0  0  0  0  0
    1.9308   20.1907   12.6776 C   0  0  0  0  0  0  0  0  0  0  0  0
    2.0999   20.0837   11.5948 H   0  0  0  0  0  0  0  0  0  0  0  0
    2.3879   21.1308   12.9865 H   0  0  0  0  0  0  0  0  0  0  0  0
   -1.9897   18.1039   16.7569 C   0  0  0  0  0  0  0  0  0  0  0  0
   -1.4962   17.2704   17.2520 H   0  0  0  0  0  0  0  0  0  0  0  0
   -2.1954   17.8109   15.7309 H   0  0  0  0  0  0  0  0  0  0  0  0
   -2.9419   18.3101   17.2691 H   0  0  0  0  0  0  0  0  0  0  0  0
   -0.8555   19.6506   18.1601 C   0  0  0  0  0  0  0  0  0  0  0  0
   -0.1476   20.4763   18.1874 H   0  0  0  0  0  0  0  0  0  0  0  0
   -0.4123   18.8062   18.6849 H   0  0  0  0  0  0  0  0  0  0  0  0
   -1.7779   19.9441   18.6829 H   0  0  0  0  0  0  0  0  0  0  0  0
    0.4265   21.9572   14.6073 C   0  0  0  0  0  0  0  0  0  0  0  0
   -0.1151   22.6593   13.9551 H   0  0  0  0  0  0  0  0  0  0  0  0
    1.4942   22.1072   14.4844 H   0  0  0  0  0  0  0  0  0  0  0  0
    0.1971   22.1848   15.6432 H   0  0  0  0  0  0  0  0  0  0  0  0
    2.5780   17.8839   12.6046 C   0  0  0  0  0  0  0  0  0  0  0  0
    3.1836   18.0117   11.6944 H   0  0  0  0  0  0  0  0  0  0  0  0
    1.5629   17.6196   12.3208 H   0  0  0  0  0  0  0  0  0  0  0  0
    2.9885   17.0630   13.1888 H   0  0  0  0  0  0  0  0  0  0  0  0
    3.9395   19.4417   13.7742 C   0  0  0  0  0  0  0  0  0  0  0  0
    4.3849   18.6065   14.3116 H   0  0  0  0  0  0  0  0  0  0  0  0
    3.9389   20.3071   14.4336 H   0  0  0  0  0  0  0  0  0  0  0  0
    4.5557   19.6586   12.8890 H   0  0  0  0  0  0  0  0  0  0  0  0
  1  2  1  0  0  0  0
  3  1  1  0  0  0  0
  4 23  1  0  0  0  0
  5 10  1  0  0  0  0
  5 27  1  0  0  0  0
  6 35  1  0  0  0  0
  7  8  1  0  0  0  0
  7  9  1  0  0  0  0
  7  4  1  0  0  0  0
 10  7  1  0  0  0  0
 11 10  1  0  0  0  0
 12 10  1  0  0  0  0
 13  5  1  0  0  0  0
 14 13  1  0  0  0  0
 15 13  1  0  0  0  0
 16 13  1  0  0  0  0
 16 18  1  0  0  0  0
 16  6  1  0  0  0  0
 17 16  1  0  0  0  0
 19  4  1  0  0  0  0
 19 20  1  0  0  0  0
 19 22  1  0  0  0  0
 21 19  1  0  0  0  0
 23 24  1  0  0  0  0
 23 26  1  0  0  0  0
 23 25  1  0  0  0  0
 27 30  1  0  0  0  0
 28 27  1  0  0  0  0
 29 27  1  0  0  0  0
 31 34  1  0  0  0  0
 31  6  1  0  0  0  0
 32 31  1  0  0  0  0
 33 31  1  0  0  0  0
 35 36  1  0  0  0  0
 35 37  1  0  0  0  0
 38 35  1  0  0  0  0
M  END
$$$$
