CSD_code = FUDRUS | q = 0 | S = 0 | Stoichiometry = C28H30Cl2OP2Pt | MND = 4
 OpenBabel04212202043D

 64 69  0  0  1  0  0  0  0  0999 V2000
    2.3652    3.2540    6.4951 Pt  0  0  0  0  0  0  0  0  0  0  0  0
    1.8578    5.1003    7.7182 P   0  0  0  0  0  4  0  0  0  0  0  0
    3.0483    4.7542    4.9615 P   0  0  2  0  0  4  0  0  0  0  0  0
    3.0524    1.5255    5.1698 Cl  0  0  0  0  0  0  0  0  0  0  0  0
    1.6293    1.8663    8.1468 Cl  0  0  0  0  0  0  0  0  0  0  0  0
    1.5872   10.2839    6.9244 O   0  0  0  0  0  0  0  0  0  0  0  0
    1.1683   10.3503    7.7898 H   0  0  0  0  0  0  0  0  0  0  0  0
    0.9063    6.1755    5.3817 C   0  0  0  0  0  0  0  0  0  0  0  0
    0.2858    5.3248    5.6934 H   0  0  0  0  0  0  0  0  0  0  0  0
    0.2506    7.0116    5.1405 H   0  0  0  0  0  0  0  0  0  0  0  0
    1.9334    6.5254    6.4877 C   0  0  1  0  0  0  0  0  0  0  0  0
    1.7709    7.8737    7.2016 C   0  0  0  0  0  0  0  0  0  0  0  0
    1.0970    7.7574    8.0565 H   0  0  0  0  0  0  0  0  0  0  0  0
    2.7480    8.1631    7.5994 H   0  0  0  0  0  0  0  0  0  0  0  0
    1.2604    9.0433    6.3458 C   0  0  0  0  0  0  0  0  0  0  0  0
    1.7386    9.0475    5.3660 H   0  0  0  0  0  0  0  0  0  0  0  0
    0.1724    8.9698    6.2052 H   0  0  0  0  0  0  0  0  0  0  0  0
    3.3185    6.3975    5.7891 C   0  0  2  0  0  0  0  0  0  0  0  0
    4.1458    6.4889    6.4950 H   0  0  0  0  0  0  0  0  0  0  0  0
    3.3922    7.3322    4.6094 C   0  0  0  0  0  0  0  0  0  0  0  0
    2.5075    6.9680    3.6749 C   0  0  0  0  0  0  0  0  0  0  0  0
    1.7236    5.7649    4.1387 C   0  0  1  0  0  0  0  0  0  0  0  0
    1.1180    5.2852    3.3710 H   0  0  0  0  0  0  0  0  0  0  0  0
    4.3553    8.4693    4.6134 C   0  0  0  0  0  0  0  0  0  0  0  0
    5.3759    8.0900    4.6704 H   0  0  0  0  0  0  0  0  0  0  0  0
    4.1892    9.1109    5.4785 H   0  0  0  0  0  0  0  0  0  0  0  0
    4.2624    9.0699    3.7129 H   0  0  0  0  0  0  0  0  0  0  0  0
    2.1888    7.6049    2.3678 C   0  0  0  0  0  0  0  0  0  0  0  0
    2.7955    8.4892    2.1966 H   0  0  0  0  0  0  0  0  0  0  0  0
    1.1372    7.8902    2.3338 H   0  0  0  0  0  0  0  0  0  0  0  0
    2.3681    6.8976    1.5581 H   0  0  0  0  0  0  0  0  0  0  0  0
    3.1935    5.4493    8.8952 C   0  0  0  0  0  0  0  0  0  0  0  0
    4.3913    4.7632    8.7074 C   0  0  0  0  0  0  0  0  0  0  0  0
    4.4600    4.0325    7.9006 H   0  0  0  0  0  0  0  0  0  0  0  0
    5.4615    4.9860    9.5537 C   0  0  0  0  0  0  0  0  0  0  0  0
    6.3860    4.4474    9.4090 H   0  0  0  0  0  0  0  0  0  0  0  0
    5.3393    5.8923   10.5951 C   0  0  0  0  0  0  0  0  0  0  0  0
    6.1720    6.0649   11.2606 H   0  0  0  0  0  0  0  0  0  0  0  0
    4.1449    6.5666   10.7950 C   0  0  0  0  0  0  0  0  0  0  0  0
    4.0486    7.2618   11.6160 H   0  0  0  0  0  0  0  0  0  0  0  0
    3.0710    6.3474    9.9514 C   0  0  0  0  0  0  0  0  0  0  0  0
    2.1337    6.8583   10.1216 H   0  0  0  0  0  0  0  0  0  0  0  0
    0.3528    5.2544    8.7092 C   0  0  0  0  0  0  0  0  0  0  0  0
    0.3420    4.4946    9.8800 C   0  0  0  0  0  0  0  0  0  0  0  0
    1.2178    3.9170   10.1409 H   0  0  0  0  0  0  0  0  0  0  0  0
   -0.7860    4.4630   10.6761 C   0  0  0  0  0  0  0  0  0  0  0  0
   -0.7903    3.8699   11.5780 H   0  0  0  0  0  0  0  0  0  0  0  0
   -1.9131    5.1830   10.3112 C   0  0  0  0  0  0  0  0  0  0  0  0
   -2.7960    5.1580   10.9322 H   0  0  0  0  0  0  0  0  0  0  0  0
   -1.9125    5.9239    9.1412 C   0  0  0  0  0  0  0  0  0  0  0  0
   -2.7952    6.4744    8.8497 H   0  0  0  0  0  0  0  0  0  0  0  0
   -0.7894    5.9554    8.3329 C   0  0  0  0  0  0  0  0  0  0  0  0
   -0.8101    6.5233    7.4146 H   0  0  0  0  0  0  0  0  0  0  0  0
    4.3315    4.5131    3.7220 C   0  0  0  0  0  0  0  0  0  0  0  0
    5.6435    4.9125    3.9484 C   0  0  0  0  0  0  0  0  0  0  0  0
    5.9001    5.4141    4.8712 H   0  0  0  0  0  0  0  0  0  0  0  0
    6.6099    4.6580    2.9926 C   0  0  0  0  0  0  0  0  0  0  0  0
    7.6301    4.9708    3.1608 H   0  0  0  0  0  0  0  0  0  0  0  0
    6.2733    3.9929    1.8246 C   0  0  0  0  0  0  0  0  0  0  0  0
    7.0325    3.7909    1.0837 H   0  0  0  0  0  0  0  0  0  0  0  0
    4.9702    3.5717    1.6105 C   0  0  0  0  0  0  0  0  0  0  0  0
    4.7165    3.0378    0.7069 H   0  0  0  0  0  0  0  0  0  0  0  0
    3.9981    3.8251    2.5594 C   0  0  0  0  0  0  0  0  0  0  0  0
    2.9824    3.4819    2.4201 H   0  0  0  0  0  0  0  0  0  0  0  0
  1  2  1  0  0  0  0
  1  5  1  0  0  0  0
  2 43  1  0  0  0  0
  2 32  1  0  0  0  0
  3 54  1  6  0  0  0
  3 18  1  0  0  0  0
  3  1  1  0  0  0  0
  4  1  1  0  0  0  0
  6  7  1  0  0  0  0
  8  9  1  0  0  0  0
  8 11  1  0  0  0  0
 10  8  1  0  0  0  0
 11 12  1  1  0  0  0
 11  2  1  0  0  0  0
 12 14  1  0  0  0  0
 12 13  1  0  0  0  0
 15  6  1  0  0  0  0
 15 12  1  0  0  0  0
 16 15  1  0  0  0  0
 17 15  1  0  0  0  0
 18 11  1  0  0  0  0
 18 19  1  1  0  0  0
 20 24  1  0  0  0  0
 20 18  1  0  0  0  0
 21 22  1  0  0  0  0
 21 20  2  0  0  0  0
 22 23  1  6  0  0  0
 22  3  1  0  0  0  0
 22  8  1  0  0  0  0
 24 25  1  0  0  0  0
 24 26  1  0  0  0  0
 27 24  1  0  0  0  0
 28 21  1  0  0  0  0
 29 28  1  0  0  0  0
 30 28  1  0  0  0  0
 31 28  1  0  0  0  0
 32 41  1  0  0  0  0
 33 32  2  0  0  0  0
 33 35  1  0  0  0  0
 34 33  1  0  0  0  0
 35 37  2  0  0  0  0
 36 35  1  0  0  0  0
 37 39  1  0  0  0  0
 37 38  1  0  0  0  0
 39 40  1  0  0  0  0
 41 42  1  0  0  0  0
 41 39  2  0  0  0  0
 43 44  1  0  0  0  0
 44 45  1  0  0  0  0
 44 46  2  0  0  0  0
 46 47  1  0  0  0  0
 48 46  1  0  0  0  0
 48 49  1  0  0  0  0
 50 48  2  0  0  0  0
 51 50  1  0  0  0  0
 52 43  2  0  0  0  0
 52 50  1  0  0  0  0
 53 52  1  0  0  0  0
 54 55  1  0  0  0  0
 55 56  1  0  0  0  0
 57 58  1  0  0  0  0
 57 55  2  0  0  0  0
 59 57  1  0  0  0  0
 60 59  1  0  0  0  0
 61 59  2  0  0  0  0
 61 63  1  0  0  0  0
 62 61  1  0  0  0  0
 63 54  2  0  0  0  0
 64 63  1  0  0  0  0
M  END
$$$$
