CSD_code = FUDZAH | q = 0 | S = 0 | Stoichiometry = C22H18CdI2N4 | MND = 4
 OpenBabel04212202043D

 47 52  0  0  1  0  0  0  0  0999 V2000
    5.8436    6.9564   13.2277 I   0  0  0  0  0  0  0  0  0  0  0  0
    2.3631    8.9458   10.1696 I   0  0  0  0  0  0  0  0  0  0  0  0
    3.5413    7.2351   11.8944 Cd  0  0  0  0  0  0  0  0  0  0  0  0
    3.3985    5.1529   10.6555 N   0  0  0  0  0  0  0  0  0  0  0  0
    2.7590    3.2633    9.6935 N   0  0  0  0  0  0  0  0  0  0  0  0
    2.2912    2.3800    9.5752 H   0  0  0  0  0  0  0  0  0  0  0  0
    1.6149    6.8006   13.2836 N   0  0  0  0  0  0  0  0  0  0  0  0
   -0.5307    6.5441   13.7660 N   0  0  0  0  0  0  0  0  0  0  0  0
   -1.5056    6.3323   13.6324 H   0  0  0  0  0  0  0  0  0  0  0  0
    3.9590    5.0971    9.3966 C   0  0  0  0  0  0  0  0  0  0  0  0
    4.7987    5.9913    8.7411 C   0  0  0  0  0  0  0  0  0  0  0  0
    5.1266    6.9075    9.2163 H   0  0  0  0  0  0  0  0  0  0  0  0
    5.2004    5.6597    7.4647 C   0  0  0  0  0  0  0  0  0  0  0  0
    5.8495    6.3305    6.9237 H   0  0  0  0  0  0  0  0  0  0  0  0
    4.7895    4.4753    6.8488 C   0  0  0  0  0  0  0  0  0  0  0  0
    5.1307    4.2604    5.8477 H   0  0  0  0  0  0  0  0  0  0  0  0
    3.9630    3.5727    7.4877 C   0  0  0  0  0  0  0  0  0  0  0  0
    3.6500    2.6553    7.0134 H   0  0  0  0  0  0  0  0  0  0  0  0
    3.5549    3.9003    8.7701 C   0  0  0  0  0  0  0  0  0  0  0  0
    2.7038    4.0538   10.7975 C   0  0  1  0  0  3  0  0  0  0  0  0
    1.9355    3.6653   12.0144 C   0  0  0  0  0  0  0  0  0  0  0  0
    2.0899    4.4327   12.7759 H   0  0  0  0  0  0  0  0  0  0  0  0
    2.3415    2.7243   12.3963 H   0  0  0  0  0  0  0  0  0  0  0  0
    0.4660    3.4837   11.7130 C   0  0  0  0  0  0  0  0  0  0  0  0
   -0.0663    2.2002   11.6958 C   0  0  0  0  0  0  0  0  0  0  0  0
    0.5766    1.3581   11.9118 H   0  0  0  0  0  0  0  0  0  0  0  0
   -1.4039    1.9797   11.4203 C   0  0  0  0  0  0  0  0  0  0  0  0
   -1.7950    0.9739   11.4153 H   0  0  0  0  0  0  0  0  0  0  0  0
   -2.2320    3.0544   11.1527 C   0  0  0  0  0  0  0  0  0  0  0  0
   -3.2772    2.8975   10.9347 H   0  0  0  0  0  0  0  0  0  0  0  0
   -1.7124    4.3363   11.1640 C   0  0  0  0  0  0  0  0  0  0  0  0
   -2.3595    5.1739   10.9445 H   0  0  0  0  0  0  0  0  0  0  0  0
   -0.3699    4.5693   11.4363 C   0  0  0  0  0  0  0  0  0  0  0  0
    0.1464    5.9875   11.4362 C   0  0  0  0  0  0  0  0  0  0  0  0
    1.0547    6.0650   10.8375 H   0  0  0  0  0  0  0  0  0  0  0  0
   -0.6031    6.6490   10.9938 H   0  0  0  0  0  0  0  0  0  0  0  0
    0.4399    6.4550   12.8200 C   0  0  2  0  0  3  0  0  0  0  0  0
    0.0599    6.9916   14.9240 C   0  0  0  0  0  0  0  0  0  0  0  0
   -0.4332    7.2705   16.1879 C   0  0  0  0  0  0  0  0  0  0  0  0
   -1.4788    7.1470   16.4245 H   0  0  0  0  0  0  0  0  0  0  0  0
    0.4764    7.7163   17.1259 C   0  0  0  0  0  0  0  0  0  0  0  0
    0.1350    7.9479   18.1233 H   0  0  0  0  0  0  0  0  0  0  0  0
    1.8289    7.8778   16.8175 C   0  0  0  0  0  0  0  0  0  0  0  0
    2.5005    8.2296   17.5853 H   0  0  0  0  0  0  0  0  0  0  0  0
    2.3269    7.6016   15.5616 C   0  0  0  0  0  0  0  0  0  0  0  0
    3.3744    7.7271   15.3313 H   0  0  0  0  0  0  0  0  0  0  0  0
    1.4241    7.1528   14.6036 C   0  0  0  0  0  0  0  0  0  0  0  0
  2  3  1  0  0  0  0
  3  1  1  0  0  0  0
  3  7  1  0  0  0  0
  4 20  1  0  0  0  0
  4  3  1  0  0  0  0
  6  5  1  0  0  0  0
  7 47  1  0  0  0  0
  8 38  1  0  0  0  0
  9  8  1  0  0  0  0
 10  4  1  0  0  0  0
 11 12  1  0  0  0  0
 11 10  2  0  0  0  0
 13 11  1  0  0  0  0
 14 13  1  0  0  0  0
 15 13  2  0  0  0  0
 15 17  1  0  0  0  0
 16 15  1  0  0  0  0
 17 19  2  0  0  0  0
 18 17  1  0  0  0  0
 19 10  1  0  0  0  0
 19  5  1  0  0  0  0
 20  5  1  1  0  0  0
 20 21  1  0  0  0  0
 21 23  1  0  0  0  0
 21 22  1  0  0  0  0
 24 21  1  0  0  0  0
 25 24  1  0  0  0  0
 25 26  1  0  0  0  0
 27 25  2  0  0  0  0
 28 27  1  0  0  0  0
 29 31  2  0  0  0  0
 29 27  1  0  0  0  0
 30 29  1  0  0  0  0
 31 33  1  0  0  0  0
 32 31  1  0  0  0  0
 33 24  2  0  0  0  0
 34 33  1  0  0  0  0
 35 34  1  0  0  0  0
 36 34  1  0  0  0  0
 37 34  1  1  0  0  0
 37  7  1  0  0  0  0
 37  8  1  0  0  0  0
 38 39  1  0  0  0  0
 39 40  1  0  0  0  0
 39 41  2  0  0  0  0
 41 42  1  0  0  0  0
 43 41  1  0  0  0  0
 43 44  1  0  0  0  0
 45 43  2  0  0  0  0
 46 45  1  0  0  0  0
 47 38  2  0  0  0  0
 47 45  1  0  0  0  0
M  END
$$$$
