CSD_code = FUFBUD | q = 0 | S = 0 | Stoichiometry = C20H26Cl2O2PdS2 | MND = 4
 OpenBabel04212202043D

 53 55  0  0  0  0  0  0  0  0999 V2000
    2.7781    3.7502    6.9752 Pd  0  0  0  0  0  0  0  0  0  0  0  0
    3.8508    5.4803    5.9151 Cl  0  0  0  0  0  0  0  0  0  0  0  0
    1.7669    2.0008    8.1129 Cl  0  0  0  0  0  0  0  0  0  0  0  0
    2.6131    2.6839    4.9425 S   0  0  1  0  0  3  0  0  0  0  0  0
    2.9820    4.7010    9.0768 S   0  0  2  0  0  3  0  0  0  0  0  0
    0.1554    3.8173    4.4036 O   0  0  0  0  0  0  0  0  0  0  0  0
    0.4912    5.2922    6.9682 O   0  0  0  0  0  0  0  0  0  0  0  0
    5.2502    2.2689    7.1855 C   0  0  0  0  0  0  0  0  0  0  0  0
    4.5570    1.8277    7.9019 H   0  0  0  0  0  0  0  0  0  0  0  0
    6.3568    2.9692    7.6411 C   0  0  0  0  0  0  0  0  0  0  0  0
    6.4931    3.1304    8.7006 H   0  0  0  0  0  0  0  0  0  0  0  0
    7.2899    3.4576    6.7404 C   0  0  0  0  0  0  0  0  0  0  0  0
    8.1469    4.0050    7.1013 H   0  0  0  0  0  0  0  0  0  0  0  0
    7.1224    3.2450    5.3838 C   0  0  0  0  0  0  0  0  0  0  0  0
    7.8458    3.6305    4.6809 H   0  0  0  0  0  0  0  0  0  0  0  0
    6.0196    2.5480    4.9210 C   0  0  0  0  0  0  0  0  0  0  0  0
    5.8796    2.3960    3.8603 H   0  0  0  0  0  0  0  0  0  0  0  0
    5.0801    2.0498    5.8143 C   0  0  0  0  0  0  0  0  0  0  0  0
    3.8454    1.3620    5.3173 C   0  0  0  0  0  0  0  0  0  0  0  0
    3.4087    0.7172    6.0811 H   0  0  0  0  0  0  0  0  0  0  0  0
    4.0209    0.8104    4.3933 H   0  0  0  0  0  0  0  0  0  0  0  0
    1.0642    1.7245    4.9714 C   0  0  0  0  0  0  0  0  0  0  0  0
    0.9374    1.2949    3.9782 H   0  0  0  0  0  0  0  0  0  0  0  0
    1.1228    0.9545    5.7379 H   0  0  0  0  0  0  0  0  0  0  0  0
   -0.0292    2.7250    5.2888 C   0  0  0  0  0  0  0  0  0  0  0  0
   -1.0255    2.2793    5.1423 H   0  0  0  0  0  0  0  0  0  0  0  0
    0.0717    3.0482    6.3344 H   0  0  0  0  0  0  0  0  0  0  0  0
   -0.5019    5.0021    4.7797 C   0  0  0  0  0  0  0  0  0  0  0  0
   -1.4579    4.7704    5.2667 H   0  0  0  0  0  0  0  0  0  0  0  0
   -0.6932    5.5480    3.8511 H   0  0  0  0  0  0  0  0  0  0  0  0
    0.3354    5.9036    5.6928 C   0  0  0  0  0  0  0  0  0  0  0  0
    1.3242    6.0739    5.2426 H   0  0  0  0  0  0  0  0  0  0  0  0
   -0.1895    6.8627    5.8070 H   0  0  0  0  0  0  0  0  0  0  0  0
    0.8794    6.2045    7.9734 C   0  0  0  0  0  0  0  0  0  0  0  0
    0.0219    6.8481    8.2347 H   0  0  0  0  0  0  0  0  0  0  0  0
    1.6978    6.8438    7.6108 H   0  0  0  0  0  0  0  0  0  0  0  0
    1.3080    5.4179    9.2047 C   0  0  0  0  0  0  0  0  0  0  0  0
    0.6412    4.5636    9.3400 H   0  0  0  0  0  0  0  0  0  0  0  0
    1.2926    6.0450   10.0964 H   0  0  0  0  0  0  0  0  0  0  0  0
    3.9720    6.2487    9.0797 C   0  0  0  0  0  0  0  0  0  0  0  0
    3.8999    6.7061    8.0931 H   0  0  0  0  0  0  0  0  0  0  0  0
    3.5188    6.8840    9.8437 H   0  0  0  0  0  0  0  0  0  0  0  0
    5.3998    5.9511    9.4095 C   0  0  0  0  0  0  0  0  0  0  0  0
    6.4090    6.3043    8.5244 C   0  0  0  0  0  0  0  0  0  0  0  0
    6.1525    6.7528    7.5766 H   0  0  0  0  0  0  0  0  0  0  0  0
    7.7340    6.0762    8.8535 C   0  0  0  0  0  0  0  0  0  0  0  0
    8.5142    6.3736    8.1680 H   0  0  0  0  0  0  0  0  0  0  0  0
    8.0597    5.4713   10.0551 C   0  0  0  0  0  0  0  0  0  0  0  0
    9.0937    5.2886   10.3087 H   0  0  0  0  0  0  0  0  0  0  0  0
    7.0547    5.0958   10.9319 C   0  0  0  0  0  0  0  0  0  0  0  0
    7.3034    4.6159   11.8672 H   0  0  0  0  0  0  0  0  0  0  0  0
    5.7316    5.3405   10.6140 C   0  0  0  0  0  0  0  0  0  0  0  0
    4.9462    5.0517   11.2980 H   0  0  0  0  0  0  0  0  0  0  0  0
  1  3  1  0  0  0  0
  1  5  1  0  0  0  0
  2  1  1  0  0  0  0
  4 22  1  0  0  0  0
  4 19  1  1  0  0  0
  4  1  1  0  0  0  0
  5 40  1  6  0  0  0
  5 37  1  0  0  0  0
  6 28  1  0  0  0  0
  6 25  1  0  0  0  0
  7 34  1  0  0  0  0
  8 10  1  0  0  0  0
  8  9  1  0  0  0  0
 10 11  1  0  0  0  0
 12 13  1  0  0  0  0
 12 10  2  0  0  0  0
 14 12  1  0  0  0  0
 15 14  1  0  0  0  0
 16 14  2  0  0  0  0
 16 18  1  0  0  0  0
 17 16  1  0  0  0  0
 18  8  2  0  0  0  0
 19 18  1  0  0  0  0
 19 20  1  0  0  0  0
 21 19  1  0  0  0  0
 22 25  1  0  0  0  0
 22 24  1  0  0  0  0
 23 22  1  0  0  0  0
 25 27  1  0  0  0  0
 26 25  1  0  0  0  0
 28 29  1  0  0  0  0
 28 31  1  0  0  0  0
 30 28  1  0  0  0  0
 31 33  1  0  0  0  0
 31  7  1  0  0  0  0
 32 31  1  0  0  0  0
 34 35  1  0  0  0  0
 34 37  1  0  0  0  0
 36 34  1  0  0  0  0
 37 38  1  0  0  0  0
 37 39  1  0  0  0  0
 40 43  1  0  0  0  0
 40 42  1  0  0  0  0
 41 40  1  0  0  0  0
 43 52  1  0  0  0  0
 44 46  1  0  0  0  0
 44 43  2  0  0  0  0
 45 44  1  0  0  0  0
 46 48  2  0  0  0  0
 47 46  1  0  0  0  0
 48 49  1  0  0  0  0
 48 50  1  0  0  0  0
 50 51  1  0  0  0  0
 52 50  2  0  0  0  0
 52 53  1  0  0  0  0
M  END
$$$$
