CSD_code = FUFCOY | q = 0 | S = 0 | Stoichiometry = C7H9Br4NTi | MND = 5
 OpenBabel04212202043D

 22 22  0  0  1  0  0  0  0  0999 V2000
    5.5026    9.4382    5.5546 Ti  0  0  0  0  0  0  0  0  0  0  0  0
    4.1929    9.1085    7.6184 Br  0  0  0  0  0  0  0  0  0  0  0  0
    3.9651   10.9880    4.5794 Br  0  0  0  0  0  0  0  0  0  0  0  0
    5.5025    7.3508    5.5549 N   0  0  0  0  0  0  0  0  0  0  0  0
    4.5212    6.6815    4.9299 C   0  0  1  0  0  3  0  0  0  0  0  0
    3.4549    7.4814    4.2512 C   0  0  0  0  0  0  0  0  0  0  0  0
    2.9279    8.1166    4.9744 H   0  0  0  0  0  0  0  0  0  0  0  0
    2.7253    6.8213    3.7888 H   0  0  0  0  0  0  0  0  0  0  0  0
    3.8865    8.1140    3.4651 H   0  0  0  0  0  0  0  0  0  0  0  0
    4.4978    5.2926    4.9145 C   0  0  0  0  0  0  0  0  0  0  0  0
    3.6988    4.7790    4.4050 H   0  0  0  0  0  0  0  0  0  0  0  0
    5.5026    4.5883    5.5548 C   0  0  0  0  0  0  0  0  0  0  0  0
    5.5026    3.5096    5.5547 H   0  0  0  0  0  0  0  0  0  0  0  0
    6.8125    9.1093    3.4907 Br  0  0  0  0  0  0  0  0  0  0  0  0
    7.0402   10.9880    6.5298 Br  0  0  0  0  0  0  0  0  0  0  0  0
    6.5073    5.2926    6.1950 C   0  0  0  0  0  0  0  0  0  0  0  0
    6.4838    6.6815    6.1797 C   0  0  0  0  0  0  0  0  0  0  0  0
    7.5502    7.4815    6.8582 C   0  0  0  0  0  0  0  0  0  0  0  0
    8.0771    8.1167    6.1350 H   0  0  0  0  0  0  0  0  0  0  0  0
    8.2799    6.8213    7.3205 H   0  0  0  0  0  0  0  0  0  0  0  0
    7.1187    8.1139    7.6444 H   0  0  0  0  0  0  0  0  0  0  0  0
    7.3063    4.7790    6.7045 H   0  0  0  0  0  0  0  0  0  0  0  0
  1  4  1  0  0  0  0
  1 15  1  0  0  0  0
  1  2  1  0  0  0  0
  3  1  1  0  0  0  0
  4 17  1  0  0  0  0
  5  6  1  6  0  0  0
  5  4  1  0  0  0  0
  6  7  1  0  0  0  0
  8  6  1  0  0  0  0
  9  6  1  0  0  0  0
 10  5  1  0  0  0  0
 10 12  2  0  0  0  0
 11 10  1  0  0  0  0
 12 16  1  0  0  0  0
 13 12  1  0  0  0  0
 14  1  1  0  0  0  0
 16 22  1  0  0  0  0
 17 16  2  0  0  0  0
 17 18  1  0  0  0  0
 18 20  1  0  0  0  0
 18 21  1  0  0  0  0
 19 18  1  0  0  0  0
M  END
$$$$
