CSD_code = FUFCUF | q = 0 | S = 0 | Stoichiometry = C12H16Cl2N6PtS | MND = 4
 OpenBabel04212202043D

 38 40  0  0  1  0  0  0  0  0999 V2000
    6.5929    1.5038    2.2788 Pt  0  0  0  0  0  0  0  0  0  0  0  0
    5.6696   -0.4807    1.7586 Cl  0  0  0  0  0  0  0  0  0  0  0  0
    4.5838    2.4926    2.5585 Cl  0  0  0  0  0  0  0  0  0  0  0  0
    8.8719    2.9657    0.4700 S   0  0  0  0  0  0  0  0  0  0  0  0
    7.4870    3.3654    2.7513 N   0  0  0  0  0  0  0  0  0  0  0  0
    6.5981    5.4985    3.2684 N   0  0  0  0  0  0  0  0  0  0  0  0
    7.7318    5.1422    1.2255 N   0  0  0  0  0  0  0  0  0  0  0  0
    8.4046    0.7764    2.0228 N   0  0  0  0  0  0  0  0  0  0  0  0
    6.5641    3.8249    4.8297 N   0  0  0  0  0  0  0  0  0  0  0  0
    6.6666    7.1300    1.6537 N   0  0  0  0  0  0  0  0  0  0  0  0
    6.8533    4.2368    3.5953 C   0  0  2  0  0  3  0  0  0  0  0  0
    6.9853    5.9047    2.0606 C   0  0  0  0  0  0  0  0  0  0  0  0
    7.9071    3.9130    1.6147 C   0  0  0  0  0  0  0  0  0  0  0  0
    9.3182    1.4712    1.3336 C   0  0  1  0  0  3  0  0  0  0  0  0
   10.6248    1.0288    1.1771 C   0  0  0  0  0  0  0  0  0  0  0  0
   11.0030   -0.1722    1.7521 C   0  0  0  0  0  0  0  0  0  0  0  0
   10.0538   -0.8876    2.4713 C   0  0  0  0  0  0  0  0  0  0  0  0
    8.7748   -0.3814    2.5833 C   0  0  0  0  0  0  0  0  0  0  0  0
    6.8304    2.4715    5.2558 C   0  0  0  0  0  0  0  0  0  0  0  0
    5.6539    4.5852    5.6510 C   0  0  0  0  0  0  0  0  0  0  0  0
    5.8586    8.0068    2.4601 C   0  0  0  0  0  0  0  0  0  0  0  0
    7.0621    7.6254    0.3606 C   0  0  0  0  0  0  0  0  0  0  0  0
   11.3149    1.6257    0.6035 H   0  0  0  0  0  0  0  0  0  0  0  0
   12.0106   -0.5398    1.6400 H   0  0  0  0  0  0  0  0  0  0  0  0
   10.2982   -1.8301    2.9331 H   0  0  0  0  0  0  0  0  0  0  0  0
    7.9955   -0.9165    3.1101 H   0  0  0  0  0  0  0  0  0  0  0  0
    6.1173    1.7611    4.8089 H   0  0  0  0  0  0  0  0  0  0  0  0
    7.8468    2.1860    4.9786 H   0  0  0  0  0  0  0  0  0  0  0  0
    6.7352    2.4280    6.3388 H   0  0  0  0  0  0  0  0  0  0  0  0
    4.6717    4.1067    5.6580 H   0  0  0  0  0  0  0  0  0  0  0  0
    6.0392    4.6414    6.6697 H   0  0  0  0  0  0  0  0  0  0  0  0
    5.5622    5.5841    5.2366 H   0  0  0  0  0  0  0  0  0  0  0  0
    5.6005    7.4957    3.3826 H   0  0  0  0  0  0  0  0  0  0  0  0
    6.4120    8.9212    2.6874 H   0  0  0  0  0  0  0  0  0  0  0  0
    4.9458    8.2727    1.9227 H   0  0  0  0  0  0  0  0  0  0  0  0
    6.1787    7.8298   -0.2488 H   0  0  0  0  0  0  0  0  0  0  0  0
    7.6305    8.5510    0.4769 H   0  0  0  0  0  0  0  0  0  0  0  0
    7.6765    6.8765   -0.1311 H   0  0  0  0  0  0  0  0  0  0  0  0
  1  3  1  0  0  0  0
  1  5  1  0  0  0  0
  2  1  1  0  0  0  0
  4 13  1  0  0  0  0
  5 11  1  0  0  0  0
  6 11  1  0  0  0  0
  7 13  2  0  0  0  0
  7 12  1  0  0  0  0
  8  1  1  0  0  0  0
  8 18  1  0  0  0  0
  9 19  1  0  0  0  0
  9 20  1  0  0  0  0
 10 12  1  0  0  0  0
 10 21  1  0  0  0  0
 11  9  1  1  0  0  0
 12  6  2  0  0  0  0
 13  5  1  0  0  0  0
 14  4  1  6  0  0  0
 14  8  1  0  0  0  0
 15 14  1  0  0  0  0
 15 16  2  0  0  0  0
 16 17  1  0  0  0  0
 17 18  2  0  0  0  0
 17 25  1  0  0  0  0
 18 26  1  0  0  0  0
 19 29  1  0  0  0  0
 20 30  1  0  0  0  0
 20 31  1  0  0  0  0
 21 34  1  0  0  0  0
 21 33  1  0  0  0  0
 22 37  1  0  0  0  0
 22 10  1  0  0  0  0
 23 15  1  0  0  0  0
 24 16  1  0  0  0  0
 27 19  1  0  0  0  0
 28 19  1  0  0  0  0
 32 20  1  0  0  0  0
 35 21  1  0  0  0  0
 36 22  1  0  0  0  0
 38 22  1  0  0  0  0
M  END
$$$$
