CSD_code = FUFJAR | q = 1 | S = 0 | Stoichiometry = C10H24Cl2N4Rh(1+) | MND = 6
 OpenBabel04212202043D

 41 44  0  0  1  0  0  0  0  0999 V2000
    3.0760    3.4499   13.0078 Rh  0  0  0  0  0  0  0  0  0  0  0  0
    3.9767    5.1501   11.7930 Cl  0  0  0  0  0  0  0  0  0  0  0  0
    4.7058    2.1150   12.1478 Cl  0  0  0  0  0  0  0  0  0  0  0  0
    1.7591    3.1268   11.4527 N   0  0  1  0  0  4  0  0  0  0  0  0
    2.4015    1.7339   14.1167 N   0  0  1  0  0  4  0  0  0  0  0  0
    4.2879    3.7578   14.6491 N   0  0  2  0  0  4  0  0  0  0  0  0
    1.5867    4.8536   13.6723 N   0  0  1  0  0  4  0  0  0  0  0  0
    1.5126    1.7252   11.0758 C   0  0  0  0  0  0  0  0  0  0  0  0
    1.0340    0.8386   12.2306 C   0  0  0  0  0  0  0  0  0  0  0  0
    2.1017    0.5586   13.2867 C   0  0  0  0  0  0  0  0  0  0  0  0
    3.4996    1.4660   15.0605 C   0  0  0  0  0  0  0  0  0  0  0  0
    3.9476    2.7779   15.6991 C   0  0  0  0  0  0  0  0  0  0  0  0
    4.3690    5.1356   15.1612 C   0  0  0  0  0  0  0  0  0  0  0  0
    3.0125    5.7575   15.5106 C   0  0  0  0  0  0  0  0  0  0  0  0
    2.1357    6.0649   14.2980 C   0  0  0  0  0  0  0  0  0  0  0  0
    0.8265    5.1703   12.4516 C   0  0  0  0  0  0  0  0  0  0  0  0
    0.5132    3.8779   11.7025 C   0  0  0  0  0  0  0  0  0  0  0  0
    2.2418    3.5786   10.6689 H   0  0  0  0  0  0  0  0  0  0  0  0
    1.5621    1.9521   14.6579 H   0  0  0  0  0  0  0  0  0  0  0  0
    5.2118    3.5094   14.2800 H   0  0  0  0  0  0  0  0  0  0  0  0
    0.9475    4.4217   14.3428 H   0  0  0  0  0  0  0  0  0  0  0  0
    0.7637    1.6943   10.2757 H   0  0  0  0  0  0  0  0  0  0  0  0
    2.4482    1.3151   10.6895 H   0  0  0  0  0  0  0  0  0  0  0  0
    0.7466   -0.1190   11.7955 H   0  0  0  0  0  0  0  0  0  0  0  0
    0.1407    1.2530   12.7030 H   0  0  0  0  0  0  0  0  0  0  0  0
    3.0277    0.2629   12.7899 H   0  0  0  0  0  0  0  0  0  0  0  0
    1.7672   -0.2677   13.9254 H   0  0  0  0  0  0  0  0  0  0  0  0
    3.1967    0.7508   15.8335 H   0  0  0  0  0  0  0  0  0  0  0  0
    4.3266    1.0395   14.4879 H   0  0  0  0  0  0  0  0  0  0  0  0
    3.1353    3.1829   16.3085 H   0  0  0  0  0  0  0  0  0  0  0  0
    4.8058    2.5986   16.3549 H   0  0  0  0  0  0  0  0  0  0  0  0
    5.0027    5.1500   16.0557 H   0  0  0  0  0  0  0  0  0  0  0  0
    4.8429    5.7491   14.3919 H   0  0  0  0  0  0  0  0  0  0  0  0
    3.2186    6.7035   16.0122 H   0  0  0  0  0  0  0  0  0  0  0  0
    2.4636    5.1351   16.2207 H   0  0  0  0  0  0  0  0  0  0  0  0
    2.7344    6.5806   13.5449 H   0  0  0  0  0  0  0  0  0  0  0  0
    1.3155    6.7245   14.6059 H   0  0  0  0  0  0  0  0  0  0  0  0
   -0.0992    5.7082   12.6854 H   0  0  0  0  0  0  0  0  0  0  0  0
    1.4585    5.8076   11.8285 H   0  0  0  0  0  0  0  0  0  0  0  0
    0.0038    4.1077   10.7609 H   0  0  0  0  0  0  0  0  0  0  0  0
   -0.1558    3.2592   12.3065 H   0  0  0  0  0  0  0  0  0  0  0  0
  1  7  1  0  0  0  0
  1  5  1  0  0  0  0
  1  6  1  0  0  0  0
  2  1  1  0  0  0  0
  3  1  1  0  0  0  0
  4 18  1  6  0  0  0
  4 17  1  0  0  0  0
  4  1  1  0  0  0  0
  5 19  1  1  0  0  0
  5 11  1  0  0  0  0
  6 20  1  6  0  0  0
  6 13  1  0  0  0  0
  6 12  1  0  0  0  0
  7 15  1  0  0  0  0
  7 21  1  1  0  0  0
  8  4  1  0  0  0  0
  8  9  1  0  0  0  0
  9 25  1  0  0  0  0
  9 10  1  0  0  0  0
 10 27  1  0  0  0  0
 10  5  1  0  0  0  0
 11 12  1  0  0  0  0
 11 28  1  0  0  0  0
 12 30  1  0  0  0  0
 12 31  1  0  0  0  0
 13 14  1  0  0  0  0
 13 32  1  0  0  0  0
 14 34  1  0  0  0  0
 14 35  1  0  0  0  0
 15 37  1  0  0  0  0
 15 14  1  0  0  0  0
 16 38  1  0  0  0  0
 16  7  1  0  0  0  0
 17 41  1  0  0  0  0
 17 16  1  0  0  0  0
 22  8  1  0  0  0  0
 23  8  1  0  0  0  0
 24  9  1  0  0  0  0
 26 10  1  0  0  0  0
 29 11  1  0  0  0  0
 33 13  1  0  0  0  0
 36 15  1  0  0  0  0
 39 16  1  0  0  0  0
 40 17  1  0  0  0  0
M  END
$$$$
