CSD_code = FUFMUQ | q = 0 | S = 0 | Stoichiometry = C8H12I2N4Pd | MND = 4
 OpenBabel04212202043D

 27 28  0  0  0  0  0  0  0  0999 V2000
    0.1712    9.1439    5.4373 C   0  0  0  0  0  0  0  0  0  0  0  0
   -0.6646    9.2114    6.1120 H   0  0  0  0  0  0  0  0  0  0  0  0
    0.4484    8.0096    4.7423 N   0  0  0  0  0  0  0  0  0  0  0  0
    1.5260    8.2495    4.0277 C   0  0  0  0  0  3  0  0  0  0  0  0
    1.9977    7.5521    3.3567 H   0  0  0  0  0  0  0  0  0  0  0  0
    1.1111   10.0821    5.1265 C   0  0  0  0  0  0  0  0  0  0  0  0
    1.2341   11.0895    5.4656 H   0  0  0  0  0  0  0  0  0  0  0  0
    1.9653    9.5023    4.2367 N   0  0  0  0  0  0  0  0  0  0  0  0
    3.0959   10.1304    3.6142 C   0  0  0  0  0  0  0  0  0  0  0  0
    2.7658   10.8396    2.8517 H   0  0  0  0  0  0  0  0  0  0  0  0
    3.7190    9.3722    3.1435 H   0  0  0  0  0  0  0  0  0  0  0  0
    3.6834   10.6647    4.3614 H   0  0  0  0  0  0  0  0  0  0  0  0
   -0.1479    6.0486    7.3179 I   0  0  0  0  0  0  0  0  0  0  0  0
   -0.6101    6.3384    4.7557 Pd  0  0  0  0  0  0  0  0  0  0  0  0
   -1.3915    3.5331    4.0737 C   0  0  0  0  0  0  0  0  0  0  0  0
   -0.5557    3.4656    3.3991 H   0  0  0  0  0  0  0  0  0  0  0  0
   -1.6688    4.6672    4.7689 N   0  0  0  0  0  0  0  0  0  0  0  0
   -2.7464    4.4273    5.4834 C   0  0  0  0  0  3  0  0  0  0  0  0
   -3.2181    5.1246    6.1545 H   0  0  0  0  0  0  0  0  0  0  0  0
   -2.3315    2.5948    4.3844 C   0  0  0  0  0  0  0  0  0  0  0  0
   -2.4545    1.5875    4.0451 H   0  0  0  0  0  0  0  0  0  0  0  0
   -3.1858    3.1745    5.2742 N   0  0  0  0  0  0  0  0  0  0  0  0
   -4.3163    2.5463    5.8966 C   0  0  0  0  0  0  0  0  0  0  0  0
   -3.9861    1.8370    6.6590 H   0  0  0  0  0  0  0  0  0  0  0  0
   -4.9394    3.3044    6.3674 H   0  0  0  0  0  0  0  0  0  0  0  0
   -4.9038    2.0121    5.1494 H   0  0  0  0  0  0  0  0  0  0  0  0
   -1.0729    6.6282    2.1931 I   0  0  0  0  0  0  0  0  0  0  0  0
  1  2  1  0  0  0  0
  3 14  1  0  0  0  0
  3  1  1  0  0  0  0
  4  8  1  0  0  0  0
  4  3  1  0  0  0  0
  5  4  1  0  0  0  0
  6  1  2  0  0  0  0
  6  7  1  0  0  0  0
  8  6  1  0  0  0  0
  9  8  1  0  0  0  0
  9 12  1  0  0  0  0
 10  9  1  0  0  0  0
 11  9  1  0  0  0  0
 14 17  1  0  0  0  0
 14 13  1  0  0  0  0
 15 20  2  0  0  0  0
 15 17  1  0  0  0  0
 16 15  1  0  0  0  0
 17 18  1  0  0  0  0
 18 19  1  0  0  0  0
 20 22  1  0  0  0  0
 21 20  1  0  0  0  0
 22 18  1  0  0  0  0
 22 23  1  0  0  0  0
 23 25  1  0  0  0  0
 23 24  1  0  0  0  0
 26 23  1  0  0  0  0
 27 14  1  0  0  0  0
M  END
$$$$
