CSD_code = FUGJEX | q = 0 | S = 0 | Stoichiometry = C6H18Cl2O6P2Pd | MND = 4
 OpenBabel04212202043D

 35 34  0  0  0  0  0  0  0  0999 V2000
    2.4950    1.8648    5.9674 Pd  0  0  0  0  0  0  0  0  0  0  0  0
    2.5895    3.8953    4.9897 Cl  0  0  0  0  0  0  0  0  0  0  0  0
    0.8382    1.1921    4.5928 Cl  0  0  0  0  0  0  0  0  0  0  0  0
    2.4302   -0.1766    6.8864 P   0  0  0  0  0  4  0  0  0  0  0  0
    4.0997    2.5773    7.3579 P   0  0  0  0  0  4  0  0  0  0  0  0
    3.6269   -1.0232    6.2448 O   0  0  0  0  0  0  0  0  0  0  0  0
    1.2706   -1.2824    6.7312 O   0  0  0  0  0  0  0  0  0  0  0  0
    2.7886   -0.2059    8.4480 O   0  0  0  0  0  0  0  0  0  0  0  0
    5.0947    1.4256    7.8606 O   0  0  0  0  0  0  0  0  0  0  0  0
    3.3879    3.0313    8.7167 O   0  0  0  0  0  0  0  0  0  0  0  0
    5.0543    3.8596    7.1680 O   0  0  0  0  0  0  0  0  0  0  0  0
    3.9108   -0.8199    4.8636 C   0  0  0  0  0  0  0  0  0  0  0  0
   -0.0891   -0.9576    6.9989 C   0  0  0  0  0  0  0  0  0  0  0  0
    3.1575   -1.4263    9.0867 C   0  0  0  0  0  0  0  0  0  0  0  0
    5.9082    1.6223    9.0151 C   0  0  0  0  0  0  0  0  0  0  0  0
    2.1216    3.6764    8.6140 C   0  0  0  0  0  0  0  0  0  0  0  0
    5.7983    4.0389    5.9680 C   0  0  0  0  0  0  0  0  0  0  0  0
    4.8733   -1.2918    4.6700 H   0  0  0  0  0  0  0  0  0  0  0  0
    3.9730    0.2639    4.6272 H   0  0  0  0  0  0  0  0  0  0  0  0
    3.1364   -1.2760    4.2430 H   0  0  0  0  0  0  0  0  0  0  0  0
   -0.2231   -0.6755    8.0455 H   0  0  0  0  0  0  0  0  0  0  0  0
   -0.6640   -1.8557    6.7796 H   0  0  0  0  0  0  0  0  0  0  0  0
   -0.4131   -0.1420    6.3484 H   0  0  0  0  0  0  0  0  0  0  0  0
    2.9734   -1.2913   10.1519 H   0  0  0  0  0  0  0  0  0  0  0  0
    4.2138   -1.6277    8.9108 H   0  0  0  0  0  0  0  0  0  0  0  0
    2.5636   -2.2578    8.7050 H   0  0  0  0  0  0  0  0  0  0  0  0
    6.2829    2.6460    9.0547 H   0  0  0  0  0  0  0  0  0  0  0  0
    6.7385    0.9214    8.9374 H   0  0  0  0  0  0  0  0  0  0  0  0
    5.3263    1.4169    9.9131 H   0  0  0  0  0  0  0  0  0  0  0  0
    2.2393    4.6904    8.2256 H   0  0  0  0  0  0  0  0  0  0  0  0
    1.7040    3.7057    9.6195 H   0  0  0  0  0  0  0  0  0  0  0  0
    1.4411    3.1083    7.9444 H   0  0  0  0  0  0  0  0  0  0  0  0
    6.3316    4.9815    6.0795 H   0  0  0  0  0  0  0  0  0  0  0  0
    5.1199    4.0954    5.1134 H   0  0  0  0  0  0  0  0  0  0  0  0
    6.5101    3.2227    5.8255 H   0  0  0  0  0  0  0  0  0  0  0  0
  1  4  1  0  0  0  0
  1  5  1  0  0  0  0
  2  1  1  0  0  0  0
  3  1  1  0  0  0  0
  4  8  1  0  0  0  0
  5  9  1  0  0  0  0
  5 10  1  0  0  0  0
  6  4  1  0  0  0  0
  7  4  1  0  0  0  0
  7 13  1  0  0  0  0
  8 14  1  0  0  0  0
  9 15  1  0  0  0  0
 11  5  1  0  0  0  0
 12  6  1  0  0  0  0
 13 21  1  0  0  0  0
 14 24  1  0  0  0  0
 15 27  1  0  0  0  0
 15 29  1  0  0  0  0
 16 10  1  0  0  0  0
 16 31  1  0  0  0  0
 17 33  1  0  0  0  0
 17 11  1  0  0  0  0
 18 12  1  0  0  0  0
 19 12  1  0  0  0  0
 20 12  1  0  0  0  0
 22 13  1  0  0  0  0
 23 13  1  0  0  0  0
 25 14  1  0  0  0  0
 26 14  1  0  0  0  0
 28 15  1  0  0  0  0
 30 16  1  0  0  0  0
 32 16  1  0  0  0  0
 34 17  1  0  0  0  0
 35 17  1  0  0  0  0
M  END
$$$$
