CSD_code = FUGKEX | q = 0 | S = 0 | Stoichiometry = C14H14Cl2F4O2P2Pt | MND = 4
 OpenBabel04212202043D

 39 40  0  0  0  0  0  0  0  0999 V2000
    1.6659    2.0267    2.9858 Pt  0  0  0  0  0  0  0  0  0  0  0  0
    0.3447    3.9254    2.8908 Cl  0  0  0  0  0  0  0  0  0  0  0  0
    0.2588    0.4285    3.8929 Cl  0  0  0  0  0  0  0  0  0  0  0  0
    2.7165    0.0408    3.0368 P   0  0  0  0  0  4  0  0  0  0  0  0
    2.9920   -0.6852    4.4278 F   0  0  0  0  0  0  0  0  0  0  0  0
    4.2813   -0.0801    2.6093 F   0  0  0  0  0  0  0  0  0  0  0  0
    2.0320   -1.2828    2.0309 C   0  0  0  0  0  0  0  0  0  0  0  0
    1.5217   -0.8558    0.8006 C   0  0  0  0  0  0  0  0  0  0  0  0
    1.6999    0.4673    0.5559 O   0  0  0  0  0  0  0  0  0  0  0  0
    0.9101   -1.7764   -0.0383 C   0  0  0  0  0  0  0  0  0  0  0  0
    0.8219   -3.1013    0.3622 C   0  0  0  0  0  0  0  0  0  0  0  0
    1.3289   -3.5197    1.5804 C   0  0  0  0  0  0  0  0  0  0  0  0
    1.9326   -2.6038    2.4263 C   0  0  0  0  0  0  0  0  0  0  0  0
    1.1674    1.0250   -0.6311 C   0  0  0  0  0  0  0  0  0  0  0  0
    2.8896    3.7622    2.2496 P   0  0  0  0  0  4  0  0  0  0  0  0
    2.4991    4.4921    0.8880 F   0  0  0  0  0  0  0  0  0  0  0  0
    4.4217    3.5454    1.7456 F   0  0  0  0  0  0  0  0  0  0  0  0
    3.1405    5.1410    3.3762 C   0  0  0  0  0  0  0  0  0  0  0  0
    3.2712    4.7703    4.7186 C   0  0  0  0  0  0  0  0  0  0  0  0
    3.2613    3.4299    4.9301 O   0  0  0  0  0  0  0  0  0  0  0  0
    3.4052    5.7567    5.6855 C   0  0  0  0  0  0  0  0  0  0  0  0
    3.4116    7.0882    5.2978 C   0  0  0  0  0  0  0  0  0  0  0  0
    3.2847    7.4503    3.9678 C   0  0  0  0  0  0  0  0  0  0  0  0
    3.1406    6.4711    2.9989 C   0  0  0  0  0  0  0  0  0  0  0  0
    3.3073    2.9429    6.2584 C   0  0  0  0  0  0  0  0  0  0  0  0
    0.5001   -1.4770   -0.9895 H   0  0  0  0  0  0  0  0  0  0  0  0
    0.3436   -3.8142   -0.2924 H   0  0  0  0  0  0  0  0  0  0  0  0
    1.2466   -4.5539    1.8754 H   0  0  0  0  0  0  0  0  0  0  0  0
    2.3188   -2.9023    3.3887 H   0  0  0  0  0  0  0  0  0  0  0  0
    1.4100    2.0859   -0.5914 H   0  0  0  0  0  0  0  0  0  0  0  0
    0.0820    0.9013   -0.6709 H   0  0  0  0  0  0  0  0  0  0  0  0
    1.6282    0.5757   -1.5153 H   0  0  0  0  0  0  0  0  0  0  0  0
    3.4991    5.5038    6.7294 H   0  0  0  0  0  0  0  0  0  0  0  0
    3.5143    7.8521    6.0537 H   0  0  0  0  0  0  0  0  0  0  0  0
    3.2883    8.4915    3.6865 H   0  0  0  0  0  0  0  0  0  0  0  0
    3.0215    6.7291    1.9578 H   0  0  0  0  0  0  0  0  0  0  0  0
    3.2528    1.8585    6.1752 H   0  0  0  0  0  0  0  0  0  0  0  0
    2.4560    3.3064    6.8398 H   0  0  0  0  0  0  0  0  0  0  0  0
    4.2434    3.2272    6.7472 H   0  0  0  0  0  0  0  0  0  0  0  0
  1  4  1  0  0  0  0
  1  3  1  0  0  0  0
  2  1  1  0  0  0  0
  4  5  1  0  0  0  0
  6  4  1  0  0  0  0
  7 13  1  0  0  0  0
  7  4  1  0  0  0  0
  8  7  2  0  0  0  0
  9  8  1  0  0  0  0
 10 11  2  0  0  0  0
 10  8  1  0  0  0  0
 11 12  1  0  0  0  0
 12 28  1  0  0  0  0
 12 13  2  0  0  0  0
 13 29  1  0  0  0  0
 14 30  1  0  0  0  0
 14  9  1  0  0  0  0
 15  1  1  0  0  0  0
 15 18  1  0  0  0  0
 16 15  1  0  0  0  0
 17 15  1  0  0  0  0
 18 19  1  0  0  0  0
 19 20  1  0  0  0  0
 19 21  2  0  0  0  0
 20 25  1  0  0  0  0
 21 33  1  0  0  0  0
 22 21  1  0  0  0  0
 22 34  1  0  0  0  0
 23 22  2  0  0  0  0
 24 18  2  0  0  0  0
 24 23  1  0  0  0  0
 25 39  1  0  0  0  0
 25 38  1  0  0  0  0
 26 10  1  0  0  0  0
 27 11  1  0  0  0  0
 31 14  1  0  0  0  0
 32 14  1  0  0  0  0
 35 23  1  0  0  0  0
 36 24  1  0  0  0  0
 37 25  1  0  0  0  0
M  END
$$$$
