CSD_code = FUGKAU | q = -1 | S = 0 | Stoichiometry = C8H3ClN2O5Re(1-) | MND = 6
 OpenBabel04212202043D

 20 21  0  0  1  0  0  0  0  0999 V2000
    2.4101    4.5369    4.3989 Re  0  0  0  0  0  0  0  0  0  0  0  0
    2.4972    2.2565    5.0463 Cl  0  0  0  0  0  0  0  0  0  0  0  0
    2.8769    3.0354    1.8985 C   0  0  1  0  0  3  0  0  0  0  0  0
    0.6958    2.6642    1.0445 O   0  0  0  0  0  0  0  0  0  0  0  0
    0.9100    3.8471    2.9198 O   0  0  0  0  0  0  0  0  0  0  0  0
    4.8218    2.1041    0.8932 N   0  0  0  0  0  0  0  0  0  0  0  0
    3.5855    3.7216    2.8004 N   0  0  0  0  0  0  0  0  0  0  0  0
    1.3398    3.1776    1.9502 C   0  0  0  0  0  0  0  0  0  0  0  0
    3.8791    4.9900    5.5735 C   0  0  0  0  0  2  0  0  0  0  0  0
    5.5158    2.7939    1.7902 C   0  0  0  0  0  0  0  0  0  0  0  0
    6.5920    2.6917    1.7476 H   0  0  0  0  0  0  0  0  0  0  0  0
    4.9128    3.6017    2.7385 C   0  0  0  0  0  0  0  0  0  0  0  0
    5.4949    4.1553    3.4641 H   0  0  0  0  0  0  0  0  0  0  0  0
    3.5075    2.2336    0.9533 C   0  0  0  0  0  0  0  0  0  0  0  0
    2.9100    1.6861    0.2379 H   0  0  0  0  0  0  0  0  0  0  0  0
    1.0907    4.8656    5.7920 C   0  0  0  0  0  2  0  0  0  0  0  0
    2.2799    7.3770    3.1856 O   0  0  0  0  0  1  0  0  0  0  0  0
    0.2716    4.9418    6.5909 O   0  0  0  0  0  1  0  0  0  0  0  0
    4.7895    5.2226    6.2470 O   0  0  0  0  0  1  0  0  0  0  0  0
    2.3149    6.3208    3.6484 C   0  0  0  0  0  2  0  0  0  0  0  0
  1  2  1  0  0  0  0
  1  9  1  0  0  0  0
  1 16  1  0  0  0  0
  3 14  1  6  0  0  0
  3  8  1  0  0  0  0
  3  7  1  0  0  0  0
  4  8  2  0  0  0  0
  5  1  1  0  0  0  0
  6 14  2  0  0  0  0
  6 10  1  0  0  0  0
  7  1  1  0  0  0  0
  8  5  1  0  0  0  0
  9 19  1  0  0  0  0
 10 12  2  0  0  0  0
 11 10  1  0  0  0  0
 12  7  1  0  0  0  0
 12 13  1  0  0  0  0
 15 14  1  0  0  0  0
 16 18  1  0  0  0  0
 17 20  1  0  0  0  0
 20  1  1  0  0  0  0
M  END
$$$$
