CSD_code = FUGNOL | q = 0 | S = 0 | Stoichiometry = C18H12Cl2FeN2 | MND = 4
 OpenBabel04212202043D

 35 39  0  0  0  0  0  0  0  0999 V2000
    1.6964   11.5938    0.5080 C   0  0  0  0  0  0  0  0  0  0  0  0
    2.1759   12.1570    1.7035 C   0  0  0  0  0  0  0  0  0  0  0  0
    1.9471   11.6604    2.6430 H   0  0  0  0  0  0  0  0  0  0  0  0
    2.9171   13.3107    1.6806 C   0  0  0  0  0  0  0  0  0  0  0  0
    3.2812   13.7373    2.6027 H   0  0  0  0  0  0  0  0  0  0  0  0
    3.2054   13.9415    0.4657 C   0  0  0  0  0  0  0  0  0  0  0  0
    3.7894   14.8494    0.4630 H   0  0  0  0  0  0  0  0  0  0  0  0
    2.7497   13.4106   -0.7139 C   0  0  0  0  0  3  0  0  0  0  0  0
    2.9690   13.8923   -1.6555 H   0  0  0  0  0  0  0  0  0  0  0  0
    1.9883   12.2305   -0.7250 C   0  0  0  0  0  0  0  0  0  0  0  0
    1.4936   11.6410   -1.9166 C   0  0  0  0  0  0  0  0  0  0  0  0
    1.7072   12.1110   -2.8642 H   0  0  0  0  0  0  0  0  0  0  0  0
    0.7592   10.4959   -1.8448 C   0  0  0  0  0  0  0  0  0  0  0  0
    0.3713   10.0278   -2.7350 H   0  0  0  0  0  0  0  0  0  0  0  0
    0.4962    9.9058   -0.5914 C   0  0  0  0  0  0  0  0  0  0  0  0
   -0.2589    8.7138   -0.3480 C   0  0  0  0  0  0  0  0  0  0  0  0
   -0.8879    7.9024   -1.3146 C   0  0  0  0  0  0  0  0  0  0  0  0
   -0.8108    8.1732   -2.3552 H   0  0  0  0  0  0  0  0  0  0  0  0
   -1.5811    6.7958   -0.9264 C   0  0  0  0  0  0  0  0  0  0  0  0
   -2.0717    6.1605   -1.6476 H   0  0  0  0  0  0  0  0  0  0  0  0
   -1.6624    6.4689    0.4516 C   0  0  0  0  0  0  0  0  0  0  0  0
   -2.3580    5.3476    0.9325 C   0  0  0  0  0  3  0  0  0  0  0  0
   -2.8551    4.7044    0.2212 H   0  0  0  0  0  0  0  0  0  0  0  0
   -2.4067    5.0740    2.2754 C   0  0  0  0  0  0  0  0  0  0  0  0
   -2.9447    4.2098    2.6344 H   0  0  0  0  0  0  0  0  0  0  0  0
   -1.7600    5.9125    3.1897 C   0  0  0  0  0  0  0  0  0  0  0  0
   -1.8044    5.6869    4.2442 H   0  0  0  0  0  0  0  0  0  0  0  0
   -1.0725    7.0155    2.7519 C   0  0  0  0  0  0  0  0  0  0  0  0
   -0.5670    7.6723    3.4553 H   0  0  0  0  0  0  0  0  0  0  0  0
   -1.0089    7.3180    1.3805 C   0  0  0  0  0  0  0  0  0  0  0  0
    0.9600   10.4485    0.5601 N   0  0  0  0  0  0  0  0  0  0  0  0
   -0.3214    8.4219    0.9735 N   0  0  0  0  0  0  0  0  0  0  0  0
    0.5402    9.5709    2.1168 Fe  0  0  0  0  0  0  0  0  0  0  0  0
    2.2848    8.5548    2.5383 Cl  0  0  0  0  0  0  0  0  0  0  0  0
   -1.0166   10.7048    2.8563 Cl  0  0  0  0  0  0  0  0  0  0  0  0
  1 31  1  0  0  0  0
  1  2  2  0  0  0  0
  2  3  1  0  0  0  0
  4  2  1  0  0  0  0
  4  5  1  0  0  0  0
  6  4  2  0  0  0  0
  7  6  1  0  0  0  0
  8  6  1  0  0  0  0
  9  8  1  0  0  0  0
 10  8  1  0  0  0  0
 10  1  1  0  0  0  0
 11 13  1  0  0  0  0
 11 10  2  0  0  0  0
 12 11  1  0  0  0  0
 13 15  2  0  0  0  0
 14 13  1  0  0  0  0
 15 16  1  0  0  0  0
 15 31  1  0  0  0  0
 16 32  1  0  0  0  0
 17 19  1  0  0  0  0
 17 16  2  0  0  0  0
 18 17  1  0  0  0  0
 19 21  2  0  0  0  0
 20 19  1  0  0  0  0
 21 22  1  0  0  0  0
 21 30  1  0  0  0  0
 22 24  1  0  0  0  0
 23 22  1  0  0  0  0
 24 25  1  0  0  0  0
 24 26  2  0  0  0  0
 26 27  1  0  0  0  0
 28 26  1  0  0  0  0
 28 29  1  0  0  0  0
 30 28  2  0  0  0  0
 31 33  1  0  0  0  0
 32 30  1  0  0  0  0
 32 33  1  0  0  0  0
 33 34  1  0  0  0  0
 33 35  1  0  0  0  0
M  END
$$$$
