CSD_code = FUGQOP | q = 0 | S = 0 | Stoichiometry = C26H27Cl6N4Ta | MND = 6
 OpenBabel04212202043D

 64 66  0  0  1  0  0  0  0  0999 V2000
    5.1322    7.9694    3.9841 C   0  0  0  0  0  0  0  0  0  0  0  0
    5.6775    8.9289    2.9103 C   0  0  0  0  0  0  0  0  0  0  0  0
    5.7131    8.4142    1.9533 H   0  0  0  0  0  0  0  0  0  0  0  0
    6.6777    9.2607    3.1767 H   0  0  0  0  0  0  0  0  0  0  0  0
    5.0323    9.7972    2.8191 H   0  0  0  0  0  0  0  0  0  0  0  0
    6.1927    6.8815    4.2617 C   0  0  0  0  0  0  0  0  0  0  0  0
    5.7751    6.1405    4.9378 H   0  0  0  0  0  0  0  0  0  0  0  0
    7.0748    7.3272    4.7142 H   0  0  0  0  0  0  0  0  0  0  0  0
    6.4771    6.3936    3.3343 H   0  0  0  0  0  0  0  0  0  0  0  0
    4.8819    8.7333    5.2998 C   0  0  0  0  0  0  0  0  0  0  0  0
    4.2470    9.5951    5.1227 H   0  0  0  0  0  0  0  0  0  0  0  0
    5.8243    9.0707    5.7230 H   0  0  0  0  0  0  0  0  0  0  0  0
    4.3889    8.0692    6.0053 H   0  0  0  0  0  0  0  0  0  0  0  0
   -0.5802    5.8714    2.1395 C   0  0  0  0  0  0  0  0  0  0  0  0
   -0.5051    7.0683    1.4229 C   0  0  0  0  0  0  0  0  0  0  0  0
   -1.2269    7.1843    0.6286 H   0  0  0  0  0  0  0  0  0  0  0  0
    0.2405    8.1932    1.7415 C   0  0  1  0  0  3  0  0  0  0  0  0
   -1.6837    4.9197    1.7567 C   0  0  0  0  0  0  0  0  0  0  0  0
   -1.3617    3.8860    1.8782 H   0  0  0  0  0  0  0  0  0  0  0  0
   -1.9866    5.0814    0.7258 H   0  0  0  0  0  0  0  0  0  0  0  0
   -2.5496    5.0799    2.3997 H   0  0  0  0  0  0  0  0  0  0  0  0
   -0.2340    9.4940    1.1447 C   0  0  0  0  0  0  0  0  0  0  0  0
   -0.1495   10.3071    1.8635 H   0  0  0  0  0  0  0  0  0  0  0  0
   -1.2702    9.4062    0.8301 H   0  0  0  0  0  0  0  0  0  0  0  0
    0.3685    9.7481    0.2738 H   0  0  0  0  0  0  0  0  0  0  0  0
   -0.1051    4.5220    3.9807 C   0  0  0  0  0  0  0  0  0  0  0  0
   -1.1144    4.5753    4.9444 C   0  0  0  0  0  0  0  0  0  0  0  0
   -1.3419    3.5140    5.8023 C   0  0  0  0  0  0  0  0  0  0  0  0
   -2.1236    3.5886    6.5415 H   0  0  0  0  0  0  0  0  0  0  0  0
   -0.5633    2.3734    5.7084 C   0  0  0  0  0  0  0  0  0  0  0  0
   -0.7433    1.5476    6.3779 H   0  0  0  0  0  0  0  0  0  0  0  0
    0.4562    2.2920    4.7735 C   0  0  0  0  0  0  0  0  0  0  0  0
    1.0811    1.4167    4.7038 H   0  0  0  0  0  0  0  0  0  0  0  0
    0.6707    3.3616    3.9287 C   0  0  0  0  0  0  0  0  0  0  0  0
    1.7845    9.3536    3.0869 C   0  0  0  0  0  0  0  0  0  0  0  0
    1.6476    9.5682    4.4634 C   0  0  0  0  0  0  0  0  0  0  0  0
    2.0256   10.7582    5.0553 C   0  0  0  0  0  0  0  0  0  0  0  0
    1.8853   10.9027    6.1138 H   0  0  0  0  0  0  0  0  0  0  0  0
    2.6031   11.7443    4.2674 C   0  0  0  0  0  0  0  0  0  0  0  0
    2.8901   12.6834    4.7125 H   0  0  0  0  0  0  0  0  0  0  0  0
    2.8696   11.5107    2.9288 C   0  0  0  0  0  0  0  0  0  0  0  0
    3.3874   12.2445    2.3322 H   0  0  0  0  0  0  0  0  0  0  0  0
    2.4775   10.3144    2.3480 C   0  0  0  0  0  0  0  0  0  0  0  0
    5.0217    3.6135    3.7704 C   0  0  0  0  0  0  0  0  0  0  0  0
    4.4233    3.5822    4.6712 H   0  0  0  0  0  0  0  0  0  0  0  0
    6.1152    2.7782    3.6059 C   0  0  0  0  0  0  0  0  0  0  0  0
    6.3852    2.0777    4.3804 H   0  0  0  0  0  0  0  0  0  0  0  0
    6.8443    2.8648    2.4308 C   0  0  0  0  0  0  0  0  0  0  0  0
    7.7019    2.2291    2.2651 H   0  0  0  0  0  0  0  0  0  0  0  0
    6.4480    3.7835    1.4724 C   0  0  0  0  0  0  0  0  0  0  0  0
    6.9837    3.8854    0.5417 H   0  0  0  0  0  0  0  0  0  0  0  0
    5.3415    4.5776    1.7317 C   0  0  0  0  0  0  0  0  0  0  0  0
    4.9866    5.3061    1.0164 H   0  0  0  0  0  0  0  0  0  0  0  0
    3.9434    7.3485    3.5573 N   0  0  0  0  0  2  0  0  0  0  0  0
    0.2077    5.5916    3.1517 N   0  0  0  0  0  0  0  0  0  0  0  0
    1.2731    8.1670    2.5751 N   0  0  0  0  0  0  0  0  0  0  0  0
    4.6441    4.4942    2.8548 N   0  0  0  0  0  0  0  0  0  0  0  0
   -2.0572    6.0196    5.0778 Cl  0  0  0  0  0  0  0  0  0  0  0  0
    1.9483    3.4005    2.7749 Cl  0  0  0  0  0  0  0  0  0  0  0  0
    1.0888    8.2049    5.3522 Cl  0  0  0  0  0  0  0  0  0  0  0  0
    2.9271    9.9224    0.7333 Cl  0  0  0  0  0  0  0  0  0  0  0  0
    2.5373    5.9622    0.9047 Cl  0  0  0  0  0  0  0  0  0  0  0  0
    2.5597    5.2370    5.3177 Cl  0  0  0  0  0  0  0  0  0  0  0  0
    2.4839    6.3617    3.2248 Ta  0  0  0  0  0  0  0  0  0  0  0  0
  1  6  1  0  0  0  0
  1 10  1  0  0  0  0
  2  4  1  0  0  0  0
  2  1  1  0  0  0  0
  3  2  1  0  0  0  0
  5  2  1  0  0  0  0
  6  8  1  0  0  0  0
  6  7  1  0  0  0  0
  9  6  1  0  0  0  0
 10 12  1  0  0  0  0
 10 13  1  0  0  0  0
 11 10  1  0  0  0  0
 14 55  1  0  0  0  0
 15 17  1  0  0  0  0
 15 14  2  0  0  0  0
 16 15  1  0  0  0  0
 17 22  1  1  0  0  0
 17 56  1  0  0  0  0
 18 19  1  0  0  0  0
 18 14  1  0  0  0  0
 18 21  1  0  0  0  0
 20 18  1  0  0  0  0
 22 23  1  0  0  0  0
 24 22  1  0  0  0  0
 25 22  1  0  0  0  0
 26 27  1  0  0  0  0
 27 58  1  0  0  0  0
 27 28  2  0  0  0  0
 28 29  1  0  0  0  0
 30 28  1  0  0  0  0
 30 31  1  0  0  0  0
 32 30  2  0  0  0  0
 33 32  1  0  0  0  0
 34 26  2  0  0  0  0
 34 32  1  0  0  0  0
 35 36  1  0  0  0  0
 36 37  2  0  0  0  0
 36 60  1  0  0  0  0
 37 38  1  0  0  0  0
 39 40  1  0  0  0  0
 39 37  1  0  0  0  0
 41 39  2  0  0  0  0
 42 41  1  0  0  0  0
 43 41  1  0  0  0  0
 43 35  2  0  0  0  0
 44 45  1  0  0  0  0
 46 44  1  0  0  0  0
 46 47  1  0  0  0  0
 48 46  2  0  0  0  0
 49 48  1  0  0  0  0
 50 52  2  0  0  0  0
 50 48  1  0  0  0  0
 51 50  1  0  0  0  0
 52 57  1  0  0  0  0
 53 52  1  0  0  0  0
 54  1  1  0  0  0  0
 55 64  1  0  0  0  0
 55 26  1  0  0  0  0
 56 35  1  0  0  0  0
 56 64  1  0  0  0  0
 57 44  2  0  0  0  0
 59 34  1  0  0  0  0
 61 43  1  0  0  0  0
 62 64  1  0  0  0  0
 64 54  1  0  0  0  0
 64 63  1  0  0  0  0
M  END
$$$$
