CSD_code = FUGRAC | q = 0 | S = 0 | Stoichiometry = C26H27Cl6N4Nb | MND = 6
 OpenBabel04212202043D

 64 67  0  0  1  0  0  0  0  0999 V2000
    8.1838    0.1119    3.0455 Nb  0  0  0  0  0  0  0  0  0  0  0  0
    8.0364   -0.5030    5.4133 Cl  0  0  0  0  0  0  0  0  0  0  0  0
    8.2412   -0.2793    0.6680 Cl  0  0  0  0  0  0  0  0  0  0  0  0
    8.7907    3.0144    0.9362 Cl  0  0  0  0  0  0  0  0  0  0  0  0
    4.7120   -0.7971    5.4023 Cl  0  0  0  0  0  0  0  0  0  0  0  0
    7.5825   -3.3261    1.6702 Cl  0  0  0  0  0  0  0  0  0  0  0  0
    6.1588    2.3800    5.4494 Cl  0  0  0  0  0  0  0  0  0  0  0  0
    9.6650    1.0256    3.3807 N   0  0  0  0  0  2  0  0  0  0  0  0
    9.7447   -1.8658    3.0534 N   0  0  0  0  0  0  0  0  0  0  0  0
    6.2549   -1.0013    2.9335 N   0  0  0  0  0  0  0  0  0  0  0  0
   10.8449    1.5796    3.9086 C   0  0  0  0  0  0  0  0  0  0  0  0
    6.9083    1.7469    2.7477 N   0  0  0  0  0  0  0  0  0  0  0  0
    6.1809   -2.1936    3.6517 C   0  0  0  0  0  0  0  0  0  0  0  0
    5.1251    0.6229    1.6093 C   0  0  0  0  0  0  0  0  0  0  0  0
    4.2943    0.7607    0.9333 H   0  0  0  0  0  0  0  0  0  0  0  0
   11.5011   -3.0302    1.9356 C   0  0  0  0  0  0  0  0  0  0  0  0
   12.1663   -3.0847    1.0882 H   0  0  0  0  0  0  0  0  0  0  0  0
    7.5140    4.6882    4.9055 C   0  0  0  0  0  0  0  0  0  0  0  0
    7.2438    5.0320    5.8904 H   0  0  0  0  0  0  0  0  0  0  0  0
    5.8215    1.7598    1.9699 C   0  0  1  0  0  3  0  0  0  0  0  0
    5.2895    3.0873    1.4952 C   0  0  0  0  0  0  0  0  0  0  0  0
    4.3723    2.9538    0.9293 H   0  0  0  0  0  0  0  0  0  0  0  0
    6.0233    3.5828    0.8602 H   0  0  0  0  0  0  0  0  0  0  0  0
    5.0890    3.7379    2.3464 H   0  0  0  0  0  0  0  0  0  0  0  0
    5.2648   -0.6675    2.1513 C   0  0  0  0  0  0  0  0  0  0  0  0
    7.3981    2.9871    3.1883 C   0  0  0  0  0  0  0  0  0  0  0  0
    7.0705    3.4531    4.4618 C   0  0  0  0  0  0  0  0  0  0  0  0
    6.8046   -3.3639    3.2197 C   0  0  0  0  0  0  0  0  0  0  0  0
   11.6203    2.3815    2.8480 C   0  0  0  0  0  0  0  0  0  0  0  0
   11.7263    1.7817    1.9460 H   0  0  0  0  0  0  0  0  0  0  0  0
   12.6069    2.6409    3.2232 H   0  0  0  0  0  0  0  0  0  0  0  0
   11.0876    3.2953    2.6006 H   0  0  0  0  0  0  0  0  0  0  0  0
    4.1651   -1.6565    1.8686 C   0  0  0  0  0  0  0  0  0  0  0  0
    4.5820   -2.6320    1.6199 H   0  0  0  0  0  0  0  0  0  0  0  0
    3.5369   -1.3192    1.0491 H   0  0  0  0  0  0  0  0  0  0  0  0
    3.5452   -1.7749    2.7583 H   0  0  0  0  0  0  0  0  0  0  0  0
    5.5159   -3.3684    5.6672 C   0  0  0  0  0  0  0  0  0  0  0  0
    5.0103   -3.3584    6.6193 H   0  0  0  0  0  0  0  0  0  0  0  0
   10.6496   -3.8629    3.9932 C   0  0  0  0  0  0  0  0  0  0  0  0
   10.6304   -4.5822    4.7966 H   0  0  0  0  0  0  0  0  0  0  0  0
    9.7805   -2.7836    4.0150 C   0  0  0  0  0  3  0  0  0  0  0  0
    9.0911   -2.6476    4.8398 H   0  0  0  0  0  0  0  0  0  0  0  0
    8.7111    4.9871    2.8311 C   0  0  0  0  0  0  0  0  0  0  0  0
    9.3682    5.5662    2.2031 H   0  0  0  0  0  0  0  0  0  0  0  0
   11.5261   -3.9955    2.9296 C   0  0  0  0  0  0  0  0  0  0  0  0
   12.2113   -4.8285    2.8756 H   0  0  0  0  0  0  0  0  0  0  0  0
    8.3114    5.4579    4.0732 C   0  0  0  0  0  0  0  0  0  0  0  0
    8.6511    6.4249    4.4089 H   0  0  0  0  0  0  0  0  0  0  0  0
    8.2618    3.7499    2.4008 C   0  0  0  0  0  0  0  0  0  0  0  0
   10.4881    2.4745    5.1113 C   0  0  0  0  0  0  0  0  0  0  0  0
    9.9516    3.3581    4.7774 H   0  0  0  0  0  0  0  0  0  0  0  0
   11.3895    2.7810    5.6353 H   0  0  0  0  0  0  0  0  0  0  0  0
    9.8497    1.9114    5.7897 H   0  0  0  0  0  0  0  0  0  0  0  0
   10.5975   -1.9853    2.0386 C   0  0  0  0  0  0  0  0  0  0  0  0
   10.5383   -1.2196    1.2740 H   0  0  0  0  0  0  0  0  0  0  0  0
    5.5149   -2.2307    4.8829 C   0  0  0  0  0  0  0  0  0  0  0  0
    6.8077   -4.5125    3.9925 C   0  0  0  0  0  0  0  0  0  0  0  0
    7.3046   -5.3969    3.6271 H   0  0  0  0  0  0  0  0  0  0  0  0
   11.7238    0.4107    4.4072 C   0  0  0  0  0  0  0  0  0  0  0  0
   11.1409   -0.2054    5.0904 H   0  0  0  0  0  0  0  0  0  0  0  0
   12.5988    0.7942    4.9254 H   0  0  0  0  0  0  0  0  0  0  0  0
   12.0460   -0.1983    3.5649 H   0  0  0  0  0  0  0  0  0  0  0  0
    6.1674   -4.5060    5.2192 C   0  0  0  0  0  0  0  0  0  0  0  0
    6.1704   -5.3953    5.8293 H   0  0  0  0  0  0  0  0  0  0  0  0
  1  9  1  0  0  0  0
  1  8  1  0  0  0  0
  1  2  1  0  0  0  0
  3  1  1  0  0  0  0
  4 49  1  0  0  0  0
  6 28  1  0  0  0  0
  8 11  1  0  0  0  0
  9 41  1  0  0  0  0
 10  1  1  0  0  0  0
 10 13  1  0  0  0  0
 11 59  1  0  0  0  0
 11 50  1  0  0  0  0
 12  1  1  0  0  0  0
 12 26  1  0  0  0  0
 13 56  1  0  0  0  0
 14 20  1  0  0  0  0
 14 25  2  0  0  0  0
 15 14  1  0  0  0  0
 16 54  2  0  0  0  0
 16 45  1  0  0  0  0
 17 16  1  0  0  0  0
 18 19  1  0  0  0  0
 20 21  1  1  0  0  0
 20 12  1  0  0  0  0
 21 24  1  0  0  0  0
 22 21  1  0  0  0  0
 23 21  1  0  0  0  0
 25 10  1  0  0  0  0
 26 27  2  0  0  0  0
 27 18  1  0  0  0  0
 27  7  1  0  0  0  0
 28 13  2  0  0  0  0
 28 57  1  0  0  0  0
 29 31  1  0  0  0  0
 29 11  1  0  0  0  0
 30 29  1  0  0  0  0
 32 29  1  0  0  0  0
 33 25  1  0  0  0  0
 33 36  1  0  0  0  0
 34 33  1  0  0  0  0
 35 33  1  0  0  0  0
 37 38  1  0  0  0  0
 39 41  1  0  0  0  0
 39 40  1  0  0  0  0
 41 42  1  0  0  0  0
 43 47  1  0  0  0  0
 44 43  1  0  0  0  0
 45 39  2  0  0  0  0
 46 45  1  0  0  0  0
 47 48  1  0  0  0  0
 47 18  2  0  0  0  0
 49 43  2  0  0  0  0
 49 26  1  0  0  0  0
 50 52  1  0  0  0  0
 50 53  1  0  0  0  0
 51 50  1  0  0  0  0
 54  9  1  0  0  0  0
 55 54  1  0  0  0  0
 56  5  1  0  0  0  0
 56 37  2  0  0  0  0
 57 63  2  0  0  0  0
 58 57  1  0  0  0  0
 59 61  1  0  0  0  0
 59 60  1  0  0  0  0
 62 59  1  0  0  0  0
 63 37  1  0  0  0  0
 63 64  1  0  0  0  0
M  END
$$$$
