CSD_code = FUGWOV | q = 0 | S = 0 | Stoichiometry = C16H41ClN2Si4Zn | MND = 4
 OpenBabel04212202043D

 65 67  0  0  0  0  0  0  0  0999 V2000
    3.6099   17.1565   13.4246 Zn  0  0  0  0  0  0  0  0  0  0  0  0
    2.2373   17.8978   15.1472 Cl  0  0  0  0  0  0  0  0  0  0  0  0
    5.5056   19.5193   12.1907 C   0  0  0  0  0  0  0  0  0  0  0  0
    6.4804   20.0278   12.2359 H   0  0  0  0  0  0  0  0  0  0  0  0
    5.5464   18.7543   11.4143 H   0  0  0  0  0  0  0  0  0  0  0  0
    4.3888   20.5415   11.9520 C   0  0  0  0  0  0  0  0  0  0  0  0
    3.6616   20.1661   11.2356 H   0  0  0  0  0  0  0  0  0  0  0  0
    4.7981   21.4735   11.5644 H   0  0  0  0  0  0  0  0  0  0  0  0
    3.7478   20.7367   13.3345 C   0  0  0  0  0  0  0  0  0  0  0  0
    3.6203   21.7850   13.5959 H   0  0  0  0  0  0  0  0  0  0  0  0
    2.7736   20.2511   13.3795 H   0  0  0  0  0  0  0  0  0  0  0  0
    4.7010   20.0270   14.2869 C   0  0  0  0  0  0  0  0  0  0  0  0
    5.5294   20.6900   14.5809 H   0  0  0  0  0  0  0  0  0  0  0  0
    4.1853   19.6724   15.1764 H   0  0  0  0  0  0  0  0  0  0  0  0
    6.3820   18.2779   14.0705 C   0  0  0  0  0  0  0  0  0  0  0  0
    7.1108   19.0395   14.3938 H   0  0  0  0  0  0  0  0  0  0  0  0
    6.8544   17.6616   13.3012 H   0  0  0  0  0  0  0  0  0  0  0  0
    6.0216   17.3996   15.2655 C   0  0  0  0  0  0  0  0  0  0  0  0
    6.9483   17.0774   15.7682 H   0  0  0  0  0  0  0  0  0  0  0  0
    5.4346   17.9860   15.9743 H   0  0  0  0  0  0  0  0  0  0  0  0
    4.5804   15.6074   16.0160 C   0  0  0  0  0  0  0  0  0  0  0  0
    3.7884   16.2415   16.4110 H   0  0  0  0  0  0  0  0  0  0  0  0
    5.3187   15.4068   16.8069 H   0  0  0  0  0  0  0  0  0  0  0  0
    4.0563   14.3075   15.4238 C   0  0  0  0  0  0  0  0  0  0  0  0
    3.1043   14.4997   14.9272 H   0  0  0  0  0  0  0  0  0  0  0  0
    3.9032   13.5437   16.1833 H   0  0  0  0  0  0  0  0  0  0  0  0
    5.1331   13.9194   14.3980 C   0  0  0  0  0  0  0  0  0  0  0  0
    5.7292   13.0768   14.7463 H   0  0  0  0  0  0  0  0  0  0  0  0
    4.6882   13.6483   13.4427 H   0  0  0  0  0  0  0  0  0  0  0  0
    6.0033   15.1756   14.2608 C   0  0  0  0  0  0  0  0  0  0  0  0
    6.9500   15.0467   14.8074 H   0  0  0  0  0  0  0  0  0  0  0  0
    6.2312   15.4008   13.2187 H   0  0  0  0  0  0  0  0  0  0  0  0
    6.3147   16.2490    9.9257 C   0  0  0  0  0  0  0  0  0  0  0  0
    7.1183   15.7909    9.3566 H   0  0  0  0  0  0  0  0  0  0  0  0
    6.7567   16.6752   10.8220 H   0  0  0  0  0  0  0  0  0  0  0  0
    5.9220   17.0695    9.3325 H   0  0  0  0  0  0  0  0  0  0  0  0
    4.4077   14.1537    8.7360 C   0  0  0  0  0  0  0  0  0  0  0  0
    4.0699   14.8825    8.0063 H   0  0  0  0  0  0  0  0  0  0  0  0
    3.5873   13.4657    8.9128 H   0  0  0  0  0  0  0  0  0  0  0  0
    5.2182   13.5904    8.2828 H   0  0  0  0  0  0  0  0  0  0  0  0
    0.9615   18.7566   10.6869 C   0  0  0  0  0  0  0  0  0  0  0  0
    0.7461   19.6835   10.1627 H   0  0  0  0  0  0  0  0  0  0  0  0
    1.2614   19.0134   11.6995 H   0  0  0  0  0  0  0  0  0  0  0  0
    0.0311   18.2009   10.7609 H   0  0  0  0  0  0  0  0  0  0  0  0
    1.5201   16.9606    8.2544 C   0  0  0  0  0  0  0  0  0  0  0  0
    0.7549   16.2334    8.5071 H   0  0  0  0  0  0  0  0  0  0  0  0
    2.2653   16.4527    7.6513 H   0  0  0  0  0  0  0  0  0  0  0  0
    1.0587   17.7199    7.6294 H   0  0  0  0  0  0  0  0  0  0  0  0
    2.0167   12.7908   12.1737 C   0  0  0  0  0  0  0  0  0  0  0  0
    2.3854   12.8210   13.1944 H   0  0  0  0  0  0  0  0  0  0  0  0
    2.8341   12.4656   11.5372 H   0  0  0  0  0  0  0  0  0  0  0  0
    1.2466   12.0259   12.1320 H   0  0  0  0  0  0  0  0  0  0  0  0
    0.0966   15.1051   12.9048 C   0  0  0  0  0  0  0  0  0  0  0  0
   -0.5724   14.3197   13.2460 H   0  0  0  0  0  0  0  0  0  0  0  0
   -0.5169   15.9018   12.4952 H   0  0  0  0  0  0  0  0  0  0  0  0
    0.5991   15.5110   13.7793 H   0  0  0  0  0  0  0  0  0  0  0  0
    5.2049   18.9066   13.4893 N   0  0  0  0  0  4  0  0  0  0  0  0
    5.2200   16.2535   14.8689 N   0  0  0  0  0  4  0  0  0  0  0  0
    3.0829   16.0728   11.3351 Si  0  0  0  0  0  0  0  0  0  0  0  0
    4.9354   15.0013   10.3537 Si  0  0  0  0  0  0  0  0  0  0  0  0
    5.6153   13.9501   11.1495 H   0  0  0  0  0  0  0  0  0  0  0  0
    2.2976   17.7099    9.8222 Si  0  0  0  0  0  0  0  0  0  0  0  0
    3.3382   18.6529    9.3362 H   0  0  0  0  0  0  0  0  0  0  0  0
    1.3467   14.4869   11.6115 Si  0  0  0  0  0  0  0  0  0  0  0  0
    0.5906   14.2193   10.3677 H   0  0  0  0  0  0  0  0  0  0  0  0
  1 57  1  0  0  0  0
  1 58  1  0  0  0  0
  1  2  1  0  0  0  0
  3  4  1  0  0  0  0
  3 57  1  0  0  0  0
  5  3  1  0  0  0  0
  6  3  1  0  0  0  0
  6  9  1  0  0  0  0
  7  6  1  0  0  0  0
  8  6  1  0  0  0  0
  9 11  1  0  0  0  0
  9 10  1  0  0  0  0
  9 12  1  0  0  0  0
 12 13  1  0  0  0  0
 12 14  1  0  0  0  0
 15 16  1  0  0  0  0
 15 18  1  0  0  0  0
 17 15  1  0  0  0  0
 18 19  1  0  0  0  0
 18 20  1  0  0  0  0
 21 22  1  0  0  0  0
 21 23  1  0  0  0  0
 24 21  1  0  0  0  0
 24 26  1  0  0  0  0
 25 24  1  0  0  0  0
 27 28  1  0  0  0  0
 27 24  1  0  0  0  0
 29 27  1  0  0  0  0
 30 27  1  0  0  0  0
 30 31  1  0  0  0  0
 30 58  1  0  0  0  0
 32 30  1  0  0  0  0
 33 60  1  0  0  0  0
 33 35  1  0  0  0  0
 34 33  1  0  0  0  0
 36 33  1  0  0  0  0
 37 39  1  0  0  0  0
 37 60  1  0  0  0  0
 38 37  1  0  0  0  0
 40 37  1  0  0  0  0
 41 44  1  0  0  0  0
 41 43  1  0  0  0  0
 42 41  1  0  0  0  0
 45 46  1  0  0  0  0
 45 62  1  0  0  0  0
 47 45  1  0  0  0  0
 48 45  1  0  0  0  0
 49 50  1  0  0  0  0
 51 49  1  0  0  0  0
 52 49  1  0  0  0  0
 53 54  1  0  0  0  0
 53 56  1  0  0  0  0
 55 53  1  0  0  0  0
 57 15  1  0  0  0  0
 57 12  1  0  0  0  0
 58 18  1  0  0  0  0
 58 21  1  0  0  0  0
 59 64  1  0  0  0  0
 59  1  1  0  0  0  0
 60 61  1  0  0  0  0
 60 59  1  0  0  0  0
 62 41  1  0  0  0  0
 62 59  1  0  0  0  0
 63 62  1  0  0  0  0
 64 49  1  0  0  0  0
 64 53  1  0  0  0  0
 65 64  1  0  0  0  0
M  END
$$$$
