CSD_code = FUHTAF | q = 0 | S = 0 | Stoichiometry = C24H22Cl2N2O2Pd | MND = 4
 OpenBabel04212202043D

 53 56  0  0  0  0  0  0  0  0999 V2000
    7.0060    6.1655   15.5371 Pd  0  0  0  0  0  0  0  0  0  0  0  0
    6.2810    7.3404   13.7003 Cl  0  0  0  0  0  0  0  0  0  0  0  0
    7.7776    5.1950   17.4663 Cl  0  0  0  0  0  0  0  0  0  0  0  0
    2.3755    6.7713   17.0104 O   0  0  0  0  0  0  0  0  0  0  0  0
   10.4653    4.2884   12.8672 O   0  0  0  0  0  0  0  0  0  0  0  0
    5.1577    6.0773   16.1312 N   0  0  0  0  0  0  0  0  0  0  0  0
    8.8664    6.5832   15.1012 N   0  0  0  0  0  0  0  0  0  0  0  0
    5.6456    3.2795   15.4454 C   0  0  0  0  0  0  0  0  0  0  0  0
    5.8580    3.4794   16.4887 H   0  0  0  0  0  0  0  0  0  0  0  0
    6.1646    2.1443   14.8440 C   0  0  0  0  0  0  0  0  0  0  0  0
    6.8092    1.4884   15.4092 H   0  0  0  0  0  0  0  0  0  0  0  0
    5.8418    1.8423   13.5312 C   0  0  0  0  0  0  0  0  0  0  0  0
    6.2280    0.9427   13.0744 H   0  0  0  0  0  0  0  0  0  0  0  0
    5.0179    2.6899   12.8100 C   0  0  0  0  0  0  0  0  0  0  0  0
    4.7683    2.4612   11.7842 H   0  0  0  0  0  0  0  0  0  0  0  0
    4.5030    3.8310   13.4019 C   0  0  0  0  0  0  0  0  0  0  0  0
    3.8603    4.4896   12.8364 H   0  0  0  0  0  0  0  0  0  0  0  0
    4.8025    4.1292   14.7260 C   0  0  0  0  0  0  0  0  0  0  0  0
    4.1649    5.3084   15.4183 C   0  0  0  0  0  0  0  0  0  0  0  0
    3.6829    5.9614   14.6786 H   0  0  0  0  0  0  0  0  0  0  0  0
    3.3925    4.9472   16.1105 H   0  0  0  0  0  0  0  0  0  0  0  0
    4.8312    6.9072   17.0558 C   0  0  0  0  0  3  0  0  0  0  0  0
    5.6437    7.4325   17.5648 H   0  0  0  0  0  0  0  0  0  0  0  0
    3.5291    7.2485   17.5463 C   0  0  0  0  0  0  0  0  0  0  0  0
    3.2242    8.1033   18.5890 C   0  0  0  0  0  0  0  0  0  0  0  0
    3.9264    8.6292   19.2025 H   0  0  0  0  0  0  0  0  0  0  0  0
    1.8221    8.1353   18.6825 C   0  0  0  0  0  0  0  0  0  0  0  0
    1.2319    8.6932   19.3795 H   0  0  0  0  0  0  0  0  0  0  0  0
    1.3629    7.3088   17.6972 C   0  0  0  0  0  0  0  0  0  0  0  0
    0.3699    7.0342   17.3997 H   0  0  0  0  0  0  0  0  0  0  0  0
    9.6643    9.2433   13.9138 C   0  0  0  0  0  0  0  0  0  0  0  0
    8.6695    8.9838   13.5788 H   0  0  0  0  0  0  0  0  0  0  0  0
   10.4493   10.1083   13.1743 C   0  0  0  0  0  0  0  0  0  0  0  0
   10.0655   10.5292   12.2571 H   0  0  0  0  0  0  0  0  0  0  0  0
   11.7227   10.4372   13.6107 C   0  0  0  0  0  0  0  0  0  0  0  0
   12.3344   11.1149   13.0337 H   0  0  0  0  0  0  0  0  0  0  0  0
   12.2101    9.8971   14.7880 C   0  0  0  0  0  0  0  0  0  0  0  0
   13.2020   10.1514   15.1315 H   0  0  0  0  0  0  0  0  0  0  0  0
   11.4286    9.0255   15.5279 C   0  0  0  0  0  0  0  0  0  0  0  0
   11.8120    8.6028   16.4460 H   0  0  0  0  0  0  0  0  0  0  0  0
   10.1519    8.6957   15.0960 C   0  0  0  0  0  0  0  0  0  0  0  0
    9.2754    7.7502   15.8784 C   0  0  0  0  0  0  0  0  0  0  0  0
    9.7904    7.3959   16.7818 H   0  0  0  0  0  0  0  0  0  0  0  0
    8.3548    8.2812   16.1936 H   0  0  0  0  0  0  0  0  0  0  0  0
    9.7375    6.0040   14.3661 C   0  0  0  0  0  3  0  0  0  0  0  0
   10.7672    6.3651   14.3322 H   0  0  0  0  0  0  0  0  0  0  0  0
    9.4448    4.8839   13.5331 C   0  0  0  0  0  0  0  0  0  0  0  0
    8.2521    4.2706   13.2056 C   0  0  0  0  0  0  0  0  0  0  0  0
    7.2681    4.5528   13.5573 H   0  0  0  0  0  0  0  0  0  0  0  0
    8.5796    3.2528   12.2906 C   0  0  0  0  0  0  0  0  0  0  0  0
    7.9031    2.5757   11.8131 H   0  0  0  0  0  0  0  0  0  0  0  0
    9.9349    3.3099   12.1287 C   0  0  0  0  0  0  0  0  0  0  0  0
   10.6083    2.7256   11.5324 H   0  0  0  0  0  0  0  0  0  0  0  0
  1  6  1  0  0  0  0
  1  3  1  0  0  0  0
  2  1  1  0  0  0  0
  4 24  1  0  0  0  0
  4 29  1  0  0  0  0
  5 47  1  0  0  0  0
  6 22  1  0  0  0  0
  7  1  1  0  0  0  0
  7 42  1  0  0  0  0
  8  9  1  0  0  0  0
 10 11  1  0  0  0  0
 10  8  1  0  0  0  0
 12 10  2  0  0  0  0
 13 12  1  0  0  0  0
 14 16  2  0  0  0  0
 14 12  1  0  0  0  0
 15 14  1  0  0  0  0
 16 18  1  0  0  0  0
 17 16  1  0  0  0  0
 18 19  1  0  0  0  0
 18  8  2  0  0  0  0
 19 21  1  0  0  0  0
 19  6  1  0  0  0  0
 20 19  1  0  0  0  0
 22 24  1  0  0  0  0
 22 23  1  0  0  0  0
 24 25  2  0  0  0  0
 25 27  1  0  0  0  0
 25 26  1  0  0  0  0
 27 28  1  0  0  0  0
 29 27  2  0  0  0  0
 30 29  1  0  0  0  0
 31 41  1  0  0  0  0
 32 31  1  0  0  0  0
 33 35  1  0  0  0  0
 33 31  2  0  0  0  0
 34 33  1  0  0  0  0
 35 37  2  0  0  0  0
 36 35  1  0  0  0  0
 37 38  1  0  0  0  0
 37 39  1  0  0  0  0
 39 40  1  0  0  0  0
 41 39  2  0  0  0  0
 41 42  1  0  0  0  0
 42 44  1  0  0  0  0
 42 43  1  0  0  0  0
 45  7  1  0  0  0  0
 46 45  1  0  0  0  0
 47 45  1  0  0  0  0
 48 47  2  0  0  0  0
 48 49  1  0  0  0  0
 50 48  1  0  0  0  0
 51 50  1  0  0  0  0
 52 50  2  0  0  0  0
 52  5  1  0  0  0  0
 53 52  1  0  0  0  0
M  END
$$$$
