CSD_code = FUJMII | q = 0 | S = 0 | Stoichiometry = C21H28ClNOPRh | MND = 4
 OpenBabel04212202043D

 54 56  0  0  1  0  0  0  0  0999 V2000
    1.5934    4.7646    7.6425 Rh  0  0  1  0  0  0  0  0  0  0  0  0
    3.0804    5.3302    9.3737 Cl  0  0  0  0  0  0  0  0  0  0  0  0
   -0.4504    3.9078    7.1499 P   0  0  0  0  0  4  0  0  0  0  0  0
    3.4644    2.5407    7.0128 O   0  0  0  0  0  1  0  0  0  0  0  0
    0.5062    6.3904    8.0387 N   0  0  0  0  0  0  0  0  0  0  0  0
   -0.7840    6.3175    8.3899 C   0  0  1  0  0  3  0  0  0  0  0  0
   -1.5048    7.4457    8.7498 C   0  0  0  0  0  0  0  0  0  0  0  0
   -2.5402    7.3519    9.0401 H   0  0  0  0  0  0  0  0  0  0  0  0
   -0.8807    8.6841    8.7373 C   0  0  0  0  0  0  0  0  0  0  0  0
   -1.4192    9.5727    9.0290 H   0  0  0  0  0  0  0  0  0  0  0  0
    0.4323    8.7593    8.3146 C   0  0  0  0  0  0  0  0  0  0  0  0
    0.9410    9.7071    8.2404 H   0  0  0  0  0  0  0  0  0  0  0  0
    1.1017    7.5920    7.9566 C   0  0  0  0  0  0  0  0  0  0  0  0
   -1.4162    4.9618    8.3488 C   0  0  0  0  0  0  0  0  0  0  0  0
   -2.4862    5.0277    8.1358 H   0  0  0  0  0  0  0  0  0  0  0  0
   -1.2815    4.4895    9.3269 H   0  0  0  0  0  0  0  0  0  0  0  0
   -1.3155    4.2238    5.4868 C   0  0  0  0  0  0  0  0  0  0  0  0
   -1.3924    5.7456    5.3314 C   0  0  0  0  0  0  0  0  0  0  0  0
   -1.6861    5.9989    4.3133 H   0  0  0  0  0  0  0  0  0  0  0  0
   -0.4209    6.2026    5.5207 H   0  0  0  0  0  0  0  0  0  0  0  0
   -2.1216    6.1854    6.0089 H   0  0  0  0  0  0  0  0  0  0  0  0
   -0.3739    3.6827    4.4093 C   0  0  0  0  0  0  0  0  0  0  0  0
   -0.3414    2.5968    4.4148 H   0  0  0  0  0  0  0  0  0  0  0  0
    0.6393    4.0505    4.5812 H   0  0  0  0  0  0  0  0  0  0  0  0
   -0.6988    4.0076    3.4219 H   0  0  0  0  0  0  0  0  0  0  0  0
   -2.7111    3.6334    5.3265 C   0  0  0  0  0  0  0  0  0  0  0  0
   -3.3528    3.8909    6.1663 H   0  0  0  0  0  0  0  0  0  0  0  0
   -2.6730    2.5524    5.2262 H   0  0  0  0  0  0  0  0  0  0  0  0
   -3.1686    4.0320    4.4211 H   0  0  0  0  0  0  0  0  0  0  0  0
   -0.8272    2.1764    7.8249 C   0  0  0  0  0  0  0  0  0  0  0  0
   -0.2261    1.1573    6.8578 C   0  0  0  0  0  0  0  0  0  0  0  0
    0.8048    1.4213    6.6255 H   0  0  0  0  0  0  0  0  0  0  0  0
   -0.7946    1.1074    5.9318 H   0  0  0  0  0  0  0  0  0  0  0  0
   -0.2325    0.1644    7.3052 H   0  0  0  0  0  0  0  0  0  0  0  0
   -2.3005    1.8570    8.0794 C   0  0  0  0  0  0  0  0  0  0  0  0
   -2.3601    0.9379    8.6618 H   0  0  0  0  0  0  0  0  0  0  0  0
   -2.8522    1.6969    7.1592 H   0  0  0  0  0  0  0  0  0  0  0  0
   -2.7915    2.6421    8.6496 H   0  0  0  0  0  0  0  0  0  0  0  0
   -0.0775    2.0962    9.1630 C   0  0  0  0  0  0  0  0  0  0  0  0
    0.1013    1.0556    9.4266 H   0  0  0  0  0  0  0  0  0  0  0  0
   -0.6527    2.5443    9.9710 H   0  0  0  0  0  0  0  0  0  0  0  0
    0.8921    2.6038    9.1084 H   0  0  0  0  0  0  0  0  0  0  0  0
    2.4722    7.6207    7.4311 C   0  0  0  0  0  0  0  0  0  0  0  0
    2.8152    6.7938    6.3515 C   0  0  0  0  0  0  0  0  0  0  0  0
    2.0391    6.2757    5.7788 H   0  0  0  0  0  0  0  0  0  0  0  0
    4.1244    6.7613    5.8965 C   0  0  0  0  0  0  0  0  0  0  0  0
    4.3854    6.1267    5.0618 H   0  0  0  0  0  0  0  0  0  0  0  0
    5.0964    7.5303    6.5141 C   0  0  0  0  0  0  0  0  0  0  0  0
    6.1201    7.4801    6.1744 H   0  0  0  0  0  0  0  0  0  0  0  0
    4.7547    8.3654    7.5649 C   0  0  0  0  0  0  0  0  0  0  0  0
    5.5117    8.9661    8.0463 H   0  0  0  0  0  0  0  0  0  0  0  0
    3.4496    8.4175    8.0177 C   0  0  0  0  0  0  0  0  0  0  0  0
    3.1959    9.0332    8.8675 H   0  0  0  0  0  0  0  0  0  0  0  0
    2.7012    3.3613    7.2633 C   0  0  0  0  0  2  0  0  0  0  0  0
  1  5  1  0  0  0  0
  1  2  1  1  0  0  0
  3  1  1  0  0  0  0
  3 30  1  0  0  0  0
  3 14  1  0  0  0  0
  4 54  1  0  0  0  0
  5  6  1  0  0  0  0
  6  7  1  6  0  0  0
  7  8  1  0  0  0  0
  9  7  2  0  0  0  0
  9 10  1  0  0  0  0
 11  9  1  0  0  0  0
 12 11  1  0  0  0  0
 13  5  1  0  0  0  0
 13 11  2  0  0  0  0
 14  6  1  0  0  0  0
 14 16  1  0  0  0  0
 15 14  1  0  0  0  0
 17  3  1  0  0  0  0
 18 17  1  0  0  0  0
 18 20  1  0  0  0  0
 18 21  1  0  0  0  0
 19 18  1  0  0  0  0
 22 23  1  0  0  0  0
 22 24  1  0  0  0  0
 22 17  1  0  0  0  0
 25 22  1  0  0  0  0
 26 17  1  0  0  0  0
 26 27  1  0  0  0  0
 28 26  1  0  0  0  0
 29 26  1  0  0  0  0
 30 35  1  0  0  0  0
 30 39  1  0  0  0  0
 31 34  1  0  0  0  0
 31 30  1  0  0  0  0
 32 31  1  0  0  0  0
 33 31  1  0  0  0  0
 35 38  1  0  0  0  0
 35 36  1  0  0  0  0
 37 35  1  0  0  0  0
 39 40  1  0  0  0  0
 39 41  1  0  0  0  0
 42 39  1  0  0  0  0
 43 13  1  0  0  0  0
 43 52  1  0  0  0  0
 44 43  2  0  0  0  0
 45 44  1  0  0  0  0
 46 44  1  0  0  0  0
 46 48  2  0  0  0  0
 47 46  1  0  0  0  0
 48 50  1  0  0  0  0
 49 48  1  0  0  0  0
 50 52  2  0  0  0  0
 50 51  1  0  0  0  0
 52 53  1  0  0  0  0
 54  1  1  0  0  0  0
M  END
$$$$
