CSD_code = FUJWUC | q = 0 | S = 0 | Stoichiometry = C6H11Cl3OS2Ti | MND = 6
 OpenBabel04212202043D

 24 26  0  0  1  0  0  0  0  0999 V2000
    2.3237    5.1684    8.2759 Ti  0  0  0  0  0  0  0  0  0  0  0  0
    4.3443    5.0339    9.0493 Cl  0  0  0  0  0  0  0  0  0  0  0  0
    2.6938    6.5614    6.6559 Cl  0  0  0  0  0  0  0  0  0  0  0  0
    1.4151    6.5463    9.6798 Cl  0  0  0  0  0  0  0  0  0  0  0  0
   -0.1599    4.9713    6.9916 S   0  0  2  0  0  3  0  0  0  0  0  0
    3.0314    3.3270    6.2834 S   0  0  1  0  0  3  0  0  0  0  0  0
    1.6453    3.6624    8.7185 O   0  0  0  0  0  0  0  0  0  0  0  0
   -0.3449    3.2249    7.4896 C   0  0  0  0  0  0  0  0  0  0  0  0
    0.9843    2.6628    8.0555 C   0  0  1  0  0  0  0  0  0  0  0  0
    1.9280    2.0545    6.9868 C   0  0  0  0  0  0  0  0  0  0  0  0
    2.2865    3.7841    4.6585 C   0  0  0  0  0  0  0  0  0  0  0  0
    0.7734    3.7769    4.5212 C   0  0  0  0  0  0  0  0  0  0  0  0
    0.0381    4.9441    5.1577 C   0  0  0  0  0  0  0  0  0  0  0  0
   -0.7493    2.6342    6.6707 H   0  0  0  0  0  0  0  0  0  0  0  0
   -1.0766    3.2630    8.2982 H   0  0  0  0  0  0  0  0  0  0  0  0
    0.7244    1.8531    8.7649 H   0  0  0  0  0  0  0  0  0  0  0  0
    2.6128    1.3644    7.4824 H   0  0  0  0  0  0  0  0  0  0  0  0
    1.4005    1.5265    6.1957 H   0  0  0  0  0  0  0  0  0  0  0  0
    2.7197    3.0891    3.9384 H   0  0  0  0  0  0  0  0  0  0  0  0
    2.6838    4.7850    4.4826 H   0  0  0  0  0  0  0  0  0  0  0  0
    0.3594    2.8271    4.8634 H   0  0  0  0  0  0  0  0  0  0  0  0
    0.5647    3.8341    3.4480 H   0  0  0  0  0  0  0  0  0  0  0  0
    0.5576    5.8822    4.9560 H   0  0  0  0  0  0  0  0  0  0  0  0
   -0.9754    4.9965    4.7580 H   0  0  0  0  0  0  0  0  0  0  0  0
  1  7  1  0  0  0  0
  1  2  1  0  0  0  0
  1  4  1  0  0  0  0
  3  1  1  0  0  0  0
  5 13  1  6  0  0  0
  5  8  1  0  0  0  0
  5  1  1  0  0  0  0
  6 11  1  6  0  0  0
  6 10  1  0  0  0  0
  6  1  1  0  0  0  0
  8  9  1  0  0  0  0
  8 15  1  0  0  0  0
  9  7  1  0  0  0  0
  9 16  1  1  0  0  0
 10 17  1  0  0  0  0
 10  9  1  0  0  0  0
 12 11  1  0  0  0  0
 12 21  1  0  0  0  0
 12 13  1  0  0  0  0
 14  8  1  0  0  0  0
 18 10  1  0  0  0  0
 19 11  1  0  0  0  0
 20 11  1  0  0  0  0
 22 12  1  0  0  0  0
 23 13  1  0  0  0  0
 24 13  1  0  0  0  0
M  END
$$$$
