CSD_code = FULMOP | q = 1 | S = 0 | Stoichiometry = C27H33ClNiPS3(1+) | MND = 5
 OpenBabel04212202043D

 66 71  0  0  0  0  0  0  0  0999 V2000
    2.7056    5.7407    4.7610 Ni  0  0  0  0  0  0  0  0  0  0  0  0
    2.6948    7.0194    6.3773 Cl  0  0  0  0  0  0  0  0  0  0  0  0
    2.6924    4.4356    3.1103 P   0  0  1  0  0  4  0  0  0  0  0  0
    2.4833    7.5366    2.9218 S   0  0  2  0  0  3  0  0  0  0  0  0
    4.9328    5.0828    5.1519 S   0  0  2  0  0  3  0  0  0  0  0  0
    0.4796    4.9027    5.1671 S   0  0  2  0  0  3  0  0  0  0  0  0
    2.1956    5.1707    1.5200 C   0  0  0  0  0  0  0  0  0  0  0  0
    2.2138    6.5659    1.4428 C   0  0  0  0  0  0  0  0  0  0  0  0
    1.9179    7.2015    0.2476 C   0  0  0  0  0  0  0  0  0  0  0  0
    1.9240    8.2792    0.1986 H   0  0  0  0  0  0  0  0  0  0  0  0
    1.5973    6.4477   -0.8687 C   0  0  0  0  0  0  0  0  0  0  0  0
    1.3725    6.9424   -1.8004 H   0  0  0  0  0  0  0  0  0  0  0  0
    1.5297    5.0651   -0.7839 C   0  0  0  0  0  0  0  0  0  0  0  0
    1.2451    4.4848   -1.6478 H   0  0  0  0  0  0  0  0  0  0  0  0
    1.8204    4.4246    0.4077 C   0  0  0  0  0  0  0  0  0  0  0  0
    1.7390    3.3497    0.4796 H   0  0  0  0  0  0  0  0  0  0  0  0
    4.3291    3.6925    2.8211 C   0  0  0  0  0  0  0  0  0  0  0  0
    5.2758    3.9288    3.8203 C   0  0  0  0  0  0  0  0  0  0  0  0
    6.5371    3.3612    3.7386 C   0  0  0  0  0  0  0  0  0  0  0  0
    7.2680    3.5615    4.5070 H   0  0  0  0  0  0  0  0  0  0  0  0
    6.8579    2.5589    2.6567 C   0  0  0  0  0  0  0  0  0  0  0  0
    7.8376    2.1120    2.5952 H   0  0  0  0  0  0  0  0  0  0  0  0
    5.9385    2.3597    1.6382 C   0  0  0  0  0  0  0  0  0  0  0  0
    6.2055    1.7626    0.7802 H   0  0  0  0  0  0  0  0  0  0  0  0
    4.6795    2.9290    1.7126 C   0  0  0  0  0  0  0  0  0  0  0  0
    3.9791    2.7965    0.9017 H   0  0  0  0  0  0  0  0  0  0  0  0
    1.5256    3.0639    3.3731 C   0  0  0  0  0  0  0  0  0  0  0  0
    0.5083    3.3364    4.2902 C   0  0  0  0  0  0  0  0  0  0  0  0
   -0.4423    2.3758    4.5904 C   0  0  0  0  0  0  0  0  0  0  0  0
   -1.2087    2.5889    5.3188 H   0  0  0  0  0  0  0  0  0  0  0  0
   -0.3841    1.1394    3.9664 C   0  0  0  0  0  0  0  0  0  0  0  0
   -1.1233    0.3891    4.1983 H   0  0  0  0  0  0  0  0  0  0  0  0
    0.6331    0.8572    3.0688 C   0  0  0  0  0  0  0  0  0  0  0  0
    0.6879   -0.1149    2.6037 H   0  0  0  0  0  0  0  0  0  0  0  0
    1.5931    1.8113    2.7752 C   0  0  0  0  0  0  0  0  0  0  0  0
    2.4055    1.5713    2.1056 H   0  0  0  0  0  0  0  0  0  0  0  0
    4.1152    8.3338    2.5746 C   0  0  0  0  0  0  0  0  0  0  0  0
    3.9254    9.0240    1.7496 H   0  0  0  0  0  0  0  0  0  0  0  0
    5.1496    7.2992    2.1832 C   0  0  0  0  0  0  0  0  0  0  0  0
    4.8471    6.7394    1.2988 H   0  0  0  0  0  0  0  0  0  0  0  0
    5.3144    6.6037    3.0062 H   0  0  0  0  0  0  0  0  0  0  0  0
    6.0929    7.7953    1.9655 H   0  0  0  0  0  0  0  0  0  0  0  0
    4.4902    9.0830    3.8389 C   0  0  0  0  0  0  0  0  0  0  0  0
    3.7415    9.8331    4.0818 H   0  0  0  0  0  0  0  0  0  0  0  0
    5.4489    9.5781    3.7076 H   0  0  0  0  0  0  0  0  0  0  0  0
    4.5669    8.3898    4.6768 H   0  0  0  0  0  0  0  0  0  0  0  0
    4.8443    3.9306    6.5955 C   0  0  0  0  0  0  0  0  0  0  0  0
    5.6587    3.2202    6.4350 H   0  0  0  0  0  0  0  0  0  0  0  0
    3.4987    3.2345    6.5908 C   0  0  0  0  0  0  0  0  0  0  0  0
    3.3600    2.6407    5.6847 H   0  0  0  0  0  0  0  0  0  0  0  0
    2.7016    3.9839    6.6662 H   0  0  0  0  0  0  0  0  0  0  0  0
    3.4172    2.5699    7.4483 H   0  0  0  0  0  0  0  0  0  0  0  0
    5.0725    4.7552    7.8473 C   0  0  0  0  0  0  0  0  0  0  0  0
    6.0434    5.2439    7.8195 H   0  0  0  0  0  0  0  0  0  0  0  0
    5.0331    4.1117    8.7228 H   0  0  0  0  0  0  0  0  0  0  0  0
    4.3021    5.5180    7.9412 H   0  0  0  0  0  0  0  0  0  0  0  0
   -0.5785    5.9380    4.0481 C   0  0  0  0  0  0  0  0  0  0  0  0
   -0.0742    5.9502    3.0767 H   0  0  0  0  0  0  0  0  0  0  0  0
   -1.9589    5.3246    3.9278 C   0  0  0  0  0  0  0  0  0  0  0  0
   -1.9232    4.3421    3.4615 H   0  0  0  0  0  0  0  0  0  0  0  0
   -2.5828    5.9697    3.3128 H   0  0  0  0  0  0  0  0  0  0  0  0
   -2.4227    5.2357    4.9075 H   0  0  0  0  0  0  0  0  0  0  0  0
   -0.6150    7.3260    4.6594 C   0  0  0  0  0  0  0  0  0  0  0  0
    0.3920    7.7039    4.8304 H   0  0  0  0  0  0  0  0  0  0  0  0
   -1.1405    7.3063    5.6112 H   0  0  0  0  0  0  0  0  0  0  0  0
   -1.1297    8.0104    3.9897 H   0  0  0  0  0  0  0  0  0  0  0  0
  1  5  1  0  0  0  0
  1  6  1  0  0  0  0
  1  2  1  0  0  0  0
  3  7  1  6  0  0  0
  3 27  1  0  0  0  0
  3  1  1  0  0  0  0
  4 37  1  6  0  0  0
  4  1  1  0  0  0  0
  5 47  1  1  0  0  0
  6 57  1  6  0  0  0
  8  7  1  0  0  0  0
  8  4  1  0  0  0  0
  9  8  2  0  0  0  0
 10  9  1  0  0  0  0
 11 13  2  0  0  0  0
 11  9  1  0  0  0  0
 12 11  1  0  0  0  0
 13 15  1  0  0  0  0
 14 13  1  0  0  0  0
 15 16  1  0  0  0  0
 15  7  2  0  0  0  0
 17  3  1  0  0  0  0
 17 18  1  0  0  0  0
 18  5  1  0  0  0  0
 19 18  2  0  0  0  0
 19 20  1  0  0  0  0
 21 19  1  0  0  0  0
 22 21  1  0  0  0  0
 23 25  1  0  0  0  0
 23 21  2  0  0  0  0
 24 23  1  0  0  0  0
 25 17  2  0  0  0  0
 26 25  1  0  0  0  0
 27 28  1  0  0  0  0
 28 29  2  0  0  0  0
 28  6  1  0  0  0  0
 29 30  1  0  0  0  0
 31 32  1  0  0  0  0
 31 29  1  0  0  0  0
 33 31  2  0  0  0  0
 34 33  1  0  0  0  0
 35 33  1  0  0  0  0
 35 27  2  0  0  0  0
 36 35  1  0  0  0  0
 37 43  1  0  0  0  0
 38 37  1  0  0  0  0
 39 37  1  0  0  0  0
 39 41  1  0  0  0  0
 40 39  1  0  0  0  0
 42 39  1  0  0  0  0
 43 44  1  0  0  0  0
 43 46  1  0  0  0  0
 45 43  1  0  0  0  0
 47 53  1  0  0  0  0
 48 47  1  0  0  0  0
 49 47  1  0  0  0  0
 49 51  1  0  0  0  0
 49 52  1  0  0  0  0
 50 49  1  0  0  0  0
 53 56  1  0  0  0  0
 53 55  1  0  0  0  0
 54 53  1  0  0  0  0
 57 63  1  0  0  0  0
 58 57  1  0  0  0  0
 59 57  1  0  0  0  0
 59 62  1  0  0  0  0
 60 59  1  0  0  0  0
 61 59  1  0  0  0  0
 63 64  1  0  0  0  0
 63 65  1  0  0  0  0
 66 63  1  0  0  0  0
M  END
$$$$
