CSD_code = FULNEG | q = 0 | S = 0 | Stoichiometry = C27H33Cl2PPtS3 | MND = 4
 OpenBabel04212202043D

 67 70  0  0  0  0  0  0  0  0999 V2000
    2.9454   14.2587    1.8134 Pt  0  0  0  0  0  0  0  0  0  0  0  0
    2.8461   15.7351    0.0375 Cl  0  0  0  0  0  0  0  0  0  0  0  0
    4.4460   12.8645    0.7492 Cl  0  0  0  0  0  0  0  0  0  0  0  0
    1.5755   15.6103    2.9807 P   0  0  0  0  0  4  0  0  0  0  0  0
    3.0025   12.7868    3.6241 S   0  0  2  0  0  3  0  0  0  0  0  0
   -0.2642   13.3298    2.1896 S   0  0  0  0  0  0  0  0  0  0  0  0
    0.2172   18.1601    4.9137 S   0  0  0  0  0  0  0  0  0  0  0  0
    1.1316   14.6753    4.4994 C   0  0  0  0  0  0  0  0  0  0  0  0
    1.8536   13.5148    4.7957 C   0  0  0  0  0  0  0  0  0  0  0  0
    1.5387   12.7570    5.9128 C   0  0  0  0  0  0  0  0  0  0  0  0
    2.0793   11.8437    6.1056 H   0  0  0  0  0  0  0  0  0  0  0  0
    0.5037   13.1399    6.7480 C   0  0  0  0  0  0  0  0  0  0  0  0
    0.2691   12.5488    7.6201 H   0  0  0  0  0  0  0  0  0  0  0  0
   -0.2663   14.2415    6.4185 C   0  0  0  0  0  0  0  0  0  0  0  0
   -1.1199   14.5056    7.0252 H   0  0  0  0  0  0  0  0  0  0  0  0
    0.0365   14.9924    5.2960 C   0  0  0  0  0  0  0  0  0  0  0  0
   -0.5907   15.8242    5.0194 H   0  0  0  0  0  0  0  0  0  0  0  0
    0.0136   16.0349    2.1807 C   0  0  0  0  0  0  0  0  0  0  0  0
   -0.7693   14.9636    1.7341 C   0  0  0  0  0  0  0  0  0  0  0  0
   -1.9071   15.1980    0.9800 C   0  0  0  0  0  0  0  0  0  0  0  0
   -2.5155   14.3686    0.6520 H   0  0  0  0  0  0  0  0  0  0  0  0
   -2.2483   16.4948    0.6376 C   0  0  0  0  0  0  0  0  0  0  0  0
   -3.1294   16.6740    0.0396 H   0  0  0  0  0  0  0  0  0  0  0  0
   -1.4601   17.5574    1.0493 C   0  0  0  0  0  0  0  0  0  0  0  0
   -1.7193   18.5654    0.7637 H   0  0  0  0  0  0  0  0  0  0  0  0
   -0.3296   17.3304    1.8133 C   0  0  0  0  0  0  0  0  0  0  0  0
    0.2992   18.1572    2.1068 H   0  0  0  0  0  0  0  0  0  0  0  0
    2.3715   17.1892    3.4615 C   0  0  0  0  0  0  0  0  0  0  0  0
    1.8637   18.2192    4.2589 C   0  0  0  0  0  0  0  0  0  0  0  0
    2.6259   19.3560    4.4985 C   0  0  0  0  0  0  0  0  0  0  0  0
    2.2079   20.1563    5.0908 H   0  0  0  0  0  0  0  0  0  0  0  0
    3.8973   19.4833    3.9738 C   0  0  0  0  0  0  0  0  0  0  0  0
    4.4737   20.3736    4.1756 H   0  0  0  0  0  0  0  0  0  0  0  0
    4.4072   18.4796    3.1680 C   0  0  0  0  0  0  0  0  0  0  0  0
    5.3881   18.5750    2.7291 H   0  0  0  0  0  0  0  0  0  0  0  0
    3.6447   17.3564    2.9133 C   0  0  0  0  0  0  0  0  0  0  0  0
    4.0283   16.5926    2.2447 H   0  0  0  0  0  0  0  0  0  0  0  0
    4.6722   13.0616    4.3657 C   0  0  0  0  0  0  0  0  0  0  0  0
    5.3193   12.7906    3.5262 H   0  0  0  0  0  0  0  0  0  0  0  0
    4.8997   12.1148    5.5300 C   0  0  0  0  0  0  0  0  0  0  0  0
    4.6302   11.0969    5.2582 H   0  0  0  0  0  0  0  0  0  0  0  0
    4.3192   12.4206    6.3981 H   0  0  0  0  0  0  0  0  0  0  0  0
    5.9527   12.1260    5.8051 H   0  0  0  0  0  0  0  0  0  0  0  0
    4.8722   14.5147    4.7431 C   0  0  0  0  0  0  0  0  0  0  0  0
    4.7574   15.1519    3.8673 H   0  0  0  0  0  0  0  0  0  0  0  0
    5.8760   14.6568    5.1396 H   0  0  0  0  0  0  0  0  0  0  0  0
    4.1535   14.8242    5.5026 H   0  0  0  0  0  0  0  0  0  0  0  0
   -0.2678   12.3970    0.5883 C   0  0  0  0  0  0  0  0  0  0  0  0
   -1.3156   12.2770    0.3010 H   0  0  0  0  0  0  0  0  0  0  0  0
    0.3624   11.0521    0.9065 C   0  0  0  0  0  0  0  0  0  0  0  0
   -0.1663   10.5544    1.7166 H   0  0  0  0  0  0  0  0  0  0  0  0
    1.4007   11.1960    1.2031 H   0  0  0  0  0  0  0  0  0  0  0  0
    0.3395   10.4148    0.0255 H   0  0  0  0  0  0  0  0  0  0  0  0
    0.5173   13.1428   -0.4665 C   0  0  0  0  0  0  0  0  0  0  0  0
    0.0889   14.1205   -0.6780 H   0  0  0  0  0  0  0  0  0  0  0  0
    0.5387   12.5655   -1.3888 H   0  0  0  0  0  0  0  0  0  0  0  0
    1.5492   13.2812   -0.1279 H   0  0  0  0  0  0  0  0  0  0  0  0
    0.5090   18.5204    6.7057 C   0  0  0  0  0  0  0  0  0  0  0  0
    0.8488   19.5567    6.7702 H   0  0  0  0  0  0  0  0  0  0  0  0
    1.5558   17.5811    7.2761 C   0  0  0  0  0  0  0  0  0  0  0  0
    2.5096   17.6998    6.7647 H   0  0  0  0  0  0  0  0  0  0  0  0
    1.2329   16.5467    7.1739 H   0  0  0  0  0  0  0  0  0  0  0  0
    1.7038   17.7982    8.3326 H   0  0  0  0  0  0  0  0  0  0  0  0
   -0.8327   18.3747    7.4032 C   0  0  0  0  0  0  0  0  0  0  0  0
   -1.5767   19.0192    6.9407 H   0  0  0  0  0  0  0  0  0  0  0  0
   -0.7368   18.6485    8.4518 H   0  0  0  0  0  0  0  0  0  0  0  0
   -1.1800   17.3460    7.3411 H   0  0  0  0  0  0  0  0  0  0  0  0
  1  4  1  0  0  0  0
  1  5  1  0  0  0  0
  2  1  1  0  0  0  0
  3  1  1  0  0  0  0
  4 28  1  0  0  0  0
  4  8  1  0  0  0  0
  5 38  1  1  0  0  0
  5  9  1  0  0  0  0
  7 58  1  0  0  0  0
  8  9  2  0  0  0  0
  8 16  1  0  0  0  0
  9 10  1  0  0  0  0
 10 11  1  0  0  0  0
 10 12  2  0  0  0  0
 12 13  1  0  0  0  0
 14 12  1  0  0  0  0
 14 15  1  0  0  0  0
 16 14  2  0  0  0  0
 17 16  1  0  0  0  0
 18  4  1  0  0  0  0
 19 18  2  0  0  0  0
 19  6  1  0  0  0  0
 20 19  1  0  0  0  0
 21 20  1  0  0  0  0
 22 20  2  0  0  0  0
 22 24  1  0  0  0  0
 23 22  1  0  0  0  0
 24 26  2  0  0  0  0
 25 24  1  0  0  0  0
 26 27  1  0  0  0  0
 26 18  1  0  0  0  0
 28 29  1  0  0  0  0
 29 30  2  0  0  0  0
 29  7  1  0  0  0  0
 30 31  1  0  0  0  0
 32 33  1  0  0  0  0
 32 30  1  0  0  0  0
 34 32  2  0  0  0  0
 35 34  1  0  0  0  0
 36 34  1  0  0  0  0
 36 28  2  0  0  0  0
 37 36  1  0  0  0  0
 38 44  1  0  0  0  0
 38 40  1  0  0  0  0
 39 38  1  0  0  0  0
 40 43  1  0  0  0  0
 40 42  1  0  0  0  0
 41 40  1  0  0  0  0
 44 46  1  0  0  0  0
 44 47  1  0  0  0  0
 45 44  1  0  0  0  0
 48 50  1  0  0  0  0
 48  6  1  0  0  0  0
 49 48  1  0  0  0  0
 50 52  1  0  0  0  0
 50 51  1  0  0  0  0
 53 50  1  0  0  0  0
 54 57  1  0  0  0  0
 54 48  1  0  0  0  0
 55 54  1  0  0  0  0
 56 54  1  0  0  0  0
 58 59  1  0  0  0  0
 58 60  1  0  0  0  0
 58 64  1  0  0  0  0
 60 63  1  0  0  0  0
 61 60  1  0  0  0  0
 62 60  1  0  0  0  0
 64 66  1  0  0  0  0
 65 64  1  0  0  0  0
 67 64  1  0  0  0  0
M  END
$$$$
