CSD_code = FULXAM | q = 0 | S = 0 | Stoichiometry = C20H17FN2Pd | MND = 4
 OpenBabel04212202043D

 41 45  0  0  1  0  0  0  0  0999 V2000
    0.5611    9.5882    5.1015 Pd  0  0  2  0  0  0  0  0  0  0  0  0
   -1.1805   10.6558    5.2077 F   0  0  0  0  0  0  0  0  0  0  0  0
    1.6519   11.2245    4.8829 N   0  0  0  0  0  0  0  0  0  0  0  0
   -0.4997    7.9655    5.3190 N   0  0  0  0  0  0  0  0  0  0  0  0
    1.2211   12.4709    4.8394 C   0  0  0  0  0  0  0  0  0  0  0  0
    0.1517   12.6201    4.9295 H   0  0  0  0  0  0  0  0  0  0  0  0
    2.0906   13.5541    4.6855 C   0  0  0  0  0  0  0  0  0  0  0  0
    1.6870   14.5541    4.6558 H   0  0  0  0  0  0  0  0  0  0  0  0
    3.4450   13.3348    4.5743 C   0  0  0  0  0  0  0  0  0  0  0  0
    4.1358   14.1574    4.4552 H   0  0  0  0  0  0  0  0  0  0  0  0
    3.9268   12.0177    4.6170 C   0  0  0  0  0  0  0  0  0  0  0  0
    5.2998   11.6494    4.5129 C   0  0  0  0  0  0  0  0  0  0  0  0
    6.0293   12.4378    4.3938 H   0  0  0  0  0  0  0  0  0  0  0  0
    5.6845   10.3489    4.5608 C   0  0  0  0  0  0  0  0  0  0  0  0
    6.7309   10.0886    4.4795 H   0  0  0  0  0  0  0  0  0  0  0  0
    4.7415    9.2910    4.7172 C   0  0  0  0  0  0  0  0  0  0  0  0
    5.0876    7.9332    4.7704 C   0  0  0  0  0  0  0  0  0  0  0  0
    6.1254    7.6421    4.6900 H   0  0  0  0  0  0  0  0  0  0  0  0
    4.1029    6.9859    4.9241 C   0  0  0  0  0  0  0  0  0  0  0  0
    4.3734    5.9391    4.9642 H   0  0  0  0  0  0  0  0  0  0  0  0
    2.7520    7.3408    5.0309 C   0  0  0  0  0  0  0  0  0  0  0  0
    2.0234    6.5453    5.1513 H   0  0  0  0  0  0  0  0  0  0  0  0
    2.3454    8.6642    4.9855 C   0  0  0  0  0  0  0  0  0  0  0  0
    3.3758    9.6224    4.8257 C   0  0  0  0  0  0  0  0  0  0  0  0
    2.9781   10.9877    4.7741 C   0  0  0  0  0  0  0  0  0  0  0  0
   -0.7997    7.5413    6.5482 C   0  0  2  0  0  3  0  0  0  0  0  0
   -1.6500    6.4614    6.7405 C   0  0  0  0  0  0  0  0  0  0  0  0
   -1.8815    6.1271    7.7395 H   0  0  0  0  0  0  0  0  0  0  0  0
   -2.2013    5.8321    5.6359 C   0  0  0  0  0  0  0  0  0  0  0  0
   -2.8649    4.9900    5.7602 H   0  0  0  0  0  0  0  0  0  0  0  0
   -1.9018    6.3102    4.3703 C   0  0  0  0  0  0  0  0  0  0  0  0
   -2.3328    5.8562    3.4920 H   0  0  0  0  0  0  0  0  0  0  0  0
   -1.0446    7.3942    4.2431 C   0  0  0  0  0  0  0  0  0  0  0  0
   -0.1840    8.3119    7.6745 C   0  0  0  0  0  0  0  0  0  0  0  0
    0.9103    8.2480    7.6134 H   0  0  0  0  0  0  0  0  0  0  0  0
   -0.5144    7.9383    8.6403 H   0  0  0  0  0  0  0  0  0  0  0  0
   -0.4741    9.3686    7.5748 H   0  0  0  0  0  0  0  0  0  0  0  0
   -0.6890    8.0096    2.9255 C   0  0  0  0  0  0  0  0  0  0  0  0
   -0.9730    9.0723    2.9485 H   0  0  0  0  0  0  0  0  0  0  0  0
   -1.2039    7.5180    2.1041 H   0  0  0  0  0  0  0  0  0  0  0  0
    0.3957    7.9464    2.7669 H   0  0  0  0  0  0  0  0  0  0  0  0
  1  2  1  1  0  0  0
  1  4  1  0  0  0  0
  3  1  1  0  0  0  0
  4 26  1  0  0  0  0
  5  3  1  0  0  0  0
  5  6  1  0  0  0  0
  7  5  2  0  0  0  0
  8  7  1  0  0  0  0
  9 11  2  0  0  0  0
  9  7  1  0  0  0  0
 10  9  1  0  0  0  0
 11 25  1  0  0  0  0
 12 14  2  0  0  0  0
 12 11  1  0  0  0  0
 13 12  1  0  0  0  0
 14 16  1  0  0  0  0
 15 14  1  0  0  0  0
 16 17  2  0  0  0  0
 16 24  1  0  0  0  0
 17 19  1  0  0  0  0
 18 17  1  0  0  0  0
 19 20  1  0  0  0  0
 19 21  2  0  0  0  0
 21 22  1  0  0  0  0
 23 21  1  0  0  0  0
 23  1  2  0  0  0  0
 24 23  1  0  0  0  0
 25 24  2  0  0  0  0
 25  3  1  0  0  0  0
 26 27  1  0  0  0  0
 26 34  1  1  0  0  0
 27 28  1  0  0  0  0
 29 30  1  0  0  0  0
 29 27  2  0  0  0  0
 31 29  1  0  0  0  0
 32 31  1  0  0  0  0
 33 31  2  0  0  0  0
 33  4  1  0  0  0  0
 34 36  1  0  0  0  0
 35 34  1  0  0  0  0
 37 34  1  0  0  0  0
 38 39  1  0  0  0  0
 38 33  1  0  0  0  0
 40 38  1  0  0  0  0
 41 38  1  0  0  0  0
M  END
$$$$
