CSD_code = FULXIU | q = 0 | S = 0 | Stoichiometry = C12H19FN2Pd | MND = 4
 OpenBabel04212202043D

 35 37  0  0  0  0  0  0  0  0999 V2000
    2.7254    5.9778    2.1628 Pd  0  0  0  0  0  0  0  0  0  0  0  0
    1.8260    6.9973    0.6173 F   0  0  0  0  0  0  0  0  0  0  0  0
    4.4230    7.1653    2.3412 N   0  0  0  0  0  4  0  0  0  0  0  0
    1.2805    4.5036    2.4149 N   0  0  0  0  0  4  0  0  0  0  0  0
    5.1255    6.9024    3.6273 C   0  0  0  0  0  0  0  0  0  0  0  0
    6.2131    6.9777    3.4856 H   0  0  0  0  0  0  0  0  0  0  0  0
    4.8309    7.6765    4.3454 H   0  0  0  0  0  0  0  0  0  0  0  0
    4.7101    5.5562    4.1805 C   0  0  0  0  0  0  0  0  0  0  0  0
    5.3220    4.8615    5.2133 C   0  0  0  0  0  0  0  0  0  0  0  0
    6.2189    5.2428    5.6826 H   0  0  0  0  0  0  0  0  0  0  0  0
    4.7675    3.6653    5.6500 C   0  0  0  0  0  0  0  0  0  0  0  0
    5.2422    3.1279    6.4581 H   0  0  0  0  0  0  0  0  0  0  0  0
    3.6175    3.1433    5.0722 C   0  0  0  0  0  0  0  0  0  0  0  0
    3.2090    2.2092    5.4337 H   0  0  0  0  0  0  0  0  0  0  0  0
    3.0108    3.8279    4.0295 C   0  0  0  0  0  0  0  0  0  0  0  0
    3.5635    5.0281    3.5996 C   0  0  0  0  0  0  0  0  0  0  0  0
    1.8049    3.3762    3.2342 C   0  0  0  0  0  0  0  0  0  0  0  0
    1.0084    2.9743    3.8766 H   0  0  0  0  0  0  0  0  0  0  0  0
    2.1192    2.5742    2.5562 H   0  0  0  0  0  0  0  0  0  0  0  0
    5.2262    6.6858    1.2140 C   0  0  0  0  0  0  0  0  0  0  0  0
    4.6435    6.7864    0.2924 H   0  0  0  0  0  0  0  0  0  0  0  0
    5.4803    5.6319    1.3664 H   0  0  0  0  0  0  0  0  0  0  0  0
    6.1549    7.2673    1.1164 H   0  0  0  0  0  0  0  0  0  0  0  0
    4.1186    8.5818    2.1672 C   0  0  0  0  0  0  0  0  0  0  0  0
    5.0336    9.1892    2.1255 H   0  0  0  0  0  0  0  0  0  0  0  0
    3.4931    8.9271    2.9928 H   0  0  0  0  0  0  0  0  0  0  0  0
    3.5580    8.7073    1.2391 H   0  0  0  0  0  0  0  0  0  0  0  0
    0.7438    4.0444    1.1381 C   0  0  0  0  0  0  0  0  0  0  0  0
   -0.1105    3.3676    1.2791 H   0  0  0  0  0  0  0  0  0  0  0  0
    1.5247    3.5282    0.5759 H   0  0  0  0  0  0  0  0  0  0  0  0
    0.4255    4.9137    0.5598 H   0  0  0  0  0  0  0  0  0  0  0  0
    0.2501    5.2360    3.1546 C   0  0  0  0  0  0  0  0  0  0  0  0
   -0.0385    6.1228    2.5807 H   0  0  0  0  0  0  0  0  0  0  0  0
    0.6476    5.5490    4.1255 H   0  0  0  0  0  0  0  0  0  0  0  0
   -0.6391    4.6090    3.3172 H   0  0  0  0  0  0  0  0  0  0  0  0
  1  3  1  0  0  0  0
  1  4  1  0  0  0  0
  1 16  1  0  0  0  0
  2  1  1  0  0  0  0
  3  5  1  0  0  0  0
  4 32  1  0  0  0  0
  4 17  1  0  0  0  0
  5  8  1  0  0  0  0
  5  7  1  0  0  0  0
  6  5  1  0  0  0  0
  8  9  1  0  0  0  0
  9 11  2  0  0  0  0
  9 10  1  0  0  0  0
 11 12  1  0  0  0  0
 13 14  1  0  0  0  0
 13 11  1  0  0  0  0
 15 13  2  0  0  0  0
 16 15  1  0  0  0  0
 16  8  2  0  0  0  0
 17 18  1  0  0  0  0
 17 15  1  0  0  0  0
 19 17  1  0  0  0  0
 20 22  1  0  0  0  0
 20  3  1  0  0  0  0
 21 20  1  0  0  0  0
 23 20  1  0  0  0  0
 24  3  1  0  0  0  0
 24 26  1  0  0  0  0
 25 24  1  0  0  0  0
 27 24  1  0  0  0  0
 28 29  1  0  0  0  0
 28  4  1  0  0  0  0
 30 28  1  0  0  0  0
 31 28  1  0  0  0  0
 32 35  1  0  0  0  0
 32 34  1  0  0  0  0
 33 32  1  0  0  0  0
M  END
$$$$
