CSD_code = FUMKIH | q = 0 | S = 0 | Stoichiometry = C18H18Br2N4NiS2 | MND = 6
 OpenBabel04212202043D

 45 51  0  0  1  0  0  0  0  0999 V2000
    0.0000    0.0000    0.0318 Ni  0  0  0  0  0  0  0  0  0  0  0  0
    1.4156    0.7315   -1.5430 Br  0  0  0  0  0  0  0  0  0  0  0  0
    1.2802    2.6159    1.3942 C   0  0  0  0  0  0  0  0  0  0  0  0
    1.4360    0.8354    1.7391 S   0  0  1  0  0  3  0  0  0  0  0  0
    0.3262    0.6834    3.1882 C   0  0  0  0  0  0  0  0  0  0  0  0
   -0.6152    4.2124    1.0202 N   0  0  0  0  0  0  0  0  0  0  0  0
   -0.0913    2.9569    0.9366 C   0  0  1  0  0  3  0  0  0  0  0  0
   -0.9235    2.0997    0.4129 N   0  0  0  0  0  0  0  0  0  0  0  0
   -2.0633    2.8041    0.1023 C   0  0  0  0  0  0  0  0  0  0  0  0
   -3.2527    2.3827   -0.4795 C   0  0  0  0  0  0  0  0  0  0  0  0
   -4.2318    3.3357   -0.6642 C   0  0  0  0  0  0  0  0  0  0  0  0
   -4.0469    4.6670   -0.2846 C   0  0  0  0  0  0  0  0  0  0  0  0
   -2.8702    5.1018    0.2929 C   0  0  0  0  0  0  0  0  0  0  0  0
   -1.8806    4.1517    0.4791 C   0  0  0  0  0  0  0  0  0  0  0  0
    2.0031    2.7993    0.5930 H   0  0  0  0  0  0  0  0  0  0  0  0
    1.5686    3.1762    2.2860 H   0  0  0  0  0  0  0  0  0  0  0  0
   -0.4294    1.4674    3.1220 H   0  0  0  0  0  0  0  0  0  0  0  0
    0.9255    0.8248    4.0907 H   0  0  0  0  0  0  0  0  0  0  0  0
   -0.1378    5.0411    1.3329 H   0  0  0  0  0  0  0  0  0  0  0  0
   -3.3830    1.3575   -0.7851 H   0  0  0  0  0  0  0  0  0  0  0  0
   -5.1679    3.0493   -1.1187 H   0  0  0  0  0  0  0  0  0  0  0  0
   -4.8435    5.3765   -0.4512 H   0  0  0  0  0  0  0  0  0  0  0  0
   -2.7262    6.1327    0.5801 H   0  0  0  0  0  0  0  0  0  0  0  0
   -1.4156   -0.7315   -1.5430 Br  0  0  0  0  0  0  0  0  0  0  0  0
   -1.4360   -0.8354    1.7391 S   0  0  2  0  0  3  0  0  0  0  0  0
    0.9235   -2.0997    0.4129 N   0  0  0  0  0  0  0  0  0  0  0  0
   -0.3262   -0.6834    3.1882 C   0  0  0  0  0  0  0  0  0  0  0  0
   -1.2802   -2.6159    1.3942 C   0  0  0  0  0  0  0  0  0  0  0  0
    0.0913   -2.9569    0.9366 C   0  0  1  0  0  3  0  0  0  0  0  0
    2.0633   -2.8041    0.1023 C   0  0  0  0  0  0  0  0  0  0  0  0
    0.4294   -1.4674    3.1220 H   0  0  0  0  0  0  0  0  0  0  0  0
   -0.9255   -0.8248    4.0907 H   0  0  0  0  0  0  0  0  0  0  0  0
   -2.0031   -2.7993    0.5930 H   0  0  0  0  0  0  0  0  0  0  0  0
   -1.5686   -3.1762    2.2860 H   0  0  0  0  0  0  0  0  0  0  0  0
    0.6152   -4.2124    1.0202 N   0  0  0  0  0  0  0  0  0  0  0  0
    3.2527   -2.3827   -0.4795 C   0  0  0  0  0  0  0  0  0  0  0  0
    1.8806   -4.1517    0.4791 C   0  0  0  0  0  0  0  0  0  0  0  0
    0.1378   -5.0411    1.3329 H   0  0  0  0  0  0  0  0  0  0  0  0
    4.2318   -3.3357   -0.6642 C   0  0  0  0  0  0  0  0  0  0  0  0
    3.3830   -1.3575   -0.7850 H   0  0  0  0  0  0  0  0  0  0  0  0
    2.8702   -5.1018    0.2929 C   0  0  0  0  0  0  0  0  0  0  0  0
    4.0469   -4.6670   -0.2846 C   0  0  0  0  0  0  0  0  0  0  0  0
    5.1679   -3.0493   -1.1187 H   0  0  0  0  0  0  0  0  0  0  0  0
    2.7262   -6.1327    0.5801 H   0  0  0  0  0  0  0  0  0  0  0  0
    4.8435   -5.3765   -0.4512 H   0  0  0  0  0  0  0  0  0  0  0  0
  1  8  1  0  0  0  0
  1 26  1  0  0  0  0
  1 25  1  0  0  0  0
  1  4  1  0  0  0  0
  2  1  1  0  0  0  0
  3 16  1  0  0  0  0
  4  3  1  6  0  0  0
  4  5  1  0  0  0  0
  5 27  1  0  0  0  0
  5 18  1  0  0  0  0
  6 19  1  0  0  0  0
  7  8  1  6  0  0  0
  7  6  1  0  0  0  0
  7  3  1  0  0  0  0
  9  8  1  0  0  0  0
  9 14  1  0  0  0  0
 10  9  2  0  0  0  0
 11 10  1  0  0  0  0
 11 12  2  0  0  0  0
 12 13  1  0  0  0  0
 13 14  2  0  0  0  0
 13 23  1  0  0  0  0
 14  6  1  0  0  0  0
 15  3  1  0  0  0  0
 17  5  1  0  0  0  0
 20 10  1  0  0  0  0
 21 11  1  0  0  0  0
 22 12  1  0  0  0  0
 24  1  1  0  0  0  0
 25 28  1  6  0  0  0
 25 27  1  0  0  0  0
 27 32  1  0  0  0  0
 28 34  1  0  0  0  0
 29 26  1  6  0  0  0
 29 35  1  0  0  0  0
 29 28  1  0  0  0  0
 30 26  1  0  0  0  0
 30 37  1  0  0  0  0
 31 27  1  0  0  0  0
 33 28  1  0  0  0  0
 35 38  1  0  0  0  0
 36 30  2  0  0  0  0
 37 35  1  0  0  0  0
 39 36  1  0  0  0  0
 39 42  2  0  0  0  0
 40 36  1  0  0  0  0
 41 37  2  0  0  0  0
 41 44  1  0  0  0  0
 42 41  1  0  0  0  0
 43 39  1  0  0  0  0
 45 42  1  0  0  0  0
M  END
$$$$
