CSD_code = FUNNUX | q = 0 | S = 0 | Stoichiometry = C8H21ClPtS2 | MND = 6
 OpenBabel04212202043D

 33 33  0  0  0  0  0  0  0  0999 V2000
   -1.5402    9.6779   17.6116 Pt  0  0  0  0  0  0  0  0  0  0  0  0
   -1.8101    8.4600   15.4965 Cl  0  0  0  0  0  0  0  0  0  0  0  0
    1.0612    8.9697   17.5664 S   0  0  2  0  0  3  0  0  0  0  0  0
   -0.7278   11.5525   15.9507 S   0  0  2  0  0  3  0  0  0  0  0  0
   -3.5086   10.2486   17.5442 C   0  0  0  0  0  0  0  0  0  0  0  0
   -2.0648    8.0840   18.7884 C   0  0  0  0  0  0  0  0  0  0  0  0
   -1.2428   10.8159   19.2968 C   0  0  0  0  0  0  0  0  0  0  0  0
    1.7008   10.1944   16.3698 C   0  0  0  0  0  0  0  0  0  0  0  0
    0.7086   10.6358   15.3127 C   0  0  0  0  0  0  0  0  0  0  0  0
    1.1509    7.4392   16.5658 C   0  0  0  0  0  0  0  0  0  0  0  0
    1.1254    6.2291   17.4776 C   0  0  0  0  0  0  0  0  0  0  0  0
    0.0920   12.9772   16.7365 C   0  0  0  0  0  0  0  0  0  0  0  0
   -3.5563   11.0435   16.7966 H   0  0  0  0  0  0  0  0  0  0  0  0
   -3.8883   10.6108   18.4979 H   0  0  0  0  0  0  0  0  0  0  0  0
   -4.1069    9.4025   17.2073 H   0  0  0  0  0  0  0  0  0  0  0  0
   -2.2562    7.2492   18.1120 H   0  0  0  0  0  0  0  0  0  0  0  0
   -2.9493    8.2610   19.3983 H   0  0  0  0  0  0  0  0  0  0  0  0
   -1.2187    7.8527   19.4394 H   0  0  0  0  0  0  0  0  0  0  0  0
   -1.5458   11.8452   19.0987 H   0  0  0  0  0  0  0  0  0  0  0  0
   -0.1753   10.8010   19.5264 H   0  0  0  0  0  0  0  0  0  0  0  0
   -1.7789   10.4727   20.1782 H   0  0  0  0  0  0  0  0  0  0  0  0
    2.5712    9.7411   15.8915 H   0  0  0  0  0  0  0  0  0  0  0  0
    2.0403   11.0374   16.9739 H   0  0  0  0  0  0  0  0  0  0  0  0
    1.2032   11.2777   14.5798 H   0  0  0  0  0  0  0  0  0  0  0  0
    0.2645    9.7772   14.8032 H   0  0  0  0  0  0  0  0  0  0  0  0
    2.0879    7.4916   16.0095 H   0  0  0  0  0  0  0  0  0  0  0  0
    0.2973    7.4360   15.8847 H   0  0  0  0  0  0  0  0  0  0  0  0
    1.2219    5.3254   16.8797 H   0  0  0  0  0  0  0  0  0  0  0  0
    0.1850    6.1829   18.0208 H   0  0  0  0  0  0  0  0  0  0  0  0
    1.9430    6.2647   18.1955 H   0  0  0  0  0  0  0  0  0  0  0  0
   -0.6929   13.6920   16.9609 H   0  0  0  0  0  0  0  0  0  0  0  0
    0.7923   13.4114   16.0287 H   0  0  0  0  0  0  0  0  0  0  0  0
    0.5935   12.6886   17.6547 H   0  0  0  0  0  0  0  0  0  0  0  0
  1  6  1  0  0  0  0
  1  7  1  0  0  0  0
  2  1  1  0  0  0  0
  3 10  1  6  0  0  0
  3  1  1  0  0  0  0
  4 12  1  1  0  0  0
  4  1  1  0  0  0  0
  5  1  1  0  0  0  0
  5 14  1  0  0  0  0
  6 17  1  0  0  0  0
  6 18  1  0  0  0  0
  7 20  1  0  0  0  0
  7 21  1  0  0  0  0
  8 23  1  0  0  0  0
  8  3  1  0  0  0  0
  9  4  1  0  0  0  0
  9  8  1  0  0  0  0
 10 11  1  0  0  0  0
 11 29  1  0  0  0  0
 11 30  1  0  0  0  0
 12 31  1  0  0  0  0
 12 33  1  0  0  0  0
 13  5  1  0  0  0  0
 15  5  1  0  0  0  0
 16  6  1  0  0  0  0
 19  7  1  0  0  0  0
 22  8  1  0  0  0  0
 24  9  1  0  0  0  0
 25  9  1  0  0  0  0
 26 10  1  0  0  0  0
 27 10  1  0  0  0  0
 28 11  1  0  0  0  0
 32 12  1  0  0  0  0
M  END
$$$$
