CSD_code = FUNPAF | q = 0 | S = 0 | Stoichiometry = C10H25IPtS2 | MND = 6
 OpenBabel04212202043D

 39 39  0  0  0  0  0  0  0  0999 V2000
   10.7285    5.8617    0.8922 Pt  0  0  0  0  0  0  0  0  0  0  0  0
    8.4097    6.7269   -0.1956 I   0  0  0  0  0  0  0  0  0  0  0  0
   10.5752    3.3980   -0.2847 S   0  0  1  0  0  3  0  0  0  0  0  0
    9.0710    4.7090    2.6067 S   0  0  1  0  0  3  0  0  0  0  0  0
   10.9192    7.6078    1.9570 C   0  0  0  0  0  0  0  0  0  0  0  0
   11.9909    6.6259   -0.5392 C   0  0  0  0  0  0  0  0  0  0  0  0
   12.3785    5.1148    1.8655 C   0  0  0  0  0  0  0  0  0  0  0  0
    9.5613    2.4958    0.9379 C   0  0  0  0  0  0  0  0  0  0  0  0
    8.4686    3.3258    1.5854 C   0  0  0  0  0  0  0  0  0  0  0  0
    9.8059    3.7960    3.9923 C   0  0  0  0  0  0  0  0  0  0  0  0
    9.7757    3.0574   -1.9403 C   0  0  0  0  0  0  0  0  0  0  0  0
    8.2612    3.1532   -1.8943 C   0  0  0  0  0  0  0  0  0  0  0  0
   10.2316    1.6648   -2.3570 C   0  0  0  0  0  0  0  0  0  0  0  0
   10.3525    4.1208   -2.8651 C   0  0  0  0  0  0  0  0  0  0  0  0
   10.7604    8.4600    1.2949 H   0  0  0  0  0  0  0  0  0  0  0  0
   11.8839    7.7068    2.4515 H   0  0  0  0  0  0  0  0  0  0  0  0
   10.1192    7.5729    2.7023 H   0  0  0  0  0  0  0  0  0  0  0  0
   11.3953    7.1726   -1.2724 H   0  0  0  0  0  0  0  0  0  0  0  0
   12.4793    5.7757   -1.0214 H   0  0  0  0  0  0  0  0  0  0  0  0
   12.7521    7.2924   -0.1353 H   0  0  0  0  0  0  0  0  0  0  0  0
   12.4771    4.0592    1.5998 H   0  0  0  0  0  0  0  0  0  0  0  0
   12.2313    5.1913    2.9443 H   0  0  0  0  0  0  0  0  0  0  0  0
   13.3174    5.6063    1.6220 H   0  0  0  0  0  0  0  0  0  0  0  0
   10.2698    2.1320    1.6850 H   0  0  0  0  0  0  0  0  0  0  0  0
    9.1296    1.6326    0.4316 H   0  0  0  0  0  0  0  0  0  0  0  0
    7.8247    3.7889    0.8375 H   0  0  0  0  0  0  0  0  0  0  0  0
    7.8566    2.6987    2.2378 H   0  0  0  0  0  0  0  0  0  0  0  0
   10.1123    4.5389    4.7221 H   0  0  0  0  0  0  0  0  0  0  0  0
   10.6692    3.2207    3.6716 H   0  0  0  0  0  0  0  0  0  0  0  0
    9.0474    3.1476    4.4227 H   0  0  0  0  0  0  0  0  0  0  0  0
    7.9387    4.1390   -1.5696 H   0  0  0  0  0  0  0  0  0  0  0  0
    7.8203    2.3964   -1.2479 H   0  0  0  0  0  0  0  0  0  0  0  0
    7.8725    2.9958   -2.8991 H   0  0  0  0  0  0  0  0  0  0  0  0
   11.3180    1.6074   -2.3752 H   0  0  0  0  0  0  0  0  0  0  0  0
    9.8564    1.4378   -3.3530 H   0  0  0  0  0  0  0  0  0  0  0  0
    9.8582    0.9029   -1.6741 H   0  0  0  0  0  0  0  0  0  0  0  0
   10.0346    5.1122   -2.5510 H   0  0  0  0  0  0  0  0  0  0  0  0
   10.0020    3.9557   -3.8816 H   0  0  0  0  0  0  0  0  0  0  0  0
   11.4405    4.0851   -2.8629 H   0  0  0  0  0  0  0  0  0  0  0  0
  1  7  1  0  0  0  0
  1  5  1  0  0  0  0
  1  4  1  0  0  0  0
  2  1  1  0  0  0  0
  3 11  1  6  0  0  0
  3  1  1  0  0  0  0
  3  8  1  0  0  0  0
  4 10  1  1  0  0  0
  5 16  1  0  0  0  0
  5 17  1  0  0  0  0
  6 20  1  0  0  0  0
  6  1  1  0  0  0  0
  7 22  1  0  0  0  0
  8  9  1  0  0  0  0
  8 24  1  0  0  0  0
  9 27  1  0  0  0  0
  9  4  1  0  0  0  0
 10 30  1  0  0  0  0
 10 28  1  0  0  0  0
 11 12  1  0  0  0  0
 12 31  1  0  0  0  0
 12 32  1  0  0  0  0
 13 11  1  0  0  0  0
 13 36  1  0  0  0  0
 14 39  1  0  0  0  0
 14 37  1  0  0  0  0
 14 11  1  0  0  0  0
 15  5  1  0  0  0  0
 18  6  1  0  0  0  0
 19  6  1  0  0  0  0
 21  7  1  0  0  0  0
 23  7  1  0  0  0  0
 25  8  1  0  0  0  0
 26  9  1  0  0  0  0
 29 10  1  0  0  0  0
 33 12  1  0  0  0  0
 34 13  1  0  0  0  0
 35 13  1  0  0  0  0
 38 14  1  0  0  0  0
M  END
$$$$
