CSD_code = FUNPOT | q = -1 | S = 0 | Stoichiometry = C8H8I3NO2Rh(1-) | MND = 6
 OpenBabel04212202043D

 23 23  0  0  0  0  0  0  0  0999 V2000
   -0.5253   -2.9738    2.6317 I   0  0  0  0  0  0  0  0  0  0  0  0
   -2.0091    0.6973    6.2869 I   0  0  0  0  0  0  0  0  0  0  0  0
   -4.2357   -1.5685    3.6016 I   0  0  0  0  0  0  0  0  0  0  0  0
   -1.5632   -1.0903    4.2879 Rh  0  0  0  0  0  0  0  0  0  0  0  0
   -2.0999   -3.2622    6.2437 O   0  0  0  0  0  1  0  0  0  0  0  0
    0.9630    0.1612    4.1711 O   0  0  0  0  0  0  0  0  0  0  0  0
   -1.4884    0.4536    2.8022 N   0  0  0  0  0  0  0  0  0  0  0  0
   -1.8562   -2.4246    5.5016 C   0  0  0  0  0  2  0  0  0  0  0  0
    0.3720   -0.7106    4.7502 C   0  0  0  0  0  0  0  0  0  0  0  0
    1.0310   -1.5465    5.8296 C   0  0  0  0  0  0  0  0  0  0  0  0
   -2.4431    1.3865    2.8034 C   0  0  0  0  0  3  0  0  0  0  0  0
   -2.5043    2.4058    1.8713 C   0  0  0  0  0  0  0  0  0  0  0  0
   -1.5382    2.4730    0.8827 C   0  0  0  0  0  0  0  0  0  0  0  0
   -0.5490    1.5057    0.8765 C   0  0  0  0  0  0  0  0  0  0  0  0
   -0.5607    0.5213    1.8485 C   0  0  0  0  0  0  0  0  0  0  0  0
    0.5152   -1.4098    6.7801 H   0  0  0  0  0  0  0  0  0  0  0  0
    0.9980   -2.6041    5.5680 H   0  0  0  0  0  0  0  0  0  0  0  0
    2.0710   -1.2323    5.9365 H   0  0  0  0  0  0  0  0  0  0  0  0
   -3.2033    1.3299    3.5713 H   0  0  0  0  0  0  0  0  0  0  0  0
   -3.3036    3.1279    1.9294 H   0  0  0  0  0  0  0  0  0  0  0  0
   -1.5570    3.2555    0.1375 H   0  0  0  0  0  0  0  0  0  0  0  0
    0.2293    1.5015    0.1293 H   0  0  0  0  0  0  0  0  0  0  0  0
    0.2120   -0.2344    1.8431 H   0  0  0  0  0  0  0  0  0  0  0  0
  1  4  1  0  0  0  0
  3  4  1  0  0  0  0
  4  9  1  0  0  0  0
  4  8  1  0  0  0  0
  4  2  1  0  0  0  0
  6  9  2  0  0  0  0
  7 11  1  0  0  0  0
  7  4  1  0  0  0  0
  8  5  1  0  0  0  0
  9 10  1  0  0  0  0
 10 18  1  0  0  0  0
 10 16  1  0  0  0  0
 11 19  1  0  0  0  0
 12 20  1  0  0  0  0
 12 11  1  0  0  0  0
 13 12  2  0  0  0  0
 14 13  1  0  0  0  0
 14 15  2  0  0  0  0
 15  7  1  0  0  0  0
 17 10  1  0  0  0  0
 21 13  1  0  0  0  0
 22 14  1  0  0  0  0
 23 15  1  0  0  0  0
M  END
$$$$
