CSD_code = FUPCOJ | q = 0 | S = 0 | Stoichiometry = C14H26Br2N6Ni | MND = 4
 OpenBabel04212202043D

 49 50  0  0  1  0  0  0  0  0999 V2000
    0.0850    0.0682    8.2507 Ni  0  0  0  0  0  0  0  0  0  0  0  0
    0.3227    0.1087   10.5414 Br  0  0  0  0  0  0  0  0  0  0  0  0
   -0.1348    0.0351    5.9564 Br  0  0  0  0  0  0  0  0  0  0  0  0
   -0.4024    2.8373    8.2645 N   0  0  0  0  0  0  0  0  0  0  0  0
    1.6841    2.5715    7.9864 N   0  0  0  0  0  0  0  0  0  0  0  0
    0.1075    4.0760    8.1675 N   0  0  0  0  0  0  0  0  0  0  0  0
   -1.5427   -2.3898    8.6231 N   0  0  0  0  0  0  0  0  0  0  0  0
    0.5034   -2.7286    8.1740 N   0  0  0  0  0  0  0  0  0  0  0  0
   -0.0416   -3.9485    8.3108 N   0  0  0  0  0  0  0  0  0  0  0  0
    0.5278    1.8901    8.1621 C   0  0  2  0  0  3  0  0  0  0  0  0
    1.3764    3.8962    8.0028 C   0  0  0  0  0  0  0  0  0  0  0  0
    2.0934    4.6819    7.8852 H   0  0  0  0  0  0  0  0  0  0  0  0
   -1.8220    2.6159    8.4430 C   0  0  0  0  0  0  0  0  0  0  0  0
   -1.9530    1.5173    8.4717 H   0  0  0  0  0  0  0  0  0  0  0  0
   -2.2654    3.2244    9.7676 C   0  0  0  0  0  0  0  0  0  0  0  0
   -1.7222    2.7696   10.5936 H   0  0  0  0  0  0  0  0  0  0  0  0
   -3.3288    3.0588    9.9159 H   0  0  0  0  0  0  0  0  0  0  0  0
   -2.0691    4.2937    9.7626 H   0  0  0  0  0  0  0  0  0  0  0  0
   -2.5749    3.1912    7.2499 C   0  0  0  0  0  0  0  0  0  0  0  0
   -2.3914    4.2606    7.1825 H   0  0  0  0  0  0  0  0  0  0  0  0
   -3.6414    3.0192    7.3645 H   0  0  0  0  0  0  0  0  0  0  0  0
   -2.2419    2.7175    6.3284 H   0  0  0  0  0  0  0  0  0  0  0  0
    2.9951    1.9846    7.8589 C   0  0  0  0  0  0  0  0  0  0  0  0
    2.8716    0.9970    7.4000 H   0  0  0  0  0  0  0  0  0  0  0  0
    3.5898    2.6100    7.1876 H   0  0  0  0  0  0  0  0  0  0  0  0
    3.6702    1.8532    9.2202 C   0  0  0  0  0  0  0  0  0  0  0  0
    3.8095    2.8318    9.6747 H   0  0  0  0  0  0  0  0  0  0  0  0
    4.6405    1.3783    9.1061 H   0  0  0  0  0  0  0  0  0  0  0  0
    3.0613    1.2469    9.8876 H   0  0  0  0  0  0  0  0  0  0  0  0
   -0.3801   -1.7489    8.3516 C   0  0  0  0  0  0  0  0  0  0  0  0
   -1.2853   -3.7239    8.5796 C   0  0  0  0  0  0  0  0  0  0  0  0
   -2.0183   -4.4839    8.7546 H   0  0  0  0  0  0  0  0  0  0  0  0
   -2.8109   -1.7540    8.8825 C   0  0  0  0  0  0  0  0  0  0  0  0
   -2.6172   -0.8495    9.4706 H   0  0  0  0  0  0  0  0  0  0  0  0
   -3.4187   -2.4361    9.4823 H   0  0  0  0  0  0  0  0  0  0  0  0
   -3.5213   -1.3957    7.5809 C   0  0  0  0  0  0  0  0  0  0  0  0
   -2.8916   -0.7507    6.9709 H   0  0  0  0  0  0  0  0  0  0  0  0
   -4.4487   -0.8734    7.7978 H   0  0  0  0  0  0  0  0  0  0  0  0
   -3.7480   -2.2924    7.0083 H   0  0  0  0  0  0  0  0  0  0  0  0
    1.9126   -2.5624    7.8869 C   0  0  0  0  0  0  0  0  0  0  0  0
    2.0874   -1.4706    7.8628 H   0  0  0  0  0  0  0  0  0  0  0  0
    2.7305   -3.1880    9.0101 C   0  0  0  0  0  0  0  0  0  0  0  0
    2.4902   -2.7174    9.9615 H   0  0  0  0  0  0  0  0  0  0  0  0
    3.7912   -3.0580    8.8148 H   0  0  0  0  0  0  0  0  0  0  0  0
    2.5080   -4.2501    9.0764 H   0  0  0  0  0  0  0  0  0  0  0  0
    2.2253   -3.1691    6.5247 C   0  0  0  0  0  0  0  0  0  0  0  0
    1.9768   -4.2275    6.5306 H   0  0  0  0  0  0  0  0  0  0  0  0
    3.2815   -3.0529    6.2989 H   0  0  0  0  0  0  0  0  0  0  0  0
    1.6460   -2.6737    5.7482 H   0  0  0  0  0  0  0  0  0  0  0  0
  1 30  2  0  0  0  0
  1  2  1  0  0  0  0
  3  1  1  0  0  0  0
  4 13  1  0  0  0  0
  5 11  1  0  0  0  0
  5 10  1  0  0  0  0
  6  4  1  0  0  0  0
  7 33  1  0  0  0  0
  8  9  1  0  0  0  0
  8 30  1  0  0  0  0
  9 31  2  0  0  0  0
 10  1  1  6  0  0  0
 10  4  1  0  0  0  0
 11  6  2  0  0  0  0
 12 11  1  0  0  0  0
 13 14  1  0  0  0  0
 13 15  1  0  0  0  0
 15 17  1  0  0  0  0
 15 16  1  0  0  0  0
 18 15  1  0  0  0  0
 19 21  1  0  0  0  0
 19 13  1  0  0  0  0
 20 19  1  0  0  0  0
 22 19  1  0  0  0  0
 23  5  1  0  0  0  0
 23 26  1  0  0  0  0
 24 23  1  0  0  0  0
 25 23  1  0  0  0  0
 26 27  1  0  0  0  0
 26 29  1  0  0  0  0
 28 26  1  0  0  0  0
 30  7  1  0  0  0  0
 31  7  1  0  0  0  0
 31 32  1  0  0  0  0
 33 34  1  0  0  0  0
 33 35  1  0  0  0  0
 36 38  1  0  0  0  0
 36 33  1  0  0  0  0
 37 36  1  0  0  0  0
 39 36  1  0  0  0  0
 40  8  1  0  0  0  0
 40 42  1  0  0  0  0
 41 40  1  0  0  0  0
 42 45  1  0  0  0  0
 42 43  1  0  0  0  0
 44 42  1  0  0  0  0
 46 47  1  0  0  0  0
 46 40  1  0  0  0  0
 48 46  1  0  0  0  0
 49 46  1  0  0  0  0
M  END
$$$$
