CSD_code = FUPKEI | q = 0 | S = 0 | Stoichiometry = C14H36ClN2P2V | MND = 5
 OpenBabel04212202043D

 56 55  0  0  0  0  0  0  0  0999 V2000
    7.3202    3.8803    1.5596 V   0  0  0  0  0  0  0  0  0  0  0  0
    5.2974    3.8003    2.7873 Cl  0  0  0  0  0  0  0  0  0  0  0  0
    5.9578    5.4198    0.4839 P   0  0  0  0  0  4  0  0  0  0  0  0
    7.7104    2.2366    3.1564 P   0  0  0  0  0  4  0  0  0  0  0  0
    7.6607    3.0088    0.2446 N   0  0  0  0  0  2  0  0  0  0  0  0
    8.4810    4.9010    2.0407 N   0  0  0  0  0  2  0  0  0  0  0  0
    7.5788    2.7485    4.9103 C   0  0  0  0  0  0  0  0  0  0  0  0
    7.7253    1.8884    5.5662 H   0  0  0  0  0  0  0  0  0  0  0  0
    6.5942    3.1797    5.0832 H   0  0  0  0  0  0  0  0  0  0  0  0
    8.3373    3.5035    5.1149 H   0  0  0  0  0  0  0  0  0  0  0  0
    6.5926    0.7838    3.1309 C   0  0  0  0  0  0  0  0  0  0  0  0
    6.8792    0.0709    3.9059 H   0  0  0  0  0  0  0  0  0  0  0  0
    6.6536    0.3076    2.1518 H   0  0  0  0  0  0  0  0  0  0  0  0
    5.5696    1.1184    3.2969 H   0  0  0  0  0  0  0  0  0  0  0  0
    5.4202    6.8616    1.4775 C   0  0  0  0  0  0  0  0  0  0  0  0
    4.7356    7.4867    0.9015 H   0  0  0  0  0  0  0  0  0  0  0  0
    6.2994    7.4390    1.7622 H   0  0  0  0  0  0  0  0  0  0  0  0
    4.9230    6.5050    2.3784 H   0  0  0  0  0  0  0  0  0  0  0  0
    4.3489    4.8238   -0.1617 C   0  0  0  0  0  0  0  0  0  0  0  0
    3.8368    5.6269   -0.6944 H   0  0  0  0  0  0  0  0  0  0  0  0
    3.7354    4.4823    0.6705 H   0  0  0  0  0  0  0  0  0  0  0  0
    4.5240    3.9858   -0.8365 H   0  0  0  0  0  0  0  0  0  0  0  0
    9.3337    1.3639    3.2160 C   0  0  0  0  0  0  0  0  0  0  0  0
    9.3966    0.7164    4.0922 H   0  0  0  0  0  0  0  0  0  0  0  0
   10.1349    2.1005    3.2475 H   0  0  0  0  0  0  0  0  0  0  0  0
    9.4496    0.7660    2.3143 H   0  0  0  0  0  0  0  0  0  0  0  0
    9.6658    5.6342    2.1990 C   0  0  0  0  0  0  0  0  0  0  0  0
    8.0845    2.3716   -0.9303 C   0  0  0  0  0  0  0  0  0  0  0  0
    6.8694    2.1117   -1.8484 C   0  0  0  0  0  0  0  0  0  0  0  0
    6.1102    1.5533   -1.3026 H   0  0  0  0  0  0  0  0  0  0  0  0
    7.1656    1.5439   -2.7280 H   0  0  0  0  0  0  0  0  0  0  0  0
    6.4418    3.0603   -2.1689 H   0  0  0  0  0  0  0  0  0  0  0  0
    8.7359    1.0184   -0.5769 C   0  0  0  0  0  0  0  0  0  0  0  0
    8.0263    0.3941   -0.0362 H   0  0  0  0  0  0  0  0  0  0  0  0
    9.6074    1.1927    0.0506 H   0  0  0  0  0  0  0  0  0  0  0  0
    9.0456    0.5008   -1.4823 H   0  0  0  0  0  0  0  0  0  0  0  0
   10.7248    5.1676    1.1798 C   0  0  0  0  0  0  0  0  0  0  0  0
   10.3657    5.3737    0.1744 H   0  0  0  0  0  0  0  0  0  0  0  0
   10.8647    4.0927    1.2823 H   0  0  0  0  0  0  0  0  0  0  0  0
   11.6728    5.6771    1.3395 H   0  0  0  0  0  0  0  0  0  0  0  0
    9.1204    3.2309   -1.6846 C   0  0  0  0  0  0  0  0  0  0  0  0
    8.7141    4.2249   -1.8571 H   0  0  0  0  0  0  0  0  0  0  0  0
    9.3755    2.7736   -2.6384 H   0  0  0  0  0  0  0  0  0  0  0  0
   10.0177    3.3269   -1.0796 H   0  0  0  0  0  0  0  0  0  0  0  0
    6.5762    6.2913   -1.0189 C   0  0  0  0  0  0  0  0  0  0  0  0
    5.8807    7.0704   -1.3355 H   0  0  0  0  0  0  0  0  0  0  0  0
    6.6984    5.5669   -1.8228 H   0  0  0  0  0  0  0  0  0  0  0  0
    7.5477    6.7327   -0.8022 H   0  0  0  0  0  0  0  0  0  0  0  0
   10.2110    5.4410    3.6305 C   0  0  0  0  0  0  0  0  0  0  0  0
   10.4485    4.3916    3.7954 H   0  0  0  0  0  0  0  0  0  0  0  0
    9.4587    5.7498    4.3544 H   0  0  0  0  0  0  0  0  0  0  0  0
   11.1101    6.0354    3.7780 H   0  0  0  0  0  0  0  0  0  0  0  0
    9.3814    7.1361    1.9873 C   0  0  0  0  0  0  0  0  0  0  0  0
    8.9671    7.2932    0.9931 H   0  0  0  0  0  0  0  0  0  0  0  0
   10.2988    7.7124    2.0856 H   0  0  0  0  0  0  0  0  0  0  0  0
    8.6634    7.4836    2.7280 H   0  0  0  0  0  0  0  0  0  0  0  0
  1  6  1  0  0  0  0
  1  2  1  0  0  0  0
  1  4  1  0  0  0  0
  3 15  1  0  0  0  0
  3  1  1  0  0  0  0
  4 23  1  0  0  0  0
  4  7  1  0  0  0  0
  5  1  1  0  0  0  0
  6 27  1  0  0  0  0
  7  9  1  0  0  0  0
  7 10  1  0  0  0  0
  7  8  1  0  0  0  0
 11  4  1  0  0  0  0
 11 14  1  0  0  0  0
 11 12  1  0  0  0  0
 13 11  1  0  0  0  0
 15 17  1  0  0  0  0
 15 18  1  0  0  0  0
 16 15  1  0  0  0  0
 19  3  1  0  0  0  0
 19 21  1  0  0  0  0
 20 19  1  0  0  0  0
 22 19  1  0  0  0  0
 23 25  1  0  0  0  0
 23 24  1  0  0  0  0
 26 23  1  0  0  0  0
 27 49  1  0  0  0  0
 28 33  1  0  0  0  0
 28  5  1  0  0  0  0
 29 30  1  0  0  0  0
 29 28  1  0  0  0  0
 31 29  1  0  0  0  0
 32 29  1  0  0  0  0
 33 34  1  0  0  0  0
 33 35  1  0  0  0  0
 36 33  1  0  0  0  0
 37 39  1  0  0  0  0
 37 40  1  0  0  0  0
 37 27  1  0  0  0  0
 38 37  1  0  0  0  0
 41 44  1  0  0  0  0
 41 28  1  0  0  0  0
 42 41  1  0  0  0  0
 43 41  1  0  0  0  0
 45 48  1  0  0  0  0
 45  3  1  0  0  0  0
 46 45  1  0  0  0  0
 47 45  1  0  0  0  0
 49 52  1  0  0  0  0
 49 50  1  0  0  0  0
 49 51  1  0  0  0  0
 53 55  1  0  0  0  0
 53 27  1  0  0  0  0
 53 56  1  0  0  0  0
 54 53  1  0  0  0  0
M  END
$$$$
