CSD_code = FUQCUR | q = 1 | S = 0 | Stoichiometry = C18H28ClCoN5O2(1+) | MND = 6
 OpenBabel04212202043D

 55 59  0  0  1  0  0  0  0  0999 V2000
    1.8190    2.5650   13.8179 Co  0  0  0  0  0  0  0  0  0  0  0  0
    0.7214    3.9168   15.3066 Cl  0  0  0  0  0  0  0  0  0  0  0  0
    6.9264   -1.7462    7.3327 O   0  0  0  0  0  0  0  0  0  0  0  0
    5.6605   -3.4230    7.7950 O   0  0  0  0  0  0  0  0  0  0  0  0
    6.0302   -2.2801    7.9476 N   0  0  0  0  0  0  0  0  0  0  0  0
    3.1681    2.2936   15.2198 N   0  0  2  0  0  4  0  0  0  0  0  0
    2.6982    4.1906   13.1498 N   0  0  1  0  0  4  0  0  0  0  0  0
    0.9202    0.9432   14.5440 N   0  0  2  0  0  4  0  0  0  0  0  0
    0.4368    2.8900   12.4196 N   0  0  2  0  0  4  0  0  0  0  0  0
    2.7624    1.4967   12.6089 C   0  0  0  0  0  0  0  0  0  0  0  0
    3.3393    0.8146   11.7931 C   0  0  0  0  0  0  0  0  0  0  0  0
    4.0256    0.0288   10.8332 C   0  0  0  0  0  0  0  0  0  0  0  0
    5.0647    0.5908   10.0858 C   0  0  0  0  0  0  0  0  0  0  0  0
    5.3471    1.6200   10.2511 H   0  0  0  0  0  0  0  0  0  0  0  0
    5.7239   -0.1657    9.1411 C   0  0  0  0  0  0  0  0  0  0  0  0
    6.5279    0.2460    8.5507 H   0  0  0  0  0  0  0  0  0  0  0  0
    5.3441   -1.4879    8.9421 C   0  0  0  0  0  0  0  0  0  0  0  0
    4.3156   -2.0619    9.6801 C   0  0  0  0  0  0  0  0  0  0  0  0
    4.0489   -3.0918    9.4993 H   0  0  0  0  0  0  0  0  0  0  0  0
    3.6580   -1.3035   10.6245 C   0  0  0  0  0  0  0  0  0  0  0  0
    2.8563   -1.7351   11.2050 H   0  0  0  0  0  0  0  0  0  0  0  0
    4.5780    2.6137   14.9791 C   0  0  0  0  0  0  0  0  0  0  0  0
    4.9609    1.9299   14.2171 H   0  0  0  0  0  0  0  0  0  0  0  0
    5.1490    2.4597   15.9022 H   0  0  0  0  0  0  0  0  0  0  0  0
    4.7547    4.0564   14.5177 C   0  0  0  0  0  0  0  0  0  0  0  0
    5.8205    4.2801   14.4810 H   0  0  0  0  0  0  0  0  0  0  0  0
    4.2984    4.7348   15.2425 H   0  0  0  0  0  0  0  0  0  0  0  0
    4.1593    4.3026   13.1356 C   0  0  0  0  0  0  0  0  0  0  0  0
    4.4450    5.3044   12.7941 H   0  0  0  0  0  0  0  0  0  0  0  0
    4.5526    3.5690   12.4273 H   0  0  0  0  0  0  0  0  0  0  0  0
    2.1023    4.5477   11.8564 C   0  0  0  0  0  0  0  0  0  0  0  0
    2.5491    3.9157   11.0829 H   0  0  0  0  0  0  0  0  0  0  0  0
    2.2918    5.5970   11.6067 H   0  0  0  0  0  0  0  0  0  0  0  0
    0.6088    4.2774   11.9628 C   0  0  0  0  0  0  0  0  0  0  0  0
    0.1677    4.9387   12.7132 H   0  0  0  0  0  0  0  0  0  0  0  0
    0.1055    4.4477   11.0057 H   0  0  0  0  0  0  0  0  0  0  0  0
   -0.9654    2.6044   12.7480 C   0  0  0  0  0  0  0  0  0  0  0  0
   -1.5921    2.7961   11.8694 H   0  0  0  0  0  0  0  0  0  0  0  0
   -1.2736    3.2843   13.5450 H   0  0  0  0  0  0  0  0  0  0  0  0
   -1.1573    1.1639   13.2089 C   0  0  0  0  0  0  0  0  0  0  0  0
   -0.7269    0.4744   12.4779 H   0  0  0  0  0  0  0  0  0  0  0  0
   -2.2268    0.9624   13.2676 H   0  0  0  0  0  0  0  0  0  0  0  0
   -0.5473    0.9206   14.5847 C   0  0  0  0  0  0  0  0  0  0  0  0
   -0.8806    1.7010   15.2720 H   0  0  0  0  0  0  0  0  0  0  0  0
   -0.8866   -0.0473   14.9716 H   0  0  0  0  0  0  0  0  0  0  0  0
    1.4967    0.6939   15.8740 C   0  0  0  0  0  0  0  0  0  0  0  0
    1.2875   -0.3250   16.2154 H   0  0  0  0  0  0  0  0  0  0  0  0
    1.0443    1.3984   16.5769 H   0  0  0  0  0  0  0  0  0  0  0  0
    2.9939    0.9499   15.7849 C   0  0  0  0  0  0  0  0  0  0  0  0
    3.4624    0.8691   16.7716 H   0  0  0  0  0  0  0  0  0  0  0  0
    3.4658    0.2275   15.1120 H   0  0  0  0  0  0  0  0  0  0  0  0
    2.8117    2.9611   15.9150 H   0  0  0  0  0  0  0  0  0  0  0  0
    0.6878    2.2824   11.6338 H   0  0  0  0  0  0  0  0  0  0  0  0
    1.2131    0.1693   13.9402 H   0  0  0  0  0  0  0  0  0  0  0  0
    2.3410    4.8611   13.8416 H   0  0  0  0  0  0  0  0  0  0  0  0
  1  8  1  0  0  0  0
  1  6  1  0  0  0  0
  1  2  1  0  0  0  0
  3  5  2  0  0  0  0
  4  5  2  0  0  0  0
  5 17  1  0  0  0  0
  6 49  1  0  0  0  0
  6 52  1  1  0  0  0
  7  1  1  0  0  0  0
  7 55  1  1  0  0  0
  8 54  1  6  0  0  0
  8 43  1  0  0  0  0
  8 46  1  0  0  0  0
  9 53  1  6  0  0  0
  9 37  1  0  0  0  0
  9  1  1  0  0  0  0
 10  1  1  0  0  0  0
 11 10  3  0  0  0  0
 12 11  1  0  0  0  0
 13 14  1  0  0  0  0
 13 12  2  0  0  0  0
 15 13  1  0  0  0  0
 16 15  1  0  0  0  0
 17 15  2  0  0  0  0
 17 18  1  0  0  0  0
 18 20  2  0  0  0  0
 19 18  1  0  0  0  0
 20 12  1  0  0  0  0
 20 21  1  0  0  0  0
 22  6  1  0  0  0  0
 22 24  1  0  0  0  0
 23 22  1  0  0  0  0
 25 22  1  0  0  0  0
 25 27  1  0  0  0  0
 26 25  1  0  0  0  0
 28  7  1  0  0  0  0
 28 25  1  0  0  0  0
 29 28  1  0  0  0  0
 30 28  1  0  0  0  0
 31 34  1  0  0  0  0
 31  7  1  0  0  0  0
 32 31  1  0  0  0  0
 33 31  1  0  0  0  0
 34  9  1  0  0  0  0
 34 35  1  0  0  0  0
 36 34  1  0  0  0  0
 37 40  1  0  0  0  0
 37 39  1  0  0  0  0
 38 37  1  0  0  0  0
 40 42  1  0  0  0  0
 40 43  1  0  0  0  0
 41 40  1  0  0  0  0
 43 45  1  0  0  0  0
 43 44  1  0  0  0  0
 46 47  1  0  0  0  0
 46 48  1  0  0  0  0
 49 46  1  0  0  0  0
 49 50  1  0  0  0  0
 51 49  1  0  0  0  0
M  END
$$$$
