CSD_code = FUQFII | q = 1 | S = 0 | Stoichiometry = C9H16BrN4NiO3(1+) | MND = 6
 OpenBabel04212202043D

 34 33  0  0  1  0  0  0  0  0999 V2000
    9.0201    2.5324    7.8046 Br  0  0  0  0  0  0  0  0  0  0  0  0
    8.5986    4.6478    8.4964 Ni  0  0  0  0  0  0  0  0  0  0  0  0
    8.4006    6.4548    9.7030 O   0  0  0  0  0  0  0  0  0  0  0  0
    9.2805    3.9102   10.7510 O   0  0  0  0  0  0  0  0  0  0  0  0
    6.7526    4.1034    9.1219 O   0  0  0  0  0  0  0  0  0  0  0  0
    7.6846    5.6454    6.6208 N   0  0  0  0  0  0  0  0  0  0  0  0
    8.6245    6.3460    4.5650 N   0  0  0  0  0  0  0  0  0  0  0  0
   10.1098    5.2385    7.6171 N   0  0  0  0  0  0  0  0  0  0  0  0
    9.9690    5.7545    6.3668 N   0  0  2  0  0  0  0  0  0  0  0  0
    8.7117    5.9269    5.8131 C   0  0  1  0  0  3  0  0  0  0  0  0
    6.4684    5.7653    6.1037 C   0  0  0  0  0  0  0  0  0  0  0  0
    5.6444    5.5294    6.7627 H   0  0  0  0  0  0  0  0  0  0  0  0
    6.2709    6.1725    4.7927 C   0  0  0  0  0  0  0  0  0  0  0  0
    5.2843    6.2604    4.3726 H   0  0  0  0  0  0  0  0  0  0  0  0
    7.4101    6.4669    4.0555 C   0  0  0  0  0  0  0  0  0  0  0  0
    7.3660    6.8079    3.0309 H   0  0  0  0  0  0  0  0  0  0  0  0
   11.1952    6.0189    5.8226 C   0  0  2  0  0  3  0  0  0  0  0  0
   12.1217    5.6529    6.7686 C   0  0  0  0  0  0  0  0  0  0  0  0
   13.1865    5.7180    6.6845 H   0  0  0  0  0  0  0  0  0  0  0  0
   11.4078    5.1518    7.8703 C   0  0  0  0  0  0  0  0  0  0  0  0
   11.9570    4.5736    9.1156 C   0  0  0  0  0  0  0  0  0  0  0  0
   11.2391    4.6568    9.9280 H   0  0  0  0  0  0  0  0  0  0  0  0
   12.8846    5.0698    9.3866 H   0  0  0  0  0  0  0  0  0  0  0  0
   12.1736    3.5174    8.9515 H   0  0  0  0  0  0  0  0  0  0  0  0
   11.4009    6.5901    4.4790 C   0  0  0  0  0  0  0  0  0  0  0  0
   10.8718    7.5349    4.3720 H   0  0  0  0  0  0  0  0  0  0  0  0
   11.0113    5.9174    3.7172 H   0  0  0  0  0  0  0  0  0  0  0  0
   12.4627    6.7472    4.3125 H   0  0  0  0  0  0  0  0  0  0  0  0
    8.9693    6.4262   10.4797 H   0  0  0  0  0  0  0  0  0  0  0  0
    8.4886    7.3229    9.3024 H   0  0  0  0  0  0  0  0  0  0  0  0
    9.6453    3.0390   10.5446 H   0  0  0  0  0  0  0  0  0  0  0  0
    8.6476    3.7822   11.4628 H   0  0  0  0  0  0  0  0  0  0  0  0
    6.5536    3.1579    9.1111 H   0  0  0  0  0  0  0  0  0  0  0  0
    6.3665    4.5025    9.9077 H   0  0  0  0  0  0  0  0  0  0  0  0
  1  2  1  0  0  0  0
  3 29  1  0  0  0  0
  4 32  1  0  0  0  0
  5 34  1  0  0  0  0
  6  2  1  0  0  0  0
  8 20  1  0  0  0  0
  8  2  1  0  0  0  0
  9  8  1  6  0  0  0
 10  7  1  1  0  0  0
 10  9  1  0  0  0  0
 10  6  1  0  0  0  0
 11  6  1  0  0  0  0
 11 12  1  0  0  0  0
 13 11  2  0  0  0  0
 14 13  1  0  0  0  0
 15  7  2  0  0  0  0
 15 13  1  0  0  0  0
 16 15  1  0  0  0  0
 17 25  1  1  0  0  0
 17  9  1  0  0  0  0
 17 18  1  0  0  0  0
 18 20  2  0  0  0  0
 19 18  1  0  0  0  0
 20 21  1  0  0  0  0
 21 23  1  0  0  0  0
 21 22  1  0  0  0  0
 24 21  1  0  0  0  0
 26 25  1  0  0  0  0
 27 25  1  0  0  0  0
 28 25  1  0  0  0  0
 30  3  1  0  0  0  0
 31  4  1  0  0  0  0
 33  5  1  0  0  0  0
M  END
$$$$
