CSD_code = FUQHEG | q = 0 | S = 0 | Stoichiometry = C13H8BrN6O3Re | MND = 6
 OpenBabel04212202043D

 32 35  0  0  1  0  0  0  0  0999 V2000
    0.3725    3.8727   13.2116 Re  0  0  0  0  0  0  0  0  0  0  0  0
   -0.2483    3.1731   15.6253 Br  0  0  0  0  0  0  0  0  0  0  0  0
    1.9872    5.7189   14.8528 N   0  0  2  0  0  0  0  0  0  0  0  0
    0.8416    5.7433   14.1506 N   0  0  0  0  0  0  0  0  0  0  0  0
    2.7835    4.5888   14.7731 C   0  0  2  0  0  3  0  0  0  0  0  0
    1.2884    4.8142   10.4163 O   0  0  0  0  0  1  0  0  0  0  0  0
    2.1446    6.8698   15.5520 C   0  0  0  0  0  3  0  0  0  0  0  0
    2.9912    7.0495   16.1810 H   0  0  0  0  0  0  0  0  0  0  0  0
   -1.5233    4.2208   12.8700 C   0  0  0  0  0  2  0  0  0  0  0  0
    0.9353    4.4650   11.4488 C   0  0  0  0  0  2  0  0  0  0  0  0
   -2.6403    4.4464   12.7896 O   0  0  0  0  0  1  0  0  0  0  0  0
    0.2013    0.8934   12.4138 O   0  0  0  0  0  1  0  0  0  0  0  0
    0.2638    6.8997   14.3977 C   0  0  0  0  0  0  0  0  0  0  0  0
   -0.6789    7.1527   13.9519 H   0  0  0  0  0  0  0  0  0  0  0  0
    1.0528    7.6522   15.2807 C   0  0  0  0  0  0  0  0  0  0  0  0
    0.8411    8.6284   15.6637 H   0  0  0  0  0  0  0  0  0  0  0  0
    0.2241    2.0105   12.6449 C   0  0  0  0  0  2  0  0  0  0  0  0
    2.3088    3.6377   13.9518 N   0  0  0  0  0  0  0  0  0  0  0  0
    2.9608    2.5228   13.7847 N   0  0  0  0  0  0  0  0  0  0  0  0
    4.0848    2.2944   14.4424 C   0  0  0  0  0  0  0  0  0  0  0  0
    4.6482    3.2338   15.3275 C   0  0  0  0  0  0  0  0  0  0  0  0
    5.5635    2.9998   15.8433 H   0  0  0  0  0  0  0  0  0  0  0  0
    3.9725    4.4192   15.4881 C   0  0  0  0  0  0  0  0  0  0  0  0
    4.3335    5.1875   16.1519 H   0  0  0  0  0  0  0  0  0  0  0  0
    4.6913    1.0820   14.2252 N   0  0  0  0  0  0  0  0  0  0  0  0
    5.8596    0.7734   14.8105 N   0  0  0  0  0  0  0  0  0  0  0  0
    4.2359    0.0616   13.4408 C   0  0  0  0  0  0  0  0  0  0  0  0
    3.3123    0.1503   12.9074 H   0  0  0  0  0  0  0  0  0  0  0  0
    6.1525   -0.4360   14.4050 C   0  0  0  0  0  0  0  0  0  0  0  0
    7.0517   -0.9153   14.7371 H   0  0  0  0  0  0  0  0  0  0  0  0
    5.1585   -0.9396   13.5344 C   0  0  0  0  0  0  0  0  0  0  0  0
    5.1402   -1.8972   13.0579 H   0  0  0  0  0  0  0  0  0  0  0  0
  1 18  1  0  0  0  0
  1  4  1  0  0  0  0
  1  2  1  0  0  0  0
  3  7  1  1  0  0  0
  4 13  1  0  0  0  0
  4  3  1  0  0  0  0
  5  3  1  0  0  0  0
  5 23  1  1  0  0  0
  6 10  1  0  0  0  0
  7  8  1  0  0  0  0
  9  1  1  0  0  0  0
 10  1  1  0  0  0  0
 11  9  1  0  0  0  0
 12 17  1  0  0  0  0
 13 15  2  0  0  0  0
 14 13  1  0  0  0  0
 15  7  1  0  0  0  0
 15 16  1  0  0  0  0
 17  1  1  0  0  0  0
 18  5  1  0  0  0  0
 19 18  1  0  0  0  0
 19 20  2  0  0  0  0
 20 21  1  0  0  0  0
 21 23  2  0  0  0  0
 21 22  1  0  0  0  0
 23 24  1  0  0  0  0
 25 20  1  0  0  0  0
 25 26  1  0  0  0  0
 27 31  2  0  0  0  0
 27 25  1  0  0  0  0
 28 27  1  0  0  0  0
 29 30  1  0  0  0  0
 29 26  2  0  0  0  0
 31 29  1  0  0  0  0
 32 31  1  0  0  0  0
M  END
$$$$
