CSD_code = FUQKIN | q = 0 | S = 0 | Stoichiometry = C21H22ClN2O3Re | MND = 6
 OpenBabel04212202043D

 50 52  0  0  0  0  0  0  0  0999 V2000
   18.5101    1.7568    3.9424 Re  0  0  0  0  0  0  0  0  0  0  0  0
   18.9406    3.7958    2.7707 Cl  0  0  0  0  0  0  0  0  0  0  0  0
   18.3659   -0.8979    5.5211 O   0  0  0  0  0  1  0  0  0  0  0  0
   15.9216    2.8995    5.1861 O   0  0  0  0  0  1  0  0  0  0  0  0
   20.4036    3.1892    5.9188 O   0  0  0  0  0  1  0  0  0  0  0  0
   17.4896    1.1062    2.2124 N   0  0  0  0  0  0  0  0  0  0  0  0
   20.1003    1.1609    2.6076 N   0  0  0  0  0  0  0  0  0  0  0  0
   18.3890    0.0788    4.9165 C   0  0  0  0  0  2  0  0  0  0  0  0
   16.0983    0.8466    2.0631 C   0  0  0  0  0  0  0  0  0  0  0  0
   15.6515   -0.4710    2.2262 C   0  0  0  0  0  0  0  0  0  0  0  0
   14.2977   -0.7321    2.0716 C   0  0  0  0  0  0  0  0  0  0  0  0
   13.9361   -1.7419    2.1854 H   0  0  0  0  0  0  0  0  0  0  0  0
   13.4076    0.2784    1.7659 C   0  0  0  0  0  0  0  0  0  0  0  0
   12.3579    0.0559    1.6449 H   0  0  0  0  0  0  0  0  0  0  0  0
   13.8636    1.5719    1.6087 C   0  0  0  0  0  0  0  0  0  0  0  0
   13.1652    2.3551    1.3614 H   0  0  0  0  0  0  0  0  0  0  0  0
   15.2092    1.8803    1.7534 C   0  0  0  0  0  0  0  0  0  0  0  0
   15.6982    3.2895    1.5210 C   0  0  0  0  0  0  0  0  0  0  0  0
   16.7001    3.3943    1.9441 H   0  0  0  0  0  0  0  0  0  0  0  0
   14.8078    4.3338    2.1945 C   0  0  0  0  0  0  0  0  0  0  0  0
   13.8525    4.4363    1.6846 H   0  0  0  0  0  0  0  0  0  0  0  0
   15.3059    5.3002    2.1736 H   0  0  0  0  0  0  0  0  0  0  0  0
   14.6239    4.0662    3.2322 H   0  0  0  0  0  0  0  0  0  0  0  0
   15.7917    3.5584    0.0158 C   0  0  0  0  0  0  0  0  0  0  0  0
   16.4763    2.8602   -0.4633 H   0  0  0  0  0  0  0  0  0  0  0  0
   16.1581    4.5674   -0.1577 H   0  0  0  0  0  0  0  0  0  0  0  0
   14.8149    3.4559   -0.4540 H   0  0  0  0  0  0  0  0  0  0  0  0
   16.6057   -1.6008    2.5436 C   0  0  0  0  0  0  0  0  0  0  0  0
   17.5769   -1.1801    2.8274 H   0  0  0  0  0  0  0  0  0  0  0  0
   16.8101   -2.4814    1.3073 C   0  0  0  0  0  0  0  0  0  0  0  0
   15.8643   -2.9087    0.9826 H   0  0  0  0  0  0  0  0  0  0  0  0
   17.4963   -3.2941    1.5354 H   0  0  0  0  0  0  0  0  0  0  0  0
   17.2230   -1.9036    0.4820 H   0  0  0  0  0  0  0  0  0  0  0  0
   16.1108   -2.4368    3.7249 C   0  0  0  0  0  0  0  0  0  0  0  0
   15.8554   -1.7916    4.5616 H   0  0  0  0  0  0  0  0  0  0  0  0
   16.8929   -3.1208    4.0457 H   0  0  0  0  0  0  0  0  0  0  0  0
   15.2365   -3.0235    3.4565 H   0  0  0  0  0  0  0  0  0  0  0  0
   18.2377    0.9319    1.1820 C   0  0  0  0  0  0  0  0  0  0  0  0
   19.6696    1.0164    1.3365 C   0  0  0  0  0  0  0  0  0  0  0  0
   21.4082    1.2046    2.8265 C   0  0  0  0  0  0  0  0  0  0  0  0
   21.7209    1.3126    3.8571 H   0  0  0  0  0  0  0  0  0  0  0  0
   22.3458    1.1245    1.8111 C   0  0  0  0  0  0  0  0  0  0  0  0
   23.3966    1.1743    2.0460 H   0  0  0  0  0  0  0  0  0  0  0  0
   21.9097    0.9917    0.4986 C   0  0  0  0  0  0  0  0  0  0  0  0
   22.6160    0.9411   -0.3157 H   0  0  0  0  0  0  0  0  0  0  0  0
   20.5519    0.9263    0.2595 C   0  0  0  0  0  0  0  0  0  0  0  0
   20.1602    0.8242   -0.7408 H   0  0  0  0  0  0  0  0  0  0  0  0
   16.8955    2.4561    4.7842 C   0  0  0  0  0  2  0  0  0  0  0  0
   19.6775    2.5963    5.2681 C   0  0  0  0  0  2  0  0  0  0  0  0
   17.8240    0.6793    0.2079 H   0  0  0  0  0  0  0  0  0  0  0  0
  1 48  1  0  0  0  0
  1  8  1  0  0  0  0
  1 49  1  0  0  0  0
  2  1  1  0  0  0  0
  6  1  1  0  0  0  0
  7 40  1  0  0  0  0
  7  1  1  0  0  0  0
  8  3  1  0  0  0  0
  9  6  1  0  0  0  0
  9 10  1  0  0  0  0
 10 28  1  0  0  0  0
 11 12  1  0  0  0  0
 11 10  2  0  0  0  0
 13 11  1  0  0  0  0
 14 13  1  0  0  0  0
 15 17  1  0  0  0  0
 15 13  2  0  0  0  0
 16 15  1  0  0  0  0
 17  9  2  0  0  0  0
 18 17  1  0  0  0  0
 18 19  1  0  0  0  0
 18 20  1  0  0  0  0
 20 23  1  0  0  0  0
 21 20  1  0  0  0  0
 22 20  1  0  0  0  0
 24 18  1  0  0  0  0
 25 24  1  0  0  0  0
 26 24  1  0  0  0  0
 27 24  1  0  0  0  0
 28 29  1  0  0  0  0
 28 34  1  0  0  0  0
 30 32  1  0  0  0  0
 30 28  1  0  0  0  0
 31 30  1  0  0  0  0
 33 30  1  0  0  0  0
 34 36  1  0  0  0  0
 34 35  1  0  0  0  0
 37 34  1  0  0  0  0
 38 39  2  0  0  0  0
 38  6  1  0  0  0  0
 39  7  1  0  0  0  0
 40 41  1  0  0  0  0
 42 43  1  0  0  0  0
 42 40  2  0  0  0  0
 44 42  1  0  0  0  0
 45 44  1  0  0  0  0
 46 44  2  0  0  0  0
 46 39  1  0  0  0  0
 47 46  1  0  0  0  0
 48  4  1  0  0  0  0
 49  5  1  0  0  0  0
 50 38  1  0  0  0  0
M  END
$$$$
