CSD_code = FUQKOT | q = 0 | S = 0 | Stoichiometry = C17H14ClN2O3Re | MND = 6
 OpenBabel04212202043D

 38 40  0  0  0  0  0  0  0  0999 V2000
    3.7685    2.1253    4.4188 Re  0  0  0  0  0  0  0  0  0  0  0  0
    4.9223    3.1287    6.2577 Cl  0  0  0  0  0  0  0  0  0  0  0  0
    4.6261   -1.2062    7.2201 C   0  0  0  0  0  0  0  0  0  0  0  0
    4.0945   -1.7515    7.9829 H   0  0  0  0  0  0  0  0  0  0  0  0
    3.3545    4.8237    2.9648 O   0  0  0  0  0  1  0  0  0  0  0  0
    1.4642    2.5797    6.4255 O   0  0  0  0  0  1  0  0  0  0  0  0
    4.5363    0.3887    5.4521 N   0  0  0  0  0  0  0  0  0  0  0  0
    6.1365    1.8252    1.1895 C   0  0  0  0  0  0  0  0  0  0  0  0
    5.8632    0.2272    5.2673 C   0  0  0  0  0  0  0  0  0  0  0  0
    6.4295    1.0043    4.1907 C   0  0  0  0  0  0  0  0  0  0  0  0
    7.4703    0.8474    3.9140 H   0  0  0  0  0  0  0  0  0  0  0  0
    5.6766    1.8332    3.5619 N   0  0  0  0  0  0  0  0  0  0  0  0
    6.2133    2.4851    2.4205 C   0  0  0  0  0  0  0  0  0  0  0  0
    6.6077    2.4725    0.0574 C   0  0  0  0  0  0  0  0  0  0  0  0
    6.5416    1.9740   -0.8981 H   0  0  0  0  0  0  0  0  0  0  0  0
    7.1574    3.7379    0.1420 C   0  0  0  0  0  0  0  0  0  0  0  0
    7.5164    4.2322   -0.7478 H   0  0  0  0  0  0  0  0  0  0  0  0
    7.2557    4.3640    1.3697 C   0  0  0  0  0  0  0  0  0  0  0  0
    7.6985    5.3463    1.4403 H   0  0  0  0  0  0  0  0  0  0  0  0
    6.7941    3.7517    2.5265 C   0  0  0  0  0  0  0  0  0  0  0  0
    6.9332    4.4264    3.8530 C   0  0  0  0  0  0  0  0  0  0  0  0
    5.9590    4.5691    4.3199 H   0  0  0  0  0  0  0  0  0  0  0  0
    7.4090    5.3971    3.7420 H   0  0  0  0  0  0  0  0  0  0  0  0
    7.5307    3.8235    4.5378 H   0  0  0  0  0  0  0  0  0  0  0  0
    5.5628    0.4433    1.0985 C   0  0  0  0  0  0  0  0  0  0  0  0
    5.4576    0.1451    0.0592 H   0  0  0  0  0  0  0  0  0  0  0  0
    4.5843    0.4017    1.5752 H   0  0  0  0  0  0  0  0  0  0  0  0
    6.2101   -0.2797    1.5974 H   0  0  0  0  0  0  0  0  0  0  0  0
    6.6208   -0.6455    6.0488 C   0  0  0  0  0  0  0  0  0  0  0  0
    7.6819   -0.7318    5.8727 H   0  0  0  0  0  0  0  0  0  0  0  0
    5.9951   -1.3660    7.0463 C   0  0  0  0  0  0  0  0  0  0  0  0
    6.5572   -2.0378    7.6766 H   0  0  0  0  0  0  0  0  0  0  0  0
    3.9432   -0.3215    6.4028 C   0  0  0  0  0  0  0  0  0  0  0  0
    2.8772   -0.1744    6.5203 H   0  0  0  0  0  0  0  0  0  0  0  0
    2.7336    1.1490    3.0960 C   0  0  0  0  0  2  0  0  0  0  0  0
    3.4576    3.8170    3.4975 C   0  0  0  0  0  2  0  0  0  0  0  0
    2.2392    2.3959    5.6087 C   0  0  0  0  0  2  0  0  0  0  0  0
    2.0773    0.5594    2.3583 O   0  0  0  0  0  1  0  0  0  0  0  0
  1  7  1  0  0  0  0
  1 37  1  0  0  0  0
  1  2  1  0  0  0  0
  3  4  1  0  0  0  0
  5 36  1  0  0  0  0
  7 33  1  0  0  0  0
  8 13  1  0  0  0  0
  9  7  1  0  0  0  0
  9 29  1  0  0  0  0
 10  9  2  0  0  0  0
 11 10  1  0  0  0  0
 12 10  1  0  0  0  0
 12  1  1  0  0  0  0
 13 20  2  0  0  0  0
 13 12  1  0  0  0  0
 14 16  1  0  0  0  0
 14  8  2  0  0  0  0
 15 14  1  0  0  0  0
 16 18  2  0  0  0  0
 17 16  1  0  0  0  0
 18 19  1  0  0  0  0
 18 20  1  0  0  0  0
 20 21  1  0  0  0  0
 21 22  1  0  0  0  0
 21 24  1  0  0  0  0
 23 21  1  0  0  0  0
 25  8  1  0  0  0  0
 25 27  1  0  0  0  0
 25 28  1  0  0  0  0
 26 25  1  0  0  0  0
 29 31  2  0  0  0  0
 30 29  1  0  0  0  0
 31  3  1  0  0  0  0
 31 32  1  0  0  0  0
 33 34  1  0  0  0  0
 33  3  2  0  0  0  0
 35  1  1  0  0  0  0
 36  1  1  0  0  0  0
 37  6  1  0  0  0  0
 38 35  1  0  0  0  0
M  END
$$$$
