CSD_code = FUQQEP | q = 0 | S = 0 | Stoichiometry = C28H30AsCl2Rh | MND = 8
 OpenBabel04212202043D

 62 63  0  0  1  0  0  0  0  0999 V2000
    6.3975   11.9868   13.6848 Rh  0  0  0  0  0  0  0  0  0  0  0  0
    7.4687   13.2360   11.9832 As  0  0  0  0  0  0  0  0  0  0  0  0
    6.2000   14.1495   14.5471 Cl  0  0  0  0  0 15  0  0  0  0  0  0
    8.6335   11.8935   14.3666 Cl  0  0  0  0  0 15  0  0  0  0  0  0
    5.9698    9.8478   13.4777 C   0  0  2  0  0  0  0  0  0  0  0  0
    5.1456   10.5642   12.5573 C   0  0  2  0  0  3  0  0  0  0  0  0
    4.3238   11.4591   13.3164 C   0  0  1  0  0  0  0  0  0  0  0  0
    4.5766   11.2157   14.7184 C   0  0  0  0  0  0  0  0  0  0  0  0
    5.5965   10.2425   14.8182 C   0  0  0  0  0  0  0  0  0  0  0  0
    6.8555    8.6786   13.1809 C   0  0  0  0  0  0  0  0  0  0  0  0
    5.0713   10.3496   11.0777 C   0  0  0  0  0  0  0  0  0  0  0  0
    3.1834   12.2775   12.8002 C   0  0  0  0  0  0  0  0  0  0  0  0
    3.7995   11.8491   15.8264 C   0  0  0  0  0  0  0  0  0  0  0  0
    6.1375    9.5979   16.0542 C   0  0  0  0  0  0  0  0  0  0  0  0
    8.7502   12.3244   10.8393 C   0  0  0  0  0  0  0  0  0  0  0  0
    9.0111   10.9723   10.9998 C   0  0  0  0  0  0  0  0  0  0  0  0
    9.9338   10.3353   10.1865 C   0  0  0  0  0  0  0  0  0  0  0  0
   10.6011   11.0514    9.2074 C   0  0  0  0  0  0  0  0  0  0  0  0
   10.3548   12.4067    9.0488 C   0  0  0  0  0  0  0  0  0  0  0  0
    9.4356   13.0424    9.8636 C   0  0  0  0  0  0  0  0  0  0  0  0
    6.1710   13.9202   10.6955 C   0  0  0  0  0  0  0  0  0  0  0  0
    6.1986   13.6058    9.3421 C   0  0  0  0  0  0  0  0  0  0  0  0
    5.2052   14.0711    8.4958 C   0  0  0  0  0  0  0  0  0  0  0  0
    4.1722   14.8473    8.9935 C   0  0  0  0  0  0  0  0  0  0  0  0
    4.1240   15.1458   10.3459 C   0  0  0  0  0  0  0  0  0  0  0  0
    5.1118   14.6758   11.1933 C   0  0  0  0  0  0  0  0  0  0  0  0
    8.5268   14.8015   12.4087 C   0  0  0  0  0  0  0  0  0  0  0  0
    8.0078   16.0885   12.3488 C   0  0  0  0  0  0  0  0  0  0  0  0
    8.8029   17.1728   12.6790 C   0  0  0  0  0  0  0  0  0  0  0  0
   10.1165   16.9795   13.0713 C   0  0  0  0  0  0  0  0  0  0  0  0
   10.6395   15.6981   13.1273 C   0  0  0  0  0  0  0  0  0  0  0  0
    9.8496   14.6121   12.7951 C   0  0  0  0  0  0  0  0  0  0  0  0
    8.5013   10.4345   11.7909 H   0  0  0  0  0  0  0  0  0  0  0  0
   10.1376    9.2824   10.3195 H   0  0  0  0  0  0  0  0  0  0  0  0
   11.3216   10.5575    8.5721 H   0  0  0  0  0  0  0  0  0  0  0  0
   10.8842   12.9674    8.2917 H   0  0  0  0  0  0  0  0  0  0  0  0
    9.2431   14.1070    9.7537 H   0  0  0  0  0  0  0  0  0  0  0  0
    7.0006   12.9919    8.9472 H   0  0  0  0  0  0  0  0  0  0  0  0
    5.2370   13.8233    7.4443 H   0  0  0  0  0  0  0  0  0  0  0  0
    3.4005   15.2098    8.3303 H   0  0  0  0  0  0  0  0  0  0  0  0
    3.3110   15.7383   10.7406 H   0  0  0  0  0  0  0  0  0  0  0  0
    5.0660   14.8758   12.2599 H   0  0  0  0  0  0  0  0  0  0  0  0
    6.9762   16.2417   12.0537 H   0  0  0  0  0  0  0  0  0  0  0  0
    8.3923   18.1715   12.6359 H   0  0  0  0  0  0  0  0  0  0  0  0
   10.7316   17.8272   13.3364 H   0  0  0  0  0  0  0  0  0  0  0  0
   11.6630   15.5432   13.4368 H   0  0  0  0  0  0  0  0  0  0  0  0
   10.2470   13.6037   12.8525 H   0  0  0  0  0  0  0  0  0  0  0  0
    6.3904    7.7706   13.5699 H   0  0  0  0  0  0  0  0  0  0  0  0
    7.8242    8.7902   13.6666 H   0  0  0  0  0  0  0  0  0  0  0  0
    7.0056    8.5547   12.1110 H   0  0  0  0  0  0  0  0  0  0  0  0
    4.3519    9.5571   10.8617 H   0  0  0  0  0  0  0  0  0  0  0  0
    6.0381   10.0572   10.6688 H   0  0  0  0  0  0  0  0  0  0  0  0
    4.7450   11.2554   10.5671 H   0  0  0  0  0  0  0  0  0  0  0  0
    2.2606   11.6969   12.8647 H   0  0  0  0  0  0  0  0  0  0  0  0
    3.3380   12.5637   11.7618 H   0  0  0  0  0  0  0  0  0  0  0  0
    3.0611   13.1799   13.3949 H   0  0  0  0  0  0  0  0  0  0  0  0
    2.7414   11.6103   15.7115 H   0  0  0  0  0  0  0  0  0  0  0  0
    3.9094   12.9335   15.8014 H   0  0  0  0  0  0  0  0  0  0  0  0
    4.1376   11.4939   16.7962 H   0  0  0  0  0  0  0  0  0  0  0  0
    5.7623    8.5751   16.1288 H   0  0  0  0  0  0  0  0  0  0  0  0
    5.8426   10.1452   16.9457 H   0  0  0  0  0  0  0  0  0  0  0  0
    7.2255    9.5600   16.0208 H   0  0  0  0  0  0  0  0  0  0  0  0
  2 27  1  0  0  0  0
  5 10  1  6  0  0  0
  5  1  1  0  0  0  0
  5  9  1  0  0  0  0
  6 11  1  1  0  0  0
  6  7  1  0  0  0  0
  6  5  1  0  0  0  0
  7 12  1  6  0  0  0
  7  1  1  0  0  0  0
  7  8  1  0  0  0  0
  8  9  2  0  0  0  0
  8 13  1  0  0  0  0
  9 14  1  0  0  0  0
 10 48  1  0  0  0  0
 10 49  1  0  0  0  0
 12 54  1  0  0  0  0
 12 56  1  0  0  0  0
 13 59  1  0  0  0  0
 14 60  1  0  0  0  0
 14 61  1  0  0  0  0
 15 16  1  0  0  0  0
 15  2  1  0  0  0  0
 16 33  1  0  0  0  0
 17 34  1  0  0  0  0
 17 16  2  0  0  0  0
 18 17  1  0  0  0  0
 19 18  2  0  0  0  0
 19 20  1  0  0  0  0
 20 15  2  0  0  0  0
 21 26  1  0  0  0  0
 21  2  1  0  0  0  0
 22 21  2  0  0  0  0
 23 24  2  0  0  0  0
 23 22  1  0  0  0  0
 24 25  1  0  0  0  0
 25 41  1  0  0  0  0
 25 26  2  0  0  0  0
 26 42  1  0  0  0  0
 27 32  1  0  0  0  0
 28 27  2  0  0  0  0
 28 29  1  0  0  0  0
 29 30  2  0  0  0  0
 30 31  1  0  0  0  0
 30 45  1  0  0  0  0
 31 46  1  0  0  0  0
 32 47  1  0  0  0  0
 32 31  2  0  0  0  0
 35 18  1  0  0  0  0
 36 19  1  0  0  0  0
 37 20  1  0  0  0  0
 38 22  1  0  0  0  0
 39 23  1  0  0  0  0
 40 24  1  0  0  0  0
 43 28  1  0  0  0  0
 44 29  1  0  0  0  0
 50 10  1  0  0  0  0
 51 11  1  0  0  0  0
 52 11  1  0  0  0  0
 53 11  1  0  0  0  0
 55 12  1  0  0  0  0
 57 13  1  0  0  0  0
 58 13  1  0  0  0  0
 62 14  1  0  0  0  0
M  END
$$$$
