CSD_code = FUQQUF | q = 0 | S = 0 | Stoichiometry = C28H30AsCl2Ir | MND = 8
 OpenBabel04212202043D

 62 63  0  0  1  0  0  0  0  0999 V2000
    5.0821    6.6333    9.5305 Ir  0  0  0  0  0  0  0  0  0  0  0  0
    3.9383    7.3886   11.4760 As  0  0  0  0  0  0  0  0  0  0  0  0
    5.2374    8.9921    9.2969 Cl  0  0  0  0  0 15  0  0  0  0  0  0
    2.8136    6.6887    8.8134 Cl  0  0  0  0  0 15  0  0  0  0  0  0
    6.9696    6.1635    8.3747 C   0  0  0  0  0  0  0  0  0  0  0  0
    5.9897    5.2175    8.0122 C   0  0  0  0  0  0  0  0  0  0  0  0
    5.5993    4.4997    9.2052 C   0  0  1  0  0  0  0  0  0  0  0  0
    6.3848    4.9853   10.2930 C   0  0  2  0  0  3  0  0  0  0  0  0
    7.1853    6.0631    9.7997 C   0  0  2  0  0  0  0  0  0  0  0  0
    7.7378    7.0798    7.4817 C   0  0  0  0  0  0  0  0  0  0  0  0
    5.4949    4.8815    6.6438 C   0  0  0  0  0  0  0  0  0  0  0  0
    4.7438    3.2741    9.1859 C   0  0  0  0  0  0  0  0  0  0  0  0
    6.4252    4.4228   11.6779 C   0  0  0  0  0  0  0  0  0  0  0  0
    8.2776    6.7709   10.5325 C   0  0  0  0  0  0  0  0  0  0  0  0
    2.8400    8.9829   11.4750 C   0  0  0  0  0  0  0  0  0  0  0  0
    3.3197   10.2158   11.8973 C   0  0  0  0  0  0  0  0  0  0  0  0
    2.4943   11.3272   11.8669 C   0  0  0  0  0  0  0  0  0  0  0  0
    1.1903   11.2142   11.4156 C   0  0  0  0  0  0  0  0  0  0  0  0
    0.7068    9.9847   10.9989 C   0  0  0  0  0  0  0  0  0  0  0  0
    1.5268    8.8711   11.0304 C   0  0  0  0  0  0  0  0  0  0  0  0
    2.6786    6.1679   12.3104 C   0  0  0  0  0  0  0  0  0  0  0  0
    2.4600    4.9007   11.7927 C   0  0  0  0  0  0  0  0  0  0  0  0
    1.5511    4.0457   12.3940 C   0  0  0  0  0  0  0  0  0  0  0  0
    0.8554    4.4572   13.5180 C   0  0  0  0  0  0  0  0  0  0  0  0
    1.0600    5.7272   14.0350 C   0  0  0  0  0  0  0  0  0  0  0  0
    1.9658    6.5811   13.4318 C   0  0  0  0  0  0  0  0  0  0  0  0
    5.2055    7.7263   12.9168 C   0  0  0  0  0  0  0  0  0  0  0  0
    5.1749    7.0507   14.1307 C   0  0  0  0  0  0  0  0  0  0  0  0
    6.1455    7.2909   15.0899 C   0  0  0  0  0  0  0  0  0  0  0  0
    7.1595    8.2009   14.8428 C   0  0  0  0  0  0  0  0  0  0  0  0
    7.2112    8.8613   13.6255 C   0  0  0  0  0  0  0  0  0  0  0  0
    6.2456    8.6177   12.6647 C   0  0  0  0  0  0  0  0  0  0  0  0
    7.4104    6.9891    6.4495 H   0  0  0  0  0  0  0  0  0  0  0  0
    8.8014    6.8432    7.5359 H   0  0  0  0  0  0  0  0  0  0  0  0
    7.6035    8.1157    7.7927 H   0  0  0  0  0  0  0  0  0  0  0  0
    5.9086    3.9232    6.3237 H   0  0  0  0  0  0  0  0  0  0  0  0
    5.7812    5.6427    5.9232 H   0  0  0  0  0  0  0  0  0  0  0  0
    4.4092    4.8003    6.6402 H   0  0  0  0  0  0  0  0  0  0  0  0
    4.5595    2.9025   10.1911 H   0  0  0  0  0  0  0  0  0  0  0  0
    5.2458    2.4892    8.6170 H   0  0  0  0  0  0  0  0  0  0  0  0
    3.7892    3.4758    8.7016 H   0  0  0  0  0  0  0  0  0  0  0  0
    7.1440    3.6026   11.7241 H   0  0  0  0  0  0  0  0  0  0  0  0
    5.4494    4.0411   11.9778 H   0  0  0  0  0  0  0  0  0  0  0  0
    6.7286    5.1829   12.3973 H   0  0  0  0  0  0  0  0  0  0  0  0
    8.3634    7.7979   10.1850 H   0  0  0  0  0  0  0  0  0  0  0  0
    9.2309    6.2691   10.3537 H   0  0  0  0  0  0  0  0  0  0  0  0
    8.0911    6.7827   11.6045 H   0  0  0  0  0  0  0  0  0  0  0  0
    4.3437   10.3088   12.2398 H   0  0  0  0  0  0  0  0  0  0  0  0
    2.8738   12.2857   12.1911 H   0  0  0  0  0  0  0  0  0  0  0  0
    0.5517   12.0851   11.3855 H   0  0  0  0  0  0  0  0  0  0  0  0
   -0.3091    9.8940   10.6427 H   0  0  0  0  0  0  0  0  0  0  0  0
    1.1614    7.9075   10.6902 H   0  0  0  0  0  0  0  0  0  0  0  0
    2.9906    4.6074   10.8955 H   0  0  0  0  0  0  0  0  0  0  0  0
    1.3800    3.0611   11.9831 H   0  0  0  0  0  0  0  0  0  0  0  0
    0.1453    3.7928   13.9881 H   0  0  0  0  0  0  0  0  0  0  0  0
    0.5088    6.0518   14.9060 H   0  0  0  0  0  0  0  0  0  0  0  0
    2.1259    7.5825   13.8246 H   0  0  0  0  0  0  0  0  0  0  0  0
    4.3890    6.3300   14.3272 H   0  0  0  0  0  0  0  0  0  0  0  0
    6.1111    6.7624   16.0319 H   0  0  0  0  0  0  0  0  0  0  0  0
    7.9135    8.3870   15.5934 H   0  0  0  0  0  0  0  0  0  0  0  0
    8.0102    9.5599   13.4228 H   0  0  0  0  0  0  0  0  0  0  0  0
    6.2948    9.1044   11.6958 H   0  0  0  0  0  0  0  0  0  0  0  0
  1  9  1  0  0  0  0
  2 21  1  0  0  0  0
  2 27  1  0  0  0  0
  5  9  1  0  0  0  0
  6  5  2  0  0  0  0
  6  7  1  0  0  0  0
  7 12  1  1  0  0  0
  7  1  1  0  0  0  0
  7  8  1  0  0  0  0
  8 13  1  6  0  0  0
  9  8  1  0  0  0  0
  9 14  1  1  0  0  0
 10 34  1  0  0  0  0
 10 35  1  0  0  0  0
 10  5  1  0  0  0  0
 11  6  1  0  0  0  0
 12 39  1  0  0  0  0
 13 42  1  0  0  0  0
 13 43  1  0  0  0  0
 13 44  1  0  0  0  0
 14 47  1  0  0  0  0
 15  2  1  0  0  0  0
 15 16  1  0  0  0  0
 16 48  1  0  0  0  0
 17 16  2  0  0  0  0
 17 49  1  0  0  0  0
 18 17  1  0  0  0  0
 19 20  1  0  0  0  0
 19 18  2  0  0  0  0
 20 15  2  0  0  0  0
 21 26  1  0  0  0  0
 22 21  2  0  0  0  0
 22 23  1  0  0  0  0
 23 24  2  0  0  0  0
 24 55  1  0  0  0  0
 24 25  1  0  0  0  0
 25 56  1  0  0  0  0
 26 57  1  0  0  0  0
 26 25  2  0  0  0  0
 27 28  1  0  0  0  0
 28 58  1  0  0  0  0
 28 29  2  0  0  0  0
 29 59  1  0  0  0  0
 30 29  1  0  0  0  0
 30 60  1  0  0  0  0
 31 30  2  0  0  0  0
 32 27  2  0  0  0  0
 32 31  1  0  0  0  0
 33 10  1  0  0  0  0
 36 11  1  0  0  0  0
 37 11  1  0  0  0  0
 38 11  1  0  0  0  0
 40 12  1  0  0  0  0
 41 12  1  0  0  0  0
 45 14  1  0  0  0  0
 46 14  1  0  0  0  0
 50 18  1  0  0  0  0
 51 19  1  0  0  0  0
 52 20  1  0  0  0  0
 53 22  1  0  0  0  0
 54 23  1  0  0  0  0
 61 31  1  0  0  0  0
 62 32  1  0  0  0  0
M  END
$$$$
