CSD_code = FUQQOZ | q = 0 | S = 0 | Stoichiometry = C16H30AsCl2Ir | MND = 8
 OpenBabel04212202043D

 50 48  0  0  1  0  0  0  0  0999 V2000
    1.4095   29.3182    3.5810 Ir  0  0  0  0  0  0  0  0  0  0  0  0
    1.1798   27.1519    2.5900 As  0  0  0  0  0  0  0  0  0  0  0  0
    1.7268   27.9606    5.4874 Cl  0  0  0  0  0 15  0  0  0  0  0  0
    3.6631   28.9477    2.9481 Cl  0  0  0  0  0 15  0  0  0  0  0  0
    1.0252   31.1789    2.4497 C   0  0  2  0  0  0  0  0  0  0  0  0
    1.5143   31.5602    3.7558 C   0  0  0  0  0  0  0  0  0  0  0  0
    0.5954   31.0935    4.7199 C   0  0  0  0  0  0  0  0  0  0  0  0
   -0.4577   30.3906    4.0292 C   0  0  1  0  0  0  0  0  0  0  0  0
   -0.2246   30.5181    2.6223 C   0  0  1  0  0  3  0  0  0  0  0  0
    1.6403   31.6307    1.1659 C   0  0  0  0  0  0  0  0  0  0  0  0
    2.7259   32.4056    3.9721 C   0  0  0  0  0  0  0  0  0  0  0  0
    0.6178   31.3156    6.1957 C   0  0  0  0  0  0  0  0  0  0  0  0
   -1.7087   29.8923    4.6770 C   0  0  0  0  0  0  0  0  0  0  0  0
   -1.1911   30.1407    1.5470 C   0  0  0  0  0  0  0  0  0  0  0  0
    2.5195   25.7911    3.0444 C   0  0  0  0  0  0  0  0  0  0  0  0
    2.3211   24.4465    2.3550 C   0  0  0  0  0  0  0  0  0  0  0  0
    1.1349   27.1245    0.6169 C   0  0  0  0  0  0  0  0  0  0  0  0
    2.4375   27.6153    0.0021 C   0  0  0  0  0  0  0  0  0  0  0  0
   -0.5409   26.2353    2.9044 C   0  0  0  0  0  0  0  0  0  0  0  0
   -0.7446   25.8482    4.3618 C   0  0  0  0  0  0  0  0  0  0  0  0
    1.2516   31.0682    0.3200 H   0  0  0  0  0  0  0  0  0  0  0  0
    2.7205   31.5019    1.1981 H   0  0  0  0  0  0  0  0  0  0  0  0
    1.4295   32.6895    1.0039 H   0  0  0  0  0  0  0  0  0  0  0  0
    3.5885   31.9709    3.4688 H   0  0  0  0  0  0  0  0  0  0  0  0
    2.9605   32.4950    5.0294 H   0  0  0  0  0  0  0  0  0  0  0  0
    2.5609   33.4036    3.5622 H   0  0  0  0  0  0  0  0  0  0  0  0
   -0.2828   31.8483    6.5030 H   0  0  0  0  0  0  0  0  0  0  0  0
    1.4871   31.8954    6.4931 H   0  0  0  0  0  0  0  0  0  0  0  0
    0.6475   30.3637    6.7255 H   0  0  0  0  0  0  0  0  0  0  0  0
   -2.4004   30.7210    4.8428 H   0  0  0  0  0  0  0  0  0  0  0  0
   -1.4840   29.4398    5.6403 H   0  0  0  0  0  0  0  0  0  0  0  0
   -2.2057   29.1524    4.0529 H   0  0  0  0  0  0  0  0  0  0  0  0
   -0.6989   30.0833    0.5785 H   0  0  0  0  0  0  0  0  0  0  0  0
   -1.9785   30.8942    1.4847 H   0  0  0  0  0  0  0  0  0  0  0  0
   -1.6629   29.1801    1.7568 H   0  0  0  0  0  0  0  0  0  0  0  0
    3.4944   26.2146    2.7891 H   0  0  0  0  0  0  0  0  0  0  0  0
    2.4900   25.6754    4.1313 H   0  0  0  0  0  0  0  0  0  0  0  0
    2.3877   24.5459    1.2712 H   0  0  0  0  0  0  0  0  0  0  0  0
    1.3528   24.0127    2.6075 H   0  0  0  0  0  0  0  0  0  0  0  0
    3.0944   23.7493    2.6750 H   0  0  0  0  0  0  0  0  0  0  0  0
    0.9109   26.1029    0.2901 H   0  0  0  0  0  0  0  0  0  0  0  0
    0.3022   27.7576    0.2961 H   0  0  0  0  0  0  0  0  0  0  0  0
    3.2622   26.9611    0.2842 H   0  0  0  0  0  0  0  0  0  0  0  0
    2.6732   28.6130    0.3703 H   0  0  0  0  0  0  0  0  0  0  0  0
    2.3721   27.6441   -1.0853 H   0  0  0  0  0  0  0  0  0  0  0  0
   -1.3388   26.9103    2.5797 H   0  0  0  0  0  0  0  0  0  0  0  0
   -0.5828   25.3520    2.2571 H   0  0  0  0  0  0  0  0  0  0  0  0
   -0.6535   26.7264    4.9991 H   0  0  0  0  0  0  0  0  0  0  0  0
    0.0163   25.1343    4.6764 H   0  0  0  0  0  0  0  0  0  0  0  0
   -1.7260   25.3995    4.5134 H   0  0  0  0  0  0  0  0  0  0  0  0
  1  8  1  0  0  0  0
  2 19  1  0  0  0  0
  2 15  1  0  0  0  0
  5 10  1  6  0  0  0
  5  9  1  0  0  0  0
  5  1  1  0  0  0  0
  5  6  1  0  0  0  0
  6 11  1  0  0  0  0
  6  7  2  0  0  0  0
  7 12  1  0  0  0  0
  8 13  1  1  0  0  0
  8  7  1  0  0  0  0
  9 14  1  1  0  0  0
  9  8  1  0  0  0  0
 10 22  1  0  0  0  0
 11 25  1  0  0  0  0
 12 28  1  0  0  0  0
 12 27  1  0  0  0  0
 12 29  1  0  0  0  0
 13 30  1  0  0  0  0
 13 31  1  0  0  0  0
 14 35  1  0  0  0  0
 15 37  1  0  0  0  0
 16 39  1  0  0  0  0
 16 40  1  0  0  0  0
 16 15  1  0  0  0  0
 17  2  1  0  0  0  0
 18 43  1  0  0  0  0
 18 44  1  0  0  0  0
 18 17  1  0  0  0  0
 19 20  1  0  0  0  0
 20 50  1  0  0  0  0
 20 49  1  0  0  0  0
 20 48  1  0  0  0  0
 21 10  1  0  0  0  0
 23 10  1  0  0  0  0
 24 11  1  0  0  0  0
 26 11  1  0  0  0  0
 32 13  1  0  0  0  0
 33 14  1  0  0  0  0
 34 14  1  0  0  0  0
 36 15  1  0  0  0  0
 38 16  1  0  0  0  0
 41 17  1  0  0  0  0
 42 17  1  0  0  0  0
 45 18  1  0  0  0  0
 46 19  1  0  0  0  0
 47 19  1  0  0  0  0
M  END
$$$$
