CSD_code = FURGOQ | q = 0 | S = 0 | Stoichiometry = C11H13Cl2N3Pd | MND = 4
 OpenBabel04212202043D

 30 32  0  0  0  0  0  0  0  0999 V2000
   13.5388    3.8318    6.1170 Pd  0  0  0  0  0  0  0  0  0  0  0  0
   12.9374    5.9934    5.9660 Cl  0  0  0  0  0  0  0  0  0  0  0  0
   12.1728    3.6047    7.8724 Cl  0  0  0  0  0  0  0  0  0  0  0  0
   15.4430    0.1591    6.3829 C   0  0  0  0  0  0  0  0  0  0  0  0
   16.1316   -0.5587    5.9894 H   0  0  0  0  0  0  0  0  0  0  0  0
   14.1714    1.9963    6.4232 C   0  0  0  0  0  0  0  0  0  0  0  0
   14.9915    1.2401    5.6524 N   0  0  0  0  0  0  0  0  0  0  0  0
   15.0822    3.9055    4.4611 N   0  0  0  0  0  4  0  0  0  0  0  0
   15.3039    0.2897    3.4805 C   0  0  0  0  0  0  0  0  0  0  0  0
   15.2575   -0.6803    3.9501 H   0  0  0  0  0  0  0  0  0  0  0  0
   14.8965    0.2570    7.6166 C   0  0  0  0  0  0  0  0  0  0  0  0
   15.0040   -0.3765    8.4722 H   0  0  0  0  0  0  0  0  0  0  0  0
   14.1252    1.3847    7.6164 N   0  0  0  0  0  0  0  0  0  0  0  0
   15.1861    1.4294    4.2699 C   0  0  0  0  0  0  0  0  0  0  0  0
   16.2935    4.1235    5.2704 C   0  0  0  0  0  0  0  0  0  0  0  0
   17.1415    4.3832    4.6230 H   0  0  0  0  0  0  0  0  0  0  0  0
   16.5578    3.2318    5.8404 H   0  0  0  0  0  0  0  0  0  0  0  0
   16.1131    4.9513    5.9655 H   0  0  0  0  0  0  0  0  0  0  0  0
   15.1867    2.7076    3.6759 C   0  0  0  0  0  0  0  0  0  0  0  0
   15.3129    2.7605    2.2876 C   0  0  0  0  0  0  0  0  0  0  0  0
   15.3162    3.7087    1.7793 H   0  0  0  0  0  0  0  0  0  0  0  0
   15.4382    1.6211    1.5139 C   0  0  0  0  0  0  0  0  0  0  0  0
   15.5328    1.7155    0.4434 H   0  0  0  0  0  0  0  0  0  0  0  0
   15.4404    0.3750    2.1095 C   0  0  0  0  0  0  0  0  0  0  0  0
   15.5288   -0.5221    1.5178 H   0  0  0  0  0  0  0  0  0  0  0  0
   14.8390    5.1106    3.6637 C   0  0  0  0  0  0  0  0  0  0  0  0
   15.7000    5.3610    3.0328 H   0  0  0  0  0  0  0  0  0  0  0  0
   14.6477    5.9401    4.3471 H   0  0  0  0  0  0  0  0  0  0  0  0
   13.9458    4.9750    3.0540 H   0  0  0  0  0  0  0  0  0  0  0  0
   13.5205    1.7536    8.3490 H   0  0  0  0  0  0  0  0  0  0  0  0
  1  6  2  0  0  0  0
  1  3  1  0  0  0  0
  2  1  1  0  0  0  0
  4 11  2  0  0  0  0
  5  4  1  0  0  0  0
  6 13  1  0  0  0  0
  7  4  1  0  0  0  0
  7  6  1  0  0  0  0
  8 15  1  0  0  0  0
  8  1  1  0  0  0  0
  9 10  1  0  0  0  0
  9 14  1  0  0  0  0
 11 12  1  0  0  0  0
 13 11  1  0  0  0  0
 13 30  1  0  0  0  0
 14  7  1  0  0  0  0
 15 17  1  0  0  0  0
 15 18  1  0  0  0  0
 16 15  1  0  0  0  0
 19 14  2  0  0  0  0
 19  8  1  0  0  0  0
 20 19  1  0  0  0  0
 21 20  1  0  0  0  0
 22 24  1  0  0  0  0
 22 20  2  0  0  0  0
 23 22  1  0  0  0  0
 24  9  2  0  0  0  0
 25 24  1  0  0  0  0
 26 28  1  0  0  0  0
 26  8  1  0  0  0  0
 27 26  1  0  0  0  0
 29 26  1  0  0  0  0
M  END
$$$$
