CSD_code = FURLAF | q = 0 | S = 0 | Stoichiometry = C12H20Cl3N2O2RhS2 | MND = 6
 OpenBabel04212202043D

 42 43  0  0  0  0  0  0  0  0999 V2000
    2.5378    2.3712    3.1299 Rh  0  0  0  0  0  0  0  0  0  0  0  0
    0.3955    3.2006    3.3815 Cl  0  0  0  0  0  0  0  0  0  0  0  0
    4.7166    1.5751    3.0717 Cl  0  0  0  0  0  0  0  0  0  0  0  0
    2.7992    3.4901    1.1571 Cl  0  0  0  0  0  0  0  0  0  0  0  0
    2.3540    1.2487    5.1416 S   0  0  0  0  0  0  0  0  0  0  0  0
    3.2730    4.2547    4.0863 S   0  0  0  0  0  0  0  0  0  0  0  0
    1.9507   -0.1394    4.9925 O   0  0  0  0  0  1  0  0  0  0  0  0
    3.3309    4.1968    5.5424 O   0  0  0  0  0  1  0  0  0  0  0  0
    1.9260    0.7259    2.1062 N   0  0  0  0  0  0  0  0  0  0  0  0
    2.1324   -0.8697    0.5901 N   0  0  0  0  0  0  0  0  0  0  0  0
    0.8213   -0.0892    2.2135 C   0  0  0  0  0  0  0  0  0  0  0  0
    0.9519   -1.1125    1.2512 C   0  0  0  0  0  0  0  0  0  0  0  0
   -0.0036   -2.1081    1.1008 C   0  0  0  0  0  0  0  0  0  0  0  0
   -1.0978   -2.0549    1.9374 C   0  0  0  0  0  0  0  0  0  0  0  0
   -1.2396   -1.0397    2.8865 C   0  0  0  0  0  0  0  0  0  0  0  0
   -0.2962   -0.0477    3.0413 C   0  0  0  0  0  0  0  0  0  0  0  0
    2.6650    0.2318    1.1361 C   0  0  0  0  0  3  0  0  0  0  0  0
    2.6846   -1.6526   -0.4777 C   0  0  0  0  0  0  0  0  0  0  0  0
    3.8462    1.2329    6.1782 C   0  0  0  0  0  0  0  0  0  0  0  0
    1.2218    2.0097    6.3420 C   0  0  0  0  0  0  0  0  0  0  0  0
    2.3466    5.7511    3.6587 C   0  0  0  0  0  0  0  0  0  0  0  0
    4.9075    4.7863    3.5124 C   0  0  0  0  0  0  0  0  0  0  0  0
    0.1067   -2.8864    0.3618 H   0  0  0  0  0  0  0  0  0  0  0  0
   -1.8645   -2.8103    1.8558 H   0  0  0  0  0  0  0  0  0  0  0  0
   -2.1168   -1.0343    3.5148 H   0  0  0  0  0  0  0  0  0  0  0  0
   -0.4200    0.7387    3.7652 H   0  0  0  0  0  0  0  0  0  0  0  0
    3.5975    0.6563    0.8082 H   0  0  0  0  0  0  0  0  0  0  0  0
    1.9954   -1.6745   -1.3242 H   0  0  0  0  0  0  0  0  0  0  0  0
    2.8621   -2.6756   -0.1408 H   0  0  0  0  0  0  0  0  0  0  0  0
    3.6273   -1.2123   -0.7954 H   0  0  0  0  0  0  0  0  0  0  0  0
    4.0920    2.2590    6.4233 H   0  0  0  0  0  0  0  0  0  0  0  0
    4.6441    0.7708    5.6069 H   0  0  0  0  0  0  0  0  0  0  0  0
    3.6203    0.6457    7.0603 H   0  0  0  0  0  0  0  0  0  0  0  0
    1.6441    2.9690    6.6164 H   0  0  0  0  0  0  0  0  0  0  0  0
    1.1366    1.3425    7.1914 H   0  0  0  0  0  0  0  0  0  0  0  0
    0.2588    2.1479    5.8627 H   0  0  0  0  0  0  0  0  0  0  0  0
    2.3570    5.8475    2.5790 H   0  0  0  0  0  0  0  0  0  0  0  0
    2.8238    6.5918    4.1485 H   0  0  0  0  0  0  0  0  0  0  0  0
    1.3284    5.6261    4.0119 H   0  0  0  0  0  0  0  0  0  0  0  0
    4.8479    4.9161    2.4377 H   0  0  0  0  0  0  0  0  0  0  0  0
    5.6191    4.0028    3.7514 H   0  0  0  0  0  0  0  0  0  0  0  0
    5.1630    5.7077    4.0224 H   0  0  0  0  0  0  0  0  0  0  0  0
  1  2  1  0  0  0  0
  1  6  1  0  0  0  0
  1  5  1  0  0  0  0
  3  1  1  0  0  0  0
  4  1  1  0  0  0  0
  5 19  1  0  0  0  0
  5 20  1  0  0  0  0
  6  8  1  0  0  0  0
  7  5  1  0  0  0  0
  9 11  1  0  0  0  0
  9  1  1  0  0  0  0
 10 17  1  0  0  0  0
 10 12  1  0  0  0  0
 11 16  1  0  0  0  0
 12 11  2  0  0  0  0
 13 12  1  0  0  0  0
 13 14  2  0  0  0  0
 14 15  1  0  0  0  0
 15 16  2  0  0  0  0
 15 25  1  0  0  0  0
 16 26  1  0  0  0  0
 17  9  1  0  0  0  0
 18 29  1  0  0  0  0
 18 10  1  0  0  0  0
 19 31  1  0  0  0  0
 19 33  1  0  0  0  0
 20 34  1  0  0  0  0
 20 35  1  0  0  0  0
 21 39  1  0  0  0  0
 21  6  1  0  0  0  0
 21 38  1  0  0  0  0
 22 41  1  0  0  0  0
 22 42  1  0  0  0  0
 22  6  1  0  0  0  0
 23 13  1  0  0  0  0
 24 14  1  0  0  0  0
 27 17  1  0  0  0  0
 28 18  1  0  0  0  0
 30 18  1  0  0  0  0
 32 19  1  0  0  0  0
 36 20  1  0  0  0  0
 37 21  1  0  0  0  0
 40 22  1  0  0  0  0
M  END
$$$$
