CSD_code = FURPAJ | q = 0 | S = 0 | Stoichiometry = C12H17Cl3N4OPtS | MND = 4
 OpenBabel04212202043D

 39 40  0  0  1  0  0  0  0  0999 V2000
   -0.3989    1.4499    2.1701 Pt  0  0  0  0  0  0  0  0  0  0  0  0
    0.3362    3.5871    2.2568 Cl  0  0  0  0  0  0  0  0  0  0  0  0
   -0.9953   -0.8348    2.0812 Cl  0  0  0  0  0  0  0  0  0  0  0  0
   -2.3732    2.0593    1.3431 Cl  0  0  0  0  0  0  0  0  0  0  0  0
    3.1199   -2.3817    1.9159 C   0  0  0  0  0  0  0  0  0  0  0  0
    1.3085    0.7189    2.9715 N   0  0  0  0  0  0  0  0  0  0  0  0
    1.4949    0.6653    4.3015 C   0  0  1  0  0  3  0  0  0  0  0  0
    0.8334    1.6988    5.1359 C   0  0  0  0  0  0  0  0  0  0  0  0
    2.2174   -0.2569    4.8994 N   0  0  0  0  0  0  0  0  0  0  0  0
    2.7532   -1.2450    4.1807 C   0  0  0  0  0  0  0  0  0  0  0  0
    3.3565   -2.2363    4.8905 N   0  0  0  0  0  0  0  0  0  0  0  0
    2.6272   -1.2570    2.7780 C   0  0  0  0  0  0  0  0  0  0  0  0
    1.9063   -0.2139    2.2273 C   0  0  0  0  0  0  0  0  0  0  0  0
    0.1176   -4.8934    2.2479 S   0  0  0  0  0  0  0  0  0  0  0  0
    0.9126   -3.4051    2.1948 C   0  0  0  0  0  3  0  0  0  0  0  0
    2.2313   -3.5348    2.0159 N   0  0  0  0  0  0  0  0  0  0  0  0
    2.6543   -4.8370    1.9029 C   0  0  0  0  0  0  0  0  0  0  0  0
    4.0908   -5.1633    1.6741 C   0  0  0  0  0  0  0  0  0  0  0  0
    1.6272   -5.7247    1.9963 C   0  0  0  0  0  0  0  0  0  0  0  0
    1.6611   -7.2134    1.9922 C   0  0  0  0  0  0  0  0  0  0  0  0
    1.8743   -7.7465    3.4169 C   0  0  0  0  0  0  0  0  0  0  0  0
    0.8439   -7.2309    4.2240 O   0  0  0  0  0  0  0  0  0  0  0  0
    0.8649   -7.6492    5.0899 H   0  0  0  0  0  0  0  0  0  0  0  0
    3.1486   -2.0500    0.8722 H   0  0  0  0  0  0  0  0  0  0  0  0
    4.1246   -2.6931    2.2094 H   0  0  0  0  0  0  0  0  0  0  0  0
   -0.2509    1.5959    5.0397 H   0  0  0  0  0  0  0  0  0  0  0  0
    1.0930    2.6903    4.7658 H   0  0  0  0  0  0  0  0  0  0  0  0
    1.1221    1.5842    6.1756 H   0  0  0  0  0  0  0  0  0  0  0  0
    4.0569   -2.8089    4.4532 H   0  0  0  0  0  0  0  0  0  0  0  0
    3.4815   -2.0336    5.8691 H   0  0  0  0  0  0  0  0  0  0  0  0
    1.7859   -0.1308    1.1538 H   0  0  0  0  0  0  0  0  0  0  0  0
    0.3656   -2.4582    2.2328 H   0  0  0  0  0  0  0  0  0  0  0  0
    4.1994   -6.2246    1.4748 H   0  0  0  0  0  0  0  0  0  0  0  0
    4.6939   -4.9249    2.5503 H   0  0  0  0  0  0  0  0  0  0  0  0
    4.4827   -4.6111    0.8214 H   0  0  0  0  0  0  0  0  0  0  0  0
    2.4522   -7.5902    1.3436 H   0  0  0  0  0  0  0  0  0  0  0  0
    0.7013   -7.5841    1.6324 H   0  0  0  0  0  0  0  0  0  0  0  0
    1.8530   -8.8436    3.3952 H   0  0  0  0  0  0  0  0  0  0  0  0
    2.8570   -7.4225    3.7918 H   0  0  0  0  0  0  0  0  0  0  0  0
  1  2  1  0  0  0  0
  1  6  1  0  0  0  0
  3  1  1  0  0  0  0
  4  1  1  0  0  0  0
  5 16  1  0  0  0  0
  5 25  1  0  0  0  0
  5 12  1  0  0  0  0
  6  7  1  0  0  0  0
  7  9  1  0  0  0  0
  7  8  1  1  0  0  0
  8 28  1  0  0  0  0
 10 11  1  0  0  0  0
 10  9  2  0  0  0  0
 11 30  1  0  0  0  0
 12 10  1  0  0  0  0
 13 12  2  0  0  0  0
 13  6  1  0  0  0  0
 15 32  1  0  0  0  0
 15 14  1  0  0  0  0
 16 15  1  0  0  0  0
 17 19  2  0  0  0  0
 17 16  1  0  0  0  0
 18 17  1  0  0  0  0
 18 34  1  0  0  0  0
 19 14  1  0  0  0  0
 20 19  1  0  0  0  0
 20 21  1  0  0  0  0
 21 39  1  0  0  0  0
 21 22  1  0  0  0  0
 22 23  1  0  0  0  0
 24  5  1  0  0  0  0
 26  8  1  0  0  0  0
 27  8  1  0  0  0  0
 29 11  1  0  0  0  0
 31 13  1  0  0  0  0
 33 18  1  0  0  0  0
 35 18  1  0  0  0  0
 36 20  1  0  0  0  0
 37 20  1  0  0  0  0
 38 21  1  0  0  0  0
M  END
$$$$
