CSD_code = FUSHEH | q = 0 | S = 0 | Stoichiometry = C7H9Cl3N2O2Pt | MND = 6
 OpenBabel04212202043D

 24 25  0  0  0  0  0  0  0  0999 V2000
    2.3722    1.4195    0.1977 Pt  0  0  0  0  0  0  0  0  0  0  0  0
    1.5313    0.3201   -1.6672 Cl  0  0  0  0  0  0  0  0  0  0  0  0
    0.2645    2.4751    0.4831 Cl  0  0  0  0  0  0  0  0  0  0  0  0
    4.4584    0.3132   -0.0082 Cl  0  0  0  0  0  0  0  0  0  0  0  0
    3.0616    2.2795    1.9594 O   0  0  0  0  0  0  0  0  0  0  0  0
    3.0149    1.9902    4.1435 O   0  0  0  0  0  0  0  0  0  0  0  0
    3.0249    2.9344   -0.9252 N   0  0  0  0  0  0  0  0  0  0  0  0
    1.8004   -0.0874    1.4844 N   0  0  0  0  0  4  0  0  0  0  0  0
    2.9512    4.1650   -0.4191 C   0  0  0  0  0  3  0  0  0  0  0  0
    3.4415    5.2627   -1.1042 C   0  0  0  0  0  0  0  0  0  0  0  0
    4.0267    5.0765   -2.3470 C   0  0  0  0  0  0  0  0  0  0  0  0
    4.1032    3.7898   -2.8567 C   0  0  0  0  0  0  0  0  0  0  0  0
    3.5926    2.7391   -2.1147 C   0  0  0  0  0  0  0  0  0  0  0  0
    1.6542    0.5184    2.8178 C   0  0  0  0  0  0  0  0  0  0  0  0
    2.6768    1.6851    3.0275 C   0  0  0  0  0  0  0  0  0  0  0  0
    2.4981    4.2695    0.5590 H   0  0  0  0  0  0  0  0  0  0  0  0
    3.3638    6.2431   -0.6628 H   0  0  0  0  0  0  0  0  0  0  0  0
    4.4176    5.9144   -2.9037 H   0  0  0  0  0  0  0  0  0  0  0  0
    4.5540    3.5934   -3.8160 H   0  0  0  0  0  0  0  0  0  0  0  0
    3.6356    1.7213   -2.4815 H   0  0  0  0  0  0  0  0  0  0  0  0
    2.5691   -0.7684    1.4829 H   0  0  0  0  0  0  0  0  0  0  0  0
    0.9440   -0.5698    1.1970 H   0  0  0  0  0  0  0  0  0  0  0  0
    1.7811   -0.2137    3.6196 H   0  0  0  0  0  0  0  0  0  0  0  0
    0.6622    0.9726    2.9016 H   0  0  0  0  0  0  0  0  0  0  0  0
  1  3  1  0  0  0  0
  1  8  1  0  0  0  0
  1  5  1  0  0  0  0
  2  1  1  0  0  0  0
  4  1  1  0  0  0  0
  5 15  1  0  0  0  0
  7  9  1  0  0  0  0
  7  1  1  0  0  0  0
  8 14  1  0  0  0  0
  9 16  1  0  0  0  0
 10 17  1  0  0  0  0
 10  9  1  0  0  0  0
 11 10  2  0  0  0  0
 12 11  1  0  0  0  0
 12 13  2  0  0  0  0
 13  7  1  0  0  0  0
 14 24  1  0  0  0  0
 14 15  1  0  0  0  0
 14 23  1  0  0  0  0
 15  6  2  0  0  0  0
 18 11  1  0  0  0  0
 19 12  1  0  0  0  0
 20 13  1  0  0  0  0
 21  8  1  0  0  0  0
 22  8  1  0  0  0  0
M  END
$$$$
