CSD_code = FUTWEW | q = 1 | S = 0 | Stoichiometry = C4H16Cl2N4Rh(1+) | MND = 6
 OpenBabel04212202043D

 27 28  0  0  0  0  0  0  0  0999 V2000
    0.0001    0.0000   -0.0001 Rh  0  0  0  0  0  0  0  0  0  0  0  0
    1.8824    0.5689   -1.2463 Cl  0  0  0  0  0  0  0  0  0  0  0  0
    0.4274    1.4397    1.4209 N   0  0  0  0  0  4  0  0  0  0  0  0
    1.2219   -1.1619    1.1964 N   0  0  0  0  0  4  0  0  0  0  0  0
    1.5839    0.9922    2.2170 C   0  0  0  0  0  0  0  0  0  0  0  0
    1.3861   -0.4921    2.4988 C   0  0  0  0  0  0  0  0  0  0  0  0
   -0.3982    1.4914    2.0273 H   0  0  0  0  0  0  0  0  0  0  0  0
    0.6116    2.3751    1.0538 H   0  0  0  0  0  0  0  0  0  0  0  0
    2.1299   -1.1978    0.7204 H   0  0  0  0  0  0  0  0  0  0  0  0
    0.9027   -2.1205    1.3474 H   0  0  0  0  0  0  0  0  0  0  0  0
    1.6747    1.5590    3.1482 H   0  0  0  0  0  0  0  0  0  0  0  0
    2.4886    1.1379    1.6198 H   0  0  0  0  0  0  0  0  0  0  0  0
    0.4702   -0.6397    3.0782 H   0  0  0  0  0  0  0  0  0  0  0  0
    2.2332   -0.9010    3.0573 H   0  0  0  0  0  0  0  0  0  0  0  0
   -1.8823   -0.5687    1.2462 Cl  0  0  0  0  0  0  0  0  0  0  0  0
   -0.4275   -1.4397   -1.4209 N   0  0  0  0  0  4  0  0  0  0  0  0
   -1.2219    1.1618   -1.1964 N   0  0  0  0  0  4  0  0  0  0  0  0
   -1.5839   -0.9922   -2.2170 C   0  0  0  0  0  0  0  0  0  0  0  0
    0.3982   -1.4915   -2.0273 H   0  0  0  0  0  0  0  0  0  0  0  0
   -0.6117   -2.3752   -1.0538 H   0  0  0  0  0  0  0  0  0  0  0  0
   -1.3861    0.4921   -2.4987 C   0  0  0  0  0  0  0  0  0  0  0  0
   -2.1299    1.1978   -0.7204 H   0  0  0  0  0  0  0  0  0  0  0  0
   -0.9027    2.1205   -1.3474 H   0  0  0  0  0  0  0  0  0  0  0  0
   -1.6747   -1.5590   -3.1482 H   0  0  0  0  0  0  0  0  0  0  0  0
   -2.4886   -1.1379   -1.6198 H   0  0  0  0  0  0  0  0  0  0  0  0
   -0.4703    0.6397   -3.0782 H   0  0  0  0  0  0  0  0  0  0  0  0
   -2.2332    0.9010   -3.0573 H   0  0  0  0  0  0  0  0  0  0  0  0
  1  4  1  0  0  0  0
  1 15  1  0  0  0  0
  1  3  1  0  0  0  0
  2  1  1  0  0  0  0
  3  7  1  0  0  0  0
  3  5  1  0  0  0  0
  4 10  1  0  0  0  0
  4  6  1  0  0  0  0
  5  6  1  0  0  0  0
  5 11  1  0  0  0  0
  6 14  1  0  0  0  0
  6 13  1  0  0  0  0
  8  3  1  0  0  0  0
  9  4  1  0  0  0  0
 12  5  1  0  0  0  0
 16 20  1  0  0  0  0
 16  1  1  0  0  0  0
 17 22  1  0  0  0  0
 17  1  1  0  0  0  0
 18 25  1  0  0  0  0
 18 16  1  0  0  0  0
 19 16  1  0  0  0  0
 21 18  1  0  0  0  0
 21 17  1  0  0  0  0
 23 17  1  0  0  0  0
 24 18  1  0  0  0  0
 26 21  1  0  0  0  0
 27 21  1  0  0  0  0
M  END
$$$$
