CSD_code = FUVPUJ | q = 0 | S = 0 | Stoichiometry = C12H28BrCrN3 | MND = 4
 OpenBabel04212202043D

 45 44  0  0  0  0  0  0  0  0999 V2000
    5.6814   14.6714   12.6761 Br  0  0  0  0  0  0  0  0  0  0  0  0
    4.6139   13.4556   11.0194 Cr  0  0  0  0  0  0  0  0  0  0  0  0
    3.1142   14.0437   10.8824 N   0  0  0  0  0  1  0  0  0  0  0  0
    5.3364   13.8191    9.4300 N   0  0  0  0  0  0  0  0  0  0  0  0
    4.7146   14.3689    8.2410 C   0  0  0  0  0  0  0  0  0  0  0  0
    5.4566   14.4443    7.4338 H   0  0  0  0  0  0  0  0  0  0  0  0
    6.7466   13.5312    9.3398 C   0  0  0  0  0  0  0  0  0  0  0  0
    7.0695   13.1296   10.3142 H   0  0  0  0  0  0  0  0  0  0  0  0
    3.1104   11.1941   12.0677 C   0  0  0  0  0  0  0  0  0  0  0  0
    3.2898   10.1579   12.3861 H   0  0  0  0  0  0  0  0  0  0  0  0
    5.5216   10.9469   11.6878 C   0  0  0  0  0  0  0  0  0  0  0  0
    6.3742   11.5265   11.3020 H   0  0  0  0  0  0  0  0  0  0  0  0
    4.3544   11.7908   11.6164 N   0  0  0  0  0  0  0  0  0  0  0  0
    2.0803   11.1814   10.9364 C   0  0  0  0  0  0  0  0  0  0  0  0
    2.4492   10.6133   10.0845 H   0  0  0  0  0  0  0  0  0  0  0  0
    1.8988   12.2093   10.6270 H   0  0  0  0  0  0  0  0  0  0  0  0
    1.1495   10.7401   11.2816 H   0  0  0  0  0  0  0  0  0  0  0  0
    7.0831   12.4669    8.2837 C   0  0  0  0  0  0  0  0  0  0  0  0
    6.9183   12.8434    7.2766 H   0  0  0  0  0  0  0  0  0  0  0  0
    6.4623   11.5829    8.4284 H   0  0  0  0  0  0  0  0  0  0  0  0
    8.1279   12.1774    8.3725 H   0  0  0  0  0  0  0  0  0  0  0  0
    7.5758   14.8070    9.1199 C   0  0  0  0  0  0  0  0  0  0  0  0
    7.3317   15.5434    9.8852 H   0  0  0  0  0  0  0  0  0  0  0  0
    7.3825   15.2405    8.1413 H   0  0  0  0  0  0  0  0  0  0  0  0
    8.6354   14.5719    9.1903 H   0  0  0  0  0  0  0  0  0  0  0  0
    5.4063    9.6934   10.8050 C   0  0  0  0  0  0  0  0  0  0  0  0
    5.0841    9.9731    9.8018 H   0  0  0  0  0  0  0  0  0  0  0  0
    4.6876    8.9859   11.2119 H   0  0  0  0  0  0  0  0  0  0  0  0
    6.3726    9.1983   10.7388 H   0  0  0  0  0  0  0  0  0  0  0  0
    3.5840   13.4476    7.7737 C   0  0  0  0  0  0  0  0  0  0  0  0
    2.8344   13.3905    8.5596 H   0  0  0  0  0  0  0  0  0  0  0  0
    3.9637   12.4471    7.5711 H   0  0  0  0  0  0  0  0  0  0  0  0
    3.1290   13.8407    6.8684 H   0  0  0  0  0  0  0  0  0  0  0  0
    5.8774   10.5723   13.1355 C   0  0  0  0  0  0  0  0  0  0  0  0
    5.1193    9.9283   13.5752 H   0  0  0  0  0  0  0  0  0  0  0  0
    5.9658   11.4729   13.7425 H   0  0  0  0  0  0  0  0  0  0  0  0
    6.8290   10.0458   13.1541 H   0  0  0  0  0  0  0  0  0  0  0  0
    2.5635   11.9802   13.2650 C   0  0  0  0  0  0  0  0  0  0  0  0
    2.3593   13.0042   12.9526 H   0  0  0  0  0  0  0  0  0  0  0  0
    3.2886   11.9966   14.0776 H   0  0  0  0  0  0  0  0  0  0  0  0
    1.6439   11.5251   13.6238 H   0  0  0  0  0  0  0  0  0  0  0  0
    4.1661   15.7692    8.5303 C   0  0  0  0  0  0  0  0  0  0  0  0
    4.9687   16.4427    8.8258 H   0  0  0  0  0  0  0  0  0  0  0  0
    3.4463   15.6997    9.3455 H   0  0  0  0  0  0  0  0  0  0  0  0
    3.6741   16.1705    7.6483 H   0  0  0  0  0  0  0  0  0  0  0  0
  2 13  1  0  0  0  0
  2  1  1  0  0  0  0
  3  2  1  0  0  0  0
  4  2  1  0  0  0  0
  5 42  1  0  0  0  0
  5  4  1  0  0  0  0
  6  5  1  0  0  0  0
  7  4  1  0  0  0  0
  7  8  1  0  0  0  0
  9 10  1  0  0  0  0
  9 38  1  0  0  0  0
 11 34  1  0  0  0  0
 12 11  1  0  0  0  0
 13 11  1  0  0  0  0
 13  9  1  0  0  0  0
 14 17  1  0  0  0  0
 14  9  1  0  0  0  0
 15 14  1  0  0  0  0
 16 14  1  0  0  0  0
 18 21  1  0  0  0  0
 18 20  1  0  0  0  0
 18  7  1  0  0  0  0
 19 18  1  0  0  0  0
 22 25  1  0  0  0  0
 22  7  1  0  0  0  0
 22 23  1  0  0  0  0
 24 22  1  0  0  0  0
 26 28  1  0  0  0  0
 26 11  1  0  0  0  0
 27 26  1  0  0  0  0
 29 26  1  0  0  0  0
 30  5  1  0  0  0  0
 30 31  1  0  0  0  0
 32 30  1  0  0  0  0
 33 30  1  0  0  0  0
 34 37  1  0  0  0  0
 34 35  1  0  0  0  0
 34 36  1  0  0  0  0
 38 41  1  0  0  0  0
 38 40  1  0  0  0  0
 39 38  1  0  0  0  0
 42 43  1  0  0  0  0
 42 44  1  0  0  0  0
 45 42  1  0  0  0  0
M  END
$$$$
