CSD_code = FUVQEU | q = 0 | S = 0 | Stoichiometry = C12H28CrIN3 | MND = 4
 OpenBabel04212202043D

 45 44  0  0  0  0  0  0  0  0999 V2000
    0.3516   10.9715    9.1994 Cr  0  0  0  0  0  0  0  0  0  0  0  0
    1.2439   10.1489   10.2693 N   0  0  0  0  0  1  0  0  0  0  0  0
   -1.3131   10.7704    9.8257 N   0  0  0  0  0  0  0  0  0  0  0  0
    1.1958   12.5468    9.0991 N   0  0  0  0  0  0  0  0  0  0  0  0
    0.5501    9.7699    6.9390 I   0  0  0  0  0  0  0  0  0  0  0  0
   -1.7500   10.0048   10.9797 C   0  0  0  0  0  0  0  0  0  0  0  0
   -2.8390   10.0967   11.0963 H   0  0  0  0  0  0  0  0  0  0  0  0
    2.4227   12.9489    9.7638 C   0  0  0  0  0  0  0  0  0  0  0  0
    2.6667   13.9870    9.4978 H   0  0  0  0  0  0  0  0  0  0  0  0
   -2.3576   11.4369    9.0840 C   0  0  0  0  0  0  0  0  0  0  0  0
   -1.8818   11.9651    8.2413 H   0  0  0  0  0  0  0  0  0  0  0  0
    0.5967   13.5381    8.2368 C   0  0  0  0  0  0  0  0  0  0  0  0
   -0.3118   13.0925    7.7991 H   0  0  0  0  0  0  0  0  0  0  0  0
   -1.4072    8.5239   10.7828 C   0  0  0  0  0  0  0  0  0  0  0  0
   -1.8969    8.1307    9.8931 H   0  0  0  0  0  0  0  0  0  0  0  0
   -1.7289    7.9463   11.6455 H   0  0  0  0  0  0  0  0  0  0  0  0
   -0.3279    8.4245   10.6660 H   0  0  0  0  0  0  0  0  0  0  0  0
   -1.0845   10.5340   12.2526 C   0  0  0  0  0  0  0  0  0  0  0  0
   -0.0065   10.4195   12.1547 H   0  0  0  0  0  0  0  0  0  0  0  0
   -1.4283    9.9717   13.1166 H   0  0  0  0  0  0  0  0  0  0  0  0
   -1.3180   11.5875   12.3997 H   0  0  0  0  0  0  0  0  0  0  0  0
    2.2569   12.8686   11.2833 C   0  0  0  0  0  0  0  0  0  0  0  0
    1.4351   13.5015   11.6152 H   0  0  0  0  0  0  0  0  0  0  0  0
    3.1708   13.1875   11.7771 H   0  0  0  0  0  0  0  0  0  0  0  0
    2.0423   11.8367   11.5554 H   0  0  0  0  0  0  0  0  0  0  0  0
    3.5783   12.0486    9.3123 C   0  0  0  0  0  0  0  0  0  0  0  0
    3.3453   11.0167    9.5757 H   0  0  0  0  0  0  0  0  0  0  0  0
    4.5000   12.3452    9.8064 H   0  0  0  0  0  0  0  0  0  0  0  0
    3.7195   12.1155    8.2344 H   0  0  0  0  0  0  0  0  0  0  0  0
   -3.3486   10.4435    8.4561 C   0  0  0  0  0  0  0  0  0  0  0  0
   -2.8126    9.7001    7.8670 H   0  0  0  0  0  0  0  0  0  0  0  0
   -4.0334   10.9766    7.8003 H   0  0  0  0  0  0  0  0  0  0  0  0
   -3.9315    9.9303    9.2175 H   0  0  0  0  0  0  0  0  0  0  0  0
   -3.0974   12.4992    9.9126 C   0  0  0  0  0  0  0  0  0  0  0  0
   -3.7162   12.0417   10.6813 H   0  0  0  0  0  0  0  0  0  0  0  0
   -3.7401   13.0914    9.2648 H   0  0  0  0  0  0  0  0  0  0  0  0
   -2.3808   13.1632   10.3965 H   0  0  0  0  0  0  0  0  0  0  0  0
    1.5043   13.9018    7.0504 C   0  0  0  0  0  0  0  0  0  0  0  0
    2.3945   14.4323    7.3802 H   0  0  0  0  0  0  0  0  0  0  0  0
    0.9607   14.5402    6.3576 H   0  0  0  0  0  0  0  0  0  0  0  0
    1.8113   12.9997    6.5222 H   0  0  0  0  0  0  0  0  0  0  0  0
    0.1517   14.7999    8.9932 C   0  0  0  0  0  0  0  0  0  0  0  0
   -0.4445   14.5244    9.8634 H   0  0  0  0  0  0  0  0  0  0  0  0
   -0.4511   15.4283    8.3412 H   0  0  0  0  0  0  0  0  0  0  0  0
    1.0066   15.3808    9.3319 H   0  0  0  0  0  0  0  0  0  0  0  0
  1  3  1  0  0  0  0
  1  2  1  0  0  0  0
  3  6  1  0  0  0  0
  4  1  1  0  0  0  0
  4  8  1  0  0  0  0
  5  1  1  0  0  0  0
  6  7  1  0  0  0  0
  6 18  1  0  0  0  0
  8 22  1  0  0  0  0
  9  8  1  0  0  0  0
 10  3  1  0  0  0  0
 10 34  1  0  0  0  0
 11 10  1  0  0  0  0
 12 42  1  0  0  0  0
 12  4  1  0  0  0  0
 13 12  1  0  0  0  0
 14  6  1  0  0  0  0
 14 16  1  0  0  0  0
 15 14  1  0  0  0  0
 17 14  1  0  0  0  0
 18 21  1  0  0  0  0
 18 20  1  0  0  0  0
 19 18  1  0  0  0  0
 22 25  1  0  0  0  0
 22 23  1  0  0  0  0
 22 24  1  0  0  0  0
 26 27  1  0  0  0  0
 26  8  1  0  0  0  0
 26 28  1  0  0  0  0
 29 26  1  0  0  0  0
 30 10  1  0  0  0  0
 30 33  1  0  0  0  0
 31 30  1  0  0  0  0
 32 30  1  0  0  0  0
 34 37  1  0  0  0  0
 34 35  1  0  0  0  0
 36 34  1  0  0  0  0
 38 39  1  0  0  0  0
 38 12  1  0  0  0  0
 40 38  1  0  0  0  0
 41 38  1  0  0  0  0
 42 45  1  0  0  0  0
 42 43  1  0  0  0  0
 44 42  1  0  0  0  0
M  END
$$$$
