CSD_code = FUVVOJ | q = 0 | S = 0 | Stoichiometry = C12H28ClCrN3 | MND = 4
 OpenBabel04212202043D

 45 44  0  0  0  0  0  0  0  0999 V2000
    6.6572    6.6043   13.4692 Cr  0  0  0  0  0  0  0  0  0  0  0  0
    5.6033    7.6384   11.9537 Cl  0  0  0  0  0  0  0  0  0  0  0  0
    5.9765    6.9526   15.0811 N   0  0  0  0  0  0  0  0  0  0  0  0
    4.5592    6.7065   15.1699 C   0  0  0  0  0  0  0  0  0  0  0  0
    4.2292    6.3097   14.1983 H   0  0  0  0  0  0  0  0  0  0  0  0
    3.7708    8.0097   15.3784 C   0  0  0  0  0  0  0  0  0  0  0  0
    3.9747    8.4450   16.3540 H   0  0  0  0  0  0  0  0  0  0  0  0
    2.7037    7.8119   15.3049 H   0  0  0  0  0  0  0  0  0  0  0  0
    4.0481    8.7279   14.6073 H   0  0  0  0  0  0  0  0  0  0  0  0
    4.1891    5.6616   16.2346 C   0  0  0  0  0  0  0  0  0  0  0  0
    4.7777    4.7565   16.0911 H   0  0  0  0  0  0  0  0  0  0  0  0
    3.1342    5.4086   16.1535 H   0  0  0  0  0  0  0  0  0  0  0  0
    4.3729    6.0375   17.2385 H   0  0  0  0  0  0  0  0  0  0  0  0
    6.6156    7.4891   16.2675 C   0  0  0  0  0  0  0  0  0  0  0  0
    5.8775    7.5890   17.0753 H   0  0  0  0  0  0  0  0  0  0  0  0
    7.7186    6.5347   16.7333 C   0  0  0  0  0  0  0  0  0  0  0  0
    7.3077    5.5481   16.9408 H   0  0  0  0  0  0  0  0  0  0  0  0
    8.1923    6.9153   17.6343 H   0  0  0  0  0  0  0  0  0  0  0  0
    8.4568    6.4516   15.9400 H   0  0  0  0  0  0  0  0  0  0  0  0
    7.2079    8.8694   15.9730 C   0  0  0  0  0  0  0  0  0  0  0  0
    7.9049    8.7722   15.1415 H   0  0  0  0  0  0  0  0  0  0  0  0
    7.7324    9.2504   16.8450 H   0  0  0  0  0  0  0  0  0  0  0  0
    6.4247    9.5712   15.6943 H   0  0  0  0  0  0  0  0  0  0  0  0
    6.9341    4.9136   12.9587 N   0  0  0  0  0  0  0  0  0  0  0  0
    5.7519    4.0942   12.8684 C   0  0  0  0  0  0  0  0  0  0  0  0
    4.9065    4.6925   13.2351 H   0  0  0  0  0  0  0  0  0  0  0  0
    5.4199    3.7270   11.4136 C   0  0  0  0  0  0  0  0  0  0  0  0
    5.3670    4.6339   10.8121 H   0  0  0  0  0  0  0  0  0  0  0  0
    4.4578    3.2213   11.3698 H   0  0  0  0  0  0  0  0  0  0  0  0
    6.1748    3.0692   10.9894 H   0  0  0  0  0  0  0  0  0  0  0  0
    5.8218    2.8392   13.7546 C   0  0  0  0  0  0  0  0  0  0  0  0
    6.5246    2.1102   13.3586 H   0  0  0  0  0  0  0  0  0  0  0  0
    4.8416    2.3711   13.8114 H   0  0  0  0  0  0  0  0  0  0  0  0
    6.1403    3.1140   14.7597 H   0  0  0  0  0  0  0  0  0  0  0  0
    8.1773    4.2869   12.5469 C   0  0  0  0  0  0  0  0  0  0  0  0
    7.9888    3.2435   12.2596 H   0  0  0  0  0  0  0  0  0  0  0  0
    8.7595    5.0259   11.3373 C   0  0  0  0  0  0  0  0  0  0  0  0
    8.0583    5.0113   10.5049 H   0  0  0  0  0  0  0  0  0  0  0  0
    9.6899    4.5595   11.0231 H   0  0  0  0  0  0  0  0  0  0  0  0
    8.9494    6.0603   11.6201 H   0  0  0  0  0  0  0  0  0  0  0  0
    9.1856    4.2992   13.6972 C   0  0  0  0  0  0  0  0  0  0  0  0
    9.3813    5.3353   13.9637 H   0  0  0  0  0  0  0  0  0  0  0  0
   10.1124    3.8215   13.3916 H   0  0  0  0  0  0  0  0  0  0  0  0
    8.7855    3.7782   14.5645 H   0  0  0  0  0  0  0  0  0  0  0  0
    8.1503    7.2118   13.5628 N   0  0  0  0  0  1  0  0  0  0  0  0
  1 45  1  0  0  0  0
  1  3  1  0  0  0  0
  2  1  1  0  0  0  0
  3  4  1  0  0  0  0
  3 14  1  0  0  0  0
  4  6  1  0  0  0  0
  4 10  1  0  0  0  0
  5  4  1  0  0  0  0
  6  7  1  0  0  0  0
  8  6  1  0  0  0  0
  9  6  1  0  0  0  0
 10 13  1  0  0  0  0
 11 10  1  0  0  0  0
 12 10  1  0  0  0  0
 14 16  1  0  0  0  0
 14 15  1  0  0  0  0
 16 17  1  0  0  0  0
 16 18  1  0  0  0  0
 19 16  1  0  0  0  0
 20 14  1  0  0  0  0
 20 22  1  0  0  0  0
 21 20  1  0  0  0  0
 23 20  1  0  0  0  0
 24  1  1  0  0  0  0
 25 24  1  0  0  0  0
 25 26  1  0  0  0  0
 25 31  1  0  0  0  0
 27 25  1  0  0  0  0
 28 27  1  0  0  0  0
 29 27  1  0  0  0  0
 30 27  1  0  0  0  0
 31 33  1  0  0  0  0
 31 34  1  0  0  0  0
 32 31  1  0  0  0  0
 35 24  1  0  0  0  0
 35 41  1  0  0  0  0
 36 35  1  0  0  0  0
 37 40  1  0  0  0  0
 37 35  1  0  0  0  0
 38 37  1  0  0  0  0
 39 37  1  0  0  0  0
 41 42  1  0  0  0  0
 41 44  1  0  0  0  0
 43 41  1  0  0  0  0
M  END
$$$$
