CSD_code = FUWZII | q = 0 | S = 0 | Stoichiometry = C23H38Cl2N2S2SiTi | MND = 8
 OpenBabel04212202043D

 69 71  0  0  1  0  0  0  0  0999 V2000
   -0.4232   11.2772    6.9375 Ti  0  0  0  0  0  0  0  0  0  0  0  0
    1.5640   12.1706    6.9080 Cl  0  0  0  0  0  0  0  0  0  0  0  0
   -0.6508   10.7403    9.0389 Cl  0  0  0  0  0  0  0  0  0  0  0  0
    0.8324   15.3428   10.0533 S   0  0  0  0  0  0  0  0  0  0  0  0
   -4.8934   12.0514   10.8973 S   0  0  0  0  0  0  0  0  0  0  0  0
   -1.9175    9.4405    5.3584 Si  0  0  0  0  0  0  0  0  0  0  0  0
   -0.3847    9.5747    6.1605 N   0  0  0  0  0  0  0  0  0  0  0  0
   -2.5217   13.9514    8.1418 N   0  0  0  0  0  0  0  0  0  0  0  0
   -0.4602   14.5368    5.6606 C   0  0  0  0  0  0  0  0  0  0  0  0
   -0.4557   15.4332    6.2616 H   0  0  0  0  0  0  0  0  0  0  0  0
   -1.2664   12.2862    5.1129 C   0  0  0  0  0  0  0  0  0  0  0  0
   -2.1826   11.3060    5.6168 C   0  0  2  0  0  0  0  0  0  0  0  0
   -1.2379   13.4188    6.0175 C   0  0  0  0  0  0  0  0  0  0  0  0
   -2.1217   13.1094    7.1163 C   0  0  0  0  0  0  0  0  0  0  0  0
    0.7331    8.6532    6.1628 C   0  0  0  0  0  0  0  0  0  0  0  0
   -2.6541   11.8217    6.8542 C   0  0  0  0  0  0  0  0  0  0  0  0
   -3.4042   11.3193    7.4508 H   0  0  0  0  0  0  0  0  0  0  0  0
    0.3097   13.3816    3.6729 C   0  0  0  0  0  0  0  0  0  0  0  0
    0.9289   13.3966    2.7881 H   0  0  0  0  0  0  0  0  0  0  0  0
   -0.4663   12.2865    3.9535 C   0  0  0  0  0  0  0  0  0  0  0  0
   -0.4999   11.4385    3.2820 H   0  0  0  0  0  0  0  0  0  0  0  0
   -1.5768   14.8541    8.7700 C   0  0  0  0  0  0  0  0  0  0  0  0
   -1.2344   15.5893    8.0378 H   0  0  0  0  0  0  0  0  0  0  0  0
   -2.1056   15.4011    9.5533 H   0  0  0  0  0  0  0  0  0  0  0  0
    0.2976   14.5048    4.5163 C   0  0  0  0  0  0  0  0  0  0  0  0
    0.8969   15.3635    4.2526 H   0  0  0  0  0  0  0  0  0  0  0  0
    1.4446    8.6859    7.5279 C   0  0  0  0  0  0  0  0  0  0  0  0
    1.8431    9.6837    7.7380 H   0  0  0  0  0  0  0  0  0  0  0  0
    0.7439    8.4074    8.3173 H   0  0  0  0  0  0  0  0  0  0  0  0
    2.2721    7.9792    7.5334 H   0  0  0  0  0  0  0  0  0  0  0  0
   -0.3661   14.1478    9.3849 C   0  0  0  0  0  0  0  0  0  0  0  0
    0.1576   13.5317    8.6452 H   0  0  0  0  0  0  0  0  0  0  0  0
   -0.6605   13.5182   10.2245 H   0  0  0  0  0  0  0  0  0  0  0  0
    0.2585    7.2173    5.9045 C   0  0  0  0  0  0  0  0  0  0  0  0
   -0.4690    6.9301    6.6594 H   0  0  0  0  0  0  0  0  0  0  0  0
   -0.2030    7.1410    4.9244 H   0  0  0  0  0  0  0  0  0  0  0  0
    1.1011    6.5317    5.9478 H   0  0  0  0  0  0  0  0  0  0  0  0
   -3.6820   13.5982    8.9307 C   0  0  0  0  0  0  0  0  0  0  0  0
   -4.1540   14.5275    9.2668 H   0  0  0  0  0  0  0  0  0  0  0  0
   -4.3964   13.0920    8.2777 H   0  0  0  0  0  0  0  0  0  0  0  0
    1.8104   15.7092    8.5463 C   0  0  0  0  0  0  0  0  0  0  0  0
    1.9811   14.7619    8.0338 H   0  0  0  0  0  0  0  0  0  0  0  0
    1.2216   16.3721    7.9107 H   0  0  0  0  0  0  0  0  0  0  0  0
    1.7183    9.0753    5.0571 C   0  0  0  0  0  0  0  0  0  0  0  0
    1.2435    8.9790    4.0828 H   0  0  0  0  0  0  0  0  0  0  0  0
    2.0125   10.1170    5.1990 H   0  0  0  0  0  0  0  0  0  0  0  0
    2.6081    8.4510    5.0783 H   0  0  0  0  0  0  0  0  0  0  0  0
   -5.1629   10.5533    9.8866 C   0  0  0  0  0  0  0  0  0  0  0  0
   -6.1648   10.2273   10.1646 H   0  0  0  0  0  0  0  0  0  0  0  0
   -5.1740   10.8492    8.8371 H   0  0  0  0  0  0  0  0  0  0  0  0
   -3.3753   12.7281   10.1532 C   0  0  0  0  0  0  0  0  0  0  0  0
   -2.9156   13.3192   10.9442 H   0  0  0  0  0  0  0  0  0  0  0  0
   -2.7141   11.9000    9.8996 H   0  0  0  0  0  0  0  0  0  0  0  0
   -3.1970    8.4478    6.3804 C   0  0  0  0  0  0  0  0  0  0  0  0
   -3.0180    8.5786    7.4449 H   0  0  0  0  0  0  0  0  0  0  0  0
   -4.2109    8.7683    6.1637 H   0  0  0  0  0  0  0  0  0  0  0  0
   -3.1389    7.3872    6.1606 H   0  0  0  0  0  0  0  0  0  0  0  0
   -1.9868    8.8855    3.5293 C   0  0  0  0  0  0  0  0  0  0  0  0
   -2.7754    9.4083    2.9984 H   0  0  0  0  0  0  0  0  0  0  0  0
   -1.0561    9.0688    3.0030 H   0  0  0  0  0  0  0  0  0  0  0  0
   -2.1988    7.8240    3.4631 H   0  0  0  0  0  0  0  0  0  0  0  0
   -4.1471    9.4598   10.1583 C   0  0  0  0  0  0  0  0  0  0  0  0
   -4.4236    8.5601    9.6110 H   0  0  0  0  0  0  0  0  0  0  0  0
   -3.1446    9.7559    9.8518 H   0  0  0  0  0  0  0  0  0  0  0  0
   -4.1265    9.2274   11.2203 H   0  0  0  0  0  0  0  0  0  0  0  0
    3.1229   16.3635    8.9311 C   0  0  0  0  0  0  0  0  0  0  0  0
    3.7063   16.5762    8.0376 H   0  0  0  0  0  0  0  0  0  0  0  0
    2.9423   17.2944    9.4638 H   0  0  0  0  0  0  0  0  0  0  0  0
    3.6971   15.7035    9.5765 H   0  0  0  0  0  0  0  0  0  0  0  0
  1  3  1  0  0  0  0
  2  1  1  0  0  0  0
  6 12  1  0  0  0  0
  6  7  1  0  0  0  0
  6 54  1  0  0  0  0
  7 15  1  0  0  0  0
  7  1  1  0  0  0  0
  8 22  1  0  0  0  0
  8 38  1  0  0  0  0
  9 13  1  0  0  0  0
  9 10  1  0  0  0  0
 11 13  2  0  0  0  0
 12 11  1  6  0  0  0
 12 16  1  0  0  0  0
 12  1  1  0  0  0  0
 13 14  1  0  0  0  0
 14  8  1  0  0  0  0
 15 27  1  0  0  0  0
 16 14  2  0  0  0  0
 16 17  1  0  0  0  0
 18 20  2  0  0  0  0
 18 25  1  0  0  0  0
 19 18  1  0  0  0  0
 20 11  1  0  0  0  0
 21 20  1  0  0  0  0
 22 31  1  0  0  0  0
 22 24  1  0  0  0  0
 23 22  1  0  0  0  0
 25  9  2  0  0  0  0
 26 25  1  0  0  0  0
 27 30  1  0  0  0  0
 27 28  1  0  0  0  0
 27 29  1  0  0  0  0
 31  4  1  0  0  0  0
 31 33  1  0  0  0  0
 32 31  1  0  0  0  0
 34 37  1  0  0  0  0
 34 15  1  0  0  0  0
 34 35  1  0  0  0  0
 36 34  1  0  0  0  0
 38 39  1  0  0  0  0
 38 51  1  0  0  0  0
 40 38  1  0  0  0  0
 41 66  1  0  0  0  0
 41  4  1  0  0  0  0
 42 41  1  0  0  0  0
 43 41  1  0  0  0  0
 44 47  1  0  0  0  0
 44 46  1  0  0  0  0
 44 15  1  0  0  0  0
 45 44  1  0  0  0  0
 48 62  1  0  0  0  0
 48 49  1  0  0  0  0
 48  5  1  0  0  0  0
 50 48  1  0  0  0  0
 51  5  1  0  0  0  0
 51 52  1  0  0  0  0
 53 51  1  0  0  0  0
 54 55  1  0  0  0  0
 56 54  1  0  0  0  0
 57 54  1  0  0  0  0
 58  6  1  0  0  0  0
 59 58  1  0  0  0  0
 60 58  1  0  0  0  0
 61 58  1  0  0  0  0
 62 65  1  0  0  0  0
 63 62  1  0  0  0  0
 64 62  1  0  0  0  0
 66 68  1  0  0  0  0
 66 69  1  0  0  0  0
 67 66  1  0  0  0  0
M  END
$$$$
