CSD_code = FUYFUA | q = 0 | S = 0 | Stoichiometry = C12H24Br2CdO6 | MND = 8
 OpenBabel04212202043D

 45 44  0  0  0  0  0  0  0  0999 V2000
   -0.0000    0.0000   -0.0001 Cd  0  0  0  0  0  0  0  0  0  0  0  0
    0.0000   -0.0000    2.4825 Br  0  0  0  0  0  0  0  0  0  0  0  0
    1.6998    2.2536    0.1749 O   0  0  0  0  0  0  0  0  0  0  0  0
    1.1127    3.4338   -0.3218 C   0  0  0  0  0  0  0  0  0  0  0  0
    2.9892    2.0131   -0.3391 C   0  0  0  0  0  0  0  0  0  0  0  0
    0.9847    3.3685   -1.4124 H   0  0  0  0  0  0  0  0  0  0  0  0
    1.7486    4.2995   -0.0817 H   0  0  0  0  0  0  0  0  0  0  0  0
    3.6487    2.8647   -0.1128 H   0  0  0  0  0  0  0  0  0  0  0  0
    2.9464    1.8663   -1.4284 H   0  0  0  0  0  0  0  0  0  0  0  0
    0.0000    0.0000   -2.4825 Br  0  0  0  0  0  0  0  0  0  0  0  0
   -1.6998   -2.2536   -0.1749 O   0  0  0  0  0  0  0  0  0  0  0  0
   -2.8016    0.3453    0.1749 O   0  0  0  0  0  0  0  0  0  0  0  0
    2.8016   -0.3453   -0.1749 O   0  0  0  0  0  0  0  0  0  0  0  0
    1.1018   -2.5989    0.1749 O   0  0  0  0  0  0  0  0  0  0  0  0
   -1.1018    2.5989   -0.1749 O   0  0  0  0  0  0  0  0  0  0  0  0
   -0.2488    3.5953    0.3391 C   0  0  0  0  0  0  0  0  0  0  0  0
    3.5301    0.7533    0.3218 C   0  0  0  0  0  0  0  0  0  0  0  0
   -1.1127   -3.4338    0.3218 C   0  0  0  0  0  0  0  0  0  0  0  0
   -2.9892   -2.0131    0.3391 C   0  0  0  0  0  0  0  0  0  0  0  0
   -3.5301   -0.7533   -0.3218 C   0  0  0  0  0  0  0  0  0  0  0  0
   -3.2380    1.5822   -0.3391 C   0  0  0  0  0  0  0  0  0  0  0  0
    3.2380   -1.5822    0.3391 C   0  0  0  0  0  0  0  0  0  0  0  0
    2.4174   -2.6805   -0.3218 C   0  0  0  0  0  0  0  0  0  0  0  0
    0.2488   -3.5953   -0.3391 C   0  0  0  0  0  0  0  0  0  0  0  0
   -2.4174    2.6805    0.3218 C   0  0  0  0  0  0  0  0  0  0  0  0
   -0.6565    4.5923    0.1128 H   0  0  0  0  0  0  0  0  0  0  0  0
   -0.1431    3.4848    1.4284 H   0  0  0  0  0  0  0  0  0  0  0  0
    3.4095    0.8315    1.4124 H   0  0  0  0  0  0  0  0  0  0  0  0
    4.5977    0.6354    0.0817 H   0  0  0  0  0  0  0  0  0  0  0  0
   -0.9847   -3.3685    1.4124 H   0  0  0  0  0  0  0  0  0  0  0  0
   -1.7486   -4.2995    0.0817 H   0  0  0  0  0  0  0  0  0  0  0  0
   -3.6487   -2.8647    0.1128 H   0  0  0  0  0  0  0  0  0  0  0  0
   -2.9464   -1.8663    1.4284 H   0  0  0  0  0  0  0  0  0  0  0  0
   -3.4095   -0.8315   -1.4124 H   0  0  0  0  0  0  0  0  0  0  0  0
   -4.5977   -0.6354   -0.0817 H   0  0  0  0  0  0  0  0  0  0  0  0
   -4.3053    1.7275   -0.1128 H   0  0  0  0  0  0  0  0  0  0  0  0
   -3.0894    1.6185   -1.4284 H   0  0  0  0  0  0  0  0  0  0  0  0
    4.3053   -1.7276    0.1128 H   0  0  0  0  0  0  0  0  0  0  0  0
    3.0894   -1.6185    1.4284 H   0  0  0  0  0  0  0  0  0  0  0  0
    2.4249   -2.5370   -1.4124 H   0  0  0  0  0  0  0  0  0  0  0  0
    2.8492   -3.6641   -0.0817 H   0  0  0  0  0  0  0  0  0  0  0  0
    0.6565   -4.5923   -0.1128 H   0  0  0  0  0  0  0  0  0  0  0  0
    0.1431   -3.4848   -1.4284 H   0  0  0  0  0  0  0  0  0  0  0  0
   -2.4249    2.5370    1.4124 H   0  0  0  0  0  0  0  0  0  0  0  0
   -2.8492    3.6641    0.0817 H   0  0  0  0  0  0  0  0  0  0  0  0
  1  2  1  0  0  0  0
  4  7  1  0  0  0  0
  4  3  1  0  0  0  0
  4 16  1  0  0  0  0
  5  8  1  0  0  0  0
  5  3  1  0  0  0  0
  5 17  1  0  0  0  0
  6  4  1  0  0  0  0
  9  5  1  0  0  0  0
 10  1  1  0  0  0  0
 11 18  1  0  0  0  0
 11 19  1  0  0  0  0
 13 17  1  0  0  0  0
 13 22  1  0  0  0  0
 15 25  1  0  0  0  0
 15 16  1  0  0  0  0
 16 27  1  0  0  0  0
 17 28  1  0  0  0  0
 18 30  1  0  0  0  0
 19 33  1  0  0  0  0
 20 35  1  0  0  0  0
 20 12  1  0  0  0  0
 20 19  1  0  0  0  0
 21 36  1  0  0  0  0
 21 12  1  0  0  0  0
 21 25  1  0  0  0  0
 22 39  1  0  0  0  0
 23 41  1  0  0  0  0
 23 14  1  0  0  0  0
 23 22  1  0  0  0  0
 24 42  1  0  0  0  0
 24 14  1  0  0  0  0
 24 18  1  0  0  0  0
 25 44  1  0  0  0  0
 26 16  1  0  0  0  0
 29 17  1  0  0  0  0
 31 18  1  0  0  0  0
 32 19  1  0  0  0  0
 34 20  1  0  0  0  0
 37 21  1  0  0  0  0
 38 22  1  0  0  0  0
 40 23  1  0  0  0  0
 43 24  1  0  0  0  0
 45 25  1  0  0  0  0
M  END
$$$$
