CSD_code = FUYGAH | q = 0 | S = 0 | Stoichiometry = C12H24CdI2O6 | MND = 8
 OpenBabel04212202043D

 45 44  0  0  0  0  0  0  0  0999 V2000
    0.0002   13.9981   -0.0002 Cd  0  0  0  0  0  0  0  0  0  0  0  0
   -2.3728   13.5313    1.1393 I   0  0  0  0  0  0  0  0  0  0  0  0
    0.9198   11.3627    0.4368 O   0  0  0  0  0  0  0  0  0  0  0  0
    1.1407   13.3124    2.4923 O   0  0  0  0  0  0  0  0  0  0  0  0
    0.6736   16.0364    1.8366 O   0  0  0  0  0  0  0  0  0  0  0  0
    1.0738   11.0425    1.8000 C   0  0  0  0  0  0  0  0  0  0  0  0
    1.9119   12.1343    2.4508 C   0  0  0  0  0  0  0  0  0  0  0  0
    1.7975   14.3874    3.1227 C   0  0  0  0  0  0  0  0  0  0  0  0
    0.8418   15.5721    3.1559 C   0  0  0  0  0  0  0  0  0  0  0  0
   -0.1559   17.1713    1.7458 C   0  0  0  0  0  0  0  0  0  0  0  0
    0.2045   10.3892   -0.2878 C   0  0  0  0  0  0  0  0  0  0  0  0
    1.5840   10.0728    1.9034 H   0  0  0  0  0  0  0  0  0  0  0  0
    2.8267   12.2949    1.8615 H   0  0  0  0  0  0  0  0  0  0  0  0
    2.7048   14.6631    2.5653 H   0  0  0  0  0  0  0  0  0  0  0  0
    1.2639   16.3708    3.7847 H   0  0  0  0  0  0  0  0  0  0  0  0
    0.2531   17.9864    2.3620 H   0  0  0  0  0  0  0  0  0  0  0  0
   -0.8199   10.2963    0.1018 H   0  0  0  0  0  0  0  0  0  0  0  0
    0.0929   10.9886    2.2948 H   0  0  0  0  0  0  0  0  0  0  0  0
    2.1888   11.8297    3.4715 H   0  0  0  0  0  0  0  0  0  0  0  0
    2.0761   14.1078    4.1501 H   0  0  0  0  0  0  0  0  0  0  0  0
   -0.1232   15.2536    3.5768 H   0  0  0  0  0  0  0  0  0  0  0  0
   -1.1723   16.9327    2.0919 H   0  0  0  0  0  0  0  0  0  0  0  0
    0.7103    9.4148   -0.2092 H   0  0  0  0  0  0  0  0  0  0  0  0
    2.3727   14.4648   -1.1392 I   0  0  0  0  0  0  0  0  0  0  0  0
   -0.9198   16.6333   -0.4368 O   0  0  0  0  0  0  0  0  0  0  0  0
   -1.1407   14.6836   -2.4923 O   0  0  0  0  0  0  0  0  0  0  0  0
   -0.6737   11.9596   -1.8366 O   0  0  0  0  0  0  0  0  0  0  0  0
   -0.2045   17.6068    0.2878 C   0  0  0  0  0  0  0  0  0  0  0  0
    0.1559   10.8247   -1.7458 C   0  0  0  0  0  0  0  0  0  0  0  0
   -1.0738   16.9535   -1.8000 C   0  0  0  0  0  0  0  0  0  0  0  0
   -1.9119   15.8617   -2.4508 C   0  0  0  0  0  0  0  0  0  0  0  0
   -1.7975   13.6086   -3.1227 C   0  0  0  0  0  0  0  0  0  0  0  0
   -0.8418   12.4239   -3.1559 C   0  0  0  0  0  0  0  0  0  0  0  0
    0.8199   17.6997   -0.1018 H   0  0  0  0  0  0  0  0  0  0  0  0
   -0.7103   18.5812    0.2092 H   0  0  0  0  0  0  0  0  0  0  0  0
   -0.2531   10.0095   -2.3619 H   0  0  0  0  0  0  0  0  0  0  0  0
    1.1723   11.0633   -2.0919 H   0  0  0  0  0  0  0  0  0  0  0  0
   -1.5840   17.9232   -1.9034 H   0  0  0  0  0  0  0  0  0  0  0  0
   -0.0929   17.0074   -2.2948 H   0  0  0  0  0  0  0  0  0  0  0  0
   -2.8267   15.7011   -1.8615 H   0  0  0  0  0  0  0  0  0  0  0  0
   -2.1888   16.1663   -3.4715 H   0  0  0  0  0  0  0  0  0  0  0  0
   -2.7048   13.3329   -2.5653 H   0  0  0  0  0  0  0  0  0  0  0  0
   -2.0761   13.8882   -4.1501 H   0  0  0  0  0  0  0  0  0  0  0  0
   -1.2639   11.6252   -3.7847 H   0  0  0  0  0  0  0  0  0  0  0  0
    0.1232   12.7424   -3.5768 H   0  0  0  0  0  0  0  0  0  0  0  0
  1  2  1  0  0  0  0
  3  6  1  0  0  0  0
  4  8  1  0  0  0  0
  5  9  1  0  0  0  0
  6 12  1  0  0  0  0
  6 18  1  0  0  0  0
  6  7  1  0  0  0  0
  7  4  1  0  0  0  0
  7 19  1  0  0  0  0
  8  9  1  0  0  0  0
  8 20  1  0  0  0  0
  9 21  1  0  0  0  0
  9 15  1  0  0  0  0
 10  5  1  0  0  0  0
 10 22  1  0  0  0  0
 10 16  1  0  0  0  0
 11 23  1  0  0  0  0
 11 17  1  0  0  0  0
 11  3  1  0  0  0  0
 13  7  1  0  0  0  0
 14  8  1  0  0  0  0
 24  1  1  0  0  0  0
 25 28  1  0  0  0  0
 26 31  1  0  0  0  0
 27 29  1  0  0  0  0
 28 10  1  0  0  0  0
 29 11  1  0  0  0  0
 30 25  1  0  0  0  0
 31 40  1  0  0  0  0
 31 30  1  0  0  0  0
 32 42  1  0  0  0  0
 32 26  1  0  0  0  0
 33 32  1  0  0  0  0
 33 27  1  0  0  0  0
 34 28  1  0  0  0  0
 35 28  1  0  0  0  0
 36 29  1  0  0  0  0
 37 29  1  0  0  0  0
 38 30  1  0  0  0  0
 39 30  1  0  0  0  0
 41 31  1  0  0  0  0
 43 32  1  0  0  0  0
 44 33  1  0  0  0  0
 45 33  1  0  0  0  0
M  END
$$$$
