CSD_code = FUYWON | q = 0 | S = 0 | Stoichiometry = C12H24Cl2HgN4S2 | MND = 4
 OpenBabel04212202043D

 45 46  0  0  1  0  0  0  0  0999 V2000
    6.6004   12.7823   13.2164 Hg  0  0  0  0  0  0  0  0  0  0  0  0
    4.4500   12.8672   12.2374 Cl  0  0  0  0  0  0  0  0  0  0  0  0
    8.0530   11.4803   11.3445 S   0  0  0  0  0  0  0  0  0  0  0  0
    7.3522    9.6821    9.5131 N   0  0  0  0  0  0  0  0  0  0  0  0
    5.6381   10.6767   10.4540 N   0  0  0  0  0  0  0  0  0  0  0  0
    5.1161   11.3733   10.9991 H   0  0  0  0  0  0  0  0  0  0  0  0
    6.9623   10.5880   10.4197 C   0  0  2  0  0  3  0  0  0  0  0  0
    6.2092    9.0638    8.8658 C   0  0  0  0  0  0  0  0  0  0  0  0
    6.1785    7.9920    9.0855 H   0  0  0  0  0  0  0  0  0  0  0  0
    6.2783    9.1929    7.7811 H   0  0  0  0  0  0  0  0  0  0  0  0
    5.0114    9.8119    9.4771 C   0  0  0  0  0  0  0  0  0  0  0  0
    4.4687   10.4066    8.7362 H   0  0  0  0  0  0  0  0  0  0  0  0
    4.3020    9.1399    9.9672 H   0  0  0  0  0  0  0  0  0  0  0  0
    8.7017    9.2642    9.2516 C   0  0  0  0  0  0  0  0  0  0  0  0
    9.3583   10.0240    9.6807 H   0  0  0  0  0  0  0  0  0  0  0  0
    8.8501    9.2345    8.1668 H   0  0  0  0  0  0  0  0  0  0  0  0
    9.0298    7.8981    9.8629 C   0  0  0  0  0  0  0  0  0  0  0  0
   10.0630    7.6586    9.6078 H   0  0  0  0  0  0  0  0  0  0  0  0
    8.3927    7.1305    9.4178 H   0  0  0  0  0  0  0  0  0  0  0  0
    8.8612    7.9007   11.3766 C   0  0  0  0  0  0  0  0  0  0  0  0
    9.1472    6.9378   11.7923 H   0  0  0  0  0  0  0  0  0  0  0  0
    7.8283    8.0991   11.6531 H   0  0  0  0  0  0  0  0  0  0  0  0
    9.4814    8.6726   11.8242 H   0  0  0  0  0  0  0  0  0  0  0  0
    7.6080   14.6910   14.1815 Cl  0  0  0  0  0  0  0  0  0  0  0  0
    6.9897   10.8871   15.1030 S   0  0  0  0  0  0  0  0  0  0  0  0
    8.9149   10.5901   16.9154 N   0  0  0  0  0  0  0  0  0  0  0  0
    8.9033   12.5732   15.9776 N   0  0  0  0  0  0  0  0  0  0  0  0
    8.5609   13.3728   15.4316 H   0  0  0  0  0  0  0  0  0  0  0  0
    8.3180   11.3823   16.0149 C   0  0  2  0  0  3  0  0  0  0  0  0
   10.0294   11.2686   17.5522 C   0  0  0  0  0  0  0  0  0  0  0  0
   10.9700   10.7584   17.3222 H   0  0  0  0  0  0  0  0  0  0  0  0
    9.8940   11.2720   18.6384 H   0  0  0  0  0  0  0  0  0  0  0  0
    9.9758   12.6808   16.9435 C   0  0  0  0  0  0  0  0  0  0  0  0
    9.7403   13.4473   17.6881 H   0  0  0  0  0  0  0  0  0  0  0  0
   10.9078   12.9591   16.4444 H   0  0  0  0  0  0  0  0  0  0  0  0
    8.6062    9.2110   17.1747 C   0  0  0  0  0  0  0  0  0  0  0  0
    7.6146    9.0235   16.7574 H   0  0  0  0  0  0  0  0  0  0  0  0
    8.5715    9.0630   18.2593 H   0  0  0  0  0  0  0  0  0  0  0  0
    9.6179    8.2471   16.5463 C   0  0  0  0  0  0  0  0  0  0  0  0
    9.3126    7.2313   16.8012 H   0  0  0  0  0  0  0  0  0  0  0  0
   10.6067    8.4137   16.9796 H   0  0  0  0  0  0  0  0  0  0  0  0
    9.6809    8.4002   15.0324 C   0  0  0  0  0  0  0  0  0  0  0  0
   10.3667    7.6728   14.6052 H   0  0  0  0  0  0  0  0  0  0  0  0
   10.0219    9.3951   14.7553 H   0  0  0  0  0  0  0  0  0  0  0  0
    8.6969    8.2505   14.5963 H   0  0  0  0  0  0  0  0  0  0  0  0
  1 24  1  0  0  0  0
  1 25  1  0  0  0  0
  2  1  1  0  0  0  0
  3  1  1  0  0  0  0
  4  7  1  0  0  0  0
  5  6  1  0  0  0  0
  7  5  1  0  0  0  0
  7  3  1  6  0  0  0
  8  9  1  0  0  0  0
  8 11  1  0  0  0  0
  8  4  1  0  0  0  0
 10  8  1  0  0  0  0
 11 13  1  0  0  0  0
 11  5  1  0  0  0  0
 12 11  1  0  0  0  0
 14  4  1  0  0  0  0
 14 15  1  0  0  0  0
 14 17  1  0  0  0  0
 16 14  1  0  0  0  0
 17 20  1  0  0  0  0
 18 17  1  0  0  0  0
 19 17  1  0  0  0  0
 20 22  1  0  0  0  0
 20 21  1  0  0  0  0
 20 23  1  0  0  0  0
 26 36  1  0  0  0  0
 26 30  1  0  0  0  0
 27 29  1  0  0  0  0
 27 33  1  0  0  0  0
 28 27  1  0  0  0  0
 29 25  1  1  0  0  0
 29 26  1  0  0  0  0
 30 32  1  0  0  0  0
 31 30  1  0  0  0  0
 33 30  1  0  0  0  0
 33 34  1  0  0  0  0
 35 33  1  0  0  0  0
 36 38  1  0  0  0  0
 37 36  1  0  0  0  0
 39 40  1  0  0  0  0
 39 41  1  0  0  0  0
 39 36  1  0  0  0  0
 42 39  1  0  0  0  0
 43 42  1  0  0  0  0
 44 42  1  0  0  0  0
 45 42  1  0  0  0  0
M  END
$$$$
