CSD_code = FUYYEF | q = 0 | S = 0 | Stoichiometry = C25H20CoF6P | MND = 8
 OpenBabel04212202043D

 53 56  0  0  1  0  0  0  0  0999 V2000
    4.3641    2.7467    4.7110 Co  0  0  2  0  0  0  0  0  0  0  0  0
    5.1050    3.2826    2.6633 P   0  0  0  0  0  0  0  0  0  0  0  0
    4.0901    1.0762    4.1267 F   0  0  0  0  0  0  0  0  0  0  0  0
    2.1109    2.7059    3.0616 F   0  0  0  0  0  0  0  0  0  0  0  0
    2.2225    4.4171    4.3582 F   0  0  0  0  0  0  0  0  0  0  0  0
    0.2556    2.3254    4.7379 F   0  0  0  0  0  0  0  0  0  0  0  0
    1.3444    3.1281    6.4042 F   0  0  0  0  0  0  0  0  0  0  0  0
    1.8226    1.1797    5.6540 F   0  0  0  0  0  0  0  0  0  0  0  0
    5.2941    4.3199    5.7112 C   0  0  2  0  0  0  0  0  0  0  0  0
    5.4425    5.3422    5.4027 H   0  0  0  0  0  0  0  0  0  0  0  0
    6.2417    3.2582    5.5618 C   0  0  0  0  0  0  0  0  0  0  0  0
    7.2170    3.3506    5.1090 H   0  0  0  0  0  0  0  0  0  0  0  0
    5.7532    2.1422    6.2524 C   0  0  0  0  0  0  0  0  0  0  0  0
    6.2551    1.1970    6.3778 H   0  0  0  0  0  0  0  0  0  0  0  0
    4.4881    2.4788    6.7959 C   0  0  1  0  0  0  0  0  0  0  0  0
    3.8987    1.8530    7.4461 H   0  0  0  0  0  0  0  0  0  0  0  0
    4.2389    3.8461    6.5059 C   0  0  0  0  0  3  0  0  0  0  0  0
    3.4179    4.4342    6.8810 H   0  0  0  0  0  0  0  0  0  0  0  0
    5.5250    5.0481    2.5720 C   0  0  0  0  0  0  0  0  0  0  0  0
    4.4718    5.9608    2.5246 C   0  0  0  0  0  0  0  0  0  0  0  0
    3.4546    5.5971    2.4890 H   0  0  0  0  0  0  0  0  0  0  0  0
    4.7290    7.3188    2.5352 C   0  0  0  0  0  0  0  0  0  0  0  0
    3.9100    8.0210    2.4927 H   0  0  0  0  0  0  0  0  0  0  0  0
    6.0354    7.7772    2.6106 C   0  0  0  0  0  0  0  0  0  0  0  0
    6.2362    8.8381    2.6221 H   0  0  0  0  0  0  0  0  0  0  0  0
    7.0828    6.8739    2.6841 C   0  0  0  0  0  0  0  0  0  0  0  0
    8.1001    7.2297    2.7569 H   0  0  0  0  0  0  0  0  0  0  0  0
    6.8318    5.5128    2.6722 C   0  0  0  0  0  0  0  0  0  0  0  0
    7.6522    4.8122    2.7389 H   0  0  0  0  0  0  0  0  0  0  0  0
    4.1706    2.9332    1.1388 C   0  0  0  0  0  0  0  0  0  0  0  0
    3.9703    3.8689    0.1317 C   0  0  0  0  0  0  0  0  0  0  0  0
    4.3076    4.8886    0.2505 H   0  0  0  0  0  0  0  0  0  0  0  0
    3.3311    3.4907   -1.0367 C   0  0  0  0  0  0  0  0  0  0  0  0
    3.1730    4.2208   -1.8171 H   0  0  0  0  0  0  0  0  0  0  0  0
    2.8951    2.1880   -1.2053 C   0  0  0  0  0  0  0  0  0  0  0  0
    2.3919    1.9024   -2.1172 H   0  0  0  0  0  0  0  0  0  0  0  0
    3.1012    1.2531   -0.2028 C   0  0  0  0  0  0  0  0  0  0  0  0
    2.7592    0.2374   -0.3314 H   0  0  0  0  0  0  0  0  0  0  0  0
    3.7398    1.6198    0.9655 C   0  0  0  0  0  0  0  0  0  0  0  0
    3.8883    0.9059    1.7615 H   0  0  0  0  0  0  0  0  0  0  0  0
    6.6306    2.4061    2.1807 C   0  0  0  0  0  0  0  0  0  0  0  0
    7.0639    1.2836    2.8731 C   0  0  0  0  0  0  0  0  0  0  0  0
    6.5043    0.9349    3.7276 H   0  0  0  0  0  0  0  0  0  0  0  0
    8.1936    0.6034    2.4500 C   0  0  0  0  0  0  0  0  0  0  0  0
    8.5277   -0.2701    2.9898 H   0  0  0  0  0  0  0  0  0  0  0  0
    8.8901    1.0376    1.3354 C   0  0  0  0  0  0  0  0  0  0  0  0
    9.7728    0.5086    1.0082 H   0  0  0  0  0  0  0  0  0  0  0  0
    8.4465    2.1453    0.6289 C   0  0  0  0  0  0  0  0  0  0  0  0
    8.9800    2.4759   -0.2502 H   0  0  0  0  0  0  0  0  0  0  0  0
    7.3163    2.8242    1.0421 C   0  0  0  0  0  0  0  0  0  0  0  0
    6.9593    3.6783    0.4830 H   0  0  0  0  0  0  0  0  0  0  0  0
    2.4965    3.0641    4.3220 C   0  0  0  0  0  0  0  0  0  0  0  0
    1.4768    2.4100    5.2759 C   0  0  0  0  0  0  0  0  0  0  0  0
  1  3  1  6  0  0  0
  1  9  1  0  0  0  0
  1 15  1  0  0  0  0
  4 52  1  0  0  0  0
  6 53  1  0  0  0  0
  9 10  1  6  0  0  0
  9 17  1  0  0  0  0
 11  9  1  0  0  0  0
 11 13  2  0  0  0  0
 12 11  1  0  0  0  0
 13 14  1  0  0  0  0
 13 15  1  0  0  0  0
 15 16  1  1  0  0  0
 17 15  1  0  0  0  0
 17 18  1  0  0  0  0
 19  2  1  0  0  0  0
 19 28  1  0  0  0  0
 20 22  1  0  0  0  0
 20 19  2  0  0  0  0
 21 20  1  0  0  0  0
 22 24  2  0  0  0  0
 23 22  1  0  0  0  0
 24 25  1  0  0  0  0
 24 26  1  0  0  0  0
 26 27  1  0  0  0  0
 28 26  2  0  0  0  0
 28 29  1  0  0  0  0
 30  2  1  0  0  0  0
 31 32  1  0  0  0  0
 31 30  2  0  0  0  0
 33 31  1  0  0  0  0
 34 33  1  0  0  0  0
 35 33  2  0  0  0  0
 35 37  1  0  0  0  0
 36 35  1  0  0  0  0
 37 39  2  0  0  0  0
 38 37  1  0  0  0  0
 39 30  1  0  0  0  0
 39 40  1  0  0  0  0
 41  2  1  0  0  0  0
 41 42  1  0  0  0  0
 42 43  1  0  0  0  0
 44 42  2  0  0  0  0
 44 45  1  0  0  0  0
 46 44  1  0  0  0  0
 47 46  1  0  0  0  0
 48 50  1  0  0  0  0
 48 46  2  0  0  0  0
 49 48  1  0  0  0  0
 50 41  2  0  0  0  0
 51 50  1  0  0  0  0
 52  5  1  0  0  0  0
 52  1  1  0  0  0  0
 52 53  1  0  0  0  0
 53  8  1  0  0  0  0
 53  7  1  0  0  0  0
M  END
$$$$
