CSD_code = FUYYAB | q = 0 | S = 0 | Stoichiometry = C20H18CoF6P | MND = 8
 OpenBabel04212202043D

 46 47  0  0  1  0  0  0  0  0999 V2000
    9.4380    5.3284    3.5495 Co  0  0  0  0  0  0  0  0  0  0  0  0
   10.7709    4.4528    5.0887 P   0  0  0  0  0  0  0  0  0  0  0  0
    8.1454    4.4557    4.4392 F   0  0  0  0  0  0  0  0  0  0  0  0
    9.7141    6.9160    5.8567 F   0  0  0  0  0  0  0  0  0  0  0  0
    9.4498    8.0528    4.0473 F   0  0  0  0  0  0  0  0  0  0  0  0
    7.1680    6.3326    6.0189 F   0  0  0  0  0  0  0  0  0  0  0  0
    7.2918    8.3618    5.3463 F   0  0  0  0  0  0  0  0  0  0  0  0
    6.7646    6.8217    3.9516 F   0  0  0  0  0  0  0  0  0  0  0  0
    9.7814    4.0672    1.8808 C   0  0  0  0  0  0  0  0  0  0  0  0
    9.8883    2.9955    1.8315 H   0  0  0  0  0  0  0  0  0  0  0  0
   10.8417    4.9997    2.0347 C   0  0  0  0  0  3  0  0  0  0  0  0
   11.8898    4.7539    2.1151 H   0  0  0  0  0  0  0  0  0  0  0  0
   10.3017    6.2990    1.9234 C   0  0  1  0  0  0  0  0  0  0  0  0
   10.8597    7.2205    1.8875 H   0  0  0  0  0  0  0  0  0  0  0  0
    8.9064    6.1715    1.6954 C   0  0  0  0  0  3  0  0  0  0  0  0
    8.2254    6.9779    1.4763 H   0  0  0  0  0  0  0  0  0  0  0  0
    8.5986    4.7933    1.6470 C   0  0  0  0  0  0  0  0  0  0  0  0
    7.6263    4.3741    1.4487 H   0  0  0  0  0  0  0  0  0  0  0  0
   12.3678    5.2356    5.4662 C   0  0  0  0  0  0  0  0  0  0  0  0
   13.2496    4.6102    6.3434 C   0  0  0  0  0  0  0  0  0  0  0  0
   12.9895    3.6552    6.7779 H   0  0  0  0  0  0  0  0  0  0  0  0
   14.4586    5.2065    6.6479 C   0  0  0  0  0  0  0  0  0  0  0  0
   15.1421    4.7190    7.3273 H   0  0  0  0  0  0  0  0  0  0  0  0
   14.7933    6.4284    6.0844 C   0  0  0  0  0  0  0  0  0  0  0  0
   15.7380    6.8920    6.3265 H   0  0  0  0  0  0  0  0  0  0  0  0
   13.9166    7.0544    5.2149 C   0  0  0  0  0  0  0  0  0  0  0  0
   14.1740    8.0085    4.7799 H   0  0  0  0  0  0  0  0  0  0  0  0
   12.7059    6.4590    4.9044 C   0  0  0  0  0  0  0  0  0  0  0  0
   12.0133    6.9480    4.2350 H   0  0  0  0  0  0  0  0  0  0  0  0
   11.2113    2.7680    4.5674 C   0  0  0  0  0  0  0  0  0  0  0  0
   10.2176    1.7940    4.6260 C   0  0  0  0  0  0  0  0  0  0  0  0
    9.2363    2.0626    4.9891 H   0  0  0  0  0  0  0  0  0  0  0  0
   10.4842    0.5071    4.1978 C   0  0  0  0  0  0  0  0  0  0  0  0
    9.7129   -0.2471    4.2465 H   0  0  0  0  0  0  0  0  0  0  0  0
   11.7382    0.1862    3.7006 C   0  0  0  0  0  0  0  0  0  0  0  0
   11.9461   -0.8193    3.3661 H   0  0  0  0  0  0  0  0  0  0  0  0
   12.7222    1.1579    3.6232 C   0  0  0  0  0  0  0  0  0  0  0  0
   13.6965    0.9110    3.2275 H   0  0  0  0  0  0  0  0  0  0  0  0
   12.4606    2.4488    4.0484 C   0  0  0  0  0  0  0  0  0  0  0  0
   13.2298    3.2062    3.9845 H   0  0  0  0  0  0  0  0  0  0  0  0
   10.0496    4.1566    6.7436 C   0  0  0  0  0  0  0  0  0  0  0  0
   10.5382    3.2999    7.2065 H   0  0  0  0  0  0  0  0  0  0  0  0
    8.9844    3.9666    6.6298 H   0  0  0  0  0  0  0  0  0  0  0  0
   10.1840    5.0457    7.3550 H   0  0  0  0  0  0  0  0  0  0  0  0
    9.0404    6.8850    4.6485 C   0  0  0  0  0  0  0  0  0  0  0  0
    7.5553    7.0921    4.9968 C   0  0  0  0  0  0  0  0  0  0  0  0
  1  3  1  0  0  0  0
  1 45  1  0  0  0  0
  2 19  1  0  0  0  0
  2 41  1  0  0  0  0
  5 45  1  0  0  0  0
  8 46  1  0  0  0  0
  9 11  1  0  0  0  0
 10  9  1  0  0  0  0
 11 12  1  0  0  0  0
 13 14  1  1  0  0  0
 13 11  1  0  0  0  0
 13  1  1  0  0  0  0
 15 13  1  0  0  0  0
 16 15  1  0  0  0  0
 17 15  1  0  0  0  0
 17  9  2  0  0  0  0
 18 17  1  0  0  0  0
 19 20  1  0  0  0  0
 20 22  2  0  0  0  0
 20 21  1  0  0  0  0
 22 23  1  0  0  0  0
 24 25  1  0  0  0  0
 24 22  1  0  0  0  0
 26 24  2  0  0  0  0
 27 26  1  0  0  0  0
 28 26  1  0  0  0  0
 28 19  2  0  0  0  0
 29 28  1  0  0  0  0
 30 31  1  0  0  0  0
 30  2  1  0  0  0  0
 31 32  1  0  0  0  0
 33 34  1  0  0  0  0
 33 31  2  0  0  0  0
 35 33  1  0  0  0  0
 36 35  1  0  0  0  0
 37 35  2  0  0  0  0
 37 39  1  0  0  0  0
 38 37  1  0  0  0  0
 39 30  2  0  0  0  0
 40 39  1  0  0  0  0
 41 42  1  0  0  0  0
 41 44  1  0  0  0  0
 43 41  1  0  0  0  0
 45 46  1  0  0  0  0
 45  4  1  0  0  0  0
 46  7  1  0  0  0  0
 46  6  1  0  0  0  0
M  END
$$$$
