CSD_code = GABKOL | q = 0 | S = 0 | Stoichiometry = C16H32Cl2O4RuS4 | MND = 6
 OpenBabel04212202043D

 59 62  0  0  0  0  0  0  0  0999 V2000
    6.4438   -0.0002    6.4724 Ru  0  0  0  0  0  0  0  0  0  0  0  0
    7.2733    0.4886    8.6541 Cl  0  0  0  0  0  0  0  0  0  0  0  0
    8.1153   -1.6844    6.2066 S   0  0  0  0  0  3  0  0  0  0  0  0
    7.9270    1.6219    5.5412 S   0  0  0  0  0  3  0  0  0  0  0  0
    8.4651   -4.7418    6.7798 O   0  0  0  0  0  0  0  0  0  0  0  0
   10.8409    1.7661    4.4081 O   0  0  0  0  0  0  0  0  0  0  0  0
    8.3166   -2.5298    7.8056 C   0  0  0  0  0  0  0  0  0  0  0  0
    8.8220   -1.8319    8.4707 H   0  0  0  0  0  0  0  0  0  0  0  0
    7.3226   -2.7547    8.1955 H   0  0  0  0  0  0  0  0  0  0  0  0
    9.1280   -3.8009    7.5913 C   0  0  0  0  0  0  0  0  0  0  0  0
   10.1045   -3.5430    7.1518 H   0  0  0  0  0  0  0  0  0  0  0  0
    9.2897   -4.3021    8.5489 H   0  0  0  0  0  0  0  0  0  0  0  0
    8.2838   -4.2999    5.4549 C   0  0  0  0  0  0  0  0  0  0  0  0
    7.8503   -5.1488    4.9203 H   0  0  0  0  0  0  0  0  0  0  0  0
    9.2563   -4.0497    5.0027 H   0  0  0  0  0  0  0  0  0  0  0  0
    7.3522   -3.0991    5.3531 C   0  0  0  0  0  0  0  0  0  0  0  0
    6.3918   -3.3017    5.8296 H   0  0  0  0  0  0  0  0  0  0  0  0
    7.1925   -2.7952    4.3201 H   0  0  0  0  0  0  0  0  0  0  0  0
    8.5738    0.9654    3.9721 C   0  0  0  0  0  0  0  0  0  0  0  0
    8.8832   -0.0673    4.1405 H   0  0  0  0  0  0  0  0  0  0  0  0
    7.7537    0.9908    3.2568 H   0  0  0  0  0  0  0  0  0  0  0  0
    9.7463    1.8287    3.5242 C   0  0  0  0  0  0  0  0  0  0  0  0
   10.1246    1.4689    2.5642 H   0  0  0  0  0  0  0  0  0  0  0  0
    9.4110    2.8716    3.4097 H   0  0  0  0  0  0  0  0  0  0  0  0
   10.5602    2.3087    5.6770 C   0  0  0  0  0  0  0  0  0  0  0  0
   10.2309    3.3550    5.5772 H   0  0  0  0  0  0  0  0  0  0  0  0
   11.5071    2.2838    6.2219 H   0  0  0  0  0  0  0  0  0  0  0  0
    9.5063    1.5158    6.4391 C   0  0  0  0  0  0  0  0  0  0  0  0
    9.3322    1.9214    7.4341 H   0  0  0  0  0  0  0  0  0  0  0  0
    9.7807    0.4623    6.5143 H   0  0  0  0  0  0  0  0  0  0  0  0
    5.6131   -0.4895    4.2929 Cl  0  0  0  0  0  0  0  0  0  0  0  0
    4.7722    1.6843    6.7373 S   0  0  0  0  0  3  0  0  0  0  0  0
    4.9591   -1.6210    7.4030 S   0  0  0  0  0  3  0  0  0  0  0  0
    4.4212    4.7418    6.1648 O   0  0  0  0  0  0  0  0  0  0  0  0
    2.0454   -1.7662    8.5365 O   0  0  0  0  0  0  0  0  0  0  0  0
    4.5699    2.5299    5.1386 C   0  0  0  0  0  0  0  0  0  0  0  0
    4.0644    1.8320    4.4736 H   0  0  0  0  0  0  0  0  0  0  0  0
    5.5636    2.7550    4.7485 H   0  0  0  0  0  0  0  0  0  0  0  0
    3.7583    3.8009    5.3532 C   0  0  0  0  0  0  0  0  0  0  0  0
    2.7820    3.5428    5.7928 H   0  0  0  0  0  0  0  0  0  0  0  0
    3.5964    4.3021    4.3957 H   0  0  0  0  0  0  0  0  0  0  0  0
    4.6026    4.2998    7.4896 C   0  0  0  0  0  0  0  0  0  0  0  0
    5.0359    5.1487    8.0242 H   0  0  0  0  0  0  0  0  0  0  0  0
    3.6301    4.0494    7.9418 H   0  0  0  0  0  0  0  0  0  0  0  0
    5.5344    3.0991    7.5913 C   0  0  0  0  0  0  0  0  0  0  0  0
    6.4948    3.3020    7.1149 H   0  0  0  0  0  0  0  0  0  0  0  0
    5.6940    2.7951    8.6242 H   0  0  0  0  0  0  0  0  0  0  0  0
    4.3124   -0.9652    8.9724 C   0  0  0  0  0  0  0  0  0  0  0  0
    4.0029    0.0675    8.8043 H   0  0  0  0  0  0  0  0  0  0  0  0
    5.1326   -0.9907    9.6876 H   0  0  0  0  0  0  0  0  0  0  0  0
    3.1401   -1.8287    9.4203 C   0  0  0  0  0  0  0  0  0  0  0  0
    2.7617   -1.4691   10.3804 H   0  0  0  0  0  0  0  0  0  0  0  0
    3.4754   -2.8716    9.5346 H   0  0  0  0  0  0  0  0  0  0  0  0
    2.3261   -2.3088    7.2675 C   0  0  0  0  0  0  0  0  0  0  0  0
    2.6555   -3.3550    7.3673 H   0  0  0  0  0  0  0  0  0  0  0  0
    1.3791   -2.2840    6.7226 H   0  0  0  0  0  0  0  0  0  0  0  0
    3.3796   -1.5155    6.5053 C   0  0  0  0  0  0  0  0  0  0  0  0
    3.5538   -1.9213    5.5103 H   0  0  0  0  0  0  0  0  0  0  0  0
    3.1050   -0.4622    6.4301 H   0  0  0  0  0  0  0  0  0  0  0  0
  1 32  1  0  0  0  0
  1 33  1  0  0  0  0
  1  2  1  0  0  0  0
  3  1  1  0  0  0  0
  3  7  1  0  0  0  0
  4 28  1  0  0  0  0
  4  1  1  0  0  0  0
  5 10  1  0  0  0  0
  6 25  1  0  0  0  0
  7  9  1  0  0  0  0
  7  8  1  0  0  0  0
 10  7  1  0  0  0  0
 10 12  1  0  0  0  0
 11 10  1  0  0  0  0
 13  5  1  0  0  0  0
 14 13  1  0  0  0  0
 15 13  1  0  0  0  0
 16 13  1  0  0  0  0
 16 17  1  0  0  0  0
 16  3  1  0  0  0  0
 18 16  1  0  0  0  0
 19 20  1  0  0  0  0
 19  4  1  0  0  0  0
 21 19  1  0  0  0  0
 22 19  1  0  0  0  0
 22  6  1  0  0  0  0
 23 22  1  0  0  0  0
 24 22  1  0  0  0  0
 25 27  1  0  0  0  0
 25 28  1  0  0  0  0
 26 25  1  0  0  0  0
 28 30  1  0  0  0  0
 28 29  1  0  0  0  0
 31  1  1  0  0  0  0
 32 45  1  0  0  0  0
 33 48  1  0  0  0  0
 34 42  1  0  0  0  0
 35 51  1  0  0  0  0
 36 39  1  0  0  0  0
 36 32  1  0  0  0  0
 37 36  1  0  0  0  0
 38 36  1  0  0  0  0
 39 40  1  0  0  0  0
 39 34  1  0  0  0  0
 41 39  1  0  0  0  0
 42 45  1  0  0  0  0
 42 44  1  0  0  0  0
 42 43  1  0  0  0  0
 45 47  1  0  0  0  0
 46 45  1  0  0  0  0
 48 51  1  0  0  0  0
 48 50  1  0  0  0  0
 49 48  1  0  0  0  0
 51 53  1  0  0  0  0
 51 52  1  0  0  0  0
 54 55  1  0  0  0  0
 54 35  1  0  0  0  0
 56 54  1  0  0  0  0
 57 54  1  0  0  0  0
 57 33  1  0  0  0  0
 58 57  1  0  0  0  0
 59 57  1  0  0  0  0
M  END
$$$$
