CSD_code = GABKEB | q = 0 | S = 0 | Stoichiometry = C7H8Cl2O4RuS | MND = 6
 OpenBabel04212202043D

 23 23  0  0  0  0  0  0  0  0999 V2000
    2.8235    2.9332   19.0537 Ru  0  0  0  0  0  0  0  0  0  0  0  0
    4.7820    3.1641   20.3532 Cl  0  0  0  0  0  0  0  0  0  0  0  0
    3.7721    4.2826   17.3660 Cl  0  0  0  0  0  0  0  0  0  0  0  0
    1.8667    5.0570   20.0945 S   0  0  0  0  0  3  0  0  0  0  0  0
    2.2607    8.0709   19.3249 O   0  0  0  0  0  0  0  0  0  0  0  0
    4.8518    1.0322   17.9131 O   0  0  0  0  0  1  0  0  0  0  0  0
    1.9689    1.3058   21.4335 O   0  0  0  0  0  1  0  0  0  0  0  0
    0.5261    2.7149   17.1291 O   0  0  0  0  0  1  0  0  0  0  0  0
    3.3680    6.0874   20.2267 C   0  0  0  0  0  0  0  0  0  0  0  0
    3.9368    5.7129   21.0763 H   0  0  0  0  0  0  0  0  0  0  0  0
    3.9381    5.9650   19.3025 H   0  0  0  0  0  0  0  0  0  0  0  0
    2.9482    7.5377   20.4311 C   0  0  0  0  0  0  0  0  0  0  0  0
    2.3298    7.6201   21.3388 H   0  0  0  0  0  0  0  0  0  0  0  0
    3.8397    8.1583   20.5473 H   0  0  0  0  0  0  0  0  0  0  0  0
    1.0234    7.4507   19.0883 C   0  0  0  0  0  0  0  0  0  0  0  0
    0.5666    8.0111   18.2691 H   0  0  0  0  0  0  0  0  0  0  0  0
    0.3808    7.5262   19.9799 H   0  0  0  0  0  0  0  0  0  0  0  0
    1.1607    5.9847   18.6842 C   0  0  0  0  0  0  0  0  0  0  0  0
    1.8407    5.8730   17.8360 H   0  0  0  0  0  0  0  0  0  0  0  0
    0.1877    5.5483   18.4650 H   0  0  0  0  0  0  0  0  0  0  0  0
    4.0094    1.6625   18.3282 C   0  0  0  0  0  2  0  0  0  0  0  0
    2.2217    1.9099   20.5076 C   0  0  0  0  0  2  0  0  0  0  0  0
    1.3620    2.7695   17.8972 C   0  0  0  0  0  2  0  0  0  0  0  0
  1  4  1  0  0  0  0
  1  2  1  0  0  0  0
  1 22  1  0  0  0  0
  3  1  1  0  0  0  0
  4  9  1  0  0  0  0
  5 12  1  0  0  0  0
  6 21  1  0  0  0  0
  8 23  1  0  0  0  0
  9 12  1  0  0  0  0
  9 10  1  0  0  0  0
 11  9  1  0  0  0  0
 12 14  1  0  0  0  0
 12 13  1  0  0  0  0
 15  5  1  0  0  0  0
 15 17  1  0  0  0  0
 16 15  1  0  0  0  0
 18 15  1  0  0  0  0
 18  4  1  0  0  0  0
 19 18  1  0  0  0  0
 20 18  1  0  0  0  0
 21  1  1  0  0  0  0
 22  7  1  0  0  0  0
 23  1  1  0  0  0  0
M  END
$$$$
