CSD_code = GACCAQ | q = -1 | S = 0 | Stoichiometry = C25H25ClN2O4Rh(1-) | MND = 4
 OpenBabel04212202043D

 58 60  0  0  0  0  0  0  0  0999 V2000
   11.9518    9.1357   11.2294 C   0  0  0  0  0  2  0  0  0  0  0  0
   12.3565   11.3114    9.6038 C   0  0  0  0  0  2  0  0  0  0  0  0
   14.6423    8.3777   10.7539 C   0  0  0  0  0  0  0  0  0  0  0  0
   16.7003    7.6762   11.9122 C   0  0  0  0  0  0  0  0  0  0  0  0
   16.4802    6.3742   11.4429 C   0  0  0  0  0  3  0  0  0  0  0  0
   15.3746    6.0248   10.6565 C   0  0  0  0  0  0  0  0  0  0  0  0
   17.4585    5.2966   11.8242 C   0  0  0  0  0  0  0  0  0  0  0  0
   18.1757    5.1164   11.0204 H   0  0  0  0  0  0  0  0  0  0  0  0
   16.9285    4.3642   12.0139 H   0  0  0  0  0  0  0  0  0  0  0  0
   18.0048    5.6059   12.7128 H   0  0  0  0  0  0  0  0  0  0  0  0
   15.9743   10.0025   11.8595 C   0  0  0  0  0  0  0  0  0  0  0  0
   15.2225   10.5810   12.8825 C   0  0  0  0  0  0  0  0  0  0  0  0
   15.4474   11.9156   13.2002 C   0  0  0  0  0  0  0  0  0  0  0  0
   14.8577   12.3714   13.9848 H   0  0  0  0  0  0  0  0  0  0  0  0
   16.4108   12.6628   12.5453 C   0  0  0  0  0  0  0  0  0  0  0  0
   17.1883   12.0434   11.5767 C   0  0  0  0  0  0  0  0  0  0  0  0
   17.9621   12.6103   11.0774 H   0  0  0  0  0  0  0  0  0  0  0  0
   16.9926   10.7190   11.2234 C   0  0  0  0  0  0  0  0  0  0  0  0
   14.2336    9.7853   13.6889 C   0  0  0  0  0  0  0  0  0  0  0  0
   14.2398   10.1285   14.7223 H   0  0  0  0  0  0  0  0  0  0  0  0
   14.4854    8.7272   13.6717 H   0  0  0  0  0  0  0  0  0  0  0  0
   13.2226    9.9099   13.2949 H   0  0  0  0  0  0  0  0  0  0  0  0
   16.6185   14.1137   12.8696 C   0  0  0  0  0  0  0  0  0  0  0  0
   16.1511   14.3721   13.8174 H   0  0  0  0  0  0  0  0  0  0  0  0
   16.1770   14.7349   12.0896 H   0  0  0  0  0  0  0  0  0  0  0  0
   17.6802   14.3488   12.9241 H   0  0  0  0  0  0  0  0  0  0  0  0
   17.8506   10.0648   10.1880 C   0  0  0  0  0  0  0  0  0  0  0  0
   18.3993    9.2386   10.6380 H   0  0  0  0  0  0  0  0  0  0  0  0
   18.5578   10.7770    9.7696 H   0  0  0  0  0  0  0  0  0  0  0  0
   17.2321    9.6716    9.3825 H   0  0  0  0  0  0  0  0  0  0  0  0
   13.2629    6.7649    9.6970 C   0  0  0  0  0  0  0  0  0  0  0  0
   12.2342    6.1643   10.4264 C   0  0  0  0  0  0  0  0  0  0  0  0
   11.0509    5.8586    9.7746 C   0  0  0  0  0  0  0  0  0  0  0  0
   10.2441    5.4022   10.3320 H   0  0  0  0  0  0  0  0  0  0  0  0
   10.8803    6.1242    8.4230 C   0  0  0  0  0  0  0  0  0  0  0  0
   11.9362    6.6687    7.7110 C   0  0  0  0  0  0  0  0  0  0  0  0
   11.8283    6.8447    6.6491 H   0  0  0  0  0  0  0  0  0  0  0  0
   13.1426    6.9832    8.3239 C   0  0  0  0  0  0  0  0  0  0  0  0
   12.4305    5.8265   11.8725 C   0  0  0  0  0  0  0  0  0  0  0  0
   12.8244    6.6788   12.4252 H   0  0  0  0  0  0  0  0  0  0  0  0
   13.1540    5.0150   11.9520 H   0  0  0  0  0  0  0  0  0  0  0  0
   11.4940    5.5124   12.3275 H   0  0  0  0  0  0  0  0  0  0  0  0
    9.5722    5.8153    7.7542 C   0  0  0  0  0  0  0  0  0  0  0  0
    8.8152    6.5364    8.0646 H   0  0  0  0  0  0  0  0  0  0  0  0
    9.2224    4.8222    8.0321 H   0  0  0  0  0  0  0  0  0  0  0  0
    9.6675    5.8642    6.6719 H   0  0  0  0  0  0  0  0  0  0  0  0
   14.3044    7.4895    7.5272 C   0  0  0  0  0  0  0  0  0  0  0  0
   15.2003    6.9233    7.7788 H   0  0  0  0  0  0  0  0  0  0  0  0
   14.4973    8.5408    7.7510 H   0  0  0  0  0  0  0  0  0  0  0  0
   14.1100    7.3944    6.4614 H   0  0  0  0  0  0  0  0  0  0  0  0
   15.7363    8.6455   11.4740 N   0  0  0  0  0  0  0  0  0  0  0  0
   14.4738    7.1056   10.3777 N   0  0  0  0  0  0  0  0  0  0  0  0
   11.0070    8.7903   11.7960 O   0  0  0  0  0  1  0  0  0  0  0  0
   11.9400   12.2814    9.1533 O   0  0  0  0  0  1  0  0  0  0  0  0
   17.6047    8.0620   12.6552 O   0  0  0  0  0  0  0  0  0  0  0  0
   15.0918    4.9117   10.2105 O   0  0  0  0  0  0  0  0  0  0  0  0
   14.8272   10.7781    8.8243 Cl  0  0  0  0  0  0  0  0  0  0  0  0
   13.3108    9.8423   10.2202 Rh  0  0  0  0  0  0  0  0  0  0  0  0
  1 53  1  0  0  0  0
  2 58  1  0  0  0  0
  3 51  1  0  0  0  0
  4 55  2  0  0  0  0
  5  7  1  0  0  0  0
  5  4  1  0  0  0  0
  6  5  1  0  0  0  0
  7  9  1  0  0  0  0
  7 10  1  0  0  0  0
  8  7  1  0  0  0  0
 11 12  1  0  0  0  0
 12 13  2  0  0  0  0
 12 19  1  0  0  0  0
 13 14  1  0  0  0  0
 15 23  1  0  0  0  0
 15 13  1  0  0  0  0
 16 15  2  0  0  0  0
 17 16  1  0  0  0  0
 18 16  1  0  0  0  0
 18 11  2  0  0  0  0
 19 20  1  0  0  0  0
 21 19  1  0  0  0  0
 22 19  1  0  0  0  0
 23 26  1  0  0  0  0
 23 24  1  0  0  0  0
 25 23  1  0  0  0  0
 27 28  1  0  0  0  0
 27 18  1  0  0  0  0
 29 27  1  0  0  0  0
 30 27  1  0  0  0  0
 31 52  1  0  0  0  0
 31 32  1  0  0  0  0
 32 39  1  0  0  0  0
 33 34  1  0  0  0  0
 33 32  2  0  0  0  0
 35 33  1  0  0  0  0
 36 38  1  0  0  0  0
 36 35  2  0  0  0  0
 37 36  1  0  0  0  0
 38 31  2  0  0  0  0
 39 41  1  0  0  0  0
 39 42  1  0  0  0  0
 39 40  1  0  0  0  0
 43 45  1  0  0  0  0
 43 44  1  0  0  0  0
 43 35  1  0  0  0  0
 46 43  1  0  0  0  0
 47 49  1  0  0  0  0
 47 48  1  0  0  0  0
 47 38  1  0  0  0  0
 50 47  1  0  0  0  0
 51 11  1  0  0  0  0
 51  4  1  0  0  0  0
 52  6  1  0  0  0  0
 52  3  1  0  0  0  0
 54  2  1  0  0  0  0
 56  6  2  0  0  0  0
 57 58  1  0  0  0  0
 58  3  2  0  0  0  0
 58  1  1  0  0  0  0
M  END
$$$$
