CSD_code = GACTEL | q = 0 | S = 0 | Stoichiometry = C24H36AuClF2P2Si | MND = 3
 OpenBabel04212202043D

 67 69  0  0  0  0  0  0  0  0999 V2000
    2.2687    2.5878   18.1667 P   0  0  0  0  0  4  0  0  0  0  0  0
    2.1909    4.2890   21.2797 Si  0  0  0  0  0  0  0  0  0  0  0  0
    6.0780    3.3242   17.2139 Cl  0  0  0  0  0  0  0  0  0  0  0  0
    3.4191    3.2637   21.3991 F   0  0  0  0  0  0  0  0  0  0  0  0
    1.5395    3.8995   22.7126 F   0  0  0  0  0  0  0  0  0  0  0  0
   -0.4912    3.0022   18.2525 C   0  0  0  0  0  0  0  0  0  0  0  0
   -0.5092    2.4434   17.3297 H   0  0  0  0  0  0  0  0  0  0  0  0
    0.7191    3.2143   18.9104 C   0  0  0  0  0  0  0  0  0  0  0  0
   -1.6814    3.4946   18.7515 C   0  0  0  0  0  0  0  0  0  0  0  0
   -2.6050    3.3152   18.2211 H   0  0  0  0  0  0  0  0  0  0  0  0
    3.9453    8.1371   21.1915 C   0  0  0  0  0  0  0  0  0  0  0  0
    4.7426    8.6768   20.7046 H   0  0  0  0  0  0  0  0  0  0  0  0
    0.7323    3.9330   20.1148 C   0  0  0  0  0  0  0  0  0  0  0  0
    1.9764    2.6031   16.3354 C   0  0  0  0  0  0  0  0  0  0  0  0
    1.0477    2.0823   16.0757 H   0  0  0  0  0  0  0  0  0  0  0  0
    3.7149    6.8005   20.8712 C   0  0  0  0  0  0  0  0  0  0  0  0
    2.6777    6.1063   21.5103 C   0  0  0  0  0  0  0  0  0  0  0  0
    2.2848    0.7797   18.6096 C   0  0  0  0  0  0  0  0  0  0  0  0
    3.1450    0.3863   18.0512 H   0  0  0  0  0  0  0  0  0  0  0  0
    1.9116    6.7973   22.4518 C   0  0  0  0  0  0  0  0  0  0  0  0
    1.1194    6.2770   22.9672 H   0  0  0  0  0  0  0  0  0  0  0  0
   -1.6771    4.2158   19.9318 C   0  0  0  0  0  0  0  0  0  0  0  0
   -2.5966    4.6125   20.3350 H   0  0  0  0  0  0  0  0  0  0  0  0
    6.4108    5.7558   20.4485 C   0  0  0  0  0  0  0  0  0  0  0  0
    7.0399    5.3673   19.6356 H   0  0  0  0  0  0  0  0  0  0  0  0
   -0.4845    4.4231   20.5966 C   0  0  0  0  0  0  0  0  0  0  0  0
   -0.4961    4.9751   21.5239 H   0  0  0  0  0  0  0  0  0  0  0  0
    2.1463    8.1227   22.7608 C   0  0  0  0  0  0  0  0  0  0  0  0
    1.5330    8.6230   23.4950 H   0  0  0  0  0  0  0  0  0  0  0  0
    5.0545    7.3143   18.3434 C   0  0  0  0  0  0  0  0  0  0  0  0
    5.3531    8.2573   18.8151 H   0  0  0  0  0  0  0  0  0  0  0  0
    6.2483    4.6603   21.4985 C   0  0  0  0  0  0  0  0  0  0  0  0
    7.2078    4.4374   21.9613 H   0  0  0  0  0  0  0  0  0  0  0  0
    5.8719    3.7493   21.0366 H   0  0  0  0  0  0  0  0  0  0  0  0
    5.5507    4.9658   22.2785 H   0  0  0  0  0  0  0  0  0  0  0  0
    3.1716    8.7991   22.1248 C   0  0  0  0  0  0  0  0  0  0  0  0
    3.3715    9.8352   22.3552 H   0  0  0  0  0  0  0  0  0  0  0  0
    3.1576    1.9149   15.6559 C   0  0  0  0  0  0  0  0  0  0  0  0
    3.1323    2.1090   14.5851 H   0  0  0  0  0  0  0  0  0  0  0  0
    3.1337    0.8373   15.8038 H   0  0  0  0  0  0  0  0  0  0  0  0
    4.1014    2.3004   16.0453 H   0  0  0  0  0  0  0  0  0  0  0  0
    3.7249    7.5185   17.6206 C   0  0  0  0  0  0  0  0  0  0  0  0
    3.8131    8.3032   16.8713 H   0  0  0  0  0  0  0  0  0  0  0  0
    2.9363    7.7954   18.3219 H   0  0  0  0  0  0  0  0  0  0  0  0
    3.4315    6.5971   17.1189 H   0  0  0  0  0  0  0  0  0  0  0  0
    1.8842    4.0624   15.8986 C   0  0  0  0  0  0  0  0  0  0  0  0
    2.8489    4.5444   16.0539 H   0  0  0  0  0  0  0  0  0  0  0  0
    1.1258    4.6028   16.4673 H   0  0  0  0  0  0  0  0  0  0  0  0
    1.6379    4.1293   14.8404 H   0  0  0  0  0  0  0  0  0  0  0  0
    7.0434    7.0080   21.0441 C   0  0  0  0  0  0  0  0  0  0  0  0
    6.4481    7.3849   21.8744 H   0  0  0  0  0  0  0  0  0  0  0  0
    7.1584    7.7948   20.3014 H   0  0  0  0  0  0  0  0  0  0  0  0
    8.0333    6.7610   21.4247 H   0  0  0  0  0  0  0  0  0  0  0  0
    6.1478    6.8530   17.3844 C   0  0  0  0  0  0  0  0  0  0  0  0
    6.0147    5.8044   17.1140 H   0  0  0  0  0  0  0  0  0  0  0  0
    7.1347    6.9621   17.8293 H   0  0  0  0  0  0  0  0  0  0  0  0
    6.1203    7.4466   16.4724 H   0  0  0  0  0  0  0  0  0  0  0  0
    1.0221    0.0206   18.2154 C   0  0  0  0  0  0  0  0  0  0  0  0
    1.1393   -1.0299   18.4770 H   0  0  0  0  0  0  0  0  0  0  0  0
    0.8330    0.0783   17.1458 H   0  0  0  0  0  0  0  0  0  0  0  0
    0.1565    0.4074   18.7506 H   0  0  0  0  0  0  0  0  0  0  0  0
    2.5729    0.6358   20.1002 C   0  0  0  0  0  0  0  0  0  0  0  0
    1.7829    1.0905   20.6974 H   0  0  0  0  0  0  0  0  0  0  0  0
    3.5156    1.1155   20.3529 H   0  0  0  0  0  0  0  0  0  0  0  0
    2.6421   -0.4171   20.3682 H   0  0  0  0  0  0  0  0  0  0  0  0
    4.0423    4.0311   18.5903 Au  0  0  0  0  0  0  0  0  0  0  0  0
    4.7731    5.9918   19.6132 P   0  0  0  0  0  4  0  0  0  0  0  0
  1 66  1  0  0  0  0
  1 18  1  0  0  0  0
  1  8  1  0  0  0  0
  2  4  1  0  0  0  0
  2 17  1  0  0  0  0
  2  5  1  0  0  0  0
  3 66  1  0  0  0  0
  6  9  2  0  0  0  0
  6  8  1  0  0  0  0
  7  6  1  0  0  0  0
  8 13  2  0  0  0  0
  9 22  1  0  0  0  0
 10  9  1  0  0  0  0
 11 36  1  0  0  0  0
 12 11  1  0  0  0  0
 13 26  1  0  0  0  0
 13  2  1  0  0  0  0
 14  1  1  0  0  0  0
 15 14  1  0  0  0  0
 16 11  2  0  0  0  0
 16 17  1  0  0  0  0
 17 20  2  0  0  0  0
 18 62  1  0  0  0  0
 19 18  1  0  0  0  0
 20 28  1  0  0  0  0
 20 21  1  0  0  0  0
 22 23  1  0  0  0  0
 22 26  2  0  0  0  0
 24 50  1  0  0  0  0
 24 32  1  0  0  0  0
 25 24  1  0  0  0  0
 26 27  1  0  0  0  0
 28 29  1  0  0  0  0
 30 31  1  0  0  0  0
 30 67  1  0  0  0  0
 32 33  1  0  0  0  0
 32 35  1  0  0  0  0
 34 32  1  0  0  0  0
 36 37  1  0  0  0  0
 36 28  2  0  0  0  0
 38 40  1  0  0  0  0
 38 41  1  0  0  0  0
 38 14  1  0  0  0  0
 39 38  1  0  0  0  0
 42 44  1  0  0  0  0
 42 30  1  0  0  0  0
 43 42  1  0  0  0  0
 45 42  1  0  0  0  0
 46 47  1  0  0  0  0
 46 14  1  0  0  0  0
 46 48  1  0  0  0  0
 49 46  1  0  0  0  0
 50 53  1  0  0  0  0
 50 51  1  0  0  0  0
 52 50  1  0  0  0  0
 54 56  1  0  0  0  0
 54 30  1  0  0  0  0
 55 54  1  0  0  0  0
 57 54  1  0  0  0  0
 58 59  1  0  0  0  0
 58 18  1  0  0  0  0
 58 61  1  0  0  0  0
 60 58  1  0  0  0  0
 62 64  1  0  0  0  0
 62 65  1  0  0  0  0
 62 63  1  0  0  0  0
 66 67  1  0  0  0  0
 67 24  1  0  0  0  0
 67 16  1  0  0  0  0
M  END
$$$$
