CSD_code = GAFHEC | q = 0 | S = 0 | Stoichiometry = C16H18Br2N2Ni | MND = 4
 OpenBabel04212202043D

 39 41  0  0  0  0  0  0  0  0999 V2000
    9.3025    2.4819    8.0415 N   0  0  0  0  0  0  0  0  0  0  0  0
   10.9316    0.8389    8.4445 C   0  0  0  0  0  0  0  0  0  0  0  0
   11.0668    2.1826    6.3375 C   0  0  0  0  0  0  0  0  0  0  0  0
    8.9282    4.2822   10.2855 N   0  0  0  0  0  4  0  0  0  0  0  0
    8.4700    4.2937   11.1982 H   0  0  0  0  0  0  0  0  0  0  0  0
    9.8195    4.7639   10.3939 H   0  0  0  0  0  0  0  0  0  0  0  0
   10.1109   -0.2107    8.8843 C   0  0  0  0  0  0  0  0  0  0  0  0
    9.0890   -0.2995    8.5198 H   0  0  0  0  0  0  0  0  0  0  0  0
   10.3608    1.9154    7.6019 C   0  0  0  0  0  3  0  0  0  0  0  0
   12.2762    0.8620    8.8073 C   0  0  0  0  0  0  0  0  0  0  0  0
   12.9067    1.6704    8.4626 H   0  0  0  0  0  0  0  0  0  0  0  0
    8.6723    4.8760    7.9036 C   0  0  0  0  0  0  0  0  0  0  0  0
    9.7207    5.1878    7.9265 H   0  0  0  0  0  0  0  0  0  0  0  0
    8.1327    5.5572    7.2446 H   0  0  0  0  0  0  0  0  0  0  0  0
   10.6438   -1.2091    9.6868 C   0  0  0  0  0  0  0  0  0  0  0  0
   10.0106   -2.0162   10.0223 H   0  0  0  0  0  0  0  0  0  0  0  0
    8.5587    3.4668    7.3030 C   0  0  0  0  0  0  0  0  0  0  0  0
    7.5072    3.1607    7.3450 H   0  0  0  0  0  0  0  0  0  0  0  0
    8.8839    3.4911    6.2548 H   0  0  0  0  0  0  0  0  0  0  0  0
   11.4584    3.4625    5.9540 C   0  0  0  0  0  0  0  0  0  0  0  0
   11.2534    4.3076    6.5942 H   0  0  0  0  0  0  0  0  0  0  0  0
   11.9725   -1.1559   10.0733 C   0  0  0  0  0  0  0  0  0  0  0  0
   12.3756   -1.9201   10.7196 H   0  0  0  0  0  0  0  0  0  0  0  0
   11.3918    1.0973    5.5241 C   0  0  0  0  0  0  0  0  0  0  0  0
   11.0964    0.1016    5.8222 H   0  0  0  0  0  0  0  0  0  0  0  0
    8.0896    4.9873    9.3122 C   0  0  0  0  0  0  0  0  0  0  0  0
    7.9874    6.0520    9.5694 H   0  0  0  0  0  0  0  0  0  0  0  0
    7.0964    4.5305    9.3335 H   0  0  0  0  0  0  0  0  0  0  0  0
   12.1487    3.6531    4.7706 C   0  0  0  0  0  0  0  0  0  0  0  0
   12.4544    4.6488    4.4860 H   0  0  0  0  0  0  0  0  0  0  0  0
   12.0670    1.2964    4.3356 C   0  0  0  0  0  0  0  0  0  0  0  0
   12.3034    0.4515    3.7068 H   0  0  0  0  0  0  0  0  0  0  0  0
   12.4467    2.5741    3.9561 C   0  0  0  0  0  0  0  0  0  0  0  0
   12.9806    2.7273    3.0306 H   0  0  0  0  0  0  0  0  0  0  0  0
   12.7874   -0.1266    9.6282 C   0  0  0  0  0  0  0  0  0  0  0  0
   13.8250   -0.0899    9.9244 H   0  0  0  0  0  0  0  0  0  0  0  0
    9.3589    1.3903   11.9397 Br  0  0  0  0  0  0  0  0  0  0  0  0
    9.0730    1.9662    9.8603 Ni  0  0  0  0  0  0  0  0  0  0  0  0
    6.8797    1.5038    9.7238 Br  0  0  0  0  0  0  0  0  0  0  0  0
  1 38  1  0  0  0  0
  2 10  2  0  0  0  0
  2  7  1  0  0  0  0
  3  9  1  0  0  0  0
  4  6  1  0  0  0  0
  4  5  1  0  0  0  0
  7 15  2  0  0  0  0
  8  7  1  0  0  0  0
  9  1  1  0  0  0  0
  9  2  1  0  0  0  0
 10 35  1  0  0  0  0
 11 10  1  0  0  0  0
 12 13  1  0  0  0  0
 12 26  1  0  0  0  0
 14 12  1  0  0  0  0
 15 16  1  0  0  0  0
 15 22  1  0  0  0  0
 17 18  1  0  0  0  0
 17 12  1  0  0  0  0
 17  1  1  0  0  0  0
 19 17  1  0  0  0  0
 20  3  1  0  0  0  0
 20 21  1  0  0  0  0
 22 23  1  0  0  0  0
 24 25  1  0  0  0  0
 24  3  2  0  0  0  0
 26 28  1  0  0  0  0
 26 27  1  0  0  0  0
 26  4  1  0  0  0  0
 29 20  2  0  0  0  0
 30 29  1  0  0  0  0
 31 24  1  0  0  0  0
 32 31  1  0  0  0  0
 33 31  2  0  0  0  0
 33 29  1  0  0  0  0
 34 33  1  0  0  0  0
 35 36  1  0  0  0  0
 35 22  2  0  0  0  0
 38  4  1  0  0  0  0
 38 37  1  0  0  0  0
 39 38  1  0  0  0  0
M  END
$$$$
