CSD_code = GAFZUK | q = 0 | S = 0 | Stoichiometry = C31H30Cl2Zr | MND = 12
 OpenBabel04212202043D

 64 67  0  0  1  0  0  0  0  0999 V2000
    1.7881    9.9044    2.9269 Zr  0  0  0  0  0  0  0  0  0  0  0  0
    3.3428    8.2502    3.5436 Cl  0  0  0  0  0  0  0  0  0  0  0  0
    3.3347   11.4377    3.8170 Cl  0  0  0  0  0  0  0  0  0  0  0  0
   -0.1319    8.6606    3.8628 C   0  0  0  0  0  0  0  0  0  0  0  0
   -0.6766    9.8753    3.3814 C   0  0  0  0  0  0  0  0  0  0  0  0
   -1.4455    9.9505    2.6239 H   0  0  0  0  0  0  0  0  0  0  0  0
   -0.1264   10.9758    4.0808 C   0  0  0  0  0  0  0  0  0  0  0  0
    0.7068   10.4329    5.1253 C   0  0  0  0  0  0  0  0  0  0  0  0
    1.3777   11.0289    6.2094 C   0  0  0  0  0  0  0  0  0  0  0  0
    1.3534   12.1020    6.3415 H   0  0  0  0  0  0  0  0  0  0  0  0
    2.0357   10.2244    7.1061 C   0  0  0  0  0  0  0  0  0  0  0  0
    2.5571   10.6692    7.9402 H   0  0  0  0  0  0  0  0  0  0  0  0
    2.0303    8.8258    6.9763 C   0  0  0  0  0  0  0  0  0  0  0  0
    2.5475    8.2310    7.7140 H   0  0  0  0  0  0  0  0  0  0  0  0
    1.3677    8.2050    5.9468 C   0  0  0  0  0  0  0  0  0  0  0  0
    1.3356    7.1260    5.8797 H   0  0  0  0  0  0  0  0  0  0  0  0
    0.7025    8.9952    4.9908 C   0  0  1  0  0  3  0  0  0  0  0  0
   -0.4881   12.3800    3.8735 C   0  0  0  0  0  0  0  0  0  0  0  0
    0.4799   13.3875    3.9179 C   0  0  0  0  0  0  0  0  0  0  0  0
    1.5160   13.1283    4.0933 H   0  0  0  0  0  0  0  0  0  0  0  0
    0.1236   14.7076    3.7106 C   0  0  0  0  0  0  0  0  0  0  0  0
    0.8820   15.4759    3.7439 H   0  0  0  0  0  0  0  0  0  0  0  0
   -1.1949   15.0484    3.4533 C   0  0  0  0  0  0  0  0  0  0  0  0
   -1.4680   16.0804    3.2915 H   0  0  0  0  0  0  0  0  0  0  0  0
   -2.1617   14.0575    3.4056 C   0  0  0  0  0  0  0  0  0  0  0  0
   -3.1920   14.3162    3.2091 H   0  0  0  0  0  0  0  0  0  0  0  0
   -1.8147   12.7361    3.6145 C   0  0  0  0  0  0  0  0  0  0  0  0
   -2.5759   11.9695    3.5930 H   0  0  0  0  0  0  0  0  0  0  0  0
   -0.4895    7.3229    3.3869 C   0  0  0  0  0  0  0  0  0  0  0  0
    0.4805    6.3251    3.2509 C   0  0  0  0  0  0  0  0  0  0  0  0
    1.5133    6.5440    3.4915 H   0  0  0  0  0  0  0  0  0  0  0  0
    0.1314    5.0700    2.7868 C   0  0  0  0  0  0  0  0  0  0  0  0
    0.8911    4.3089    2.6834 H   0  0  0  0  0  0  0  0  0  0  0  0
   -1.1820    4.7864    2.4473 C   0  0  0  0  0  0  0  0  0  0  0  0
   -1.4494    3.8054    2.0841 H   0  0  0  0  0  0  0  0  0  0  0  0
   -2.1505    5.7680    2.5785 C   0  0  0  0  0  0  0  0  0  0  0  0
   -3.1771    5.5514    2.3209 H   0  0  0  0  0  0  0  0  0  0  0  0
   -1.8105    7.0234    3.0450 C   0  0  0  0  0  0  0  0  0  0  0  0
   -2.5744    7.7783    3.1645 H   0  0  0  0  0  0  0  0  0  0  0  0
    0.8516    9.3129    0.6611 C   0  0  0  0  0  0  0  0  0  0  0  0
    0.7418   10.7287    0.7769 C   0  0  0  0  0  0  0  0  0  0  0  0
    2.0526   11.2641    0.9248 C   0  0  0  0  0  0  0  0  0  0  0  0
    2.9802   10.1788    0.8776 C   0  0  2  0  0  0  0  0  0  0  0  0
    2.2330    8.9729    0.7196 C   0  0  0  0  0  0  0  0  0  0  0  0
   -0.2359    8.3601    0.2485 C   0  0  0  0  0  0  0  0  0  0  0  0
   -0.2769    8.2994   -0.8418 H   0  0  0  0  0  0  0  0  0  0  0  0
   -1.2169    8.6774    0.5972 H   0  0  0  0  0  0  0  0  0  0  0  0
   -0.0485    7.3570    0.6287 H   0  0  0  0  0  0  0  0  0  0  0  0
   -0.4813   11.5573    0.4931 C   0  0  0  0  0  0  0  0  0  0  0  0
   -0.3517   12.0809   -0.4562 H   0  0  0  0  0  0  0  0  0  0  0  0
   -0.6598   12.3101    1.2617 H   0  0  0  0  0  0  0  0  0  0  0  0
   -1.3683   10.9344    0.4030 H   0  0  0  0  0  0  0  0  0  0  0  0
    2.3917   12.7290    0.9329 C   0  0  0  0  0  0  0  0  0  0  0  0
    2.6715   13.0551   -0.0716 H   0  0  0  0  0  0  0  0  0  0  0  0
    3.2266   12.9366    1.6020 H   0  0  0  0  0  0  0  0  0  0  0  0
    1.5360   13.3208    1.2564 H   0  0  0  0  0  0  0  0  0  0  0  0
    4.4801   10.2781    0.9081 C   0  0  0  0  0  0  0  0  0  0  0  0
    4.8948   10.0953   -0.0856 H   0  0  0  0  0  0  0  0  0  0  0  0
    4.9039    9.5400    1.5943 H   0  0  0  0  0  0  0  0  0  0  0  0
    4.7937   11.2687    1.2343 H   0  0  0  0  0  0  0  0  0  0  0  0
    2.8024    7.6070    0.4582 C   0  0  0  0  0  0  0  0  0  0  0  0
    2.8413    7.4192   -0.6176 H   0  0  0  0  0  0  0  0  0  0  0  0
    2.1885    6.8299    0.9151 H   0  0  0  0  0  0  0  0  0  0  0  0
    3.8119    7.5246    0.8559 H   0  0  0  0  0  0  0  0  0  0  0  0
  1  2  1  0  0  0  0
  1  3  1  0  0  0  0
  5  4  2  0  0  0  0
  5  7  1  0  0  0  0
  6  5  1  0  0  0  0
  7  8  2  0  0  0  0
  8  9  1  0  0  0  0
  9 10  1  0  0  0  0
  9 11  2  0  0  0  0
 11 12  1  0  0  0  0
 13 11  1  0  0  0  0
 13 14  1  0  0  0  0
 15 13  2  0  0  0  0
 16 15  1  0  0  0  0
 17  4  1  1  0  0  0
 17  8  1  0  0  0  0
 17 15  1  0  0  0  0
 18 19  1  0  0  0  0
 18  7  1  0  0  0  0
 19 20  1  0  0  0  0
 21 22  1  0  0  0  0
 21 19  2  0  0  0  0
 23 21  1  0  0  0  0
 24 23  1  0  0  0  0
 25 23  2  0  0  0  0
 25 27  1  0  0  0  0
 26 25  1  0  0  0  0
 27 18  2  0  0  0  0
 28 27  1  0  0  0  0
 29  4  1  0  0  0  0
 30 29  1  0  0  0  0
 30 31  1  0  0  0  0
 32 30  2  0  0  0  0
 33 32  1  0  0  0  0
 34 36  2  0  0  0  0
 34 32  1  0  0  0  0
 35 34  1  0  0  0  0
 36 38  1  0  0  0  0
 37 36  1  0  0  0  0
 38 39  1  0  0  0  0
 38 29  2  0  0  0  0
 40 44  2  0  0  0  0
 40 41  1  0  0  0  0
 41 42  2  0  0  0  0
 42 53  1  0  0  0  0
 43 57  1  6  0  0  0
 43 42  1  0  0  0  0
 43  1  1  0  0  0  0
 44 43  1  0  0  0  0
 45 47  1  0  0  0  0
 45 48  1  0  0  0  0
 45 40  1  0  0  0  0
 46 45  1  0  0  0  0
 49 41  1  0  0  0  0
 49 51  1  0  0  0  0
 50 49  1  0  0  0  0
 52 49  1  0  0  0  0
 53 56  1  0  0  0  0
 53 55  1  0  0  0  0
 54 53  1  0  0  0  0
 57 60  1  0  0  0  0
 57 59  1  0  0  0  0
 58 57  1  0  0  0  0
 61 44  1  0  0  0  0
 61 64  1  0  0  0  0
 61 63  1  0  0  0  0
 62 61  1  0  0  0  0
M  END
$$$$
