CSD_code = GAGCAT | q = 0 | S = 0 | Stoichiometry = C11H15I2N4O2Rh | MND = 6
 OpenBabel04212202043D

 35 36  0  0  1  0  0  0  0  0999 V2000
    8.6263    3.0825    3.0904 I   0  0  0  0  0 15  0  0  0  0  0  0
    3.7771    1.7080    1.3323 I   0  0  0  0  0 15  0  0  0  0  0  0
    6.1999    2.3848    2.2209 Rh  0  0  2  0  0  0  0  0  0  0  0  0
    6.7784    2.7954    0.2142 O   0  0  0  0  0  0  0  0  0  0  0  0
    5.8930    4.3427    1.4489 O   0  0  0  0  0  0  0  0  0  0  0  0
    7.5724   -0.2735    1.9292 N   0  0  0  0  0  0  0  0  0  0  0  0
    6.0805   -0.3386    3.4758 N   0  0  0  0  0  0  0  0  0  0  0  0
    5.1081    1.3547    4.8194 N   0  0  0  0  0  0  0  0  0  0  0  0
    5.4207    3.4799    4.9090 N   0  0  0  0  0  0  0  0  0  0  0  0
    8.4554    0.1521    0.8742 C   0  0  0  0  0  0  0  0  0  0  0  0
    7.5972   -1.5332    2.4612 C   0  0  0  0  0  0  0  0  0  0  0  0
    6.6594   -1.5806    3.4326 C   0  0  0  0  0  0  0  0  0  0  0  0
    6.6429    0.4725    2.5493 C   0  0  1  0  0  3  0  0  0  0  0  0
    4.9638    0.0190    4.3076 C   0  0  0  0  0  0  0  0  0  0  0  0
    4.7411    1.7554    6.0781 C   0  0  0  0  0  0  0  0  0  0  0  0
    4.9419    3.0905    6.1295 C   0  0  0  0  0  0  0  0  0  0  0  0
    5.5293    2.4172    4.0941 C   0  0  0  0  0  0  0  0  0  0  0  0
    5.7710    4.8422    4.6004 C   0  0  0  0  0  0  0  0  0  0  0  0
    6.3756    3.9793    0.3454 C   0  0  2  0  0  3  0  0  0  0  0  0
    6.4597    4.9474   -0.8022 C   0  0  0  0  0  0  0  0  0  0  0  0
    8.0313    1.0136    0.3588 H   0  0  0  0  0  0  0  0  0  0  0  0
    9.4276    0.4318    1.2858 H   0  0  0  0  0  0  0  0  0  0  0  0
    8.5852   -0.6618    0.1618 H   0  0  0  0  0  0  0  0  0  0  0  0
    8.2720   -2.2857    2.1092 H   0  0  0  0  0  0  0  0  0  0  0  0
    6.3557   -2.3770    4.0792 H   0  0  0  0  0  0  0  0  0  0  0  0
    4.9029   -0.6815    5.1466 H   0  0  0  0  0  0  0  0  0  0  0  0
    4.0356   -0.0419    3.7126 H   0  0  0  0  0  0  0  0  0  0  0  0
    4.3695    1.0708    6.8115 H   0  0  0  0  0  0  0  0  0  0  0  0
    4.7834    3.7869    6.9266 H   0  0  0  0  0  0  0  0  0  0  0  0
    5.0529    5.5143    5.0687 H   0  0  0  0  0  0  0  0  0  0  0  0
    5.7529    4.9961    3.5217 H   0  0  0  0  0  0  0  0  0  0  0  0
    6.7734    5.0672    4.9715 H   0  0  0  0  0  0  0  0  0  0  0  0
    7.1053    4.5460   -1.5780 H   0  0  0  0  0  0  0  0  0  0  0  0
    5.4584    5.0973   -1.2030 H   0  0  0  0  0  0  0  0  0  0  0  0
    6.8355    5.9035   -0.4461 H   0  0  0  0  0  0  0  0  0  0  0  0
  3  4  1  6  0  0  0
  3 13  1  0  0  0  0
  3 17  2  0  0  0  0
  4 19  1  0  0  0  0
  5  3  1  0  0  0  0
  6 11  1  0  0  0  0
  7 14  1  0  0  0  0
  8 15  1  0  0  0  0
  9 16  1  0  0  0  0
 10 22  1  0  0  0  0
 10  6  1  0  0  0  0
 11 12  2  0  0  0  0
 12  7  1  0  0  0  0
 12 25  1  0  0  0  0
 13  6  1  1  0  0  0
 13  7  1  0  0  0  0
 14  8  1  0  0  0  0
 14 26  1  0  0  0  0
 15 16  2  0  0  0  0
 15 28  1  0  0  0  0
 16 29  1  0  0  0  0
 17  8  1  0  0  0  0
 17  9  1  0  0  0  0
 18  9  1  0  0  0  0
 18 32  1  0  0  0  0
 18 30  1  0  0  0  0
 19 20  1  6  0  0  0
 19  5  1  0  0  0  0
 20 35  1  0  0  0  0
 21 10  1  0  0  0  0
 23 10  1  0  0  0  0
 24 11  1  0  0  0  0
 27 14  1  0  0  0  0
 31 18  1  0  0  0  0
 33 20  1  0  0  0  0
 34 20  1  0  0  0  0
M  END
$$$$
