CSD_code = GAGGIE | q = 0 | S = 0 | Stoichiometry = C29H29BCl2Zr | MND = 13
 OpenBabel04212202043D

 62 65  0  0  1  0  0  0  0  0999 V2000
    7.7483    4.2656    5.3406 Zr  0  0  0  0  0  0  0  0  0  0  0  0
    7.1413    4.3512    7.6220 Cl  0  0  0  0  0  0  0  0  0  0  0  0
    9.9099    3.6023    5.9932 Cl  0  0  0  0  0  0  0  0  0  0  0  0
    8.9563    6.4781    5.4046 B   0  0  0  0  0  0  0  0  0  0  0  0
    7.5346    6.7791    5.9023 C   0  0  0  0  0  0  0  0  0  0  0  0
    7.2577    7.3930    7.1471 C   0  0  0  0  0  0  0  0  0  0  0  0
    5.9797    7.5959    7.5954 C   0  0  0  0  0  0  0  0  0  0  0  0
    4.8884    7.1887    6.8132 C   0  0  0  0  0  0  0  0  0  0  0  0
    5.0915    6.6359    5.5801 C   0  0  0  0  0  0  0  0  0  0  0  0
    6.4049    6.4383    5.0706 C   0  0  0  0  0  0  0  0  0  0  0  0
    6.6015    6.0164    3.7323 C   0  0  0  0  0  0  0  0  0  0  0  0
    7.8764    5.8175    3.1635 C   0  0  0  0  0  0  0  0  0  0  0  0
    8.0280    5.6051    1.7659 C   0  0  0  0  0  3  0  0  0  0  0  0
    9.2527    5.3536    1.2187 C   0  0  0  0  0  0  0  0  0  0  0  0
   10.3935    5.2717    2.0370 C   0  0  0  0  0  0  0  0  0  0  0  0
   10.2945    5.5371    3.3766 C   0  0  0  0  0  0  0  0  0  0  0  0
    9.0609    5.8794    3.9891 C   0  0  0  0  0  0  0  0  0  0  0  0
   10.2197    6.7899    6.2860 C   0  0  0  0  0  0  0  0  0  0  0  0
   10.3152    6.3018    7.5939 C   0  0  0  0  0  0  0  0  0  0  0  0
   11.4280    6.5542    8.3746 C   0  0  0  0  0  0  0  0  0  0  0  0
   12.4725    7.3148    7.8755 C   0  0  0  0  0  0  0  0  0  0  0  0
   12.3958    7.8179    6.5884 C   0  0  0  0  0  0  0  0  0  0  0  0
   11.2858    7.5537    5.8063 C   0  0  0  0  0  0  0  0  0  0  0  0
    7.2074    2.6097    3.4422 C   0  0  0  0  0  0  0  0  0  0  0  0
    5.9665    3.0578    3.9760 C   0  0  0  0  0  0  0  0  0  0  0  0
    5.9100    2.6669    5.3468 C   0  0  0  0  0  0  0  0  0  0  0  0
    7.1067    1.9479    5.6508 C   0  0  1  0  0  0  0  0  0  0  0  0
    7.9053    1.9241    4.4732 C   0  0  0  0  0  0  0  0  0  0  0  0
    7.5998    2.5226    1.9947 C   0  0  0  0  0  0  0  0  0  0  0  0
    4.7628    3.4988    3.1890 C   0  0  0  0  0  0  0  0  0  0  0  0
    4.7025    2.8575    6.2246 C   0  0  0  0  0  0  0  0  0  0  0  0
    7.4658    1.2566    6.9372 C   0  0  0  0  0  0  0  0  0  0  0  0
    9.1680    1.1387    4.2641 C   0  0  0  0  0  0  0  0  0  0  0  0
    8.0939    7.7096    7.7553 H   0  0  0  0  0  0  0  0  0  0  0  0
    5.8025    8.0630    8.5517 H   0  0  0  0  0  0  0  0  0  0  0  0
    3.8839    7.3328    7.1837 H   0  0  0  0  0  0  0  0  0  0  0  0
    4.2461    6.3787    4.9524 H   0  0  0  0  0  0  0  0  0  0  0  0
    5.7406    6.0122    3.0723 H   0  0  0  0  0  0  0  0  0  0  0  0
    7.1496    5.6666    1.1365 H   0  0  0  0  0  0  0  0  0  0  0  0
    9.3517    5.2080    0.1528 H   0  0  0  0  0  0  0  0  0  0  0  0
   11.3481    5.0310    1.5940 H   0  0  0  0  0  0  0  0  0  0  0  0
   11.1836    5.5287    3.9943 H   0  0  0  0  0  0  0  0  0  0  0  0
    9.5140    5.6920    7.9964 H   0  0  0  0  0  0  0  0  0  0  0  0
   11.4820    6.1550    9.3772 H   0  0  0  0  0  0  0  0  0  0  0  0
   13.3418    7.5129    8.4859 H   0  0  0  0  0  0  0  0  0  0  0  0
   13.2054    8.4140    6.1911 H   0  0  0  0  0  0  0  0  0  0  0  0
   11.2338    7.9585    4.8043 H   0  0  0  0  0  0  0  0  0  0  0  0
    6.9938    3.1745    1.3715 H   0  0  0  0  0  0  0  0  0  0  0  0
    7.4581    1.4978    1.6430 H   0  0  0  0  0  0  0  0  0  0  0  0
    8.6499    2.7784    1.8506 H   0  0  0  0  0  0  0  0  0  0  0  0
    5.0419    3.9281    2.2292 H   0  0  0  0  0  0  0  0  0  0  0  0
    4.1605    4.2185    3.7420 H   0  0  0  0  0  0  0  0  0  0  0  0
    4.1297    2.6306    2.9876 H   0  0  0  0  0  0  0  0  0  0  0  0
    4.9065    2.5352    7.2432 H   0  0  0  0  0  0  0  0  0  0  0  0
    3.8625    2.2736    5.8416 H   0  0  0  0  0  0  0  0  0  0  0  0
    4.4012    3.9083    6.2597 H   0  0  0  0  0  0  0  0  0  0  0  0
    6.7458    1.4854    7.7201 H   0  0  0  0  0  0  0  0  0  0  0  0
    8.4541    1.5750    7.2801 H   0  0  0  0  0  0  0  0  0  0  0  0
    7.4844    0.1748    6.7905 H   0  0  0  0  0  0  0  0  0  0  0  0
    9.8997    1.7153    3.6962 H   0  0  0  0  0  0  0  0  0  0  0  0
    8.9485    0.2251    3.7060 H   0  0  0  0  0  0  0  0  0  0  0  0
    9.6158    0.8624    5.2154 H   0  0  0  0  0  0  0  0  0  0  0  0
  1  3  1  0  0  0  0
  1  2  1  0  0  0  0
  4  5  1  0  0  0  0
  4 18  1  0  0  0  0
  5  6  1  0  0  0  0
  6  7  2  0  0  0  0
  6 34  1  0  0  0  0
  7 35  1  0  0  0  0
  8 36  1  0  0  0  0
  8  7  1  0  0  0  0
  9  8  2  0  0  0  0
 10  9  1  0  0  0  0
 10  5  2  0  0  0  0
 11 10  1  0  0  0  0
 12 11  2  0  0  0  0
 12 17  1  0  0  0  0
 13 12  1  0  0  0  0
 14 13  1  0  0  0  0
 14 15  2  0  0  0  0
 15 16  1  0  0  0  0
 16 17  2  0  0  0  0
 16 42  1  0  0  0  0
 17  4  1  0  0  0  0
 18 19  1  0  0  0  0
 19 43  1  0  0  0  0
 19 20  2  0  0  0  0
 20 44  1  0  0  0  0
 21 20  1  0  0  0  0
 21 45  1  0  0  0  0
 22 21  2  0  0  0  0
 23 18  2  0  0  0  0
 23 22  1  0  0  0  0
 24 25  1  0  0  0  0
 24 28  2  0  0  0  0
 25 26  2  0  0  0  0
 26 27  1  0  0  0  0
 26 31  1  0  0  0  0
 27  1  1  1  0  0  0
 27 32  1  0  0  0  0
 28 27  1  0  0  0  0
 29 24  1  0  0  0  0
 30 52  1  0  0  0  0
 30 25  1  0  0  0  0
 31 56  1  0  0  0  0
 31 54  1  0  0  0  0
 32 58  1  0  0  0  0
 32 57  1  0  0  0  0
 33 28  1  0  0  0  0
 33 62  1  0  0  0  0
 37  9  1  0  0  0  0
 38 11  1  0  0  0  0
 39 13  1  0  0  0  0
 40 14  1  0  0  0  0
 41 15  1  0  0  0  0
 46 22  1  0  0  0  0
 47 23  1  0  0  0  0
 48 29  1  0  0  0  0
 49 29  1  0  0  0  0
 50 29  1  0  0  0  0
 51 30  1  0  0  0  0
 53 30  1  0  0  0  0
 55 31  1  0  0  0  0
 59 32  1  0  0  0  0
 60 33  1  0  0  0  0
 61 33  1  0  0  0  0
M  END
$$$$
