CSD_code = GAGMUX | q = 0 | S = 0 | Stoichiometry = C19H15Cl2N2PPt | MND = 4
 OpenBabel04212202043D

 40 44  0  0  0  0  0  0  0  0999 V2000
    0.4048   12.1468    2.1799 Pt  0  0  0  0  0  0  0  0  0  0  0  0
   -1.1661   10.8469    1.2153 Cl  0  0  0  0  0  0  0  0  0  0  0  0
    1.9027   13.5693    3.1230 P   0  0  0  0  0  4  0  0  0  0  0  0
    0.1983   11.0654    4.1505 Cl  0  0  0  0  0  0  0  0  0  0  0  0
    2.2320   14.5277    1.7216 N   0  0  0  0  0  0  0  0  0  0  0  0
    3.0067   15.6379    1.4497 C   0  0  0  0  0  0  0  0  0  0  0  0
    3.6172   16.0699    2.2194 H   0  0  0  0  0  0  0  0  0  0  0  0
    2.8531   16.0207    0.1539 C   0  0  0  0  0  0  0  0  0  0  0  0
    3.3366   16.8451   -0.3310 H   0  0  0  0  0  0  0  0  0  0  0  0
    1.9227   15.1181   -0.4459 C   0  0  0  0  0  0  0  0  0  0  0  0
    1.3329   14.9387   -1.6968 C   0  0  0  0  0  0  0  0  0  0  0  0
    1.5624   15.5922   -2.5240 H   0  0  0  0  0  0  0  0  0  0  0  0
    0.4411   13.8895   -1.8286 C   0  0  0  0  0  0  0  0  0  0  0  0
   -0.0444   13.7052   -2.7734 H   0  0  0  0  0  0  0  0  0  0  0  0
    0.1433   13.0509   -0.7553 C   0  0  0  0  0  3  0  0  0  0  0  0
   -0.5598   12.2346   -0.8493 H   0  0  0  0  0  0  0  0  0  0  0  0
    0.6940   13.2030    0.4457 N   0  0  0  0  0  0  0  0  0  0  0  0
    1.5603   14.2106    0.5730 C   0  0  0  0  0  0  0  0  0  0  0  0
    1.2025   14.7990    4.2602 C   0  0  0  0  0  0  0  0  0  0  0  0
   -0.1840   14.8325    4.3679 C   0  0  0  0  0  0  0  0  0  0  0  0
   -0.7719   14.0991    3.8214 H   0  0  0  0  0  0  0  0  0  0  0  0
   -0.7902   15.7719    5.1815 C   0  0  0  0  0  0  0  0  0  0  0  0
   -1.8655   15.7943    5.2729 H   0  0  0  0  0  0  0  0  0  0  0  0
   -0.0126   16.6792    5.8837 C   0  0  0  0  0  0  0  0  0  0  0  0
   -0.4836   17.4120    6.5218 H   0  0  0  0  0  0  0  0  0  0  0  0
    1.3694   16.6464    5.7773 C   0  0  0  0  0  0  0  0  0  0  0  0
    1.9708   17.3528    6.3303 H   0  0  0  0  0  0  0  0  0  0  0  0
    1.9825   15.7072    4.9682 C   0  0  0  0  0  0  0  0  0  0  0  0
    3.0608   15.6697    4.8946 H   0  0  0  0  0  0  0  0  0  0  0  0
    3.5394   13.2168    3.8042 C   0  0  0  0  0  0  0  0  0  0  0  0
    3.5871   12.8107    5.1368 C   0  0  0  0  0  0  0  0  0  0  0  0
    2.6701   12.7720    5.7092 H   0  0  0  0  0  0  0  0  0  0  0  0
    4.7950   12.4516    5.7031 C   0  0  0  0  0  0  0  0  0  0  0  0
    4.8338   12.1394    6.7358 H   0  0  0  0  0  0  0  0  0  0  0  0
    5.9542   12.4861    4.9427 C   0  0  0  0  0  0  0  0  0  0  0  0
    6.8982   12.2075    5.3865 H   0  0  0  0  0  0  0  0  0  0  0  0
    5.9032   12.8640    3.6107 C   0  0  0  0  0  0  0  0  0  0  0  0
    6.8053   12.8759    3.0170 H   0  0  0  0  0  0  0  0  0  0  0  0
    4.6970   13.2192    3.0332 C   0  0  0  0  0  0  0  0  0  0  0  0
    4.6555   13.4979    1.9892 H   0  0  0  0  0  0  0  0  0  0  0  0
  1  3  1  0  0  0  0
  1  4  1  0  0  0  0
  2  1  1  0  0  0  0
  3 30  1  0  0  0  0
  3 19  1  0  0  0  0
  5  3  1  0  0  0  0
  6  5  1  0  0  0  0
  6  7  1  0  0  0  0
  8  6  2  0  0  0  0
  9  8  1  0  0  0  0
 10  8  1  0  0  0  0
 10 18  2  0  0  0  0
 11 10  1  0  0  0  0
 12 11  1  0  0  0  0
 13 11  2  0  0  0  0
 13 15  1  0  0  0  0
 14 13  1  0  0  0  0
 15 17  1  0  0  0  0
 16 15  1  0  0  0  0
 17 18  1  0  0  0  0
 17  1  1  0  0  0  0
 18  5  1  0  0  0  0
 19 20  2  0  0  0  0
 19 28  1  0  0  0  0
 20 22  1  0  0  0  0
 21 20  1  0  0  0  0
 22 23  1  0  0  0  0
 22 24  2  0  0  0  0
 24 25  1  0  0  0  0
 26 24  1  0  0  0  0
 26 27  1  0  0  0  0
 28 26  2  0  0  0  0
 29 28  1  0  0  0  0
 30 31  1  0  0  0  0
 31 33  2  0  0  0  0
 31 32  1  0  0  0  0
 33 34  1  0  0  0  0
 35 36  1  0  0  0  0
 35 33  1  0  0  0  0
 37 35  2  0  0  0  0
 38 37  1  0  0  0  0
 39 37  1  0  0  0  0
 39 30  2  0  0  0  0
 40 39  1  0  0  0  0
M  END
$$$$
