CSD_code = GAGPAF | q = 0 | S = 0 | Stoichiometry = C26H20AuBrP2S2 | MND = 4
 OpenBabel04212202043D

 52 57  0  0  1  0  0  0  0  0999 V2000
    1.1626    1.3728    1.6965 Au  0  0  2  0  0  0  0  0  0  0  0  0
   -0.8140    2.2099    2.9898 Br  0  0  0  0  0  0  0  0  0  0  0  0
    3.3622    1.8221    0.8016 S   0  0  0  0  0  0  0  0  0  0  0  0
    0.1866    2.6196   -1.4483 S   0  0  0  0  0  0  0  0  0  0  0  0
   -0.9257    3.1247    0.2203 P   0  0  0  0  0  4  0  0  0  0  0  0
    3.8512    1.7063    2.7580 P   0  0  0  0  0  4  0  0  0  0  0  0
   -0.0872    1.5984    0.0500 C   0  0  2  0  0  3  0  0  0  0  0  0
    2.5783    0.5673    2.8688 C   0  0  0  0  0  2  0  0  0  0  0  0
    0.7882    5.3232    0.3372 C   0  0  0  0  0  0  0  0  0  0  0  0
    1.1713    6.5662    0.8084 C   0  0  0  0  0  0  0  0  0  0  0  0
    0.3854    7.2290    1.7382 C   0  0  0  0  0  0  0  0  0  0  0  0
   -0.7815    6.6474    2.2118 C   0  0  0  0  0  0  0  0  0  0  0  0
   -1.1761    5.4068    1.7501 C   0  0  0  0  0  0  0  0  0  0  0  0
   -0.3916    4.7552    0.8030 C   0  0  0  0  0  0  0  0  0  0  0  0
   -3.3344    4.2969   -0.5589 C   0  0  0  0  0  0  0  0  0  0  0  0
   -4.6837    4.2380   -0.8523 C   0  0  0  0  0  0  0  0  0  0  0  0
   -5.3769    3.0453   -0.7070 C   0  0  0  0  0  0  0  0  0  0  0  0
   -4.7277    1.9011   -0.2701 C   0  0  0  0  0  0  0  0  0  0  0  0
   -3.3776    1.9447    0.0235 C   0  0  0  0  0  0  0  0  0  0  0  0
   -2.6921    3.1440   -0.1233 C   0  0  0  0  0  0  0  0  0  0  0  0
    6.6397    1.9305    2.9121 C   0  0  0  0  0  0  0  0  0  0  0  0
    7.9102    1.3893    2.9742 C   0  0  0  0  0  0  0  0  0  0  0  0
    8.0786    0.0147    3.0474 C   0  0  0  0  0  0  0  0  0  0  0  0
    6.9789   -0.8293    3.0525 C   0  0  0  0  0  0  0  0  0  0  0  0
    5.7044   -0.2984    2.9843 C   0  0  0  0  0  0  0  0  0  0  0  0
    5.5413    1.0794    2.9224 C   0  0  0  0  0  0  0  0  0  0  0  0
    4.3900    3.4326    4.8406 C   0  0  0  0  0  0  0  0  0  0  0  0
    4.2509    4.6011    5.5635 C   0  0  0  0  0  0  0  0  0  0  0  0
    3.5327    5.6628    5.0346 C   0  0  0  0  0  0  0  0  0  0  0  0
    2.9508    5.5579    3.7816 C   0  0  0  0  0  0  0  0  0  0  0  0
    3.0872    4.3933    3.0500 C   0  0  0  0  0  0  0  0  0  0  0  0
    3.8229    3.3384    3.5727 C   0  0  0  0  0  0  0  0  0  0  0  0
    1.3940    4.8011   -0.3932 H   0  0  0  0  0  0  0  0  0  0  0  0
    2.0845    7.0156    0.4466 H   0  0  0  0  0  0  0  0  0  0  0  0
    0.6844    8.2035    2.0964 H   0  0  0  0  0  0  0  0  0  0  0  0
   -1.3848    7.1606    2.9450 H   0  0  0  0  0  0  0  0  0  0  0  0
   -2.0720    4.9302    2.1224 H   0  0  0  0  0  0  0  0  0  0  0  0
   -2.7802    5.2196   -0.6689 H   0  0  0  0  0  0  0  0  0  0  0  0
   -5.1969    5.1236   -1.1967 H   0  0  0  0  0  0  0  0  0  0  0  0
   -6.4315    3.0095   -0.9362 H   0  0  0  0  0  0  0  0  0  0  0  0
   -5.2740    0.9772   -0.1556 H   0  0  0  0  0  0  0  0  0  0  0  0
   -2.8441    1.0706    0.3720 H   0  0  0  0  0  0  0  0  0  0  0  0
    6.4933    3.0010    2.8532 H   0  0  0  0  0  0  0  0  0  0  0  0
    8.7724    2.0399    2.9633 H   0  0  0  0  0  0  0  0  0  0  0  0
    9.0744   -0.4004    3.0975 H   0  0  0  0  0  0  0  0  0  0  0  0
    7.1162   -1.8990    3.1074 H   0  0  0  0  0  0  0  0  0  0  0  0
    4.8244   -0.9287    2.9823 H   0  0  0  0  0  0  0  0  0  0  0  0
    4.9371    2.5895    5.2437 H   0  0  0  0  0  0  0  0  0  0  0  0
    4.6954    4.6821    6.5444 H   0  0  0  0  0  0  0  0  0  0  0  0
    3.4202    6.5728    5.6047 H   0  0  0  0  0  0  0  0  0  0  0  0
    2.3826    6.3804    3.3737 H   0  0  0  0  0  0  0  0  0  0  0  0
    2.6401    4.3058    2.0671 H   0  0  0  0  0  0  0  0  0  0  0  0
  1  8  1  0  0  0  0
  1  2  1  1  0  0  0
  3  1  1  0  0  0  0
  3  6  1  0  0  0  0
  4  5  1  0  0  0  0
  5 14  1  0  0  0  0
  6  8  1  0  0  0  0
  6 26  1  0  0  0  0
  6 32  1  0  0  0  0
  7  4  1  6  0  0  0
  7  5  1  0  0  0  0
  7  1  1  0  0  0  0
  9 14  2  0  0  0  0
  9 10  1  0  0  0  0
 10 11  2  0  0  0  0
 11 35  1  0  0  0  0
 11 12  1  0  0  0  0
 12 36  1  0  0  0  0
 13 37  1  0  0  0  0
 13 12  2  0  0  0  0
 14 13  1  0  0  0  0
 15 20  1  0  0  0  0
 16 17  1  0  0  0  0
 16 15  2  0  0  0  0
 17 18  2  0  0  0  0
 18 41  1  0  0  0  0
 18 19  1  0  0  0  0
 19 42  1  0  0  0  0
 20 19  2  0  0  0  0
 20  5  1  0  0  0  0
 21 26  2  0  0  0  0
 21 22  1  0  0  0  0
 22 23  2  0  0  0  0
 23 24  1  0  0  0  0
 23 45  1  0  0  0  0
 24 46  1  0  0  0  0
 25 24  2  0  0  0  0
 26 25  1  0  0  0  0
 27 48  1  0  0  0  0
 27 28  1  0  0  0  0
 28 49  1  0  0  0  0
 29 28  2  0  0  0  0
 29 50  1  0  0  0  0
 30 29  1  0  0  0  0
 31 32  1  0  0  0  0
 31 30  2  0  0  0  0
 32 27  2  0  0  0  0
 33  9  1  0  0  0  0
 34 10  1  0  0  0  0
 38 15  1  0  0  0  0
 39 16  1  0  0  0  0
 40 17  1  0  0  0  0
 43 21  1  0  0  0  0
 44 22  1  0  0  0  0
 47 25  1  0  0  0  0
 51 30  1  0  0  0  0
 52 31  1  0  0  0  0
M  END
$$$$
