CSD_code = GAGSEO | q = 1 | S = 0 | Stoichiometry = C20H24ClN4O2Os(1+) | MND = 9
 OpenBabel04212202043D

 52 55  0  0  1  0  0  0  0  0999 V2000
   -5.3152    5.8411    4.8233 Os  0  0  2  0  0  0  0  0  0  0  0  0
   -3.2569    4.8879    5.0777 Cl  0  0  0  0  0  0  0  0  0  0  0  0
   -8.2385    7.4320    2.4710 O   0  0  0  0  0  0  0  0  0  0  0  0
   -6.3590    9.4318    1.8496 O   0  0  0  0  0  0  0  0  0  0  0  0
   -5.4440    5.4349    2.8999 N   0  0  0  0  0  0  0  0  0  0  0  0
   -6.5724    5.3233    1.0077 N   0  0  0  0  0  0  0  0  0  0  0  0
   -4.5299    7.5895    4.3683 N   0  0  0  0  0  0  0  0  0  0  0  0
   -4.1085    9.6074    3.5380 N   0  0  0  0  0  0  0  0  0  0  0  0
   -6.3602    6.0430    2.1341 C   0  0  1  0  0  3  0  0  0  0  0  0
   -5.7355    4.2553    1.0494 C   0  0  0  0  0  0  0  0  0  0  0  0
   -5.6836    3.5398    0.2545 H   0  0  0  0  0  0  0  0  0  0  0  0
   -5.0497    4.3177    2.2305 C   0  0  0  0  0  0  0  0  0  0  0  0
   -4.3040    3.6568    2.6288 H   0  0  0  0  0  0  0  0  0  0  0  0
   -7.4554    5.6662   -0.0750 C   0  0  0  0  0  0  0  0  0  0  0  0
   -7.8826    4.7574   -0.4955 H   0  0  0  0  0  0  0  0  0  0  0  0
   -6.9114    6.1952   -0.8599 H   0  0  0  0  0  0  0  0  0  0  0  0
   -8.2570    6.3056    0.2895 H   0  0  0  0  0  0  0  0  0  0  0  0
   -7.0362    7.3051    2.4944 C   0  0  0  0  0  0  0  0  0  0  0  0
   -4.9530    8.5306    3.4887 C   0  0  2  0  0  3  0  0  0  0  0  0
   -3.1515    9.3324    4.4414 C   0  0  0  0  0  0  0  0  0  0  0  0
   -2.3571   10.0139    4.6691 H   0  0  0  0  0  0  0  0  0  0  0  0
   -3.4103    8.0866    4.9518 C   0  0  0  0  0  0  0  0  0  0  0  0
   -2.8421    7.5234    5.6667 H   0  0  0  0  0  0  0  0  0  0  0  0
   -4.1997   10.8212    2.7762 C   0  0  0  0  0  0  0  0  0  0  0  0
   -3.3886   11.4836    3.0706 H   0  0  0  0  0  0  0  0  0  0  0  0
   -5.1573   11.3120    2.9511 H   0  0  0  0  0  0  0  0  0  0  0  0
   -4.1297   10.6081    1.7093 H   0  0  0  0  0  0  0  0  0  0  0  0
   -6.1014    8.5137    2.6091 C   0  0  0  0  0  0  0  0  0  0  0  0
   -7.9036    4.8707    4.9375 C   0  0  0  0  0  0  0  0  0  0  0  0
   -8.0846    6.1213    5.5355 C   0  0  0  0  0  0  0  0  0  0  0  0
   -8.8674    6.7714    5.1721 H   0  0  0  0  0  0  0  0  0  0  0  0
   -7.3404    6.5004    6.6552 C   0  0  0  0  0  0  0  0  0  0  0  0
   -7.5751    7.4346    7.1476 H   0  0  0  0  0  0  0  0  0  0  0  0
   -6.3687    5.6579    7.2108 C   0  0  0  0  0  0  0  0  0  0  0  0
   -6.0899    4.4496    6.5295 C   0  0  1  0  0  0  0  0  0  0  0  0
   -5.3962    3.7363    6.9609 H   0  0  0  0  0  0  0  0  0  0  0  0
   -6.8556    4.0597    5.4125 C   0  0  0  0  0  3  0  0  0  0  0  0
   -6.7293    3.0615    5.0073 H   0  0  0  0  0  0  0  0  0  0  0  0
   -8.8275    4.3990    3.8622 C   0  0  0  0  0  0  0  0  0  0  0  0
   -9.7184    3.9683    4.3208 H   0  0  0  0  0  0  0  0  0  0  0  0
   -8.3644    3.6301    3.2474 H   0  0  0  0  0  0  0  0  0  0  0  0
   -9.1508    5.2278    3.2358 H   0  0  0  0  0  0  0  0  0  0  0  0
   -5.6750    6.0360    8.4985 C   0  0  0  0  0  0  0  0  0  0  0  0
   -6.3310    6.7309    9.0349 H   0  0  0  0  0  0  0  0  0  0  0  0
   -5.4094    4.8303    9.3994 C   0  0  0  0  0  0  0  0  0  0  0  0
   -5.0928    5.1753   10.3798 H   0  0  0  0  0  0  0  0  0  0  0  0
   -4.6177    4.2032    8.9976 H   0  0  0  0  0  0  0  0  0  0  0  0
   -6.3093    4.2322    9.5237 H   0  0  0  0  0  0  0  0  0  0  0  0
   -4.3628    6.7609    8.1758 C   0  0  0  0  0  0  0  0  0  0  0  0
   -3.8538    7.0365    9.0955 H   0  0  0  0  0  0  0  0  0  0  0  0
   -4.5556    7.6701    7.6059 H   0  0  0  0  0  0  0  0  0  0  0  0
   -3.7064    6.1062    7.6027 H   0  0  0  0  0  0  0  0  0  0  0  0
  1  2  1  1  0  0  0
  1 35  1  0  0  0  0
  3 18  2  0  0  0  0
  4 28  2  0  0  0  0
  5  1  1  0  0  0  0
  6 10  1  0  0  0  0
  6  9  1  0  0  0  0
  7  1  1  0  0  0  0
  7 22  1  0  0  0  0
  8 20  1  0  0  0  0
  9 18  1  1  0  0  0
  9  5  1  0  0  0  0
 10 12  2  0  0  0  0
 11 10  1  0  0  0  0
 12 13  1  0  0  0  0
 12  5  1  0  0  0  0
 14 17  1  0  0  0  0
 14  6  1  0  0  0  0
 15 14  1  0  0  0  0
 16 14  1  0  0  0  0
 18 28  1  0  0  0  0
 19 28  1  1  0  0  0
 19  8  1  0  0  0  0
 19  7  1  0  0  0  0
 20 21  1  0  0  0  0
 20 22  2  0  0  0  0
 22 23  1  0  0  0  0
 24 26  1  0  0  0  0
 24 25  1  0  0  0  0
 24  8  1  0  0  0  0
 27 24  1  0  0  0  0
 29 37  1  0  0  0  0
 29 30  2  0  0  0  0
 30 32  1  0  0  0  0
 31 30  1  0  0  0  0
 32 33  1  0  0  0  0
 32 34  2  0  0  0  0
 34 43  1  0  0  0  0
 35 36  1  1  0  0  0
 35 34  1  0  0  0  0
 37 35  1  0  0  0  0
 38 37  1  0  0  0  0
 39 40  1  0  0  0  0
 39 29  1  0  0  0  0
 41 39  1  0  0  0  0
 42 39  1  0  0  0  0
 43 44  1  0  0  0  0
 43 45  1  0  0  0  0
 45 48  1  0  0  0  0
 45 46  1  0  0  0  0
 47 45  1  0  0  0  0
 49 43  1  0  0  0  0
 49 50  1  0  0  0  0
 51 49  1  0  0  0  0
 52 49  1  0  0  0  0
M  END
$$$$
