CSD_code = GAGWUJ | q = 0 | S = 0 | Stoichiometry = C22H18Cl2N6O2Zn | MND = 4
 OpenBabel04212202043D

 51 54  0  0  0  0  0  0  0  0999 V2000
    4.9777   -0.8060    3.4572 Zn  0  0  0  0  0  0  0  0  0  0  0  0
    5.5323   -1.6158    1.4743 Cl  0  0  0  0  0  0  0  0  0  0  0  0
   -0.1096    2.9783   -0.0679 O   0  0  0  0  0  0  0  0  0  0  0  0
   -2.2579    4.0759    2.5099 N   0  0  0  0  0  0  0  0  0  0  0  0
   -0.0630    2.7230    2.2146 N   0  0  0  0  0  0  0  0  0  0  0  0
   -0.6237    2.9931    3.0209 H   0  0  0  0  0  0  0  0  0  0  0  0
    3.3598    0.4998    3.0173 N   0  0  0  0  0  0  0  0  0  0  0  0
   -3.3754    4.7390    2.7346 C   0  0  0  0  0  0  0  0  0  0  0  0
   -3.6536    4.8454    3.7749 H   0  0  0  0  0  0  0  0  0  0  0  0
   -4.1588    5.2748    1.7202 C   0  0  0  0  0  0  0  0  0  0  0  0
   -5.0650    5.8099    1.9562 H   0  0  0  0  0  0  0  0  0  0  0  0
   -3.7472    5.1047    0.4077 C   0  0  0  0  0  0  0  0  0  0  0  0
   -4.3293    5.5053   -0.4088 H   0  0  0  0  0  0  0  0  0  0  0  0
   -2.5730    4.4112    0.1622 C   0  0  0  0  0  0  0  0  0  0  0  0
   -2.1973    4.2438   -0.8347 H   0  0  0  0  0  0  0  0  0  0  0  0
   -1.8615    3.9145    1.2482 C   0  0  0  0  0  0  0  0  0  0  0  0
   -0.5877    3.1589    1.0293 C   0  0  0  0  0  0  0  0  0  0  0  0
    1.0792    1.9889    2.4423 C   0  0  0  0  0  0  0  0  0  0  0  0
    1.4216    1.6610    3.7590 C   0  0  0  0  0  0  0  0  0  0  0  0
    0.7989    1.9785    4.5812 H   0  0  0  0  0  0  0  0  0  0  0  0
    2.5586    0.9201    3.9938 C   0  0  0  0  0  3  0  0  0  0  0  0
    2.8465    0.6335    4.9952 H   0  0  0  0  0  0  0  0  0  0  0  0
    1.9240    1.5422    1.4228 C   0  0  0  0  0  0  0  0  0  0  0  0
    1.7010    1.7631    0.3928 H   0  0  0  0  0  0  0  0  0  0  0  0
    3.0408    0.8069    1.7622 C   0  0  0  0  0  0  0  0  0  0  0  0
    3.7119    0.4312    1.0028 H   0  0  0  0  0  0  0  0  0  0  0  0
    4.4221   -1.6153    5.4400 Cl  0  0  0  0  0  0  0  0  0  0  0  0
   10.0664    2.9766    6.9823 O   0  0  0  0  0  0  0  0  0  0  0  0
   12.2140    4.0753    4.4045 N   0  0  0  0  0  0  0  0  0  0  0  0
   10.0200    2.7210    4.6999 N   0  0  0  0  0  0  0  0  0  0  0  0
   10.5806    2.9913    3.8936 H   0  0  0  0  0  0  0  0  0  0  0  0
    6.5971    0.4978    3.8973 N   0  0  0  0  0  0  0  0  0  0  0  0
   13.3308    4.7398    4.1797 C   0  0  0  0  0  0  0  0  0  0  0  0
   13.6093    4.8456    3.1394 H   0  0  0  0  0  0  0  0  0  0  0  0
   14.1136    5.2764    5.1940 C   0  0  0  0  0  0  0  0  0  0  0  0
   15.0193    5.8123    4.9580 H   0  0  0  0  0  0  0  0  0  0  0  0
   13.7021    5.1061    6.5065 C   0  0  0  0  0  0  0  0  0  0  0  0
   14.2836    5.5078    7.3230 H   0  0  0  0  0  0  0  0  0  0  0  0
   12.5286    4.4114    6.7521 C   0  0  0  0  0  0  0  0  0  0  0  0
   12.1528    4.2443    7.7490 H   0  0  0  0  0  0  0  0  0  0  0  0
   11.8178    3.9137    5.6662 C   0  0  0  0  0  0  0  0  0  0  0  0
   10.5442    3.1578    5.8851 C   0  0  0  0  0  0  0  0  0  0  0  0
    8.8780    1.9865    4.4723 C   0  0  0  0  0  0  0  0  0  0  0  0
    8.5356    1.6586    3.1556 C   0  0  0  0  0  0  0  0  0  0  0  0
    9.1582    1.9760    2.3333 H   0  0  0  0  0  0  0  0  0  0  0  0
    7.3985    0.9179    2.9208 C   0  0  0  0  0  3  0  0  0  0  0  0
    7.1105    0.6313    1.9194 H   0  0  0  0  0  0  0  0  0  0  0  0
    8.0332    1.5398    5.4918 C   0  0  0  0  0  0  0  0  0  0  0  0
    8.2562    1.7608    6.5217 H   0  0  0  0  0  0  0  0  0  0  0  0
    6.9163    0.8047    5.1523 C   0  0  0  0  0  0  0  0  0  0  0  0
    6.2450    0.4294    5.9117 H   0  0  0  0  0  0  0  0  0  0  0  0
  1 32  1  0  0  0  0
  1 27  1  0  0  0  0
  2  1  1  0  0  0  0
  3 17  2  0  0  0  0
  4  8  1  0  0  0  0
  5 18  1  0  0  0  0
  5  6  1  0  0  0  0
  7  1  1  0  0  0  0
  7 21  1  0  0  0  0
  8  9  1  0  0  0  0
 10 11  1  0  0  0  0
 10  8  2  0  0  0  0
 12 10  1  0  0  0  0
 13 12  1  0  0  0  0
 14 12  2  0  0  0  0
 14 16  1  0  0  0  0
 15 14  1  0  0  0  0
 16  4  2  0  0  0  0
 17 16  1  0  0  0  0
 17  5  1  0  0  0  0
 18 19  2  0  0  0  0
 19 21  1  0  0  0  0
 19 20  1  0  0  0  0
 21 22  1  0  0  0  0
 23 25  2  0  0  0  0
 23 18  1  0  0  0  0
 24 23  1  0  0  0  0
 25  7  1  0  0  0  0
 26 25  1  0  0  0  0
 29 41  1  0  0  0  0
 30 42  1  0  0  0  0
 31 30  1  0  0  0  0
 32 50  1  0  0  0  0
 33 29  2  0  0  0  0
 33 35  1  0  0  0  0
 34 33  1  0  0  0  0
 35 37  2  0  0  0  0
 36 35  1  0  0  0  0
 37 39  1  0  0  0  0
 37 38  1  0  0  0  0
 39 40  1  0  0  0  0
 41 42  1  0  0  0  0
 41 39  2  0  0  0  0
 42 28  2  0  0  0  0
 43 30  1  0  0  0  0
 43 48  1  0  0  0  0
 44 43  2  0  0  0  0
 45 44  1  0  0  0  0
 46 44  1  0  0  0  0
 46 32  1  0  0  0  0
 47 46  1  0  0  0  0
 48 49  1  0  0  0  0
 50 48  2  0  0  0  0
 50 51  1  0  0  0  0
M  END
$$$$
