CSD_code = GAHCOH | q = 0 | S = 0 | Stoichiometry = C16H24Cl2P2Zr | MND = 12
 OpenBabel04212202043D

 45 46  0  0  1  0  0  0  0  0999 V2000
   -0.3699   -1.9336   -4.6461 Zr  0  0  0  0  0  0  0  0  0  0  0  0
   -1.8244   -0.5760   -3.3925 Cl  0  0  0  0  0  0  0  0  0  0  0  0
   -1.9052   -3.7138   -4.5981 Cl  0  0  0  0  0  0  0  0  0  0  0  0
    2.2568   -1.7324   -4.0566 P   0  0  0  0  0  0  0  0  0  0  0  0
    0.9605   -1.6231   -6.9783 P   0  0  0  0  0  0  0  0  0  0  0  0
    1.1931   -1.3314   -2.6904 C   0  0  0  0  0  0  0  0  0  0  0  0
    0.4443   -2.4339   -2.2446 C   0  0  0  0  0  0  0  0  0  0  0  0
    0.6743   -3.6043   -3.0202 C   0  0  0  0  0  0  0  0  0  0  0  0
    1.5481   -3.3727   -4.0977 C   0  0  1  0  0  0  0  0  0  0  0  0
    1.9462   -4.4257   -5.0981 C   0  0  0  0  0  0  0  0  0  0  0  0
    0.1506   -4.9612   -2.6426 C   0  0  0  0  0  0  0  0  0  0  0  0
   -0.4749   -2.4201   -1.0560 C   0  0  0  0  0  0  0  0  0  0  0  0
    1.2161    0.0201   -2.0275 C   0  0  0  0  0  0  0  0  0  0  0  0
   -0.6533   -2.3416   -7.1717 C   0  0  0  0  0  0  0  0  0  0  0  0
   -1.6867   -1.4619   -6.8062 C   0  0  0  0  0  0  0  0  0  0  0  0
   -1.2007   -0.2111   -6.3310 C   0  0  0  0  0  0  0  0  0  0  0  0
    0.2033   -0.1682   -6.2685 C   0  0  1  0  0  0  0  0  0  0  0  0
    0.9839    1.0288   -5.7943 C   0  0  0  0  0  0  0  0  0  0  0  0
   -2.0813    0.9767   -6.0625 C   0  0  0  0  0  0  0  0  0  0  0  0
   -3.1530   -1.7690   -6.9276 C   0  0  0  0  0  0  0  0  0  0  0  0
   -0.8523   -3.7001   -7.7889 C   0  0  0  0  0  0  0  0  0  0  0  0
    1.0588   -4.8625   -5.5715 H   0  0  0  0  0  0  0  0  0  0  0  0
    2.5046   -5.2320   -4.6184 H   0  0  0  0  0  0  0  0  0  0  0  0
    2.5805   -3.9910   -5.8728 H   0  0  0  0  0  0  0  0  0  0  0  0
   -0.8383   -4.8927   -2.1930 H   0  0  0  0  0  0  0  0  0  0  0  0
    0.0881   -5.6169   -3.5093 H   0  0  0  0  0  0  0  0  0  0  0  0
    0.8247   -5.4186   -1.9142 H   0  0  0  0  0  0  0  0  0  0  0  0
   -0.5639   -1.4179   -0.6442 H   0  0  0  0  0  0  0  0  0  0  0  0
   -1.4736   -2.7619   -1.3411 H   0  0  0  0  0  0  0  0  0  0  0  0
   -0.0976   -3.0854   -0.2777 H   0  0  0  0  0  0  0  0  0  0  0  0
    1.5226   -0.0684   -0.9839 H   0  0  0  0  0  0  0  0  0  0  0  0
    0.2296    0.4905   -2.0513 H   0  0  0  0  0  0  0  0  0  0  0  0
    1.9299    0.6711   -2.5334 H   0  0  0  0  0  0  0  0  0  0  0  0
    2.0505    0.7995   -5.7670 H   0  0  0  0  0  0  0  0  0  0  0  0
    0.8389    1.8796   -6.4630 H   0  0  0  0  0  0  0  0  0  0  0  0
    0.6606    1.3289   -4.7910 H   0  0  0  0  0  0  0  0  0  0  0  0
   -1.6453    1.6307   -5.3088 H   0  0  0  0  0  0  0  0  0  0  0  0
   -3.0670    0.6691   -5.7195 H   0  0  0  0  0  0  0  0  0  0  0  0
   -2.2036    1.5514   -6.9838 H   0  0  0  0  0  0  0  0  0  0  0  0
   -3.3096   -2.7978   -7.2425 H   0  0  0  0  0  0  0  0  0  0  0  0
   -3.6216   -1.1060   -7.6568 H   0  0  0  0  0  0  0  0  0  0  0  0
   -3.6533   -1.6264   -5.9654 H   0  0  0  0  0  0  0  0  0  0  0  0
    0.1145   -4.1466   -8.0245 H   0  0  0  0  0  0  0  0  0  0  0  0
   -1.3948   -4.3685   -7.1158 H   0  0  0  0  0  0  0  0  0  0  0  0
   -1.4212   -3.6202   -8.7167 H   0  0  0  0  0  0  0  0  0  0  0  0
  1  3  1  0  0  0  0
  1  9  1  0  0  0  0
  1  2  1  0  0  0  0
  4  6  2  0  0  0  0
  5 17  1  0  0  0  0
  6  7  1  0  0  0  0
  6 13  1  0  0  0  0
  7 12  1  0  0  0  0
  8 11  1  0  0  0  0
  8  7  2  0  0  0  0
  9 10  1  6  0  0  0
  9  4  1  0  0  0  0
  9  8  1  0  0  0  0
 10 23  1  0  0  0  0
 11 25  1  0  0  0  0
 11 27  1  0  0  0  0
 12 28  1  0  0  0  0
 12 30  1  0  0  0  0
 13 31  1  0  0  0  0
 14  5  2  0  0  0  0
 14 15  1  0  0  0  0
 15 16  2  0  0  0  0
 16 17  1  0  0  0  0
 16 19  1  0  0  0  0
 17 18  1  1  0  0  0
 17  1  1  0  0  0  0
 18 34  1  0  0  0  0
 18 36  1  0  0  0  0
 19 38  1  0  0  0  0
 19 37  1  0  0  0  0
 20 15  1  0  0  0  0
 20 42  1  0  0  0  0
 21 14  1  0  0  0  0
 21 44  1  0  0  0  0
 22 10  1  0  0  0  0
 24 10  1  0  0  0  0
 26 11  1  0  0  0  0
 29 12  1  0  0  0  0
 32 13  1  0  0  0  0
 33 13  1  0  0  0  0
 35 18  1  0  0  0  0
 39 19  1  0  0  0  0
 40 20  1  0  0  0  0
 41 20  1  0  0  0  0
 43 21  1  0  0  0  0
 45 21  1  0  0  0  0
M  END
$$$$
