CSD_code = GAJFON | q = 0 | S = 0 | Stoichiometry = C12H26CdCl2N4 | MND = 6
 OpenBabel04212202043D

 45 49  0  0  1  0  0  0  0  0999 V2000
   16.0983   -1.8988    6.9629 Cd  0  0  0  0  0  0  0  0  0  0  0  0
   16.8583   -0.0369    8.2753 Cl  0  0  0  0  0  0  0  0  0  0  0  0
   18.0441   -3.0147    6.1055 Cl  0  0  0  0  0  0  0  0  0  0  0  0
   14.6747   -3.5814    5.9673 N   0  0  1  0  0  4  0  0  0  0  0  0
   15.5178   -3.0768    8.8451 N   0  0  2  0  0  4  0  0  0  0  0  0
   16.1838   -2.5847    9.4426 H   0  0  0  0  0  0  0  0  0  0  0  0
   13.8000   -1.2427    7.3339 N   0  0  2  0  0  4  0  0  0  0  0  0
   15.6113   -1.0148    4.9015 N   0  0  2  0  0  4  0  0  0  0  0  0
   16.5790   -1.0555    4.5775 H   0  0  0  0  0  0  0  0  0  0  0  0
   15.2026   -4.8953    6.3661 C   0  0  0  0  0  0  0  0  0  0  0  0
   16.2734   -4.8688    6.1510 H   0  0  0  0  0  0  0  0  0  0  0  0
   14.7408   -5.6799    5.7427 H   0  0  0  0  0  0  0  0  0  0  0  0
   15.0437   -5.3132    7.8297 C   0  0  0  0  0  0  0  0  0  0  0  0
   15.4086   -6.3412    7.8919 H   0  0  0  0  0  0  0  0  0  0  0  0
   13.9941   -5.3455    8.1278 H   0  0  0  0  0  0  0  0  0  0  0  0
   15.8558   -4.4967    8.8386 C   0  0  0  0  0  0  0  0  0  0  0  0
   15.7134   -4.9448    9.8372 H   0  0  0  0  0  0  0  0  0  0  0  0
   16.9143   -4.5736    8.5717 H   0  0  0  0  0  0  0  0  0  0  0  0
   14.1713   -2.7481    9.2959 C   0  0  0  0  0  0  0  0  0  0  0  0
   14.0930   -2.7559   10.3943 H   0  0  0  0  0  0  0  0  0  0  0  0
   13.4738   -3.4903    8.9102 H   0  0  0  0  0  0  0  0  0  0  0  0
   13.7777   -1.3596    8.7935 C   0  0  0  0  0  0  0  0  0  0  0  0
   12.7797   -1.1058    9.1886 H   0  0  0  0  0  0  0  0  0  0  0  0
   14.5034   -0.6439    9.1869 H   0  0  0  0  0  0  0  0  0  0  0  0
   12.7687   -2.0555    6.6984 C   0  0  0  0  0  0  0  0  0  0  0  0
   12.3647   -1.5016    5.8523 H   0  0  0  0  0  0  0  0  0  0  0  0
   11.9280   -2.2159    7.3903 H   0  0  0  0  0  0  0  0  0  0  0  0
   13.2389   -3.4493    6.1886 C   0  0  0  0  0  0  0  0  0  0  0  0
   12.9306   -4.1998    6.9151 H   0  0  0  0  0  0  0  0  0  0  0  0
   12.6873   -3.6730    5.2630 H   0  0  0  0  0  0  0  0  0  0  0  0
   15.1735    0.3776    4.8915 C   0  0  0  0  0  0  0  0  0  0  0  0
   15.1375    0.7764    3.8629 H   0  0  0  0  0  0  0  0  0  0  0  0
   15.9124    0.9507    5.4599 H   0  0  0  0  0  0  0  0  0  0  0  0
   13.8001    0.5909    5.5335 C   0  0  0  0  0  0  0  0  0  0  0  0
   13.0233    0.1191    4.9289 H   0  0  0  0  0  0  0  0  0  0  0  0
   13.6013    1.6647    5.4992 H   0  0  0  0  0  0  0  0  0  0  0  0
   13.6930    0.1873    7.0058 C   0  0  0  0  0  0  0  0  0  0  0  0
   14.5095    0.6813    7.5376 H   0  0  0  0  0  0  0  0  0  0  0  0
   12.7369    0.5808    7.3914 H   0  0  0  0  0  0  0  0  0  0  0  0
   15.0418   -3.3694    4.5657 C   0  0  0  0  0  0  0  0  0  0  0  0
   14.4786   -4.0533    3.9085 H   0  0  0  0  0  0  0  0  0  0  0  0
   16.1075   -3.5914    4.4725 H   0  0  0  0  0  0  0  0  0  0  0  0
   14.8207   -1.9334    4.0918 C   0  0  0  0  0  0  0  0  0  0  0  0
   15.0880   -1.8741    3.0252 H   0  0  0  0  0  0  0  0  0  0  0  0
   13.7668   -1.6740    4.1827 H   0  0  0  0  0  0  0  0  0  0  0  0
  1  7  1  0  0  0  0
  1  2  1  0  0  0  0
  1  5  1  0  0  0  0
  3  1  1  0  0  0  0
  4 40  1  6  0  0  0
  4 28  1  0  0  0  0
  4 10  1  0  0  0  0
  4  1  1  0  0  0  0
  5 19  1  0  0  0  0
  5  6  1  1  0  0  0
  7 25  1  6  0  0  0
  7 22  1  0  0  0  0
  8  9  1  6  0  0  0
  8  1  1  0  0  0  0
 10 13  1  0  0  0  0
 11 10  1  0  0  0  0
 12 10  1  0  0  0  0
 13 14  1  0  0  0  0
 13 15  1  0  0  0  0
 13 16  1  0  0  0  0
 16  5  1  0  0  0  0
 16 17  1  0  0  0  0
 18 16  1  0  0  0  0
 19 20  1  0  0  0  0
 21 19  1  0  0  0  0
 22 24  1  0  0  0  0
 22 23  1  0  0  0  0
 22 19  1  0  0  0  0
 25 27  1  0  0  0  0
 26 25  1  0  0  0  0
 28 25  1  0  0  0  0
 28 29  1  0  0  0  0
 30 28  1  0  0  0  0
 31  8  1  0  0  0  0
 31 33  1  0  0  0  0
 31 34  1  0  0  0  0
 32 31  1  0  0  0  0
 34 37  1  0  0  0  0
 35 34  1  0  0  0  0
 36 34  1  0  0  0  0
 37  7  1  0  0  0  0
 37 39  1  0  0  0  0
 37 38  1  0  0  0  0
 41 40  1  0  0  0  0
 42 40  1  0  0  0  0
 43 45  1  0  0  0  0
 43 40  1  0  0  0  0
 43  8  1  0  0  0  0
 44 43  1  0  0  0  0
M  END
$$$$
