CSD_code = GAJGEE | q = 0 | S = 0 | Stoichiometry = C10H22Cl2HgN4 | MND = 6
 OpenBabel04212202043D

 39 39  0  0  1  0  0  0  0  0999 V2000
    2.3984    3.4064    1.4142 Hg  0  0  0  0  0  0  0  0  0  0  0  0
    2.2194    3.9012   -0.8348 Cl  0  0  0  0  0  0  0  0  0  0  0  0
    2.5591    1.1732    1.9821 Cl  0  0  0  0  0  0  0  0  0  0  0  0
    2.3525    4.1478    4.0229 N   0  0  2  0  0  0  0  0  0  0  0  0
    0.1419    4.2848    2.3200 N   0  0  0  0  0  0  0  0  0  0  0  0
    2.4809    6.0375    2.0674 N   0  0  1  0  0  0  0  0  0  0  0  0
    4.6737    4.3144    2.2366 N   0  0  0  0  0  0  0  0  0  0  0  0
    1.2065    3.3306    4.3886 C   0  0  0  0  0  0  0  0  0  0  0  0
    1.0252    3.3382    5.4759 H   0  0  0  0  0  0  0  0  0  0  0  0
    1.4327    2.3067    4.0891 H   0  0  0  0  0  0  0  0  0  0  0  0
   -0.0913    3.7696    3.6712 C   0  0  0  0  0  0  0  0  0  0  0  0
   -0.7378    2.8908    3.6198 H   0  0  0  0  0  0  0  0  0  0  0  0
   -0.6171    4.5211    4.2733 H   0  0  0  0  0  0  0  0  0  0  0  0
    0.0180    5.7393    2.1690 C   0  0  0  0  0  0  0  0  0  0  0  0
   -0.0877    6.1951    3.1554 H   0  0  0  0  0  0  0  0  0  0  0  0
   -0.8806    5.9915    1.5947 H   0  0  0  0  0  0  0  0  0  0  0  0
    1.2115    6.3804    1.4482 C   0  0  0  0  0  0  0  0  0  0  0  0
    1.0507    7.4724    1.4336 H   0  0  0  0  0  0  0  0  0  0  0  0
    1.2302    6.0214    0.4181 H   0  0  0  0  0  0  0  0  0  0  0  0
    3.6216    6.3629    1.2260 C   0  0  0  0  0  0  0  0  0  0  0  0
    3.8154    7.4477    1.1966 H   0  0  0  0  0  0  0  0  0  0  0  0
    3.3800    6.0337    0.2148 H   0  0  0  0  0  0  0  0  0  0  0  0
    4.9162    5.6447    1.6730 C   0  0  0  0  0  0  0  0  0  0  0  0
    5.5506    5.5554    0.7885 H   0  0  0  0  0  0  0  0  0  0  0  0
    5.4589    6.2653    2.3970 H   0  0  0  0  0  0  0  0  0  0  0  0
    4.8125    4.2116    3.6940 C   0  0  0  0  0  0  0  0  0  0  0  0
    4.9338    5.2117    4.1146 H   0  0  0  0  0  0  0  0  0  0  0  0
    5.7079    3.6366    3.9556 H   0  0  0  0  0  0  0  0  0  0  0  0
    3.6190    3.5261    4.3723 C   0  0  0  0  0  0  0  0  0  0  0  0
    3.5849    2.4848    4.0486 H   0  0  0  0  0  0  0  0  0  0  0  0
    3.7922    3.5465    5.4623 H   0  0  0  0  0  0  0  0  0  0  0  0
    2.2435    5.5170    4.5031 C   0  0  0  0  0  0  0  0  0  0  0  0
    2.8882    5.6735    5.3794 H   0  0  0  0  0  0  0  0  0  0  0  0
    1.2200    5.6897    4.8331 H   0  0  0  0  0  0  0  0  0  0  0  0
    2.6108    6.5618    3.4186 C   0  0  0  0  0  0  0  0  0  0  0  0
    1.9778    7.4502    3.5527 H   0  0  0  0  0  0  0  0  0  0  0  0
    3.6398    6.8856    3.5688 H   0  0  0  0  0  0  0  0  0  0  0  0
   -0.4941    3.8332    1.6708 H   0  0  0  0  0  0  0  0  0  0  0  0
    5.2979    3.6432    1.8008 H   0  0  0  0  0  0  0  0  0  0  0  0
  1  3  1  0  0  0  0
  2  1  1  0  0  0  0
  4 29  1  1  0  0  0
  4  8  1  0  0  0  0
  4 32  1  0  0  0  0
  5 11  1  0  0  0  0
  6 20  1  6  0  0  0
  6 35  1  0  0  0  0
  7 26  1  0  0  0  0
  8  9  1  0  0  0  0
 10  8  1  0  0  0  0
 11 13  1  0  0  0  0
 11  8  1  0  0  0  0
 12 11  1  0  0  0  0
 14  5  1  0  0  0  0
 14 15  1  0  0  0  0
 16 14  1  0  0  0  0
 17  6  1  0  0  0  0
 17 14  1  0  0  0  0
 18 17  1  0  0  0  0
 19 17  1  0  0  0  0
 20 23  1  0  0  0  0
 21 20  1  0  0  0  0
 22 20  1  0  0  0  0
 23  7  1  0  0  0  0
 23 25  1  0  0  0  0
 24 23  1  0  0  0  0
 26 28  1  0  0  0  0
 26 27  1  0  0  0  0
 26 29  1  0  0  0  0
 29 31  1  0  0  0  0
 30 29  1  0  0  0  0
 32 34  1  0  0  0  0
 32 33  1  0  0  0  0
 35 36  1  0  0  0  0
 35 37  1  0  0  0  0
 35 32  1  0  0  0  0
 38  5  1  0  0  0  0
 39  7  1  0  0  0  0
M  END
$$$$
