CSD_code = GAJMIP | q = 0 | S = 0 | Stoichiometry = C28H26ClN2O2PPd | MND = 4
 OpenBabel04212202043D

 61 65  0  0  0  0  0  0  0  0999 V2000
    2.5954    0.7983   -0.2108 Pd  0  0  1  0  0  0  0  0  0  0  0  0
    1.4594    2.4229    0.8092 P   0  0  0  0  0  4  0  0  0  0  0  0
    3.7868   -1.0096   -0.9256 Cl  0  0  0  0  0  0  0  0  0  0  0  0
    1.6176    0.7979   -2.0155 C   0  0  0  0  0  0  0  0  0  0  0  0
    1.2605    1.7999   -2.2842 H   0  0  0  0  0  0  0  0  0  0  0  0
    0.7593    0.1172   -1.9278 H   0  0  0  0  0  0  0  0  0  0  0  0
    2.2736    0.4198   -2.8049 H   0  0  0  0  0  0  0  0  0  0  0  0
    3.5579    0.6771    1.8474 N   0  0  0  0  0  0  0  0  0  0  0  0
    0.7510    1.7244    2.3386 C   0  0  0  0  0  0  0  0  0  0  0  0
   -0.5749    1.9653    2.6832 C   0  0  0  0  0  0  0  0  0  0  0  0
   -1.1813    2.5970    2.0506 H   0  0  0  0  0  0  0  0  0  0  0  0
   -1.1332    1.4146    3.8237 C   0  0  0  0  0  0  0  0  0  0  0  0
   -2.1666    1.6138    4.0644 H   0  0  0  0  0  0  0  0  0  0  0  0
   -0.3631    0.6186    4.6550 C   0  0  0  0  0  0  0  0  0  0  0  0
   -0.7897    0.1882    5.5482 H   0  0  0  0  0  0  0  0  0  0  0  0
    0.9611    0.3865    4.3401 C   0  0  0  0  0  0  0  0  0  0  0  0
    1.5671   -0.2269    4.9919 H   0  0  0  0  0  0  0  0  0  0  0  0
    1.5360    0.9129    3.1810 C   0  0  0  0  0  0  0  0  0  0  0  0
    2.9449    0.6255    2.9590 C   0  0  0  0  0  3  0  0  0  0  0  0
    3.4929    0.3374    3.8651 H   0  0  0  0  0  0  0  0  0  0  0  0
    4.9720    0.4463    1.8217 C   0  0  0  0  0  0  0  0  0  0  0  0
    5.1741   -0.4356    1.1994 H   0  0  0  0  0  0  0  0  0  0  0  0
    5.3905    0.3100    2.8282 H   0  0  0  0  0  0  0  0  0  0  0  0
    5.6364    1.6754    1.1608 C   0  0  0  0  0  0  0  0  0  0  0  0
    5.3467    1.7323   -0.1529 N   0  0  0  0  0  0  0  0  0  0  0  0
    4.8167    0.9348   -0.5524 H   0  0  0  0  0  0  0  0  0  0  0  0
    6.2914    2.4666    1.8032 O   0  0  0  0  0  0  0  0  0  0  0  0
    5.6981    2.7206   -1.0794 C   0  0  0  0  0  0  0  0  0  0  0  0
    4.9765    2.7504   -2.2704 C   0  0  0  0  0  0  0  0  0  0  0  0
    4.1807    2.0255   -2.4244 H   0  0  0  0  0  0  0  0  0  0  0  0
    5.2601    3.6966   -3.2345 C   0  0  0  0  0  0  0  0  0  0  0  0
    4.6967    3.7160   -4.1581 H   0  0  0  0  0  0  0  0  0  0  0  0
    6.2723    4.6268   -3.0204 C   0  0  0  0  0  0  0  0  0  0  0  0
    6.5850    5.5810   -3.9415 O   0  0  0  0  0  0  0  0  0  0  0  0
    6.0310    5.4724   -4.7236 H   0  0  0  0  0  0  0  0  0  0  0  0
    6.9905    4.5975   -1.8293 C   0  0  0  0  0  0  0  0  0  0  0  0
    7.7719    5.3252   -1.6789 H   0  0  0  0  0  0  0  0  0  0  0  0
    6.7084    3.6519   -0.8633 C   0  0  0  0  0  0  0  0  0  0  0  0
    7.2594    3.6359    0.0620 H   0  0  0  0  0  0  0  0  0  0  0  0
    2.6090    3.7054    1.3841 C   0  0  0  0  0  0  0  0  0  0  0  0
    3.3492    4.3315    0.3832 C   0  0  0  0  0  0  0  0  0  0  0  0
    3.1683    4.0582   -0.6511 H   0  0  0  0  0  0  0  0  0  0  0  0
    4.3004    5.2777    0.7092 C   0  0  0  0  0  0  0  0  0  0  0  0
    4.8726    5.7573   -0.0702 H   0  0  0  0  0  0  0  0  0  0  0  0
    4.5322    5.5885    2.0398 C   0  0  0  0  0  0  0  0  0  0  0  0
    5.2907    6.3109    2.2996 H   0  0  0  0  0  0  0  0  0  0  0  0
    3.7999    4.9677    3.0372 C   0  0  0  0  0  0  0  0  0  0  0  0
    3.9846    5.2099    4.0734 H   0  0  0  0  0  0  0  0  0  0  0  0
    2.8341    4.0299    2.7156 C   0  0  0  0  0  0  0  0  0  0  0  0
    2.2615    3.5500    3.4979 H   0  0  0  0  0  0  0  0  0  0  0  0
    0.0720    3.3507    0.0893 C   0  0  0  0  0  0  0  0  0  0  0  0
   -0.9153    2.6032   -0.5519 C   0  0  0  0  0  0  0  0  0  0  0  0
   -0.8226    1.5237   -0.5727 H   0  0  0  0  0  0  0  0  0  0  0  0
   -1.9936    3.2342   -1.1411 C   0  0  0  0  0  0  0  0  0  0  0  0
   -2.7583    2.6524   -1.6340 H   0  0  0  0  0  0  0  0  0  0  0  0
   -2.0881    4.6174   -1.1033 C   0  0  0  0  0  0  0  0  0  0  0  0
   -2.9271    5.1132   -1.5683 H   0  0  0  0  0  0  0  0  0  0  0  0
   -1.1066    5.3637   -0.4728 C   0  0  0  0  0  0  0  0  0  0  0  0
   -1.1818    6.4408   -0.4445 H   0  0  0  0  0  0  0  0  0  0  0  0
   -0.0262    4.7362    0.1241 C   0  0  0  0  0  0  0  0  0  0  0  0
    0.7388    5.3197    0.6164 H   0  0  0  0  0  0  0  0  0  0  0  0
  1  3  1  1  0  0  0
  1  2  1  0  0  0  0
  1  8  1  0  0  0  0
  2 40  1  0  0  0  0
  2  9  1  0  0  0  0
  4  6  1  0  0  0  0
  4  1  1  0  0  0  0
  5  4  1  0  0  0  0
  7  4  1  0  0  0  0
  8 19  1  0  0  0  0
  9 10  2  0  0  0  0
  9 18  1  0  0  0  0
 10 12  1  0  0  0  0
 11 10  1  0  0  0  0
 12 13  1  0  0  0  0
 12 14  2  0  0  0  0
 14 15  1  0  0  0  0
 16 14  1  0  0  0  0
 16 17  1  0  0  0  0
 18 16  2  0  0  0  0
 19 18  1  0  0  0  0
 19 20  1  0  0  0  0
 21  8  1  0  0  0  0
 21 23  1  0  0  0  0
 22 21  1  0  0  0  0
 24 27  2  0  0  0  0
 24 21  1  0  0  0  0
 25 24  1  0  0  0  0
 26 25  1  0  0  0  0
 28 38  1  0  0  0  0
 28 25  1  0  0  0  0
 29 28  2  0  0  0  0
 30 29  1  0  0  0  0
 31 33  2  0  0  0  0
 31 29  1  0  0  0  0
 32 31  1  0  0  0  0
 33 36  1  0  0  0  0
 34 33  1  0  0  0  0
 35 34  1  0  0  0  0
 36 37  1  0  0  0  0
 36 38  2  0  0  0  0
 38 39  1  0  0  0  0
 40 49  1  0  0  0  0
 41 43  1  0  0  0  0
 41 40  2  0  0  0  0
 42 41  1  0  0  0  0
 43 45  2  0  0  0  0
 44 43  1  0  0  0  0
 45 46  1  0  0  0  0
 45 47  1  0  0  0  0
 47 48  1  0  0  0  0
 49 47  2  0  0  0  0
 49 50  1  0  0  0  0
 51 60  1  0  0  0  0
 51  2  1  0  0  0  0
 52 51  2  0  0  0  0
 53 52  1  0  0  0  0
 54 56  2  0  0  0  0
 54 52  1  0  0  0  0
 55 54  1  0  0  0  0
 56 58  1  0  0  0  0
 57 56  1  0  0  0  0
 58 59  1  0  0  0  0
 58 60  2  0  0  0  0
 60 61  1  0  0  0  0
M  END
$$$$
