CSD_code = GAJQIT | q = 0 | S = 0 | Stoichiometry = C16H20Cl2MoO4S2 | MND = 6
 OpenBabel04212202043D

 45 46  0  0  0  0  0  0  0  0999 V2000
    2.8266   -0.4397    6.6384 Mo  0  0  0  0  0  0  0  0  0  0  0  0
    1.1083   -0.3437    5.0852 Cl  0  0  0  0  0  0  0  0  0  0  0  0
    4.4782    0.5517    7.9993 Cl  0  0  0  0  0  0  0  0  0  0  0  0
    0.8165    0.9209    8.3207 S   0  0  2  0  0  3  0  0  0  0  0  0
    3.6177    2.4784    5.7183 S   0  0  1  0  0  3  0  0  0  0  0  0
    1.8846   -1.0484    7.8621 O   0  0  0  0  0  1  0  0  0  0  0  0
    3.7513   -1.6122    5.9781 O   0  0  0  0  0  1  0  0  0  0  0  0
    1.8238    1.3794    7.2803 O   0  0  0  0  0  0  0  0  0  0  0  0
    3.5784    1.0120    5.3838 O   0  0  0  0  0  0  0  0  0  0  0  0
    0.0354    2.5258    8.6873 C   0  0  0  0  0  0  0  0  0  0  0  0
    0.7036    3.7160    8.4586 C   0  0  0  0  0  0  0  0  0  0  0  0
    1.7102    3.6849    8.0657 H   0  0  0  0  0  0  0  0  0  0  0  0
    0.0777    4.9198    8.7248 C   0  0  0  0  0  0  0  0  0  0  0  0
    0.6012    5.8480    8.5462 H   0  0  0  0  0  0  0  0  0  0  0  0
   -1.2210    4.9520    9.2228 C   0  0  0  0  0  0  0  0  0  0  0  0
   -1.8819    3.7488    9.4438 C   0  0  0  0  0  0  0  0  0  0  0  0
   -2.8923    3.7582    9.8252 H   0  0  0  0  0  0  0  0  0  0  0  0
   -1.2614    2.5421    9.1731 C   0  0  0  0  0  0  0  0  0  0  0  0
   -1.7779    1.6080    9.3357 H   0  0  0  0  0  0  0  0  0  0  0  0
    4.9361    3.0656    4.6341 C   0  0  0  0  0  0  0  0  0  0  0  0
    5.4112    4.3598    4.7639 C   0  0  0  0  0  0  0  0  0  0  0  0
    4.9815    5.0203    5.5019 H   0  0  0  0  0  0  0  0  0  0  0  0
    6.4401    4.7906    3.9455 C   0  0  0  0  0  0  0  0  0  0  0  0
    6.8132    5.7994    4.0424 H   0  0  0  0  0  0  0  0  0  0  0  0
    7.0084    3.9358    3.0065 C   0  0  0  0  0  0  0  0  0  0  0  0
    6.5233    2.6356    2.9020 C   0  0  0  0  0  0  0  0  0  0  0  0
    6.9615    1.9595    2.1830 H   0  0  0  0  0  0  0  0  0  0  0  0
    5.4935    2.1973    3.7132 C   0  0  0  0  0  0  0  0  0  0  0  0
    5.1213    1.1844    3.6518 H   0  0  0  0  0  0  0  0  0  0  0  0
   -1.8832    6.2590    9.5307 C   0  0  0  0  0  0  0  0  0  0  0  0
   -2.9647    6.1534    9.5474 H   0  0  0  0  0  0  0  0  0  0  0  0
   -1.6120    7.0137    8.7960 H   0  0  0  0  0  0  0  0  0  0  0  0
   -1.5621    6.6152   10.5098 H   0  0  0  0  0  0  0  0  0  0  0  0
    8.1148    4.4029    2.1139 C   0  0  0  0  0  0  0  0  0  0  0  0
    8.8514    3.6161    1.9699 H   0  0  0  0  0  0  0  0  0  0  0  0
    8.6076    5.2787    2.5276 H   0  0  0  0  0  0  0  0  0  0  0  0
    7.7144    4.6677    1.1351 H   0  0  0  0  0  0  0  0  0  0  0  0
    1.7501    0.9063    9.8828 C   0  0  0  0  0  0  0  0  0  0  0  0
    2.2855   -0.0376    9.9324 H   0  0  0  0  0  0  0  0  0  0  0  0
    1.0424    0.9915   10.7000 H   0  0  0  0  0  0  0  0  0  0  0  0
    2.4455    1.7394    9.8716 H   0  0  0  0  0  0  0  0  0  0  0  0
    2.2419    3.1327    4.7078 C   0  0  0  0  0  0  0  0  0  0  0  0
    2.3453    2.7485    3.6987 H   0  0  0  0  0  0  0  0  0  0  0  0
    2.2695    4.2162    4.7220 H   0  0  0  0  0  0  0  0  0  0  0  0
    1.3236    2.7611    5.1555 H   0  0  0  0  0  0  0  0  0  0  0  0
  1  8  1  0  0  0  0
  1  6  1  0  0  0  0
  1  3  1  0  0  0  0
  2  1  1  0  0  0  0
  4  8  1  6  0  0  0
  4 10  1  0  0  0  0
  4 38  1  0  0  0  0
  5  9  1  6  0  0  0
  7  1  1  0  0  0  0
  9  1  1  0  0  0  0
 10 18  1  0  0  0  0
 11 10  2  0  0  0  0
 11 13  1  0  0  0  0
 12 11  1  0  0  0  0
 13 15  2  0  0  0  0
 14 13  1  0  0  0  0
 15 16  1  0  0  0  0
 15 30  1  0  0  0  0
 16 17  1  0  0  0  0
 18 19  1  0  0  0  0
 18 16  2  0  0  0  0
 20 21  1  0  0  0  0
 20  5  1  0  0  0  0
 21 22  1  0  0  0  0
 23 24  1  0  0  0  0
 23 21  2  0  0  0  0
 25 23  1  0  0  0  0
 26 25  2  0  0  0  0
 26 28  1  0  0  0  0
 27 26  1  0  0  0  0
 28 20  2  0  0  0  0
 29 28  1  0  0  0  0
 30 31  1  0  0  0  0
 30 33  1  0  0  0  0
 32 30  1  0  0  0  0
 34 36  1  0  0  0  0
 34 25  1  0  0  0  0
 35 34  1  0  0  0  0
 37 34  1  0  0  0  0
 38 39  1  0  0  0  0
 38 40  1  0  0  0  0
 41 38  1  0  0  0  0
 42 44  1  0  0  0  0
 42 45  1  0  0  0  0
 42  5  1  0  0  0  0
 43 42  1  0  0  0  0
M  END
$$$$
