CSD_code = GAJQOY | q = 0 | S = 0 | Stoichiometry = C25H29Cl2N3Pd | MND = 4
 OpenBabel04212202043D

 60 64  0  0  1  0  0  0  0  0999 V2000
    5.7217    2.7102    5.5764 Pd  0  0  0  0  0  0  0  0  0  0  0  0
    4.0990    1.1867    5.8055 Cl  0  0  0  0  0  0  0  0  0  0  0  0
    4.9287    3.4011    3.5490 Cl  0  0  0  0  0  0  0  0  0  0  0  0
    7.2041    4.0644    5.5898 N   0  0  0  0  0  0  0  0  0  0  0  0
    6.4358    3.5469    8.1851 N   0  0  0  0  0  0  0  0  0  0  0  0
    6.6938    1.4041    8.2389 N   0  0  0  0  0  0  0  0  0  0  0  0
    6.8888    5.1995    6.4224 C   0  0  1  0  0  0  0  0  0  0  0  0
    7.8143    5.6304    6.8435 H   0  0  0  0  0  0  0  0  0  0  0  0
    6.1580    6.2700    5.6015 C   0  0  0  0  0  0  0  0  0  0  0  0
    6.7975    6.5898    4.7765 H   0  0  0  0  0  0  0  0  0  0  0  0
    5.2598    5.8171    5.1668 H   0  0  0  0  0  0  0  0  0  0  0  0
    5.8014    7.4614    6.4863 C   0  0  0  0  0  0  0  0  0  0  0  0
    5.2392    8.1883    5.8991 H   0  0  0  0  0  0  0  0  0  0  0  0
    6.7208    7.9468    6.8250 H   0  0  0  0  0  0  0  0  0  0  0  0
    4.9788    7.0385    7.7022 C   0  0  0  0  0  0  0  0  0  0  0  0
    4.7906    7.9044    8.3384 H   0  0  0  0  0  0  0  0  0  0  0  0
    4.0141    6.6498    7.3703 H   0  0  0  0  0  0  0  0  0  0  0  0
    5.7111    5.9624    8.5057 C   0  0  0  0  0  0  0  0  0  0  0  0
    6.6513    6.3664    8.8836 H   0  0  0  0  0  0  0  0  0  0  0  0
    5.1086    5.6503    9.3608 H   0  0  0  0  0  0  0  0  0  0  0  0
    5.9538    4.7798    7.5806 C   0  0  2  0  0  0  0  0  0  0  0  0
    4.9734    4.5143    7.1240 H   0  0  0  0  0  0  0  0  0  0  0  0
    6.2874    2.4132    7.4641 C   0  0  0  0  0  0  0  0  0  0  0  0
    6.9615    3.2493    9.4241 C   0  0  0  0  0  0  0  0  0  0  0  0
    7.1060    1.8934    9.4476 C   0  0  0  0  0  0  0  0  0  0  0  0
    7.4840    1.2664   10.2292 H   0  0  0  0  0  0  0  0  0  0  0  0
    8.4067    3.9309    5.1705 C   0  0  0  0  0  3  0  0  0  0  0  0
    9.1519    4.6760    5.4749 H   0  0  0  0  0  0  0  0  0  0  0  0
    8.9334    2.8555    4.3606 C   0  0  0  0  0  0  0  0  0  0  0  0
   10.3235    2.7819    4.2018 C   0  0  0  0  0  0  0  0  0  0  0  0
   10.9518    3.5322    4.6617 H   0  0  0  0  0  0  0  0  0  0  0  0
   10.8994    1.7622    3.4723 C   0  0  0  0  0  0  0  0  0  0  0  0
   11.9731    1.7188    3.3627 H   0  0  0  0  0  0  0  0  0  0  0  0
   10.1003    0.7979    2.8772 C   0  0  0  0  0  0  0  0  0  0  0  0
   10.5505    0.0004    2.3054 H   0  0  0  0  0  0  0  0  0  0  0  0
    8.7216    0.8682    3.0103 C   0  0  0  0  0  0  0  0  0  0  0  0
    8.0955    0.1289    2.5342 H   0  0  0  0  0  0  0  0  0  0  0  0
    8.1363    1.8824    3.7438 C   0  0  0  0  0  0  0  0  0  0  0  0
    7.0455    1.9435    3.7971 H   0  0  0  0  0  0  0  0  0  0  0  0
    6.6515    0.0135    7.8474 C   0  0  0  0  0  0  0  0  0  0  0  0
    7.0431   -0.5828    8.6750 H   0  0  0  0  0  0  0  0  0  0  0  0
    5.6068   -0.2546    7.6578 H   0  0  0  0  0  0  0  0  0  0  0  0
    7.4559   -0.2322    6.5691 C   0  0  0  0  0  0  0  0  0  0  0  0
    7.3559   -1.2849    6.3042 H   0  0  0  0  0  0  0  0  0  0  0  0
    7.0062    0.3664    5.7605 H   0  0  0  0  0  0  0  0  0  0  0  0
    8.9277    0.1259    6.7321 C   0  0  0  0  0  0  0  0  0  0  0  0
    9.4699   -0.0762    5.8123 H   0  0  0  0  0  0  0  0  0  0  0  0
    9.3798   -0.4558    7.5337 H   0  0  0  0  0  0  0  0  0  0  0  0
    9.0438    1.1838    6.9629 H   0  0  0  0  0  0  0  0  0  0  0  0
    7.3542    4.2041   10.4624 C   0  0  0  0  0  0  0  0  0  0  0  0
    8.3428    5.1520   10.2102 C   0  0  0  0  0  0  0  0  0  0  0  0
    8.8120    5.1867    9.2366 H   0  0  0  0  0  0  0  0  0  0  0  0
    8.7402    6.0266   11.2044 C   0  0  0  0  0  0  0  0  0  0  0  0
    9.5080    6.7584   11.0010 H   0  0  0  0  0  0  0  0  0  0  0  0
    8.1594    5.9604   12.4602 C   0  0  0  0  0  0  0  0  0  0  0  0
    8.4694    6.6452   13.2348 H   0  0  0  0  0  0  0  0  0  0  0  0
    7.1876    5.0094   12.7222 C   0  0  0  0  0  0  0  0  0  0  0  0
    6.7394    4.9507   13.7026 H   0  0  0  0  0  0  0  0  0  0  0  0
    6.7880    4.1315   11.7307 C   0  0  0  0  0  0  0  0  0  0  0  0
    6.0290    3.3897   11.9300 H   0  0  0  0  0  0  0  0  0  0  0  0
  1  4  1  0  0  0  0
  1  2  1  0  0  0  0
  1 23  2  0  0  0  0
  3  1  1  0  0  0  0
  4  7  1  0  0  0  0
  5 24  1  0  0  0  0
  6 25  1  0  0  0  0
  7  8  1  1  0  0  0
  7 21  1  0  0  0  0
  9  7  1  0  0  0  0
  9 12  1  0  0  0  0
 10  9  1  0  0  0  0
 11  9  1  0  0  0  0
 12 14  1  0  0  0  0
 12 15  1  0  0  0  0
 13 12  1  0  0  0  0
 15 16  1  0  0  0  0
 15 18  1  0  0  0  0
 17 15  1  0  0  0  0
 18 19  1  0  0  0  0
 18 20  1  0  0  0  0
 21 22  1  6  0  0  0
 21  5  1  0  0  0  0
 21 18  1  0  0  0  0
 23  5  1  0  0  0  0
 23  6  1  0  0  0  0
 24 25  2  0  0  0  0
 24 50  1  0  0  0  0
 25 26  1  0  0  0  0
 27 28  1  0  0  0  0
 27  4  1  0  0  0  0
 29 27  1  0  0  0  0
 30 29  1  0  0  0  0
 30 31  1  0  0  0  0
 32 30  2  0  0  0  0
 33 32  1  0  0  0  0
 34 36  2  0  0  0  0
 34 32  1  0  0  0  0
 35 34  1  0  0  0  0
 36 38  1  0  0  0  0
 37 36  1  0  0  0  0
 38 39  1  0  0  0  0
 38 29  2  0  0  0  0
 40  6  1  0  0  0  0
 40 41  1  0  0  0  0
 42 40  1  0  0  0  0
 43 46  1  0  0  0  0
 43 40  1  0  0  0  0
 44 43  1  0  0  0  0
 45 43  1  0  0  0  0
 46 49  1  0  0  0  0
 46 48  1  0  0  0  0
 47 46  1  0  0  0  0
 50 59  1  0  0  0  0
 51 50  2  0  0  0  0
 51 53  1  0  0  0  0
 52 51  1  0  0  0  0
 53 55  2  0  0  0  0
 54 53  1  0  0  0  0
 55 57  1  0  0  0  0
 55 56  1  0  0  0  0
 57 58  1  0  0  0  0
 59 60  1  0  0  0  0
 59 57  2  0  0  0  0
M  END
$$$$
