CSD_code = GAKJEK | q = 1 | S = 0 | Stoichiometry = C24H28Cl2N4Rh(1+) | MND = 6
 OpenBabel04212202043D

 59 62  0  0  0  0  0  0  0  0999 V2000
    0.9435   12.7262    5.4227 Rh  0  0  0  0  0  0  0  0  0  0  0  0
   -0.3476   10.8081    5.0860 Cl  0  0  0  0  0  0  0  0  0  0  0  0
    2.2353   14.6434    5.7636 Cl  0  0  0  0  0  0  0  0  0  0  0  0
    0.2717   13.4894    3.6648 N   0  0  0  0  0  0  0  0  0  0  0  0
    2.4948   11.8531    4.4472 N   0  0  0  0  0  0  0  0  0  0  0  0
    1.6140   11.9637    7.1803 N   0  0  0  0  0  0  0  0  0  0  0  0
   -0.6112   13.6023    6.3908 N   0  0  0  0  0  0  0  0  0  0  0  0
   -1.0066   13.3587    3.2980 C   0  0  0  0  0  3  0  0  0  0  0  0
   -1.6589   12.8105    3.9647 H   0  0  0  0  0  0  0  0  0  0  0  0
   -1.4996   13.8629    2.1111 C   0  0  0  0  0  0  0  0  0  0  0  0
   -2.5408   13.7194    1.8687 H   0  0  0  0  0  0  0  0  0  0  0  0
   -0.6567   14.5449    1.2382 C   0  0  0  0  0  0  0  0  0  0  0  0
    0.6728   14.6749    1.6344 C   0  0  0  0  0  0  0  0  0  0  0  0
    1.3820   15.1933    1.0085 H   0  0  0  0  0  0  0  0  0  0  0  0
    1.0932   14.1408    2.8348 C   0  0  0  0  0  0  0  0  0  0  0  0
    2.1215   14.2591    3.1492 H   0  0  0  0  0  0  0  0  0  0  0  0
   -1.1464   15.1228   -0.0422 C   0  0  0  0  0  0  0  0  0  0  0  0
   -0.4139   14.9842   -0.8339 H   0  0  0  0  0  0  0  0  0  0  0  0
   -1.3007   16.1954    0.0776 H   0  0  0  0  0  0  0  0  0  0  0  0
   -2.0901   14.6750   -0.3406 H   0  0  0  0  0  0  0  0  0  0  0  0
    2.2962   11.1352    3.3376 C   0  0  0  0  0  3  0  0  0  0  0  0
    1.2746   11.0145    3.0029 H   0  0  0  0  0  0  0  0  0  0  0  0
    3.3260   10.5377    2.6389 C   0  0  0  0  0  0  0  0  0  0  0  0
    3.1009    9.9686    1.7508 H   0  0  0  0  0  0  0  0  0  0  0  0
    4.6395   10.6714    3.0802 C   0  0  0  0  0  0  0  0  0  0  0  0
    4.8312   11.4208    4.2391 C   0  0  0  0  0  0  0  0  0  0  0  0
    5.8227   11.5685    4.6374 H   0  0  0  0  0  0  0  0  0  0  0  0
    3.7512   11.9856    4.8854 C   0  0  0  0  0  0  0  0  0  0  0  0
    3.9045   12.5848    5.7730 H   0  0  0  0  0  0  0  0  0  0  0  0
    5.7798   10.0353    2.3675 C   0  0  0  0  0  0  0  0  0  0  0  0
    6.6490   10.6886    2.3678 H   0  0  0  0  0  0  0  0  0  0  0  0
    5.5143    9.7867    1.3438 H   0  0  0  0  0  0  0  0  0  0  0  0
    6.0606    9.1140    2.8784 H   0  0  0  0  0  0  0  0  0  0  0  0
    1.9417   10.6731    7.2940 C   0  0  0  0  0  3  0  0  0  0  0  0
    1.8156   10.0518    6.4174 H   0  0  0  0  0  0  0  0  0  0  0  0
    2.3993   10.1185    8.4725 C   0  0  0  0  0  0  0  0  0  0  0  0
    2.6445    9.0685    8.5015 H   0  0  0  0  0  0  0  0  0  0  0  0
    2.5402   10.9102    9.6087 C   0  0  0  0  0  0  0  0  0  0  0  0
    2.1962   12.2538    9.4750 C   0  0  0  0  0  0  0  0  0  0  0  0
    2.2845   12.9271   10.3130 H   0  0  0  0  0  0  0  0  0  0  0  0
    1.7426   12.7356    8.2646 C   0  0  0  0  0  0  0  0  0  0  0  0
    1.4961   13.7834    8.1571 H   0  0  0  0  0  0  0  0  0  0  0  0
    3.0142   10.3540   10.9045 C   0  0  0  0  0  0  0  0  0  0  0  0
    3.5373    9.4128   10.7610 H   0  0  0  0  0  0  0  0  0  0  0  0
    2.1598   10.1714   11.5567 H   0  0  0  0  0  0  0  0  0  0  0  0
    3.6690   11.0588   11.4113 H   0  0  0  0  0  0  0  0  0  0  0  0
   -0.9131   14.8888    6.1880 C   0  0  0  0  0  3  0  0  0  0  0  0
   -0.2747   15.4462    5.5157 H   0  0  0  0  0  0  0  0  0  0  0  0
   -1.9706   15.5161    6.8141 C   0  0  0  0  0  0  0  0  0  0  0  0
   -2.1631   16.5578    6.6108 H   0  0  0  0  0  0  0  0  0  0  0  0
   -2.7796   14.8071    7.6990 C   0  0  0  0  0  0  0  0  0  0  0  0
   -2.4514   13.4693    7.9028 C   0  0  0  0  0  0  0  0  0  0  0  0
   -3.0349   12.8577    8.5729 H   0  0  0  0  0  0  0  0  0  0  0  0
   -1.3756   12.9114    7.2422 C   0  0  0  0  0  0  0  0  0  0  0  0
   -1.1359   11.8662    7.3854 H   0  0  0  0  0  0  0  0  0  0  0  0
   -3.9198   15.4526    8.4035 C   0  0  0  0  0  0  0  0  0  0  0  0
   -4.6729   14.7208    8.6828 H   0  0  0  0  0  0  0  0  0  0  0  0
   -4.3739   16.2228    7.7852 H   0  0  0  0  0  0  0  0  0  0  0  0
   -3.5598   15.9296    9.3157 H   0  0  0  0  0  0  0  0  0  0  0  0
  1  3  1  0  0  0  0
  1  7  1  0  0  0  0
  1  6  1  0  0  0  0
  2  1  1  0  0  0  0
  4  1  1  0  0  0  0
  5 28  1  0  0  0  0
  5  1  1  0  0  0  0
  6 34  1  0  0  0  0
  6 41  1  0  0  0  0
  7 54  1  0  0  0  0
  8  4  1  0  0  0  0
  8  9  1  0  0  0  0
 10  8  1  0  0  0  0
 11 10  1  0  0  0  0
 12 13  1  0  0  0  0
 12 10  2  0  0  0  0
 13 15  2  0  0  0  0
 14 13  1  0  0  0  0
 15 16  1  0  0  0  0
 15  4  1  0  0  0  0
 17 19  1  0  0  0  0
 17 12  1  0  0  0  0
 18 17  1  0  0  0  0
 20 17  1  0  0  0  0
 21  5  1  0  0  0  0
 22 21  1  0  0  0  0
 23 25  2  0  0  0  0
 23 21  1  0  0  0  0
 24 23  1  0  0  0  0
 25 26  1  0  0  0  0
 26 27  1  0  0  0  0
 26 28  2  0  0  0  0
 28 29  1  0  0  0  0
 30 31  1  0  0  0  0
 30 33  1  0  0  0  0
 30 25  1  0  0  0  0
 32 30  1  0  0  0  0
 34 36  1  0  0  0  0
 35 34  1  0  0  0  0
 36 37  1  0  0  0  0
 36 38  2  0  0  0  0
 38 43  1  0  0  0  0
 39 38  1  0  0  0  0
 39 40  1  0  0  0  0
 41 39  2  0  0  0  0
 42 41  1  0  0  0  0
 43 46  1  0  0  0  0
 43 45  1  0  0  0  0
 44 43  1  0  0  0  0
 47  7  1  0  0  0  0
 47 49  1  0  0  0  0
 48 47  1  0  0  0  0
 49 51  2  0  0  0  0
 50 49  1  0  0  0  0
 51 52  1  0  0  0  0
 51 56  1  0  0  0  0
 52 53  1  0  0  0  0
 54 55  1  0  0  0  0
 54 52  2  0  0  0  0
 56 57  1  0  0  0  0
 56 59  1  0  0  0  0
 58 56  1  0  0  0  0
M  END
$$$$
