CSD_code = GAKJOU | q = 1 | S = 0 | Stoichiometry = C20H20Cl2N4Rh(1+) | MND = 6
 OpenBabel04212202043D

 47 50  0  0  0  0  0  0  0  0999 V2000
    8.2417   11.8957    6.6810 Rh  0  0  0  0  0  0  0  0  0  0  0  0
    8.2411   12.0987    4.3510 Cl  0  0  0  0  0  0  0  0  0  0  0  0
   10.2736   11.8956    6.6811 N   0  0  0  0  0  0  0  0  0  0  0  0
    6.2097   11.8959    6.6811 N   0  0  0  0  0  0  0  0  0  0  0  0
    8.2429    9.8714    6.5045 N   0  0  0  0  0  0  0  0  0  0  0  0
   13.0559   11.8954    6.6818 C   0  0  0  0  0  0  0  0  0  0  0  0
    7.4770    7.7302    7.2273 C   0  0  0  0  0  0  0  0  0  0  0  0
    8.9912    9.2639    5.5790 C   0  0  0  0  0  3  0  0  0  0  0  0
   10.9599   11.0779    7.4848 C   0  0  0  0  0  3  0  0  0  0  0  0
    7.4982    9.1109    7.3123 C   0  0  0  0  0  0  0  0  0  0  0  0
   12.3427   11.0497    7.5162 C   0  0  0  0  0  0  0  0  0  0  0  0
    9.0208    7.8891    5.4277 C   0  0  0  0  0  0  0  0  0  0  0  0
    5.5228   11.2266    5.7507 C   0  0  0  0  0  3  0  0  0  0  0  0
    3.4273   11.8960    6.6818 C   0  0  0  0  0  0  0  0  0  0  0  0
    8.2513    7.0993    6.2668 C   0  0  0  0  0  0  0  0  0  0  0  0
    4.1400   11.2042    5.7156 C   0  0  0  0  0  0  0  0  0  0  0  0
   10.3890   10.4380    8.1446 H   0  0  0  0  0  0  0  0  0  0  0  0
   12.8454   10.3732    8.1883 H   0  0  0  0  0  0  0  0  0  0  0  0
   14.1345   11.8953    6.6820 H   0  0  0  0  0  0  0  0  0  0  0  0
    6.0931   10.7078    4.9916 H   0  0  0  0  0  0  0  0  0  0  0  0
    9.6391    7.4521    4.6605 H   0  0  0  0  0  0  0  0  0  0  0  0
    8.2549    6.0245    6.1754 H   0  0  0  0  0  0  0  0  0  0  0  0
    9.5709    9.8950    4.9186 H   0  0  0  0  0  0  0  0  0  0  0  0
    6.8615    7.1652    7.9084 H   0  0  0  0  0  0  0  0  0  0  0  0
    6.9147    9.6170    8.0698 H   0  0  0  0  0  0  0  0  0  0  0  0
    3.6370   10.6518    4.9386 H   0  0  0  0  0  0  0  0  0  0  0  0
    2.3486   11.8960    6.6821 H   0  0  0  0  0  0  0  0  0  0  0  0
   10.9604   12.7131    5.8778 C   0  0  0  0  0  0  0  0  0  0  0  0
   12.3432   12.7412    5.8471 C   0  0  0  0  0  0  0  0  0  0  0  0
   10.3899   13.3531    5.2178 H   0  0  0  0  0  0  0  0  0  0  0  0
   12.8463   13.4176    5.1752 H   0  0  0  0  0  0  0  0  0  0  0  0
    5.5233   12.5652    7.6119 C   0  0  0  0  0  0  0  0  0  0  0  0
    4.1405   12.5877    7.6477 C   0  0  0  0  0  0  0  0  0  0  0  0
    6.0940   13.0840    8.3707 H   0  0  0  0  0  0  0  0  0  0  0  0
    3.6379   13.1402    8.4249 H   0  0  0  0  0  0  0  0  0  0  0  0
    8.2412   11.6930    9.0110 Cl  0  0  0  0  0  0  0  0  0  0  0  0
    8.2425   13.9201    6.8568 N   0  0  0  0  0  0  0  0  0  0  0  0
    7.4766   16.0608    6.1326 C   0  0  0  0  0  0  0  0  0  0  0  0
    8.9907   14.5282    7.7819 C   0  0  0  0  0  3  0  0  0  0  0  0
    7.4979   14.6801    6.0485 C   0  0  0  0  0  0  0  0  0  0  0  0
    9.0203   15.9030    7.9324 C   0  0  0  0  0  0  0  0  0  0  0  0
    8.2508   16.6924    7.0927 C   0  0  0  0  0  0  0  0  0  0  0  0
    9.6385   16.3406    8.6994 H   0  0  0  0  0  0  0  0  0  0  0  0
    8.2544   17.7671    7.1835 H   0  0  0  0  0  0  0  0  0  0  0  0
    9.5704   13.8975    8.4428 H   0  0  0  0  0  0  0  0  0  0  0  0
    6.8610   16.6254    5.4511 H   0  0  0  0  0  0  0  0  0  0  0  0
    6.9143   14.1736    5.2912 H   0  0  0  0  0  0  0  0  0  0  0  0
  1  4  1  0  0  0  0
  1  3  1  0  0  0  0
  1 37  1  0  0  0  0
  1 36  1  0  0  0  0
  2  1  1  0  0  0  0
  3  9  1  0  0  0  0
  4 32  1  0  0  0  0
  5  1  1  0  0  0  0
  5 10  1  0  0  0  0
  6 19  1  0  0  0  0
  6 11  2  0  0  0  0
  7 10  2  0  0  0  0
  7 24  1  0  0  0  0
  8  5  1  0  0  0  0
  9 11  1  0  0  0  0
  9 17  1  0  0  0  0
 10 25  1  0  0  0  0
 11 18  1  0  0  0  0
 12  8  1  0  0  0  0
 12 15  2  0  0  0  0
 13  4  1  0  0  0  0
 14 27  1  0  0  0  0
 14 33  1  0  0  0  0
 15  7  1  0  0  0  0
 16 13  1  0  0  0  0
 16 14  2  0  0  0  0
 20 13  1  0  0  0  0
 21 12  1  0  0  0  0
 22 15  1  0  0  0  0
 23  8  1  0  0  0  0
 26 16  1  0  0  0  0
 28  3  1  0  0  0  0
 29 28  2  0  0  0  0
 29  6  1  0  0  0  0
 30 28  1  0  0  0  0
 31 29  1  0  0  0  0
 32 33  2  0  0  0  0
 32 34  1  0  0  0  0
 33 35  1  0  0  0  0
 37 39  1  0  0  0  0
 38 42  1  0  0  0  0
 39 41  1  0  0  0  0
 39 45  1  0  0  0  0
 40 38  2  0  0  0  0
 40 37  1  0  0  0  0
 41 43  1  0  0  0  0
 42 44  1  0  0  0  0
 42 41  2  0  0  0  0
 46 38  1  0  0  0  0
 47 40  1  0  0  0  0
M  END
$$$$
