CSD_code = GAKKEL | q = 0 | S = 0 | Stoichiometry = C13H24Cl2N2NiO2S2 | MND = 5
 OpenBabel04212202043D

 46 48  0  0  1  0  0  0  0  0999 V2000
   10.3163    8.9358   11.3791 Ni  0  0  0  0  0  0  0  0  0  0  0  0
   10.9075    7.4692    9.1436 S   0  0  2  0  0  3  0  0  0  0  0  0
    9.1553    7.5565   12.4396 Cl  0  0  0  0  0  0  0  0  0  0  0  0
    8.7318    9.8877   10.5898 Cl  0  0  0  0  0  0  0  0  0  0  0  0
   12.1342    8.1796   11.9270 N   0  0  1  0  0  4  0  0  0  0  0  0
   11.1855   10.4272   12.9718 N   0  0  1  0  0  4  0  0  0  0  0  0
   11.7353    9.5343   14.0002 C   0  0  0  0  0  0  0  0  0  0  0  0
   10.9336    9.2871   14.6943 H   0  0  0  0  0  0  0  0  0  0  0  0
   12.5180   10.0489   14.5748 H   0  0  0  0  0  0  0  0  0  0  0  0
    9.9643    5.0909    9.6711 O   0  0  0  0  0  0  0  0  0  0  0  0
    9.6376    6.1886    9.3339 C   0  0  0  0  0  0  0  0  0  0  0  0
   12.2677    8.2160   13.3900 C   0  0  0  0  0  0  0  0  0  0  0  0
   13.3157    8.0461   13.6729 H   0  0  0  0  0  0  0  0  0  0  0  0
   11.6740    7.3891   13.7840 H   0  0  0  0  0  0  0  0  0  0  0  0
   12.2833    6.7873   11.4706 C   0  0  0  0  0  0  0  0  0  0  0  0
   11.4434    6.2146   11.8767 H   0  0  0  0  0  0  0  0  0  0  0  0
   13.2213    6.3635   11.8655 H   0  0  0  0  0  0  0  0  0  0  0  0
   12.2653   11.1866   12.3260 C   0  0  0  0  0  0  0  0  0  0  0  0
   12.5971   12.0084   12.9822 H   0  0  0  0  0  0  0  0  0  0  0  0
   11.8621   11.6253   11.4081 H   0  0  0  0  0  0  0  0  0  0  0  0
   13.1465    9.0295   11.2671 C   0  0  0  0  0  0  0  0  0  0  0  0
   12.7856    9.2781   10.2623 H   0  0  0  0  0  0  0  0  0  0  0  0
   14.0818    8.4586   11.1631 H   0  0  0  0  0  0  0  0  0  0  0  0
   10.2404   11.3821   13.5628 C   0  0  0  0  0  0  0  0  0  0  0  0
   10.0450   12.1613   12.8210 H   0  0  0  0  0  0  0  0  0  0  0  0
   10.6911   11.8503   14.4520 H   0  0  0  0  0  0  0  0  0  0  0  0
   12.2967    6.6156    9.9554 C   0  0  0  0  0  0  0  0  0  0  0  0
   12.1782    5.5576    9.7147 H   0  0  0  0  0  0  0  0  0  0  0  0
   13.2057    6.9961    9.4926 H   0  0  0  0  0  0  0  0  0  0  0  0
    8.2836    6.6993    9.0191 C   0  0  0  0  0  0  0  0  0  0  0  0
    8.3166    7.4188    8.2050 H   0  0  0  0  0  0  0  0  0  0  0  0
    7.9204    7.2225    9.9076 H   0  0  0  0  0  0  0  0  0  0  0  0
    7.6096    5.8768    8.7950 H   0  0  0  0  0  0  0  0  0  0  0  0
    7.8241   12.0021   14.6857 S   0  0  0  0  0  0  0  0  0  0  0  0
    8.5108   12.0556   16.3224 C   0  0  0  0  0  0  0  0  0  0  0  0
   13.4809   10.3238   12.0020 C   0  0  0  0  0  0  0  0  0  0  0  0
   14.1499   10.9042   11.3627 H   0  0  0  0  0  0  0  0  0  0  0  0
   14.0326   10.0994   12.9155 H   0  0  0  0  0  0  0  0  0  0  0  0
    8.9071   10.7515   13.9406 C   0  0  0  0  0  0  0  0  0  0  0  0
    9.0088    9.9577   14.6791 H   0  0  0  0  0  0  0  0  0  0  0  0
    8.3861   10.3754   13.0605 H   0  0  0  0  0  0  0  0  0  0  0  0
    9.4473   11.3667   16.6262 O   0  0  0  0  0  0  0  0  0  0  0  0
    7.8073   13.0357   17.2082 C   0  0  0  0  0  0  0  0  0  0  0  0
    8.1406   12.9124   18.2357 H   0  0  0  0  0  0  0  0  0  0  0  0
    6.7319   12.8954   17.1389 H   0  0  0  0  0  0  0  0  0  0  0  0
    8.0360   14.0455   16.8718 H   0  0  0  0  0  0  0  0  0  0  0  0
  1  5  1  0  0  0  0
  1  3  1  0  0  0  0
  1  6  1  0  0  0  0
  2 11  1  1  0  0  0
  2 27  1  0  0  0  0
  2  1  1  0  0  0  0
  4  1  1  0  0  0  0
  5 21  1  6  0  0  0
  5 12  1  0  0  0  0
  6 24  1  1  0  0  0
  6  7  1  0  0  0  0
  7  9  1  0  0  0  0
  7  8  1  0  0  0  0
 11 10  2  0  0  0  0
 12 13  1  0  0  0  0
 12 14  1  0  0  0  0
 12  7  1  0  0  0  0
 15 17  1  0  0  0  0
 15 16  1  0  0  0  0
 15  5  1  0  0  0  0
 18  6  1  0  0  0  0
 18 19  1  0  0  0  0
 20 18  1  0  0  0  0
 21 36  1  0  0  0  0
 22 21  1  0  0  0  0
 23 21  1  0  0  0  0
 24 39  1  0  0  0  0
 24 26  1  0  0  0  0
 25 24  1  0  0  0  0
 27 15  1  0  0  0  0
 28 27  1  0  0  0  0
 29 27  1  0  0  0  0
 30 11  1  0  0  0  0
 30 32  1  0  0  0  0
 31 30  1  0  0  0  0
 33 30  1  0  0  0  0
 34 35  1  0  0  0  0
 35 42  2  0  0  0  0
 35 43  1  0  0  0  0
 36 18  1  0  0  0  0
 36 38  1  0  0  0  0
 37 36  1  0  0  0  0
 39 40  1  0  0  0  0
 39 34  1  0  0  0  0
 41 39  1  0  0  0  0
 43 44  1  0  0  0  0
 45 43  1  0  0  0  0
 46 43  1  0  0  0  0
M  END
$$$$
