CSD_code = GAKSAO | q = 0 | S = 0 | Stoichiometry = C27H26Cl2P2Pt | MND = 4
 OpenBabel04212202043D

 58 62  0  0  0  0  0  0  0  0999 V2000
    8.2765    1.8118   12.3483 Pt  0  0  0  0  0  0  0  0  0  0  0  0
    7.2685    2.7378   14.1981 Cl  0  0  0  0  0  0  0  0  0  0  0  0
    9.8526    3.4812   12.2605 Cl  0  0  0  0  0  0  0  0  0  0  0  0
    6.7978    0.0971   12.4494 P   0  0  0  0  0  4  0  0  0  0  0  0
    9.4660    0.9328   10.6324 P   0  0  0  0  0  4  0  0  0  0  0  0
    6.5019   -0.7812   10.8509 C   0  0  0  0  0  0  0  0  0  0  0  0
    5.8193   -1.6139   11.0478 H   0  0  0  0  0  0  0  0  0  0  0  0
    5.9723   -0.0753   10.2023 H   0  0  0  0  0  0  0  0  0  0  0  0
    7.7747   -1.2765   10.1610 C   0  0  0  0  0  0  0  0  0  0  0  0
    7.4945   -2.0285    9.4166 H   0  0  0  0  0  0  0  0  0  0  0  0
    8.4298   -1.7609   10.8917 H   0  0  0  0  0  0  0  0  0  0  0  0
    8.5519   -0.1668    9.4547 C   0  0  0  0  0  0  0  0  0  0  0  0
    7.8700    0.4531    8.8665 H   0  0  0  0  0  0  0  0  0  0  0  0
    9.2832   -0.6039    8.7680 H   0  0  0  0  0  0  0  0  0  0  0  0
    5.0989    0.5345   12.9017 C   0  0  0  0  0  0  0  0  0  0  0  0
    4.6185    1.7548   12.4378 C   0  0  0  0  0  0  0  0  0  0  0  0
    5.2817    2.3989   11.8710 H   0  0  0  0  0  0  0  0  0  0  0  0
    3.3275    2.1466   12.7337 C   0  0  0  0  0  0  0  0  0  0  0  0
    2.9567    3.0985   12.3839 H   0  0  0  0  0  0  0  0  0  0  0  0
    2.5142    1.3211   13.4948 C   0  0  0  0  0  0  0  0  0  0  0  0
    1.5076    1.6303   13.7353 H   0  0  0  0  0  0  0  0  0  0  0  0
    2.9917    0.1066   13.9587 C   0  0  0  0  0  0  0  0  0  0  0  0
    2.3575   -0.5300   14.5583 H   0  0  0  0  0  0  0  0  0  0  0  0
    4.2841   -0.2917   13.6648 C   0  0  0  0  0  0  0  0  0  0  0  0
    4.6651   -1.2332   14.0365 H   0  0  0  0  0  0  0  0  0  0  0  0
    7.2803   -1.1910   13.6361 C   0  0  0  0  0  0  0  0  0  0  0  0
    7.2955   -2.5570   13.3763 C   0  0  0  0  0  0  0  0  0  0  0  0
    6.9805   -2.9433   12.4185 H   0  0  0  0  0  0  0  0  0  0  0  0
    7.7128   -3.4408   14.3571 C   0  0  0  0  0  0  0  0  0  0  0  0
    7.7228   -4.5013   14.1503 H   0  0  0  0  0  0  0  0  0  0  0  0
    8.1135   -2.9735   15.5973 C   0  0  0  0  0  0  0  0  0  0  0  0
    8.4381   -3.6701   16.3562 H   0  0  0  0  0  0  0  0  0  0  0  0
    8.0949   -1.6130   15.8628 C   0  0  0  0  0  0  0  0  0  0  0  0
    8.4028   -1.2452   16.8301 H   0  0  0  0  0  0  0  0  0  0  0  0
    7.6850   -0.7250   14.8870 C   0  0  0  0  0  0  0  0  0  0  0  0
    7.6665    0.3410   15.0783 H   0  0  0  0  0  0  0  0  0  0  0  0
   10.3931    2.0028    9.5026 C   0  0  0  0  0  0  0  0  0  0  0  0
    9.6804    2.7607    8.5775 C   0  0  0  0  0  0  0  0  0  0  0  0
    8.6027    2.6774    8.5328 H   0  0  0  0  0  0  0  0  0  0  0  0
   10.3435    3.6382    7.7412 C   0  0  0  0  0  0  0  0  0  0  0  0
    9.7871    4.2268    7.0265 H   0  0  0  0  0  0  0  0  0  0  0  0
   11.7197    3.7738    7.8309 C   0  0  0  0  0  0  0  0  0  0  0  0
   12.2369    4.4652    7.1822 H   0  0  0  0  0  0  0  0  0  0  0  0
   12.4286    3.0386    8.7662 C   0  0  0  0  0  0  0  0  0  0  0  0
   13.4985    3.1600    8.8505 H   0  0  0  0  0  0  0  0  0  0  0  0
   11.7704    2.1583    9.6060 C   0  0  0  0  0  0  0  0  0  0  0  0
   12.3205    1.6042   10.3529 H   0  0  0  0  0  0  0  0  0  0  0  0
   10.6766   -0.2162   11.3482 C   0  0  0  0  0  0  0  0  0  0  0  0
   11.5283   -0.9963   10.5709 C   0  0  0  0  0  0  0  0  0  0  0  0
   11.5222   -0.8971    9.4938 H   0  0  0  0  0  0  0  0  0  0  0  0
   12.3930   -1.8871   11.1798 C   0  0  0  0  0  0  0  0  0  0  0  0
   13.0575   -2.4884   10.5766 H   0  0  0  0  0  0  0  0  0  0  0  0
   12.4104   -2.0098   12.5610 C   0  0  0  0  0  0  0  0  0  0  0  0
   13.0856   -2.7105   13.0294 H   0  0  0  0  0  0  0  0  0  0  0  0
   11.5714   -1.2294   13.3392 C   0  0  0  0  0  0  0  0  0  0  0  0
   11.5886   -1.3175   14.4150 H   0  0  0  0  0  0  0  0  0  0  0  0
   10.7109   -0.3318   12.7341 C   0  0  0  0  0  0  0  0  0  0  0  0
   10.0616    0.3051   13.3340 H   0  0  0  0  0  0  0  0  0  0  0  0
  1  4  1  0  0  0  0
  1  2  1  0  0  0  0
  3  1  1  0  0  0  0
  4 15  1  0  0  0  0
  4 26  1  0  0  0  0
  5 48  1  0  0  0  0
  5  1  1  0  0  0  0
  6  7  1  0  0  0  0
  6  4  1  0  0  0  0
  8  6  1  0  0  0  0
  9  6  1  0  0  0  0
  9 11  1  0  0  0  0
 10  9  1  0  0  0  0
 12  9  1  0  0  0  0
 12  5  1  0  0  0  0
 13 12  1  0  0  0  0
 14 12  1  0  0  0  0
 15 24  1  0  0  0  0
 16 18  1  0  0  0  0
 16 15  2  0  0  0  0
 17 16  1  0  0  0  0
 18 20  2  0  0  0  0
 19 18  1  0  0  0  0
 20 21  1  0  0  0  0
 20 22  1  0  0  0  0
 22 23  1  0  0  0  0
 24 22  2  0  0  0  0
 24 25  1  0  0  0  0
 26 35  1  0  0  0  0
 27 26  2  0  0  0  0
 27 29  1  0  0  0  0
 28 27  1  0  0  0  0
 29 31  2  0  0  0  0
 30 29  1  0  0  0  0
 31 33  1  0  0  0  0
 31 32  1  0  0  0  0
 33 34  1  0  0  0  0
 35 36  1  0  0  0  0
 35 33  2  0  0  0  0
 37 46  1  0  0  0  0
 37  5  1  0  0  0  0
 38 37  2  0  0  0  0
 39 38  1  0  0  0  0
 40 42  2  0  0  0  0
 40 38  1  0  0  0  0
 41 40  1  0  0  0  0
 42 44  1  0  0  0  0
 43 42  1  0  0  0  0
 44 45  1  0  0  0  0
 44 46  2  0  0  0  0
 46 47  1  0  0  0  0
 48 57  1  0  0  0  0
 49 51  1  0  0  0  0
 49 48  2  0  0  0  0
 50 49  1  0  0  0  0
 51 53  2  0  0  0  0
 52 51  1  0  0  0  0
 53 54  1  0  0  0  0
 53 55  1  0  0  0  0
 55 56  1  0  0  0  0
 57 58  1  0  0  0  0
 57 55  2  0  0  0  0
M  END
$$$$
