CSD_code = GAKTOE | q = 1 | S = 0 | Stoichiometry = C24H30ClIrN5(1+) | MND = 6
 OpenBabel04212202043D

 61 65  0  0  1  0  0  0  0  0999 V2000
    2.4376    6.5999   20.2146 C   0  0  2  0  0  3  0  0  0  0  0  0
    4.5373    5.8636   20.0576 C   0  0  0  0  0  0  0  0  0  0  0  0
    5.5289    5.8000   19.6601 H   0  0  0  0  0  0  0  0  0  0  0  0
    3.9627    5.1907   21.0796 C   0  0  0  0  0  0  0  0  0  0  0  0
    4.3646    4.4383   21.7248 H   0  0  0  0  0  0  0  0  0  0  0  0
    1.6078    5.2387   21.9682 C   0  0  1  0  0  3  0  0  0  0  0  0
    1.6116    4.2195   22.9063 C   0  0  0  0  0  0  0  0  0  0  0  0
    2.5122    3.6753   23.1353 H   0  0  0  0  0  0  0  0  0  0  0  0
    0.4073    3.9034   23.5262 C   0  0  0  0  0  0  0  0  0  0  0  0
    0.3775    3.1145   24.2605 H   0  0  0  0  0  0  0  0  0  0  0  0
   -0.7565    4.5706   23.1782 C   0  0  0  0  0  0  0  0  0  0  0  0
   -1.6985    4.2961   23.6226 H   0  0  0  0  0  0  0  0  0  0  0  0
   -0.6928    5.5870   22.2270 C   0  0  0  0  0  0  0  0  0  0  0  0
   -1.8106    6.3387   21.6636 C   0  0  2  0  0  3  0  0  0  0  0  0
   -3.1884    6.1345   22.1923 C   0  0  0  0  0  0  0  0  0  0  0  0
   -3.2003    6.2836   23.2710 H   0  0  0  0  0  0  0  0  0  0  0  0
   -3.5188    5.1160   21.9893 H   0  0  0  0  0  0  0  0  0  0  0  0
   -3.8840    6.8285   21.7269 H   0  0  0  0  0  0  0  0  0  0  0  0
   -2.4980    7.9296   20.0416 C   0  0  0  0  0  0  0  0  0  0  0  0
   -3.2086    7.3892   18.9604 C   0  0  0  0  0  0  0  0  0  0  0  0
   -4.0853    8.2167   18.2701 C   0  0  0  0  0  0  0  0  0  0  0  0
   -4.6421    7.8161   17.4377 H   0  0  0  0  0  0  0  0  0  0  0  0
   -4.2671    9.5355   18.6365 C   0  0  0  0  0  0  0  0  0  0  0  0
   -4.9534   10.1609   18.0866 H   0  0  0  0  0  0  0  0  0  0  0  0
   -3.5837   10.0440   19.7242 C   0  0  0  0  0  0  0  0  0  0  0  0
   -3.7499   11.0660   20.0240 H   0  0  0  0  0  0  0  0  0  0  0  0
   -2.6959    9.2586   20.4452 C   0  0  0  0  0  0  0  0  0  0  0  0
   -3.0668    5.9474   18.5327 C   0  0  0  0  0  0  0  0  0  0  0  0
   -2.3403    5.4437   19.1745 H   0  0  0  0  0  0  0  0  0  0  0  0
   -2.5452    5.8530   17.0972 C   0  0  0  0  0  0  0  0  0  0  0  0
   -3.2027    6.3644   16.3986 H   0  0  0  0  0  0  0  0  0  0  0  0
   -2.4773    4.8087   16.8030 H   0  0  0  0  0  0  0  0  0  0  0  0
   -1.5500    6.2864   17.0295 H   0  0  0  0  0  0  0  0  0  0  0  0
   -4.4069    5.2180   18.6645 C   0  0  0  0  0  0  0  0  0  0  0  0
   -4.8212    5.3370   19.6637 H   0  0  0  0  0  0  0  0  0  0  0  0
   -4.2701    4.1568   18.4717 H   0  0  0  0  0  0  0  0  0  0  0  0
   -5.1307    5.6008   17.9499 H   0  0  0  0  0  0  0  0  0  0  0  0
   -2.0012    9.8407   21.6540 C   0  0  0  0  0  0  0  0  0  0  0  0
   -1.3482    9.0825   22.0947 H   0  0  0  0  0  0  0  0  0  0  0  0
   -3.0254   10.2538   22.7144 C   0  0  0  0  0  0  0  0  0  0  0  0
   -3.6608   11.0572   22.3529 H   0  0  0  0  0  0  0  0  0  0  0  0
   -2.5127   10.6020   23.6073 H   0  0  0  0  0  0  0  0  0  0  0  0
   -3.6604    9.4134   22.9870 H   0  0  0  0  0  0  0  0  0  0  0  0
   -1.1263   11.0290   21.2495 C   0  0  0  0  0  0  0  0  0  0  0  0
   -0.3994   10.7217   20.5005 H   0  0  0  0  0  0  0  0  0  0  0  0
   -0.5902   11.4047   22.1169 H   0  0  0  0  0  0  0  0  0  0  0  0
   -1.7271   11.8378   20.8437 H   0  0  0  0  0  0  0  0  0  0  0  0
   -0.1740    8.7074   17.6938 C   0  0  0  0  0  2  0  0  0  0  0  0
   -0.7215    9.3399   16.5430 C   0  0  0  0  0  0  0  0  0  0  0  0
   -0.2798   10.3276   16.4150 H   0  0  0  0  0  0  0  0  0  0  0  0
   -1.7997    9.4409   16.6749 H   0  0  0  0  0  0  0  0  0  0  0  0
   -0.5228    8.7384   15.6561 H   0  0  0  0  0  0  0  0  0  0  0  0
    3.5890    6.7175   19.5506 N   0  0  0  0  0  0  0  0  0  0  0  0
    2.6717    5.6518   21.1729 N   0  0  0  0  0  0  0  0  0  0  0  0
    0.4923    5.9215   21.6822 N   0  0  0  0  0  0  0  0  0  0  0  0
   -1.5135    7.1516   20.7022 N   0  0  0  0  0  0  0  0  0  0  0  0
    0.2771    8.2171   18.6337 N   0  0  0  0  0  2  0  0  0  0  0  0
    0.2993    5.0973   18.9149 Cl  0  0  0  0  0  0  0  0  0  0  0  0
    0.4877    7.1353   20.2184 Ir  0  0  0  0  0  0  0  0  0  0  0  0
    0.7761    8.3961   21.0285 H   0  0  0  0  0  0  0  0  0  0  0  0
    3.7318    7.3384   18.7688 H   0  0  0  0  0  0  0  0  0  0  0  0
  1 53  1  6  0  0  0
  1 59  1  0  0  0  0
  1 54  1  0  0  0  0
  2  4  2  0  0  0  0
  3  2  1  0  0  0  0
  4 54  1  0  0  0  0
  4  5  1  0  0  0  0
  6  7  1  6  0  0  0
  7  8  1  0  0  0  0
  7  9  2  0  0  0  0
  9 10  1  0  0  0  0
 11  9  1  0  0  0  0
 11 12  1  0  0  0  0
 13 11  2  0  0  0  0
 14 15  1  6  0  0  0
 14 13  1  0  0  0  0
 15 16  1  0  0  0  0
 17 15  1  0  0  0  0
 18 15  1  0  0  0  0
 19 27  1  0  0  0  0
 19 56  1  0  0  0  0
 20 19  2  0  0  0  0
 21 23  2  0  0  0  0
 21 20  1  0  0  0  0
 22 21  1  0  0  0  0
 23 25  1  0  0  0  0
 24 23  1  0  0  0  0
 25 26  1  0  0  0  0
 25 27  2  0  0  0  0
 27 38  1  0  0  0  0
 28 34  1  0  0  0  0
 28 20  1  0  0  0  0
 28 29  1  0  0  0  0
 30 28  1  0  0  0  0
 31 30  1  0  0  0  0
 32 30  1  0  0  0  0
 33 30  1  0  0  0  0
 34 35  1  0  0  0  0
 36 34  1  0  0  0  0
 37 34  1  0  0  0  0
 38 39  1  0  0  0  0
 38 40  1  0  0  0  0
 40 43  1  0  0  0  0
 40 42  1  0  0  0  0
 41 40  1  0  0  0  0
 44 38  1  0  0  0  0
 44 46  1  0  0  0  0
 45 44  1  0  0  0  0
 47 44  1  0  0  0  0
 48 57  1  0  0  0  0
 49 51  1  0  0  0  0
 49 48  1  0  0  0  0
 50 49  1  0  0  0  0
 52 49  1  0  0  0  0
 53  2  1  0  0  0  0
 54  6  1  0  0  0  0
 55  6  1  0  0  0  0
 55 13  1  0  0  0  0
 56 14  1  0  0  0  0
 57 59  1  0  0  0  0
 58 59  1  0  0  0  0
 59 56  1  0  0  0  0
 59 60  1  0  0  0  0
 59 55  1  0  0  0  0
 61 53  1  0  0  0  0
M  END
$$$$
