CSD_code = GAKTUH | q = 0 | S = 0 | Stoichiometry = C12H16BCl2N6RhS2 | MND = 6
 OpenBabel04212202043D

 40 44  0  0  1  0  0  0  0  0999 V2000
    0.0871    3.5820    4.3726 Rh  0  0  0  0  0  0  0  0  0  0  0  0
    2.0669    4.2870    3.5050 Cl  0  0  0  0  0  0  0  0  0  0  0  0
   -1.0801    5.2070    3.2936 Cl  0  0  0  0  0  0  0  0  0  0  0  0
   -0.1402    2.4330    2.7326 C   0  0  0  0  0  3  0  0  0  0  0  0
   -0.6281    0.8056    2.4756 S   0  0  0  0  0  0  0  0  0  0  0  0
   -0.9753    0.0864    4.1064 C   0  0  0  0  0  0  0  0  0  0  0  0
    0.2280    3.2817    1.3207 S   0  0  0  0  0  0  0  0  0  0  0  0
   -0.0481    2.1199   -0.0636 C   0  0  0  0  0  0  0  0  0  0  0  0
   -0.3140    2.9196    7.4182 B   0  0  2  0  0  0  0  0  0  0  0  0
   -1.6346    3.0120    5.2961 N   0  0  0  0  0  0  0  0  0  0  0  0
   -1.6075    2.7420    6.6033 N   0  0  2  0  0  0  0  0  0  0  0  0
   -2.8468    2.4525    7.0213 C   0  0  0  0  0  3  0  0  0  0  0  0
   -3.7017    2.5378    5.9417 C   0  0  0  0  0  0  0  0  0  0  0  0
   -2.8858    2.9014    4.8719 C   0  0  0  0  0  0  0  0  0  0  0  0
    0.3401    4.8175    5.9593 N   0  0  0  0  0  0  0  0  0  0  0  0
    0.1235    4.3724    7.2007 N   0  0  2  0  0  0  0  0  0  0  0  0
    0.3533    5.3639    8.0724 C   0  0  0  0  0  3  0  0  0  0  0  0
    0.7305    6.4846    7.3638 C   0  0  0  0  0  0  0  0  0  0  0  0
    0.7070    6.0872    6.0278 C   0  0  0  0  0  0  0  0  0  0  0  0
    1.1042    2.2103    5.4837 N   0  0  0  0  0  0  0  0  0  0  0  0
    0.7766    2.0497    6.7683 N   0  0  1  0  0  0  0  0  0  0  0  0
    1.6066    1.1602    7.3289 C   0  0  0  0  0  3  0  0  0  0  0  0
    2.4994    0.7319    6.3681 C   0  0  0  0  0  0  0  0  0  0  0  0
    2.1432    1.4310    5.2165 C   0  0  0  0  0  0  0  0  0  0  0  0
   -1.1886   -0.9617    3.9155 H   0  0  0  0  0  0  0  0  0  0  0  0
   -1.8434    0.5661    4.5450 H   0  0  0  0  0  0  0  0  0  0  0  0
   -0.1047    0.1761    4.7455 H   0  0  0  0  0  0  0  0  0  0  0  0
    0.1887    2.6735   -0.9655 H   0  0  0  0  0  0  0  0  0  0  0  0
   -1.0857    1.8023   -0.0768 H   0  0  0  0  0  0  0  0  0  0  0  0
    0.6093    1.2623    0.0368 H   0  0  0  0  0  0  0  0  0  0  0  0
   -0.4699    2.6534    8.5566 H   0  0  0  0  0  0  0  0  0  0  0  0
   -3.0427    2.2080    8.0453 H   0  0  0  0  0  0  0  0  0  0  0  0
   -4.7583    2.3698    5.9264 H   0  0  0  0  0  0  0  0  0  0  0  0
   -3.1441    3.0925    3.8480 H   0  0  0  0  0  0  0  0  0  0  0  0
    0.2355    5.2116    9.1263 H   0  0  0  0  0  0  0  0  0  0  0  0
    0.9861    7.4490    7.7506 H   0  0  0  0  0  0  0  0  0  0  0  0
    0.9333    6.6502    5.1426 H   0  0  0  0  0  0  0  0  0  0  0  0
    1.5137    0.8903    8.3610 H   0  0  0  0  0  0  0  0  0  0  0  0
    3.2946    0.0248    6.4801 H   0  0  0  0  0  0  0  0  0  0  0  0
    2.5858    1.4119    4.2392 H   0  0  0  0  0  0  0  0  0  0  0  0
  1 10  1  0  0  0  0
  1 20  1  0  0  0  0
  1 15  1  0  0  0  0
  2  1  1  0  0  0  0
  3  1  1  0  0  0  0
  4  1  1  0  0  0  0
  5  4  1  0  0  0  0
  5  6  1  0  0  0  0
  6 26  1  0  0  0  0
  6 27  1  0  0  0  0
  7  4  1  0  0  0  0
  8 30  1  0  0  0  0
  8  7  1  0  0  0  0
  9 31  1  1  0  0  0
 10 11  1  0  0  0  0
 11 12  1  1  0  0  0
 11  9  1  0  0  0  0
 12 32  1  0  0  0  0
 13 12  1  0  0  0  0
 14 10  1  0  0  0  0
 14 13  2  0  0  0  0
 15 19  1  0  0  0  0
 15 16  1  0  0  0  0
 16  9  1  0  0  0  0
 16 17  1  1  0  0  0
 17 35  1  0  0  0  0
 18 36  1  0  0  0  0
 18 17  1  0  0  0  0
 19 18  2  0  0  0  0
 20 21  1  0  0  0  0
 21 22  1  1  0  0  0
 21  9  1  0  0  0  0
 22 38  1  0  0  0  0
 23 39  1  0  0  0  0
 23 22  1  0  0  0  0
 24 20  1  0  0  0  0
 24 23  2  0  0  0  0
 25  6  1  0  0  0  0
 28  8  1  0  0  0  0
 29  8  1  0  0  0  0
 33 13  1  0  0  0  0
 34 14  1  0  0  0  0
 37 19  1  0  0  0  0
 40 24  1  0  0  0  0
M  END
$$$$
