CSD_code = GALPOZ | q = 1 | S = 0 | Stoichiometry = C25H19ClN7Ru(1+) | MND = 6
 OpenBabel04212202043D

 53 60  0  0  1  0  0  0  0  0999 V2000
    3.2093    1.3644    1.8544 Ru  0  0  0  0  0  0  0  0  0  0  0  0
    3.2611   -0.1300    0.0512 Cl  0  0  0  0  0  0  0  0  0  0  0  0
    1.5316    3.7135    2.8996 N   0  0  0  0  0  0  0  0  0  0  0  0
    3.3768    2.4774    3.4325 N   0  0  0  0  0  0  0  0  0  0  0  0
    4.3207    2.2500    4.2819 N   0  0  0  0  0  2  0  0  0  0  0  0
    4.7721    0.5260    2.8187 N   0  0  0  0  0  0  0  0  0  0  0  0
    4.2451    2.6799    0.7034 N   0  0  0  0  0  0  0  0  0  0  0  0
    1.7609    2.1142    0.8978 N   0  0  0  0  0  0  0  0  0  0  0  0
    1.7138    0.2559    2.6465 N   0  0  0  0  0  0  0  0  0  0  0  0
    0.6851    4.7007    3.1150 C   0  0  0  0  0  0  0  0  0  0  0  0
    0.8022    5.5803    4.1839 C   0  0  0  0  0  0  0  0  0  0  0  0
    1.8609    5.4081    5.0651 C   0  0  0  0  0  0  0  0  0  0  0  0
    2.7549    4.3746    4.8516 C   0  0  0  0  0  0  0  0  0  0  0  0
    2.5454    3.5474    3.7445 C   0  0  0  0  0  0  0  0  0  0  0  0
    5.4983   -0.5341    2.4699 C   0  0  0  0  0  3  0  0  0  0  0  0
    6.5664   -0.9811    3.2254 C   0  0  0  0  0  0  0  0  0  0  0  0
    6.9068   -0.3061    4.3974 C   0  0  0  0  0  0  0  0  0  0  0  0
    6.1654    0.7917    4.7745 C   0  0  0  0  0  0  0  0  0  0  0  0
    5.0948    1.1882    3.9616 C   0  0  0  0  0  0  0  0  0  0  0  0
    5.5531    2.9248    0.6847 C   0  0  0  0  0  3  0  0  0  0  0  0
    6.1356    3.8339   -0.1789 C   0  0  0  0  0  0  0  0  0  0  0  0
    5.3232    4.5254   -1.0680 C   0  0  0  0  0  0  0  0  0  0  0  0
    3.9633    4.2792   -1.0538 C   0  0  0  0  0  0  0  0  0  0  0  0
    3.4394    3.3470   -0.1592 C   0  0  0  0  0  0  0  0  0  0  0  0
    2.0221    2.9929   -0.0801 C   0  0  1  0  0  3  0  0  0  0  0  0
    1.0043    3.4323   -0.9221 C   0  0  0  0  0  0  0  0  0  0  0  0
   -0.2744    2.9249   -0.7454 C   0  0  0  0  0  0  0  0  0  0  0  0
   -0.5097    1.9687    0.2314 C   0  0  0  0  0  0  0  0  0  0  0  0
    0.5455    1.5678    1.0458 C   0  0  0  0  0  0  0  0  0  0  0  0
    0.5145    0.5330    2.0780 C   0  0  1  0  0  3  0  0  0  0  0  0
   -0.6369   -0.1522    2.4638 C   0  0  0  0  0  0  0  0  0  0  0  0
   -0.5579   -1.1315    3.4356 C   0  0  0  0  0  0  0  0  0  0  0  0
    0.6775   -1.4033    4.0095 C   0  0  0  0  0  0  0  0  0  0  0  0
    1.7804   -0.6864    3.5844 C   0  0  0  0  0  0  0  0  0  0  0  0
   -0.1210    4.7878    2.3985 H   0  0  0  0  0  0  0  0  0  0  0  0
    0.0862    6.3740    4.3205 H   0  0  0  0  0  0  0  0  0  0  0  0
    1.9873    6.0702    5.9079 H   0  0  0  0  0  0  0  0  0  0  0  0
    3.5945    4.1913    5.5016 H   0  0  0  0  0  0  0  0  0  0  0  0
    6.3755    1.3558    5.6675 H   0  0  0  0  0  0  0  0  0  0  0  0
    7.7378   -0.6394    4.9985 H   0  0  0  0  0  0  0  0  0  0  0  0
    7.1252   -1.8438    2.9025 H   0  0  0  0  0  0  0  0  0  0  0  0
    5.2032   -1.0280    1.5526 H   0  0  0  0  0  0  0  0  0  0  0  0
    6.1617    2.3626    1.3846 H   0  0  0  0  0  0  0  0  0  0  0  0
    7.2015    3.9908   -0.1583 H   0  0  0  0  0  0  0  0  0  0  0  0
    5.7443    5.2381   -1.7593 H   0  0  0  0  0  0  0  0  0  0  0  0
    3.3084    4.7995   -1.7329 H   0  0  0  0  0  0  0  0  0  0  0  0
    1.2040    4.1361   -1.7127 H   0  0  0  0  0  0  0  0  0  0  0  0
   -1.0778    3.2513   -1.3864 H   0  0  0  0  0  0  0  0  0  0  0  0
   -1.4890    1.5327    0.3386 H   0  0  0  0  0  0  0  0  0  0  0  0
   -1.5813    0.0800    2.0000 H   0  0  0  0  0  0  0  0  0  0  0  0
   -1.4381   -1.6757    3.7390 H   0  0  0  0  0  0  0  0  0  0  0  0
    0.7860   -2.1607    4.7682 H   0  0  0  0  0  0  0  0  0  0  0  0
    2.7605   -0.8811    4.0066 H   0  0  0  0  0  0  0  0  0  0  0  0
  1  9  1  0  0  0  0
  1  6  1  0  0  0  0
  1  4  1  0  0  0  0
  2  1  1  0  0  0  0
  3 10  2  0  0  0  0
  3 14  1  0  0  0  0
  4 14  1  0  0  0  0
  4  5  1  0  0  0  0
  6 19  1  0  0  0  0
  7  1  1  0  0  0  0
  8 29  1  0  0  0  0
  8  1  1  0  0  0  0
  9 34  1  0  0  0  0
 10 11  1  0  0  0  0
 11 36  1  0  0  0  0
 11 12  2  0  0  0  0
 12 37  1  0  0  0  0
 13 12  1  0  0  0  0
 13 38  1  0  0  0  0
 14 13  2  0  0  0  0
 15  6  1  0  0  0  0
 15 16  1  0  0  0  0
 16 17  2  0  0  0  0
 17 18  1  0  0  0  0
 17 40  1  0  0  0  0
 18 39  1  0  0  0  0
 19  5  1  0  0  0  0
 19 18  2  0  0  0  0
 20  7  1  0  0  0  0
 20 43  1  0  0  0  0
 21 44  1  0  0  0  0
 21 20  1  0  0  0  0
 22 23  1  0  0  0  0
 22 21  2  0  0  0  0
 23 24  2  0  0  0  0
 24 25  1  0  0  0  0
 24  7  1  0  0  0  0
 25 26  1  6  0  0  0
 25  8  1  0  0  0  0
 26 27  2  0  0  0  0
 27 28  1  0  0  0  0
 28 49  1  0  0  0  0
 28 29  2  0  0  0  0
 30 29  1  6  0  0  0
 30 31  1  0  0  0  0
 30  9  1  0  0  0  0
 31 32  2  0  0  0  0
 32 51  1  0  0  0  0
 32 33  1  0  0  0  0
 33 52  1  0  0  0  0
 34 53  1  0  0  0  0
 34 33  2  0  0  0  0
 35 10  1  0  0  0  0
 41 16  1  0  0  0  0
 42 15  1  0  0  0  0
 45 22  1  0  0  0  0
 46 23  1  0  0  0  0
 47 26  1  0  0  0  0
 48 27  1  0  0  0  0
 50 31  1  0  0  0  0
M  END
$$$$
