CSD_code = GALXOG | q = 0 | S = 0 | Stoichiometry = C28H26Cl2Ti | MND = 12
 OpenBabel04212202043D

 57 61  0  0  1  0  0  0  0  0999 V2000
    4.6942   11.9889    5.5873 Ti  0  0  0  0  0  0  0  0  0  0  0  0
    3.5562   12.8591    7.3220 Cl  0  0  0  0  0  0  0  0  0  0  0  0
    2.7637   11.2656    4.7514 Cl  0  0  0  0  0  0  0  0  0  0  0  0
    4.6195   13.2801    3.5462 C   0  0  0  0  0  0  0  0  0  0  0  0
    4.3104   14.0600    4.6811 C   0  0  0  0  0  0  0  0  0  0  0  0
    5.4906   14.1230    5.4786 C   0  0  2  0  0  0  0  0  0  0  0  0
    6.5111   13.3953    4.8276 C   0  0  0  0  0  3  0  0  0  0  0  0
    5.9624   12.8485    3.6452 C   0  0  2  0  0  3  0  0  0  0  0  0
    6.5582   12.4365    2.3345 C   0  0  2  0  0  0  0  0  0  0  0  0
    6.3825   13.6834    1.4343 C   0  0  0  0  0  0  0  0  0  0  0  0
    4.8851   13.9808    1.2203 C   0  0  1  0  0  0  0  0  0  0  0  0
    4.0438   13.0906    2.1850 C   0  0  1  0  0  0  0  0  0  0  0  0
    4.2596   11.6227    1.7809 C   0  0  0  0  0  0  0  0  0  0  0  0
    5.7613   11.3046    1.6410 C   0  0  2  0  0  0  0  0  0  0  0  0
    5.2142    8.8812    2.2012 C   0  0  0  0  0  0  0  0  0  0  0  0
    5.6042    7.5902    2.5203 C   0  0  0  0  0  0  0  0  0  0  0  0
    6.9404    7.2824    2.6959 C   0  0  0  0  0  0  0  0  0  0  0  0
    7.8877    8.2753    2.5184 C   0  0  0  0  0  0  0  0  0  0  0  0
    7.4960    9.5607    2.1918 C   0  0  0  0  0  0  0  0  0  0  0  0
    6.1506    9.8998    2.0569 C   0  0  0  0  0  0  0  0  0  0  0  0
    4.9848   16.2004    2.4501 C   0  0  0  0  0  0  0  0  0  0  0  0
    4.5863   17.5172    2.5976 C   0  0  0  0  0  0  0  0  0  0  0  0
    3.7116   18.0903    1.6915 C   0  0  0  0  0  0  0  0  0  0  0  0
    3.2353   17.3345    0.6346 C   0  0  0  0  0  0  0  0  0  0  0  0
    3.6329   16.0177    0.4908 C   0  0  0  0  0  0  0  0  0  0  0  0
    4.5141   15.4314    1.3922 C   0  0  0  0  0  0  0  0  0  0  0  0
    6.4307   10.4551    5.4275 C   0  0  0  0  0  0  0  0  0  0  0  0
    6.6116   11.1079    6.6716 C   0  0  0  0  0  3  0  0  0  0  0  0
    5.5368   10.7555    7.5074 C   0  0  0  0  0  0  0  0  0  0  0  0
    4.6723    9.9174    6.7807 C   0  0  0  0  0  0  0  0  0  0  0  0
    5.2267    9.7251    5.4948 C   0  0  0  0  0  0  0  0  0  0  0  0
    3.3958   14.6162    4.8520 H   0  0  0  0  0  0  0  0  0  0  0  0
    5.6148   14.7330    6.3661 H   0  0  0  0  0  0  0  0  0  0  0  0
    7.5536   13.3730    5.1169 H   0  0  0  0  0  0  0  0  0  0  0  0
    7.6195   12.1978    2.4206 H   0  0  0  0  0  0  0  0  0  0  0  0
    6.8688   13.5086    0.4728 H   0  0  0  0  0  0  0  0  0  0  0  0
    6.8801   14.5341    1.9005 H   0  0  0  0  0  0  0  0  0  0  0  0
    4.6029   13.6841    0.2049 H   0  0  0  0  0  0  0  0  0  0  0  0
    2.9858   13.3565    2.1244 H   0  0  0  0  0  0  0  0  0  0  0  0
    3.8065   11.0113    2.5624 H   0  0  0  0  0  0  0  0  0  0  0  0
    3.7427   11.4186    0.8418 H   0  0  0  0  0  0  0  0  0  0  0  0
    6.0295   11.3659    0.5766 H   0  0  0  0  0  0  0  0  0  0  0  0
    4.1638    9.0753    2.0521 H   0  0  0  0  0  0  0  0  0  0  0  0
    4.8537    6.8206    2.6286 H   0  0  0  0  0  0  0  0  0  0  0  0
    7.2426    6.2781    2.9509 H   0  0  0  0  0  0  0  0  0  0  0  0
    8.9383    8.0475    2.6254 H   0  0  0  0  0  0  0  0  0  0  0  0
    8.2628   10.3036    2.0254 H   0  0  0  0  0  0  0  0  0  0  0  0
    5.6659   15.7778    3.1728 H   0  0  0  0  0  0  0  0  0  0  0  0
    4.9617   18.0981    3.4275 H   0  0  0  0  0  0  0  0  0  0  0  0
    3.4032   19.1185    1.8082 H   0  0  0  0  0  0  0  0  0  0  0  0
    2.5525   17.7710   -0.0795 H   0  0  0  0  0  0  0  0  0  0  0  0
    3.2529   15.4350   -0.3371 H   0  0  0  0  0  0  0  0  0  0  0  0
    7.1590   10.3921    4.6314 H   0  0  0  0  0  0  0  0  0  0  0  0
    7.4967   11.6443    6.9886 H   0  0  0  0  0  0  0  0  0  0  0  0
    5.4251   11.0330    8.5464 H   0  0  0  0  0  0  0  0  0  0  0  0
    3.7765    9.4438    7.1624 H   0  0  0  0  0  0  0  0  0  0  0  0
    4.8574    9.0379    4.7458 H   0  0  0  0  0  0  0  0  0  0  0  0
  1  2  1  0  0  0  0
  3  1  1  0  0  0  0
  4  5  2  0  0  0  0
  5 32  1  0  0  0  0
  5  6  1  0  0  0  0
  6  1  1  0  0  0  0
  6 33  1  1  0  0  0
  7 34  1  0  0  0  0
  7  6  1  0  0  0  0
  8  4  1  6  0  0  0
  8  7  1  0  0  0  0
  9 35  1  1  0  0  0
  9  8  1  0  0  0  0
 10 37  1  0  0  0  0
 10  9  1  0  0  0  0
 11 38  1  6  0  0  0
 11 26  1  0  0  0  0
 11 10  1  0  0  0  0
 11 12  1  0  0  0  0
 12 39  1  6  0  0  0
 12  4  1  0  0  0  0
 13 12  1  0  0  0  0
 13 40  1  0  0  0  0
 14 42  1  6  0  0  0
 14 13  1  0  0  0  0
 14 20  1  0  0  0  0
 14  9  1  0  0  0  0
 15 16  1  0  0  0  0
 16 44  1  0  0  0  0
 16 17  2  0  0  0  0
 17 45  1  0  0  0  0
 18 46  1  0  0  0  0
 18 17  1  0  0  0  0
 19 18  2  0  0  0  0
 20 19  1  0  0  0  0
 20 15  2  0  0  0  0
 21 22  1  0  0  0  0
 21 48  1  0  0  0  0
 22 49  1  0  0  0  0
 23 50  1  0  0  0  0
 23 22  2  0  0  0  0
 24 23  1  0  0  0  0
 25 24  2  0  0  0  0
 25 26  1  0  0  0  0
 26 21  2  0  0  0  0
 27 31  2  0  0  0  0
 27 28  1  0  0  0  0
 28 54  1  0  0  0  0
 28 29  1  0  0  0  0
 29 55  1  0  0  0  0
 30 56  1  0  0  0  0
 30 29  2  0  0  0  0
 31 30  1  0  0  0  0
 36 10  1  0  0  0  0
 41 13  1  0  0  0  0
 43 15  1  0  0  0  0
 47 19  1  0  0  0  0
 51 24  1  0  0  0  0
 52 25  1  0  0  0  0
 53 27  1  0  0  0  0
 57 31  1  0  0  0  0
M  END
$$$$
