CSD_code = GAMCUS | q = 0 | S = 0 | Stoichiometry = C12H21Cl2N2ORh | MND = 6
 OpenBabel04212202043D

 39 40  0  0  0  0  0  0  0  0999 V2000
    2.1231    2.0185    0.5113 Rh  0  0  0  0  0  0  0  0  0  0  0  0
    4.4491    1.8037    0.2716 Cl  0  0  0  0  0  0  0  0  0  0  0  0
   -0.1599    1.9634    0.7143 Cl  0  0  0  0  0  0  0  0  0  0  0  0
    2.4467   -0.3590    0.9575 O   0  0  0  0  0  0  0  0  0  0  0  0
    2.0374    2.1349   -1.6891 N   0  0  0  0  0  4  0  0  0  0  0  0
    2.1965    2.6120    2.5735 N   0  0  0  0  0  4  0  0  0  0  0  0
    2.1236    3.9370    0.2730 C   0  0  0  0  0  0  0  0  0  0  0  0
    2.4172    4.4473   -0.9771 C   0  0  0  0  0  0  0  0  0  0  0  0
    2.4380    5.8264   -1.1262 C   0  0  0  0  0  0  0  0  0  0  0  0
    2.1803    6.6353   -0.0278 C   0  0  0  0  0  0  0  0  0  0  0  0
    1.8993    6.0999    1.2223 C   0  0  0  0  0  0  0  0  0  0  0  0
    1.8646    4.7227    1.3813 C   0  0  0  0  0  0  0  0  0  0  0  0
    2.7447    3.4047   -2.0128 C   0  0  0  0  0  0  0  0  0  0  0  0
    1.5232    3.9409    2.6222 C   0  0  0  0  0  0  0  0  0  0  0  0
    0.6686    2.2468   -2.2031 C   0  0  0  0  0  0  0  0  0  0  0  0
    2.6938    1.0186   -2.3721 C   0  0  0  0  0  0  0  0  0  0  0  0
    3.5697    2.7858    3.0548 C   0  0  0  0  0  0  0  0  0  0  0  0
    1.5137    1.6668    3.4584 C   0  0  0  0  0  0  0  0  0  0  0  0
    2.0661   -0.9494    0.3023 H   0  0  0  0  0  0  0  0  0  0  0  0
    3.3954   -0.2656    0.7645 H   0  0  0  0  0  0  0  0  0  0  0  0
    2.6603    6.2696   -2.0864 H   0  0  0  0  0  0  0  0  0  0  0  0
    2.2015    7.7083   -0.1482 H   0  0  0  0  0  0  0  0  0  0  0  0
    1.7047    6.7532    2.0609 H   0  0  0  0  0  0  0  0  0  0  0  0
    3.8214    3.2121   -1.9664 H   0  0  0  0  0  0  0  0  0  0  0  0
    2.4920    3.7277   -3.0306 H   0  0  0  0  0  0  0  0  0  0  0  0
    1.7979    4.4681    3.5440 H   0  0  0  0  0  0  0  0  0  0  0  0
    0.4422    3.7703    2.6230 H   0  0  0  0  0  0  0  0  0  0  0  0
    0.6833    2.3472   -3.2954 H   0  0  0  0  0  0  0  0  0  0  0  0
    0.0891    1.3651   -1.9351 H   0  0  0  0  0  0  0  0  0  0  0  0
    0.1823    3.1189   -1.7702 H   0  0  0  0  0  0  0  0  0  0  0  0
    3.7055    0.8930   -1.9869 H   0  0  0  0  0  0  0  0  0  0  0  0
    2.7431    1.2001   -3.4526 H   0  0  0  0  0  0  0  0  0  0  0  0
    2.1253    0.1030   -2.2027 H   0  0  0  0  0  0  0  0  0  0  0  0
    2.0243    0.7046    3.4190 H   0  0  0  0  0  0  0  0  0  0  0  0
    1.5146    2.0341    4.4910 H   0  0  0  0  0  0  0  0  0  0  0  0
    0.4865    1.5273    3.1255 H   0  0  0  0  0  0  0  0  0  0  0  0
    4.1142    1.8455    2.9870 H   0  0  0  0  0  0  0  0  0  0  0  0
    4.0847    3.5311    2.4503 H   0  0  0  0  0  0  0  0  0  0  0  0
    3.5637    3.1178    4.1000 H   0  0  0  0  0  0  0  0  0  0  0  0
  1  3  1  0  0  0  0
  1  6  1  0  0  0  0
  2  1  1  0  0  0  0
  5  1  1  0  0  0  0
  6 14  1  0  0  0  0
  6 17  1  0  0  0  0
  6 18  1  0  0  0  0
  7  1  1  0  0  0  0
  7 12  1  0  0  0  0
  8  7  2  0  0  0  0
  9  8  1  0  0  0  0
  9 10  2  0  0  0  0
 10 11  1  0  0  0  0
 11 12  2  0  0  0  0
 11 23  1  0  0  0  0
 12 14  1  0  0  0  0
 13 24  1  0  0  0  0
 13  5  1  0  0  0  0
 13  8  1  0  0  0  0
 14 27  1  0  0  0  0
 14 26  1  0  0  0  0
 15 29  1  0  0  0  0
 15 30  1  0  0  0  0
 15  5  1  0  0  0  0
 16 33  1  0  0  0  0
 16 31  1  0  0  0  0
 16  5  1  0  0  0  0
 17 39  1  0  0  0  0
 18 35  1  0  0  0  0
 19  4  1  0  0  0  0
 20  4  1  0  0  0  0
 21  9  1  0  0  0  0
 22 10  1  0  0  0  0
 25 13  1  0  0  0  0
 28 15  1  0  0  0  0
 32 16  1  0  0  0  0
 34 18  1  0  0  0  0
 36 18  1  0  0  0  0
 37 17  1  0  0  0  0
 38 17  1  0  0  0  0
M  END
$$$$
