CSD_code = GAMKOW | q = 0 | S = 0 | Stoichiometry = C20H28Cl4N8O2Pt | MND = 6
 OpenBabel04212202043D

 63 64  0  0  1  0  0  0  0  0999 V2000
    0.0007   -0.0007    0.0000 Pt  0  0  0  0  0  0  0  0  0  0  0  0
    1.4395   -1.5944    1.0035 Cl  0  0  0  0  0  0  0  0  0  0  0  0
   -1.2878    0.0342    1.9735 Cl  0  0  0  0  0  0  0  0  0  0  0  0
    3.0038    0.9941    0.3467 O   0  0  0  0  0  0  0  0  0  0  0  0
    0.9476    1.5663    0.8828 N   0  0  0  0  0  0  0  0  0  0  0  0
    0.3299    2.2045    1.3738 H   0  0  0  0  0  0  0  0  0  0  0  0
    2.6796    2.3928    2.1925 N   0  0  0  0  0  0  0  0  0  0  0  0
    4.2572    0.5187    0.8609 N   0  0  0  0  0  2  0  0  0  0  0  0
    4.1800   -1.0111   -0.9119 N   0  0  0  0  0  4  0  0  0  0  0  0
    3.2573   -0.6986   -1.2062 H   0  0  0  0  0  0  0  0  0  0  0  0
    4.4691   -1.9250   -1.2121 H   0  0  0  0  0  0  0  0  0  0  0  0
    2.2178    1.6572    1.1710 C   0  0  2  0  0  3  0  0  0  0  0  0
    1.7652    2.8942    3.1961 C   0  0  0  0  0  0  0  0  0  0  0  0
    1.3150    3.8463    2.8978 H   0  0  0  0  0  0  0  0  0  0  0  0
    2.3242    3.0490    4.1178 H   0  0  0  0  0  0  0  0  0  0  0  0
    0.9780    2.1657    3.3907 H   0  0  0  0  0  0  0  0  0  0  0  0
    4.0338    2.8921    2.2823 C   0  0  0  0  0  0  0  0  0  0  0  0
    4.6222    2.5392    1.4421 H   0  0  0  0  0  0  0  0  0  0  0  0
    4.5011    2.5369    3.2022 H   0  0  0  0  0  0  0  0  0  0  0  0
    4.0153    3.9849    2.2874 H   0  0  0  0  0  0  0  0  0  0  0  0
    4.7102   -0.4920    0.2042 C   0  0  0  0  0  0  0  0  0  0  0  0
    5.9719   -1.0545    0.7240 C   0  0  0  0  0  0  0  0  0  0  0  0
    6.2274   -1.0351    2.0918 C   0  0  0  0  0  0  0  0  0  0  0  0
    5.4905   -0.6019    2.7483 H   0  0  0  0  0  0  0  0  0  0  0  0
    7.3983   -1.5753    2.5889 C   0  0  0  0  0  0  0  0  0  0  0  0
    7.5880   -1.5634    3.6519 H   0  0  0  0  0  0  0  0  0  0  0  0
    8.3265   -2.1369    1.7270 C   0  0  0  0  0  0  0  0  0  0  0  0
    9.2402   -2.5614    2.1161 H   0  0  0  0  0  0  0  0  0  0  0  0
    8.0815   -2.1513    0.3643 C   0  0  0  0  0  0  0  0  0  0  0  0
    8.8070   -2.5808   -0.3106 H   0  0  0  0  0  0  0  0  0  0  0  0
    6.9097   -1.6146   -0.1380 C   0  0  0  0  0  0  0  0  0  0  0  0
    6.7350   -1.6103   -1.2040 H   0  0  0  0  0  0  0  0  0  0  0  0
   -1.4388    1.5941   -1.0020 Cl  0  0  0  0  0  0  0  0  0  0  0  0
    1.2882   -0.0321   -1.9743 Cl  0  0  0  0  0  0  0  0  0  0  0  0
   -3.0039   -0.9941   -0.3468 O   0  0  0  0  0  0  0  0  0  0  0  0
   -0.9477   -1.5666   -0.8828 N   0  0  0  0  0  0  0  0  0  0  0  0
   -0.3301   -2.2049   -1.3739 H   0  0  0  0  0  0  0  0  0  0  0  0
   -2.6797   -2.3928   -2.1926 N   0  0  0  0  0  0  0  0  0  0  0  0
   -4.2572   -0.5186   -0.8609 N   0  0  0  0  0  2  0  0  0  0  0  0
   -4.1801    1.0110    0.9119 N   0  0  0  0  0  4  0  0  0  0  0  0
   -3.2574    0.6985    1.2062 H   0  0  0  0  0  0  0  0  0  0  0  0
   -4.4692    1.9250    1.2122 H   0  0  0  0  0  0  0  0  0  0  0  0
   -2.2179   -1.6573   -1.1711 C   0  0  1  0  0  3  0  0  0  0  0  0
   -1.7652   -2.8942   -3.1961 C   0  0  0  0  0  0  0  0  0  0  0  0
   -1.3150   -3.8463   -2.8978 H   0  0  0  0  0  0  0  0  0  0  0  0
   -2.3242   -3.0490   -4.1179 H   0  0  0  0  0  0  0  0  0  0  0  0
   -0.9780   -2.1657   -3.3907 H   0  0  0  0  0  0  0  0  0  0  0  0
   -4.0339   -2.8921   -2.2823 C   0  0  0  0  0  0  0  0  0  0  0  0
   -4.6223   -2.5391   -1.4422 H   0  0  0  0  0  0  0  0  0  0  0  0
   -4.5012   -2.5369   -3.2023 H   0  0  0  0  0  0  0  0  0  0  0  0
   -4.0153   -3.9849   -2.2874 H   0  0  0  0  0  0  0  0  0  0  0  0
   -4.7102    0.4920   -0.2042 C   0  0  0  0  0  0  0  0  0  0  0  0
   -5.9719    1.0545   -0.7240 C   0  0  0  0  0  0  0  0  0  0  0  0
   -6.2274    1.0351   -2.0918 C   0  0  0  0  0  0  0  0  0  0  0  0
   -5.4906    0.6019   -2.7482 H   0  0  0  0  0  0  0  0  0  0  0  0
   -7.3983    1.5753   -2.5889 C   0  0  0  0  0  0  0  0  0  0  0  0
   -7.5881    1.5635   -3.6519 H   0  0  0  0  0  0  0  0  0  0  0  0
   -8.3266    2.1369   -1.7270 C   0  0  0  0  0  0  0  0  0  0  0  0
   -9.2402    2.5614   -2.1161 H   0  0  0  0  0  0  0  0  0  0  0  0
   -8.0816    2.1512   -0.3643 C   0  0  0  0  0  0  0  0  0  0  0  0
   -8.8070    2.5808    0.3106 H   0  0  0  0  0  0  0  0  0  0  0  0
   -6.9097    1.6146    0.1380 C   0  0  0  0  0  0  0  0  0  0  0  0
   -6.7351    1.6102    1.2040 H   0  0  0  0  0  0  0  0  0  0  0  0
  1  5  1  0  0  0  0
  1  2  1  0  0  0  0
  1  3  1  0  0  0  0
  4  8  1  0  0  0  0
  5 12  1  0  0  0  0
  5  6  1  0  0  0  0
  7 17  1  0  0  0  0
  7 13  1  0  0  0  0
  9 21  2  0  0  0  0
 10  9  1  0  0  0  0
 11  9  1  0  0  0  0
 12  4  1  6  0  0  0
 12  7  1  0  0  0  0
 13 16  1  0  0  0  0
 13 15  1  0  0  0  0
 14 13  1  0  0  0  0
 17 20  1  0  0  0  0
 17 19  1  0  0  0  0
 18 17  1  0  0  0  0
 21 22  1  0  0  0  0
 21  8  1  0  0  0  0
 22 23  1  0  0  0  0
 23 25  2  0  0  0  0
 23 24  1  0  0  0  0
 25 26  1  0  0  0  0
 27 28  1  0  0  0  0
 27 25  1  0  0  0  0
 29 27  2  0  0  0  0
 30 29  1  0  0  0  0
 31 29  1  0  0  0  0
 31 22  2  0  0  0  0
 32 31  1  0  0  0  0
 33  1  1  0  0  0  0
 34  1  1  0  0  0  0
 36  1  1  0  0  0  0
 37 36  1  0  0  0  0
 38 43  1  0  0  0  0
 39 35  1  0  0  0  0
 39 52  1  0  0  0  0
 40 41  1  0  0  0  0
 40 42  1  0  0  0  0
 43 36  1  0  0  0  0
 43 35  1  1  0  0  0
 44 45  1  0  0  0  0
 44 38  1  0  0  0  0
 46 44  1  0  0  0  0
 47 44  1  0  0  0  0
 48 38  1  0  0  0  0
 48 49  1  0  0  0  0
 50 48  1  0  0  0  0
 51 48  1  0  0  0  0
 52 40  2  0  0  0  0
 53 52  1  0  0  0  0
 53 62  1  0  0  0  0
 54 53  2  0  0  0  0
 55 54  1  0  0  0  0
 56 54  1  0  0  0  0
 56 58  2  0  0  0  0
 57 56  1  0  0  0  0
 58 60  1  0  0  0  0
 59 58  1  0  0  0  0
 60 62  2  0  0  0  0
 60 61  1  0  0  0  0
 62 63  1  0  0  0  0
M  END
$$$$
