CSD_code = GAMVIZ | q = 0 | S = 0 | Stoichiometry = C10H8CdCl2N8S2 | MND = 6
 OpenBabel04212202043D

 31 36  0  0  1  0  0  0  0  0999 V2000
    3.1571    5.3490    3.5663 Cd  0  0  0  0  0  0  0  0  0  0  0  0
    2.1481    3.6001    4.8976 Cl  0  0  0  0  0  0  0  0  0  0  0  0
    1.3751    6.4451   -0.4613 N   0  0  0  0  0  0  0  0  0  0  0  0
    0.8932    7.6848   -0.7099 C   0  0  0  0  0  3  0  0  0  0  0  0
    0.5279    8.5368    0.1881 N   0  0  0  0  0  0  0  0  0  0  0  0
    0.6840    8.0939    1.4561 C   0  0  0  0  0  0  0  0  0  0  0  0
    1.1571    6.8282    1.8186 C   0  0  0  0  0  0  0  0  0  0  0  0
    1.5644    5.9221    0.8043 C   0  0  0  0  0  0  0  0  0  0  0  0
    2.1952    4.4110    0.9925 S   0  0  0  0  0  0  0  0  0  0  0  0
    1.1947    6.7327    3.1777 N   0  0  0  0  0  0  0  0  0  0  0  0
    0.7767    7.8847    3.6238 C   0  0  0  0  0  3  0  0  0  0  0  0
    0.4417    8.7447    2.6223 N   0  0  0  0  0  0  0  0  0  0  0  0
    1.6835    5.8525   -1.2242 H   0  0  0  0  0  0  0  0  0  0  0  0
    0.8068    7.9776   -1.7459 H   0  0  0  0  0  0  0  0  0  0  0  0
    0.6966    8.1345    4.6647 H   0  0  0  0  0  0  0  0  0  0  0  0
    0.1324    9.6996    2.7121 H   0  0  0  0  0  0  0  0  0  0  0  0
    4.1709    7.0952    2.2345 Cl  0  0  0  0  0  0  0  0  0  0  0  0
    4.1168    6.2882    6.1409 S   0  0  0  0  0  0  0  0  0  0  0  0
    5.1228    3.9704    3.9538 N   0  0  0  0  0  0  0  0  0  0  0  0
    4.7522    4.7789    6.3277 C   0  0  1  0  0  3  0  0  0  0  0  0
    5.1619    3.8745    5.3128 C   0  0  0  0  0  0  0  0  0  0  0  0
    5.5441    2.8199    3.5069 C   0  0  0  0  0  3  0  0  0  0  0  0
    4.9439    4.2557    7.5930 N   0  0  0  0  0  0  0  0  0  0  0  0
    5.6391    2.6101    5.6745 C   0  0  0  0  0  0  0  0  0  0  0  0
    5.8827    1.9605    4.5078 N   0  0  0  0  0  0  0  0  0  0  0  0
    5.6241    2.5707    2.4658 H   0  0  0  0  0  0  0  0  0  0  0  0
    5.4291    3.0171    7.8407 C   0  0  0  0  0  0  0  0  0  0  0  0
    4.6339    4.8471    8.3562 H   0  0  0  0  0  0  0  0  0  0  0  0
    5.7968    2.1668    6.9420 N   0  0  0  0  0  0  0  0  0  0  0  0
    6.1944    1.0065    4.4174 H   0  0  0  0  0  0  0  0  0  0  0  0
    5.5162    2.7238    8.8765 H   0  0  0  0  0  0  0  0  0  0  0  0
  1 19  1  0  0  0  0
  1  2  1  0  0  0  0
  1 18  1  0  0  0  0
  3  8  1  0  0  0  0
  4  3  1  0  0  0  0
  4  5  1  0  0  0  0
  5  6  2  0  0  0  0
  6  7  1  0  0  0  0
  6 12  1  0  0  0  0
  7 10  1  0  0  0  0
  8  9  1  0  0  0  0
  8  7  2  0  0  0  0
  9  1  1  0  0  0  0
 10  1  1  0  0  0  0
 10 11  1  0  0  0  0
 11 15  1  0  0  0  0
 12 16  1  0  0  0  0
 12 11  1  0  0  0  0
 13  3  1  0  0  0  0
 14  4  1  0  0  0  0
 17  1  1  0  0  0  0
 18 20  1  0  0  0  0
 19 21  1  0  0  0  0
 20 21  1  1  0  0  0
 20 23  1  0  0  0  0
 21 24  2  0  0  0  0
 22 19  1  0  0  0  0
 22 25  1  0  0  0  0
 23 27  1  0  0  0  0
 23 28  1  0  0  0  0
 24 29  1  0  0  0  0
 25 24  1  0  0  0  0
 26 22  1  0  0  0  0
 27 31  1  0  0  0  0
 29 27  2  0  0  0  0
 30 25  1  0  0  0  0
M  END
$$$$
