CSD_code = GANNUH | q = 0 | S = 0 | Stoichiometry = C21H25ClCoN3O4 | MND = 6
 OpenBabel04212202043D

 55 60  0  0  1  0  0  0  0  0999 V2000
    7.9097    6.2594   10.1150 Co  0  0  0  0  0  0  0  0  0  0  0  0
    6.9525    4.2941    9.8365 Cl  0  0  0  0  0  0  0  0  0  0  0  0
    8.7452    7.9299   10.5013 O   0  0  0  0  0  0  0  0  0  0  0  0
   10.6937    9.2567   11.6494 O   0  0  0  0  0  0  0  0  0  0  0  0
    9.5406    5.5504    9.6065 O   0  0  0  0  0  0  0  0  0  0  0  0
   11.5852    4.6027    8.3509 O   0  0  0  0  0  0  0  0  0  0  0  0
    7.6580    6.8442    8.3201 N   0  0  2  0  0  0  0  0  0  0  0  0
    8.1411    5.8571   11.9099 N   0  0  2  0  0  0  0  0  0  0  0  0
    6.1298    7.0358   10.6250 N   0  0  1  0  0  4  0  0  0  0  0  0
    6.3201    8.0370   10.7078 H   0  0  0  0  0  0  0  0  0  0  0  0
    9.6830    8.3570    9.7280 C   0  0  0  0  0  0  0  0  0  0  0  0
   10.7660    9.1025   10.2905 C   0  0  0  0  0  0  0  0  0  0  0  0
   11.7707    9.5870    9.4870 C   0  0  0  0  0  0  0  0  0  0  0  0
   12.6031   10.1261    9.9127 H   0  0  0  0  0  0  0  0  0  0  0  0
   11.7428    9.3821    8.1030 C   0  0  0  0  0  0  0  0  0  0  0  0
   12.5484    9.7704    7.4989 H   0  0  0  0  0  0  0  0  0  0  0  0
   10.7026    8.7034    7.5290 C   0  0  0  0  0  0  0  0  0  0  0  0
   10.6722    8.5443    6.4610 H   0  0  0  0  0  0  0  0  0  0  0  0
    9.6678    8.1800    8.3209 C   0  0  0  0  0  0  0  0  0  0  0  0
    8.5368    7.5570    7.7139 C   0  0  0  0  0  3  0  0  0  0  0  0
    8.3916    7.7702    6.6510 H   0  0  0  0  0  0  0  0  0  0  0  0
    6.4230    6.5316    7.6443 C   0  0  0  0  0  0  0  0  0  0  0  0
    6.2243    5.4621    7.7487 H   0  0  0  0  0  0  0  0  0  0  0  0
    6.4869    6.7923    6.5802 H   0  0  0  0  0  0  0  0  0  0  0  0
    5.2840    7.3252    8.2998 C   0  0  0  0  0  0  0  0  0  0  0  0
    5.5455    8.3876    8.3083 H   0  0  0  0  0  0  0  0  0  0  0  0
    4.3798    7.2008    7.7025 H   0  0  0  0  0  0  0  0  0  0  0  0
    4.9934    6.8424    9.7179 C   0  0  0  0  0  0  0  0  0  0  0  0
    4.1105    7.3668   10.1106 H   0  0  0  0  0  0  0  0  0  0  0  0
    4.7868    5.7693    9.6878 H   0  0  0  0  0  0  0  0  0  0  0  0
    5.8403    6.5111   11.9637 C   0  0  0  0  0  0  0  0  0  0  0  0
    5.4800    5.4861   11.8417 H   0  0  0  0  0  0  0  0  0  0  0  0
    5.0764    7.1080   12.4782 H   0  0  0  0  0  0  0  0  0  0  0  0
    7.1473    6.4859   12.7490 C   0  0  0  0  0  0  0  0  0  0  0  0
    7.4782    7.5122   12.9548 H   0  0  0  0  0  0  0  0  0  0  0  0
    7.0271    5.9524   13.6991 H   0  0  0  0  0  0  0  0  0  0  0  0
    9.1106    5.1932   12.4353 C   0  0  0  0  0  3  0  0  0  0  0  0
    9.1131    5.0464   13.5177 H   0  0  0  0  0  0  0  0  0  0  0  0
   10.2014    4.6339   11.7231 C   0  0  0  0  0  0  0  0  0  0  0  0
   11.1617    3.8643   12.4154 C   0  0  0  0  0  0  0  0  0  0  0  0
   11.0220    3.6962   13.4735 H   0  0  0  0  0  0  0  0  0  0  0  0
   12.2385    3.3387   11.7653 C   0  0  0  0  0  0  0  0  0  0  0  0
   12.9682    2.7448   12.2939 H   0  0  0  0  0  0  0  0  0  0  0  0
   12.4128    3.5672   10.3911 C   0  0  0  0  0  0  0  0  0  0  0  0
   13.2763    3.1415    9.9038 H   0  0  0  0  0  0  0  0  0  0  0  0
   11.5064    4.3117    9.6821 C   0  0  0  0  0  0  0  0  0  0  0  0
   10.3476    4.8691   10.3289 C   0  0  0  0  0  0  0  0  0  0  0  0
   11.7453    9.9242   12.2951 C   0  0  0  0  0  0  0  0  0  0  0  0
   11.4961    9.9143   13.3555 H   0  0  0  0  0  0  0  0  0  0  0  0
   12.7020    9.4123   12.1448 H   0  0  0  0  0  0  0  0  0  0  0  0
   11.8344   10.9626   11.9559 H   0  0  0  0  0  0  0  0  0  0  0  0
   12.6625    4.0781    7.6218 C   0  0  0  0  0  0  0  0  0  0  0  0
   12.5201    4.4198    6.5977 H   0  0  0  0  0  0  0  0  0  0  0  0
   13.6233    4.4498    7.9958 H   0  0  0  0  0  0  0  0  0  0  0  0
   12.6673    2.9824    7.6397 H   0  0  0  0  0  0  0  0  0  0  0  0
  1  3  1  0  0  0  0
  1  9  1  0  0  0  0
  1  8  1  0  0  0  0
  2  1  1  0  0  0  0
  4 48  1  0  0  0  0
  5  1  1  0  0  0  0
  5 47  1  0  0  0  0
  6 46  1  0  0  0  0
  7 20  1  1  0  0  0
  7  1  1  0  0  0  0
  8 37  1  1  0  0  0
  8 34  1  0  0  0  0
  9 10  1  1  0  0  0
  9 31  1  0  0  0  0
 11 12  1  0  0  0  0
 11  3  1  0  0  0  0
 12  4  1  0  0  0  0
 13 14  1  0  0  0  0
 13 12  2  0  0  0  0
 15 13  1  0  0  0  0
 16 15  1  0  0  0  0
 17 15  2  0  0  0  0
 17 19  1  0  0  0  0
 18 17  1  0  0  0  0
 19 11  2  0  0  0  0
 20 19  1  0  0  0  0
 21 20  1  0  0  0  0
 22 23  1  0  0  0  0
 22 25  1  0  0  0  0
 22  7  1  0  0  0  0
 24 22  1  0  0  0  0
 25 26  1  0  0  0  0
 25 28  1  0  0  0  0
 27 25  1  0  0  0  0
 28 29  1  0  0  0  0
 28  9  1  0  0  0  0
 30 28  1  0  0  0  0
 31 33  1  0  0  0  0
 31 34  1  0  0  0  0
 32 31  1  0  0  0  0
 34 35  1  0  0  0  0
 34 36  1  0  0  0  0
 37 38  1  0  0  0  0
 39 40  1  0  0  0  0
 39 37  1  0  0  0  0
 40 41  1  0  0  0  0
 42 43  1  0  0  0  0
 42 40  2  0  0  0  0
 44 42  1  0  0  0  0
 45 44  1  0  0  0  0
 46 47  1  0  0  0  0
 46 44  2  0  0  0  0
 47 39  2  0  0  0  0
 48 49  1  0  0  0  0
 50 48  1  0  0  0  0
 51 48  1  0  0  0  0
 52 55  1  0  0  0  0
 52 54  1  0  0  0  0
 52  6  1  0  0  0  0
 53 52  1  0  0  0  0
M  END
$$$$
