CSD_code = GANNOB | q = 0 | S = 0 | Stoichiometry = C19H21ClCoN3O2 | MND = 6
 OpenBabel04212202043D

 47 52  0  0  1  0  0  0  0  0999 V2000
    0.1040    3.4499    8.4328 Co  0  0  0  0  0  0  0  0  0  0  0  0
   -1.4437    3.1265    9.9706 Cl  0  0  0  0  0  0  0  0  0  0  0  0
    1.4454    3.5731    7.0763 O   0  0  0  0  0  0  0  0  0  0  0  0
   -1.2126    3.6652    7.1432 O   0  0  0  0  0  0  0  0  0  0  0  0
    0.1615    5.3425    8.6328 N   0  0  2  0  0  0  0  0  0  0  0  0
    1.5224    3.2559    9.8513 N   0  0  1  0  0  4  0  0  0  0  0  0
    2.3903    3.4789    9.3589 H   0  0  0  0  0  0  0  0  0  0  0  0
    0.2147    1.6092    8.2165 N   0  0  2  0  0  0  0  0  0  0  0  0
    1.3184    4.4358    6.1255 C   0  0  0  0  0  0  0  0  0  0  0  0
    1.8306    4.1447    4.8416 C   0  0  0  0  0  0  0  0  0  0  0  0
    2.2842    3.1761    4.6920 H   0  0  0  0  0  0  0  0  0  0  0  0
    1.7335    5.0468    3.8128 C   0  0  0  0  0  0  0  0  0  0  0  0
    2.1146    4.7837    2.8362 H   0  0  0  0  0  0  0  0  0  0  0  0
    1.1435    6.2962    4.0085 C   0  0  0  0  0  0  0  0  0  0  0  0
    1.0683    6.9939    3.1886 H   0  0  0  0  0  0  0  0  0  0  0  0
    0.6686    6.6273    5.2537 C   0  0  0  0  0  0  0  0  0  0  0  0
    0.2174    7.5954    5.4241 H   0  0  0  0  0  0  0  0  0  0  0  0
    0.7390    5.7238    6.3216 C   0  0  0  0  0  0  0  0  0  0  0  0
    0.3449    6.1259    7.6323 C   0  0  0  0  0  3  0  0  0  0  0  0
    0.2633    7.2048    7.7937 H   0  0  0  0  0  0  0  0  0  0  0  0
    0.0641    5.9151    9.9533 C   0  0  0  0  0  0  0  0  0  0  0  0
   -0.7978    5.4799   10.4649 H   0  0  0  0  0  0  0  0  0  0  0  0
   -0.0540    7.0044    9.8944 H   0  0  0  0  0  0  0  0  0  0  0  0
    1.3411    5.5783   10.7355 C   0  0  0  0  0  0  0  0  0  0  0  0
    2.2129    5.8969   10.1561 H   0  0  0  0  0  0  0  0  0  0  0  0
    1.3346    6.1322   11.6752 H   0  0  0  0  0  0  0  0  0  0  0  0
    1.4354    4.0897   11.0553 C   0  0  0  0  0  0  0  0  0  0  0  0
    2.3077    3.9058   11.6987 H   0  0  0  0  0  0  0  0  0  0  0  0
    0.5301    3.7889   11.5887 H   0  0  0  0  0  0  0  0  0  0  0  0
    1.5415    1.8307   10.1967 C   0  0  0  0  0  0  0  0  0  0  0  0
    0.6951    1.6450   10.8632 H   0  0  0  0  0  0  0  0  0  0  0  0
    2.4731    1.5465   10.7024 H   0  0  0  0  0  0  0  0  0  0  0  0
    1.3417    1.0328    8.9131 C   0  0  0  0  0  0  0  0  0  0  0  0
    2.2271    1.1336    8.2716 H   0  0  0  0  0  0  0  0  0  0  0  0
    1.1796   -0.0294    9.1306 H   0  0  0  0  0  0  0  0  0  0  0  0
   -0.5393    0.8701    7.4810 C   0  0  0  0  0  3  0  0  0  0  0  0
   -0.3523   -0.2061    7.4598 H   0  0  0  0  0  0  0  0  0  0  0  0
   -1.6038    1.3414    6.6709 C   0  0  0  0  0  0  0  0  0  0  0  0
   -2.3893    0.4174    5.9568 C   0  0  0  0  0  0  0  0  0  0  0  0
   -2.1715   -0.6358    6.0714 H   0  0  0  0  0  0  0  0  0  0  0  0
   -3.4059    0.8258    5.1370 C   0  0  0  0  0  0  0  0  0  0  0  0
   -4.0018    0.1055    4.5979 H   0  0  0  0  0  0  0  0  0  0  0  0
   -3.6674    2.1946    5.0018 C   0  0  0  0  0  0  0  0  0  0  0  0
   -4.4677    2.5211    4.3531 H   0  0  0  0  0  0  0  0  0  0  0  0
   -2.9264    3.1222    5.6797 C   0  0  0  0  0  0  0  0  0  0  0  0
   -3.1224    4.1790    5.5814 H   0  0  0  0  0  0  0  0  0  0  0  0
   -1.8689    2.7394    6.5462 C   0  0  0  0  0  0  0  0  0  0  0  0
  1  5  1  0  0  0  0
  1  6  1  0  0  0  0
  1  2  1  0  0  0  0
  3  1  1  0  0  0  0
  4  1  1  0  0  0  0
  5 19  1  1  0  0  0
  5 21  1  0  0  0  0
  6  7  1  6  0  0  0
  6 30  1  0  0  0  0
  6 27  1  0  0  0  0
  8 36  1  6  0  0  0
  8  1  1  0  0  0  0
  8 33  1  0  0  0  0
  9 18  1  0  0  0  0
  9  3  1  0  0  0  0
 10  9  2  0  0  0  0
 11 10  1  0  0  0  0
 12 14  2  0  0  0  0
 12 10  1  0  0  0  0
 13 12  1  0  0  0  0
 14 16  1  0  0  0  0
 15 14  1  0  0  0  0
 16 17  1  0  0  0  0
 16 18  2  0  0  0  0
 18 19  1  0  0  0  0
 19 20  1  0  0  0  0
 21 22  1  0  0  0  0
 21 24  1  0  0  0  0
 23 21  1  0  0  0  0
 24 27  1  0  0  0  0
 24 26  1  0  0  0  0
 25 24  1  0  0  0  0
 27 29  1  0  0  0  0
 27 28  1  0  0  0  0
 30 32  1  0  0  0  0
 30 31  1  0  0  0  0
 33 35  1  0  0  0  0
 33 30  1  0  0  0  0
 34 33  1  0  0  0  0
 37 36  1  0  0  0  0
 38 36  1  0  0  0  0
 39 40  1  0  0  0  0
 39 38  2  0  0  0  0
 41 39  1  0  0  0  0
 42 41  1  0  0  0  0
 43 41  2  0  0  0  0
 43 45  1  0  0  0  0
 44 43  1  0  0  0  0
 45 47  2  0  0  0  0
 46 45  1  0  0  0  0
 47 38  1  0  0  0  0
 47  4  1  0  0  0  0
M  END
$$$$
