CSD_code = GANNAL | q = 0 | S = 0 | Stoichiometry = C24H18ClN2OPPd | MND = 4
 OpenBabel04212202043D

 48 53  0  0  1  0  0  0  0  0999 V2000
    9.5253    5.3866    4.0998 Pd  0  0  2  0  0  0  0  0  0  0  0  0
    9.8901    3.9327    2.4695 Cl  0  0  0  0  0  0  0  0  0  0  0  0
   10.4294    7.6535    5.5648 P   0  0  0  0  0  4  0  0  0  0  0  0
   11.3891    9.9985    6.7309 C   0  0  0  0  0  0  0  0  0  0  0  0
   12.3496    9.7256    6.3148 H   0  0  0  0  0  0  0  0  0  0  0  0
    8.9090   10.6723    7.7892 C   0  0  0  0  0  0  0  0  0  0  0  0
    7.9476   10.9375    8.2029 H   0  0  0  0  0  0  0  0  0  0  0  0
   11.9386    6.7487    6.0186 C   0  0  0  0  0  0  0  0  0  0  0  0
   10.2954    9.1575    6.5526 C   0  0  0  0  0  0  0  0  0  0  0  0
   12.5088    6.9174    7.2749 C   0  0  0  0  0  0  0  0  0  0  0  0
   12.1110    7.6600    7.9510 H   0  0  0  0  0  0  0  0  0  0  0  0
    9.9995   11.5066    7.9759 C   0  0  0  0  0  0  0  0  0  0  0  0
    9.8865   12.4223    8.5370 H   0  0  0  0  0  0  0  0  0  0  0  0
   11.2363   11.1724    7.4454 C   0  0  0  0  0  0  0  0  0  0  0  0
   12.0820   11.8283    7.5909 H   0  0  0  0  0  0  0  0  0  0  0  0
   14.0489    5.1386    6.7997 C   0  0  0  0  0  0  0  0  0  0  0  0
   14.8682    4.5061    7.1075 H   0  0  0  0  0  0  0  0  0  0  0  0
   13.4785    4.9692    5.5470 C   0  0  0  0  0  0  0  0  0  0  0  0
   13.8528    4.2103    4.8765 H   0  0  0  0  0  0  0  0  0  0  0  0
    9.0533    9.4984    7.0723 C   0  0  0  0  0  0  0  0  0  0  0  0
    8.2160    8.8324    6.9164 H   0  0  0  0  0  0  0  0  0  0  0  0
   13.5667    6.1116    7.6594 C   0  0  0  0  0  0  0  0  0  0  0  0
   14.0062    6.2371    8.6375 H   0  0  0  0  0  0  0  0  0  0  0  0
   12.4204    5.7687    5.1496 C   0  0  0  0  0  0  0  0  0  0  0  0
   11.9833    5.6352    4.1504 H   0  0  0  0  0  0  0  0  0  0  0  0
    9.5584    6.3602    7.9428 O   0  0  0  0  0  0  0  0  0  0  0  0
    9.1901    6.6038    5.7099 N   0  0  0  0  0  0  0  0  0  0  0  0
    8.7889    3.9599    5.5396 N   0  0  0  0  0  0  0  0  0  0  0  0
    9.1454    5.9219    6.8782 C   0  0  0  0  0  0  0  0  0  0  0  0
    8.5768    4.5417    6.7299 C   0  0  2  0  0  3  0  0  0  0  0  0
    8.3543    2.7212    5.3413 C   0  0  0  0  0  0  0  0  0  0  0  0
    8.5574    2.2987    4.3629 H   0  0  0  0  0  0  0  0  0  0  0  0
   10.4061    8.0540    3.8134 C   0  0  0  0  0  0  0  0  0  0  0  0
    9.9913    6.9781    3.0019 C   0  0  0  0  0  0  0  0  0  0  0  0
    9.9258    7.2090    1.6293 C   0  0  0  0  0  0  0  0  0  0  0  0
    9.6204    6.4104    0.9655 H   0  0  0  0  0  0  0  0  0  0  0  0
    7.6894    2.0054    6.3263 C   0  0  0  0  0  0  0  0  0  0  0  0
    7.3473    1.0027    6.1246 H   0  0  0  0  0  0  0  0  0  0  0  0
    7.9402    3.8861    7.7733 C   0  0  0  0  0  0  0  0  0  0  0  0
    7.8174    4.3955    8.7161 H   0  0  0  0  0  0  0  0  0  0  0  0
    7.4810    2.5955    7.5639 C   0  0  0  0  0  0  0  0  0  0  0  0
    6.9725    2.0600    8.3517 H   0  0  0  0  0  0  0  0  0  0  0  0
   10.7535    9.2946    3.2924 C   0  0  0  0  0  0  0  0  0  0  0  0
   11.0644   10.0955    3.9506 H   0  0  0  0  0  0  0  0  0  0  0  0
   10.2638    8.4476    1.1046 C   0  0  0  0  0  0  0  0  0  0  0  0
   10.2042    8.6061    0.0373 H   0  0  0  0  0  0  0  0  0  0  0  0
   10.6780    9.4867    1.9257 C   0  0  0  0  0  0  0  0  0  0  0  0
   10.9375   10.4448    1.4997 H   0  0  0  0  0  0  0  0  0  0  0  0
  1  2  1  1  0  0  0
  1 28  1  0  0  0  0
  1 27  1  0  0  0  0
  3 27  1  0  0  0  0
  3  8  1  0  0  0  0
  3  9  1  0  0  0  0
  4 14  1  0  0  0  0
  5  4  1  0  0  0  0
  6 12  1  0  0  0  0
  6  7  1  0  0  0  0
  8 10  1  0  0  0  0
  9  4  2  0  0  0  0
  9 20  1  0  0  0  0
 10 22  2  0  0  0  0
 10 11  1  0  0  0  0
 12 13  1  0  0  0  0
 14 15  1  0  0  0  0
 14 12  2  0  0  0  0
 16 17  1  0  0  0  0
 16 22  1  0  0  0  0
 18 16  2  0  0  0  0
 19 18  1  0  0  0  0
 20  6  2  0  0  0  0
 21 20  1  0  0  0  0
 22 23  1  0  0  0  0
 24 18  1  0  0  0  0
 24  8  2  0  0  0  0
 25 24  1  0  0  0  0
 27 29  1  0  0  0  0
 28 30  1  0  0  0  0
 29 26  2  0  0  0  0
 30 29  1  1  0  0  0
 30 39  1  0  0  0  0
 31 28  1  0  0  0  0
 31 37  2  0  0  0  0
 32 31  1  0  0  0  0
 33  3  1  0  0  0  0
 34 33  2  0  0  0  0
 34  1  1  0  0  0  0
 35 34  1  0  0  0  0
 36 35  1  0  0  0  0
 37 41  1  0  0  0  0
 38 37  1  0  0  0  0
 39 40  1  0  0  0  0
 41 39  2  0  0  0  0
 41 42  1  0  0  0  0
 43 33  1  0  0  0  0
 43 44  1  0  0  0  0
 45 35  2  0  0  0  0
 45 47  1  0  0  0  0
 46 45  1  0  0  0  0
 47 43  2  0  0  0  0
 48 47  1  0  0  0  0
M  END
$$$$
