CSD_code = GAQHEL | q = 0 | S = 0 | Stoichiometry = C16H25IN2Pt | MND = 6
 OpenBabel04212202043D

 45 48  0  0  1  0  0  0  0  0999 V2000
    2.7594    1.2195    2.4331 Pt  0  0  0  0  0  0  0  0  0  0  0  0
    0.1852    1.8278    3.0079 I   0  0  0  0  0  0  0  0  0  0  0  0
    2.0582   -0.4283    1.2166 N   0  0  2  0  0  0  0  0  0  0  0  0
    2.5356   -0.7315    3.8712 N   0  0  0  0  0  4  0  0  0  0  0  0
    4.7344    0.7813    2.0008 C   0  0  0  0  0  0  0  0  0  0  0  0
    3.4384    2.7729    3.6202 C   0  0  0  0  0  0  0  0  0  0  0  0
    3.4618    2.3095    5.0714 C   0  0  0  0  0  0  0  0  0  0  0  0
    2.6424    2.1732    0.6787 C   0  0  0  0  0  0  0  0  0  0  0  0
    2.9324    3.4884    0.3694 C   0  0  0  0  0  0  0  0  0  0  0  0
    2.6987    3.9685   -0.9113 C   0  0  0  0  0  0  0  0  0  0  0  0
    2.1736    3.1417   -1.8942 C   0  0  0  0  0  0  0  0  0  0  0  0
    1.8792    1.8269   -1.6006 C   0  0  0  0  0  0  0  0  0  0  0  0
    2.1106    1.3260   -0.3170 C   0  0  0  0  0  0  0  0  0  0  0  0
    1.8001   -0.0413    0.0322 C   0  0  0  0  0  3  0  0  0  0  0  0
    1.8241   -1.7451    1.7286 C   0  0  1  0  0  0  0  0  0  0  0  0
    3.0555   -2.6262    1.4682 C   0  0  0  0  0  0  0  0  0  0  0  0
    2.8848   -3.9975    2.1107 C   0  0  0  0  0  0  0  0  0  0  0  0
    2.6773   -3.8569    3.6152 C   0  0  0  0  0  0  0  0  0  0  0  0
    1.4511   -2.9933    3.9011 C   0  0  0  0  0  0  0  0  0  0  0  0
    1.5402   -1.6120    3.2419 C   0  0  1  0  0  0  0  0  0  0  0  0
    3.4211   -1.2236    3.9679 H   0  0  0  0  0  0  0  0  0  0  0  0
    2.2151   -0.4866    4.8056 H   0  0  0  0  0  0  0  0  0  0  0  0
    5.2129    0.3815    2.8986 H   0  0  0  0  0  0  0  0  0  0  0  0
    5.3159    1.6408    1.6691 H   0  0  0  0  0  0  0  0  0  0  0  0
    4.7903    0.0274    1.2131 H   0  0  0  0  0  0  0  0  0  0  0  0
    4.4384    3.1188    3.3361 H   0  0  0  0  0  0  0  0  0  0  0  0
    2.7540    3.6243    3.5303 H   0  0  0  0  0  0  0  0  0  0  0  0
    3.7991    3.1259    5.7136 H   0  0  0  0  0  0  0  0  0  0  0  0
    4.1505    1.4749    5.2175 H   0  0  0  0  0  0  0  0  0  0  0  0
    2.4661    2.0231    5.4122 H   0  0  0  0  0  0  0  0  0  0  0  0
    3.3345    4.1536    1.1199 H   0  0  0  0  0  0  0  0  0  0  0  0
    2.9247    4.9994   -1.1412 H   0  0  0  0  0  0  0  0  0  0  0  0
    1.9913    3.5288   -2.8853 H   0  0  0  0  0  0  0  0  0  0  0  0
    1.4632    1.1748   -2.3557 H   0  0  0  0  0  0  0  0  0  0  0  0
    1.3418   -0.6971   -0.7126 H   0  0  0  0  0  0  0  0  0  0  0  0
    0.9506   -2.2112    1.2445 H   0  0  0  0  0  0  0  0  0  0  0  0
    3.1964   -2.7257    0.3890 H   0  0  0  0  0  0  0  0  0  0  0  0
    3.9441   -2.1364    1.8722 H   0  0  0  0  0  0  0  0  0  0  0  0
    2.0210   -4.5019    1.6712 H   0  0  0  0  0  0  0  0  0  0  0  0
    3.7678   -4.6070    1.9090 H   0  0  0  0  0  0  0  0  0  0  0  0
    3.5705   -3.4156    4.0667 H   0  0  0  0  0  0  0  0  0  0  0  0
    2.5405   -4.8409    4.0670 H   0  0  0  0  0  0  0  0  0  0  0  0
    1.3191   -2.8702    4.9792 H   0  0  0  0  0  0  0  0  0  0  0  0
    0.5624   -3.4988    3.5178 H   0  0  0  0  0  0  0  0  0  0  0  0
    0.5693   -1.1147    3.3514 H   0  0  0  0  0  0  0  0  0  0  0  0
  1  2  1  0  0  0  0
  1  6  1  0  0  0  0
  1  4  1  0  0  0  0
  3 14  1  1  0  0  0
  3 15  1  0  0  0  0
  3  1  1  0  0  0  0
  4 21  1  0  0  0  0
  4 22  1  0  0  0  0
  5  1  1  0  0  0  0
  5 23  1  0  0  0  0
  6  7  1  0  0  0  0
  7 29  1  0  0  0  0
  7 30  1  0  0  0  0
  7 28  1  0  0  0  0
  8  1  1  0  0  0  0
  9  8  1  0  0  0  0
  9 31  1  0  0  0  0
 10  9  2  0  0  0  0
 11 12  2  0  0  0  0
 11 10  1  0  0  0  0
 12 13  1  0  0  0  0
 13 14  1  0  0  0  0
 13  8  2  0  0  0  0
 15 36  1  6  0  0  0
 15 20  1  0  0  0  0
 16 15  1  0  0  0  0
 16 38  1  0  0  0  0
 16 17  1  0  0  0  0
 17 18  1  0  0  0  0
 18 19  1  0  0  0  0
 18 41  1  0  0  0  0
 18 42  1  0  0  0  0
 19 43  1  0  0  0  0
 20 45  1  1  0  0  0
 20  4  1  0  0  0  0
 20 19  1  0  0  0  0
 24  5  1  0  0  0  0
 25  5  1  0  0  0  0
 26  6  1  0  0  0  0
 27  6  1  0  0  0  0
 32 10  1  0  0  0  0
 33 11  1  0  0  0  0
 34 12  1  0  0  0  0
 35 14  1  0  0  0  0
 37 16  1  0  0  0  0
 39 17  1  0  0  0  0
 40 17  1  0  0  0  0
 44 19  1  0  0  0  0
M  END
$$$$
