CSD_code = GAQWUR | q = 0 | S = 0 | Stoichiometry = C32H26Cl2Zr | MND = 12
 OpenBabel04212202043D

 61 66  0  0  1  0  0  0  0  0999 V2000
    8.2178    1.6991    4.8966 Zr  0  0  0  0  0  0  0  0  0  0  0  0
    8.4669    3.3403    6.5351 Cl  0  0  0  0  0  0  0  0  0  0  0  0
    6.4765    0.0357    4.1642 C   0  0  0  0  0  0  0  0  0  0  0  0
    6.4707   -0.6122    3.2959 H   0  0  0  0  0  0  0  0  0  0  0  0
    6.8584   -0.3352    5.4757 C   0  0  0  0  0  0  0  0  0  0  0  0
    7.2326   -1.3109    5.7664 H   0  0  0  0  0  0  0  0  0  0  0  0
    6.5742    0.7133    6.3766 C   0  0  2  0  0  0  0  0  0  0  0  0
    5.8914    1.7364    5.6308 C   0  0  0  0  0  0  0  0  0  0  0  0
    5.8215    1.3006    4.2520 C   0  0  0  0  0  0  0  0  0  0  0  0
    5.1528    2.0972    3.3010 C   0  0  0  0  0  0  0  0  0  0  0  0
    5.0748    1.7658    2.2738 H   0  0  0  0  0  0  0  0  0  0  0  0
    4.6087    3.2894    3.7038 C   0  0  0  0  0  0  0  0  0  0  0  0
    4.0942    3.9124    2.9878 H   0  0  0  0  0  0  0  0  0  0  0  0
    4.7073    3.7297    5.0371 C   0  0  0  0  0  0  0  0  0  0  0  0
    4.2687    4.6799    5.3029 H   0  0  0  0  0  0  0  0  0  0  0  0
    5.3316    2.9773    5.9995 C   0  0  0  0  0  0  0  0  0  0  0  0
    5.3752    3.3095    7.0281 H   0  0  0  0  0  0  0  0  0  0  0  0
    6.7846    0.6952    7.8699 C   0  0  0  0  0  0  0  0  0  0  0  0
    7.2637   -0.2500    8.1526 H   0  0  0  0  0  0  0  0  0  0  0  0
    7.4427    1.5199    8.1723 H   0  0  0  0  0  0  0  0  0  0  0  0
    5.4653    0.8206    8.5957 C   0  0  0  0  0  0  0  0  0  0  0  0
    4.4149   -0.0311    8.2765 C   0  0  0  0  0  0  0  0  0  0  0  0
    4.5520   -0.7789    7.5083 H   0  0  0  0  0  0  0  0  0  0  0  0
    3.1998    0.0780    8.9267 C   0  0  0  0  0  0  0  0  0  0  0  0
    2.3903   -0.5895    8.6699 H   0  0  0  0  0  0  0  0  0  0  0  0
    3.0197    1.0420    9.9045 C   0  0  0  0  0  0  0  0  0  0  0  0
    2.0708    1.1276   10.4131 H   0  0  0  0  0  0  0  0  0  0  0  0
    4.0599    1.8964   10.2256 C   0  0  0  0  0  0  0  0  0  0  0  0
    3.9240    2.6523   10.9853 H   0  0  0  0  0  0  0  0  0  0  0  0
    5.2759    1.7869    9.5730 C   0  0  0  0  0  0  0  0  0  0  0  0
    6.0843    2.4597    9.8225 H   0  0  0  0  0  0  0  0  0  0  0  0
    7.9689    3.3390    3.2565 Cl  0  0  0  0  0  0  0  0  0  0  0  0
    9.9589    0.0352    5.6304 C   0  0  0  0  0  0  0  0  0  0  0  0
    9.9647   -0.6123    6.4990 H   0  0  0  0  0  0  0  0  0  0  0  0
    9.5771   -0.3365    4.3191 C   0  0  0  0  0  0  0  0  0  0  0  0
    9.2028   -1.3123    4.0290 H   0  0  0  0  0  0  0  0  0  0  0  0
    9.8613    0.7115    3.4176 C   0  0  2  0  0  0  0  0  0  0  0  0
   10.5440    1.7350    4.1629 C   0  0  0  0  0  0  0  0  0  0  0  0
   10.6138    1.3000    5.5419 C   0  0  0  0  0  0  0  0  0  0  0  0
   11.2825    2.0972    6.4925 C   0  0  0  0  0  0  0  0  0  0  0  0
   11.3605    1.7662    7.5199 H   0  0  0  0  0  0  0  0  0  0  0  0
   11.8265    3.2892    6.0892 C   0  0  0  0  0  0  0  0  0  0  0  0
   12.3410    3.9125    6.8048 H   0  0  0  0  0  0  0  0  0  0  0  0
   11.7279    3.7288    4.7556 C   0  0  0  0  0  0  0  0  0  0  0  0
   12.1663    4.6790    4.4894 H   0  0  0  0  0  0  0  0  0  0  0  0
   11.1037    2.9759    3.7936 C   0  0  0  0  0  0  0  0  0  0  0  0
   11.0600    3.3075    2.7649 H   0  0  0  0  0  0  0  0  0  0  0  0
    9.6510    0.6926    1.9243 C   0  0  0  0  0  0  0  0  0  0  0  0
    9.1732   -0.2533    1.6420 H   0  0  0  0  0  0  0  0  0  0  0  0
    8.9919    1.5163    1.6215 H   0  0  0  0  0  0  0  0  0  0  0  0
   10.9703    0.8196    1.1989 C   0  0  0  0  0  0  0  0  0  0  0  0
   12.0215   -0.0312    1.5181 C   0  0  0  0  0  0  0  0  0  0  0  0
   11.8849   -0.7795    2.2859 H   0  0  0  0  0  0  0  0  0  0  0  0
   13.2367    0.0794    0.8683 C   0  0  0  0  0  0  0  0  0  0  0  0
   14.0469   -0.5871    1.1253 H   0  0  0  0  0  0  0  0  0  0  0  0
   13.4161    1.0441   -0.1091 C   0  0  0  0  0  0  0  0  0  0  0  0
   14.3652    1.1310   -0.6171 H   0  0  0  0  0  0  0  0  0  0  0  0
   12.3751    1.8975   -0.4302 C   0  0  0  0  0  0  0  0  0  0  0  0
   12.5105    2.6538   -1.1895 H   0  0  0  0  0  0  0  0  0  0  0  0
   11.1590    1.7865    0.2220 C   0  0  0  0  0  0  0  0  0  0  0  0
   10.3499    2.4583   -0.0277 H   0  0  0  0  0  0  0  0  0  0  0  0
  1  7  1  0  0  0  0
  1  2  1  0  0  0  0
  3  9  1  0  0  0  0
  3  5  2  0  0  0  0
  4  3  1  0  0  0  0
  5  6  1  0  0  0  0
  5  7  1  0  0  0  0
  7 18  1  1  0  0  0
  8 16  1  0  0  0  0
  8  7  1  0  0  0  0
  9  8  2  0  0  0  0
 10 12  2  0  0  0  0
 10  9  1  0  0  0  0
 11 10  1  0  0  0  0
 12 14  1  0  0  0  0
 13 12  1  0  0  0  0
 14 15  1  0  0  0  0
 14 16  2  0  0  0  0
 16 17  1  0  0  0  0
 18 19  1  0  0  0  0
 18 20  1  0  0  0  0
 18 21  1  0  0  0  0
 21 30  1  0  0  0  0
 22 21  2  0  0  0  0
 22 24  1  0  0  0  0
 23 22  1  0  0  0  0
 24 26  2  0  0  0  0
 25 24  1  0  0  0  0
 26 28  1  0  0  0  0
 26 27  1  0  0  0  0
 28 29  1  0  0  0  0
 30 31  1  0  0  0  0
 30 28  2  0  0  0  0
 32  1  1  0  0  0  0
 33 34  1  0  0  0  0
 35 33  2  0  0  0  0
 36 35  1  0  0  0  0
 37 48  1  6  0  0  0
 37 38  1  0  0  0  0
 37 35  1  0  0  0  0
 37  1  1  0  0  0  0
 38 39  1  0  0  0  0
 39 33  1  0  0  0  0
 39 40  2  0  0  0  0
 40 41  1  0  0  0  0
 42 40  1  0  0  0  0
 42 43  1  0  0  0  0
 44 42  2  0  0  0  0
 45 44  1  0  0  0  0
 46 38  2  0  0  0  0
 46 44  1  0  0  0  0
 47 46  1  0  0  0  0
 49 48  1  0  0  0  0
 50 48  1  0  0  0  0
 51 52  1  0  0  0  0
 51 48  1  0  0  0  0
 52 53  1  0  0  0  0
 54 55  1  0  0  0  0
 54 52  2  0  0  0  0
 56 54  1  0  0  0  0
 57 56  1  0  0  0  0
 58 56  2  0  0  0  0
 58 60  1  0  0  0  0
 59 58  1  0  0  0  0
 60 51  2  0  0  0  0
 61 60  1  0  0  0  0
M  END
$$$$
