CSD_code = GARGIS | q = 0 | S = 0 | Stoichiometry = C16H14BrN2O3Re | MND = 6
 OpenBabel04212202043D

 37 39  0  0  1  0  0  0  0  0999 V2000
   14.2726    0.2625    1.2773 Re  0  0  0  0  0  0  0  0  0  0  0  0
   13.8329   -2.1172    2.0824 Br  0  0  0  0  0  0  0  0  0  0  0  0
   12.2413   -0.0625   -1.2445 C   0  0  0  0  0  0  0  0  0  0  0  0
   15.8600   -1.0305   -0.9873 C   0  0  1  0  0  3  0  0  0  0  0  0
   13.4749   -0.5844   -0.7310 N   0  0  0  0  0  4  0  0  0  0  0  0
   11.4529    1.0929    2.2352 O   0  0  0  0  0  1  0  0  0  0  0  0
   14.9117    2.9931   -0.0074 O   0  0  0  0  0  1  0  0  0  0  0  0
   15.6443    0.9381    3.9639 O   0  0  0  0  0  1  0  0  0  0  0  0
   16.0068   -0.6514    0.2882 N   0  0  0  0  0  0  0  0  0  0  0  0
   17.1160   -1.0083    0.9336 C   0  0  0  0  0  0  0  0  0  0  0  0
   17.1939   -0.6953    1.9666 H   0  0  0  0  0  0  0  0  0  0  0  0
   15.1199    0.7370    2.9648 C   0  0  0  0  0  2  0  0  0  0  0  0
   14.6662    1.9789    0.4728 C   0  0  0  0  0  2  0  0  0  0  0  0
   12.1634    1.2125   -1.7889 C   0  0  0  0  0  0  0  0  0  0  0  0
   13.0421    1.8374   -1.8520 H   0  0  0  0  0  0  0  0  0  0  0  0
   12.5224    0.8376    1.9199 C   0  0  0  0  0  2  0  0  0  0  0  0
   18.1239   -1.7481    0.3445 C   0  0  0  0  0  0  0  0  0  0  0  0
   18.9984   -2.0138    0.9153 H   0  0  0  0  0  0  0  0  0  0  0  0
   17.9785   -2.1408   -0.9764 C   0  0  0  0  0  0  0  0  0  0  0  0
   18.7397   -2.7246   -1.4699 H   0  0  0  0  0  0  0  0  0  0  0  0
   11.0867   -0.8293   -1.1419 C   0  0  0  0  0  0  0  0  0  0  0  0
   11.1319   -1.8171   -0.7031 H   0  0  0  0  0  0  0  0  0  0  0  0
   14.5926   -0.6022   -1.6835 C   0  0  0  0  0  0  0  0  0  0  0  0
   14.7392    0.4114   -2.0774 H   0  0  0  0  0  0  0  0  0  0  0  0
   14.3839   -1.2671   -2.5329 H   0  0  0  0  0  0  0  0  0  0  0  0
   16.8251   -1.7751   -1.6487 C   0  0  0  0  0  0  0  0  0  0  0  0
   16.6647   -2.0646   -2.6757 H   0  0  0  0  0  0  0  0  0  0  0  0
    9.8754   -0.3238   -1.5710 C   0  0  0  0  0  0  0  0  0  0  0  0
    8.9846   -0.9268   -1.4751 H   0  0  0  0  0  0  0  0  0  0  0  0
    9.7874    0.9485   -2.1234 C   0  0  0  0  0  0  0  0  0  0  0  0
   10.9474    1.7048   -2.2246 C   0  0  0  0  0  0  0  0  0  0  0  0
   10.9025    2.7000   -2.6416 H   0  0  0  0  0  0  0  0  0  0  0  0
    8.4653    1.4865   -2.5749 C   0  0  0  0  0  0  0  0  0  0  0  0
    8.5867    2.4285   -3.1032 H   0  0  0  0  0  0  0  0  0  0  0  0
    7.8179    1.6546   -1.7147 H   0  0  0  0  0  0  0  0  0  0  0  0
    7.9664    0.7759   -3.2318 H   0  0  0  0  0  0  0  0  0  0  0  0
   13.2926   -1.5567   -0.4482 H   0  0  0  0  0  0  0  0  0  0  0  0
  1 16  1  0  0  0  0
  1  2  1  0  0  0  0
  1 12  1  0  0  0  0
  3 21  1  0  0  0  0
  3  5  1  0  0  0  0
  4 26  1  6  0  0  0
  4  9  1  0  0  0  0
  5 37  1  0  0  0  0
  5  1  1  0  0  0  0
  7 13  1  0  0  0  0
  9 10  1  0  0  0  0
  9  1  1  0  0  0  0
 10 11  1  0  0  0  0
 12  8  1  0  0  0  0
 13  1  1  0  0  0  0
 14  3  2  0  0  0  0
 15 14  1  0  0  0  0
 16  6  1  0  0  0  0
 17 18  1  0  0  0  0
 17 10  2  0  0  0  0
 19 17  1  0  0  0  0
 20 19  1  0  0  0  0
 21 22  1  0  0  0  0
 23  4  1  0  0  0  0
 23  5  1  0  0  0  0
 24 23  1  0  0  0  0
 25 23  1  0  0  0  0
 26 19  2  0  0  0  0
 27 26  1  0  0  0  0
 28 29  1  0  0  0  0
 28 21  2  0  0  0  0
 30 28  1  0  0  0  0
 31 30  2  0  0  0  0
 31 14  1  0  0  0  0
 32 31  1  0  0  0  0
 33 30  1  0  0  0  0
 33 35  1  0  0  0  0
 34 33  1  0  0  0  0
 36 33  1  0  0  0  0
M  END
$$$$
