CSD_code = GARGEO | q = 0 | S = 0 | Stoichiometry = C16H12BrN2O3Re | MND = 6
 OpenBabel04212202043D

 35 37  0  0  0  0  0  0  0  0999 V2000
   -1.0454   23.5811    5.6821 Re  0  0  0  0  0  0  0  0  0  0  0  0
   -0.4765   24.4622    8.0383 Br  0  0  0  0  0  0  0  0  0  0  0  0
   -1.4043   22.9705    3.8762 C   0  0  0  0  0  2  0  0  0  0  0  0
    2.5483   21.7489    6.9798 C   0  0  0  0  0  0  0  0  0  0  0  0
    2.9110   22.6452    7.4625 H   0  0  0  0  0  0  0  0  0  0  0  0
   -0.6554   26.5582    4.7379 C   0  0  0  0  0  3  0  0  0  0  0  0
   -1.7372   26.5644    4.7017 H   0  0  0  0  0  0  0  0  0  0  0  0
    1.5486   21.8387    6.0114 C   0  0  0  0  0  0  0  0  0  0  0  0
    3.0127   20.5119    7.3766 C   0  0  0  0  0  0  0  0  0  0  0  0
    3.7683   20.4522    8.1462 H   0  0  0  0  0  0  0  0  0  0  0  0
   -1.5951   22.6095    2.8037 O   0  0  0  0  0  1  0  0  0  0  0  0
    1.8291   24.0651    5.4152 C   0  0  0  0  0  3  0  0  0  0  0  0
    2.9084   23.9581    5.4845 H   0  0  0  0  0  0  0  0  0  0  0  0
   -3.8300   24.8735    6.0799 O   0  0  0  0  0  1  0  0  0  0  0  0
   -1.6101   21.9012    6.5081 C   0  0  0  0  0  2  0  0  0  0  0  0
    1.0265   23.0762    5.6198 N   0  0  0  0  0  0  0  0  0  0  0  0
    1.2700   25.3486    5.0821 C   0  0  0  0  0  0  0  0  0  0  0  0
   -0.0793   25.3954    5.0259 N   0  0  0  0  0  0  0  0  0  0  0  0
   -1.8603   20.9396    7.0730 O   0  0  0  0  0  1  0  0  0  0  0  0
    1.0321   20.6704    5.4510 C   0  0  0  0  0  0  0  0  0  0  0  0
    0.2576   20.7407    4.6991 H   0  0  0  0  0  0  0  0  0  0  0  0
    2.5171   19.3420    6.8101 C   0  0  0  0  0  0  0  0  0  0  0  0
    0.0619   27.7160    4.4987 C   0  0  0  0  0  0  0  0  0  0  0  0
   -0.4599   28.6326    4.2771 H   0  0  0  0  0  0  0  0  0  0  0  0
   -2.8303   24.3496    5.8941 C   0  0  0  0  0  2  0  0  0  0  0  0
    1.5247   19.4425    5.8405 C   0  0  0  0  0  0  0  0  0  0  0  0
    1.1233   18.5462    5.3916 H   0  0  0  0  0  0  0  0  0  0  0  0
    3.0469   18.0107    7.2396 C   0  0  0  0  0  0  0  0  0  0  0  0
    2.4095   17.2048    6.8859 H   0  0  0  0  0  0  0  0  0  0  0  0
    3.1151   17.9574    8.3243 H   0  0  0  0  0  0  0  0  0  0  0  0
    4.0484   17.8596    6.8358 H   0  0  0  0  0  0  0  0  0  0  0  0
    2.0618   26.4748    4.8482 C   0  0  0  0  0  0  0  0  0  0  0  0
    3.1354   26.3886    4.9110 H   0  0  0  0  0  0  0  0  0  0  0  0
    1.4504   27.6760    4.5563 C   0  0  0  0  0  0  0  0  0  0  0  0
    2.0361   28.5648    4.3802 H   0  0  0  0  0  0  0  0  0  0  0  0
  1 25  1  0  0  0  0
  1 15  1  0  0  0  0
  1  2  1  0  0  0  0
  3  1  1  0  0  0  0
  4  9  1  0  0  0  0
  4  5  1  0  0  0  0
  6 18  1  0  0  0  0
  7  6  1  0  0  0  0
  8  4  2  0  0  0  0
  9 10  1  0  0  0  0
 11  3  1  0  0  0  0
 12 13  1  0  0  0  0
 12 16  1  0  0  0  0
 15 19  1  0  0  0  0
 16  1  1  0  0  0  0
 16  8  1  0  0  0  0
 17 12  1  0  0  0  0
 18 17  1  0  0  0  0
 18  1  1  0  0  0  0
 20 26  2  0  0  0  0
 20  8  1  0  0  0  0
 21 20  1  0  0  0  0
 22 28  1  0  0  0  0
 22  9  2  0  0  0  0
 23 34  2  0  0  0  0
 23  6  1  0  0  0  0
 24 23  1  0  0  0  0
 25 14  1  0  0  0  0
 26 22  1  0  0  0  0
 27 26  1  0  0  0  0
 28 30  1  0  0  0  0
 29 28  1  0  0  0  0
 31 28  1  0  0  0  0
 32 33  1  0  0  0  0
 32 17  2  0  0  0  0
 34 32  1  0  0  0  0
 35 34  1  0  0  0  0
M  END
$$$$
