CSD_code = GARPEV | q = 0 | S = 0 | Stoichiometry = C8H12Cl2N4S2Zn | MND = 4
 OpenBabel04212202043D

 29 30  0  0  1  0  0  0  0  0999 V2000
   -0.1228   -0.2841   -2.2891 Zn  0  0  0  0  0  0  0  0  0  0  0  0
    1.7565    0.8178   -1.8901 Cl  0  0  0  0  0  0  0  0  0  0  0  0
    0.3479   -1.9532   -3.9287 Cl  0  0  0  0  0  0  0  0  0  0  0  0
   -2.5531    0.2323   -2.5997 S   0  0  0  0  0  0  0  0  0  0  0  0
   -0.1947   -1.8739   -0.2797 S   0  0  0  0  0  0  0  0  0  0  0  0
   -2.4665   -2.4841   -2.9498 N   0  0  0  0  0  0  0  0  0  0  0  0
   -4.3169   -1.7347   -2.0916 N   0  0  0  0  0  0  0  0  0  0  0  0
    2.1177   -2.5630   -1.5167 N   0  0  0  0  0  0  0  0  0  0  0  0
    2.3964   -1.8217    0.5056 N   0  0  0  0  0  0  0  0  0  0  0  0
   -3.0974   -1.3710   -2.5431 C   0  0  2  0  0  3  0  0  0  0  0  0
   -3.2813   -3.5605   -2.7429 C   0  0  0  0  0  0  0  0  0  0  0  0
   -4.4370   -3.0961   -2.2131 C   0  0  0  0  0  0  0  0  0  0  0  0
   -5.3131   -0.8419   -1.5733 C   0  0  0  0  0  0  0  0  0  0  0  0
    1.4752   -2.0730   -0.4426 C   0  0  2  0  0  3  0  0  0  0  0  0
    3.4611   -2.5742   -1.2656 C   0  0  0  0  0  0  0  0  0  0  0  0
    3.6350   -2.1197   -0.0031 C   0  0  0  0  0  0  0  0  0  0  0  0
    2.1301   -1.2334    1.7866 C   0  0  0  0  0  0  0  0  0  0  0  0
   -1.5105   -2.5018   -3.3401 H   0  0  0  0  0  0  0  0  0  0  0  0
   -2.9741   -4.5556   -2.9859 H   0  0  0  0  0  0  0  0  0  0  0  0
   -5.3252   -3.6112   -1.9124 H   0  0  0  0  0  0  0  0  0  0  0  0
   -6.0797   -0.6437   -2.3249 H   0  0  0  0  0  0  0  0  0  0  0  0
   -4.8289    0.0979   -1.3105 H   0  0  0  0  0  0  0  0  0  0  0  0
   -5.7773   -1.2794   -0.6905 H   0  0  0  0  0  0  0  0  0  0  0  0
    1.6531   -2.7193   -2.4156 H   0  0  0  0  0  0  0  0  0  0  0  0
    4.1730   -2.8993   -1.9947 H   0  0  0  0  0  0  0  0  0  0  0  0
    4.5265   -1.9775    0.5710 H   0  0  0  0  0  0  0  0  0  0  0  0
    2.6104   -1.8140    2.5741 H   0  0  0  0  0  0  0  0  0  0  0  0
    1.0517   -1.2259    1.9404 H   0  0  0  0  0  0  0  0  0  0  0  0
    2.5023   -0.2076    1.8109 H   0  0  0  0  0  0  0  0  0  0  0  0
  1  2  1  0  0  0  0
  1  5  1  0  0  0  0
  3  1  1  0  0  0  0
  4  1  1  0  0  0  0
  6 11  1  0  0  0  0
  6 10  1  0  0  0  0
  7 13  1  0  0  0  0
  8 15  1  0  0  0  0
  8 14  1  0  0  0  0
  9 17  1  0  0  0  0
 10  4  1  6  0  0  0
 10  7  1  0  0  0  0
 11 12  2  0  0  0  0
 12  7  1  0  0  0  0
 12 20  1  0  0  0  0
 13 22  1  0  0  0  0
 13 23  1  0  0  0  0
 14  5  1  1  0  0  0
 14  9  1  0  0  0  0
 15 16  2  0  0  0  0
 16  9  1  0  0  0  0
 16 26  1  0  0  0  0
 17 29  1  0  0  0  0
 17 28  1  0  0  0  0
 17 27  1  0  0  0  0
 18  6  1  0  0  0  0
 19 11  1  0  0  0  0
 21 13  1  0  0  0  0
 24  8  1  0  0  0  0
 25 15  1  0  0  0  0
M  END
$$$$
