CSD_code = GARPIZ | q = 0 | S = 0 | Stoichiometry = C8H12Br2N4S2Zn | MND = 4
 OpenBabel04212202043D

 29 30  0  0  1  0  0  0  0  0999 V2000
    1.8320   -0.9169    2.3663 Br  0  0  0  0  0  0  0  0  0  0  0  0
    0.5231    2.0369   -0.3171 Br  0  0  0  0  0  0  0  0  0  0  0  0
    0.0180    0.3706    1.4819 Zn  0  0  0  0  0  0  0  0  0  0  0  0
   -0.2771    2.2150    3.3856 S   0  0  0  0  0  0  0  0  0  0  0  0
   -2.4450   -0.2322    1.3286 S   0  0  0  0  0  0  0  0  0  0  0  0
    2.1193    3.0603    2.4411 N   0  0  0  0  0  0  0  0  0  0  0  0
    2.2576    1.9754    4.3178 N   0  0  0  0  0  0  0  0  0  0  0  0
   -2.5895    2.4493    0.7967 N   0  0  0  0  0  0  0  0  0  0  0  0
   -4.2307    1.6647    1.9825 N   0  0  0  0  0  0  0  0  0  0  0  0
    1.3975    2.4082    3.3762 C   0  0  1  0  0  3  0  0  0  0  0  0
    3.4454    3.0038    2.7771 C   0  0  0  0  0  0  0  0  0  0  0  0
    3.5285    2.3298    3.9465 C   0  0  0  0  0  0  0  0  0  0  0  0
    1.9097    1.1663    5.4509 C   0  0  0  0  0  0  0  0  0  0  0  0
   -3.0724    1.3336    1.3731 C   0  0  1  0  0  3  0  0  0  0  0  0
   -3.4319    3.4934    1.0592 C   0  0  0  0  0  0  0  0  0  0  0  0
   -4.4581    3.0043    1.7915 C   0  0  0  0  0  0  0  0  0  0  0  0
   -5.0704    0.7614    2.7154 C   0  0  0  0  0  0  0  0  0  0  0  0
    1.7343    3.4178    1.5752 H   0  0  0  0  0  0  0  0  0  0  0  0
    4.2056    3.4368    2.1623 H   0  0  0  0  0  0  0  0  0  0  0  0
    4.3788    2.0627    4.5377 H   0  0  0  0  0  0  0  0  0  0  0  0
    0.8316    1.2212    5.5969 H   0  0  0  0  0  0  0  0  0  0  0  0
    2.1929    0.1281    5.2635 H   0  0  0  0  0  0  0  0  0  0  0  0
    2.4213    1.5320    6.3398 H   0  0  0  0  0  0  0  0  0  0  0  0
   -1.7098    2.5120    0.2848 H   0  0  0  0  0  0  0  0  0  0  0  0
   -3.2306    4.4826    0.7065 H   0  0  0  0  0  0  0  0  0  0  0  0
   -5.3225    3.4894    2.1922 H   0  0  0  0  0  0  0  0  0  0  0  0
   -5.4433    1.2519    3.6136 H   0  0  0  0  0  0  0  0  0  0  0  0
   -5.9141    0.4368    2.1025 H   0  0  0  0  0  0  0  0  0  0  0  0
   -4.4815   -0.1134    2.9905 H   0  0  0  0  0  0  0  0  0  0  0  0
  2  3  1  0  0  0  0
  3  1  1  0  0  0  0
  3  4  1  0  0  0  0
  5  3  1  0  0  0  0
  6 11  1  0  0  0  0
  6 10  1  0  0  0  0
  7 13  1  0  0  0  0
  8 15  1  0  0  0  0
  8 14  1  0  0  0  0
  9 17  1  0  0  0  0
 10  4  1  1  0  0  0
 10  7  1  0  0  0  0
 11 12  2  0  0  0  0
 12  7  1  0  0  0  0
 12 20  1  0  0  0  0
 13 21  1  0  0  0  0
 13 23  1  0  0  0  0
 14  5  1  6  0  0  0
 14  9  1  0  0  0  0
 15 16  2  0  0  0  0
 16  9  1  0  0  0  0
 16 26  1  0  0  0  0
 17 29  1  0  0  0  0
 17 27  1  0  0  0  0
 18  6  1  0  0  0  0
 19 11  1  0  0  0  0
 22 13  1  0  0  0  0
 24  8  1  0  0  0  0
 25 15  1  0  0  0  0
 28 17  1  0  0  0  0
M  END
$$$$
