CSD_code = GARPUL | q = 0 | S = 0 | Stoichiometry = C8H12CdI2N4S2 | MND = 4
 OpenBabel04212202043D

 29 29  0  0  1  0  0  0  0  0999 V2000
   -2.4788    4.5093   -1.1198 I   0  0  0  0  0  0  0  0  0  0  0  0
    1.5310    2.8407    0.8853 I   0  0  0  0  0  0  0  0  0  0  0  0
    0.2248    4.4885   -0.8793 Cd  0  0  0  0  0  0  0  0  0  0  0  0
    1.9912    6.3436   -1.7581 S   0  0  0  0  0  0  0  0  0  0  0  0
    0.8647    3.0093   -3.3473 S   0  0  0  0  0  0  0  0  0  0  0  0
    3.6552    4.1920   -1.6575 N   0  0  0  0  0  0  0  0  0  0  0  0
    3.7666    5.3193   -3.5113 N   0  0  0  0  0  0  0  0  0  0  0  0
   -1.6065    2.7727   -4.3983 N   0  0  0  0  0  0  0  0  0  0  0  0
   -1.2327    1.3821   -2.7719 N   0  0  0  0  0  0  0  0  0  0  0  0
    3.1389    5.2505   -2.3162 C   0  0  2  0  0  3  0  0  0  0  0  0
    4.5836    3.5736   -2.4501 C   0  0  0  0  0  0  0  0  0  0  0  0
    4.6561    4.2773   -3.6014 C   0  0  0  0  0  0  0  0  0  0  0  0
    3.4959    6.2841   -4.5378 C   0  0  0  0  0  0  0  0  0  0  0  0
   -0.6807    2.3845   -3.4912 C   0  0  0  0  0  0  0  0  0  0  0  0
   -2.7515    2.0386   -4.2256 C   0  0  0  0  0  0  0  0  0  0  0  0
   -2.5149    1.1748   -3.2145 C   0  0  0  0  0  0  0  0  0  0  0  0
   -0.6081    0.7057   -1.6699 C   0  0  0  0  0  0  0  0  0  0  0  0
    3.3345    3.8602   -0.7503 H   0  0  0  0  0  0  0  0  0  0  0  0
    5.1048    2.6961   -2.1304 H   0  0  0  0  0  0  0  0  0  0  0  0
    5.2571    4.1280   -4.4737 H   0  0  0  0  0  0  0  0  0  0  0  0
    4.4076    6.8210   -4.8028 H   0  0  0  0  0  0  0  0  0  0  0  0
    3.0975    5.7874   -5.4243 H   0  0  0  0  0  0  0  0  0  0  0  0
    2.7580    6.9902   -4.1577 H   0  0  0  0  0  0  0  0  0  0  0  0
   -1.4751    3.5374   -5.0401 H   0  0  0  0  0  0  0  0  0  0  0  0
   -3.6267    2.1954   -4.8191 H   0  0  0  0  0  0  0  0  0  0  0  0
   -3.1504    0.4413   -2.7650 H   0  0  0  0  0  0  0  0  0  0  0  0
   -0.8097   -0.3628   -1.7293 H   0  0  0  0  0  0  0  0  0  0  0  0
    0.4690    0.8745   -1.7164 H   0  0  0  0  0  0  0  0  0  0  0  0
   -0.9912    1.0871   -0.7188 H   0  0  0  0  0  0  0  0  0  0  0  0
  1  3  1  0  0  0  0
  3  2  1  0  0  0  0
  4  3  1  0  0  0  0
  6 18  1  0  0  0  0
  7 10  1  0  0  0  0
  8 15  1  0  0  0  0
  8 14  1  0  0  0  0
  9 17  1  0  0  0  0
 10  4  1  1  0  0  0
 10  6  1  0  0  0  0
 11 19  1  0  0  0  0
 11  6  1  0  0  0  0
 12  7  1  0  0  0  0
 12 11  2  0  0  0  0
 13 23  1  0  0  0  0
 13  7  1  0  0  0  0
 14  5  2  0  0  0  0
 14  9  1  0  0  0  0
 15 16  2  0  0  0  0
 16  9  1  0  0  0  0
 16 26  1  0  0  0  0
 17 29  1  0  0  0  0
 20 12  1  0  0  0  0
 21 13  1  0  0  0  0
 22 13  1  0  0  0  0
 24  8  1  0  0  0  0
 25 15  1  0  0  0  0
 27 17  1  0  0  0  0
 28 17  1  0  0  0  0
M  END
$$$$
