CSD_code = GARRAU | q = 0 | S = 0 | Stoichiometry = C18H14Cl2N2Pd | MND = 4
 OpenBabel04212202043D

 37 40  0  0  1  0  0  0  0  0999 V2000
    0.0003    3.5021   -0.0006 Pd  0  0  0  0  0  0  0  0  0  0  0  0
   -1.2831    2.6755    1.7041 Cl  0  0  0  0  0  0  0  0  0  0  0  0
    1.4073    2.2421    0.4560 N   0  0  0  0  0  0  0  0  0  0  0  0
    1.4339    1.0534   -0.1035 C   0  0  0  0  0  0  0  0  0  0  0  0
    0.6530    0.8334   -0.8314 H   0  0  0  0  0  0  0  0  0  0  0  0
    2.4080    0.0943    0.2018 C   0  0  0  0  0  0  0  0  0  0  0  0
    2.3790   -0.8651   -0.2897 H   0  0  0  0  0  0  0  0  0  0  0  0
    3.3777    0.3954    1.1216 C   0  0  0  0  0  0  0  0  0  0  0  0
    4.1431   -0.3200    1.3839 H   0  0  0  0  0  0  0  0  0  0  0  0
    3.3749    1.6638    1.7365 C   0  0  0  0  0  0  0  0  0  0  0  0
    4.3316    2.0620    2.6931 C   0  0  0  0  0  0  0  0  0  0  0  0
    5.1060    1.3624    2.9713 H   0  0  0  0  0  0  0  0  0  0  0  0
    4.2766    3.3074    3.2540 C   0  0  0  0  0  0  0  0  0  0  0  0
    5.0115    3.6062    3.9862 H   0  0  0  0  0  0  0  0  0  0  0  0
    3.2672    4.2122    2.8858 C   0  0  0  0  0  0  0  0  0  0  0  0
    3.2448    5.1910    3.3406 H   0  0  0  0  0  0  0  0  0  0  0  0
    2.3217    3.8608    1.9619 C   0  0  0  0  0  0  0  0  0  0  0  0
    1.5271    4.5598    1.6636 H   0  0  0  0  0  0  0  0  0  0  0  0
    2.3533    2.5800    1.3688 C   0  0  2  0  0  3  0  0  0  0  0  0
    1.2829    4.3271   -1.7064 Cl  0  0  0  0  0  0  0  0  0  0  0  0
   -1.4068    4.7621   -0.4566 N   0  0  0  0  0  0  0  0  0  0  0  0
   -1.4325    5.9508    0.1030 C   0  0  0  0  0  0  0  0  0  0  0  0
   -0.6511    6.1704    0.8305 H   0  0  0  0  0  0  0  0  0  0  0  0
   -2.4061    6.9105   -0.2019 C   0  0  0  0  0  0  0  0  0  0  0  0
   -2.3764    7.8699    0.2896 H   0  0  0  0  0  0  0  0  0  0  0  0
   -3.3765    6.6100   -1.1212 C   0  0  0  0  0  0  0  0  0  0  0  0
   -4.1416    7.3258   -1.3831 H   0  0  0  0  0  0  0  0  0  0  0  0
   -3.3747    5.3415   -1.7361 C   0  0  0  0  0  0  0  0  0  0  0  0
   -4.3321    4.9440   -2.6923 C   0  0  0  0  0  3  0  0  0  0  0  0
   -5.1063    5.6440   -2.9701 H   0  0  0  0  0  0  0  0  0  0  0  0
   -4.2781    3.6986   -3.2532 C   0  0  0  0  0  0  0  0  0  0  0  0
   -5.0135    3.4002   -3.9851 H   0  0  0  0  0  0  0  0  0  0  0  0
   -3.2690    2.7932   -2.8856 C   0  0  0  0  0  0  0  0  0  0  0  0
   -3.2473    1.8144   -3.3404 H   0  0  0  0  0  0  0  0  0  0  0  0
   -2.3228    3.1440   -1.9621 C   0  0  0  0  0  0  0  0  0  0  0  0
   -1.5285    2.4446   -1.6643 H   0  0  0  0  0  0  0  0  0  0  0  0
   -2.3535    4.4248   -1.3689 C   0  0  0  0  0  0  0  0  0  0  0  0
  1  3  1  0  0  0  0
  1  2  1  0  0  0  0
  3 19  1  0  0  0  0
  4  6  2  0  0  0  0
  4  3  1  0  0  0  0
  5  4  1  0  0  0  0
  6  8  1  0  0  0  0
  7  6  1  0  0  0  0
  8  9  1  0  0  0  0
  8 10  2  0  0  0  0
 10 11  1  0  0  0  0
 11 12  1  0  0  0  0
 11 13  2  0  0  0  0
 13 14  1  0  0  0  0
 15 13  1  0  0  0  0
 15 16  1  0  0  0  0
 17 15  2  0  0  0  0
 18 17  1  0  0  0  0
 19 10  1  1  0  0  0
 19 17  1  0  0  0  0
 20  1  1  0  0  0  0
 21  1  1  0  0  0  0
 21 22  1  0  0  0  0
 22 23  1  0  0  0  0
 24 22  2  0  0  0  0
 24 25  1  0  0  0  0
 26 24  1  0  0  0  0
 27 26  1  0  0  0  0
 28 37  1  0  0  0  0
 28 26  2  0  0  0  0
 29 28  1  0  0  0  0
 30 29  1  0  0  0  0
 31 33  2  0  0  0  0
 31 29  1  0  0  0  0
 32 31  1  0  0  0  0
 33 35  1  0  0  0  0
 34 33  1  0  0  0  0
 35 36  1  0  0  0  0
 35 37  2  0  0  0  0
 37 21  1  0  0  0  0
M  END
$$$$
