CSD_code = GARVOL | q = 0 | S = 0 | Stoichiometry = C26H22Cl2Zr | MND = 12
 OpenBabel04212202043D

 51 54  0  0  1  0  0  0  0  0999 V2000
    2.6753    6.6386   10.5493 Zr  0  0  0  0  0  0  0  0  0  0  0  0
    3.8669    8.6381   10.3628 Cl  0  0  0  0  0  0  0  0  0  0  0  0
    1.7519    7.3431   12.5847 Cl  0  0  0  0  0  0  0  0  0  0  0  0
    0.7253    5.6283    9.4746 C   0  0  0  0  0  0  0  0  0  0  0  0
    1.7097    5.7655    8.4617 C   0  0  0  0  0  0  0  0  0  0  0  0
    2.0798    4.9508    7.8524 H   0  0  0  0  0  0  0  0  0  0  0  0
    1.8996    7.1659    8.2134 C   0  0  0  0  0  0  0  0  0  0  0  0
    2.7393    7.8595    7.3371 C   0  0  0  0  0  0  0  0  0  0  0  0
    2.6505    9.2638    7.3034 C   0  0  0  0  0  0  0  0  0  0  0  0
    3.4402   10.0241    6.4018 C   0  0  0  0  0  0  0  0  0  0  0  0
    4.1125    9.5075    5.7353 H   0  0  0  0  0  0  0  0  0  0  0  0
    3.3684   11.3824    6.3524 C   0  0  0  0  0  0  0  0  0  0  0  0
    3.9802   11.9367    5.6558 H   0  0  0  0  0  0  0  0  0  0  0  0
    2.4930   12.0748    7.2081 C   0  0  0  0  0  0  0  0  0  0  0  0
    2.4362   13.1520    7.1527 H   0  0  0  0  0  0  0  0  0  0  0  0
    1.7260   11.3889    8.0990 C   0  0  0  0  0  0  0  0  0  0  0  0
    1.0528   11.9304    8.7444 H   0  0  0  0  0  0  0  0  0  0  0  0
    1.7731    9.9739    8.1950 C   0  0  0  0  0  0  0  0  0  0  0  0
    0.9999    9.2854    9.1487 C   0  0  0  0  0  0  0  0  0  0  0  0
    1.0241    7.8888    9.1266 C   0  0  0  0  0  0  0  0  0  0  0  0
    0.3345    6.9146    9.9224 C   0  0  2  0  0  0  0  0  0  0  0  0
   -0.4981    7.1074   10.5875 H   0  0  0  0  0  0  0  0  0  0  0  0
    3.7255    7.1133    6.4809 C   0  0  0  0  0  0  0  0  0  0  0  0
    3.5628    7.3207    5.4241 H   0  0  0  0  0  0  0  0  0  0  0  0
    3.6351    6.0405    6.6306 H   0  0  0  0  0  0  0  0  0  0  0  0
    4.7429    7.4125    6.7349 H   0  0  0  0  0  0  0  0  0  0  0  0
    0.2049    9.9990   10.2047 C   0  0  0  0  0  0  0  0  0  0  0  0
   -0.0292    9.3204   11.0233 H   0  0  0  0  0  0  0  0  0  0  0  0
   -0.7278   10.3924    9.7989 H   0  0  0  0  0  0  0  0  0  0  0  0
    0.7789   10.8275   10.6146 H   0  0  0  0  0  0  0  0  0  0  0  0
    0.2369    4.3670   10.0465 C   0  0  0  0  0  0  0  0  0  0  0  0
   -0.0365    3.2573    9.2492 C   0  0  0  0  0  0  0  0  0  0  0  0
    0.0832    3.3290    8.1778 H   0  0  0  0  0  0  0  0  0  0  0  0
   -0.4762    2.0769    9.8213 C   0  0  0  0  0  0  0  0  0  0  0  0
   -0.6884    1.2236    9.1944 H   0  0  0  0  0  0  0  0  0  0  0  0
   -0.6463    1.9884   11.1926 C   0  0  0  0  0  0  0  0  0  0  0  0
   -0.9876    1.0657   11.6367 H   0  0  0  0  0  0  0  0  0  0  0  0
   -0.3770    3.0874   11.9941 C   0  0  0  0  0  0  0  0  0  0  0  0
   -0.5072    3.0185   13.0638 H   0  0  0  0  0  0  0  0  0  0  0  0
    0.0629    4.2710   11.4309 C   0  0  0  0  0  0  0  0  0  0  0  0
    0.2861    5.1287   12.0607 H   0  0  0  0  0  0  0  0  0  0  0  0
    3.4247    4.2612   10.5578 C   0  0  0  0  0  0  0  0  0  0  0  0
    2.8613    3.4107   10.1935 H   0  0  0  0  0  0  0  0  0  0  0  0
    4.4015    4.9851    9.8300 C   0  0  0  0  0  0  0  0  0  0  0  0
    4.7173    4.7836    8.8134 H   0  0  0  0  0  0  0  0  0  0  0  0
    5.0502    5.8626   10.7262 C   0  0  0  0  0  0  0  0  0  0  0  0
    5.9075    6.4840   10.4981 H   0  0  0  0  0  0  0  0  0  0  0  0
    4.4577    5.7078   11.9976 C   0  0  0  0  0  0  0  0  0  0  0  0
    4.7774    6.1963   12.9112 H   0  0  0  0  0  0  0  0  0  0  0  0
    3.4523    4.7156   11.8948 C   0  0  0  0  0  3  0  0  0  0  0  0
    2.8937    4.2944   12.7224 H   0  0  0  0  0  0  0  0  0  0  0  0
  1  3  1  0  0  0  0
  2  1  1  0  0  0  0
  4 21  1  0  0  0  0
  4 31  1  0  0  0  0
  5  4  2  0  0  0  0
  6  5  1  0  0  0  0
  7  5  1  0  0  0  0
  7 20  1  0  0  0  0
  8  7  2  0  0  0  0
  9  8  1  0  0  0  0
  9 18  1  0  0  0  0
 10  9  2  0  0  0  0
 11 10  1  0  0  0  0
 12 10  1  0  0  0  0
 12 14  2  0  0  0  0
 13 12  1  0  0  0  0
 14 16  1  0  0  0  0
 15 14  1  0  0  0  0
 16 18  2  0  0  0  0
 16 17  1  0  0  0  0
 18 19  1  0  0  0  0
 19 27  1  0  0  0  0
 20 19  2  0  0  0  0
 20 21  1  0  0  0  0
 21  1  1  0  0  0  0
 21 22  1  1  0  0  0
 23 25  1  0  0  0  0
 23 26  1  0  0  0  0
 23  8  1  0  0  0  0
 24 23  1  0  0  0  0
 27 30  1  0  0  0  0
 27 28  1  0  0  0  0
 29 27  1  0  0  0  0
 31 40  1  0  0  0  0
 32 34  1  0  0  0  0
 32 31  2  0  0  0  0
 33 32  1  0  0  0  0
 34 36  2  0  0  0  0
 35 34  1  0  0  0  0
 36 37  1  0  0  0  0
 36 38  1  0  0  0  0
 38 39  1  0  0  0  0
 40 38  2  0  0  0  0
 40 41  1  0  0  0  0
 42 50  1  0  0  0  0
 43 42  1  0  0  0  0
 44 42  2  0  0  0  0
 44 46  1  0  0  0  0
 45 44  1  0  0  0  0
 46 48  2  0  0  0  0
 47 46  1  0  0  0  0
 48 49  1  0  0  0  0
 50 48  1  0  0  0  0
 50 51  1  0  0  0  0
M  END
$$$$
