CSD_code = GARVEB | q = 0 | S = 0 | Stoichiometry = C27H25Br2NNiP2 | MND = 4
 OpenBabel04212202043D

 58 62  0  0  0  0  0  0  0  0999 V2000
    3.1071    3.3648   10.4499 Ni  0  0  0  0  0  0  0  0  0  0  0  0
    1.3177    3.7818   11.7160 Br  0  0  0  0  0  0  0  0  0  0  0  0
    2.9521    1.1418   10.3272 Br  0  0  0  0  0  0  0  0  0  0  0  0
    4.8866    3.4428    9.2553 P   0  0  0  0  0  4  0  0  0  0  0  0
    3.5568    5.4551   10.3543 P   0  0  0  0  0  4  0  0  0  0  0  0
    4.8946    5.1572    9.3203 N   0  0  0  0  0  0  0  0  0  0  0  0
    6.4421    2.9741   10.0716 C   0  0  0  0  0  0  0  0  0  0  0  0
    7.6779    3.0800    9.4435 C   0  0  0  0  0  0  0  0  0  0  0  0
    7.7339    3.3577    8.3995 H   0  0  0  0  0  0  0  0  0  0  0  0
    8.8303    2.8151   10.1605 C   0  0  0  0  0  0  0  0  0  0  0  0
    9.7925    2.8943    9.6761 H   0  0  0  0  0  0  0  0  0  0  0  0
    8.7534    2.4473   11.4955 C   0  0  0  0  0  0  0  0  0  0  0  0
    9.6581    2.2386   12.0467 H   0  0  0  0  0  0  0  0  0  0  0  0
    7.5225    2.3416   12.1224 C   0  0  0  0  0  0  0  0  0  0  0  0
    7.4622    2.0493   13.1598 H   0  0  0  0  0  0  0  0  0  0  0  0
    6.3673    2.6079   11.4110 C   0  0  0  0  0  0  0  0  0  0  0  0
    5.3950    2.5187   11.8902 H   0  0  0  0  0  0  0  0  0  0  0  0
    5.1145    3.0226    7.5125 C   0  0  0  0  0  0  0  0  0  0  0  0
    4.6327    3.8607    6.5121 C   0  0  0  0  0  0  0  0  0  0  0  0
    4.1731    4.8052    6.7748 H   0  0  0  0  0  0  0  0  0  0  0  0
    4.7379    3.4789    5.1877 C   0  0  0  0  0  0  0  0  0  0  0  0
    4.3750    4.1337    4.4090 H   0  0  0  0  0  0  0  0  0  0  0  0
    5.2963    2.2528    4.8621 C   0  0  0  0  0  0  0  0  0  0  0  0
    5.3721    1.9556    3.8268 H   0  0  0  0  0  0  0  0  0  0  0  0
    5.7404    1.4001    5.8608 C   0  0  0  0  0  0  0  0  0  0  0  0
    6.1542    0.4363    5.6055 H   0  0  0  0  0  0  0  0  0  0  0  0
    5.6453    1.7773    7.1870 C   0  0  0  0  0  0  0  0  0  0  0  0
    5.9702    1.1124    7.9758 H   0  0  0  0  0  0  0  0  0  0  0  0
    4.0990    6.4645   11.7472 C   0  0  0  0  0  0  0  0  0  0  0  0
    5.4143    6.4202   12.1975 C   0  0  0  0  0  0  0  0  0  0  0  0
    6.1467    5.8181   11.6759 H   0  0  0  0  0  0  0  0  0  0  0  0
    5.7789    7.1329   13.3244 C   0  0  0  0  0  0  0  0  0  0  0  0
    6.8030    7.1081   13.6673 H   0  0  0  0  0  0  0  0  0  0  0  0
    4.8294    7.8643   14.0202 C   0  0  0  0  0  0  0  0  0  0  0  0
    5.1178    8.4181   14.9011 H   0  0  0  0  0  0  0  0  0  0  0  0
    3.5072    7.8648   13.6039 C   0  0  0  0  0  0  0  0  0  0  0  0
    2.7624    8.4070   14.1665 H   0  0  0  0  0  0  0  0  0  0  0  0
    3.1353    7.1598   12.4750 C   0  0  0  0  0  0  0  0  0  0  0  0
    2.1004    7.1247   12.1632 H   0  0  0  0  0  0  0  0  0  0  0  0
    2.4232    6.4774    9.3656 C   0  0  0  0  0  0  0  0  0  0  0  0
    2.3366    7.8626    9.4279 C   0  0  0  0  0  0  0  0  0  0  0  0
    2.9500    8.4139   10.1259 H   0  0  0  0  0  0  0  0  0  0  0  0
    1.4626    8.5272    8.5868 C   0  0  0  0  0  0  0  0  0  0  0  0
    1.3913    9.6039    8.6341 H   0  0  0  0  0  0  0  0  0  0  0  0
    0.6778    7.8204    7.6888 C   0  0  0  0  0  0  0  0  0  0  0  0
   -0.0033    8.3487    7.0386 H   0  0  0  0  0  0  0  0  0  0  0  0
    0.7565    6.4383    7.6303 C   0  0  0  0  0  0  0  0  0  0  0  0
    0.1370    5.8848    6.9409 H   0  0  0  0  0  0  0  0  0  0  0  0
    1.6250    5.7697    8.4715 C   0  0  0  0  0  0  0  0  0  0  0  0
    1.6769    4.6821    8.4513 H   0  0  0  0  0  0  0  0  0  0  0  0
    5.9465    6.0392    8.8237 C   0  0  0  0  0  0  0  0  0  0  0  0
    6.3428    5.5823    7.9080 H   0  0  0  0  0  0  0  0  0  0  0  0
    6.7692    6.1191    9.5457 H   0  0  0  0  0  0  0  0  0  0  0  0
    5.3984    7.3949    8.5218 C   0  0  0  0  0  0  0  0  0  0  0  0
    4.6823    7.4365    7.7113 H   0  0  0  0  0  0  0  0  0  0  0  0
    5.7259    8.4839    9.1925 C   0  0  0  0  0  0  0  0  0  0  0  0
    6.4328    8.4588   10.0059 H   0  0  0  0  0  0  0  0  0  0  0  0
    5.3090    9.4463    8.9506 H   0  0  0  0  0  0  0  0  0  0  0  0
  1  2  1  0  0  0  0
  3  1  1  0  0  0  0
  4  6  1  0  0  0  0
  4  7  1  0  0  0  0
  4  1  1  0  0  0  0
  5  1  1  0  0  0  0
  5 29  1  0  0  0  0
  6  5  1  0  0  0  0
  7 16  1  0  0  0  0
  8  7  2  0  0  0  0
  8 10  1  0  0  0  0
  9  8  1  0  0  0  0
 10 12  2  0  0  0  0
 11 10  1  0  0  0  0
 12 13  1  0  0  0  0
 12 14  1  0  0  0  0
 14 15  1  0  0  0  0
 16 17  1  0  0  0  0
 16 14  2  0  0  0  0
 18  4  1  0  0  0  0
 19 20  1  0  0  0  0
 19 18  2  0  0  0  0
 21 19  1  0  0  0  0
 22 21  1  0  0  0  0
 23 21  2  0  0  0  0
 23 25  1  0  0  0  0
 24 23  1  0  0  0  0
 25 27  2  0  0  0  0
 26 25  1  0  0  0  0
 27 18  1  0  0  0  0
 27 28  1  0  0  0  0
 29 30  2  0  0  0  0
 29 38  1  0  0  0  0
 30 32  1  0  0  0  0
 31 30  1  0  0  0  0
 32 33  1  0  0  0  0
 32 34  2  0  0  0  0
 34 35  1  0  0  0  0
 36 34  1  0  0  0  0
 36 37  1  0  0  0  0
 38 36  2  0  0  0  0
 39 38  1  0  0  0  0
 40 41  1  0  0  0  0
 40  5  1  0  0  0  0
 41 42  1  0  0  0  0
 43 44  1  0  0  0  0
 43 41  2  0  0  0  0
 45 43  1  0  0  0  0
 46 45  1  0  0  0  0
 47 45  2  0  0  0  0
 47 49  1  0  0  0  0
 48 47  1  0  0  0  0
 49 40  2  0  0  0  0
 50 49  1  0  0  0  0
 51  6  1  0  0  0  0
 51 53  1  0  0  0  0
 52 51  1  0  0  0  0
 54 51  1  0  0  0  0
 54 56  2  0  0  0  0
 55 54  1  0  0  0  0
 56 57  1  0  0  0  0
 58 56  1  0  0  0  0
M  END
$$$$
