CSD_code = GASFUD | q = 0 | S = 0 | Stoichiometry = C12H4AuCl2F5N2 | MND = 4
 OpenBabel04212202043D

 26 27  0  0  0  0  0  0  0  0999 V2000
    2.5664   -1.1630    1.3412 Au  0  0  0  0  0  0  0  0  0  0  0  0
    1.9351   -0.3678   -0.7016 Cl  0  0  0  0  0  0  0  0  0  0  0  0
    3.1941   -2.1256    3.3125 Cl  0  0  0  0  0  0  0  0  0  0  0  0
    2.5613   -2.9656    0.5546 C   0  0  0  0  0  0  0  0  0  0  0  0
    1.4059   -3.7269    0.5268 C   0  0  0  0  0  0  0  0  0  0  0  0
    1.3894   -5.0045   -0.0271 C   0  0  0  0  0  0  0  0  0  0  0  0
    2.5598   -5.5317   -0.5651 C   0  0  0  0  0  0  0  0  0  0  0  0
    3.7310   -4.7799   -0.5455 C   0  0  0  0  0  0  0  0  0  0  0  0
    3.7156   -3.5052    0.0145 C   0  0  0  0  0  0  0  0  0  0  0  0
    0.2800   -3.2243    1.0440 F   0  0  0  0  0  0  0  0  0  0  0  0
    0.2647   -5.7189   -0.0432 F   0  0  0  0  0  0  0  0  0  0  0  0
    2.5590   -6.7524   -1.0974 F   0  0  0  0  0  0  0  0  0  0  0  0
    4.8549   -5.2787   -1.0588 F   0  0  0  0  0  0  0  0  0  0  0  0
    4.8420   -2.7845    0.0307 F   0  0  0  0  0  0  0  0  0  0  0  0
    2.5806    0.7612    2.1810 N   0  0  0  0  0  0  0  0  0  0  0  0
    3.4474    1.0676    3.1456 C   0  0  0  0  0  3  0  0  0  0  0  0
    4.1031    0.2741    3.4729 H   0  0  0  0  0  0  0  0  0  0  0  0
    3.5002    2.3213    3.7222 C   0  0  0  0  0  0  0  0  0  0  0  0
    4.2165    2.5352    4.4996 H   0  0  0  0  0  0  0  0  0  0  0  0
    2.6085    3.2984    3.2781 C   0  0  0  0  0  0  0  0  0  0  0  0
    1.7016    2.9690    2.2700 C   0  0  0  0  0  0  0  0  0  0  0  0
    0.9955    3.6951    1.8992 H   0  0  0  0  0  0  0  0  0  0  0  0
    1.7266    1.6895    1.7513 C   0  0  0  0  0  0  0  0  0  0  0  0
    1.0590    1.3969    0.9541 H   0  0  0  0  0  0  0  0  0  0  0  0
    2.6244    4.6017    3.8402 C   0  0  0  0  0  0  0  0  0  0  0  0
    2.6370    5.6522    4.2925 N   0  0  0  0  0  0  0  0  0  0  0  0
  1 15  1  0  0  0  0
  1  3  1  0  0  0  0
  2  1  1  0  0  0  0
  4  1  1  0  0  0  0
  5  4  1  0  0  0  0
  5 10  1  0  0  0  0
  6  5  2  0  0  0  0
  7  8  2  0  0  0  0
  7  6  1  0  0  0  0
  8  9  1  0  0  0  0
  9 14  1  0  0  0  0
  9  4  2  0  0  0  0
 11  6  1  0  0  0  0
 12  7  1  0  0  0  0
 13  8  1  0  0  0  0
 15 16  1  0  0  0  0
 16 17  1  0  0  0  0
 16 18  1  0  0  0  0
 18 19  1  0  0  0  0
 20 18  2  0  0  0  0
 20 25  1  0  0  0  0
 21 20  1  0  0  0  0
 22 21  1  0  0  0  0
 23 15  1  0  0  0  0
 23 21  2  0  0  0  0
 24 23  1  0  0  0  0
 25 26  3  0  0  0  0
M  END
$$$$
