CSD_code = GASGAK | q = 0 | S = 0 | Stoichiometry = C11H5AuCl2F5N | MND = 4
 OpenBabel04212202043D

 25 26  0  0  0  0  0  0  0  0999 V2000
    4.4299    1.8964    5.8127 Au  0  0  0  0  0  0  0  0  0  0  0  0
    4.8659    4.1352    5.8145 Cl  0  0  0  0  0  0  0  0  0  0  0  0
    4.0041   -0.3380    5.6464 Cl  0  0  0  0  0  0  0  0  0  0  0  0
    4.5557    1.9476    3.8498 C   0  0  0  0  0  0  0  0  0  0  0  0
    3.4295    2.1455    3.0697 C   0  0  0  0  0  0  0  0  0  0  0  0
    3.5021    2.1869    1.6799 C   0  0  0  0  0  0  0  0  0  0  0  0
    4.7351    2.0265    1.0550 C   0  0  0  0  0  0  0  0  0  0  0  0
    5.8786    1.8263    1.8223 C   0  0  0  0  0  0  0  0  0  0  0  0
    5.7729    1.7893    3.2100 C   0  0  0  0  0  0  0  0  0  0  0  0
    2.2421    2.3017    3.6655 F   0  0  0  0  0  0  0  0  0  0  0  0
    2.4026    2.3789    0.9505 F   0  0  0  0  0  0  0  0  0  0  0  0
    4.8205    2.0645   -0.2742 F   0  0  0  0  0  0  0  0  0  0  0  0
    7.0630    1.6720    1.2297 F   0  0  0  0  0  0  0  0  0  0  0  0
    6.8751    1.5960    3.9429 F   0  0  0  0  0  0  0  0  0  0  0  0
    4.2957    1.8446    7.8940 N   0  0  0  0  0  0  0  0  0  0  0  0
    5.1042    2.5952    8.6405 C   0  0  0  0  0  3  0  0  0  0  0  0
    5.8016    3.2257    8.1097 H   0  0  0  0  0  0  0  0  0  0  0  0
    5.0457    2.5905   10.0218 C   0  0  0  0  0  0  0  0  0  0  0  0
    5.7208    3.2132   10.5862 H   0  0  0  0  0  0  0  0  0  0  0  0
    4.1126    1.7816   10.6518 C   0  0  0  0  0  0  0  0  0  0  0  0
    4.0407    1.7574   11.7285 H   0  0  0  0  0  0  0  0  0  0  0  0
    3.2738    1.0045    9.8679 C   0  0  0  0  0  0  0  0  0  0  0  0
    2.5319    0.3589   10.3093 H   0  0  0  0  0  0  0  0  0  0  0  0
    3.3983    1.0628    8.4923 C   0  0  0  0  0  0  0  0  0  0  0  0
    2.7793    0.4590    7.8457 H   0  0  0  0  0  0  0  0  0  0  0  0
  1  2  1  0  0  0  0
  1 15  1  0  0  0  0
  3  1  1  0  0  0  0
  4  1  1  0  0  0  0
  5 10  1  0  0  0  0
  5  4  2  0  0  0  0
  6  5  1  0  0  0  0
  7  6  2  0  0  0  0
  7  8  1  0  0  0  0
  8  9  2  0  0  0  0
  9  4  1  0  0  0  0
  9 14  1  0  0  0  0
 11  6  1  0  0  0  0
 12  7  1  0  0  0  0
 13  8  1  0  0  0  0
 15 24  1  0  0  0  0
 15 16  1  0  0  0  0
 16 18  1  0  0  0  0
 17 16  1  0  0  0  0
 18 19  1  0  0  0  0
 18 20  2  0  0  0  0
 20 21  1  0  0  0  0
 22 23  1  0  0  0  0
 22 20  1  0  0  0  0
 24 22  2  0  0  0  0
 25 24  1  0  0  0  0
M  END
$$$$
