CSD_code = GASLUK | q = 0 | S = 0 | Stoichiometry = C16H21AuClO3P | MND = 2
 OpenBabel04212202043D

 43 46  0  0  1  0  0  0  0  0999 V2000
    4.7840    1.8175    1.5338 Au  0  0  0  0  0  0  0  0  0  0  0  0
    3.7703    2.7865    3.2759 P   0  0  2  0  0  4  0  0  0  0  0  0
    5.7637    0.8224   -0.2416 Cl  0  0  0  0  0  0  0  0  0  0  0  0
    2.8683    0.5094    4.2166 O   0  0  0  0  0  0  0  0  0  0  0  0
    0.7943    1.3070    4.9476 O   0  0  0  0  0  0  0  0  0  0  0  0
    4.4531    6.4572    5.0056 C   0  0  0  0  0  0  0  0  0  0  0  0
    3.9005    7.2572    5.4757 H   0  0  0  0  0  0  0  0  0  0  0  0
    1.3252    3.4817    4.2700 O   0  0  0  0  0  0  0  0  0  0  0  0
    4.4902    4.3095    3.9369 C   0  0  0  0  0  0  0  0  0  0  0  0
    4.9302    1.1502    5.2006 C   0  0  0  0  0  0  0  0  0  0  0  0
    5.5169    1.9928    5.5631 H   0  0  0  0  0  0  0  0  0  0  0  0
    5.4474    0.6785    4.3656 H   0  0  0  0  0  0  0  0  0  0  0  0
    4.8166    0.4167    5.9955 H   0  0  0  0  0  0  0  0  0  0  0  0
    3.5624    1.6313    4.7358 C   0  0  1  0  0  0  0  0  0  0  0  0
    5.8718    4.4199    3.7806 C   0  0  0  0  0  0  0  0  0  0  0  0
    6.4103    3.6244    3.2799 H   0  0  0  0  0  0  0  0  0  0  0  0
    0.4304    3.1264    6.4196 C   0  0  0  0  0  0  0  0  0  0  0  0
    0.8331    4.0737    6.7636 H   0  0  0  0  0  0  0  0  0  0  0  0
    0.3634    2.4255    7.2449 H   0  0  0  0  0  0  0  0  0  0  0  0
   -0.5592    3.2836    6.0018 H   0  0  0  0  0  0  0  0  0  0  0  0
    1.3341    2.5495    5.3359 C   0  0  1  0  0  0  0  0  0  0  0  0
    3.7779    5.3394    4.5482 C   0  0  0  0  0  0  0  0  0  0  0  0
    2.7060    5.2696    4.6594 H   0  0  0  0  0  0  0  0  0  0  0  0
    5.8278    6.5564    4.8620 C   0  0  0  0  0  0  0  0  0  0  0  0
    6.3451    7.4327    5.2225 H   0  0  0  0  0  0  0  0  0  0  0  0
    1.9281    3.0408    3.0649 C   0  0  2  0  0  0  0  0  0  0  0  0
    1.5107    0.7289    3.8768 C   0  0  2  0  0  0  0  0  0  0  0  0
    0.9104   -0.6436    3.6006 C   0  0  0  0  0  0  0  0  0  0  0  0
   -0.1413   -0.5392    3.3558 H   0  0  0  0  0  0  0  0  0  0  0  0
    1.0138   -1.2568    4.4904 H   0  0  0  0  0  0  0  0  0  0  0  0
    1.4451   -1.1080    2.7785 H   0  0  0  0  0  0  0  0  0  0  0  0
    2.7656    2.3114    5.8445 C   0  0  0  0  0  0  0  0  0  0  0  0
    3.2343    3.2543    6.1296 H   0  0  0  0  0  0  0  0  0  0  0  0
    2.7151    1.6509    6.7121 H   0  0  0  0  0  0  0  0  0  0  0  0
    1.3915    1.6658    2.6639 C   0  0  0  0  0  0  0  0  0  0  0  0
    0.3393    1.7428    2.3847 H   0  0  0  0  0  0  0  0  0  0  0  0
    1.9678    1.2665    1.8257 H   0  0  0  0  0  0  0  0  0  0  0  0
    1.6738    4.0873    1.9868 C   0  0  0  0  0  0  0  0  0  0  0  0
    2.1423    3.7657    1.0575 H   0  0  0  0  0  0  0  0  0  0  0  0
    2.0945    5.0460    2.2836 H   0  0  0  0  0  0  0  0  0  0  0  0
    0.6042    4.2080    1.8299 H   0  0  0  0  0  0  0  0  0  0  0  0
    6.5381    5.5367    4.2481 C   0  0  0  0  0  0  0  0  0  0  0  0
    7.6078    5.6160    4.1270 H   0  0  0  0  0  0  0  0  0  0  0  0
  2  1  1  6  0  0  0
  2  9  1  0  0  0  0
  2 14  1  0  0  0  0
  3  1  1  0  0  0  0
  4 14  1  0  0  0  0
  5 21  1  0  0  0  0
  6  7  1  0  0  0  0
  8 21  1  0  0  0  0
  9 22  1  0  0  0  0
 10 11  1  0  0  0  0
 10 13  1  0  0  0  0
 12 10  1  0  0  0  0
 14 10  1  1  0  0  0
 14 32  1  0  0  0  0
 15  9  2  0  0  0  0
 15 42  1  0  0  0  0
 16 15  1  0  0  0  0
 17 18  1  0  0  0  0
 17 19  1  0  0  0  0
 20 17  1  0  0  0  0
 21 32  1  0  0  0  0
 21 17  1  1  0  0  0
 22 23  1  0  0  0  0
 22  6  2  0  0  0  0
 24  6  1  0  0  0  0
 24 25  1  0  0  0  0
 26 38  1  6  0  0  0
 26  2  1  0  0  0  0
 26  8  1  0  0  0  0
 27 28  1  6  0  0  0
 27  4  1  0  0  0  0
 27  5  1  0  0  0  0
 28 30  1  0  0  0  0
 29 28  1  0  0  0  0
 31 28  1  0  0  0  0
 32 33  1  0  0  0  0
 32 34  1  0  0  0  0
 35 26  1  0  0  0  0
 35 27  1  0  0  0  0
 36 35  1  0  0  0  0
 37 35  1  0  0  0  0
 38 40  1  0  0  0  0
 39 38  1  0  0  0  0
 41 38  1  0  0  0  0
 42 24  2  0  0  0  0
 43 42  1  0  0  0  0
M  END
$$$$
