CSD_code = GATDOV | q = 1 | S = 0 | Stoichiometry = C27H33Cl3N3Ti(1+) | MND = 6
 OpenBabel04212202043D

 67 72  0  0  1  0  0  0  0  0999 V2000
    5.0479   13.8684    4.8155 Ti  0  0  0  0  0  0  0  0  0  0  0  0
    5.2145   15.9342    5.3167 Cl  0  0  0  0  0  0  0  0  0  0  0  0
    7.0163   13.2488    5.3947 Cl  0  0  0  0  0  0  0  0  0  0  0  0
    3.8877   13.0381    6.4017 Cl  0  0  0  0  0  0  0  0  0  0  0  0
    4.1931   14.6074    2.4668 C   0  0  0  0  0  0  0  0  0  0  0  0
    3.9064   14.3115    1.4360 H   0  0  0  0  0  0  0  0  0  0  0  0
    4.0828   15.6910    2.5898 H   0  0  0  0  0  0  0  0  0  0  0  0
    5.5572   14.2144    2.8073 N   0  0  1  0  0  4  0  0  0  0  0  0
    6.6346   15.0983    2.3509 C   0  0  0  0  0  0  0  0  0  0  0  0
    7.5644   14.7527    2.8165 H   0  0  0  0  0  0  0  0  0  0  0  0
    6.4254   16.1044    2.7303 H   0  0  0  0  0  0  0  0  0  0  0  0
    6.8051   15.1468    0.8262 C   0  0  0  0  0  0  0  0  0  0  0  0
    7.0385   14.1517    0.4432 H   0  0  0  0  0  0  0  0  0  0  0  0
    5.8832   15.4979    0.3584 H   0  0  0  0  0  0  0  0  0  0  0  0
    7.9314   16.0914    0.4874 C   0  0  0  0  0  0  0  0  0  0  0  0
    9.2326   15.6216    0.3744 C   0  0  0  0  0  0  0  0  0  0  0  0
    9.4360   14.5674    0.4990 H   0  0  0  0  0  0  0  0  0  0  0  0
   10.2695   16.4929    0.0909 C   0  0  0  0  0  0  0  0  0  0  0  0
   11.2766   16.1165   -0.0010 H   0  0  0  0  0  0  0  0  0  0  0  0
   10.0144   17.8432   -0.0767 C   0  0  0  0  0  0  0  0  0  0  0  0
   10.8222   18.5226   -0.2997 H   0  0  0  0  0  0  0  0  0  0  0  0
    8.7195   18.3193    0.0389 C   0  0  0  0  0  0  0  0  0  0  0  0
    8.5153   19.3706   -0.0932 H   0  0  0  0  0  0  0  0  0  0  0  0
    7.6834   17.4472    0.3222 C   0  0  0  0  0  0  0  0  0  0  0  0
    6.6732   17.8225    0.4056 H   0  0  0  0  0  0  0  0  0  0  0  0
    5.7248   12.7884    2.5324 C   0  0  0  0  0  0  0  0  0  0  0  0
    5.4154   12.5188    1.5032 H   0  0  0  0  0  0  0  0  0  0  0  0
    6.7680   12.4998    2.7037 H   0  0  0  0  0  0  0  0  0  0  0  0
    4.8710   12.1772    3.5474 N   0  0  1  0  0  4  0  0  0  0  0  0
    5.1778   10.7951    3.9273 C   0  0  0  0  0  0  0  0  0  0  0  0
    4.5414   10.5362    4.7809 H   0  0  0  0  0  0  0  0  0  0  0  0
    6.2187   10.7675    4.2661 H   0  0  0  0  0  0  0  0  0  0  0  0
    4.9732    9.7734    2.8003 C   0  0  0  0  0  0  0  0  0  0  0  0
    3.9353    9.7920    2.4622 H   0  0  0  0  0  0  0  0  0  0  0  0
    5.6234   10.0136    1.9569 H   0  0  0  0  0  0  0  0  0  0  0  0
    5.3078    8.3960    3.3161 C   0  0  0  0  0  0  0  0  0  0  0  0
    6.6139    7.9282    3.2691 C   0  0  0  0  0  0  0  0  0  0  0  0
    7.3892    8.5423    2.8331 H   0  0  0  0  0  0  0  0  0  0  0  0
    6.9273    6.6754    3.7657 C   0  0  0  0  0  0  0  0  0  0  0  0
    7.9447    6.3187    3.7190 H   0  0  0  0  0  0  0  0  0  0  0  0
    5.9372    5.8809    4.3185 C   0  0  0  0  0  0  0  0  0  0  0  0
    6.1807    4.9030    4.7034 H   0  0  0  0  0  0  0  0  0  0  0  0
    4.6333    6.3430    4.3725 C   0  0  0  0  0  0  0  0  0  0  0  0
    3.8574    5.7266    4.7996 H   0  0  0  0  0  0  0  0  0  0  0  0
    4.3211    7.5963    3.8759 C   0  0  0  0  0  0  0  0  0  0  0  0
    3.3006    7.9503    3.9152 H   0  0  0  0  0  0  0  0  0  0  0  0
    3.4797   12.4733    3.2307 C   0  0  0  0  0  0  0  0  0  0  0  0
    3.2113   12.2110    2.1863 H   0  0  0  0  0  0  0  0  0  0  0  0
    2.8252   11.9403    3.9300 H   0  0  0  0  0  0  0  0  0  0  0  0
    3.3870   13.9132    3.4721 N   0  0  1  0  0  4  0  0  0  0  0  0
    2.0252   14.4348    3.6461 C   0  0  0  0  0  0  0  0  0  0  0  0
    1.4098   13.6448    4.0848 H   0  0  0  0  0  0  0  0  0  0  0  0
    1.5937   14.7072    2.6738 H   0  0  0  0  0  0  0  0  0  0  0  0
    1.9984   15.6347    4.5973 C   0  0  0  0  0  0  0  0  0  0  0  0
    2.5285   16.4849    4.1629 H   0  0  0  0  0  0  0  0  0  0  0  0
    2.4962   15.3444    5.5299 H   0  0  0  0  0  0  0  0  0  0  0  0
    0.5673   16.0155    4.8849 C   0  0  0  0  0  0  0  0  0  0  0  0
   -0.0676   17.0060    4.1491 C   0  0  0  0  0  0  0  0  0  0  0  0
    0.4761   17.5364    3.3802 H   0  0  0  0  0  0  0  0  0  0  0  0
   -1.3891   17.3297    4.4046 C   0  0  0  0  0  0  0  0  0  0  0  0
   -1.8717   18.1067    3.8319 H   0  0  0  0  0  0  0  0  0  0  0  0
   -2.0878   16.6615    5.3950 C   0  0  0  0  0  0  0  0  0  0  0  0
   -3.1167   16.9160    5.5965 H   0  0  0  0  0  0  0  0  0  0  0  0
   -1.4611   15.6701    6.1317 C   0  0  0  0  0  0  0  0  0  0  0  0
   -2.0006   15.1509    6.9089 H   0  0  0  0  0  0  0  0  0  0  0  0
   -0.1403   15.3478    5.8761 C   0  0  0  0  0  0  0  0  0  0  0  0
    0.3519   14.5816    6.4586 H   0  0  0  0  0  0  0  0  0  0  0  0
  1  2  1  0  0  0  0
  1  3  1  0  0  0  0
  1  4  1  0  0  0  0
  5  7  1  0  0  0  0
  5  8  1  0  0  0  0
  5 50  1  0  0  0  0
  6  5  1  0  0  0  0
  8  9  1  6  0  0  0
  8  1  1  0  0  0  0
  9 11  1  0  0  0  0
  9 10  1  0  0  0  0
 12  9  1  0  0  0  0
 13 12  1  0  0  0  0
 14 12  1  0  0  0  0
 15 12  1  0  0  0  0
 16 15  1  0  0  0  0
 16 17  1  0  0  0  0
 18 16  2  0  0  0  0
 19 18  1  0  0  0  0
 20 22  2  0  0  0  0
 20 18  1  0  0  0  0
 21 20  1  0  0  0  0
 22 24  1  0  0  0  0
 23 22  1  0  0  0  0
 24 25  1  0  0  0  0
 24 15  2  0  0  0  0
 26 28  1  0  0  0  0
 26  8  1  0  0  0  0
 26 29  1  0  0  0  0
 27 26  1  0  0  0  0
 29 30  1  1  0  0  0
 29  1  1  0  0  0  0
 30 32  1  0  0  0  0
 30 31  1  0  0  0  0
 33 36  1  0  0  0  0
 33 30  1  0  0  0  0
 34 33  1  0  0  0  0
 35 33  1  0  0  0  0
 36 45  1  0  0  0  0
 37 36  2  0  0  0  0
 37 39  1  0  0  0  0
 38 37  1  0  0  0  0
 39 41  2  0  0  0  0
 40 39  1  0  0  0  0
 41 43  1  0  0  0  0
 41 42  1  0  0  0  0
 43 44  1  0  0  0  0
 45 46  1  0  0  0  0
 45 43  2  0  0  0  0
 47 50  1  0  0  0  0
 47 29  1  0  0  0  0
 47 49  1  0  0  0  0
 48 47  1  0  0  0  0
 50 51  1  1  0  0  0
 50  1  1  0  0  0  0
 51 52  1  0  0  0  0
 51 54  1  0  0  0  0
 53 51  1  0  0  0  0
 54 57  1  0  0  0  0
 54 56  1  0  0  0  0
 55 54  1  0  0  0  0
 57 66  1  0  0  0  0
 58 60  1  0  0  0  0
 58 57  2  0  0  0  0
 59 58  1  0  0  0  0
 60 62  2  0  0  0  0
 61 60  1  0  0  0  0
 62 63  1  0  0  0  0
 62 64  1  0  0  0  0
 64 65  1  0  0  0  0
 66 64  2  0  0  0  0
 66 67  1  0  0  0  0
M  END
$$$$
