CSD_code = GATFUD | q = 0 | S = 0 | Stoichiometry = C21H34BBrFeN6 | MND = 4
 OpenBabel04212202043D

 64 68  0  0  1  0  0  0  0  0999 V2000
   16.7073    3.4655    4.9942 Br  0  0  0  0  0  0  0  0  0  0  0  0
   15.1604    1.7949    5.0566 Fe  0  0  2  0  0  0  0  0  0  0  0  0
   12.6281    1.6440    6.8489 B   0  0  2  0  0  0  0  0  0  0  0  0
   13.9205    1.7243    7.6559 N   0  0  0  0  0  0  0  0  0  0  0  0
   16.0242    1.4935    8.0828 N   0  0  0  0  0  0  0  0  0  0  0  0
   15.1214    1.6094    7.0641 C   0  0  2  0  0  3  0  0  0  0  0  0
   14.0519    1.7374    9.0090 C   0  0  0  0  0  0  0  0  0  0  0  0
   13.2115    1.8398    9.6644 H   0  0  0  0  0  0  0  0  0  0  0  0
   15.3667    1.6027    9.2859 C   0  0  0  0  0  0  0  0  0  0  0  0
   15.8655    1.5830   10.2309 H   0  0  0  0  0  0  0  0  0  0  0  0
   17.4561    1.2006    8.0284 C   0  0  0  0  0  0  0  0  0  0  0  0
   17.7802    0.4609    6.7323 C   0  0  0  0  0  0  0  0  0  0  0  0
   17.2560   -0.4920    6.7109 H   0  0  0  0  0  0  0  0  0  0  0  0
   18.8493    0.2778    6.6663 H   0  0  0  0  0  0  0  0  0  0  0  0
   17.4875    1.0505    5.8664 H   0  0  0  0  0  0  0  0  0  0  0  0
   18.2535    2.5026    8.1439 C   0  0  0  0  0  0  0  0  0  0  0  0
   18.0502    3.1573    7.3034 H   0  0  0  0  0  0  0  0  0  0  0  0
   19.3182    2.2866    8.1650 H   0  0  0  0  0  0  0  0  0  0  0  0
   17.9865    3.0259    9.0591 H   0  0  0  0  0  0  0  0  0  0  0  0
   17.8363    0.2697    9.1916 C   0  0  0  0  0  0  0  0  0  0  0  0
   17.8688    0.7978   10.1405 H   0  0  0  0  0  0  0  0  0  0  0  0
   18.8269   -0.1401    9.0105 H   0  0  0  0  0  0  0  0  0  0  0  0
   17.1317   -0.5559    9.2713 H   0  0  0  0  0  0  0  0  0  0  0  0
   12.8106    0.4274    5.9288 N   0  0  0  0  0  0  0  0  0  0  0  0
   13.7674   -0.7975    4.4227 N   0  0  0  0  0  0  0  0  0  0  0  0
   13.8679    0.3787    5.1040 C   0  0  2  0  0  3  0  0  0  0  0  0
   12.0510   -0.6904    5.7786 C   0  0  0  0  0  0  0  0  0  0  0  0
   11.1563   -0.8564    6.3435 H   0  0  0  0  0  0  0  0  0  0  0  0
   12.6393   -1.4657    4.8372 C   0  0  0  0  0  0  0  0  0  0  0  0
   12.3367   -2.4160    4.4522 H   0  0  0  0  0  0  0  0  0  0  0  0
   14.7193   -1.2317    3.4103 C   0  0  0  0  0  0  0  0  0  0  0  0
   14.3512   -2.6060    2.8526 C   0  0  0  0  0  0  0  0  0  0  0  0
   14.3431   -3.3567    3.6395 H   0  0  0  0  0  0  0  0  0  0  0  0
   15.0893   -2.9002    2.1106 H   0  0  0  0  0  0  0  0  0  0  0  0
   13.3770   -2.5828    2.3699 H   0  0  0  0  0  0  0  0  0  0  0  0
   14.7259   -0.1964    2.2834 C   0  0  0  0  0  0  0  0  0  0  0  0
   13.7309   -0.0848    1.8594 H   0  0  0  0  0  0  0  0  0  0  0  0
   15.4142   -0.4886    1.4951 H   0  0  0  0  0  0  0  0  0  0  0  0
   15.0429    0.7670    2.6893 H   0  0  0  0  0  0  0  0  0  0  0  0
   16.1091   -1.2847    4.0483 C   0  0  0  0  0  0  0  0  0  0  0  0
   16.3815   -0.2835    4.3955 H   0  0  0  0  0  0  0  0  0  0  0  0
   16.8512   -1.6184    3.3282 H   0  0  0  0  0  0  0  0  0  0  0  0
   16.1142   -1.9615    4.8991 H   0  0  0  0  0  0  0  0  0  0  0  0
   12.6175    2.8479    5.9122 N   0  0  0  0  0  0  0  0  0  0  0  0
   13.1055    4.0274    4.1711 N   0  0  0  0  0  0  0  0  0  0  0  0
   13.5376    2.9861    4.9427 C   0  0  1  0  0  3  0  0  0  0  0  0
   11.6553    3.8016    5.7999 C   0  0  0  0  0  0  0  0  0  0  0  0
   10.8389    3.8743    6.4888 H   0  0  0  0  0  0  0  0  0  0  0  0
   11.9572    4.5507    4.7176 C   0  0  0  0  0  0  0  0  0  0  0  0
   11.4485    5.3999    4.3151 H   0  0  0  0  0  0  0  0  0  0  0  0
   13.6403    4.5340    2.9076 C   0  0  0  0  0  0  0  0  0  0  0  0
   14.4007    3.4220    2.1879 C   0  0  0  0  0  0  0  0  0  0  0  0
   15.1872    3.0177    2.8223 H   0  0  0  0  0  0  0  0  0  0  0  0
   14.8652    3.8127    1.2866 H   0  0  0  0  0  0  0  0  0  0  0  0
   13.7148    2.6233    1.9147 H   0  0  0  0  0  0  0  0  0  0  0  0
   12.4824    4.9609    1.9903 C   0  0  0  0  0  0  0  0  0  0  0  0
   11.7049    4.1995    1.9691 H   0  0  0  0  0  0  0  0  0  0  0  0
   12.8602    5.0945    0.9796 H   0  0  0  0  0  0  0  0  0  0  0  0
   12.0435    5.9041    2.3036 H   0  0  0  0  0  0  0  0  0  0  0  0
   14.5398    5.7434    3.1773 C   0  0  0  0  0  0  0  0  0  0  0  0
   13.9884    6.5059    3.7232 H   0  0  0  0  0  0  0  0  0  0  0  0
   14.8840    6.1681    2.2380 H   0  0  0  0  0  0  0  0  0  0  0  0
   15.4053    5.4593    3.7663 H   0  0  0  0  0  0  0  0  0  0  0  0
   11.6594    1.5727    7.5271 H   0  0  0  0  0  0  0  0  0  0  0  0
  2  1  1  6  0  0  0
  2 26  1  0  0  0  0
  2  6  1  0  0  0  0
  3 64  1  1  0  0  0
  3  4  1  0  0  0  0
  4  7  1  0  0  0  0
  5  9  1  0  0  0  0
  6  4  1  1  0  0  0
  6  5  1  0  0  0  0
  7  9  2  0  0  0  0
  7  8  1  0  0  0  0
  9 10  1  0  0  0  0
 11  5  1  0  0  0  0
 11 16  1  0  0  0  0
 11 20  1  0  0  0  0
 12 11  1  0  0  0  0
 13 12  1  0  0  0  0
 14 12  1  0  0  0  0
 15 12  1  0  0  0  0
 16 18  1  0  0  0  0
 16 19  1  0  0  0  0
 17 16  1  0  0  0  0
 20 23  1  0  0  0  0
 20 21  1  0  0  0  0
 22 20  1  0  0  0  0
 24  3  1  0  0  0  0
 25 29  1  0  0  0  0
 26 25  1  1  0  0  0
 26 24  1  0  0  0  0
 27 24  1  0  0  0  0
 27 28  1  0  0  0  0
 29 27  2  0  0  0  0
 30 29  1  0  0  0  0
 31 40  1  0  0  0  0
 31 25  1  0  0  0  0
 32 31  1  0  0  0  0
 32 33  1  0  0  0  0
 34 32  1  0  0  0  0
 35 32  1  0  0  0  0
 36 39  1  0  0  0  0
 36 31  1  0  0  0  0
 37 36  1  0  0  0  0
 38 36  1  0  0  0  0
 40 41  1  0  0  0  0
 40 43  1  0  0  0  0
 42 40  1  0  0  0  0
 44  3  1  0  0  0  0
 45 49  1  0  0  0  0
 46 45  1  1  0  0  0
 46  2  1  0  0  0  0
 46 44  1  0  0  0  0
 47 44  1  0  0  0  0
 47 48  1  0  0  0  0
 49 47  2  0  0  0  0
 50 49  1  0  0  0  0
 51 60  1  0  0  0  0
 51 45  1  0  0  0  0
 52 53  1  0  0  0  0
 52 51  1  0  0  0  0
 54 52  1  0  0  0  0
 55 52  1  0  0  0  0
 56 59  1  0  0  0  0
 56 51  1  0  0  0  0
 57 56  1  0  0  0  0
 58 56  1  0  0  0  0
 60 61  1  0  0  0  0
 60 63  1  0  0  0  0
 62 60  1  0  0  0  0
M  END
$$$$
