CSD_code = GATMAP | q = 0 | S = 0 | Stoichiometry = C12H24Cl3CuN4 | MND = 5
 OpenBabel04212202043D

 44 47  0  0  1  0  0  0  0  0999 V2000
    0.0005   -0.0011    0.0001 Cu  0  0  0  0  0  0  0  0  0  0  0  0
    2.2837    0.0001    0.0006 Cl  0  0  0  0  0  0  0  0  0  0  0  0
   -0.0000    0.0002    1.9999 N   0  0  1  0  0  4  0  0  0  0  0  0
   -0.0001   -0.0000    4.5228 N   0  0  1  0  0  0  0  0  0  0  0  0
    0.6756   -1.1977    2.4920 C   0  0  0  0  0  0  0  0  0  0  0  0
    0.7248   -1.1508    4.0487 C   0  0  0  0  0  0  0  0  0  0  0  0
    1.6833   -1.2311    2.0764 H   0  0  0  0  0  0  0  0  0  0  0  0
    0.1268   -2.0743    2.1459 H   0  0  0  0  0  0  0  0  0  0  0  0
    1.7566   -1.0843    4.3976 H   0  0  0  0  0  0  0  0  0  0  0  0
    0.2743   -2.0519    4.4680 H   0  0  0  0  0  0  0  0  0  0  0  0
   -1.1408    1.9768    0.0009 Cl  0  0  0  0  0  0  0  0  0  0  0  0
   -1.1423   -1.9776   -0.0004 Cl  0  0  0  0  0  0  0  0  0  0  0  0
    0.6341    1.2031    4.0489 C   0  0  0  0  0  0  0  0  0  0  0  0
    0.6996    1.1843    2.4922 C   0  0  0  0  0  0  0  0  0  0  0  0
   -1.3753    0.0140    2.4920 C   0  0  0  0  0  0  0  0  0  0  0  0
   -1.3591   -0.0524    4.0487 C   0  0  0  0  0  0  0  0  0  0  0  0
   -1.8174   -0.9793    4.3974 H   0  0  0  0  0  0  0  0  0  0  0  0
   -1.9143    0.7882    4.4684 H   0  0  0  0  0  0  0  0  0  0  0  0
   -1.9081   -0.8418    2.0762 H   0  0  0  0  0  0  0  0  0  0  0  0
   -1.8598    0.9278    2.1460 H   0  0  0  0  0  0  0  0  0  0  0  0
    0.2249    2.0737    2.0764 H   0  0  0  0  0  0  0  0  0  0  0  0
    1.7333    1.1471    2.1464 H   0  0  0  0  0  0  0  0  0  0  0  0
    0.0605    2.0634    4.3977 H   0  0  0  0  0  0  0  0  0  0  0  0
    1.6397    1.2636    4.4686 H   0  0  0  0  0  0  0  0  0  0  0  0
    0.0000    0.0001   -1.9997 N   0  0  1  0  0  4  0  0  0  0  0  0
   -1.3752   -0.0132   -2.4920 C   0  0  0  0  0  0  0  0  0  0  0  0
   -1.3591    0.0516   -4.0488 C   0  0  0  0  0  0  0  0  0  0  0  0
   -0.0001   -0.0000   -4.5228 N   0  0  1  0  0  0  0  0  0  0  0  0
    0.7243    1.1511   -4.0489 C   0  0  0  0  0  0  0  0  0  0  0  0
    0.6761    1.1976   -2.4922 C   0  0  0  0  0  0  0  0  0  0  0  0
    0.6991   -1.1842   -2.4920 C   0  0  0  0  0  0  0  0  0  0  0  0
    0.6347   -1.2029   -4.0488 C   0  0  0  0  0  0  0  0  0  0  0  0
    0.0619   -2.0635   -4.3983 H   0  0  0  0  0  0  0  0  0  0  0  0
    1.6405   -1.2625   -4.4680 H   0  0  0  0  0  0  0  0  0  0  0  0
    0.2235   -2.0735   -2.0769 H   0  0  0  0  0  0  0  0  0  0  0  0
    1.7325   -1.1479   -2.1455 H   0  0  0  0  0  0  0  0  0  0  0  0
    1.6841    1.2302   -2.0772 H   0  0  0  0  0  0  0  0  0  0  0  0
    0.1282    2.0745   -2.1454 H   0  0  0  0  0  0  0  0  0  0  0  0
    1.7559    1.0855   -4.3986 H   0  0  0  0  0  0  0  0  0  0  0  0
    0.2728    2.0520   -4.4679 H   0  0  0  0  0  0  0  0  0  0  0  0
   -1.8182    0.9779   -4.3983 H   0  0  0  0  0  0  0  0  0  0  0  0
   -1.9137   -0.7898   -4.4678 H   0  0  0  0  0  0  0  0  0  0  0  0
   -1.9074    0.8433   -2.0769 H   0  0  0  0  0  0  0  0  0  0  0  0
   -1.8604   -0.9263   -2.1453 H   0  0  0  0  0  0  0  0  0  0  0  0
  1  2  1  0  0  0  0
  1 11  1  0  0  0  0
  3  1  1  6  0  0  0
  3  5  1  0  0  0  0
  3 15  1  0  0  0  0
  3 14  1  0  0  0  0
  4  6  1  6  0  0  0
  5  6  1  0  0  0  0
  6  9  1  0  0  0  0
  6 10  1  0  0  0  0
  7  5  1  0  0  0  0
  8  5  1  0  0  0  0
 12  1  1  0  0  0  0
 13 23  1  0  0  0  0
 13 24  1  0  0  0  0
 13  4  1  0  0  0  0
 14 13  1  0  0  0  0
 15 16  1  0  0  0  0
 16 17  1  0  0  0  0
 16 18  1  0  0  0  0
 16  4  1  0  0  0  0
 19 15  1  0  0  0  0
 20 15  1  0  0  0  0
 21 14  1  0  0  0  0
 22 14  1  0  0  0  0
 25  1  1  1  0  0  0
 26 44  1  0  0  0  0
 26 43  1  0  0  0  0
 26 25  1  0  0  0  0
 27 26  1  0  0  0  0
 28 29  1  1  0  0  0
 28 32  1  0  0  0  0
 28 27  1  0  0  0  0
 29 30  1  0  0  0  0
 30 38  1  0  0  0  0
 30 37  1  0  0  0  0
 30 25  1  0  0  0  0
 31 36  1  0  0  0  0
 31 35  1  0  0  0  0
 31 25  1  0  0  0  0
 32 31  1  0  0  0  0
 33 32  1  0  0  0  0
 34 32  1  0  0  0  0
 39 29  1  0  0  0  0
 40 29  1  0  0  0  0
 41 27  1  0  0  0  0
 42 27  1  0  0  0  0
M  END
$$$$
