CSD_code = GATPIC | q = 0 | S = 0 | Stoichiometry = C14H28Cl2N2O8Pt | MND = 6
 OpenBabel04212202043D

 55 54  0  0  0  0  0  0  0  0999 V2000
    2.0684    7.3848   10.0376 Pt  0  0  0  0  0  0  0  0  0  0  0  0
    3.4549    7.4760    8.2182 Cl  0  0  0  0  0  0  0  0  0  0  0  0
    3.6497    8.1842   11.4769 Cl  0  0  0  0  0  0  0  0  0  0  0  0
    2.3671    5.4089   10.5550 O   0  0  0  0  0  0  0  0  0  0  0  0
    4.5683    5.5309   10.2584 O   0  0  0  0  0  0  0  0  0  0  0  0
    4.6178    1.5493   12.8907 O   0  0  0  0  0  0  0  0  0  0  0  0
    6.2799    1.0116   11.4900 O   0  0  0  0  0  0  0  0  0  0  0  0
    1.6046    9.3834    9.6197 O   0  0  0  0  0  0  0  0  0  0  0  0
   -0.5567    8.9181    9.7389 O   0  0  0  0  0  0  0  0  0  0  0  0
   -1.4872   13.3879   10.3127 O   0  0  0  0  0  0  0  0  0  0  0  0
   -2.6254   13.3334    8.3841 O   0  0  0  0  0  0  0  0  0  0  0  0
    0.6340    7.2900   11.6765 N   0  0  0  0  0  4  0  0  0  0  0  0
   -0.1975    7.7010   11.2358 H   0  0  0  0  0  0  0  0  0  0  0  0
    0.4702    6.2983   11.8514 H   0  0  0  0  0  0  0  0  0  0  0  0
    0.6166    6.6928    8.5590 N   0  0  0  0  0  4  0  0  0  0  0  0
   -0.1958    7.3056    8.6931 H   0  0  0  0  0  0  0  0  0  0  0  0
    1.0811    6.9557    7.6847 H   0  0  0  0  0  0  0  0  0  0  0  0
    3.5719    4.9384   10.5863 C   0  0  0  0  0  0  0  0  0  0  0  0
    3.5984    3.4985   11.1167 C   0  0  0  0  0  0  0  0  0  0  0  0
    3.4080    3.5472   12.1918 H   0  0  0  0  0  0  0  0  0  0  0  0
    2.7840    2.9359   10.6603 H   0  0  0  0  0  0  0  0  0  0  0  0
    4.9517    2.8461   10.8777 C   0  0  0  0  0  0  0  0  0  0  0  0
    5.7293    3.6090   10.9867 H   0  0  0  0  0  0  0  0  0  0  0  0
    5.0416    2.4440    9.8687 H   0  0  0  0  0  0  0  0  0  0  0  0
    5.2313    1.7493   11.8752 C   0  0  0  0  0  0  0  0  0  0  0  0
    6.6735   -0.0303   12.3726 C   0  0  0  0  0  0  0  0  0  0  0  0
    7.5257   -0.5177   11.9065 H   0  0  0  0  0  0  0  0  0  0  0  0
    5.8544   -0.7387   12.5128 H   0  0  0  0  0  0  0  0  0  0  0  0
    6.9515    0.3814   13.3448 H   0  0  0  0  0  0  0  0  0  0  0  0
    0.3829    9.7127    9.6070 C   0  0  0  0  0  0  0  0  0  0  0  0
    0.1344   11.2046    9.4339 C   0  0  0  0  0  0  0  0  0  0  0  0
    0.1815   11.6492   10.4332 H   0  0  0  0  0  0  0  0  0  0  0  0
    0.9466   11.6283    8.8450 H   0  0  0  0  0  0  0  0  0  0  0  0
   -1.2353   11.4951    8.8327 C   0  0  0  0  0  0  0  0  0  0  0  0
   -1.2246   11.4602    7.7439 H   0  0  0  0  0  0  0  0  0  0  0  0
   -1.9374   10.7326    9.1867 H   0  0  0  0  0  0  0  0  0  0  0  0
   -1.7674   12.8367    9.2821 C   0  0  0  0  0  0  0  0  0  0  0  0
   -3.2231   14.5822    8.7094 C   0  0  0  0  0  0  0  0  0  0  0  0
   -3.9130   14.8089    7.9010 H   0  0  0  0  0  0  0  0  0  0  0  0
   -2.4585   15.3570    8.7901 H   0  0  0  0  0  0  0  0  0  0  0  0
   -3.7537   14.5123    9.6608 H   0  0  0  0  0  0  0  0  0  0  0  0
    0.8913    7.9759   12.9462 C   0  0  0  0  0  0  0  0  0  0  0  0
    1.1190    9.0214   12.7295 H   0  0  0  0  0  0  0  0  0  0  0  0
    1.7717    7.5291   13.4108 H   0  0  0  0  0  0  0  0  0  0  0  0
   -0.3154    7.8795   13.8733 C   0  0  0  0  0  0  0  0  0  0  0  0
   -0.1061    8.3978   14.8041 H   0  0  0  0  0  0  0  0  0  0  0  0
   -0.5443    6.8409   14.1043 H   0  0  0  0  0  0  0  0  0  0  0  0
   -1.1895    8.3378   13.4147 H   0  0  0  0  0  0  0  0  0  0  0  0
    0.2110    5.2901    8.4916 C   0  0  0  0  0  0  0  0  0  0  0  0
   -0.2462    5.0099    9.4433 H   0  0  0  0  0  0  0  0  0  0  0  0
    1.1073    4.6826    8.3517 H   0  0  0  0  0  0  0  0  0  0  0  0
   -0.7715    5.0523    7.3493 C   0  0  0  0  0  0  0  0  0  0  0  0
   -1.0627    4.0064    7.3194 H   0  0  0  0  0  0  0  0  0  0  0  0
   -0.3166    5.3089    6.3954 H   0  0  0  0  0  0  0  0  0  0  0  0
   -1.6672    5.6556    7.4826 H   0  0  0  0  0  0  0  0  0  0  0  0
  1  4  1  0  0  0  0
  1  3  1  0  0  0  0
  1 12  1  0  0  0  0
  2  1  1  0  0  0  0
  4 18  1  0  0  0  0
  5 18  2  0  0  0  0
  7 25  1  0  0  0  0
  7 26  1  0  0  0  0
  8  1  1  0  0  0  0
 11 38  1  0  0  0  0
 11 37  1  0  0  0  0
 12 14  1  0  0  0  0
 12 42  1  0  0  0  0
 13 12  1  0  0  0  0
 15 16  1  0  0  0  0
 15  1  1  0  0  0  0
 17 15  1  0  0  0  0
 18 19  1  0  0  0  0
 19 20  1  0  0  0  0
 21 19  1  0  0  0  0
 22 23  1  0  0  0  0
 22 19  1  0  0  0  0
 22 25  1  0  0  0  0
 24 22  1  0  0  0  0
 25  6  2  0  0  0  0
 26 28  1  0  0  0  0
 26 29  1  0  0  0  0
 27 26  1  0  0  0  0
 30  8  1  0  0  0  0
 30  9  2  0  0  0  0
 31 30  1  0  0  0  0
 31 32  1  0  0  0  0
 33 31  1  0  0  0  0
 34 36  1  0  0  0  0
 34 37  1  0  0  0  0
 34 31  1  0  0  0  0
 35 34  1  0  0  0  0
 37 10  2  0  0  0  0
 38 40  1  0  0  0  0
 38 41  1  0  0  0  0
 39 38  1  0  0  0  0
 42 44  1  0  0  0  0
 42 45  1  0  0  0  0
 43 42  1  0  0  0  0
 45 47  1  0  0  0  0
 45 46  1  0  0  0  0
 48 45  1  0  0  0  0
 49 15  1  0  0  0  0
 49 50  1  0  0  0  0
 51 49  1  0  0  0  0
 52 55  1  0  0  0  0
 52 49  1  0  0  0  0
 53 52  1  0  0  0  0
 54 52  1  0  0  0  0
M  END
$$$$
