CSD_code = GATPEX | q = 0 | S = 0 | Stoichiometry = C24H22Cl2Zr | MND = 12
 OpenBabel04212202043D

 49 51  0  0  1  0  0  0  0  0999 V2000
   14.4877   16.2120   13.6162 Zr  0  0  0  0  0  0  0  0  0  0  0  0
   13.1618   17.5284   15.0224 Cl  0  0  0  0  0  0  0  0  0  0  0  0
   14.7219   14.6142   15.3174 Cl  0  0  0  0  0  0  0  0  0  0  0  0
   13.3496   17.6798   10.8456 C   0  0  0  0  0  0  0  0  0  0  0  0
   13.6132   21.5410    9.0262 C   0  0  0  0  0  0  0  0  0  0  0  0
   13.5192   20.2141    9.6503 C   0  0  0  0  0  0  0  0  0  0  0  0
   13.2877   16.3761   11.5055 C   0  0  1  0  0  0  0  0  0  0  0  0
   13.0545   18.8359   11.5782 C   0  0  0  0  0  0  0  0  0  0  0  0
   12.7669   18.7496   12.6229 H   0  0  0  0  0  0  0  0  0  0  0  0
   13.7296   17.8147    9.5098 C   0  0  0  0  0  0  0  0  0  0  0  0
   13.9534   16.9308    8.9299 H   0  0  0  0  0  0  0  0  0  0  0  0
   13.8089   19.0617    8.9229 C   0  0  0  0  0  0  0  0  0  0  0  0
   14.1177   19.1479    7.8914 H   0  0  0  0  0  0  0  0  0  0  0  0
   16.1960   17.4402   12.2994 C   0  0  0  0  0  0  0  0  0  0  0  0
   16.0999   17.7538   11.2673 H   0  0  0  0  0  0  0  0  0  0  0  0
   13.1406   20.0792   10.9864 C   0  0  0  0  0  0  0  0  0  0  0  0
   12.8979   20.9618   11.5598 H   0  0  0  0  0  0  0  0  0  0  0  0
   13.8139   14.2541   12.2297 C   0  0  0  0  0  0  0  0  0  0  0  0
   14.1860   15.2837   11.3363 C   0  0  0  0  0  0  0  0  0  0  0  0
   14.9595   15.2112   10.5811 H   0  0  0  0  0  0  0  0  0  0  0  0
   13.1448   21.7516    7.7312 C   0  0  0  0  0  0  0  0  0  0  0  0
   12.6900   20.9344    7.1903 H   0  0  0  0  0  0  0  0  0  0  0  0
   13.2308   23.0012    7.1464 C   0  0  0  0  0  0  0  0  0  0  0  0
   12.8567   23.1517    6.1442 H   0  0  0  0  0  0  0  0  0  0  0  0
   13.7917   24.0590    7.8422 C   0  0  0  0  0  0  0  0  0  0  0  0
   13.8606   25.0343    7.3838 H   0  0  0  0  0  0  0  0  0  0  0  0
   14.2638   23.8601    9.1288 C   0  0  0  0  0  0  0  0  0  0  0  0
   14.7061   24.6806    9.6749 H   0  0  0  0  0  0  0  0  0  0  0  0
   14.1729   22.6130    9.7180 C   0  0  0  0  0  0  0  0  0  0  0  0
   14.5577   22.4605   10.7159 H   0  0  0  0  0  0  0  0  0  0  0  0
   16.3481   17.5459   14.5796 C   0  0  0  0  0  0  0  0  0  0  0  0
   16.3333   17.9273   15.5945 H   0  0  0  0  0  0  0  0  0  0  0  0
   16.9340   16.3329   14.1601 C   0  0  0  0  0  0  0  0  0  0  0  0
   17.4538   15.6262   14.7957 H   0  0  0  0  0  0  0  0  0  0  0  0
   15.8905   18.2326   13.4287 C   0  0  0  0  0  3  0  0  0  0  0  0
   15.4928   19.2407   13.4098 H   0  0  0  0  0  0  0  0  0  0  0  0
   12.3373   15.9911   12.4957 C   0  0  0  0  0  0  0  0  0  0  0  0
   11.4471   16.5470   12.7683 H   0  0  0  0  0  0  0  0  0  0  0  0
   12.6550   14.6869   12.9389 C   0  0  0  0  0  0  0  0  0  0  0  0
   11.8511   13.8826   13.9183 C   0  0  0  0  0  0  0  0  0  0  0  0
   11.3309   14.5453   14.6116 H   0  0  0  0  0  0  0  0  0  0  0  0
   12.4924   13.2120   14.4895 H   0  0  0  0  0  0  0  0  0  0  0  0
   11.1060   13.2791   13.3951 H   0  0  0  0  0  0  0  0  0  0  0  0
   14.4768   12.9118   12.3555 C   0  0  0  0  0  0  0  0  0  0  0  0
   13.7793   12.1156   12.0913 H   0  0  0  0  0  0  0  0  0  0  0  0
   14.8102   12.7395   13.3821 H   0  0  0  0  0  0  0  0  0  0  0  0
   15.3376   12.8481   11.6909 H   0  0  0  0  0  0  0  0  0  0  0  0
   16.8226   16.2535   12.7543 C   0  0  0  0  0  0  0  0  0  0  0  0
   17.2851   15.4971   12.1308 H   0  0  0  0  0  0  0  0  0  0  0  0
  1  2  1  0  0  0  0
  1  3  1  0  0  0  0
  4  7  1  0  0  0  0
  4  8  1  0  0  0  0
  5  6  1  0  0  0  0
  5 29  1  0  0  0  0
  6 16  1  0  0  0  0
  7 37  1  0  0  0  0
  7  1  1  1  0  0  0
  8  9  1  0  0  0  0
 10  4  2  0  0  0  0
 11 10  1  0  0  0  0
 12 10  1  0  0  0  0
 12  6  2  0  0  0  0
 13 12  1  0  0  0  0
 14 48  2  0  0  0  0
 14 35  1  0  0  0  0
 15 14  1  0  0  0  0
 16 17  1  0  0  0  0
 16  8  2  0  0  0  0
 18 44  1  0  0  0  0
 18 39  1  0  0  0  0
 19  7  1  0  0  0  0
 19 18  2  0  0  0  0
 20 19  1  0  0  0  0
 21  5  2  0  0  0  0
 22 21  1  0  0  0  0
 23 21  1  0  0  0  0
 23 25  2  0  0  0  0
 24 23  1  0  0  0  0
 25 27  1  0  0  0  0
 26 25  1  0  0  0  0
 27 28  1  0  0  0  0
 27 29  2  0  0  0  0
 29 30  1  0  0  0  0
 31 32  1  0  0  0  0
 33 31  2  0  0  0  0
 33 34  1  0  0  0  0
 35 31  1  0  0  0  0
 36 35  1  0  0  0  0
 37 38  1  0  0  0  0
 37 39  2  0  0  0  0
 39 40  1  0  0  0  0
 40 42  1  0  0  0  0
 40 41  1  0  0  0  0
 43 40  1  0  0  0  0
 44 46  1  0  0  0  0
 45 44  1  0  0  0  0
 47 44  1  0  0  0  0
 48 33  1  0  0  0  0
 49 48  1  0  0  0  0
M  END
$$$$
