CSD_code = GATRAW | q = 0 | S = 0 | Stoichiometry = C13H13Cl2N3O2Ru | MND = 6
 OpenBabel04212202043D

 34 37  0  0  1  0  0  0  0  0999 V2000
    3.4694    1.2595    0.4995 Ru  0  0  0  0  0  0  0  0  0  0  0  0
    5.2919   -0.1483    0.3067 Cl  0  0  0  0  0  0  0  0  0  0  0  0
    2.0694   -0.3234   -0.4442 Cl  0  0  0  0  0  0  0  0  0  0  0  0
    3.9228    2.7903   -1.8321 O   0  0  0  0  0  1  0  0  0  0  0  0
    3.0420    0.4528    2.2314 O   0  0  0  0  0  0  0  0  0  0  0  0
    3.7424    2.0736   -0.9343 N   0  0  0  0  0  2  0  0  0  0  0  0
    4.6570    2.7363    1.6316 N   0  0  2  0  0  4  0  0  0  0  0  0
    5.5148    2.9255    1.1095 H   0  0  0  0  0  0  0  0  0  0  0  0
    1.9114    2.5527    1.1544 N   0  0  0  0  0  0  0  0  0  0  0  0
    2.9044    1.0431    3.3838 C   0  0  0  0  0  0  0  0  0  0  0  0
    1.8003    0.7591    4.2081 C   0  0  0  0  0  0  0  0  0  0  0  0
    1.0981    0.0104    3.8731 H   0  0  0  0  0  0  0  0  0  0  0  0
    1.6272    1.4246    5.4007 C   0  0  0  0  0  0  0  0  0  0  0  0
    0.7702    1.1972    6.0175 H   0  0  0  0  0  0  0  0  0  0  0  0
    2.5401    2.3842    5.8166 C   0  0  0  0  0  0  0  0  0  0  0  0
    2.3967    2.9030    6.7517 H   0  0  0  0  0  0  0  0  0  0  0  0
    3.6467    2.6579    5.0334 C   0  0  0  0  0  0  0  0  0  0  0  0
    4.3755    3.3861    5.3644 H   0  0  0  0  0  0  0  0  0  0  0  0
    3.8423    2.0041    3.8292 C   0  0  0  0  0  0  0  0  0  0  0  0
    5.0483    2.2527    2.9692 C   0  0  0  0  0  0  0  0  0  0  0  0
    5.5985    1.3150    2.8154 H   0  0  0  0  0  0  0  0  0  0  0  0
    5.7114    2.9817    3.4549 H   0  0  0  0  0  0  0  0  0  0  0  0
    0.6521    2.1514    1.2730 C   0  0  0  0  0  3  0  0  0  0  0  0
    0.3639    1.3239    0.6337 H   0  0  0  0  0  0  0  0  0  0  0  0
   -0.2262    2.7504    2.1591 C   0  0  0  0  0  0  0  0  0  0  0  0
   -1.2421    2.3989    2.2310 H   0  0  0  0  0  0  0  0  0  0  0  0
    0.2313    3.7954    2.9484 C   0  0  0  0  0  0  0  0  0  0  0  0
   -0.4222    4.2783    3.6579 H   0  0  0  0  0  0  0  0  0  0  0  0
    1.5470    4.2072    2.8195 C   0  0  0  0  0  0  0  0  0  0  0  0
    1.9382    5.0099    3.4239 H   0  0  0  0  0  0  0  0  0  0  0  0
    2.3731    3.5534    1.9155 C   0  0  0  0  0  0  0  0  0  0  0  0
    3.8161    3.9396    1.6940 C   0  0  0  0  0  0  0  0  0  0  0  0
    4.1525    4.6146    2.4912 H   0  0  0  0  0  0  0  0  0  0  0  0
    3.8864    4.4686    0.7348 H   0  0  0  0  0  0  0  0  0  0  0  0
  1  9  1  0  0  0  0
  1  7  1  0  0  0  0
  1  5  1  0  0  0  0
  2  1  1  0  0  0  0
  3  1  1  0  0  0  0
  4  6  1  0  0  0  0
  5 10  1  0  0  0  0
  6  1  1  0  0  0  0
  7  8  1  6  0  0  0
  7 32  1  0  0  0  0
  7 20  1  0  0  0  0
  9 23  1  0  0  0  0
  9 31  1  0  0  0  0
 10 19  2  0  0  0  0
 10 11  1  0  0  0  0
 11 13  2  0  0  0  0
 12 11  1  0  0  0  0
 13 15  1  0  0  0  0
 13 14  1  0  0  0  0
 15 16  1  0  0  0  0
 17 18  1  0  0  0  0
 17 15  2  0  0  0  0
 19 17  1  0  0  0  0
 20 22  1  0  0  0  0
 20 19  1  0  0  0  0
 21 20  1  0  0  0  0
 23 25  1  0  0  0  0
 24 23  1  0  0  0  0
 25 26  1  0  0  0  0
 25 27  2  0  0  0  0
 27 28  1  0  0  0  0
 29 27  1  0  0  0  0
 29 30  1  0  0  0  0
 31 29  2  0  0  0  0
 32 31  1  0  0  0  0
 32 33  1  0  0  0  0
 34 32  1  0  0  0  0
M  END
$$$$
