CSD_code = GAVHIW | q = 0 | S = 0 | Stoichiometry = C25H25ClIrN | MND = 8
 OpenBabel04212202043D

 53 57  0  0  1  0  0  0  0  0999 V2000
    5.9135    9.4590   12.3769 Ir  0  0  1  0  0  0  0  0  0  0  0  0
    3.9805    8.7144   11.2889 Cl  0  0  0  0  0 15  0  0  0  0  0  0
    5.5961   11.3509   11.6838 N   0  0  0  0  0  0  0  0  0  0  0  0
    5.9496   11.7551   10.4339 C   0  0  0  0  0  0  0  0  0  0  0  0
    6.2845   10.8054    9.4511 C   0  0  0  0  0  0  0  0  0  0  0  0
    6.1951    9.7589    9.6963 H   0  0  0  0  0  0  0  0  0  0  0  0
    6.6612   11.2022    8.1961 C   0  0  0  0  0  0  0  0  0  0  0  0
    6.9016   10.4633    7.4465 H   0  0  0  0  0  0  0  0  0  0  0  0
    6.7297   12.5625    7.8677 C   0  0  0  0  0  0  0  0  0  0  0  0
    7.0437   12.8580    6.8779 H   0  0  0  0  0  0  0  0  0  0  0  0
    6.3736   13.5078    8.7911 C   0  0  0  0  0  3  0  0  0  0  0  0
    6.3899   14.5588    8.5415 H   0  0  0  0  0  0  0  0  0  0  0  0
    5.9562   13.1314   10.0812 C   0  0  0  0  0  0  0  0  0  0  0  0
    5.5131   14.0655   11.0432 C   0  0  0  0  0  0  0  0  0  0  0  0
    5.5212   15.1182   10.8015 H   0  0  0  0  0  0  0  0  0  0  0  0
    5.0517   13.6182   12.2463 C   0  0  0  0  0  0  0  0  0  0  0  0
    4.6665   14.3062   12.9809 H   0  0  0  0  0  0  0  0  0  0  0  0
    5.0969   12.2439   12.5518 C   0  0  0  0  0  0  0  0  0  0  0  0
    4.6063   11.6472   13.7775 C   0  0  0  0  0  0  0  0  0  0  0  0
    3.9379   12.3266   14.7970 C   0  0  0  0  0  0  0  0  0  0  0  0
    3.8018   13.3966   14.7440 H   0  0  0  0  0  0  0  0  0  0  0  0
    3.4325   11.6251   15.8711 C   0  0  0  0  0  0  0  0  0  0  0  0
    2.9145   12.1470   16.6620 H   0  0  0  0  0  0  0  0  0  0  0  0
    3.5685   10.2445   15.9240 C   0  0  0  0  0  0  0  0  0  0  0  0
    3.1477    9.6959   16.7544 H   0  0  0  0  0  0  0  0  0  0  0  0
    4.2359    9.5650   14.9190 C   0  0  0  0  0  0  0  0  0  0  0  0
    4.3119    8.4893   14.9689 H   0  0  0  0  0  0  0  0  0  0  0  0
    4.7871   10.2499   13.8455 C   0  0  0  0  0  0  0  0  0  0  0  0
    7.3631    8.4387   13.7431 C   0  0  2  0  0  3  0  0  0  0  0  0
    6.8202    7.4932   12.8259 C   0  0  2  0  0  0  0  0  0  0  0  0
    7.3831    7.7738   11.5120 C   0  0  0  0  0  0  0  0  0  0  0  0
    8.1547    8.9275   11.6051 C   0  0  0  0  0  0  0  0  0  0  0  0
    8.0646    9.4155   12.9683 C   0  0  1  0  0  0  0  0  0  0  0  0
    8.9143   10.5135   13.5274 C   0  0  0  0  0  0  0  0  0  0  0  0
    9.9133   10.1352   13.7550 H   0  0  0  0  0  0  0  0  0  0  0  0
    8.4834   10.9084   14.4449 H   0  0  0  0  0  0  0  0  0  0  0  0
    9.0184   11.3300   12.8151 H   0  0  0  0  0  0  0  0  0  0  0  0
    9.0343    9.5388   10.5626 C   0  0  0  0  0  0  0  0  0  0  0  0
   10.0807    9.3477   10.8095 H   0  0  0  0  0  0  0  0  0  0  0  0
    8.8971   10.6185   10.5079 H   0  0  0  0  0  0  0  0  0  0  0  0
    8.8352    9.1212    9.5789 H   0  0  0  0  0  0  0  0  0  0  0  0
    7.1731    6.8891   10.3272 C   0  0  0  0  0  0  0  0  0  0  0  0
    7.5976    5.9019   10.5162 H   0  0  0  0  0  0  0  0  0  0  0  0
    7.6413    7.3006    9.4357 H   0  0  0  0  0  0  0  0  0  0  0  0
    6.1078    6.7635   10.1328 H   0  0  0  0  0  0  0  0  0  0  0  0
    6.1332    6.2047   13.1599 C   0  0  0  0  0  0  0  0  0  0  0  0
    6.8460    5.3785   13.1193 H   0  0  0  0  0  0  0  0  0  0  0  0
    5.3355    6.0028   12.4477 H   0  0  0  0  0  0  0  0  0  0  0  0
    5.7002    6.2364   14.1566 H   0  0  0  0  0  0  0  0  0  0  0  0
    7.3501    8.3739   15.2384 C   0  0  0  0  0  0  0  0  0  0  0  0
    8.3327    8.0550   15.5910 H   0  0  0  0  0  0  0  0  0  0  0  0
    6.6132    7.6607   15.5956 H   0  0  0  0  0  0  0  0  0  0  0  0
    7.1290    9.3439   15.6794 H   0  0  0  0  0  0  0  0  0  0  0  0
  1 30  1  0  0  0  0
  1 33  1  0  0  0  0
  1 28  1  1  0  0  0
  3  1  1  0  0  0  0
  3 18  1  0  0  0  0
  4  3  1  0  0  0  0
  5  6  1  0  0  0  0
  5  4  2  0  0  0  0
  7  5  1  0  0  0  0
  8  7  1  0  0  0  0
  9  7  2  0  0  0  0
  9 11  1  0  0  0  0
 10  9  1  0  0  0  0
 11 13  1  0  0  0  0
 12 11  1  0  0  0  0
 13  4  1  0  0  0  0
 13 14  2  0  0  0  0
 14 16  1  0  0  0  0
 15 14  1  0  0  0  0
 16 18  2  0  0  0  0
 16 17  1  0  0  0  0
 18 19  1  0  0  0  0
 19 28  2  0  0  0  0
 19 20  1  0  0  0  0
 20 22  2  0  0  0  0
 21 20  1  0  0  0  0
 22 24  1  0  0  0  0
 22 23  1  0  0  0  0
 24 25  1  0  0  0  0
 26 27  1  0  0  0  0
 26 24  2  0  0  0  0
 28 26  1  0  0  0  0
 29 50  1  1  0  0  0
 30 46  1  1  0  0  0
 30 29  1  0  0  0  0
 31 32  2  0  0  0  0
 31 30  1  0  0  0  0
 32 33  1  0  0  0  0
 33 34  1  1  0  0  0
 33 29  1  0  0  0  0
 34 35  1  0  0  0  0
 34 36  1  0  0  0  0
 37 34  1  0  0  0  0
 38 39  1  0  0  0  0
 38 32  1  0  0  0  0
 40 38  1  0  0  0  0
 41 38  1  0  0  0  0
 42 43  1  0  0  0  0
 42 31  1  0  0  0  0
 44 42  1  0  0  0  0
 45 42  1  0  0  0  0
 46 49  1  0  0  0  0
 47 46  1  0  0  0  0
 48 46  1  0  0  0  0
 50 51  1  0  0  0  0
 50 52  1  0  0  0  0
 50 53  1  0  0  0  0
M  END
$$$$
