CSD_code = GAVLUN | q = 0 | S = 0 | Stoichiometry = C25H29Cl3N4SiZr | MND = 7
 OpenBabel04212202043D

 63 66  0  0  1  0  0  0  0  0999 V2000
   30.6541   12.6371    2.6316 Zr  0  0  0  0  0  0  0  0  0  0  0  0
   29.7511   11.5119    0.7405 Cl  0  0  0  0  0  0  0  0  0  0  0  0
   29.5859   14.6910    2.0371 Cl  0  0  0  0  0  0  0  0  0  0  0  0
   32.2856   13.6224    4.0562 Cl  0  0  0  0  0  0  0  0  0  0  0  0
   29.2342   12.5194    4.2262 N   0  0  0  0  0  0  0  0  0  0  0  0
   30.5569   10.8180    3.7985 N   0  0  0  0  0  0  0  0  0  0  0  0
   32.4963   10.9962    2.1510 N   0  0  0  0  0  0  0  0  0  0  0  0
   31.8647   10.3607    1.6520 H   0  0  0  0  0  0  0  0  0  0  0  0
   32.0215   13.5788    1.0193 N   0  0  0  0  0  2  0  0  0  0  0  0
   28.2132   13.6734    5.0388 Si  0  0  0  0  0  0  0  0  0  0  0  0
   29.2653   10.0927    6.6979 C   0  0  0  0  0  0  0  0  0  0  0  0
   28.6603    9.4782    6.0469 H   0  0  0  0  0  0  0  0  0  0  0  0
   29.3389    9.8235    8.0537 C   0  0  0  0  0  0  0  0  0  0  0  0
   28.7873    8.9918    8.4664 H   0  0  0  0  0  0  0  0  0  0  0  0
   30.1183   10.6171    8.8786 C   0  0  0  0  0  0  0  0  0  0  0  0
   30.1734   10.4040    9.9360 H   0  0  0  0  0  0  0  0  0  0  0  0
   30.8291   11.6818    8.3481 C   0  0  0  0  0  0  0  0  0  0  0  0
   31.4429   12.2958    8.9902 H   0  0  0  0  0  0  0  0  0  0  0  0
   30.7534   11.9639    6.9957 C   0  0  0  0  0  0  0  0  0  0  0  0
   31.3064   12.7870    6.5646 H   0  0  0  0  0  0  0  0  0  0  0  0
   29.9624   11.1716    6.1690 C   0  0  0  0  0  0  0  0  0  0  0  0
   29.9015   11.4951    4.7233 C   0  0  1  0  0  3  0  0  0  0  0  0
   31.5955    9.8597    4.0885 C   0  0  0  0  0  0  0  0  0  0  0  0
   31.3293    8.8993    3.6242 H   0  0  0  0  0  0  0  0  0  0  0  0
   31.7433    9.7029    5.1662 H   0  0  0  0  0  0  0  0  0  0  0  0
   32.8780   10.4145    3.4431 C   0  0  0  0  0  0  0  0  0  0  0  0
   33.2817   11.2066    4.0829 H   0  0  0  0  0  0  0  0  0  0  0  0
   33.6316    9.6223    3.3225 H   0  0  0  0  0  0  0  0  0  0  0  0
   33.5219   11.4309    1.2856 C   0  0  0  0  0  0  0  0  0  0  0  0
   33.3821   11.2169   -0.0873 C   0  0  0  0  0  0  0  0  0  0  0  0
   32.5041   10.7039   -0.4574 H   0  0  0  0  0  0  0  0  0  0  0  0
   34.3323   11.6959   -0.9685 C   0  0  0  0  0  0  0  0  0  0  0  0
   34.2095   11.5289   -2.0287 H   0  0  0  0  0  0  0  0  0  0  0  0
   35.4409   12.3804   -0.4954 C   0  0  0  0  0  0  0  0  0  0  0  0
   36.1877   12.7485   -1.1834 H   0  0  0  0  0  0  0  0  0  0  0  0
   35.5861   12.5893    0.8660 C   0  0  0  0  0  0  0  0  0  0  0  0
   36.4441   13.1278    1.2398 H   0  0  0  0  0  0  0  0  0  0  0  0
   34.6389   12.1189    1.7577 C   0  0  0  0  0  0  0  0  0  0  0  0
   34.7486   12.3207    2.8119 H   0  0  0  0  0  0  0  0  0  0  0  0
   32.0706   14.3664    0.1800 C   0  0  0  0  0  2  0  0  0  0  0  0
   32.0772   15.3351   -0.8323 C   0  0  0  0  0  0  0  0  0  0  0  0
   33.0959   15.3721   -1.7883 C   0  0  0  0  0  0  0  0  0  0  0  0
   33.8963   14.6490   -1.7418 H   0  0  0  0  0  0  0  0  0  0  0  0
   33.0546   16.3366   -2.7757 C   0  0  0  0  0  0  0  0  0  0  0  0
   33.8350   16.3757   -3.5205 H   0  0  0  0  0  0  0  0  0  0  0  0
   32.0133   17.2535   -2.8131 C   0  0  0  0  0  0  0  0  0  0  0  0
   31.9892   18.0034   -3.5896 H   0  0  0  0  0  0  0  0  0  0  0  0
   31.0044   17.2129   -1.8617 C   0  0  0  0  0  0  0  0  0  0  0  0
   30.1979   17.9290   -1.8982 H   0  0  0  0  0  0  0  0  0  0  0  0
   31.0247   16.2573   -0.8644 C   0  0  0  0  0  0  0  0  0  0  0  0
   30.2527   16.1993   -0.1104 H   0  0  0  0  0  0  0  0  0  0  0  0
   26.7617   13.9690    3.8291 C   0  0  0  0  0  0  0  0  0  0  0  0
   27.1162   14.2630    2.8456 H   0  0  0  0  0  0  0  0  0  0  0  0
   26.1120   14.7563    4.1967 H   0  0  0  0  0  0  0  0  0  0  0  0
   26.1586   13.0721    3.7109 H   0  0  0  0  0  0  0  0  0  0  0  0
   27.4472   13.0301    6.6705 C   0  0  0  0  0  0  0  0  0  0  0  0
   27.0164   12.0419    6.5481 H   0  0  0  0  0  0  0  0  0  0  0  0
   26.6516   13.6977    6.9822 H   0  0  0  0  0  0  0  0  0  0  0  0
   28.1681   12.9771    7.4788 H   0  0  0  0  0  0  0  0  0  0  0  0
   29.2625   15.2287    5.4263 C   0  0  0  0  0  0  0  0  0  0  0  0
   29.7381   15.1597    6.4015 H   0  0  0  0  0  0  0  0  0  0  0  0
   28.6492   16.1239    5.4213 H   0  0  0  0  0  0  0  0  0  0  0  0
   30.0466   15.3651    4.6823 H   0  0  0  0  0  0  0  0  0  0  0  0
  1  6  1  0  0  0  0
  1  4  1  0  0  0  0
  1  5  1  0  0  0  0
  2  1  1  0  0  0  0
  3  1  1  0  0  0  0
  5 22  1  0  0  0  0
  5 10  1  0  0  0  0
  6 23  1  0  0  0  0
  6 22  1  0  0  0  0
  7 26  1  0  0  0  0
  8  7  1  0  0  0  0
  9  1  1  0  0  0  0
 10 60  1  0  0  0  0
 10 56  1  0  0  0  0
 11 13  1  0  0  0  0
 12 11  1  0  0  0  0
 13 14  1  0  0  0  0
 13 15  2  0  0  0  0
 15 16  1  0  0  0  0
 17 15  1  0  0  0  0
 17 18  1  0  0  0  0
 19 17  2  0  0  0  0
 20 19  1  0  0  0  0
 21 11  2  0  0  0  0
 21 19  1  0  0  0  0
 22 21  1  1  0  0  0
 23 25  1  0  0  0  0
 24 23  1  0  0  0  0
 26 27  1  0  0  0  0
 26 23  1  0  0  0  0
 28 26  1  0  0  0  0
 29 38  1  0  0  0  0
 29  7  1  0  0  0  0
 30 29  2  0  0  0  0
 31 30  1  0  0  0  0
 32 34  2  0  0  0  0
 32 30  1  0  0  0  0
 33 32  1  0  0  0  0
 34 36  1  0  0  0  0
 35 34  1  0  0  0  0
 36 37  1  0  0  0  0
 36 38  2  0  0  0  0
 38 39  1  0  0  0  0
 40  9  1  0  0  0  0
 41 40  1  0  0  0  0
 42 43  1  0  0  0  0
 42 41  2  0  0  0  0
 44 42  1  0  0  0  0
 45 44  1  0  0  0  0
 46 44  2  0  0  0  0
 46 48  1  0  0  0  0
 47 46  1  0  0  0  0
 48 50  2  0  0  0  0
 49 48  1  0  0  0  0
 50 41  1  0  0  0  0
 50 51  1  0  0  0  0
 52 54  1  0  0  0  0
 52 10  1  0  0  0  0
 53 52  1  0  0  0  0
 55 52  1  0  0  0  0
 56 58  1  0  0  0  0
 56 59  1  0  0  0  0
 57 56  1  0  0  0  0
 60 61  1  0  0  0  0
 62 60  1  0  0  0  0
 63 60  1  0  0  0  0
M  END
$$$$
