CSD_code = GAVMAU | q = 0 | S = 0 | Stoichiometry = C16H28Cl2N4O2Pd | MND = 4
 OpenBabel04212202043D

 53 54  0  0  1  0  0  0  0  0999 V2000
    2.0586    3.8806    6.7415 Pd  0  0  0  0  0  0  0  0  0  0  0  0
    1.2520    2.5452    8.4507 Cl  0  0  0  0  0  0  0  0  0  0  0  0
    3.5076    4.8947    5.2633 Cl  0  0  0  0  0  0  0  0  0  0  0  0
    4.7425   -0.4197    4.9818 O   0  0  0  0  0  0  0  0  0  0  0  0
    5.0130    5.1540   11.0632 O   0  0  0  0  0  0  0  0  0  0  0  0
    1.7923    2.4275    5.4302 N   0  0  0  0  0  0  0  0  0  0  0  0
    3.8364    1.4822    5.8285 N   0  0  0  0  0  0  0  0  0  0  0  0
    2.2144    5.3717    8.0337 N   0  0  0  0  0  0  0  0  0  0  0  0
    3.9145    4.4033    9.2218 N   0  0  0  0  0  0  0  0  0  0  0  0
    0.5965    2.3250    4.6045 C   0  0  0  0  0  0  0  0  0  0  0  0
    0.9035    1.1733    3.6118 C   0  0  0  0  0  0  0  0  0  0  0  0
    0.0849    0.4578    3.5794 H   0  0  0  0  0  0  0  0  0  0  0  0
    1.0454    1.5737    2.6087 H   0  0  0  0  0  0  0  0  0  0  0  0
    2.2029    0.5345    4.1247 C   0  0  0  0  0  0  0  0  0  0  0  0
    2.9661    0.4176    3.3566 H   0  0  0  0  0  0  0  0  0  0  0  0
    2.0482   -0.4464    4.5773 H   0  0  0  0  0  0  0  0  0  0  0  0
    2.6391    1.5083    5.1715 C   0  0  2  0  0  3  0  0  0  0  0  0
    4.8418    0.5495    5.6902 C   0  0  0  0  0  0  0  0  0  0  0  0
    6.0447    0.8827    6.5365 C   0  0  0  0  0  0  0  0  0  0  0  0
    6.3855    1.8939    6.3233 H   0  0  0  0  0  0  0  0  0  0  0  0
    6.8427    0.1778    6.3232 H   0  0  0  0  0  0  0  0  0  0  0  0
    5.7797    0.8100    7.5899 H   0  0  0  0  0  0  0  0  0  0  0  0
   -0.5964    2.0134    5.5119 C   0  0  0  0  0  0  0  0  0  0  0  0
   -1.5148    1.9820    4.9312 H   0  0  0  0  0  0  0  0  0  0  0  0
   -0.6858    2.7844    6.2810 H   0  0  0  0  0  0  0  0  0  0  0  0
   -0.4539    1.0566    6.0095 H   0  0  0  0  0  0  0  0  0  0  0  0
    0.3923    3.6752    3.9121 C   0  0  0  0  0  0  0  0  0  0  0  0
   -0.5110    3.6619    3.3074 H   0  0  0  0  0  0  0  0  0  0  0  0
    1.2469    3.9082    3.2792 H   0  0  0  0  0  0  0  0  0  0  0  0
    0.3054    4.4639    4.6719 H   0  0  0  0  0  0  0  0  0  0  0  0
    1.2969    6.5063    8.0286 C   0  0  0  0  0  0  0  0  0  0  0  0
    1.4862    7.1552    9.4224 C   0  0  0  0  0  0  0  0  0  0  0  0
    1.5030    8.2404    9.3565 H   0  0  0  0  0  0  0  0  0  0  0  0
    0.6682    6.8630   10.0809 H   0  0  0  0  0  0  0  0  0  0  0  0
    2.8119    6.5801    9.9404 C   0  0  0  0  0  0  0  0  0  0  0  0
    2.7826    6.2784   10.9859 H   0  0  0  0  0  0  0  0  0  0  0  0
    3.6490    7.2711    9.8243 H   0  0  0  0  0  0  0  0  0  0  0  0
    3.0038    5.4030    9.0373 C   0  0  2  0  0  3  0  0  0  0  0  0
    4.8357    4.2912   10.2415 C   0  0  0  0  0  0  0  0  0  0  0  0
    5.5886    2.9860   10.1807 C   0  0  0  0  0  0  0  0  0  0  0  0
    6.1868    2.9502    9.2720 H   0  0  0  0  0  0  0  0  0  0  0  0
    4.8881    2.1532   10.1805 H   0  0  0  0  0  0  0  0  0  0  0  0
    6.2459    2.9070   11.0413 H   0  0  0  0  0  0  0  0  0  0  0  0
   -0.1161    5.9655    7.7965 C   0  0  0  0  0  0  0  0  0  0  0  0
   -0.8394    6.7770    7.7887 H   0  0  0  0  0  0  0  0  0  0  0  0
   -0.3808    5.2563    8.5806 H   0  0  0  0  0  0  0  0  0  0  0  0
   -0.1506    5.4469    6.8257 H   0  0  0  0  0  0  0  0  0  0  0  0
    1.6961    7.4560    6.8958 C   0  0  0  0  0  0  0  0  0  0  0  0
    0.9819    8.2718    6.8198 H   0  0  0  0  0  0  0  0  0  0  0  0
    1.7224    6.9152    5.9497 H   0  0  0  0  0  0  0  0  0  0  0  0
    2.6874    7.8653    7.0769 H   0  0  0  0  0  0  0  0  0  0  0  0
    3.7816    3.6149    8.5745 H   0  0  0  0  0  0  0  0  0  0  0  0
    3.9865    2.3106    6.4209 H   0  0  0  0  0  0  0  0  0  0  0  0
  1  8  1  0  0  0  0
  1  2  1  0  0  0  0
  3  1  1  0  0  0  0
  4 18  2  0  0  0  0
  6  1  1  0  0  0  0
  7 53  1  0  0  0  0
  8 38  1  0  0  0  0
  9 39  1  0  0  0  0
 10  6  1  0  0  0  0
 10 23  1  0  0  0  0
 11 14  1  0  0  0  0
 11 10  1  0  0  0  0
 12 11  1  0  0  0  0
 13 11  1  0  0  0  0
 14 16  1  0  0  0  0
 14 17  1  0  0  0  0
 15 14  1  0  0  0  0
 17  6  1  0  0  0  0
 17  7  1  6  0  0  0
 18  7  1  0  0  0  0
 18 19  1  0  0  0  0
 19 22  1  0  0  0  0
 20 19  1  0  0  0  0
 21 19  1  0  0  0  0
 23 26  1  0  0  0  0
 23 25  1  0  0  0  0
 24 23  1  0  0  0  0
 27 10  1  0  0  0  0
 27 30  1  0  0  0  0
 28 27  1  0  0  0  0
 29 27  1  0  0  0  0
 31  8  1  0  0  0  0
 31 32  1  0  0  0  0
 32 35  1  0  0  0  0
 32 34  1  0  0  0  0
 33 32  1  0  0  0  0
 35 36  1  0  0  0  0
 37 35  1  0  0  0  0
 38  9  1  1  0  0  0
 38 35  1  0  0  0  0
 39  5  2  0  0  0  0
 40 39  1  0  0  0  0
 40 43  1  0  0  0  0
 41 40  1  0  0  0  0
 42 40  1  0  0  0  0
 44 31  1  0  0  0  0
 44 46  1  0  0  0  0
 45 44  1  0  0  0  0
 47 44  1  0  0  0  0
 48 51  1  0  0  0  0
 48 31  1  0  0  0  0
 49 48  1  0  0  0  0
 50 48  1  0  0  0  0
 52  9  1  0  0  0  0
M  END
$$$$
