CSD_code = GAVQAX | q = 1 | S = 0 | Stoichiometry = C22H26ClN2O2Ru(1+) | MND = 9
 OpenBabel04212202043D

 54 56  0  0  1  0  0  0  0  0999 V2000
    9.0476    4.7047    7.9492 C   0  0  2  0  0  3  0  0  0  0  0  0
    9.6948    4.5192    6.7335 C   0  0  0  0  0  0  0  0  0  0  0  0
    9.7570    5.3311    6.0258 H   0  0  0  0  0  0  0  0  0  0  0  0
   10.2618    3.2842    6.4602 C   0  0  0  0  0  0  0  0  0  0  0  0
   10.7567    3.1109    5.5187 H   0  0  0  0  0  0  0  0  0  0  0  0
   10.2136    2.2922    7.4237 C   0  0  0  0  0  0  0  0  0  0  0  0
   10.6852    1.3396    7.2553 H   0  0  0  0  0  0  0  0  0  0  0  0
    9.5735    2.5544    8.6308 C   0  0  0  0  0  0  0  0  0  0  0  0
    9.6134    1.7192    9.8184 C   0  0  1  0  0  3  0  0  0  0  0  0
   10.2878    0.5088    9.9429 C   0  0  0  0  0  0  0  0  0  0  0  0
   10.7289    0.0430    9.0787 H   0  0  0  0  0  0  0  0  0  0  0  0
   10.4068   -0.0690   11.1944 C   0  0  0  0  0  0  0  0  0  0  0  0
   10.9279   -1.0037   11.3208 H   0  0  0  0  0  0  0  0  0  0  0  0
    9.8764    0.5894   12.2931 C   0  0  0  0  0  0  0  0  0  0  0  0
    9.9929    0.1939   13.2901 H   0  0  0  0  0  0  0  0  0  0  0  0
    9.1948    1.7832   12.0942 C   0  0  0  0  0  0  0  0  0  0  0  0
    5.9273    3.6648    9.9168 C   0  0  2  0  0  3  0  0  0  0  0  0
    6.0616    3.2032   11.2639 C   0  0  1  0  0  0  0  0  0  0  0  0
    6.3152    4.1447   12.3051 C   0  0  1  0  0  3  0  0  0  0  0  0
    6.7491    5.4389   11.9393 C   0  0  0  0  0  0  0  0  0  0  0  0
    6.5206    5.9224   10.6024 C   0  0  0  0  0  0  0  0  0  0  0  0
    5.9406    5.0700    9.6500 C   0  0  2  0  0  3  0  0  0  0  0  0
    5.4832    2.7143    8.8357 C   0  0  0  0  0  0  0  0  0  0  0  0
    5.6900    3.1186    7.8489 H   0  0  0  0  0  0  0  0  0  0  0  0
    4.4116    2.5253    8.9147 H   0  0  0  0  0  0  0  0  0  0  0  0
    5.9965    1.7584    8.9137 H   0  0  0  0  0  0  0  0  0  0  0  0
    5.7242    1.7745   11.5971 C   0  0  0  0  0  0  0  0  0  0  0  0
    4.6411    1.6556   11.6502 H   0  0  0  0  0  0  0  0  0  0  0  0
    6.1533    1.4773   12.5492 H   0  0  0  0  0  0  0  0  0  0  0  0
    6.0961    1.0899   10.8385 H   0  0  0  0  0  0  0  0  0  0  0  0
    6.0358    3.8363   13.7508 C   0  0  0  0  0  0  0  0  0  0  0  0
    6.9483    3.7084   14.3279 H   0  0  0  0  0  0  0  0  0  0  0  0
    5.4332    2.9401   13.8533 H   0  0  0  0  0  0  0  0  0  0  0  0
    5.4779    4.6657   14.1838 H   0  0  0  0  0  0  0  0  0  0  0  0
    7.2168    6.4068   12.9861 C   0  0  0  0  0  0  0  0  0  0  0  0
    8.1091    6.9274   12.6424 H   0  0  0  0  0  0  0  0  0  0  0  0
    7.4689    5.9002   13.9115 H   0  0  0  0  0  0  0  0  0  0  0  0
    6.4456    7.1507   13.1888 H   0  0  0  0  0  0  0  0  0  0  0  0
    6.7448    7.3832   10.3345 C   0  0  0  0  0  0  0  0  0  0  0  0
    6.0351    7.9849   10.9028 H   0  0  0  0  0  0  0  0  0  0  0  0
    6.6457    7.6209    9.2818 H   0  0  0  0  0  0  0  0  0  0  0  0
    7.7488    7.6646   10.6454 H   0  0  0  0  0  0  0  0  0  0  0  0
    5.3153    5.5889    8.3873 C   0  0  0  0  0  0  0  0  0  0  0  0
    4.4222    5.0111    8.1601 H   0  0  0  0  0  0  0  0  0  0  0  0
    5.9895    5.5187    7.5352 H   0  0  0  0  0  0  0  0  0  0  0  0
    5.0200    6.6269    8.5034 H   0  0  0  0  0  0  0  0  0  0  0  0
    9.9715    5.1826   11.2114 Cl  0  0  0  0  0 15  0  0  0  0  0  0
    8.9497    3.7340    8.8588 N   0  0  0  0  0  0  0  0  0  0  0  0
    9.0233    2.3154   10.8829 N   0  0  0  0  0  0  0  0  0  0  0  0
    8.4583    5.8519    8.3129 O   0  0  0  0  0  0  0  0  0  0  0  0
    8.7424    6.5897    7.7568 H   0  0  0  0  0  0  0  0  0  0  0  0
    8.6467    2.4998   13.0860 O   0  0  0  0  0  0  0  0  0  0  0  0
    8.9490    2.1853   13.9490 H   0  0  0  0  0  0  0  0  0  0  0  0
    8.0516    4.0233   10.6030 Ru  0  0  0  0  0  0  0  0  0  0  0  0
  1 50  1  6  0  0  0
  1 48  1  0  0  0  0
  2  1  1  0  0  0  0
  3  2  1  0  0  0  0
  4  2  2  0  0  0  0
  4  6  1  0  0  0  0
  5  4  1  0  0  0  0
  6  8  2  0  0  0  0
  7  6  1  0  0  0  0
  8 48  1  0  0  0  0
  9  8  1  1  0  0  0
  9 10  1  0  0  0  0
  9 49  1  0  0  0  0
 10 12  2  0  0  0  0
 11 10  1  0  0  0  0
 12 13  1  0  0  0  0
 12 14  1  0  0  0  0
 14 15  1  0  0  0  0
 16 14  2  0  0  0  0
 16 52  1  0  0  0  0
 17 23  1  1  0  0  0
 17 18  1  0  0  0  0
 18 27  1  1  0  0  0
 18 19  1  0  0  0  0
 19 31  1  6  0  0  0
 20 19  1  0  0  0  0
 20 35  1  0  0  0  0
 21 20  2  0  0  0  0
 22 43  1  1  0  0  0
 22 17  1  0  0  0  0
 22 21  1  0  0  0  0
 23 26  1  0  0  0  0
 23 25  1  0  0  0  0
 24 23  1  0  0  0  0
 27 28  1  0  0  0  0
 27 29  1  0  0  0  0
 30 27  1  0  0  0  0
 31 33  1  0  0  0  0
 31 34  1  0  0  0  0
 31 32  1  0  0  0  0
 35 38  1  0  0  0  0
 35 37  1  0  0  0  0
 36 35  1  0  0  0  0
 39 21  1  0  0  0  0
 39 42  1  0  0  0  0
 39 40  1  0  0  0  0
 41 39  1  0  0  0  0
 43 46  1  0  0  0  0
 44 43  1  0  0  0  0
 45 43  1  0  0  0  0
 48 54  1  0  0  0  0
 49 16  1  0  0  0  0
 51 50  1  0  0  0  0
 52 53  1  0  0  0  0
 54 49  1  0  0  0  0
 54 18  1  0  0  0  0
M  END
$$$$
