CSD_code = GAVSOM | q = 0 | S = 0 | Stoichiometry = C16H13BrClN3OZn | MND = 4
 OpenBabel04212202043D

 36 40  0  0  1  0  0  0  0  0999 V2000
    1.5027    0.2783   -1.1161 Br  0  0  0  0  0  0  0  0  0  0  0  0
    6.5994   -1.9942   -5.8828 Zn  0  0  1  0  0  0  0  0  0  0  0  0
    8.1588   -3.4416   -5.7066 Cl  0  0  0  0  0  0  0  0  0  0  0  0
    4.8538   -2.3667   -5.3360 O   0  0  0  0  0  0  0  0  0  0  0  0
    6.7377   -0.2743   -4.8857 N   0  0  2  0  0  0  0  0  0  0  0  0
    7.0724   -1.0766   -7.6513 N   0  0  0  0  0  0  0  0  0  0  0  0
    8.4101    0.2094   -8.8456 N   0  0  0  0  0  0  0  0  0  0  0  0
    8.9873    0.9948   -9.0990 H   0  0  0  0  0  0  0  0  0  0  0  0
    4.1965   -1.7542   -4.4231 C   0  0  0  0  0  0  0  0  0  0  0  0
    4.6204   -0.5511   -3.7691 C   0  0  0  0  0  0  0  0  0  0  0  0
    3.7921    0.0300   -2.7873 C   0  0  0  0  0  0  0  0  0  0  0  0
    4.1197    0.9365   -2.2979 H   0  0  0  0  0  0  0  0  0  0  0  0
    2.5963   -0.5370   -2.4480 C   0  0  0  0  0  0  0  0  0  0  0  0
    2.1578   -1.7102   -3.0711 C   0  0  0  0  0  0  0  0  0  0  0  0
    1.2102   -2.1451   -2.7902 H   0  0  0  0  0  0  0  0  0  0  0  0
    2.9373   -2.2907   -4.0296 C   0  0  0  0  0  0  0  0  0  0  0  0
    2.6206   -3.1972   -4.5218 H   0  0  0  0  0  0  0  0  0  0  0  0
    5.8291    0.1314   -4.0730 C   0  0  0  0  0  3  0  0  0  0  0  0
    5.9741    1.0926   -3.5626 H   0  0  0  0  0  0  0  0  0  0  0  0
    7.8448    0.5817   -5.2112 C   0  0  0  0  0  0  0  0  0  0  0  0
    8.7653   -0.0051   -5.1485 H   0  0  0  0  0  0  0  0  0  0  0  0
    7.9083    1.4335   -4.5189 H   0  0  0  0  0  0  0  0  0  0  0  0
    7.6840    1.1252   -6.6435 C   0  0  0  0  0  0  0  0  0  0  0  0
    6.7215    1.6439   -6.7052 H   0  0  0  0  0  0  0  0  0  0  0  0
    8.4773    1.8490   -6.8410 H   0  0  0  0  0  0  0  0  0  0  0  0
    7.7170    0.0648   -7.6886 C   0  0  1  0  0  3  0  0  0  0  0  0
    7.3577   -1.7341   -8.8251 C   0  0  0  0  0  0  0  0  0  0  0  0
    8.2077   -0.9233   -9.6012 C   0  0  0  0  0  0  0  0  0  0  0  0
    8.6651   -1.3273  -10.8454 C   0  0  0  0  0  0  0  0  0  0  0  0
    9.3177   -0.7052  -11.4381 H   0  0  0  0  0  0  0  0  0  0  0  0
    8.2487   -2.5681  -11.2853 C   0  0  0  0  0  0  0  0  0  0  0  0
    8.5835   -2.9247  -12.2474 H   0  0  0  0  0  0  0  0  0  0  0  0
    7.4097   -3.3793  -10.5165 C   0  0  0  0  0  0  0  0  0  0  0  0
    7.1213   -4.3438  -10.9049 H   0  0  0  0  0  0  0  0  0  0  0  0
    6.9490   -2.9811   -9.2794 C   0  0  0  0  0  0  0  0  0  0  0  0
    6.3094   -3.6015   -8.6710 H   0  0  0  0  0  0  0  0  0  0  0  0
  2  3  1  1  0  0  0
  2  4  1  0  0  0  0
  2  5  1  0  0  0  0
  4  9  1  0  0  0  0
  5 18  1  6  0  0  0
  6  2  1  0  0  0  0
  8  7  1  0  0  0  0
  9 16  2  0  0  0  0
  9 10  1  0  0  0  0
 10 11  2  0  0  0  0
 11 13  1  0  0  0  0
 11 12  1  0  0  0  0
 13  1  1  0  0  0  0
 14 15  1  0  0  0  0
 14 13  2  0  0  0  0
 16 14  1  0  0  0  0
 17 16  1  0  0  0  0
 18 10  1  0  0  0  0
 18 19  1  0  0  0  0
 20 21  1  0  0  0  0
 20  5  1  0  0  0  0
 20 22  1  0  0  0  0
 23 20  1  0  0  0  0
 24 23  1  0  0  0  0
 25 23  1  0  0  0  0
 26  7  1  6  0  0  0
 26  6  1  0  0  0  0
 26 23  1  0  0  0  0
 27  6  1  0  0  0  0
 28  7  1  0  0  0  0
 28 27  2  0  0  0  0
 29 28  1  0  0  0  0
 30 29  1  0  0  0  0
 31 29  2  0  0  0  0
 31 33  1  0  0  0  0
 32 31  1  0  0  0  0
 33 35  2  0  0  0  0
 34 33  1  0  0  0  0
 35 27  1  0  0  0  0
 35 36  1  0  0  0  0
M  END
$$$$
