CSD_code = GAVSII | q = 0 | S = 0 | Stoichiometry = C27H23Cl2N2OPZn | MND = 4
 OpenBabel04212202043D

 57 61  0  0  0  0  0  0  0  0999 V2000
    4.0381    5.0462    2.9580 Zn  0  0  0  0  0  0  0  0  0  0  0  0
    2.0502    4.0876    2.8495 Cl  0  0  0  0  0  0  0  0  0  0  0  0
    5.9939    4.1469    3.1440 Cl  0  0  0  0  0  0  0  0  0  0  0  0
    3.1477    7.8723    2.6996 P   0  0  0  0  0  4  0  0  0  0  0  0
    3.7634    6.7982    1.8828 O   0  0  0  0  0  0  0  0  0  0  0  0
    3.6695    6.2641    4.6883 N   0  0  0  0  0  0  0  0  0  0  0  0
    1.6203    8.9735    7.4854 N   0  0  0  0  0  4  0  0  0  0  0  0
    1.2331    9.8033    7.0509 H   0  0  0  0  0  0  0  0  0  0  0  0
    3.0878    7.3866    4.4678 C   0  0  0  0  0  0  0  0  0  0  0  0
    2.4208    8.2837    5.3499 C   0  0  0  0  0  0  0  0  0  0  0  0
    1.9977    9.1623    4.8754 H   0  0  0  0  0  0  0  0  0  0  0  0
    2.2656    8.1086    6.6879 C   0  0  0  0  0  0  0  0  0  0  0  0
    2.6780    7.2370    7.1694 H   0  0  0  0  0  0  0  0  0  0  0  0
    1.4073    8.8641    8.8575 C   0  0  0  0  0  0  0  0  0  0  0  0
    1.8067    7.7568    9.6037 C   0  0  0  0  0  0  0  0  0  0  0  0
    2.3023    6.9195    9.1381 H   0  0  0  0  0  0  0  0  0  0  0  0
    1.5604    7.7195   10.9636 C   0  0  0  0  0  0  0  0  0  0  0  0
    1.8722    6.8561   11.5310 H   0  0  0  0  0  0  0  0  0  0  0  0
    0.9202    8.7709   11.5977 C   0  0  0  0  0  0  0  0  0  0  0  0
    0.7323    8.7321   12.6591 H   0  0  0  0  0  0  0  0  0  0  0  0
    0.5199    9.8720   10.8587 C   0  0  0  0  0  0  0  0  0  0  0  0
    0.0188   10.6971   11.3415 H   0  0  0  0  0  0  0  0  0  0  0  0
    0.7598    9.9197    9.4998 C   0  0  0  0  0  0  0  0  0  0  0  0
    0.4463   10.7797    8.9244 H   0  0  0  0  0  0  0  0  0  0  0  0
    3.7868    5.6430    5.9384 C   0  0  0  0  0  0  0  0  0  0  0  0
    4.9201    5.8637    6.7169 C   0  0  0  0  0  0  0  0  0  0  0  0
    5.6849    6.5366    6.3593 H   0  0  0  0  0  0  0  0  0  0  0  0
    5.0592    5.2071    7.9258 C   0  0  0  0  0  0  0  0  0  0  0  0
    5.9404    5.3797    8.5253 H   0  0  0  0  0  0  0  0  0  0  0  0
    4.0812    4.3291    8.3628 C   0  0  0  0  0  0  0  0  0  0  0  0
    4.1959    3.8175    9.3064 H   0  0  0  0  0  0  0  0  0  0  0  0
    2.9650    4.0945    7.5758 C   0  0  0  0  0  0  0  0  0  0  0  0
    2.2079    3.3975    7.9022 H   0  0  0  0  0  0  0  0  0  0  0  0
    2.8113    4.7439    6.3650 C   0  0  0  0  0  0  0  0  0  0  0  0
    1.9546    4.5562    5.7357 H   0  0  0  0  0  0  0  0  0  0  0  0
    4.1278    9.3963    2.5922 C   0  0  0  0  0  0  0  0  0  0  0  0
    4.8139    9.9550    3.6603 C   0  0  0  0  0  0  0  0  0  0  0  0
    4.7415    9.5117    4.6436 H   0  0  0  0  0  0  0  0  0  0  0  0
    5.5940   11.0807    3.4557 C   0  0  0  0  0  0  0  0  0  0  0  0
    6.1320   11.5181    4.2836 H   0  0  0  0  0  0  0  0  0  0  0  0
    5.6914   11.6411    2.1928 C   0  0  0  0  0  0  0  0  0  0  0  0
    6.3031   12.5175    2.0394 H   0  0  0  0  0  0  0  0  0  0  0  0
    5.0137   11.0755    1.1233 C   0  0  0  0  0  0  0  0  0  0  0  0
    5.0982   11.5085    0.1380 H   0  0  0  0  0  0  0  0  0  0  0  0
    4.2343    9.9516    1.3217 C   0  0  0  0  0  0  0  0  0  0  0  0
    3.7046    9.4857    0.5015 H   0  0  0  0  0  0  0  0  0  0  0  0
    1.4450    8.2459    2.2049 C   0  0  0  0  0  0  0  0  0  0  0  0
    0.6305    7.1768    1.8504 C   0  0  0  0  0  0  0  0  0  0  0  0
    1.0235    6.1692    1.8807 H   0  0  0  0  0  0  0  0  0  0  0  0
   -0.6793    7.4153    1.4726 C   0  0  0  0  0  0  0  0  0  0  0  0
   -1.3140    6.5874    1.1961 H   0  0  0  0  0  0  0  0  0  0  0  0
   -1.1714    8.7104    1.4500 C   0  0  0  0  0  0  0  0  0  0  0  0
   -2.1925    8.8951    1.1504 H   0  0  0  0  0  0  0  0  0  0  0  0
   -0.3573    9.7738    1.8088 C   0  0  0  0  0  0  0  0  0  0  0  0
   -0.7431   10.7826    1.7877 H   0  0  0  0  0  0  0  0  0  0  0  0
    0.9523    9.5455    2.1906 C   0  0  0  0  0  0  0  0  0  0  0  0
    1.5958   10.3716    2.4629 H   0  0  0  0  0  0  0  0  0  0  0  0
  1  3  1  0  0  0  0
  1  6  1  0  0  0  0
  2  1  1  0  0  0  0
  4  9  1  0  0  0  0
  5  4  1  0  0  0  0
  5  1  1  0  0  0  0
  6 25  1  0  0  0  0
  7 14  1  0  0  0  0
  8  7  1  0  0  0  0
  9  6  1  0  0  0  0
  9 10  2  0  0  0  0
 10 12  1  0  0  0  0
 11 10  1  0  0  0  0
 12 13  1  0  0  0  0
 12  7  2  0  0  0  0
 14 23  2  0  0  0  0
 14 15  1  0  0  0  0
 15 17  2  0  0  0  0
 16 15  1  0  0  0  0
 17 18  1  0  0  0  0
 17 19  1  0  0  0  0
 19 20  1  0  0  0  0
 21 22  1  0  0  0  0
 21 19  2  0  0  0  0
 23 21  1  0  0  0  0
 24 23  1  0  0  0  0
 25 34  2  0  0  0  0
 25 26  1  0  0  0  0
 26 28  2  0  0  0  0
 27 26  1  0  0  0  0
 28 30  1  0  0  0  0
 28 29  1  0  0  0  0
 30 31  1  0  0  0  0
 32 33  1  0  0  0  0
 32 30  2  0  0  0  0
 34 32  1  0  0  0  0
 35 34  1  0  0  0  0
 36  4  1  0  0  0  0
 36 37  1  0  0  0  0
 37 38  1  0  0  0  0
 39 37  2  0  0  0  0
 39 40  1  0  0  0  0
 41 39  1  0  0  0  0
 42 41  1  0  0  0  0
 43 45  1  0  0  0  0
 43 41  2  0  0  0  0
 44 43  1  0  0  0  0
 45 36  2  0  0  0  0
 46 45  1  0  0  0  0
 47  4  1  0  0  0  0
 48 49  1  0  0  0  0
 48 47  2  0  0  0  0
 50 48  1  0  0  0  0
 51 50  1  0  0  0  0
 52 50  2  0  0  0  0
 52 54  1  0  0  0  0
 53 52  1  0  0  0  0
 54 56  2  0  0  0  0
 55 54  1  0  0  0  0
 56 47  1  0  0  0  0
 56 57  1  0  0  0  0
M  END
$$$$
