CSD_code = GAVSIG | q = 0 | S = 0 | Stoichiometry = C11H14Cl4N2OZn | MND = 4
 OpenBabel04212202043D

 33 34  0  0  0  0  0  0  0  0999 V2000
    4.0007    3.7484   11.3182 Zn  0  0  0  0  0  0  0  0  0  0  0  0
    5.4359    2.3824   10.0902 Cl  0  0  0  0  0  0  0  0  0  0  0  0
    2.3694    4.3274    9.9761 Cl  0  0  0  0  0  0  0  0  0  0  0  0
    3.6613    1.5732   15.3507 Cl  0  0  0  0  0  0  0  0  0  0  0  0
    8.4808    3.4763   16.7675 Cl  0  0  0  0  0  0  0  0  0  0  0  0
    3.9554    3.2700   13.0920 O   0  0  0  0  0  0  0  0  0  0  0  0
    5.4557    5.1955   11.4740 N   0  0  0  0  0  0  0  0  0  0  0  0
    5.5821    4.7472    8.3994 N   0  0  0  0  0  4  0  0  0  0  0  0
    6.1154    4.1983   13.6032 C   0  0  0  0  0  0  0  0  0  0  0  0
    4.9846    3.3616   13.8463 C   0  0  0  0  0  0  0  0  0  0  0  0
    5.0180    2.5837   15.0460 C   0  0  0  0  0  0  0  0  0  0  0  0
    6.0651    2.6106   15.9271 C   0  0  0  0  0  0  0  0  0  0  0  0
    6.0470    1.9999   16.8155 H   0  0  0  0  0  0  0  0  0  0  0  0
    7.1584    3.4403   15.6559 C   0  0  0  0  0  0  0  0  0  0  0  0
    7.1827    4.2142   14.5288 C   0  0  0  0  0  0  0  0  0  0  0  0
    8.0333    4.8501   14.3344 H   0  0  0  0  0  0  0  0  0  0  0  0
    6.2572    5.0487   12.4717 C   0  0  0  0  0  3  0  0  0  0  0  0
    7.1751    5.6489   12.4803 H   0  0  0  0  0  0  0  0  0  0  0  0
    5.8238    6.1800   10.4754 C   0  0  0  0  0  0  0  0  0  0  0  0
    6.9163    6.2284   10.3715 H   0  0  0  0  0  0  0  0  0  0  0  0
    5.4843    7.1618   10.8300 H   0  0  0  0  0  0  0  0  0  0  0  0
    5.1428    5.9540    9.1282 C   0  0  0  0  0  0  0  0  0  0  0  0
    4.0683    5.8532    9.3062 H   0  0  0  0  0  0  0  0  0  0  0  0
    5.3214    6.8249    8.4906 H   0  0  0  0  0  0  0  0  0  0  0  0
    6.9412    4.8566    7.8680 C   0  0  0  0  0  0  0  0  0  0  0  0
    7.2123    3.9217    7.3835 H   0  0  0  0  0  0  0  0  0  0  0  0
    7.6483    5.0351    8.6734 H   0  0  0  0  0  0  0  0  0  0  0  0
    7.0024    5.6705    7.1443 H   0  0  0  0  0  0  0  0  0  0  0  0
    4.6215    4.4167    7.3390 C   0  0  0  0  0  0  0  0  0  0  0  0
    3.6361    4.2808    7.7852 H   0  0  0  0  0  0  0  0  0  0  0  0
    4.9195    3.4872    6.8610 H   0  0  0  0  0  0  0  0  0  0  0  0
    4.5827    5.2152    6.5989 H   0  0  0  0  0  0  0  0  0  0  0  0
    5.5692    3.8800    9.0718 H   0  0  0  0  0  0  0  0  0  0  0  0
  1  7  1  0  0  0  0
  1  6  1  0  0  0  0
  2  1  1  0  0  0  0
  3  1  1  0  0  0  0
  6 10  1  0  0  0  0
  7 17  1  0  0  0  0
  8 33  1  0  0  0  0
  8 22  1  0  0  0  0
  9 10  2  0  0  0  0
  9 15  1  0  0  0  0
 10 11  1  0  0  0  0
 11  4  1  0  0  0  0
 11 12  2  0  0  0  0
 12 13  1  0  0  0  0
 14 12  1  0  0  0  0
 14  5  1  0  0  0  0
 15 14  2  0  0  0  0
 16 15  1  0  0  0  0
 17 18  1  0  0  0  0
 17  9  1  0  0  0  0
 19 21  1  0  0  0  0
 19  7  1  0  0  0  0
 20 19  1  0  0  0  0
 22 23  1  0  0  0  0
 22 19  1  0  0  0  0
 24 22  1  0  0  0  0
 25  8  1  0  0  0  0
 25 27  1  0  0  0  0
 26 25  1  0  0  0  0
 28 25  1  0  0  0  0
 29 30  1  0  0  0  0
 29  8  1  0  0  0  0
 31 29  1  0  0  0  0
 32 29  1  0  0  0  0
M  END
$$$$
