CSD_code = GAWJOD | q = 1 | S = 0 | Stoichiometry = C9H21BrN3Zn(1+) | MND = 4
 OpenBabel04212202043D

 35 37  0  0  1  0  0  0  0  0999 V2000
    2.0869    4.3438    1.2303 Zn  0  0  1  0  0  0  0  0  0  0  0  0
    3.2719    5.5722   -0.2691 Br  0  0  0  0  0  0  0  0  0  0  0  0
    1.0797    5.5630    2.6219 N   0  0  1  0  0  4  0  0  0  0  0  0
   -0.3955    5.5442    2.5369 C   0  0  0  0  0  0  0  0  0  0  0  0
   -0.9042    5.0573    1.1792 C   0  0  0  0  0  0  0  0  0  0  0  0
   -0.7709    3.5436    0.9888 C   0  0  0  0  0  0  0  0  0  0  0  0
    0.5566    3.1537    0.4705 N   0  0  2  0  0  4  0  0  0  0  0  0
    0.8124    1.7052    0.6193 C   0  0  0  0  0  0  0  0  0  0  0  0
    1.3572    1.3340    2.0005 C   0  0  0  0  0  0  0  0  0  0  0  0
    2.8504    1.6128    2.1872 C   0  0  0  0  0  0  0  0  0  0  0  0
    3.1436    3.0366    2.4559 N   0  0  2  0  0  4  0  0  0  0  0  0
    2.9935    3.3803    3.8847 C   0  0  0  0  0  0  0  0  0  0  0  0
    2.9731    4.8937    4.1202 C   0  0  0  0  0  0  0  0  0  0  0  0
    1.5749    5.5041    4.0141 C   0  0  0  0  0  0  0  0  0  0  0  0
    1.3756    6.4684    2.2501 H   0  0  0  0  0  0  0  0  0  0  0  0
   -0.7997    6.5409    2.7419 H   0  0  0  0  0  0  0  0  0  0  0  0
   -0.7758    4.8700    3.3086 H   0  0  0  0  0  0  0  0  0  0  0  0
   -0.3940    5.5871    0.3693 H   0  0  0  0  0  0  0  0  0  0  0  0
   -1.9617    5.3153    1.1162 H   0  0  0  0  0  0  0  0  0  0  0  0
   -1.5489    3.1886    0.3041 H   0  0  0  0  0  0  0  0  0  0  0  0
   -0.9243    3.0471    1.9492 H   0  0  0  0  0  0  0  0  0  0  0  0
    0.5304    3.3430   -0.5330 H   0  0  0  0  0  0  0  0  0  0  0  0
    1.5370    1.4053   -0.1418 H   0  0  0  0  0  0  0  0  0  0  0  0
   -0.1146    1.1503    0.4348 H   0  0  0  0  0  0  0  0  0  0  0  0
    1.2039    0.2633    2.1376 H   0  0  0  0  0  0  0  0  0  0  0  0
    0.7836    1.8442    2.7749 H   0  0  0  0  0  0  0  0  0  0  0  0
    3.3829    1.3199    1.2789 H   0  0  0  0  0  0  0  0  0  0  0  0
    3.2330    0.9997    3.0114 H   0  0  0  0  0  0  0  0  0  0  0  0
    4.1322    3.1759    2.2390 H   0  0  0  0  0  0  0  0  0  0  0  0
    3.8108    2.9277    4.4570 H   0  0  0  0  0  0  0  0  0  0  0  0
    2.0581    2.9478    4.2455 H   0  0  0  0  0  0  0  0  0  0  0  0
    3.6587    5.3934    3.4294 H   0  0  0  0  0  0  0  0  0  0  0  0
    3.3359    5.0876    5.1300 H   0  0  0  0  0  0  0  0  0  0  0  0
    1.5811    6.5047    4.4579 H   0  0  0  0  0  0  0  0  0  0  0  0
    0.8867    4.8894    4.6001 H   0  0  0  0  0  0  0  0  0  0  0  0
  1  2  1  6  0  0  0
  1 11  1  0  0  0  0
  1  3  1  0  0  0  0
  3 15  1  6  0  0  0
  3 14  1  0  0  0  0
  4  3  1  0  0  0  0
  4 16  1  0  0  0  0
  4 17  1  0  0  0  0
  5  4  1  0  0  0  0
  6  5  1  0  0  0  0
  6 21  1  0  0  0  0
  7 22  1  6  0  0  0
  7  8  1  0  0  0  0
  7  6  1  0  0  0  0
  7  1  1  0  0  0  0
  8  9  1  0  0  0  0
  9 25  1  0  0  0  0
  9 10  1  0  0  0  0
  9 26  1  0  0  0  0
 10 11  1  0  0  0  0
 10 28  1  0  0  0  0
 11 29  1  6  0  0  0
 11 12  1  0  0  0  0
 12 13  1  0  0  0  0
 12 31  1  0  0  0  0
 12 30  1  0  0  0  0
 13 33  1  0  0  0  0
 14 13  1  0  0  0  0
 14 34  1  0  0  0  0
 14 35  1  0  0  0  0
 18  5  1  0  0  0  0
 19  5  1  0  0  0  0
 20  6  1  0  0  0  0
 23  8  1  0  0  0  0
 24  8  1  0  0  0  0
 27 10  1  0  0  0  0
 32 13  1  0  0  0  0
M  END
$$$$
