CSD_code = GAWLAT | q = 0 | S = 0 | Stoichiometry = C23H18BrN2O3ReS8 | MND = 6
 OpenBabel04212202043D

 56 60  0  0  1  0  0  0  0  0999 V2000
    2.3592    1.2585    2.0323 Re  0  0  0  0  0  0  0  0  0  0  0  0
   -0.5627    6.8037    3.3423 S   0  0  0  0  0  0  0  0  0  0  0  0
   -1.5792    4.7726    1.0360 S   0  0  0  0  0  0  0  0  0  0  0  0
   -0.8275    4.5051    5.3104 S   0  0  0  0  0  0  0  0  0  0  0  0
   -1.7188    2.6264    3.1969 S   0  0  0  0  0  0  0  0  0  0  0  0
    0.1398    1.9316    7.1052 S   0  0  0  0  0  0  0  0  0  0  0  0
   -0.7492    0.1326    4.9336 S   0  0  0  0  0  0  0  0  0  0  0  0
    0.9029   -2.1917    5.9718 S   0  0  0  0  0  0  0  0  0  0  0  0
    1.8305   -0.2457    8.4002 S   0  0  0  0  0  0  0  0  0  0  0  0
    4.7639    2.2051    1.9915 Br  0  0  0  0  0  0  0  0  0  0  0  0
    3.1913   -0.5054    2.1529 C   0  0  0  0  0  2  0  0  0  0  0  0
    2.4025    1.4347    3.9739 C   0  0  0  0  0  2  0  0  0  0  0  0
    0.5663    0.5416    1.8566 C   0  0  0  0  0  2  0  0  0  0  0  0
    2.7589    0.4156   -0.9368 C   0  0  0  0  0  3  0  0  0  0  0  0
    2.8798   -0.5614   -0.4860 H   0  0  0  0  0  0  0  0  0  0  0  0
    2.9087    0.5788   -2.3000 C   0  0  0  0  0  0  0  0  0  0  0  0
    3.1576   -0.2671   -2.9193 H   0  0  0  0  0  0  0  0  0  0  0  0
    2.7305    1.8441   -2.8409 C   0  0  0  0  0  0  0  0  0  0  0  0
    2.8306    2.0127   -3.9018 H   0  0  0  0  0  0  0  0  0  0  0  0
    2.4254    2.8889   -1.9916 C   0  0  0  0  0  0  0  0  0  0  0  0
    2.2774    3.8790   -2.3888 H   0  0  0  0  0  0  0  0  0  0  0  0
    2.3125    2.6540   -0.6211 C   0  0  0  0  0  0  0  0  0  0  0  0
    2.0461    3.7172    0.3520 C   0  0  2  0  0  3  0  0  0  0  0  0
    2.0363    5.0702    0.0124 C   0  0  0  0  0  0  0  0  0  0  0  0
    2.2103    5.3795   -1.0041 H   0  0  0  0  0  0  0  0  0  0  0  0
    1.8198    6.0193    0.9868 C   0  0  0  0  0  0  0  0  0  0  0  0
    1.8002    7.0690    0.7385 H   0  0  0  0  0  0  0  0  0  0  0  0
    1.6593    4.2408    2.5598 C   0  0  0  0  0  0  0  0  0  0  0  0
    1.5370    3.8797    3.5742 H   0  0  0  0  0  0  0  0  0  0  0  0
    1.6261    5.6066    2.3027 C   0  0  0  0  0  0  0  0  0  0  0  0
    1.2790    6.5670    3.3763 C   0  0  0  0  0  0  0  0  0  0  0  0
    1.6901    7.5581    3.2011 H   0  0  0  0  0  0  0  0  0  0  0  0
    1.5418    6.2097    4.3705 H   0  0  0  0  0  0  0  0  0  0  0  0
   -1.0034    5.1426    3.6668 C   0  0  0  0  0  0  0  0  0  0  0  0
   -1.8324    3.1699    0.2209 C   0  0  0  0  0  0  0  0  0  0  0  0
   -0.9835    2.5199    0.4113 H   0  0  0  0  0  0  0  0  0  0  0  0
   -1.9145    3.3860   -0.8397 H   0  0  0  0  0  0  0  0  0  0  0  0
   -2.7490    2.7141    0.5823 H   0  0  0  0  0  0  0  0  0  0  0  0
   -1.3965    4.2850    2.7076 C   0  0  0  0  0  0  0  0  0  0  0  0
   -0.9880    2.8329    4.7885 C   0  0  0  0  0  0  0  0  0  0  0  0
   -0.5880    1.7796    5.5200 C   0  0  0  0  0  0  0  0  0  0  0  0
    0.3934   -0.5275    6.1075 C   0  0  0  0  0  0  0  0  0  0  0  0
    0.7920    0.2849    7.1019 C   0  0  0  0  0  0  0  0  0  0  0  0
    0.8374   -2.4033    4.1662 C   0  0  0  0  0  0  0  0  0  0  0  0
   -0.1979   -2.4443    3.8401 H   0  0  0  0  0  0  0  0  0  0  0  0
    1.3359   -3.3437    3.9559 H   0  0  0  0  0  0  0  0  0  0  0  0
    1.3598   -1.5776    3.6854 H   0  0  0  0  0  0  0  0  0  0  0  0
    2.9686    1.1743    8.4929 C   0  0  0  0  0  0  0  0  0  0  0  0
    3.4261    1.3269    7.5212 H   0  0  0  0  0  0  0  0  0  0  0  0
    3.7205    0.9101    9.2288 H   0  0  0  0  0  0  0  0  0  0  0  0
    2.4219    2.0570    8.8105 H   0  0  0  0  0  0  0  0  0  0  0  0
    2.4664    1.4175   -0.1105 N   0  0  0  0  0  0  0  0  0  0  0  0
    1.8626    3.3175    1.6253 N   0  0  0  0  0  0  0  0  0  0  0  0
    3.7937   -1.4789    2.1666 O   0  0  0  0  0  1  0  0  0  0  0  0
    2.5507    1.6288    5.0942 O   0  0  0  0  0  1  0  0  0  0  0  0
   -0.4592    0.0636    1.6573 O   0  0  0  0  0  1  0  0  0  0  0  0
  1 11  1  0  0  0  0
  1 12  1  0  0  0  0
  2 31  1  0  0  0  0
  2 34  1  0  0  0  0
  3 39  1  0  0  0  0
  5 40  1  0  0  0  0
  7 41  1  0  0  0  0
  7 42  1  0  0  0  0
  8 42  1  0  0  0  0
  9 48  1  0  0  0  0
 10  1  1  0  0  0  0
 11 54  1  0  0  0  0
 12 55  1  0  0  0  0
 13  1  1  0  0  0  0
 14 15  1  0  0  0  0
 14 52  1  0  0  0  0
 16 14  1  0  0  0  0
 17 16  1  0  0  0  0
 18 16  2  0  0  0  0
 18 20  1  0  0  0  0
 19 18  1  0  0  0  0
 20 22  2  0  0  0  0
 21 20  1  0  0  0  0
 22 52  1  0  0  0  0
 23 22  1  1  0  0  0
 23 53  1  0  0  0  0
 24 23  1  0  0  0  0
 24 26  2  0  0  0  0
 25 24  1  0  0  0  0
 26 30  1  0  0  0  0
 27 26  1  0  0  0  0
 28 29  1  0  0  0  0
 30 28  2  0  0  0  0
 30 31  1  0  0  0  0
 31 33  1  0  0  0  0
 32 31  1  0  0  0  0
 34  4  1  0  0  0  0
 35 36  1  0  0  0  0
 35 38  1  0  0  0  0
 35  3  1  0  0  0  0
 37 35  1  0  0  0  0
 39  5  1  0  0  0  0
 39 34  2  0  0  0  0
 40  4  1  0  0  0  0
 40 41  2  0  0  0  0
 41  6  1  0  0  0  0
 42 43  2  0  0  0  0
 43  6  1  0  0  0  0
 43  9  1  0  0  0  0
 44  8  1  0  0  0  0
 45 44  1  0  0  0  0
 46 44  1  0  0  0  0
 47 44  1  0  0  0  0
 48 51  1  0  0  0  0
 48 50  1  0  0  0  0
 49 48  1  0  0  0  0
 52  1  1  0  0  0  0
 53  1  1  0  0  0  0
 53 28  1  0  0  0  0
 56 13  1  0  0  0  0
M  END
$$$$
