CSD_code = GAWMEZ | q = 0 | S = 0 | Stoichiometry = C22H22BClN2RuS4 | MND = 8
 OpenBabel04212202043D

 53 56  0  0  1  0  0  0  0  0999 V2000
    3.8146    3.4063    6.0255 B   0  0  0  0  0  0  0  0  0  0  0  0
    0.2066    5.8258    5.6078 C   0  0  2  0  0  0  0  0  0  0  0  0
    0.3546    6.3413    4.6553 H   0  0  0  0  0  0  0  0  0  0  0  0
    1.2838    5.7581    6.4833 C   0  0  0  0  0  3  0  0  0  0  0  0
    2.2165    6.2324    6.1636 H   0  0  0  0  0  0  0  0  0  0  0  0
    1.1112    5.6829    7.9890 C   0  0  0  0  0  0  0  0  0  0  0  0
    1.9504    6.1938    8.4656 H   0  0  0  0  0  0  0  0  0  0  0  0
    0.2046    6.2259    8.2617 H   0  0  0  0  0  0  0  0  0  0  0  0
    1.0491    4.2372    8.5229 C   0  0  0  0  0  0  0  0  0  0  0  0
    2.0539    3.9239    8.8159 H   0  0  0  0  0  0  0  0  0  0  0  0
    0.4220    4.1969    9.4203 H   0  0  0  0  0  0  0  0  0  0  0  0
    0.5244    3.2389    7.5125 C   0  0  1  0  0  0  0  0  0  0  0  0
    0.8587    2.2137    7.6997 H   0  0  0  0  0  0  0  0  0  0  0  0
   -0.6517    3.4111    6.7951 C   0  0  0  0  0  3  0  0  0  0  0  0
   -1.1427    2.5158    6.4111 H   0  0  0  0  0  0  0  0  0  0  0  0
   -1.5617    4.6048    6.9912 C   0  0  0  0  0  0  0  0  0  0  0  0
   -2.5902    4.2893    6.8132 H   0  0  0  0  0  0  0  0  0  0  0  0
   -1.4938    4.9295    8.0318 H   0  0  0  0  0  0  0  0  0  0  0  0
   -1.2405    5.7682    6.0349 C   0  0  0  0  0  0  0  0  0  0  0  0
   -1.5148    6.7254    6.4927 H   0  0  0  0  0  0  0  0  0  0  0  0
   -1.8386    5.6463    5.1316 H   0  0  0  0  0  0  0  0  0  0  0  0
    3.0609    1.3725    4.6398 C   0  0  0  0  0  0  0  0  0  0  0  0
    5.2984    0.5258    4.0276 C   0  0  0  0  0  0  0  0  0  0  0  0
    6.4695   -0.0756    3.6040 C   0  0  0  0  0  0  0  0  0  0  0  0
    6.4320   -0.9612    2.9908 H   0  0  0  0  0  0  0  0  0  0  0  0
    7.6717    0.4875    3.9890 C   0  0  0  0  0  0  0  0  0  0  0  0
    8.5991    0.0394    3.6692 H   0  0  0  0  0  0  0  0  0  0  0  0
    7.6896    1.6218    4.7910 C   0  0  0  0  0  0  0  0  0  0  0  0
    8.6343    2.0454    5.0955 H   0  0  0  0  0  0  0  0  0  0  0  0
    6.5197    2.2232    5.2134 C   0  0  0  0  0  0  0  0  0  0  0  0
    6.5569    3.0925    5.8452 H   0  0  0  0  0  0  0  0  0  0  0  0
    5.2994    1.6817    4.8226 C   0  0  0  0  0  0  0  0  0  0  0  0
    5.5029    5.3480    5.5696 C   0  0  0  0  0  0  0  0  0  0  0  0
    6.2204    5.3280    6.7628 C   0  0  0  0  0  0  0  0  0  0  0  0
    5.8848    4.7207    7.5874 H   0  0  0  0  0  0  0  0  0  0  0  0
    7.3562    6.1062    6.8781 C   0  0  0  0  0  0  0  0  0  0  0  0
    7.9118    6.0909    7.8030 H   0  0  0  0  0  0  0  0  0  0  0  0
    7.7916    6.9078    5.8294 C   0  0  0  0  0  0  0  0  0  0  0  0
    8.6851    7.5013    5.9416 H   0  0  0  0  0  0  0  0  0  0  0  0
    7.0777    6.9622    4.6468 C   0  0  0  0  0  0  0  0  0  0  0  0
    7.3894    7.5920    3.8295 H   0  0  0  0  0  0  0  0  0  0  0  0
    5.9357    6.1902    4.5341 C   0  0  0  0  0  0  0  0  0  0  0  0
    3.8254    4.9911    4.0838 C   0  0  0  0  0  0  0  0  0  0  0  0
   -0.6293    3.6224    3.8374 Cl  0  0  0  0  0 15  0  0  0  0  0  0
    4.0355    2.1450    5.1385 N   0  0  0  0  0  0  0  0  0  0  0  0
    4.3589    4.6396    5.2634 N   0  0  0  0  0  0  0  0  0  0  0  0
    1.0652    3.8177    5.4788 Ru  0  0  0  0  0  0  0  0  0  0  0  0
    1.4072    1.5023    4.8342 S   0  0  0  0  0  0  0  0  0  0  0  0
    3.6602    0.0205    3.7059 S   0  0  0  0  0  0  0  0  0  0  0  0
    2.3482    4.5059    3.4764 S   0  0  0  0  0  0  0  0  0  0  0  0
    4.8241    6.1141    3.1871 S   0  0  0  0  0  0  0  0  0  0  0  0
    2.5899    3.5726    6.2007 H   0  0  0  0  0  0  0  0  0  0  0  0
    4.3570    3.2642    7.0651 H   0  0  0  0  0  0  0  0  0  0  0  0
  1 52  1  0  0  0  0
  1 53  1  0  0  0  0
  2  3  1  6  0  0  0
  2 19  1  0  0  0  0
  2  4  1  0  0  0  0
  4  6  1  0  0  0  0
  5  4  1  0  0  0  0
  6  8  1  0  0  0  0
  6  7  1  0  0  0  0
  6  9  1  0  0  0  0
  9 10  1  0  0  0  0
  9 11  1  0  0  0  0
 12 13  1  1  0  0  0
 12  9  1  0  0  0  0
 14 16  1  0  0  0  0
 14 12  1  0  0  0  0
 15 14  1  0  0  0  0
 16 18  1  0  0  0  0
 17 16  1  0  0  0  0
 19 20  1  0  0  0  0
 19 16  1  0  0  0  0
 21 19  1  0  0  0  0
 22 48  2  0  0  0  0
 22 45  1  0  0  0  0
 23 32  1  0  0  0  0
 24 26  1  0  0  0  0
 24 23  2  0  0  0  0
 25 24  1  0  0  0  0
 26 28  2  0  0  0  0
 27 26  1  0  0  0  0
 28 29  1  0  0  0  0
 28 30  1  0  0  0  0
 30 31  1  0  0  0  0
 32 45  1  0  0  0  0
 32 30  2  0  0  0  0
 33 34  1  0  0  0  0
 34 36  2  0  0  0  0
 34 35  1  0  0  0  0
 36 37  1  0  0  0  0
 38 39  1  0  0  0  0
 38 36  1  0  0  0  0
 40 38  2  0  0  0  0
 41 40  1  0  0  0  0
 42 40  1  0  0  0  0
 42 33  2  0  0  0  0
 43 46  1  0  0  0  0
 45  1  1  0  0  0  0
 46 33  1  0  0  0  0
 46  1  1  0  0  0  0
 47  2  1  0  0  0  0
 47 12  1  0  0  0  0
 49 23  1  0  0  0  0
 49 22  1  0  0  0  0
 50 43  2  0  0  0  0
 51 43  1  0  0  0  0
 51 42  1  0  0  0  0
M  END
$$$$
