CSD_code = GAWQOL | q = 0 | S = 0 | Stoichiometry = C18H12Cl2N2Pt | MND = 4
 OpenBabel04212202043D

 35 39  0  0  0  0  0  0  0  0999 V2000
    3.0999    4.2727   14.0665 Pt  0  0  0  0  0  0  0  0  0  0  0  0
    1.5921    4.7852   12.4847 Cl  0  0  0  0  0  0  0  0  0  0  0  0
    2.2447    2.1977   14.0607 Cl  0  0  0  0  0  0  0  0  0  0  0  0
    4.1251    5.9807   13.9102 N   0  0  0  0  0  0  0  0  0  0  0  0
    4.6701    3.8320   15.2223 N   0  0  0  0  0  0  0  0  0  0  0  0
    5.4356    5.7038   14.0113 C   0  0  0  0  0  0  0  0  0  0  0  0
    6.4057    6.5893   13.4998 C   0  0  0  0  0  0  0  0  0  0  0  0
    6.0107    7.7505   12.8987 C   0  0  0  0  0  0  0  0  0  0  0  0
    4.6432    8.1034   12.8853 C   0  0  0  0  0  0  0  0  0  0  0  0
    4.1680    9.3168   12.3574 C   0  0  0  0  0  0  0  0  0  0  0  0
    2.8345    9.6241   12.4160 C   0  0  0  0  0  0  0  0  0  0  0  0
    1.9319    8.7477   13.0337 C   0  0  0  0  0  0  0  0  0  0  0  0
    2.3582    7.5517   13.5482 C   0  0  0  0  0  0  0  0  0  0  0  0
    3.7137    7.1847   13.4478 C   0  0  0  0  0  0  0  0  0  0  0  0
    5.7437    4.4896   14.7539 C   0  0  0  0  0  0  0  0  0  0  0  0
    7.0499    4.0531   15.0538 C   0  0  0  0  0  0  0  0  0  0  0  0
    7.2302    2.9499   15.8387 C   0  0  0  0  0  0  0  0  0  0  0  0
    6.1125    2.3155   16.4243 C   0  0  0  0  0  0  0  0  0  0  0  0
    6.2225    1.2237   17.3033 C   0  0  0  0  0  0  0  0  0  0  0  0
    5.1038    0.6776   17.8749 C   0  0  0  0  0  0  0  0  0  0  0  0
    3.8388    1.2236   17.6184 C   0  0  0  0  0  0  0  0  0  0  0  0
    3.6937    2.2814   16.7599 C   0  0  0  0  0  0  0  0  0  0  0  0
    4.8202    2.8222   16.1114 C   0  0  0  0  0  0  0  0  0  0  0  0
    7.4504    6.3321   13.5583 H   0  0  0  0  0  0  0  0  0  0  0  0
    6.7330    8.4180   12.4531 H   0  0  0  0  0  0  0  0  0  0  0  0
    4.8774   10.0021   11.9172 H   0  0  0  0  0  0  0  0  0  0  0  0
    2.4751   10.5558   12.0059 H   0  0  0  0  0  0  0  0  0  0  0  0
    0.8915    9.0234   13.1084 H   0  0  0  0  0  0  0  0  0  0  0  0
    1.6761    6.8764   14.0434 H   0  0  0  0  0  0  0  0  0  0  0  0
    7.8974    4.5732   14.6389 H   0  0  0  0  0  0  0  0  0  0  0  0
    8.2198    2.5674   16.0388 H   0  0  0  0  0  0  0  0  0  0  0  0
    7.2055    0.8346   17.5244 H   0  0  0  0  0  0  0  0  0  0  0  0
    5.1940   -0.1637   18.5453 H   0  0  0  0  0  0  0  0  0  0  0  0
    2.9720    0.8079   18.1082 H   0  0  0  0  0  0  0  0  0  0  0  0
    2.7269    2.7234   16.5695 H   0  0  0  0  0  0  0  0  0  0  0  0
  1  5  1  0  0  0  0
  2  1  1  0  0  0  0
  3  1  1  0  0  0  0
  4  6  1  0  0  0  0
  4  1  1  0  0  0  0
  5 23  1  0  0  0  0
  6 15  2  0  0  0  0
  7 24  1  0  0  0  0
  7  6  1  0  0  0  0
  8  7  2  0  0  0  0
  9  8  1  0  0  0  0
  9 14  2  0  0  0  0
 10 11  2  0  0  0  0
 10  9  1  0  0  0  0
 11 12  1  0  0  0  0
 12 28  1  0  0  0  0
 12 13  2  0  0  0  0
 13 29  1  0  0  0  0
 14 13  1  0  0  0  0
 14  4  1  0  0  0  0
 15 16  1  0  0  0  0
 15  5  1  0  0  0  0
 16 17  2  0  0  0  0
 17 31  1  0  0  0  0
 17 18  1  0  0  0  0
 18 19  1  0  0  0  0
 19 32  1  0  0  0  0
 19 20  2  0  0  0  0
 20 33  1  0  0  0  0
 21 20  1  0  0  0  0
 21 34  1  0  0  0  0
 22 21  2  0  0  0  0
 23 18  2  0  0  0  0
 23 22  1  0  0  0  0
 25  8  1  0  0  0  0
 26 10  1  0  0  0  0
 27 11  1  0  0  0  0
 30 16  1  0  0  0  0
 35 22  1  0  0  0  0
M  END
$$$$
