CSD_code = GAWRII | q = 0 | S = 0 | Stoichiometry = C22H37Cl2N4NbSi2 | MND = 6
 OpenBabel04212202043D

 68 70  0  0  1  0  0  0  0  0999 V2000
    4.1938    7.4877    8.8515 Nb  0  0  0  0  0  0  0  0  0  0  0  0
    4.4082    5.1610    8.7716 Cl  0  0  0  0  0  0  0  0  0  0  0  0
    4.7258   11.0709    8.6695 Si  0  0  0  0  0  0  0  0  0  0  0  0
    3.6350    7.8561    6.7456 N   0  0  0  0  0  0  0  0  0  0  0  0
    3.8095    9.1518    6.8466 C   0  0  2  0  0  3  0  0  0  0  0  0
    5.4243    7.8616   10.8050 Cl  0  0  0  0  0  0  0  0  0  0  0  0
    4.2657    9.5342    8.0150 N   0  0  0  0  0  0  0  0  0  0  0  0
    3.4585   10.1018    5.7656 C   0  0  0  0  0  0  0  0  0  0  0  0
    2.5764    7.5693    9.5506 N   0  0  0  0  0  2  0  0  0  0  0  0
    2.1656   10.6128    5.7384 C   0  0  0  0  0  0  0  0  0  0  0  0
    1.4656   10.3024    6.5007 H   0  0  0  0  0  0  0  0  0  0  0  0
    6.4562    7.3327    7.9388 N   0  0  0  0  0  0  0  0  0  0  0  0
    1.7915   11.5032    4.7485 C   0  0  0  0  0  0  0  0  0  0  0  0
    0.7861   11.8975    4.7313 H   0  0  0  0  0  0  0  0  0  0  0  0
    3.1354    6.8184    5.4513 Si  0  0  0  0  0  0  0  0  0  0  0  0
    2.7037   11.8897    3.7803 C   0  0  0  0  0  0  0  0  0  0  0  0
    2.4115   12.5852    3.0078 H   0  0  0  0  0  0  0  0  0  0  0  0
    3.9913   11.3832    3.8045 C   0  0  0  0  0  0  0  0  0  0  0  0
    4.7046   11.6832    3.0507 H   0  0  0  0  0  0  0  0  0  0  0  0
    4.3695   10.4914    4.7937 C   0  0  0  0  0  0  0  0  0  0  0  0
    5.3773   10.0994    4.8060 H   0  0  0  0  0  0  0  0  0  0  0  0
    4.6640    5.7392    5.0443 C   0  0  0  0  0  0  0  0  0  0  0  0
    5.4791    6.3200    4.6178 H   0  0  0  0  0  0  0  0  0  0  0  0
    4.4151    4.9560    4.3359 H   0  0  0  0  0  0  0  0  0  0  0  0
    5.0315    5.2580    5.9482 H   0  0  0  0  0  0  0  0  0  0  0  0
    2.5415    7.6983    3.8648 C   0  0  0  0  0  0  0  0  0  0  0  0
    1.7088    8.3658    4.0579 H   0  0  0  0  0  0  0  0  0  0  0  0
    2.2119    6.9575    3.1445 H   0  0  0  0  0  0  0  0  0  0  0  0
    3.3282    8.2827    3.3997 H   0  0  0  0  0  0  0  0  0  0  0  0
    1.7294    5.7612    6.1886 C   0  0  0  0  0  0  0  0  0  0  0  0
    2.0202    5.4211    7.1812 H   0  0  0  0  0  0  0  0  0  0  0  0
    1.5188    4.8881    5.5799 H   0  0  0  0  0  0  0  0  0  0  0  0
    0.8071    6.3278    6.2860 H   0  0  0  0  0  0  0  0  0  0  0  0
    3.7628   11.2119   10.3102 C   0  0  0  0  0  0  0  0  0  0  0  0
    2.7238   11.4868   10.1494 H   0  0  0  0  0  0  0  0  0  0  0  0
    4.2013   11.9512   10.9723 H   0  0  0  0  0  0  0  0  0  0  0  0
    3.7813   10.2485   10.8175 H   0  0  0  0  0  0  0  0  0  0  0  0
    6.6093   10.9466    8.9920 C   0  0  0  0  0  0  0  0  0  0  0  0
    6.9726   11.8130    9.5348 H   0  0  0  0  0  0  0  0  0  0  0  0
    7.1836   10.8724    8.0711 H   0  0  0  0  0  0  0  0  0  0  0  0
    6.8268   10.0679    9.5954 H   0  0  0  0  0  0  0  0  0  0  0  0
    4.3744   12.5844    7.5606 C   0  0  0  0  0  0  0  0  0  0  0  0
    3.3228   12.6688    7.3094 H   0  0  0  0  0  0  0  0  0  0  0  0
    4.9311   12.5503    6.6302 H   0  0  0  0  0  0  0  0  0  0  0  0
    4.6635   13.4891    8.0843 H   0  0  0  0  0  0  0  0  0  0  0  0
    1.3269    7.5660   10.1904 C   0  0  0  0  0  0  0  0  0  0  0  0
    1.5339    7.9802   11.6602 C   0  0  0  0  0  0  0  0  0  0  0  0
    2.2792    7.3251   12.1095 H   0  0  0  0  0  0  0  0  0  0  0  0
    0.6026    7.9064   12.2153 H   0  0  0  0  0  0  0  0  0  0  0  0
    1.9008    9.0027   11.7052 H   0  0  0  0  0  0  0  0  0  0  0  0
    0.7479    6.1395   10.1275 C   0  0  0  0  0  0  0  0  0  0  0  0
    1.4826    5.4427   10.5288 H   0  0  0  0  0  0  0  0  0  0  0  0
    0.5445    5.8711    9.0940 H   0  0  0  0  0  0  0  0  0  0  0  0
   -0.1703    6.0722   10.7051 H   0  0  0  0  0  0  0  0  0  0  0  0
    0.3934    8.5593    9.4757 C   0  0  0  0  0  0  0  0  0  0  0  0
   -0.5834    8.5772    9.9521 H   0  0  0  0  0  0  0  0  0  0  0  0
    0.2850    8.2624    8.4343 H   0  0  0  0  0  0  0  0  0  0  0  0
    0.8340    9.5535    9.5102 H   0  0  0  0  0  0  0  0  0  0  0  0
    7.3099    6.5402    8.5764 C   0  0  0  0  0  3  0  0  0  0  0  0
    6.9280    6.0054    9.4383 H   0  0  0  0  0  0  0  0  0  0  0  0
    8.6296    6.3841    8.1818 C   0  0  0  0  0  0  0  0  0  0  0  0
    9.2825    5.7282    8.7354 H   0  0  0  0  0  0  0  0  0  0  0  0
    9.0837    7.0820    7.0755 C   0  0  0  0  0  0  0  0  0  0  0  0
   10.1058    6.9862    6.7401 H   0  0  0  0  0  0  0  0  0  0  0  0
    8.1928    7.9074    6.4082 C   0  0  0  0  0  0  0  0  0  0  0  0
    8.4974    8.4716    5.5401 H   0  0  0  0  0  0  0  0  0  0  0  0
    6.8936    7.9981    6.8781 C   0  0  0  0  0  0  0  0  0  0  0  0
    6.1705    8.6330    6.3817 H   0  0  0  0  0  0  0  0  0  0  0  0
  1  9  1  0  0  0  0
  1  6  1  0  0  0  0
  2  1  1  0  0  0  0
  3 38  1  0  0  0  0
  3 34  1  0  0  0  0
  4  5  1  0  0  0  0
  4  1  1  0  0  0  0
  5  8  1  1  0  0  0
  5  7  1  0  0  0  0
  7  3  1  0  0  0  0
  7  1  1  0  0  0  0
  9 46  1  0  0  0  0
 10  8  1  0  0  0  0
 10 11  1  0  0  0  0
 12 59  1  0  0  0  0
 12  1  1  0  0  0  0
 13 10  2  0  0  0  0
 14 13  1  0  0  0  0
 15 30  1  0  0  0  0
 15  4  1  0  0  0  0
 16 18  2  0  0  0  0
 16 13  1  0  0  0  0
 17 16  1  0  0  0  0
 18 20  1  0  0  0  0
 19 18  1  0  0  0  0
 20 21  1  0  0  0  0
 20  8  2  0  0  0  0
 22 15  1  0  0  0  0
 22 25  1  0  0  0  0
 23 22  1  0  0  0  0
 24 22  1  0  0  0  0
 26 27  1  0  0  0  0
 26 15  1  0  0  0  0
 28 26  1  0  0  0  0
 29 26  1  0  0  0  0
 30 33  1  0  0  0  0
 30 31  1  0  0  0  0
 32 30  1  0  0  0  0
 34 37  1  0  0  0  0
 34 36  1  0  0  0  0
 35 34  1  0  0  0  0
 38 39  1  0  0  0  0
 38 41  1  0  0  0  0
 40 38  1  0  0  0  0
 42 45  1  0  0  0  0
 42  3  1  0  0  0  0
 43 42  1  0  0  0  0
 44 42  1  0  0  0  0
 46 47  1  0  0  0  0
 47 50  1  0  0  0  0
 47 48  1  0  0  0  0
 47 49  1  0  0  0  0
 51 46  1  0  0  0  0
 51 52  1  0  0  0  0
 51 54  1  0  0  0  0
 53 51  1  0  0  0  0
 55 58  1  0  0  0  0
 55 56  1  0  0  0  0
 55 46  1  0  0  0  0
 57 55  1  0  0  0  0
 59 60  1  0  0  0  0
 61 59  1  0  0  0  0
 61 62  1  0  0  0  0
 63 61  2  0  0  0  0
 64 63  1  0  0  0  0
 65 67  2  0  0  0  0
 65 63  1  0  0  0  0
 66 65  1  0  0  0  0
 67 12  1  0  0  0  0
 68 67  1  0  0  0  0
M  END
$$$$
