CSD_code = GAXGOB | q = 0 | S = 0 | Stoichiometry = C24H34Cl2IrP3 | MND = 6
 OpenBabel04212202043D

 64 66  0  0  0  0  0  0  0  0999 V2000
    4.2278    0.7372    3.6994 Ir  0  0  0  0  0  0  0  0  0  0  0  0
    5.6624    0.5405    5.5665 Cl  0  0  0  0  0  0  0  0  0  0  0  0
    2.8352   -1.1496    4.3262 Cl  0  0  0  0  0  0  0  0  0  0  0  0
    2.9690    1.0227    1.7774 P   0  0  0  0  0  4  0  0  0  0  0  0
    5.7756   -0.8348    2.9614 P   0  0  0  0  0  4  0  0  0  0  0  0
    2.7053    1.8672    5.0639 P   0  0  0  0  0  4  0  0  0  0  0  0
    2.0515    2.5992    1.6885 C   0  0  0  0  0  0  0  0  0  0  0  0
    2.7831    3.7633    1.9060 C   0  0  0  0  0  0  0  0  0  0  0  0
    2.1737    5.0010    1.8341 C   0  0  0  0  0  0  0  0  0  0  0  0
    0.8191    5.0895    1.5565 C   0  0  0  0  0  0  0  0  0  0  0  0
    0.0820    3.9365    1.3487 C   0  0  0  0  0  0  0  0  0  0  0  0
    0.6928    2.6948    1.4105 C   0  0  0  0  0  0  0  0  0  0  0  0
    3.9042    1.1681    0.2034 C   0  0  0  0  0  0  0  0  0  0  0  0
    1.7450   -0.2521    1.3262 C   0  0  0  0  0  0  0  0  0  0  0  0
    5.4141   -1.7629    1.4328 C   0  0  0  0  0  0  0  0  0  0  0  0
    4.3610   -2.6739    1.4689 C   0  0  0  0  0  0  0  0  0  0  0  0
    4.0258   -3.4033    0.3431 C   0  0  0  0  0  0  0  0  0  0  0  0
    4.7359   -3.2283   -0.8340 C   0  0  0  0  0  0  0  0  0  0  0  0
    5.7772   -2.3169   -0.8804 C   0  0  0  0  0  0  0  0  0  0  0  0
    6.1135   -1.5831    0.2448 C   0  0  0  0  0  0  0  0  0  0  0  0
    7.4840   -0.2333    2.7179 C   0  0  0  0  0  0  0  0  0  0  0  0
    6.0639   -2.2392    4.0957 C   0  0  0  0  0  0  0  0  0  0  0  0
    2.8261    3.6790    5.1938 C   0  0  0  0  0  0  0  0  0  0  0  0
    4.0843    4.1842    5.5100 C   0  0  0  0  0  0  0  0  0  0  0  0
    4.2794    5.5455    5.6373 C   0  0  0  0  0  0  0  0  0  0  0  0
    3.2191    6.4166    5.4401 C   0  0  0  0  0  0  0  0  0  0  0  0
    1.9693    5.9197    5.1140 C   0  0  0  0  0  0  0  0  0  0  0  0
    1.7701    4.5554    4.9885 C   0  0  0  0  0  0  0  0  0  0  0  0
    0.9237    1.5481    4.7978 C   0  0  0  0  0  0  0  0  0  0  0  0
    2.8434    1.3934    6.8221 C   0  0  0  0  0  0  0  0  0  0  0  0
    3.8336    3.6822    2.1471 H   0  0  0  0  0  0  0  0  0  0  0  0
    0.3368    6.0545    1.5071 H   0  0  0  0  0  0  0  0  0  0  0  0
   -0.9757    4.0004    1.1366 H   0  0  0  0  0  0  0  0  0  0  0  0
    0.1015    1.8057    1.2460 H   0  0  0  0  0  0  0  0  0  0  0  0
    3.8029   -2.7987    2.3863 H   0  0  0  0  0  0  0  0  0  0  0  0
    3.2097   -4.1105    0.3829 H   0  0  0  0  0  0  0  0  0  0  0  0
    4.4774   -3.8001   -1.7132 H   0  0  0  0  0  0  0  0  0  0  0  0
    6.3309   -2.1756   -1.7976 H   0  0  0  0  0  0  0  0  0  0  0  0
    6.9241   -0.8713    0.1947 H   0  0  0  0  0  0  0  0  0  0  0  0
    4.9061    3.4935    5.6438 H   0  0  0  0  0  0  0  0  0  0  0  0
    5.2572    5.9308    5.8869 H   0  0  0  0  0  0  0  0  0  0  0  0
    3.3687    7.4822    5.5365 H   0  0  0  0  0  0  0  0  0  0  0  0
    1.1428    6.5974    4.9538 H   0  0  0  0  0  0  0  0  0  0  0  0
    0.7909    4.1847    4.7248 H   0  0  0  0  0  0  0  0  0  0  0  0
    7.8129    0.1756    3.6724 H   0  0  0  0  0  0  0  0  0  0  0  0
    8.1377   -1.0518    2.4176 H   0  0  0  0  0  0  0  0  0  0  0  0
    7.5024    0.5634    1.9774 H   0  0  0  0  0  0  0  0  0  0  0  0
    6.6362   -3.0084    3.5754 H   0  0  0  0  0  0  0  0  0  0  0  0
    5.1096   -2.6445    4.4264 H   0  0  0  0  0  0  0  0  0  0  0  0
    6.6094   -1.8771    4.9653 H   0  0  0  0  0  0  0  0  0  0  0  0
    0.3445    2.0106    5.5967 H   0  0  0  0  0  0  0  0  0  0  0  0
    2.0773    1.9119    7.4004 H   0  0  0  0  0  0  0  0  0  0  0  0
    2.7051    0.3145    6.8916 H   0  0  0  0  0  0  0  0  0  0  0  0
    3.8342    1.6444    7.1960 H   0  0  0  0  0  0  0  0  0  0  0  0
    3.2224    1.4255   -0.6071 H   0  0  0  0  0  0  0  0  0  0  0  0
    2.2849   -1.1926    1.2197 H   0  0  0  0  0  0  0  0  0  0  0  0
    4.3973    0.2228   -0.0156 H   0  0  0  0  0  0  0  0  0  0  0  0
    4.6558    1.9472    0.3102 H   0  0  0  0  0  0  0  0  0  0  0  0
    1.2521   -0.0041    0.3866 H   0  0  0  0  0  0  0  0  0  0  0  0
    1.0210   -0.3689    2.1302 H   0  0  0  0  0  0  0  0  0  0  0  0
    0.7825    0.4682    4.8276 H   0  0  0  0  0  0  0  0  0  0  0  0
    0.5993    1.9271    3.8308 H   0  0  0  0  0  0  0  0  0  0  0  0
    2.7522    5.8965    2.0048 H   0  0  0  0  0  0  0  0  0  0  0  0
    5.0875    1.9394    3.3053 H   0  0  0  0  0  0  0  0  0  0  0  0
  1  3  1  0  0  0  0
  1  6  1  0  0  0  0
  1  2  1  0  0  0  0
  4  1  1  0  0  0  0
  5  1  1  0  0  0  0
  5 22  1  0  0  0  0
  6 23  1  0  0  0  0
  6 30  1  0  0  0  0
  7  4  1  0  0  0  0
  7  8  1  0  0  0  0
  8 31  1  0  0  0  0
  9  8  2  0  0  0  0
  9 63  1  0  0  0  0
 10  9  1  0  0  0  0
 11 12  1  0  0  0  0
 11 10  2  0  0  0  0
 12  7  2  0  0  0  0
 13 58  1  0  0  0  0
 13  4  1  0  0  0  0
 14  4  1  0  0  0  0
 14 60  1  0  0  0  0
 15 16  1  0  0  0  0
 15  5  1  0  0  0  0
 16 35  1  0  0  0  0
 17 36  1  0  0  0  0
 17 16  2  0  0  0  0
 18 17  1  0  0  0  0
 19 18  2  0  0  0  0
 19 20  1  0  0  0  0
 20 15  2  0  0  0  0
 21  5  1  0  0  0  0
 21 45  1  0  0  0  0
 22 49  1  0  0  0  0
 22 50  1  0  0  0  0
 23 24  1  0  0  0  0
 24 25  2  0  0  0  0
 24 40  1  0  0  0  0
 25 41  1  0  0  0  0
 26 42  1  0  0  0  0
 26 25  1  0  0  0  0
 27 26  2  0  0  0  0
 28 27  1  0  0  0  0
 28 23  2  0  0  0  0
 29 61  1  0  0  0  0
 29  6  1  0  0  0  0
 29 51  1  0  0  0  0
 30 53  1  0  0  0  0
 30 54  1  0  0  0  0
 30 52  1  0  0  0  0
 32 10  1  0  0  0  0
 33 11  1  0  0  0  0
 34 12  1  0  0  0  0
 37 18  1  0  0  0  0
 38 19  1  0  0  0  0
 39 20  1  0  0  0  0
 43 27  1  0  0  0  0
 44 28  1  0  0  0  0
 46 21  1  0  0  0  0
 47 21  1  0  0  0  0
 48 22  1  0  0  0  0
 55 13  1  0  0  0  0
 56 14  1  0  0  0  0
 57 13  1  0  0  0  0
 59 14  1  0  0  0  0
 62 29  1  0  0  0  0
 64  1  1  0  0  0  0
M  END
$$$$
