CSD_code = GAXXIO | q = 1 | S = 0 | Stoichiometry = C18H40ClN4NiS2(1+) | MND = 5
 OpenBabel04212202043D

 66 69  0  0  1  0  0  0  0  0999 V2000
    1.6527    9.9055    7.8114 Ni  0  0  0  0  0  0  0  0  0  0  0  0
    1.7162    8.2247    6.4727 Cl  0  0  0  0  0  0  0  0  0  0  0  0
    5.8472   10.7229    4.1109 S   0  0  0  0  0  0  0  0  0  0  0  0
   -2.4546    6.3174    9.2914 S   0  0  0  0  0  0  0  0  0  0  0  0
    0.7404    8.8834    9.2515 N   0  0  2  0  0  4  0  0  0  0  0  0
   -0.2736   11.0954    7.2981 N   0  0  1  0  0  4  0  0  0  0  0  0
    2.5581   11.1244    6.5270 N   0  0  1  0  0  4  0  0  0  0  0  0
    3.5387    9.7612    9.1567 N   0  0  1  0  0  4  0  0  0  0  0  0
    0.0769    9.9475   10.0455 C   0  0  0  0  0  0  0  0  0  0  0  0
   -1.2440   10.5156    9.5181 C   0  0  0  0  0  0  0  0  0  0  0  0
   -1.0489   11.5859    8.4422 C   0  0  0  0  0  0  0  0  0  0  0  0
    0.2943   12.2106    6.5272 C   0  0  0  0  0  0  0  0  0  0  0  0
    1.4893   11.7353    5.7051 C   0  0  0  0  0  0  0  0  0  0  0  0
    3.1430   12.1665    7.4071 C   0  0  0  0  0  0  0  0  0  0  0  0
    4.4527   11.8398    8.1307 C   0  0  0  0  0  0  0  0  0  0  0  0
    4.2460   11.0214    9.4069 C   0  0  0  0  0  0  0  0  0  0  0  0
    2.9485    9.2316   10.3944 C   0  0  0  0  0  0  0  0  0  0  0  0
    1.8090    8.2689   10.0709 C   0  0  0  0  0  0  0  0  0  0  0  0
   -0.1860    7.8123    8.8405 C   0  0  0  0  0  0  0  0  0  0  0  0
   -0.9578    7.1119    9.9653 C   0  0  0  0  0  0  0  0  0  0  0  0
   -1.7234    4.8932    8.4444 C   0  0  0  0  0  0  0  0  0  0  0  0
   -1.1432   10.3052    6.4124 C   0  0  0  0  0  0  0  0  0  0  0  0
    3.5471   10.5275    5.6104 C   0  0  0  0  0  0  0  0  0  0  0  0
    4.3065   11.5003    4.7007 C   0  0  0  0  0  0  0  0  0  0  0  0
    5.1877    9.5565    2.8924 C   0  0  0  0  0  0  0  0  0  0  0  0
    4.4777    8.7643    8.6190 C   0  0  0  0  0  0  0  0  0  0  0  0
    0.7806   10.7824   10.1361 H   0  0  0  0  0  0  0  0  0  0  0  0
   -0.0968    9.5612   11.0576 H   0  0  0  0  0  0  0  0  0  0  0  0
   -1.9068    9.7266    9.1709 H   0  0  0  0  0  0  0  0  0  0  0  0
   -1.7463   10.9971   10.3595 H   0  0  0  0  0  0  0  0  0  0  0  0
   -2.0301   11.9584    8.1185 H   0  0  0  0  0  0  0  0  0  0  0  0
   -0.5093   12.4234    8.8950 H   0  0  0  0  0  0  0  0  0  0  0  0
    0.6016   13.0068    7.2085 H   0  0  0  0  0  0  0  0  0  0  0  0
   -0.4514   12.6409    5.8434 H   0  0  0  0  0  0  0  0  0  0  0  0
    1.1524   10.9810    4.9911 H   0  0  0  0  0  0  0  0  0  0  0  0
    1.8917   12.5876    5.1444 H   0  0  0  0  0  0  0  0  0  0  0  0
    2.3980   12.4130    8.1716 H   0  0  0  0  0  0  0  0  0  0  0  0
    3.3009   13.0714    6.8071 H   0  0  0  0  0  0  0  0  0  0  0  0
    5.1651   11.3566    7.4662 H   0  0  0  0  0  0  0  0  0  0  0  0
    4.9002   12.7895    8.4303 H   0  0  0  0  0  0  0  0  0  0  0  0
    5.2195   10.8355    9.8803 H   0  0  0  0  0  0  0  0  0  0  0  0
    3.6501   11.6235   10.0996 H   0  0  0  0  0  0  0  0  0  0  0  0
    2.5785   10.0575   11.0056 H   0  0  0  0  0  0  0  0  0  0  0  0
    3.6984    8.6966   10.9946 H   0  0  0  0  0  0  0  0  0  0  0  0
    2.2077    7.4218    9.5089 H   0  0  0  0  0  0  0  0  0  0  0  0
    1.3879    7.8932   11.0112 H   0  0  0  0  0  0  0  0  0  0  0  0
    0.3969    7.0681    8.2952 H   0  0  0  0  0  0  0  0  0  0  0  0
   -0.9007    8.2251    8.1317 H   0  0  0  0  0  0  0  0  0  0  0  0
   -1.3397    7.8121   10.7052 H   0  0  0  0  0  0  0  0  0  0  0  0
   -0.3644    6.3467   10.4635 H   0  0  0  0  0  0  0  0  0  0  0  0
   -1.1148    5.2258    7.6092 H   0  0  0  0  0  0  0  0  0  0  0  0
   -2.5539    4.2978    8.0803 H   0  0  0  0  0  0  0  0  0  0  0  0
   -1.1373    4.3142    9.1518 H   0  0  0  0  0  0  0  0  0  0  0  0
   -0.5444    9.6852    5.7469 H   0  0  0  0  0  0  0  0  0  0  0  0
   -1.7883   10.9594    5.8150 H   0  0  0  0  0  0  0  0  0  0  0  0
   -1.7873    9.6520    6.9932 H   0  0  0  0  0  0  0  0  0  0  0  0
    3.0196    9.8019    4.9890 H   0  0  0  0  0  0  0  0  0  0  0  0
    4.2692    9.9644    6.1980 H   0  0  0  0  0  0  0  0  0  0  0  0
    4.6437   12.3881    5.2316 H   0  0  0  0  0  0  0  0  0  0  0  0
    3.7238   11.7980    3.8304 H   0  0  0  0  0  0  0  0  0  0  0  0
    6.0476    9.1000    2.4136 H   0  0  0  0  0  0  0  0  0  0  0  0
    4.5998   10.0967    2.1563 H   0  0  0  0  0  0  0  0  0  0  0  0
    4.5938    8.7937    3.3867 H   0  0  0  0  0  0  0  0  0  0  0  0
    5.1281    9.2144    7.8752 H   0  0  0  0  0  0  0  0  0  0  0  0
    3.9346    7.9486    8.1440 H   0  0  0  0  0  0  0  0  0  0  0  0
    5.1147    8.3606    9.4141 H   0  0  0  0  0  0  0  0  0  0  0  0
  1  8  1  0  0  0  0
  1  5  1  0  0  0  0
  2  1  1  0  0  0  0
  3 24  1  0  0  0  0
  4 20  1  0  0  0  0
  5 19  1  6  0  0  0
  5  9  1  0  0  0  0
  5 18  1  0  0  0  0
  6 22  1  6  0  0  0
  6  1  1  0  0  0  0
  6 11  1  0  0  0  0
  7 23  1  6  0  0  0
  7 14  1  0  0  0  0
  7  1  1  0  0  0  0
  8 26  1  6  0  0  0
  8 16  1  0  0  0  0
  8 17  1  0  0  0  0
  9 27  1  0  0  0  0
  9 28  1  0  0  0  0
 10  9  1  0  0  0  0
 10 30  1  0  0  0  0
 11 32  1  0  0  0  0
 11 10  1  0  0  0  0
 12 33  1  0  0  0  0
 12  6  1  0  0  0  0
 13  7  1  0  0  0  0
 13 12  1  0  0  0  0
 14 15  1  0  0  0  0
 14 37  1  0  0  0  0
 15 40  1  0  0  0  0
 15 16  1  0  0  0  0
 16 41  1  0  0  0  0
 16 42  1  0  0  0  0
 17 44  1  0  0  0  0
 17 43  1  0  0  0  0
 18 17  1  0  0  0  0
 18 46  1  0  0  0  0
 19 20  1  0  0  0  0
 20 50  1  0  0  0  0
 20 49  1  0  0  0  0
 21 53  1  0  0  0  0
 21  4  1  0  0  0  0
 22 56  1  0  0  0  0
 23 58  1  0  0  0  0
 24 59  1  0  0  0  0
 24 23  1  0  0  0  0
 25 63  1  0  0  0  0
 25  3  1  0  0  0  0
 26 66  1  0  0  0  0
 29 10  1  0  0  0  0
 31 11  1  0  0  0  0
 34 12  1  0  0  0  0
 35 13  1  0  0  0  0
 36 13  1  0  0  0  0
 38 14  1  0  0  0  0
 39 15  1  0  0  0  0
 45 18  1  0  0  0  0
 47 19  1  0  0  0  0
 48 19  1  0  0  0  0
 51 21  1  0  0  0  0
 52 21  1  0  0  0  0
 54 22  1  0  0  0  0
 55 22  1  0  0  0  0
 57 23  1  0  0  0  0
 60 24  1  0  0  0  0
 61 25  1  0  0  0  0
 62 25  1  0  0  0  0
 64 26  1  0  0  0  0
 65 26  1  0  0  0  0
M  END
$$$$
