CSD_code = GAXYAH | q = 1 | S = 0 | Stoichiometry = C16H36ClN4NiS2(1+) | MND = 6
 OpenBabel04212202043D

 60 64  0  0  1  0  0  0  0  0999 V2000
    5.1086   10.1301    3.8150 Ni  0  0  0  0  0  0  0  0  0  0  0  0
    6.6287    9.4348    2.6389 Cl  0  0  0  0  0  0  0  0  0  0  0  0
    3.6490    8.5489    2.6840 S   0  0  1  0  0  3  0  0  0  0  0  0
    7.6088    5.3120    5.6080 S   0  0  0  0  0  0  0  0  0  0  0  0
    4.4378   11.6026    2.1516 N   0  0  2  0  0  4  0  0  0  0  0  0
    6.5580   11.6002    4.6307 N   0  0  2  0  0  4  0  0  0  0  0  0
    5.8655    9.0586    5.8232 N   0  0  1  0  0  4  0  0  0  0  0  0
    3.5445   10.9430    4.7644 N   0  0  2  0  0  4  0  0  0  0  0  0
    5.4454   12.5999    1.7463 C   0  0  0  0  0  0  0  0  0  0  0  0
    6.1604   13.3311    2.8861 C   0  0  0  0  0  0  0  0  0  0  0  0
    7.1855   12.4900    3.6473 C   0  0  0  0  0  0  0  0  0  0  0  0
    7.5500   10.8497    5.4069 C   0  0  0  0  0  0  0  0  0  0  0  0
    6.8496    9.9635    6.4403 C   0  0  0  0  0  0  0  0  0  0  0  0
    4.7888    8.7346    6.7702 C   0  0  0  0  0  0  0  0  0  0  0  0
    3.7608    9.8445    6.9935 C   0  0  0  0  0  0  0  0  0  0  0  0
    2.8734   10.1351    5.7875 C   0  0  0  0  0  0  0  0  0  0  0  0
    2.5620   11.4462    3.7946 C   0  0  0  0  0  0  0  0  0  0  0  0
    3.2330   12.2590    2.6806 C   0  0  0  0  0  0  0  0  0  0  0  0
    4.1386   10.7631    0.9830 C   0  0  0  0  0  0  0  0  0  0  0  0
    3.1944    9.5940    1.2485 C   0  0  0  0  0  0  0  0  0  0  0  0
    4.5154    7.1962    1.8513 C   0  0  0  0  0  0  0  0  0  0  0  0
    6.5021    7.8116    5.3538 C   0  0  0  0  0  0  0  0  0  0  0  0
    7.0179    6.8398    6.4161 C   0  0  0  0  0  0  0  0  0  0  0  0
    9.2075    5.8691    4.9564 C   0  0  0  0  0  0  0  0  0  0  0  0
    6.0603   12.1995    5.2924 H   0  0  0  0  0  0  0  0  0  0  0  0
    3.9329   11.7599    5.2411 H   0  0  0  0  0  0  0  0  0  0  0  0
    4.9730   13.3464    1.0909 H   0  0  0  0  0  0  0  0  0  0  0  0
    6.2091   12.0801    1.1656 H   0  0  0  0  0  0  0  0  0  0  0  0
    6.6963   14.1634    2.4275 H   0  0  0  0  0  0  0  0  0  0  0  0
    5.4483   13.7619    3.5934 H   0  0  0  0  0  0  0  0  0  0  0  0
    7.7554   11.8774    2.9463 H   0  0  0  0  0  0  0  0  0  0  0  0
    7.8880   13.1647    4.1582 H   0  0  0  0  0  0  0  0  0  0  0  0
    8.2361   11.5291    5.9316 H   0  0  0  0  0  0  0  0  0  0  0  0
    8.1361   10.2441    4.7136 H   0  0  0  0  0  0  0  0  0  0  0  0
    7.6078    9.4059    7.0000 H   0  0  0  0  0  0  0  0  0  0  0  0
    6.3317   10.6115    7.1509 H   0  0  0  0  0  0  0  0  0  0  0  0
    5.2137    8.4695    7.7478 H   0  0  0  0  0  0  0  0  0  0  0  0
    4.2596    7.8618    6.3812 H   0  0  0  0  0  0  0  0  0  0  0  0
    3.1156    9.5158    7.8097 H   0  0  0  0  0  0  0  0  0  0  0  0
    4.2445   10.7673    7.3220 H   0  0  0  0  0  0  0  0  0  0  0  0
    2.5473    9.1977    5.3282 H   0  0  0  0  0  0  0  0  0  0  0  0
    1.9779   10.6682    6.1387 H   0  0  0  0  0  0  0  0  0  0  0  0
    1.8213   12.0864    4.2953 H   0  0  0  0  0  0  0  0  0  0  0  0
    2.0264   10.5848    3.3946 H   0  0  0  0  0  0  0  0  0  0  0  0
    2.5035   12.4498    1.8825 H   0  0  0  0  0  0  0  0  0  0  0  0
    3.5225   13.2268    3.0942 H   0  0  0  0  0  0  0  0  0  0  0  0
    5.0881   10.3608    0.6211 H   0  0  0  0  0  0  0  0  0  0  0  0
    3.6900   11.3695    0.1803 H   0  0  0  0  0  0  0  0  0  0  0  0
    3.1863    8.9404    0.3778 H   0  0  0  0  0  0  0  0  0  0  0  0
    2.1754    9.9334    1.4271 H   0  0  0  0  0  0  0  0  0  0  0  0
    5.4124    7.5690    1.3652 H   0  0  0  0  0  0  0  0  0  0  0  0
    3.8318    6.7408    1.1406 H   0  0  0  0  0  0  0  0  0  0  0  0
    4.7875    6.4710    2.6122 H   0  0  0  0  0  0  0  0  0  0  0  0
    7.3326    8.0867    4.7039 H   0  0  0  0  0  0  0  0  0  0  0  0
    5.7653    7.2785    4.7465 H   0  0  0  0  0  0  0  0  0  0  0  0
    6.2280    6.5031    7.0847 H   0  0  0  0  0  0  0  0  0  0  0  0
    7.8413    7.2426    7.0044 H   0  0  0  0  0  0  0  0  0  0  0  0
    9.6991    4.9845    4.5660 H   0  0  0  0  0  0  0  0  0  0  0  0
    9.7992    6.2925    5.7624 H   0  0  0  0  0  0  0  0  0  0  0  0
    9.0613    6.5891    4.1569 H   0  0  0  0  0  0  0  0  0  0  0  0
  1  6  1  0  0  0  0
  1  8  1  0  0  0  0
  1  7  1  0  0  0  0
  2  1  1  0  0  0  0
  3 21  1  6  0  0  0
  3  1  1  0  0  0  0
  4 23  1  0  0  0  0
  5 19  1  6  0  0  0
  5 18  1  0  0  0  0
  5  1  1  0  0  0  0
  6 25  1  1  0  0  0
  6 12  1  0  0  0  0
  7 22  1  6  0  0  0
  7 13  1  0  0  0  0
  7 14  1  0  0  0  0
  8 26  1  1  0  0  0
  8 16  1  0  0  0  0
  9  5  1  0  0  0  0
  9 10  1  0  0  0  0
 10 30  1  0  0  0  0
 10 11  1  0  0  0  0
 11 32  1  0  0  0  0
 11  6  1  0  0  0  0
 12 33  1  0  0  0  0
 12 13  1  0  0  0  0
 13 35  1  0  0  0  0
 13 36  1  0  0  0  0
 14 15  1  0  0  0  0
 14 37  1  0  0  0  0
 15 40  1  0  0  0  0
 15 39  1  0  0  0  0
 16 42  1  0  0  0  0
 16 15  1  0  0  0  0
 17 43  1  0  0  0  0
 17  8  1  0  0  0  0
 18 46  1  0  0  0  0
 18 17  1  0  0  0  0
 19 20  1  0  0  0  0
 20 50  1  0  0  0  0
 20  3  1  0  0  0  0
 21 53  1  0  0  0  0
 22 23  1  0  0  0  0
 23 57  1  0  0  0  0
 23 56  1  0  0  0  0
 24  4  1  0  0  0  0
 24 59  1  0  0  0  0
 27  9  1  0  0  0  0
 28  9  1  0  0  0  0
 29 10  1  0  0  0  0
 31 11  1  0  0  0  0
 34 12  1  0  0  0  0
 38 14  1  0  0  0  0
 41 16  1  0  0  0  0
 44 17  1  0  0  0  0
 45 18  1  0  0  0  0
 47 19  1  0  0  0  0
 48 19  1  0  0  0  0
 49 20  1  0  0  0  0
 51 21  1  0  0  0  0
 52 21  1  0  0  0  0
 54 22  1  0  0  0  0
 55 22  1  0  0  0  0
 58 24  1  0  0  0  0
 60 24  1  0  0  0  0
M  END
$$$$
