CSD_code = GAYPIF | q = 0 | S = 0 | Stoichiometry = C12H22CdCl2N6 | MND = 6
 OpenBabel04212202043D

 43 48  0  0  1  0  0  0  0  0999 V2000
   -0.0000    3.8795    3.2170 Cd  0  0  0  0  0  0  0  0  0  0  0  0
    1.2108    2.7417    1.5295 Cl  0  0  0  0  0  0  0  0  0  0  0  0
   -1.4018    5.1544    1.5761 N   0  0  2  0  0  4  0  0  0  0  0  0
   -2.7216    6.7494    3.5185 N   0  0  1  0  0  0  0  0  0  0  0  0
   -0.6378    6.1786    4.3468 N   0  0  2  0  0  0  0  0  0  0  0  0
   -1.3096    6.9195    3.2741 C   0  0  1  0  0  0  0  0  0  0  0  0
   -0.7734    6.4261    1.9224 C   0  0  1  0  0  0  0  0  0  0  0  0
   -2.8543    5.2513    1.6100 C   0  0  0  0  0  0  0  0  0  0  0  0
   -3.2556    5.4695    3.0600 C   0  0  0  0  0  0  0  0  0  0  0  0
   -2.7996    6.8860    4.9690 C   0  0  0  0  0  0  0  0  0  0  0  0
   -1.5038    6.2494    5.5201 C   0  0  0  0  0  0  0  0  0  0  0  0
   -1.0723    4.8599    0.6575 H   0  0  0  0  0  0  0  0  0  0  0  0
   -1.1062    8.0057    3.3599 H   0  0  0  0  0  0  0  0  0  0  0  0
   -0.9817    7.1960    1.1446 H   0  0  0  0  0  0  0  0  0  0  0  0
   -3.2839    4.3182    1.2411 H   0  0  0  0  0  0  0  0  0  0  0  0
   -3.2174    6.0883    0.9925 H   0  0  0  0  0  0  0  0  0  0  0  0
   -2.8822    4.6234    3.6566 H   0  0  0  0  0  0  0  0  0  0  0  0
   -4.3427    5.5231    3.1515 H   0  0  0  0  0  0  0  0  0  0  0  0
   -2.8352    7.9532    5.2055 H   0  0  0  0  0  0  0  0  0  0  0  0
   -3.7005    6.4104    5.3487 H   0  0  0  0  0  0  0  0  0  0  0  0
   -1.0623    6.8655    6.3126 H   0  0  0  0  0  0  0  0  0  0  0  0
   -1.6807    5.2399    5.9008 H   0  0  0  0  0  0  0  0  0  0  0  0
   -1.2108    2.7417    4.9045 Cl  0  0  0  0  0  0  0  0  0  0  0  0
    1.4018    5.1544    4.8579 N   0  0  2  0  0  4  0  0  0  0  0  0
    0.6378    6.1786    2.0872 N   0  0  2  0  0  0  0  0  0  0  0  0
    0.7735    6.4261    4.5116 C   0  0  1  0  0  0  0  0  0  0  0  0
    2.8543    5.2513    4.8240 C   0  0  0  0  0  0  0  0  0  0  0  0
    1.0723    4.8599    5.7765 H   0  0  0  0  0  0  0  0  0  0  0  0
    1.3096    6.9195    3.1599 C   0  0  1  0  0  0  0  0  0  0  0  0
    1.5038    6.2494    0.9139 C   0  0  0  0  0  0  0  0  0  0  0  0
    0.9817    7.1960    5.2893 H   0  0  0  0  0  0  0  0  0  0  0  0
    3.2556    5.4695    3.3740 C   0  0  0  0  0  0  0  0  0  0  0  0
    3.2839    4.3182    5.1929 H   0  0  0  0  0  0  0  0  0  0  0  0
    3.2174    6.0883    5.4415 H   0  0  0  0  0  0  0  0  0  0  0  0
    2.7216    6.7494    2.9155 N   0  0  1  0  0  0  0  0  0  0  0  0
    1.1062    8.0057    3.0741 H   0  0  0  0  0  0  0  0  0  0  0  0
    2.7996    6.8860    1.4650 C   0  0  0  0  0  0  0  0  0  0  0  0
    1.0623    6.8655    0.1214 H   0  0  0  0  0  0  0  0  0  0  0  0
    1.6807    5.2399    0.5332 H   0  0  0  0  0  0  0  0  0  0  0  0
    2.8822    4.6234    2.7774 H   0  0  0  0  0  0  0  0  0  0  0  0
    4.3427    5.5231    3.2825 H   0  0  0  0  0  0  0  0  0  0  0  0
    2.8352    7.9532    1.2285 H   0  0  0  0  0  0  0  0  0  0  0  0
    3.7005    6.4104    1.0853 H   0  0  0  0  0  0  0  0  0  0  0  0
  1 24  1  0  0  0  0
  1 23  1  0  0  0  0
  2  1  1  0  0  0  0
  3 12  1  6  0  0  0
  3  8  1  0  0  0  0
  3  7  1  0  0  0  0
  3  1  1  0  0  0  0
  4  9  1  1  0  0  0
  4 10  1  0  0  0  0
  5 26  1  0  0  0  0
  5 11  1  1  0  0  0
  6 13  1  1  0  0  0
  6  4  1  0  0  0  0
  6  5  1  0  0  0  0
  7 14  1  6  0  0  0
  7 25  1  0  0  0  0
  7  6  1  0  0  0  0
  8  9  1  0  0  0  0
  9 18  1  0  0  0  0
  9 17  1  0  0  0  0
 10 19  1  0  0  0  0
 10 20  1  0  0  0  0
 10 11  1  0  0  0  0
 11 22  1  0  0  0  0
 11 21  1  0  0  0  0
 15  8  1  0  0  0  0
 16  8  1  0  0  0  0
 24 28  1  1  0  0  0
 25 30  1  6  0  0  0
 25 29  1  0  0  0  0
 26 24  1  0  0  0  0
 26 31  1  1  0  0  0
 27 24  1  0  0  0  0
 27 33  1  0  0  0  0
 27 34  1  0  0  0  0
 29 36  1  6  0  0  0
 29 26  1  0  0  0  0
 30 37  1  0  0  0  0
 32 27  1  0  0  0  0
 35 37  1  6  0  0  0
 35 29  1  0  0  0  0
 35 32  1  0  0  0  0
 38 30  1  0  0  0  0
 39 30  1  0  0  0  0
 40 32  1  0  0  0  0
 41 32  1  0  0  0  0
 42 37  1  0  0  0  0
 43 37  1  0  0  0  0
M  END
$$$$
