CSD_code = GAYPOL | q = 0 | S = 0 | Stoichiometry = C12H22Br2CdN6 | MND = 6
 OpenBabel04212202043D

 43 48  0  0  1  0  0  0  0  0999 V2000
    0.8886    1.5219    9.0851 Cd  0  0  0  0  0  0  0  0  0  0  0  0
   -1.2153    2.6668    9.8451 Br  0  0  0  0  0  0  0  0  0  0  0  0
   -0.3817    0.1068    7.3398 N   0  0  2  0  0  4  0  0  0  0  0  0
    1.7964   -1.5207    6.5062 N   0  0  1  0  0  0  0  0  0  0  0  0
    2.1487   -0.9233    8.7170 N   0  0  2  0  0  0  0  0  0  0  0  0
    1.2424   -1.6653    7.8297 C   0  0  1  0  0  0  0  0  0  0  0  0
   -0.1928   -1.1643    8.0388 C   0  0  1  0  0  0  0  0  0  0  0  0
   -0.0233   -0.0168    5.9314 C   0  0  0  0  0  0  0  0  0  0  0  0
    1.4770   -0.2535    5.8578 C   0  0  0  0  0  0  0  0  0  0  0  0
    3.2265   -1.6789    6.7505 C   0  0  0  0  0  0  0  0  0  0  0  0
    3.4879   -1.0806    8.1531 C   0  0  0  0  0  0  0  0  0  0  0  0
   -1.3590    0.3856    7.4349 H   0  0  0  0  0  0  0  0  0  0  0  0
    1.2732   -2.7486    8.0606 H   0  0  0  0  0  0  0  0  0  0  0  0
   -0.8993   -1.9328    7.6516 H   0  0  0  0  0  0  0  0  0  0  0  0
   -0.5535   -0.8556    5.4540 H   0  0  0  0  0  0  0  0  0  0  0  0
   -0.2809    0.9103    5.4154 H   0  0  0  0  0  0  0  0  0  0  0  0
    1.9943    0.5974    6.3258 H   0  0  0  0  0  0  0  0  0  0  0  0
    1.7980   -0.3317    4.8168 H   0  0  0  0  0  0  0  0  0  0  0  0
    3.4540   -2.7482    6.7410 H   0  0  0  0  0  0  0  0  0  0  0  0
    3.8032   -1.1892    5.9695 H   0  0  0  0  0  0  0  0  0  0  0  0
    3.9806   -0.1074    8.0895 H   0  0  0  0  0  0  0  0  0  0  0  0
    4.1053   -1.7532    8.7615 H   0  0  0  0  0  0  0  0  0  0  0  0
    2.9926    2.6668    8.3250 Br  0  0  0  0  0  0  0  0  0  0  0  0
    2.1590    0.1068   10.8303 N   0  0  2  0  0  4  0  0  0  0  0  0
   -0.3715   -0.9233    9.4531 N   0  0  2  0  0  0  0  0  0  0  0  0
    1.9701   -1.1643   10.1313 C   0  0  1  0  0  0  0  0  0  0  0  0
    1.8006   -0.0168   12.2387 C   0  0  0  0  0  0  0  0  0  0  0  0
    3.1362    0.3856   10.7352 H   0  0  0  0  0  0  0  0  0  0  0  0
    0.5348   -1.6653   10.3404 C   0  0  1  0  0  0  0  0  0  0  0  0
   -1.7107   -1.0806   10.0170 C   0  0  0  0  0  0  0  0  0  0  0  0
    2.6766   -1.9328   10.5185 H   0  0  0  0  0  0  0  0  0  0  0  0
    0.3002   -0.2535   12.3123 C   0  0  0  0  0  0  0  0  0  0  0  0
    2.3307   -0.8556   12.7161 H   0  0  0  0  0  0  0  0  0  0  0  0
    2.0581    0.9103   12.7547 H   0  0  0  0  0  0  0  0  0  0  0  0
   -0.0192   -1.5207   11.6639 N   0  0  1  0  0  0  0  0  0  0  0  0
    0.5041   -2.7486   10.1096 H   0  0  0  0  0  0  0  0  0  0  0  0
   -1.4493   -1.6789   11.4196 C   0  0  0  0  0  0  0  0  0  0  0  0
   -2.2033   -0.1074   10.0806 H   0  0  0  0  0  0  0  0  0  0  0  0
   -2.3280   -1.7532    9.4086 H   0  0  0  0  0  0  0  0  0  0  0  0
   -0.2171    0.5974   11.8443 H   0  0  0  0  0  0  0  0  0  0  0  0
   -0.0207   -0.3317   13.3533 H   0  0  0  0  0  0  0  0  0  0  0  0
   -1.6767   -2.7482   11.4291 H   0  0  0  0  0  0  0  0  0  0  0  0
   -2.0259   -1.1892   12.2006 H   0  0  0  0  0  0  0  0  0  0  0  0
  1  2  1  0  0  0  0
  1 24  1  0  0  0  0
  3 12  1  1  0  0  0
  3  7  1  0  0  0  0
  3  1  1  0  0  0  0
  4  9  1  1  0  0  0
  4 10  1  0  0  0  0
  4  6  1  0  0  0  0
  5 11  1  6  0  0  0
  5 26  1  0  0  0  0
  6  7  1  0  0  0  0
  6 13  1  1  0  0  0
  6  5  1  0  0  0  0
  7 14  1  6  0  0  0
  7 25  1  0  0  0  0
  8  3  1  0  0  0  0
  9  8  1  0  0  0  0
  9 17  1  0  0  0  0
 10 11  1  0  0  0  0
 11 22  1  0  0  0  0
 15  8  1  0  0  0  0
 16  8  1  0  0  0  0
 18  9  1  0  0  0  0
 19 10  1  0  0  0  0
 20 10  1  0  0  0  0
 21 11  1  0  0  0  0
 23  1  1  0  0  0  0
 24 28  1  6  0  0  0
 24 27  1  0  0  0  0
 25 30  1  1  0  0  0
 25 29  1  0  0  0  0
 26 29  1  0  0  0  0
 26 31  1  1  0  0  0
 26 24  1  0  0  0  0
 27 32  1  0  0  0  0
 27 33  1  0  0  0  0
 27 34  1  0  0  0  0
 29 36  1  6  0  0  0
 29 35  1  0  0  0  0
 30 38  1  0  0  0  0
 30 37  1  0  0  0  0
 32 41  1  0  0  0  0
 35 37  1  6  0  0  0
 35 32  1  0  0  0  0
 37 42  1  0  0  0  0
 37 43  1  0  0  0  0
 39 30  1  0  0  0  0
 40 32  1  0  0  0  0
M  END
$$$$
