CSD_code = GAYPUR | q = 0 | S = 0 | Stoichiometry = C12H22CdI2N6 | MND = 6
 OpenBabel04212202043D

 43 46  0  0  1  0  0  0  0  0999 V2000
    2.3080    3.6427    7.4757 Cd  0  0  0  0  0  0  0  0  0  0  0  0
    4.7012    3.6934    8.7286 I   0  0  0  0  0  0  0  0  0  0  0  0
    2.8559    5.7217    6.0031 N   0  0  0  0  0  0  0  0  0  0  0  0
    0.5358    5.7220    4.3543 N   0  0  2  0  0  0  0  0  0  0  0  0
    0.9901    3.5311    4.9582 N   0  0  1  0  0  0  0  0  0  0  0  0
    1.5272    4.6840    4.2206 C   0  0  2  0  0  0  0  0  0  0  0  0
    2.9377    5.0067    4.7287 C   0  0  2  0  0  0  0  0  0  0  0  0
    2.0160    6.9084    5.8736 C   0  0  0  0  0  0  0  0  0  0  0  0
    0.5905    6.4439    5.6200 C   0  0  0  0  0  0  0  0  0  0  0  0
   -0.7117    4.9845    4.1793 C   0  0  0  0  0  0  0  0  0  0  0  0
   -0.4557    3.5671    4.7463 C   0  0  0  0  0  0  0  0  0  0  0  0
    3.8013    5.9935    6.2774 H   0  0  0  0  0  0  0  0  0  0  0  0
    1.5890    4.4562    3.1379 H   0  0  0  0  0  0  0  0  0  0  0  0
    3.4532    5.6311    3.9644 H   0  0  0  0  0  0  0  0  0  0  0  0
    2.0624    7.4802    6.8029 H   0  0  0  0  0  0  0  0  0  0  0  0
    2.3493    7.5466    5.0405 H   0  0  0  0  0  0  0  0  0  0  0  0
   -0.0778    7.3036    5.5337 H   0  0  0  0  0  0  0  0  0  0  0  0
    0.2626    5.8249    6.4678 H   0  0  0  0  0  0  0  0  0  0  0  0
   -1.5305    5.4963    4.6799 H   0  0  0  0  0  0  0  0  0  0  0  0
   -0.9281    4.9353    3.1090 H   0  0  0  0  0  0  0  0  0  0  0  0
   -0.7784    2.7948    4.0364 H   0  0  0  0  0  0  0  0  0  0  0  0
   -0.9772    3.4125    5.6936 H   0  0  0  0  0  0  0  0  0  0  0  0
   -0.0851    3.5922    8.7287 I   0  0  0  0  0  0  0  0  0  0  0  0
    1.7601    1.5638    6.0031 N   0  0  0  0  0  0  0  0  0  0  0  0
    3.6259    3.7544    4.9582 N   0  0  1  0  0  0  0  0  0  0  0  0
    1.6783    2.2788    4.7287 C   0  0  2  0  0  0  0  0  0  0  0  0
    2.6000    0.3771    5.8736 C   0  0  0  0  0  0  0  0  0  0  0  0
    0.8147    1.2920    6.2774 H   0  0  0  0  0  0  0  0  0  0  0  0
    3.0888    2.6015    4.2206 C   0  0  2  0  0  0  0  0  0  0  0  0
    5.0717    3.7184    4.7464 C   0  0  0  0  0  0  0  0  0  0  0  0
    1.1628    1.6544    3.9644 H   0  0  0  0  0  0  0  0  0  0  0  0
    4.0255    0.8416    5.6200 C   0  0  0  0  0  0  0  0  0  0  0  0
    2.5536   -0.1947    6.8029 H   0  0  0  0  0  0  0  0  0  0  0  0
    2.2667   -0.2611    5.0404 H   0  0  0  0  0  0  0  0  0  0  0  0
    4.0802    1.5635    4.3543 N   0  0  2  0  0  0  0  0  0  0  0  0
    3.0270    2.8293    3.1379 H   0  0  0  0  0  0  0  0  0  0  0  0
    5.3277    2.3010    4.1793 C   0  0  0  0  0  0  0  0  0  0  0  0
    5.3944    4.4907    4.0365 H   0  0  0  0  0  0  0  0  0  0  0  0
    5.5932    3.8730    5.6937 H   0  0  0  0  0  0  0  0  0  0  0  0
    4.6938   -0.0180    5.5337 H   0  0  0  0  0  0  0  0  0  0  0  0
    4.3534    1.4606    6.4678 H   0  0  0  0  0  0  0  0  0  0  0  0
    6.1465    1.7892    4.6799 H   0  0  0  0  0  0  0  0  0  0  0  0
    5.5441    2.3502    3.1090 H   0  0  0  0  0  0  0  0  0  0  0  0
  1  2  1  0  0  0  0
  1 23  1  0  0  0  0
  3 12  1  0  0  0  0
  4 10  1  1  0  0  0
  4  9  1  0  0  0  0
  5 11  1  6  0  0  0
  6 13  1  6  0  0  0
  6  4  1  0  0  0  0
  6  7  1  0  0  0  0
  6  5  1  0  0  0  0
  7 14  1  6  0  0  0
  7 25  1  0  0  0  0
  7  3  1  0  0  0  0
  8  3  1  0  0  0  0
  8 15  1  0  0  0  0
  9  8  1  0  0  0  0
  9 18  1  0  0  0  0
 10 19  1  0  0  0  0
 10 11  1  0  0  0  0
 11 22  1  0  0  0  0
 16  8  1  0  0  0  0
 17  9  1  0  0  0  0
 20 10  1  0  0  0  0
 21 11  1  0  0  0  0
 24 28  1  0  0  0  0
 25 30  1  6  0  0  0
 26 31  1  6  0  0  0
 26  5  1  0  0  0  0
 26 24  1  0  0  0  0
 27 24  1  0  0  0  0
 27 33  1  0  0  0  0
 29 36  1  6  0  0  0
 29 35  1  0  0  0  0
 29 26  1  0  0  0  0
 29 25  1  0  0  0  0
 30 39  1  0  0  0  0
 32 27  1  0  0  0  0
 32 41  1  0  0  0  0
 34 27  1  0  0  0  0
 35 37  1  1  0  0  0
 35 32  1  0  0  0  0
 37 42  1  0  0  0  0
 37 30  1  0  0  0  0
 38 30  1  0  0  0  0
 40 32  1  0  0  0  0
 43 37  1  0  0  0  0
M  END
$$$$
