CSD_code = GAYQEE | q = 0 | S = 0 | Stoichiometry = C12H11BrN5O3Re | MND = 6
 OpenBabel04212202043D

 33 34  0  0  0  0  0  0  0  0999 V2000
    8.5050    3.2445   11.7140 Re  0  0  0  0  0  0  0  0  0  0  0  0
    9.2194    2.8117   14.1509 Br  0  0  0  0  0  0  0  0  0  0  0  0
   10.4473    2.4258   11.2464 N   0  0  0  0  0  0  0  0  0  0  0  0
    8.1809    1.1364   11.6730 N   0  0  0  0  0  0  0  0  0  0  0  0
    6.7833   -1.1906    9.5863 N   0  0  0  0  0  0  0  0  0  0  0  0
    7.2373   -1.9212    8.7697 N   0  0  0  0  0  4  0  0  0  0  0  0
    7.6711   -2.7645    8.1666 N   0  0  0  0  0  2  0  0  0  0  0  0
    8.0381    3.5108    9.8515 C   0  0  0  0  0  2  0  0  0  0  0  0
    7.7647    3.6458    8.7441 O   0  0  0  0  0  1  0  0  0  0  0  0
    6.7221    3.7217   12.3542 C   0  0  0  0  0  2  0  0  0  0  0  0
    5.6939    3.9453   12.8038 O   0  0  0  0  0  1  0  0  0  0  0  0
    9.1067    5.0923   11.9396 C   0  0  0  0  0  2  0  0  0  0  0  0
    9.5303    6.1332   12.1471 O   0  0  0  0  0  1  0  0  0  0  0  0
   11.5840    3.0918   11.0706 C   0  0  0  0  0  3  0  0  0  0  0  0
   11.5108    4.1711   11.0325 H   0  0  0  0  0  0  0  0  0  0  0  0
   12.8113    2.4660   10.9456 C   0  0  0  0  0  0  0  0  0  0  0  0
   13.7022    3.0578   10.8129 H   0  0  0  0  0  0  0  0  0  0  0  0
   12.8727    1.0786   11.0004 C   0  0  0  0  0  0  0  0  0  0  0  0
   13.8163    0.5634   10.9114 H   0  0  0  0  0  0  0  0  0  0  0  0
   11.6988    0.3750   11.1779 C   0  0  0  0  0  0  0  0  0  0  0  0
   11.6902   -0.7024   11.2339 H   0  0  0  0  0  0  0  0  0  0  0  0
   10.5004    1.0782   11.3019 C   0  0  0  0  0  0  0  0  0  0  0  0
    9.2354    0.4218   11.5290 C   0  0  0  0  0  3  0  0  0  0  0  0
    9.2130   -0.6637   11.6003 H   0  0  0  0  0  0  0  0  0  0  0  0
    6.9297    0.4714   11.9253 C   0  0  0  0  0  0  0  0  0  0  0  0
    6.5144    0.8739   12.8557 H   0  0  0  0  0  0  0  0  0  0  0  0
    7.0814   -0.6089   12.0424 H   0  0  0  0  0  0  0  0  0  0  0  0
    5.9280    0.7173   10.7907 C   0  0  0  0  0  0  0  0  0  0  0  0
    5.7280    1.7865   10.6927 H   0  0  0  0  0  0  0  0  0  0  0  0
    4.9989    0.2068   11.0441 H   0  0  0  0  0  0  0  0  0  0  0  0
    6.4513    0.1979    9.4531 C   0  0  0  0  0  0  0  0  0  0  0  0
    5.6833    0.3344    8.6816 H   0  0  0  0  0  0  0  0  0  0  0  0
    7.3402    0.7703    9.1515 H   0  0  0  0  0  0  0  0  0  0  0  0
  1 12  1  0  0  0  0
  1 10  1  0  0  0  0
  1  2  1  0  0  0  0
  3 22  1  0  0  0  0
  3  1  1  0  0  0  0
  4  1  1  0  0  0  0
  4 25  1  0  0  0  0
  6  5  2  0  0  0  0
  7  6  2  0  0  0  0
  8  1  1  0  0  0  0
  9  8  1  0  0  0  0
 10 11  1  0  0  0  0
 12 13  1  0  0  0  0
 14  3  1  0  0  0  0
 15 14  1  0  0  0  0
 16 18  2  0  0  0  0
 16 14  1  0  0  0  0
 17 16  1  0  0  0  0
 18 20  1  0  0  0  0
 19 18  1  0  0  0  0
 20 21  1  0  0  0  0
 20 22  2  0  0  0  0
 22 23  1  0  0  0  0
 23 24  1  0  0  0  0
 23  4  1  0  0  0  0
 25 27  1  0  0  0  0
 25 26  1  0  0  0  0
 28 30  1  0  0  0  0
 28 25  1  0  0  0  0
 29 28  1  0  0  0  0
 31  5  1  0  0  0  0
 31 28  1  0  0  0  0
 32 31  1  0  0  0  0
 33 31  1  0  0  0  0
M  END
$$$$
