CSD_code = GAYWAH | q = 0 | S = 0 | Stoichiometry = C29H31Cl2N4Rh | MND = 6
 OpenBabel04212202043D

 67 70  0  0  1  0  0  0  0  0999 V2000
    7.0987    4.5127    3.9103 Rh  0  0  0  0  0  0  0  0  0  0  0  0
    8.4524    5.8201    2.5843 Cl  0  0  0  0  0 15  0  0  0  0  0  0
    2.8385   -1.3088    3.0929 Cl  0  0  0  0  0  0  0  0  0  0  0  0
    4.2838    0.6545    2.2688 N   0  0  0  0  0  0  0  0  0  0  0  0
    5.3273    2.5441    1.5297 N   0  0  0  0  0  0  0  0  0  0  0  0
    5.4134    5.3771    1.5895 N   0  0  0  0  0  0  0  0  0  0  0  0
    4.6364    6.2849    3.3680 N   0  0  0  0  0  0  0  0  0  0  0  0
    4.3259   -0.6012    2.5956 C   0  0  0  0  0  0  0  0  0  0  0  0
    5.4797   -1.4060    2.5760 C   0  0  0  0  0  0  0  0  0  0  0  0
    5.4221   -2.4433    2.8615 H   0  0  0  0  0  0  0  0  0  0  0  0
    6.6541   -0.8144    2.1931 C   0  0  0  0  0  0  0  0  0  0  0  0
    7.5777   -1.3764    2.1688 H   0  0  0  0  0  0  0  0  0  0  0  0
    6.6613    0.5479    1.8385 C   0  0  0  0  0  0  0  0  0  0  0  0
    5.4236    1.2564    1.8835 C   0  0  0  0  0  0  0  0  0  0  0  0
    7.8121    1.2675    1.4544 C   0  0  0  0  0  0  0  0  0  0  0  0
    8.7628    0.7547    1.3906 H   0  0  0  0  0  0  0  0  0  0  0  0
    7.6988    2.5991    1.1602 C   0  0  0  0  0  0  0  0  0  0  0  0
    8.5545    3.1900    0.8738 H   0  0  0  0  0  0  0  0  0  0  0  0
    6.4177    3.1969    1.2000 C   0  0  0  0  0  0  0  0  0  0  0  0
    6.2241    4.6026    0.6883 C   0  0  0  0  0  0  0  0  0  0  0  0
    7.1974    5.0910    0.5707 H   0  0  0  0  0  0  0  0  0  0  0  0
    5.7148    4.5579   -0.2797 H   0  0  0  0  0  0  0  0  0  0  0  0
    5.5586    5.3953    2.9297 C   0  0  2  0  0  3  0  0  0  0  0  0
    4.4292    6.2359    1.1917 C   0  0  0  0  0  0  0  0  0  0  0  0
    4.1640    6.3708    0.1635 H   0  0  0  0  0  0  0  0  0  0  0  0
    3.9362    6.8094    2.3103 C   0  0  0  0  0  0  0  0  0  0  0  0
    3.1728    7.5472    2.4468 H   0  0  0  0  0  0  0  0  0  0  0  0
    4.3061    6.6245    4.7075 C   0  0  0  0  0  0  0  0  0  0  0  0
    3.0769    6.1945    5.2163 C   0  0  0  0  0  0  0  0  0  0  0  0
    2.7310    6.5617    6.5068 C   0  0  0  0  0  0  0  0  0  0  0  0
    1.7856    6.2311    6.9122 H   0  0  0  0  0  0  0  0  0  0  0  0
    3.5744    7.3365    7.2924 C   0  0  0  0  0  0  0  0  0  0  0  0
    4.7926    7.7369    6.7662 C   0  0  0  0  0  0  0  0  0  0  0  0
    5.4621    8.3324    7.3704 H   0  0  0  0  0  0  0  0  0  0  0  0
    5.1785    7.3939    5.4772 C   0  0  0  0  0  0  0  0  0  0  0  0
    2.1683    5.3227    4.4015 C   0  0  0  0  0  0  0  0  0  0  0  0
    1.4487    4.8241    5.0457 H   0  0  0  0  0  0  0  0  0  0  0  0
    2.7362    4.5663    3.8612 H   0  0  0  0  0  0  0  0  0  0  0  0
    1.6149    5.9118    3.6705 H   0  0  0  0  0  0  0  0  0  0  0  0
    3.1743    7.7035    8.6886 C   0  0  0  0  0  0  0  0  0  0  0  0
    3.8377    8.4602    9.0989 H   0  0  0  0  0  0  0  0  0  0  0  0
    3.2150    6.8247    9.3321 H   0  0  0  0  0  0  0  0  0  0  0  0
    2.1540    8.0820    8.7077 H   0  0  0  0  0  0  0  0  0  0  0  0
    6.5050    7.8104    4.9336 C   0  0  0  0  0  0  0  0  0  0  0  0
    6.3960    8.3303    3.9827 H   0  0  0  0  0  0  0  0  0  0  0  0
    7.1211    6.9199    4.7468 H   0  0  0  0  0  0  0  0  0  0  0  0
    7.0283    8.4570    5.6325 H   0  0  0  0  0  0  0  0  0  0  0  0
    7.0045    1.6986    5.1878 C   0  0  0  0  0  0  0  0  0  0  0  0
    6.6079    0.7693    4.7713 H   0  0  0  0  0  0  0  0  0  0  0  0
    6.9748    1.6000    6.2755 H   0  0  0  0  0  0  0  0  0  0  0  0
    6.0921    2.8403    4.7880 C   0  0  0  0  0  3  0  0  0  0  0  0
    5.2574    2.5465    4.1556 H   0  0  0  0  0  0  0  0  0  0  0  0
    5.9037    3.9715    5.5789 C   0  0  1  0  0  0  0  0  0  0  0  0
    4.9251    4.4402    5.5418 H   0  0  0  0  0  0  0  0  0  0  0  0
    6.6320    4.2631    6.8706 C   0  0  0  0  0  0  0  0  0  0  0  0
    6.2218    3.6289    7.6650 H   0  0  0  0  0  0  0  0  0  0  0  0
    6.4175    5.2993    7.1449 H   0  0  0  0  0  0  0  0  0  0  0  0
    8.1563    4.0683    6.7745 C   0  0  0  0  0  0  0  0  0  0  0  0
    8.6456    4.7533    7.4700 H   0  0  0  0  0  0  0  0  0  0  0  0
    8.4260    3.0539    7.0746 H   0  0  0  0  0  0  0  0  0  0  0  0
    8.6786    4.3219    5.3789 C   0  0  0  0  0  3  0  0  0  0  0  0
    9.2851    5.2207    5.2656 H   0  0  0  0  0  0  0  0  0  0  0  0
    8.8224    3.3191    4.4408 C   0  0  0  0  0  3  0  0  0  0  0  0
    9.5617    3.4548    3.6516 H   0  0  0  0  0  0  0  0  0  0  0  0
    8.4593    1.8780    4.7121 C   0  0  0  0  0  0  0  0  0  0  0  0
    9.1504    1.4735    5.4609 H   0  0  0  0  0  0  0  0  0  0  0  0
    8.6100    1.3053    3.7963 H   0  0  0  0  0  0  0  0  0  0  0  0
  1 53  1  0  0  0  0
  4  8  1  0  0  0  0
  5 14  1  0  0  0  0
  6 23  1  0  0  0  0
  7 28  1  0  0  0  0
  8  3  1  0  0  0  0
  9  8  2  0  0  0  0
  9 10  1  0  0  0  0
 11  9  1  0  0  0  0
 12 11  1  0  0  0  0
 13 14  1  0  0  0  0
 13 11  2  0  0  0  0
 14  4  2  0  0  0  0
 15 13  1  0  0  0  0
 16 15  1  0  0  0  0
 17 19  1  0  0  0  0
 17 15  2  0  0  0  0
 18 17  1  0  0  0  0
 19  5  2  0  0  0  0
 20 19  1  0  0  0  0
 20  6  1  0  0  0  0
 21 20  1  0  0  0  0
 22 20  1  0  0  0  0
 23  7  1  0  0  0  0
 23  1  1  6  0  0  0
 24  6  1  0  0  0  0
 24 26  2  0  0  0  0
 25 24  1  0  0  0  0
 26 27  1  0  0  0  0
 26  7  1  0  0  0  0
 28 29  2  0  0  0  0
 28 35  1  0  0  0  0
 29 30  1  0  0  0  0
 30 31  1  0  0  0  0
 30 32  2  0  0  0  0
 32 40  1  0  0  0  0
 33 32  1  0  0  0  0
 33 34  1  0  0  0  0
 35 33  2  0  0  0  0
 36 37  1  0  0  0  0
 36 29  1  0  0  0  0
 38 36  1  0  0  0  0
 39 36  1  0  0  0  0
 40 43  1  0  0  0  0
 40 41  1  0  0  0  0
 40 42  1  0  0  0  0
 44 35  1  0  0  0  0
 44 47  1  0  0  0  0
 45 44  1  0  0  0  0
 46 44  1  0  0  0  0
 48 50  1  0  0  0  0
 49 48  1  0  0  0  0
 51 48  1  0  0  0  0
 51 53  1  0  0  0  0
 52 51  1  0  0  0  0
 53 54  1  6  0  0  0
 53 55  1  0  0  0  0
 55 57  1  0  0  0  0
 55 56  1  0  0  0  0
 58 55  1  0  0  0  0
 58 60  1  0  0  0  0
 58 59  1  0  0  0  0
 61 58  1  0  0  0  0
 62 61  1  0  0  0  0
 63 65  1  0  0  0  0
 63 61  1  0  0  0  0
 64 63  1  0  0  0  0
 65 48  1  0  0  0  0
 65 66  1  0  0  0  0
 67 65  1  0  0  0  0
M  END
$$$$
