CSD_code = GAYZEO | q = 0 | S = 0 | Stoichiometry = C26H22ClIrN2O3S | MND = 6
 OpenBabel04212202043D

 56 61  0  0  0  0  0  0  0  0999 V2000
   -3.9922    6.1270    4.3102 C   0  0  0  0  0  0  0  0  0  0  0  0
   -4.1118    5.5326    3.3818 H   0  0  0  0  0  0  0  0  0  0  0  0
   -3.0753    5.5279    5.2827 C   0  0  0  0  0  0  0  0  0  0  0  0
   -5.7552    3.2800   12.5936 H   0  0  0  0  0  0  0  0  0  0  0  0
   -2.8087    6.2026    6.4763 C   0  0  0  0  0  0  0  0  0  0  0  0
   -3.3027    7.1532    6.6206 H   0  0  0  0  0  0  0  0  0  0  0  0
   -1.9479    5.6747    7.4246 C   0  0  0  0  0  0  0  0  0  0  0  0
   -1.3464    4.4251    7.1521 C   0  0  0  0  0  0  0  0  0  0  0  0
   -1.6096    3.7510    5.9581 C   0  0  0  0  0  0  0  0  0  0  0  0
   -1.1413    2.8005    5.7529 H   0  0  0  0  0  0  0  0  0  0  0  0
   -2.4666    4.2974    5.0286 C   0  0  0  0  0  0  0  0  0  0  0  0
   -2.6710    3.7796    4.1028 H   0  0  0  0  0  0  0  0  0  0  0  0
    0.4226    4.4139   10.2861 C   0  0  0  0  0  3  0  0  0  0  0  0
    0.4741    5.0931   11.1274 H   0  0  0  0  0  0  0  0  0  0  0  0
    1.1641    3.2460   10.2925 C   0  0  0  0  0  0  0  0  0  0  0  0
    1.7884    3.0152   11.1401 H   0  0  0  0  0  0  0  0  0  0  0  0
    1.0888    2.3977    9.1984 C   0  0  0  0  0  0  0  0  0  0  0  0
    1.6577    1.4811    9.1677 H   0  0  0  0  0  0  0  0  0  0  0  0
    0.2694    2.7523    8.1438 C   0  0  0  0  0  0  0  0  0  0  0  0
    0.1918    2.1162    7.2776 H   0  0  0  0  0  0  0  0  0  0  0  0
   -0.4545    3.9407    8.1975 C   0  0  0  0  0  0  0  0  0  0  0  0
   -4.7802    3.3165   12.0652 C   0  0  0  0  0  0  0  0  0  0  0  0
   -4.5201    4.5943   11.3964 C   0  0  0  0  0  0  0  0  0  0  0  0
   -3.3261    4.7773   10.6962 C   0  0  0  0  0  0  0  0  0  0  0  0
   -2.6338    3.9479   10.6736 H   0  0  0  0  0  0  0  0  0  0  0  0
   -3.0350    5.9708   10.0566 C   0  0  0  0  0  0  0  0  0  0  0  0
   -3.9973    7.0023   10.1279 C   0  0  0  0  0  0  0  0  0  0  0  0
   -5.1949    6.8258   10.8254 C   0  0  0  0  0  0  0  0  0  0  0  0
   -5.9197    7.6242   10.8813 H   0  0  0  0  0  0  0  0  0  0  0  0
   -5.4546    5.6306   11.4575 C   0  0  0  0  0  0  0  0  0  0  0  0
   -6.3775    5.4894   12.0014 H   0  0  0  0  0  0  0  0  0  0  0  0
   -1.9411    9.2889    8.2526 C   0  0  0  0  0  3  0  0  0  0  0  0
   -0.9392    9.2110    7.8509 H   0  0  0  0  0  0  0  0  0  0  0  0
   -2.7056   10.4264    8.0745 C   0  0  0  0  0  0  0  0  0  0  0  0
   -2.3064   11.2643    7.5268 H   0  0  0  0  0  0  0  0  0  0  0  0
   -3.9894   10.4552    8.6017 C   0  0  0  0  0  0  0  0  0  0  0  0
   -4.6194   11.3220    8.4734 H   0  0  0  0  0  0  0  0  0  0  0  0
   -4.4522    9.3488    9.2884 C   0  0  0  0  0  0  0  0  0  0  0  0
   -5.4494    9.3416    9.6970 H   0  0  0  0  0  0  0  0  0  0  0  0
   -3.6310    8.2327    9.4389 C   0  0  0  0  0  0  0  0  0  0  0  0
   -1.7720    8.4393   12.2877 C   0  0  0  0  0  0  0  0  0  0  0  0
   -2.4690    7.6667   12.5954 H   0  0  0  0  0  0  0  0  0  0  0  0
   -2.2877    9.2028   11.7171 H   0  0  0  0  0  0  0  0  0  0  0  0
   -1.2859    8.8640   13.1579 H   0  0  0  0  0  0  0  0  0  0  0  0
    0.5011    9.1550   10.9632 C   0  0  0  0  0  0  0  0  0  0  0  0
    0.9692    9.4332   11.8997 H   0  0  0  0  0  0  0  0  0  0  0  0
   -0.1483    9.9382   10.5899 H   0  0  0  0  0  0  0  0  0  0  0  0
    1.2494    8.9088   10.2157 H   0  0  0  0  0  0  0  0  0  0  0  0
    0.7272    7.3881    8.2079 Cl  0  0  0  0  0  0  0  0  0  0  0  0
   -1.3265    6.5220    9.1473 Ir  0  0  0  0  0  0  0  0  0  0  0  0
   -0.3651    4.7614    9.2724 N   0  0  0  0  0  0  0  0  0  0  0  0
   -2.3811    8.2239    8.9183 N   0  0  0  0  0  0  0  0  0  0  0  0
   -4.5887    7.1649    4.4580 O   0  0  0  0  0  0  0  0  0  0  0  0
   -4.0375    2.3671   12.0742 O   0  0  0  0  0  0  0  0  0  0  0  0
    0.2869    6.8254   12.1675 O   0  0  0  0  0  1  0  0  0  0  0  0
   -0.4854    7.6468   11.2368 S   0  0  0  0  0  0  0  0  0  0  0  0
  1 53  2  0  0  0  0
  1  3  1  0  0  0  0
  2  1  1  0  0  0  0
  3  5  1  0  0  0  0
  5  6  1  0  0  0  0
  5  7  2  0  0  0  0
  7 50  1  0  0  0  0
  8  7  1  0  0  0  0
  8 21  1  0  0  0  0
  9  8  2  0  0  0  0
 10  9  1  0  0  0  0
 11  3  2  0  0  0  0
 11  9  1  0  0  0  0
 12 11  1  0  0  0  0
 13 15  1  0  0  0  0
 13 14  1  0  0  0  0
 15 16  1  0  0  0  0
 17 15  2  0  0  0  0
 18 17  1  0  0  0  0
 19 21  2  0  0  0  0
 19 17  1  0  0  0  0
 20 19  1  0  0  0  0
 21 51  1  0  0  0  0
 22 54  2  0  0  0  0
 22  4  1  0  0  0  0
 23 30  1  0  0  0  0
 23 22  1  0  0  0  0
 24 23  2  0  0  0  0
 25 24  1  0  0  0  0
 26 27  2  0  0  0  0
 26 24  1  0  0  0  0
 27 28  1  0  0  0  0
 28 29  1  0  0  0  0
 28 30  2  0  0  0  0
 30 31  1  0  0  0  0
 32 52  1  0  0  0  0
 33 32  1  0  0  0  0
 34 32  1  0  0  0  0
 34 36  2  0  0  0  0
 35 34  1  0  0  0  0
 36 38  1  0  0  0  0
 37 36  1  0  0  0  0
 38 40  2  0  0  0  0
 38 39  1  0  0  0  0
 40 27  1  0  0  0  0
 41 42  1  0  0  0  0
 41 44  1  0  0  0  0
 43 41  1  0  0  0  0
 45 56  1  0  0  0  0
 45 46  1  0  0  0  0
 47 45  1  0  0  0  0
 48 45  1  0  0  0  0
 49 50  1  0  0  0  0
 50 51  1  0  0  0  0
 50 26  1  0  0  0  0
 50 56  1  0  0  0  0
 51 13  1  0  0  0  0
 52 50  1  0  0  0  0
 52 40  1  0  0  0  0
 56 55  1  0  0  0  0
 56 41  1  0  0  0  0
M  END
$$$$
