CSD_code = GAZTIM | q = 1 | S = 0 | Stoichiometry = C12H19ClN3Pt(1+) | MND = 4
 OpenBabel04212202043D

 36 38  0  0  0  0  0  0  0  0999 V2000
    2.1150    0.4096   10.8000 C   0  0  0  0  0  0  0  0  0  0  0  0
    1.3981    1.2142   10.7017 H   0  0  0  0  0  0  0  0  0  0  0  0
    1.8999   -0.8171   10.1933 C   0  0  0  0  0  0  0  0  0  0  0  0
    1.0074   -0.9792    9.6118 H   0  0  0  0  0  0  0  0  0  0  0  0
    2.8488   -1.8164   10.3498 C   0  0  0  0  0  0  0  0  0  0  0  0
    2.7149   -2.7822    9.8889 H   0  0  0  0  0  0  0  0  0  0  0  0
    3.9767   -1.5562   11.1098 C   0  0  0  0  0  0  0  0  0  0  0  0
    4.7241   -2.3218   11.2345 H   0  0  0  0  0  0  0  0  0  0  0  0
    4.1359   -0.3038   11.7001 C   0  0  0  0  0  0  0  0  0  0  0  0
    5.2946    0.1140   12.4871 C   0  0  0  0  0  0  0  0  0  0  0  0
    6.4231   -0.8150   12.7801 C   0  0  0  0  0  0  0  0  0  0  0  0
    6.7473   -0.7049   13.8134 H   0  0  0  0  0  0  0  0  0  0  0  0
    7.2752   -0.5890   12.1373 H   0  0  0  0  0  0  0  0  0  0  0  0
    6.1448   -1.8498   12.6195 H   0  0  0  0  0  0  0  0  0  0  0  0
    6.4123    1.9156   13.5657 C   0  0  0  0  0  0  0  0  0  0  0  0
    7.3368    1.5463   13.1094 H   0  0  0  0  0  0  0  0  0  0  0  0
    6.4029    1.5802   14.6108 H   0  0  0  0  0  0  0  0  0  0  0  0
    6.4658    3.4578   13.5364 C   0  0  0  0  0  0  0  0  0  0  0  0
    5.2871    4.0708   14.3189 C   0  0  0  0  0  0  0  0  0  0  0  0
    5.1578    3.5231   15.2563 H   0  0  0  0  0  0  0  0  0  0  0  0
    5.5388    5.1069   14.5683 H   0  0  0  0  0  0  0  0  0  0  0  0
    7.7605    3.8814   14.2392 C   0  0  0  0  0  0  0  0  0  0  0  0
    8.6244    3.4263   13.7630 H   0  0  0  0  0  0  0  0  0  0  0  0
    7.7514    3.5865   15.2854 H   0  0  0  0  0  0  0  0  0  0  0  0
    7.8834    4.9594   14.1899 H   0  0  0  0  0  0  0  0  0  0  0  0
    6.4872    3.9562   12.0883 C   0  0  0  0  0  0  0  0  0  0  0  0
    5.6248    3.5944   11.5167 H   0  0  0  0  0  0  0  0  0  0  0  0
    7.3863    3.6045   11.5894 H   0  0  0  0  0  0  0  0  0  0  0  0
    6.4952    5.0426   12.0615 H   0  0  0  0  0  0  0  0  0  0  0  0
    1.6647    3.3968   12.0270 Cl  0  0  0  0  0  0  0  0  0  0  0  0
    3.1977    0.6624   11.5288 N   0  0  0  0  0  0  0  0  0  0  0  0
    5.2785    1.3493   12.8804 N   0  0  0  0  0  0  0  0  0  0  0  0
    4.0200    4.0325   13.5733 N   0  0  0  0  0  4  0  0  0  0  0  0
    3.9928    4.7961   12.8900 H   0  0  0  0  0  0  0  0  0  0  0  0
    3.2318    4.1999   14.2069 H   0  0  0  0  0  0  0  0  0  0  0  0
    3.5895    2.3375   12.4921 Pt  0  0  1  0  0  0  0  0  0  0  0  0
  1 31  1  0  0  0  0
  2  1  1  0  0  0  0
  3  5  1  0  0  0  0
  3  1  2  0  0  0  0
  4  3  1  0  0  0  0
  5  7  2  0  0  0  0
  6  5  1  0  0  0  0
  7  8  1  0  0  0  0
  7  9  1  0  0  0  0
  9 10  2  0  0  0  0
 10 11  1  0  0  0  0
 10 32  1  0  0  0  0
 11 12  1  0  0  0  0
 13 11  1  0  0  0  0
 14 11  1  0  0  0  0
 15 17  1  0  0  0  0
 16 15  1  0  0  0  0
 18 15  1  0  0  0  0
 18 22  1  0  0  0  0
 18 19  1  0  0  0  0
 19 21  1  0  0  0  0
 19 20  1  0  0  0  0
 22 24  1  0  0  0  0
 23 22  1  0  0  0  0
 25 22  1  0  0  0  0
 26 18  1  0  0  0  0
 27 26  1  0  0  0  0
 28 26  1  0  0  0  0
 29 26  1  0  0  0  0
 31  9  1  0  0  0  0
 31 36  1  0  0  0  0
 32 15  1  0  0  0  0
 33 35  1  0  0  0  0
 33 19  1  0  0  0  0
 34 33  1  0  0  0  0
 36 30  1  6  0  0  0
 36 32  1  0  0  0  0
 36 33  1  0  0  0  0
M  END
$$$$
