CSD_code = GAZXAJ | q = -1 | S = 0 | Stoichiometry = C26H36Cl4N2Nb(1-) | MND = 6
 OpenBabel04212202043D

 69 71  0  0  0  0  0  0  0  0999 V2000
    1.5437    2.3101    8.7191 Nb  0  0  0  0  0  0  0  0  0  0  0  0
    0.8489    1.1876   10.8180 Cl  0  0  0  0  0  0  0  0  0  0  0  0
    2.5640    3.8257   10.1565 Cl  0  0  0  0  0  0  0  0  0  0  0  0
    2.9062    3.3890    6.9468 Cl  0  0  0  0  0  0  0  0  0  0  0  0
    3.0213    0.5294    8.5149 Cl  0  0  0  0  0  0  0  0  0  0  0  0
   -0.0554    3.5732    8.5208 N   0  0  0  0  0  0  0  0  0  0  0  0
    0.2651    1.3756    7.4202 N   0  0  0  0  0  0  0  0  0  0  0  0
   -1.0461    3.2297    7.6561 C   0  0  0  0  0  0  0  0  0  0  0  0
   -0.8701    2.0262    7.0526 C   0  0  0  0  0  0  0  0  0  0  0  0
   -0.3058    4.7786    9.2311 C   0  0  0  0  0  0  0  0  0  0  0  0
   -1.0821    4.7420   10.3983 C   0  0  0  0  0  0  0  0  0  0  0  0
   -1.3188    5.9259   11.0832 C   0  0  0  0  0  0  0  0  0  0  0  0
   -0.8111    7.1272   10.6296 C   0  0  0  0  0  0  0  0  0  0  0  0
   -0.0753    7.1585    9.4619 C   0  0  0  0  0  0  0  0  0  0  0  0
    0.1754    5.9992    8.7406 C   0  0  0  0  0  0  0  0  0  0  0  0
   -1.3030    3.2054   12.3683 C   0  0  0  0  0  0  0  0  0  0  0  0
   -3.1997    3.4629   10.7266 C   0  0  0  0  0  0  0  0  0  0  0  0
   -1.6792    3.4505   10.9071 C   0  0  0  0  0  0  0  0  0  0  0  0
    2.3617    6.5980    7.6964 C   0  0  0  0  0  0  0  0  0  0  0  0
    0.2093    6.9468    6.4245 C   0  0  0  0  0  0  0  0  0  0  0  0
    0.9467    6.0761    7.4452 C   0  0  0  0  0  0  0  0  0  0  0  0
    0.3885    0.0774    6.8541 C   0  0  0  0  0  0  0  0  0  0  0  0
    1.0414   -0.0964    5.6271 C   0  0  0  0  0  0  0  0  0  0  0  0
    1.1498   -1.3757    5.0990 C   0  0  0  0  0  0  0  0  0  0  0  0
    0.6041   -2.4646    5.7489 C   0  0  0  0  0  0  0  0  0  0  0  0
   -0.0705   -2.2795    6.9393 C   0  0  0  0  0  0  0  0  0  0  0  0
   -0.1942   -1.0183    7.5059 C   0  0  0  0  0  0  0  0  0  0  0  0
   -0.3881   -1.7497    9.8920 C   0  0  0  0  0  0  0  0  0  0  0  0
   -2.4493   -1.1314    8.5735 C   0  0  0  0  0  0  0  0  0  0  0  0
   -0.9611   -0.8505    8.7965 C   0  0  0  0  0  0  0  0  0  0  0  0
    3.1398    0.9156    4.7401 C   0  0  0  0  0  0  0  0  0  0  0  0
    0.9599    1.2310    3.5053 C   0  0  0  0  0  0  0  0  0  0  0  0
    1.6250    1.0751    4.8750 C   0  0  0  0  0  0  0  0  0  0  0  0
   -1.8929    3.8865    7.4957 H   0  0  0  0  0  0  0  0  0  0  0  0
   -1.5561    1.5825    6.3406 H   0  0  0  0  0  0  0  0  0  0  0  0
   -1.9122    5.9083   11.9856 H   0  0  0  0  0  0  0  0  0  0  0  0
   -0.9970    8.0392   11.1808 H   0  0  0  0  0  0  0  0  0  0  0  0
    0.3072    8.1018    9.1002 H   0  0  0  0  0  0  0  0  0  0  0  0
   -1.7576    3.9401   13.0304 H   0  0  0  0  0  0  0  0  0  0  0  0
   -0.2227    3.2506   12.4765 H   0  0  0  0  0  0  0  0  0  0  0  0
   -1.6295    2.2132   12.6702 H   0  0  0  0  0  0  0  0  0  0  0  0
   -3.4573    3.5846    9.6762 H   0  0  0  0  0  0  0  0  0  0  0  0
   -3.6502    4.2798   11.2881 H   0  0  0  0  0  0  0  0  0  0  0  0
   -3.6238    2.5248   11.0787 H   0  0  0  0  0  0  0  0  0  0  0  0
   -1.2733    2.6193   10.3230 H   0  0  0  0  0  0  0  0  0  0  0  0
    2.8527    5.9677    8.4342 H   0  0  0  0  0  0  0  0  0  0  0  0
    2.3487    7.6230    8.0633 H   0  0  0  0  0  0  0  0  0  0  0  0
    2.9394    6.5572    6.7762 H   0  0  0  0  0  0  0  0  0  0  0  0
    0.1306    7.9766    6.7682 H   0  0  0  0  0  0  0  0  0  0  0  0
   -0.7955    6.5640    6.2538 H   0  0  0  0  0  0  0  0  0  0  0  0
    0.7467    6.9396    5.4787 H   0  0  0  0  0  0  0  0  0  0  0  0
    1.0361    5.0698    7.0257 H   0  0  0  0  0  0  0  0  0  0  0  0
    1.6662   -1.5207    4.1613 H   0  0  0  0  0  0  0  0  0  0  0  0
    0.6978   -3.4553    5.3248 H   0  0  0  0  0  0  0  0  0  0  0  0
   -0.5116   -3.1309    7.4368 H   0  0  0  0  0  0  0  0  0  0  0  0
    0.6766   -1.5572    9.9971 H   0  0  0  0  0  0  0  0  0  0  0  0
   -0.5368   -2.8041    9.6659 H   0  0  0  0  0  0  0  0  0  0  0  0
   -0.8660   -1.5231   10.8420 H   0  0  0  0  0  0  0  0  0  0  0  0
   -2.9973   -0.9893    9.5027 H   0  0  0  0  0  0  0  0  0  0  0  0
   -2.6060   -2.1532    8.2318 H   0  0  0  0  0  0  0  0  0  0  0  0
   -2.8560   -0.4527    7.8261 H   0  0  0  0  0  0  0  0  0  0  0  0
   -0.8582    0.1840    9.1372 H   0  0  0  0  0  0  0  0  0  0  0  0
    3.3963    0.0540    4.1258 H   0  0  0  0  0  0  0  0  0  0  0  0
    3.5775    0.7855    5.7273 H   0  0  0  0  0  0  0  0  0  0  0  0
    3.5677    1.8102    4.2945 H   0  0  0  0  0  0  0  0  0  0  0  0
   -0.1168    1.3474    3.6170 H   0  0  0  0  0  0  0  0  0  0  0  0
    1.1478    0.3642    2.8743 H   0  0  0  0  0  0  0  0  0  0  0  0
    1.3521    2.1133    3.0040 H   0  0  0  0  0  0  0  0  0  0  0  0
    1.4400    1.9903    5.4449 H   0  0  0  0  0  0  0  0  0  0  0  0
  1  3  1  0  0  0  0
  1  2  1  0  0  0  0
  4  1  1  0  0  0  0
  5  1  1  0  0  0  0
  6  1  1  0  0  0  0
  6 10  1  0  0  0  0
  7  1  1  0  0  0  0
  8  6  1  0  0  0  0
  9  7  1  0  0  0  0
  9  8  2  0  0  0  0
 10 11  1  0  0  0  0
 11 18  1  0  0  0  0
 11 12  2  0  0  0  0
 12 36  1  0  0  0  0
 13 12  1  0  0  0  0
 13 37  1  0  0  0  0
 14 13  2  0  0  0  0
 15 10  2  0  0  0  0
 15 14  1  0  0  0  0
 16 40  1  0  0  0  0
 16 41  1  0  0  0  0
 16 39  1  0  0  0  0
 17 18  1  0  0  0  0
 17 44  1  0  0  0  0
 17 43  1  0  0  0  0
 18 16  1  0  0  0  0
 19 47  1  0  0  0  0
 19 46  1  0  0  0  0
 20 49  1  0  0  0  0
 20 21  1  0  0  0  0
 21 19  1  0  0  0  0
 21 15  1  0  0  0  0
 22  7  1  0  0  0  0
 22 27  1  0  0  0  0
 23 22  2  0  0  0  0
 24 23  1  0  0  0  0
 24 25  2  0  0  0  0
 25 26  1  0  0  0  0
 26 55  1  0  0  0  0
 26 27  2  0  0  0  0
 27 30  1  0  0  0  0
 28 56  1  0  0  0  0
 28 58  1  0  0  0  0
 29 30  1  0  0  0  0
 29 59  1  0  0  0  0
 30 62  1  0  0  0  0
 30 28  1  0  0  0  0
 31 33  1  0  0  0  0
 31 64  1  0  0  0  0
 32 66  1  0  0  0  0
 32 33  1  0  0  0  0
 33 69  1  0  0  0  0
 33 23  1  0  0  0  0
 34  8  1  0  0  0  0
 35  9  1  0  0  0  0
 38 14  1  0  0  0  0
 42 17  1  0  0  0  0
 45 18  1  0  0  0  0
 48 19  1  0  0  0  0
 50 20  1  0  0  0  0
 51 20  1  0  0  0  0
 52 21  1  0  0  0  0
 53 24  1  0  0  0  0
 54 25  1  0  0  0  0
 57 28  1  0  0  0  0
 60 29  1  0  0  0  0
 61 29  1  0  0  0  0
 63 31  1  0  0  0  0
 65 31  1  0  0  0  0
 67 32  1  0  0  0  0
 68 32  1  0  0  0  0
M  END
$$$$
