CSD_code = GECGOK | q = 0 | S = 0 | Stoichiometry = C10H24Cl2N2Pt | MND = 4
 OpenBabel04212202043D

 39 39  0  0  0  0  0  0  0  0999 V2000
    9.6180    0.5202    6.9170 Pt  0  0  0  0  0  0  0  0  0  0  0  0
    7.5867    0.6980    5.9575 Cl  0  0  0  0  0  0  0  0  0  0  0  0
    9.5506   -1.6818    6.4308 Cl  0  0  0  0  0  0  0  0  0  0  0  0
    9.6854    2.6592    7.2123 N   0  0  0  0  0  4  0  0  0  0  0  0
   11.6993    0.5852    7.6871 N   0  0  0  0  0  4  0  0  0  0  0  0
   11.1262    2.9146    7.1361 C   0  0  0  0  0  0  0  0  0  0  0  0
   11.8988    1.9864    8.0738 C   0  0  0  0  0  0  0  0  0  0  0  0
    8.8874    3.2652    8.3195 C   0  0  0  0  0  0  0  0  0  0  0  0
    9.5247    4.5342    8.8954 C   0  0  0  0  0  0  0  0  0  0  0  0
    7.5235    3.6292    7.7267 C   0  0  0  0  0  0  0  0  0  0  0  0
    8.6836    2.2336    9.4319 C   0  0  0  0  0  0  0  0  0  0  0  0
   12.2002   -0.4249    8.6607 C   0  0  0  0  0  0  0  0  0  0  0  0
   11.0831   -0.7270    9.6580 C   0  0  0  0  0  0  0  0  0  0  0  0
   12.5565   -1.6868    7.8751 C   0  0  0  0  0  0  0  0  0  0  0  0
   13.4591    0.0492    9.4006 C   0  0  0  0  0  0  0  0  0  0  0  0
    9.2536    2.9797    6.3452 H   0  0  0  0  0  0  0  0  0  0  0  0
   12.1966    0.4237    6.8087 H   0  0  0  0  0  0  0  0  0  0  0  0
   11.4443    2.7118    6.1066 H   0  0  0  0  0  0  0  0  0  0  0  0
   11.3821    3.9560    7.3603 H   0  0  0  0  0  0  0  0  0  0  0  0
   11.5321    2.1174    9.0920 H   0  0  0  0  0  0  0  0  0  0  0  0
   12.9596    2.2682    8.0484 H   0  0  0  0  0  0  0  0  0  0  0  0
   10.4657    4.3317    9.4015 H   0  0  0  0  0  0  0  0  0  0  0  0
    8.8424    4.9596    9.6265 H   0  0  0  0  0  0  0  0  0  0  0  0
    9.6878    5.2814    8.1210 H   0  0  0  0  0  0  0  0  0  0  0  0
    7.6248    4.4108    6.9754 H   0  0  0  0  0  0  0  0  0  0  0  0
    6.8552    3.9913    8.5027 H   0  0  0  0  0  0  0  0  0  0  0  0
    7.0762    2.7524    7.2632 H   0  0  0  0  0  0  0  0  0  0  0  0
    9.5869    2.0867   10.0172 H   0  0  0  0  0  0  0  0  0  0  0  0
    8.3788    1.2792    8.9920 H   0  0  0  0  0  0  0  0  0  0  0  0
    7.8982    2.5625   10.1066 H   0  0  0  0  0  0  0  0  0  0  0  0
   10.8915    0.1221   10.3090 H   0  0  0  0  0  0  0  0  0  0  0  0
   11.3514   -1.5765   10.2786 H   0  0  0  0  0  0  0  0  0  0  0  0
   10.1718   -0.9736    9.1100 H   0  0  0  0  0  0  0  0  0  0  0  0
   11.6972   -2.0223    7.2987 H   0  0  0  0  0  0  0  0  0  0  0  0
   12.8468   -2.4820    8.5553 H   0  0  0  0  0  0  0  0  0  0  0  0
   13.3890   -1.4973    7.1990 H   0  0  0  0  0  0  0  0  0  0  0  0
   13.2601    0.8820   10.0702 H   0  0  0  0  0  0  0  0  0  0  0  0
   14.2415    0.3364    8.7004 H   0  0  0  0  0  0  0  0  0  0  0  0
   13.8375   -0.7732   10.0015 H   0  0  0  0  0  0  0  0  0  0  0  0
  1  4  1  0  0  0  0
  1  5  1  0  0  0  0
  2  1  1  0  0  0  0
  3  1  1  0  0  0  0
  4  8  1  0  0  0  0
  5  7  1  0  0  0  0
  5 12  1  0  0  0  0
  6  4  1  0  0  0  0
  6 19  1  0  0  0  0
  6  7  1  0  0  0  0
  7 20  1  0  0  0  0
  8  9  1  0  0  0  0
  8 11  1  0  0  0  0
  9 22  1  0  0  0  0
  9 23  1  0  0  0  0
 10  8  1  0  0  0  0
 10 26  1  0  0  0  0
 11 28  1  0  0  0  0
 11 30  1  0  0  0  0
 12 15  1  0  0  0  0
 12 13  1  0  0  0  0
 13 32  1  0  0  0  0
 13 31  1  0  0  0  0
 14 35  1  0  0  0  0
 14 12  1  0  0  0  0
 15 39  1  0  0  0  0
 15 37  1  0  0  0  0
 16  4  1  0  0  0  0
 17  5  1  0  0  0  0
 18  6  1  0  0  0  0
 21  7  1  0  0  0  0
 24  9  1  0  0  0  0
 25 10  1  0  0  0  0
 27 10  1  0  0  0  0
 29 11  1  0  0  0  0
 33 13  1  0  0  0  0
 34 14  1  0  0  0  0
 36 14  1  0  0  0  0
 38 15  1  0  0  0  0
M  END
$$$$
