CSD_code = GECGUQ | q = 0 | S = 0 | Stoichiometry = C18H24Cl2N2Pt | MND = 4
 OpenBabel04212202043D

 47 49  0  0  1  0  0  0  0  0999 V2000
   -2.1212    1.6223    4.7462 Pt  0  0  0  0  0  0  0  0  0  0  0  0
   -4.2929    1.0542    4.9110 Cl  0  0  0  0  0  0  0  0  0  0  0  0
   -1.9505    2.0069    6.9587 Cl  0  0  0  0  0  0  0  0  0  0  0  0
   -2.1469    1.1238    2.6840 N   0  0  0  0  0  4  0  0  0  0  0  0
   -0.0589    2.0360    4.3860 N   0  0  0  0  0  4  0  0  0  0  0  0
   -0.7517    1.0879    2.2181 C   0  0  0  0  0  0  0  0  0  0  0  0
    0.1087    2.1383    2.9312 C   0  0  0  0  0  0  0  0  0  0  0  0
   -3.1110    1.8937    1.8597 C   0  0  1  0  0  0  0  0  0  0  0  0
   -2.8416    3.3895    1.9395 C   0  0  0  0  0  0  0  0  0  0  0  0
    0.5462    3.1520    5.1531 C   0  0  2  0  0  0  0  0  0  0  0  0
   -0.2580    4.4319    4.9620 C   0  0  0  0  0  0  0  0  0  0  0  0
   -3.1709    1.3125    0.4639 C   0  0  0  0  0  0  0  0  0  0  0  0
   -2.5321    1.8774   -0.6321 C   0  0  0  0  0  0  0  0  0  0  0  0
   -2.5839    1.2603   -1.8716 C   0  0  0  0  0  0  0  0  0  0  0  0
   -3.2714    0.0710   -2.0317 C   0  0  0  0  0  0  0  0  0  0  0  0
   -3.9162   -0.4991   -0.9461 C   0  0  0  0  0  0  0  0  0  0  0  0
   -3.8637    0.1170    0.2897 C   0  0  0  0  0  0  0  0  0  0  0  0
    2.0234    3.2523    4.8392 C   0  0  0  0  0  0  0  0  0  0  0  0
    2.8679    2.2695    5.3494 C   0  0  0  0  0  0  0  0  0  0  0  0
    4.2206    2.2773    5.0658 C   0  0  0  0  0  0  0  0  0  0  0  0
    4.7538    3.2738    4.2650 C   0  0  0  0  0  0  0  0  0  0  0  0
    3.9252    4.2586    3.7576 C   0  0  0  0  0  0  0  0  0  0  0  0
    2.5691    4.2472    4.0392 C   0  0  0  0  0  0  0  0  0  0  0  0
   -2.5138    0.1716    2.7111 H   0  0  0  0  0  0  0  0  0  0  0  0
    0.3933    1.1756    4.7034 H   0  0  0  0  0  0  0  0  0  0  0  0
   -4.0799    1.7162    2.3455 H   0  0  0  0  0  0  0  0  0  0  0  0
   -1.9089    3.6770    1.4623 H   0  0  0  0  0  0  0  0  0  0  0  0
   -2.8154    3.6766    2.9929 H   0  0  0  0  0  0  0  0  0  0  0  0
   -3.6537    3.9274    1.4575 H   0  0  0  0  0  0  0  0  0  0  0  0
    0.4314    2.8647    6.2062 H   0  0  0  0  0  0  0  0  0  0  0  0
   -0.2371    4.8046    3.9417 H   0  0  0  0  0  0  0  0  0  0  0  0
    0.1295    5.2038    5.6207 H   0  0  0  0  0  0  0  0  0  0  0  0
   -1.2924    4.2267    5.2456 H   0  0  0  0  0  0  0  0  0  0  0  0
   -1.9984    2.8107   -0.5356 H   0  0  0  0  0  0  0  0  0  0  0  0
   -2.0835    1.7134   -2.7147 H   0  0  0  0  0  0  0  0  0  0  0  0
   -3.3101   -0.4073   -2.9988 H   0  0  0  0  0  0  0  0  0  0  0  0
   -4.4632   -1.4225   -1.0641 H   0  0  0  0  0  0  0  0  0  0  0  0
   -4.3780   -0.3241    1.1325 H   0  0  0  0  0  0  0  0  0  0  0  0
    2.4601    1.4976    5.9879 H   0  0  0  0  0  0  0  0  0  0  0  0
    4.8601    1.5089    5.4743 H   0  0  0  0  0  0  0  0  0  0  0  0
    5.8103    3.2847    4.0433 H   0  0  0  0  0  0  0  0  0  0  0  0
    4.3347    5.0425    3.1377 H   0  0  0  0  0  0  0  0  0  0  0  0
    1.9435    5.0282    3.6365 H   0  0  0  0  0  0  0  0  0  0  0  0
   -0.6968    1.2417    1.1341 H   0  0  0  0  0  0  0  0  0  0  0  0
   -0.3406    0.0967    2.4355 H   0  0  0  0  0  0  0  0  0  0  0  0
    1.1600    2.0047    2.6408 H   0  0  0  0  0  0  0  0  0  0  0  0
   -0.2017    3.1371    2.6291 H   0  0  0  0  0  0  0  0  0  0  0  0
  1  2  1  0  0  0  0
  1  3  1  0  0  0  0
  4 24  1  0  0  0  0
  4  1  1  0  0  0  0
  5 25  1  0  0  0  0
  5  1  1  0  0  0  0
  5 10  1  0  0  0  0
  6 45  1  0  0  0  0
  6  4  1  0  0  0  0
  6  7  1  0  0  0  0
  7  5  1  0  0  0  0
  8  9  1  0  0  0  0
  8 26  1  1  0  0  0
  8  4  1  0  0  0  0
  9 28  1  0  0  0  0
 10 30  1  1  0  0  0
 11 10  1  0  0  0  0
 11 33  1  0  0  0  0
 11 32  1  0  0  0  0
 12  8  1  0  0  0  0
 13 34  1  0  0  0  0
 13 12  2  0  0  0  0
 14 13  1  0  0  0  0
 15 14  2  0  0  0  0
 15 16  1  0  0  0  0
 16 17  2  0  0  0  0
 17 12  1  0  0  0  0
 17 38  1  0  0  0  0
 18 10  1  0  0  0  0
 18 19  1  0  0  0  0
 19 39  1  0  0  0  0
 20 19  2  0  0  0  0
 20 40  1  0  0  0  0
 21 20  1  0  0  0  0
 22 23  1  0  0  0  0
 22 21  2  0  0  0  0
 23 18  2  0  0  0  0
 27  9  1  0  0  0  0
 29  9  1  0  0  0  0
 31 11  1  0  0  0  0
 35 14  1  0  0  0  0
 36 15  1  0  0  0  0
 37 16  1  0  0  0  0
 41 21  1  0  0  0  0
 42 22  1  0  0  0  0
 43 23  1  0  0  0  0
 44  6  1  0  0  0  0
 46  7  1  0  0  0  0
 47  7  1  0  0  0  0
M  END
$$$$
