CSD_code = GECHEB | q = 0 | S = 0 | Stoichiometry = C20H28Cl2N2Pt | MND = 6
 OpenBabel04212202043D

 53 51  0  0  1  0  0  0  0  0999 V2000
    0.0007    0.0582    0.0002 Pt  0  0  0  0  0  0  0  0  0  0  0  0
   -2.2925   -0.0467    0.4227 Cl  0  0  0  0  0 15  0  0  0  0  0  0
   -0.3449   -1.8139   -1.3820 N   0  0  0  0  0  0  0  0  0  0  0  0
    0.1962   -3.0048   -0.7364 C   0  0  0  0  0  0  0  0  0  0  0  0
    0.0559   -1.6949   -2.7887 C   0  0  2  0  0  0  0  0  0  0  0  0
   -0.5519   -0.4275   -3.3832 C   0  0  0  0  0  0  0  0  0  0  0  0
   -0.3524   -2.9043   -3.6022 C   0  0  0  0  0  0  0  0  0  0  0  0
    0.5890   -3.5970   -4.3515 C   0  0  0  0  0  0  0  0  0  0  0  0
    0.2207   -4.6979   -5.1049 C   0  0  0  0  0  0  0  0  0  0  0  0
   -1.0961   -5.1238   -5.1127 C   0  0  0  0  0  0  0  0  0  0  0  0
   -2.0423   -4.4407   -4.3677 C   0  0  0  0  0  0  0  0  0  0  0  0
   -1.6734   -3.3377   -3.6193 C   0  0  0  0  0  0  0  0  0  0  0  0
   -0.1277    2.0413   -0.6941 C   0  0  0  0  0  3  0  0  0  0  0  0
   -1.3661   -1.8552   -1.3384 H   0  0  0  0  0  0  0  0  0  0  0  0
   -0.1623   -3.9273   -1.2145 H   0  0  0  0  0  0  0  0  0  0  0  0
    1.2872   -2.9712   -0.8283 H   0  0  0  0  0  0  0  0  0  0  0  0
    1.1484   -1.6043   -2.8016 H   0  0  0  0  0  0  0  0  0  0  0  0
   -0.2253   -0.3034   -4.4123 H   0  0  0  0  0  0  0  0  0  0  0  0
   -0.2285    0.4350   -2.8031 H   0  0  0  0  0  0  0  0  0  0  0  0
   -1.6381   -0.4761   -3.3656 H   0  0  0  0  0  0  0  0  0  0  0  0
    1.6185   -3.2684   -4.3457 H   0  0  0  0  0  0  0  0  0  0  0  0
    0.9642   -5.2250   -5.6843 H   0  0  0  0  0  0  0  0  0  0  0  0
   -1.3849   -5.9845   -5.6972 H   0  0  0  0  0  0  0  0  0  0  0  0
   -3.0721   -4.7666   -4.3708 H   0  0  0  0  0  0  0  0  0  0  0  0
   -2.4260   -2.8115   -3.0482 H   0  0  0  0  0  0  0  0  0  0  0  0
   -1.1253    2.2878   -1.0469 H   0  0  0  0  0  0  0  0  0  0  0  0
    0.6818    2.2909   -1.3747 H   0  0  0  0  0  0  0  0  0  0  0  0
    2.2930   -0.0478   -0.4227 Cl  0  0  0  0  0 15  0  0  0  0  0  0
    0.3443   -1.8140    1.3822 N   0  0  0  0  0  0  0  0  0  0  0  0
    0.1284    2.0415    0.6937 C   0  0  0  0  0  0  0  0  0  0  0  0
   -0.1967   -3.0049    0.7365 C   0  0  0  0  0  0  0  0  0  0  0  0
   -0.0564   -1.6950    2.7889 C   0  0  2  0  0  0  0  0  0  0  0  0
    1.3654   -1.8551    1.3385 H   0  0  0  0  0  0  0  0  0  0  0  0
    1.1262    2.2874    1.0465 H   0  0  0  0  0  0  0  0  0  0  0  0
   -0.6809    2.2917    1.3742 H   0  0  0  0  0  0  0  0  0  0  0  0
    0.1620   -3.9274    1.2145 H   0  0  0  0  0  0  0  0  0  0  0  0
   -1.2877   -2.9715    0.8284 H   0  0  0  0  0  0  0  0  0  0  0  0
    0.5513   -0.4276    3.3834 C   0  0  0  0  0  0  0  0  0  0  0  0
    0.3522   -2.9044    3.6023 C   0  0  0  0  0  0  0  0  0  0  0  0
   -1.1489   -1.6046    2.8019 H   0  0  0  0  0  0  0  0  0  0  0  0
    0.2247   -0.3035    4.4124 H   0  0  0  0  0  0  0  0  0  0  0  0
    0.2278    0.4349    2.8032 H   0  0  0  0  0  0  0  0  0  0  0  0
    1.6376   -0.4760    3.3657 H   0  0  0  0  0  0  0  0  0  0  0  0
   -0.5890   -3.5973    4.3516 C   0  0  0  0  0  0  0  0  0  0  0  0
    1.6733   -3.3375    3.6192 C   0  0  0  0  0  0  0  0  0  0  0  0
   -0.2204   -4.6981    5.1050 C   0  0  0  0  0  0  0  0  0  0  0  0
   -1.6185   -3.2689    4.3458 H   0  0  0  0  0  0  0  0  0  0  0  0
    2.0426   -4.4404    4.3676 C   0  0  0  0  0  0  0  0  0  0  0  0
    2.4258   -2.8112    3.0480 H   0  0  0  0  0  0  0  0  0  0  0  0
    1.0965   -5.1238    5.1126 C   0  0  0  0  0  0  0  0  0  0  0  0
   -0.9637   -5.2254    5.6844 H   0  0  0  0  0  0  0  0  0  0  0  0
    3.0724   -4.7662    4.3707 H   0  0  0  0  0  0  0  0  0  0  0  0
    1.3855   -5.9844    5.6971 H   0  0  0  0  0  0  0  0  0  0  0  0
  1 30  1  0  0  0  0
  3 14  1  0  0  0  0
  3  4  1  0  0  0  0
  4 31  1  0  0  0  0
  5 17  1  6  0  0  0
  5  3  1  0  0  0  0
  6 20  1  0  0  0  0
  6 19  1  0  0  0  0
  6  5  1  0  0  0  0
  7  5  1  0  0  0  0
  8 21  1  0  0  0  0
  8  7  2  0  0  0  0
  9  8  1  0  0  0  0
 10  9  2  0  0  0  0
 10 11  1  0  0  0  0
 11 12  2  0  0  0  0
 12  7  1  0  0  0  0
 12 25  1  0  0  0  0
 13 30  1  0  0  0  0
 15  4  1  0  0  0  0
 16  4  1  0  0  0  0
 18  6  1  0  0  0  0
 22  9  1  0  0  0  0
 23 10  1  0  0  0  0
 24 11  1  0  0  0  0
 26 13  1  0  0  0  0
 27 13  1  0  0  0  0
 29 32  1  0  0  0  0
 30 34  1  0  0  0  0
 30 35  1  0  0  0  0
 31 37  1  0  0  0  0
 31 36  1  0  0  0  0
 31 29  1  0  0  0  0
 32 40  1  1  0  0  0
 32 38  1  0  0  0  0
 32 39  1  0  0  0  0
 33 29  1  0  0  0  0
 38 41  1  0  0  0  0
 39 45  2  0  0  0  0
 39 44  1  0  0  0  0
 42 38  1  0  0  0  0
 43 38  1  0  0  0  0
 44 46  2  0  0  0  0
 45 48  1  0  0  0  0
 46 50  1  0  0  0  0
 46 51  1  0  0  0  0
 47 44  1  0  0  0  0
 48 52  1  0  0  0  0
 48 50  2  0  0  0  0
 49 45  1  0  0  0  0
 50 53  1  0  0  0  0
M  END
$$$$
