CSD_code = GECVUI | q = 0 | S = 0 | Stoichiometry = C13H11Cl2N3OZn | MND = 5
 OpenBabel04212202043D

 31 34  0  0  1  0  0  0  0  0999 V2000
   -1.0750   10.2458    6.9114 C   0  0  0  0  0  0  0  0  0  0  0  0
   -1.0716   11.2092    5.9025 C   0  0  0  0  0  0  0  0  0  0  0  0
   -0.9484   10.8847    4.8810 H   0  0  0  0  0  0  0  0  0  0  0  0
   -1.2404   12.5439    6.2166 C   0  0  0  0  0  0  0  0  0  0  0  0
   -1.2466   13.2846    5.4320 H   0  0  0  0  0  0  0  0  0  0  0  0
   -1.3980   12.9295    7.5383 C   0  0  0  0  0  0  0  0  0  0  0  0
   -1.5271   13.9724    7.7858 H   0  0  0  0  0  0  0  0  0  0  0  0
   -1.3826   11.9785    8.5471 C   0  0  0  0  0  0  0  0  0  0  0  0
   -1.4912   12.2831    9.5772 H   0  0  0  0  0  0  0  0  0  0  0  0
   -1.2267   10.6394    8.2406 C   0  0  0  0  0  0  0  0  0  0  0  0
   -1.1868    9.9132    9.0397 H   0  0  0  0  0  0  0  0  0  0  0  0
   -0.9013    8.8406    6.5047 C   0  0  1  0  0  3  0  0  0  0  0  0
   -2.0487    5.6608    7.3932 C   0  0  0  0  0  0  0  0  0  0  0  0
   -2.6787    5.7306    8.2802 H   0  0  0  0  0  0  0  0  0  0  0  0
   -1.9753    4.4066    6.6672 C   0  0  0  0  0  0  0  0  0  0  0  0
   -2.5052    3.2186    7.1673 C   0  0  0  0  0  0  0  0  0  0  0  0
   -2.9754    3.2017    8.1385 H   0  0  0  0  0  0  0  0  0  0  0  0
   -2.4130    2.0725    6.3954 C   0  0  0  0  0  0  0  0  0  0  0  0
   -2.8160    1.1380    6.7562 H   0  0  0  0  0  0  0  0  0  0  0  0
   -1.7973    2.1462    5.1555 C   0  0  0  0  0  0  0  0  0  0  0  0
   -1.7048    1.2759    4.5262 H   0  0  0  0  0  0  0  0  0  0  0  0
   -1.3062    3.3736    4.7287 C   0  0  0  0  0  0  0  0  0  0  0  0
   -0.8216    3.4949    3.7695 H   0  0  0  0  0  0  0  0  0  0  0  0
   -1.4466    7.8888    7.3440 N   0  0  0  0  0  0  0  0  0  0  0  0
   -1.4121    6.6416    6.8985 N   0  0  0  0  0  0  0  0  0  0  0  0
   -1.3979    4.4657    5.4622 N   0  0  0  0  0  0  0  0  0  0  0  0
   -0.3184    8.5057    5.4902 O   0  0  0  0  0  0  0  0  0  0  0  0
   -1.0671    6.5294    4.6814 Zn  0  0  0  0  0  0  0  0  0  0  0  0
   -3.1890    7.3136    4.6184 Cl  0  0  0  0  0  0  0  0  0  0  0  0
    0.2721    6.0266    3.0363 Cl  0  0  0  0  0  0  0  0  0  0  0  0
   -2.1004    8.1617    8.0771 H   0  0  0  0  0  0  0  0  0  0  0  0
  1 10  1  0  0  0  0
  2  4  1  0  0  0  0
  2  1  2  0  0  0  0
  3  2  1  0  0  0  0
  4  6  2  0  0  0  0
  5  4  1  0  0  0  0
  6  7  1  0  0  0  0
  6  8  1  0  0  0  0
  8  9  1  0  0  0  0
 10  8  2  0  0  0  0
 10 11  1  0  0  0  0
 12  1  1  6  0  0  0
 12 24  1  0  0  0  0
 13 14  1  0  0  0  0
 15 16  1  0  0  0  0
 15 13  2  0  0  0  0
 16 17  1  0  0  0  0
 18 19  1  0  0  0  0
 18 16  2  0  0  0  0
 20 18  1  0  0  0  0
 21 20  1  0  0  0  0
 22 20  2  0  0  0  0
 22 26  1  0  0  0  0
 23 22  1  0  0  0  0
 24 31  1  0  0  0  0
 25 24  1  0  0  0  0
 25 13  1  0  0  0  0
 26 15  1  0  0  0  0
 27 12  1  0  0  0  0
 28 26  1  0  0  0  0
 28 27  1  0  0  0  0
 28 25  1  0  0  0  0
 29 28  1  0  0  0  0
 30 28  1  0  0  0  0
M  END
$$$$
