CSD_code = GEDCEX | q = 0 | S = 0 | Stoichiometry = C31H16Br2MoO4P2 | MND = 7
 OpenBabel04212202043D

 56 60  0  0  0  0  0  0  0  0999 V2000
    0.8489    5.8072    9.6224 Mo  0  0  0  0  0  0  0  0  0  0  0  0
    0.9163    7.5057   11.7498 Br  0  0  0  0  0  0  0  0  0  0  0  0
    0.7101    8.0172    8.1071 Br  0  0  0  0  0  0  0  0  0  0  0  0
    1.0114    4.8695   11.7889 P   0  0  0  0  0  0  0  0  0  0  0  0
    0.8889    3.3855    9.6574 P   0  0  0  0  0  4  0  0  0  0  0  0
    0.9910    3.1999   11.2556 O   0  0  0  0  0  0  0  0  0  0  0  0
   -2.2345    5.6187    9.9132 O   0  0  0  0  0  1  0  0  0  0  0  0
    3.9419    5.6663    9.4343 O   0  0  0  0  0  1  0  0  0  0  0  0
    0.6718    5.2292    6.5666 O   0  0  0  0  0  1  0  0  0  0  0  0
   -1.1085    5.7553    9.7974 C   0  0  0  0  0  2  0  0  0  0  0  0
    2.8109    5.7960    9.5045 C   0  0  0  0  0  2  0  0  0  0  0  0
    0.7318    5.4917    7.6796 C   0  0  0  0  0  2  0  0  0  0  0  0
    2.4735    4.7281   12.8278 C   0  0  0  0  0  0  0  0  0  0  0  0
    2.5367    3.5926   13.6561 C   0  0  0  0  0  0  0  0  0  0  0  0
    3.6070    3.3823   14.4741 C   0  0  0  0  0  0  0  0  0  0  0  0
    4.6697    4.3197   14.5058 C   0  0  0  0  0  0  0  0  0  0  0  0
    4.5933    5.5113   13.6684 C   0  0  0  0  0  0  0  0  0  0  0  0
    3.5099    5.6756   12.8604 C   0  0  0  0  0  0  0  0  0  0  0  0
    5.8715    4.5174   15.0468 C   0  0  0  0  0  1  0  0  0  0  0  0
   -0.3515    4.7656   12.9622 C   0  0  0  0  0  0  0  0  0  0  0  0
   -0.3167    5.4996   14.1592 C   0  0  0  0  0  0  0  0  0  0  0  0
   -1.3534    5.4327   15.0448 C   0  0  0  0  0  0  0  0  0  0  0  0
   -2.4759    4.6142   14.7695 C   0  0  0  0  0  0  0  0  0  0  0  0
   -2.5099    3.8424   13.5319 C   0  0  0  0  0  0  0  0  0  0  0  0
   -1.4568    3.9435   12.6763 C   0  0  0  0  0  0  0  0  0  0  0  0
   -3.6636    4.2558   15.2565 C   0  0  0  0  0  1  0  0  0  0  0  0
   -0.4700    2.3085    9.2050 C   0  0  0  0  0  0  0  0  0  0  0  0
   -1.1424    2.4964    7.9825 C   0  0  0  0  0  0  0  0  0  0  0  0
   -2.1009    1.6204    7.5741 C   0  0  0  0  0  0  0  0  0  0  0  0
   -2.4206    0.4861    8.3673 C   0  0  0  0  0  0  0  0  0  0  0  0
   -1.6881    0.2609    9.6146 C   0  0  0  0  0  0  0  0  0  0  0  0
   -0.7447    1.1616    9.9832 C   0  0  0  0  0  0  0  0  0  0  0  0
   -3.2426   -0.5552    8.4195 C   0  0  0  0  0  1  0  0  0  0  0  0
    2.2400    2.3825    9.0402 C   0  0  0  0  0  0  0  0  0  0  0  0
    2.8038    1.3702    9.8460 C   0  0  0  0  0  0  0  0  0  0  0  0
    3.7476    0.5219    9.3673 C   0  0  0  0  0  0  0  0  0  0  0  0
    4.1694    0.6661    7.9721 C   0  0  0  0  0  0  0  0  0  0  0  0
    3.5648    1.6625    7.1629 C   0  0  0  0  0  0  0  0  0  0  0  0
    2.6186    2.4884    7.6876 C   0  0  0  0  0  0  0  0  0  0  0  0
    5.0934   -0.2861    7.9748 C   0  0  0  0  0  1  0  0  0  0  0  0
    1.7175    2.8845   13.6294 H   0  0  0  0  0  0  0  0  0  0  0  0
    3.6757    2.5151   15.1118 H   0  0  0  0  0  0  0  0  0  0  0  0
    5.3944    6.2353   13.6940 H   0  0  0  0  0  0  0  0  0  0  0  0
    3.4575    6.5647   12.2460 H   0  0  0  0  0  0  0  0  0  0  0  0
    0.5368    6.1310   14.3671 H   0  0  0  0  0  0  0  0  0  0  0  0
   -1.3497    5.9974   15.9632 H   0  0  0  0  0  0  0  0  0  0  0  0
   -3.3668    3.2232   13.3081 H   0  0  0  0  0  0  0  0  0  0  0  0
   -1.4829    3.3827   11.7491 H   0  0  0  0  0  0  0  0  0  0  0  0
   -0.9102    3.3676    7.3848 H   0  0  0  0  0  0  0  0  0  0  0  0
   -2.6511    1.7646    6.6578 H   0  0  0  0  0  0  0  0  0  0  0  0
   -1.9201   -0.6046   10.2183 H   0  0  0  0  0  0  0  0  0  0  0  0
   -0.2007    1.0141   10.9067 H   0  0  0  0  0  0  0  0  0  0  0  0
    2.4940    1.2896   10.8790 H   0  0  0  0  0  0  0  0  0  0  0  0
    4.2018   -0.2377    9.9880 H   0  0  0  0  0  0  0  0  0  0  0  0
    3.8889    1.7447    6.1376 H   0  0  0  0  0  0  0  0  0  0  0  0
    2.1626    3.2530    7.0734 H   0  0  0  0  0  0  0  0  0  0  0  0
  1  5  1  0  0  0  0
  1 10  1  0  0  0  0
  1  4  1  0  0  0  0
  2  4  1  0  0  0  0
  3  1  1  0  0  0  0
  4 13  1  0  0  0  0
  4 20  1  0  0  0  0
  5  6  1  0  0  0  0
  6  4  1  0  0  0  0
  8 11  1  0  0  0  0
  9 12  1  0  0  0  0
 10  7  1  0  0  0  0
 11  1  1  0  0  0  0
 12  1  1  0  0  0  0
 13 18  2  0  0  0  0
 13 14  1  0  0  0  0
 14 15  2  0  0  0  0
 15 16  1  0  0  0  0
 15 42  1  0  0  0  0
 16 19  1  0  0  0  0
 17 43  1  0  0  0  0
 17 16  2  0  0  0  0
 18 17  1  0  0  0  0
 20 21  1  0  0  0  0
 21 45  1  0  0  0  0
 21 22  2  0  0  0  0
 22 46  1  0  0  0  0
 23 22  1  0  0  0  0
 23 26  1  0  0  0  0
 24 23  2  0  0  0  0
 25 20  2  0  0  0  0
 25 24  1  0  0  0  0
 27  5  1  0  0  0  0
 27 32  1  0  0  0  0
 28 27  2  0  0  0  0
 29 28  1  0  0  0  0
 29 30  2  0  0  0  0
 30 33  1  0  0  0  0
 30 31  1  0  0  0  0
 31 32  2  0  0  0  0
 31 51  1  0  0  0  0
 32 52  1  0  0  0  0
 34  5  1  0  0  0  0
 34 35  1  0  0  0  0
 35 53  1  0  0  0  0
 36 35  2  0  0  0  0
 36 54  1  0  0  0  0
 37 40  1  0  0  0  0
 37 36  1  0  0  0  0
 38 39  1  0  0  0  0
 38 37  2  0  0  0  0
 39 34  2  0  0  0  0
 41 14  1  0  0  0  0
 44 18  1  0  0  0  0
 47 24  1  0  0  0  0
 48 25  1  0  0  0  0
 49 28  1  0  0  0  0
 50 29  1  0  0  0  0
 55 38  1  0  0  0  0
 56 39  1  0  0  0  0
M  END
$$$$
