CSD_code = GEDMAG | q = 0 | S = 0 | Stoichiometry = C31H23Cl2N3O2PReS2 | MND = 6
 OpenBabel04212202043D

 65 71  0  0  0  0  0  0  0  0999 V2000
    4.0973    6.5494    0.9635 Re  0  0  0  0  0  0  0  0  0  0  0  0
    3.0470    7.5332   -0.8187 Cl  0  0  0  0  0  0  0  0  0  0  0  0
    5.9923    6.4745   -0.2857 Cl  0  0  0  0  0  0  0  0  0  0  0  0
    2.8662    2.1807   -1.2262 S   0  0  0  0  0  0  0  0  0  0  0  0
   -0.3832    4.7417    2.9521 S   0  0  0  0  0  0  0  0  0  0  0  0
    5.2100    4.9448    2.4967 P   0  0  0  0  0  4  0  0  0  0  0  0
    3.5019    4.7465    0.0948 O   0  0  0  0  0  0  0  0  0  0  0  0
    4.2841    7.7732    2.0688 O   0  0  0  0  0  1  0  0  0  0  0  0
    1.6099    4.9354    1.3155 N   0  0  0  0  0  0  0  0  0  0  0  0
    0.7064    2.3913    0.1681 C   0  0  0  0  0  0  0  0  0  0  0  0
   -0.0315    2.7815    0.8437 H   0  0  0  0  0  0  0  0  0  0  0  0
   -0.1288    6.9053    4.3750 N   0  0  0  0  0  0  0  0  0  0  0  0
    2.1560    6.0609    1.7509 N   0  0  0  0  0  0  0  0  0  0  0  0
    2.3605    4.2963    0.4352 C   0  0  0  0  0  0  0  0  0  0  0  0
    1.8824    3.0475   -0.0973 C   0  0  0  0  0  0  0  0  0  0  0  0
    1.6886    0.9431   -1.3262 C   0  0  0  0  0  0  0  0  0  0  0  0
    1.8614    0.1014   -1.9675 H   0  0  0  0  0  0  0  0  0  0  0  0
    0.6006    1.1843   -0.5389 C   0  0  0  0  0  0  0  0  0  0  0  0
   -0.2436    0.5221   -0.4723 H   0  0  0  0  0  0  0  0  0  0  0  0
    1.5647    6.7164    2.7028 C   0  0  0  0  0  3  0  0  0  0  0  0
    2.0167    7.6437    3.0214 H   0  0  0  0  0  0  0  0  0  0  0  0
    0.4023    6.2714    3.3822 C   0  0  0  0  0  0  0  0  0  0  0  0
   -1.5083    5.0283    4.2463 C   0  0  0  0  0  0  0  0  0  0  0  0
   -1.1970    6.2532    4.8886 C   0  0  0  0  0  0  0  0  0  0  0  0
   -1.9762    6.6844    5.9641 C   0  0  0  0  0  0  0  0  0  0  0  0
   -1.7355    7.6182    6.4459 H   0  0  0  0  0  0  0  0  0  0  0  0
   -3.0323    5.9034    6.3740 C   0  0  0  0  0  0  0  0  0  0  0  0
   -3.6452    6.2249    7.2026 H   0  0  0  0  0  0  0  0  0  0  0  0
   -3.3298    4.6984    5.7345 C   0  0  0  0  0  0  0  0  0  0  0  0
   -4.1657    4.1078    6.0782 H   0  0  0  0  0  0  0  0  0  0  0  0
   -2.5743    4.2511    4.6694 C   0  0  0  0  0  0  0  0  0  0  0  0
   -2.8042    3.3211    4.1731 H   0  0  0  0  0  0  0  0  0  0  0  0
    5.3512    3.2450    1.8870 C   0  0  0  0  0  0  0  0  0  0  0  0
    4.9649    2.1335    2.6290 C   0  0  0  0  0  0  0  0  0  0  0  0
    4.5808    2.2526    3.6320 H   0  0  0  0  0  0  0  0  0  0  0  0
    5.0867    0.8685    2.0801 C   0  0  0  0  0  0  0  0  0  0  0  0
    4.7831    0.0065    2.6559 H   0  0  0  0  0  0  0  0  0  0  0  0
    5.5933    0.7071    0.8013 C   0  0  0  0  0  0  0  0  0  0  0  0
    5.6769   -0.2822    0.3766 H   0  0  0  0  0  0  0  0  0  0  0  0
    5.9959    1.8132    0.0686 C   0  0  0  0  0  0  0  0  0  0  0  0
    6.3955    1.6885   -0.9261 H   0  0  0  0  0  0  0  0  0  0  0  0
    5.8779    3.0808    0.6061 C   0  0  0  0  0  0  0  0  0  0  0  0
    6.1796    3.9520    0.0394 H   0  0  0  0  0  0  0  0  0  0  0  0
    6.9061    5.4397    2.8956 C   0  0  0  0  0  0  0  0  0  0  0  0
    7.8831    4.4886    3.1707 C   0  0  0  0  0  0  0  0  0  0  0  0
    7.6390    3.4359    3.1396 H   0  0  0  0  0  0  0  0  0  0  0  0
    9.1687    4.8981    3.4760 C   0  0  0  0  0  0  0  0  0  0  0  0
    9.9301    4.1611    3.6841 H   0  0  0  0  0  0  0  0  0  0  0  0
    9.4811    6.2475    3.5086 C   0  0  0  0  0  0  0  0  0  0  0  0
   10.4883    6.5607    3.7399 H   0  0  0  0  0  0  0  0  0  0  0  0
    8.5069    7.1954    3.2365 C   0  0  0  0  0  0  0  0  0  0  0  0
    8.7529    8.2461    3.2558 H   0  0  0  0  0  0  0  0  0  0  0  0
    7.2203    6.7957    2.9266 C   0  0  0  0  0  0  0  0  0  0  0  0
    6.4535    7.5252    2.6936 H   0  0  0  0  0  0  0  0  0  0  0  0
    4.3125    4.8941    4.0735 C   0  0  0  0  0  0  0  0  0  0  0  0
    4.7732    5.6122    5.1732 C   0  0  0  0  0  0  0  0  0  0  0  0
    5.7248    6.1208    5.1199 H   0  0  0  0  0  0  0  0  0  0  0  0
    4.0115    5.6758    6.3262 C   0  0  0  0  0  0  0  0  0  0  0  0
    4.3725    6.2375    7.1746 H   0  0  0  0  0  0  0  0  0  0  0  0
    2.7882    5.0297    6.3927 C   0  0  0  0  0  0  0  0  0  0  0  0
    2.1922    5.0878    7.2908 H   0  0  0  0  0  0  0  0  0  0  0  0
    2.3246    4.3135    5.3013 C   0  0  0  0  0  0  0  0  0  0  0  0
    1.3708    3.8089    5.3492 H   0  0  0  0  0  0  0  0  0  0  0  0
    3.0749    4.2531    4.1420 C   0  0  0  0  0  0  0  0  0  0  0  0
    2.6943    3.7110    3.2861 H   0  0  0  0  0  0  0  0  0  0  0  0
  1 13  1  0  0  0  0
  1  8  1  0  0  0  0
  1  6  1  0  0  0  0
  2  1  1  0  0  0  0
  3  1  1  0  0  0  0
  4 15  1  0  0  0  0
  5 22  1  0  0  0  0
  5 23  1  0  0  0  0
  6 44  1  0  0  0  0
  6 55  1  0  0  0  0
  7 14  1  0  0  0  0
  7  1  1  0  0  0  0
  9 13  1  0  0  0  0
 10 11  1  0  0  0  0
 12 24  1  0  0  0  0
 13 20  1  0  0  0  0
 14  9  2  0  0  0  0
 15 10  2  0  0  0  0
 15 14  1  0  0  0  0
 16  4  1  0  0  0  0
 16 18  2  0  0  0  0
 17 16  1  0  0  0  0
 18 19  1  0  0  0  0
 18 10  1  0  0  0  0
 20 21  1  0  0  0  0
 20 22  1  0  0  0  0
 22 12  2  0  0  0  0
 23 31  2  0  0  0  0
 23 24  1  0  0  0  0
 24 25  2  0  0  0  0
 25 27  1  0  0  0  0
 25 26  1  0  0  0  0
 27 28  1  0  0  0  0
 29 30  1  0  0  0  0
 29 27  2  0  0  0  0
 31 29  1  0  0  0  0
 32 31  1  0  0  0  0
 33  6  1  0  0  0  0
 33 34  1  0  0  0  0
 34 35  1  0  0  0  0
 36 34  2  0  0  0  0
 36 37  1  0  0  0  0
 38 36  1  0  0  0  0
 39 38  1  0  0  0  0
 40 42  1  0  0  0  0
 40 38  2  0  0  0  0
 41 40  1  0  0  0  0
 42 33  2  0  0  0  0
 43 42  1  0  0  0  0
 44 53  2  0  0  0  0
 44 45  1  0  0  0  0
 45 47  2  0  0  0  0
 46 45  1  0  0  0  0
 47 49  1  0  0  0  0
 47 48  1  0  0  0  0
 49 50  1  0  0  0  0
 51 52  1  0  0  0  0
 51 49  2  0  0  0  0
 53 51  1  0  0  0  0
 54 53  1  0  0  0  0
 55 64  2  0  0  0  0
 55 56  1  0  0  0  0
 56 58  2  0  0  0  0
 57 56  1  0  0  0  0
 58 60  1  0  0  0  0
 58 59  1  0  0  0  0
 60 61  1  0  0  0  0
 62 63  1  0  0  0  0
 62 60  2  0  0  0  0
 64 62  1  0  0  0  0
 65 64  1  0  0  0  0
M  END
$$$$
