CSD_code = GEFNIR | q = 0 | S = 0 | Stoichiometry = C12H14Cl2N2O2Pt | MND = 4
 OpenBabel04212202043D

 33 34  0  0  0  0  0  0  0  0999 V2000
    7.5948    6.1651    3.3695 Pt  0  0  0  0  0  0  0  0  0  0  0  0
    6.3794    5.4102    5.1798 Cl  0  0  0  0  0  0  0  0  0  0  0  0
    3.7414   10.8381    2.7627 O   0  0  0  0  0  0  0  0  0  0  0  0
    6.3371    7.6507    3.1515 N   0  0  0  0  0  0  0  0  0  0  0  0
    5.0474    7.4216    2.9084 C   0  0  0  0  0  3  0  0  0  0  0  0
    4.7459    6.3829    2.8396 H   0  0  0  0  0  0  0  0  0  0  0  0
    4.1160    8.4297    2.7607 C   0  0  0  0  0  0  0  0  0  0  0  0
    3.0892    8.1689    2.5651 H   0  0  0  0  0  0  0  0  0  0  0  0
    4.5308    9.7578    2.8750 C   0  0  0  0  0  0  0  0  0  0  0  0
    5.8894    9.9875    3.1294 C   0  0  0  0  0  0  0  0  0  0  0  0
    6.2441   11.0005    3.2206 H   0  0  0  0  0  0  0  0  0  0  0  0
    6.7455    8.9199    3.2563 C   0  0  0  0  0  0  0  0  0  0  0  0
    7.8022    9.0737    3.4396 H   0  0  0  0  0  0  0  0  0  0  0  0
    2.3647   10.6540    2.5091 C   0  0  0  0  0  0  0  0  0  0  0  0
    1.9391   11.6546    2.4634 H   0  0  0  0  0  0  0  0  0  0  0  0
    1.8837   10.0909    3.3139 H   0  0  0  0  0  0  0  0  0  0  0  0
    2.2002   10.1454    1.5551 H   0  0  0  0  0  0  0  0  0  0  0  0
    8.8093    6.9179    1.5577 Cl  0  0  0  0  0  0  0  0  0  0  0  0
   11.4390    1.4837    3.9697 O   0  0  0  0  0  0  0  0  0  0  0  0
    8.8517    4.6787    3.5870 N   0  0  0  0  0  0  0  0  0  0  0  0
   10.1420    4.9040    3.8299 C   0  0  0  0  0  3  0  0  0  0  0  0
   10.4463    5.9418    3.9002 H   0  0  0  0  0  0  0  0  0  0  0  0
   11.0709    3.8932    3.9757 C   0  0  0  0  0  0  0  0  0  0  0  0
   12.0985    4.1509    4.1713 H   0  0  0  0  0  0  0  0  0  0  0  0
   10.6526    2.5664    3.8596 C   0  0  0  0  0  0  0  0  0  0  0  0
    9.2933    2.3406    3.6053 C   0  0  0  0  0  0  0  0  0  0  0  0
    8.9359    1.3287    3.5127 H   0  0  0  0  0  0  0  0  0  0  0  0
    8.4400    3.4106    3.4804 C   0  0  0  0  0  0  0  0  0  0  0  0
    7.3828    3.2599    3.2974 H   0  0  0  0  0  0  0  0  0  0  0  0
   12.8162    1.6632    4.2235 C   0  0  0  0  0  0  0  0  0  0  0  0
   13.2386    0.6611    4.2678 H   0  0  0  0  0  0  0  0  0  0  0  0
   13.2991    2.2258    3.4195 H   0  0  0  0  0  0  0  0  0  0  0  0
   12.9825    2.1699    5.1783 H   0  0  0  0  0  0  0  0  0  0  0  0
  1 20  1  0  0  0  0
  1  2  1  0  0  0  0
  3  9  1  0  0  0  0
  4 12  1  0  0  0  0
  4  1  1  0  0  0  0
  5  4  1  0  0  0  0
  6  5  1  0  0  0  0
  7  9  2  0  0  0  0
  7  5  1  0  0  0  0
  8  7  1  0  0  0  0
  9 10  1  0  0  0  0
 10 11  1  0  0  0  0
 10 12  2  0  0  0  0
 12 13  1  0  0  0  0
 14  3  1  0  0  0  0
 14 16  1  0  0  0  0
 15 14  1  0  0  0  0
 17 14  1  0  0  0  0
 18  1  1  0  0  0  0
 19 30  1  0  0  0  0
 20 21  1  0  0  0  0
 21 22  1  0  0  0  0
 21 23  1  0  0  0  0
 23 24  1  0  0  0  0
 25 19  1  0  0  0  0
 25 23  2  0  0  0  0
 26 25  1  0  0  0  0
 27 26  1  0  0  0  0
 28 20  1  0  0  0  0
 28 26  2  0  0  0  0
 29 28  1  0  0  0  0
 30 31  1  0  0  0  0
 30 33  1  0  0  0  0
 32 30  1  0  0  0  0
M  END
$$$$
