CSD_code = GEFWUM | q = 0 | S = 0 | Stoichiometry = C12H15ClN2O3PdS | MND = 4
 OpenBabel04212202043D

 35 37  0  0  1  0  0  0  0  0999 V2000
    8.0342    4.0169    6.1131 C   0  0  2  0  0  3  0  0  0  0  0  0
    8.5537    4.9235    3.5111 Pd  0  0  2  0  0  0  0  0  0  0  0  0
   10.6238    4.7465    2.6277 Cl  0  0  0  0  0  0  0  0  0  0  0  0
    7.9999    6.0287    1.5953 S   0  0  2  0  0  3  0  0  0  0  0  0
    6.7478    5.0485    4.4190 N   0  0  0  0  0  0  0  0  0  0  0  0
    9.0255    3.9796    5.2130 N   0  0  0  0  0  0  0  0  0  0  0  0
    5.7418    4.6164    6.4096 O   0  0  0  0  0  0  0  0  0  0  0  0
    4.1993    3.5409    4.3908 O   0  0  0  0  0  0  0  0  0  0  0  0
    3.4520    5.5252    5.1490 O   0  0  0  0  0  0  0  0  0  0  0  0
    8.1845    3.4986    7.3924 C   0  0  0  0  0  0  0  0  0  0  0  0
    7.3443    3.5591    8.0665 H   0  0  0  0  0  0  0  0  0  0  0  0
    9.3936    2.9275    7.7473 C   0  0  0  0  0  0  0  0  0  0  0  0
    9.5409    2.5178    8.7351 H   0  0  0  0  0  0  0  0  0  0  0  0
   10.4116    2.8906    6.8052 C   0  0  0  0  0  0  0  0  0  0  0  0
   11.3690    2.4516    7.0361 H   0  0  0  0  0  0  0  0  0  0  0  0
   10.1895    3.4291    5.5478 C   0  0  0  0  0  0  0  0  0  0  0  0
   10.9618    3.4225    4.7861 H   0  0  0  0  0  0  0  0  0  0  0  0
    6.7280    4.6011    5.6683 C   0  0  0  0  0  0  0  0  0  0  0  0
    5.4806    5.5424    3.9275 C   0  0  2  0  0  0  0  0  0  0  0  0
    5.3359    6.5957    4.2110 H   0  0  0  0  0  0  0  0  0  0  0  0
    4.3446    4.7223    4.5704 C   0  0  0  0  0  0  0  0  0  0  0  0
    2.3915    4.8734    5.8344 C   0  0  0  0  0  0  0  0  0  0  0  0
    1.6803    5.6489    6.1074 H   0  0  0  0  0  0  0  0  0  0  0  0
    2.7874    4.3818    6.7245 H   0  0  0  0  0  0  0  0  0  0  0  0
    1.9257    4.1260    5.1885 H   0  0  0  0  0  0  0  0  0  0  0  0
    5.3656    5.3665    2.4088 C   0  0  0  0  0  0  0  0  0  0  0  0
    5.6391    4.3336    2.1688 H   0  0  0  0  0  0  0  0  0  0  0  0
    4.3187    5.5053    2.1271 H   0  0  0  0  0  0  0  0  0  0  0  0
    6.2027    6.3579    1.6148 C   0  0  0  0  0  0  0  0  0  0  0  0
    6.1020    7.3630    2.0267 H   0  0  0  0  0  0  0  0  0  0  0  0
    5.8934    6.3744    0.5687 H   0  0  0  0  0  0  0  0  0  0  0  0
    8.0355    4.5205    0.5686 C   0  0  0  0  0  0  0  0  0  0  0  0
    7.5065    4.7148   -0.3608 H   0  0  0  0  0  0  0  0  0  0  0  0
    7.5929    3.6764    1.1045 H   0  0  0  0  0  0  0  0  0  0  0  0
    9.0860    4.3171    0.3688 H   0  0  0  0  0  0  0  0  0  0  0  0
  1 18  1  6  0  0  0
  1 10  1  0  0  0  0
  2  3  1  1  0  0  0
  2  5  1  0  0  0  0
  2  6  1  0  0  0  0
  4 32  1  6  0  0  0
  4 29  1  0  0  0  0
  4  2  1  0  0  0  0
  5 18  1  0  0  0  0
  6 16  1  0  0  0  0
  6  1  1  0  0  0  0
  8 21  2  0  0  0  0
  9 22  1  0  0  0  0
 10 12  2  0  0  0  0
 10 11  1  0  0  0  0
 12 13  1  0  0  0  0
 14 15  1  0  0  0  0
 14 12  1  0  0  0  0
 16 14  2  0  0  0  0
 17 16  1  0  0  0  0
 18  7  2  0  0  0  0
 19 20  1  1  0  0  0
 19  5  1  0  0  0  0
 19 21  1  0  0  0  0
 21  9  1  0  0  0  0
 22 23  1  0  0  0  0
 22 24  1  0  0  0  0
 25 22  1  0  0  0  0
 26 19  1  0  0  0  0
 27 26  1  0  0  0  0
 28 26  1  0  0  0  0
 29 30  1  0  0  0  0
 29 26  1  0  0  0  0
 31 29  1  0  0  0  0
 32 34  1  0  0  0  0
 33 32  1  0  0  0  0
 35 32  1  0  0  0  0
M  END
$$$$
