CSD_code = GEGMIQ | q = 0 | S = 0 | Stoichiometry = C9H7BrMnNO4 | MND = 6
 OpenBabel04212202043D

 23 23  0  0  0  0  0  0  0  0999 V2000
   11.1170    5.2047    1.0890 Mn  0  0  0  0  0  0  0  0  0  0  0  0
   13.0740    4.6122   -0.1942 Br  0  0  0  0  0  0  0  0  0  0  0  0
   12.4058    5.8806    2.5634 N   0  0  0  0  0  0  0  0  0  0  0  0
   10.0631    4.3891   -0.1003 C   0  0  0  0  0  2  0  0  0  0  0  0
    9.3807    3.8820   -0.8704 O   0  0  0  0  0  1  0  0  0  0  0  0
   10.8940    6.7341    0.2027 C   0  0  0  0  0  2  0  0  0  0  0  0
   10.7331    7.7067   -0.3913 O   0  0  0  0  0  1  0  0  0  0  0  0
    9.7211    5.5588    2.1289 C   0  0  0  0  0  2  0  0  0  0  0  0
    8.7983    5.8163    2.7615 O   0  0  0  0  0  1  0  0  0  0  0  0
   11.5913    3.3467    2.2494 O   0  0  0  0  0  0  0  0  0  0  0  0
   11.6491    2.5443    1.7107 H   0  0  0  0  0  0  0  0  0  0  0  0
   12.6476    7.1663    2.8337 C   0  0  0  0  0  3  0  0  0  0  0  0
   12.1270    7.8947    2.2246 H   0  0  0  0  0  0  0  0  0  0  0  0
   13.5157    7.5799    3.8254 C   0  0  0  0  0  0  0  0  0  0  0  0
   13.6774    8.6323    3.9913 H   0  0  0  0  0  0  0  0  0  0  0  0
   14.1657    6.6221    4.5897 C   0  0  0  0  0  0  0  0  0  0  0  0
   14.8496    6.9059    5.3741 H   0  0  0  0  0  0  0  0  0  0  0  0
   13.9159    5.2903    4.3181 C   0  0  0  0  0  0  0  0  0  0  0  0
   14.3989    4.5060    4.8795 H   0  0  0  0  0  0  0  0  0  0  0  0
   13.0360    4.9571    3.2954 C   0  0  0  0  0  0  0  0  0  0  0  0
   12.8144    3.5089    2.9463 C   0  0  0  0  0  0  0  0  0  0  0  0
   13.6640    3.1883    2.3236 H   0  0  0  0  0  0  0  0  0  0  0  0
   12.7956    2.8989    3.8614 H   0  0  0  0  0  0  0  0  0  0  0  0
  1  8  1  0  0  0  0
  1  3  1  0  0  0  0
  2  1  1  0  0  0  0
  3 12  1  0  0  0  0
  3 20  1  0  0  0  0
  4  1  1  0  0  0  0
  5  4  1  0  0  0  0
  6  1  1  0  0  0  0
  7  6  1  0  0  0  0
  8  9  1  0  0  0  0
 10 21  1  0  0  0  0
 11 10  1  0  0  0  0
 12 14  1  0  0  0  0
 13 12  1  0  0  0  0
 14 15  1  0  0  0  0
 14 16  2  0  0  0  0
 16 17  1  0  0  0  0
 18 16  1  0  0  0  0
 18 19  1  0  0  0  0
 20 18  2  0  0  0  0
 21 20  1  0  0  0  0
 21 23  1  0  0  0  0
 22 21  1  0  0  0  0
M  END
$$$$
